=
 OpenBabel11052423023D

 28 29  0  0  1  0  0  0  0  0999 V2000
  163.4620  206.5270  150.5350 O   0  0  0  0  0  1  0  0  0  0  0  0
  160.7950  207.7000  149.8090 C   0  0  0  0  0  2  0  0  0  0  0  0
  161.6000  205.0230  150.7890 C   0  0  2  0  0  3  0  0  0  0  0  0
  159.9400  206.4910  149.4580 C   0  0  0  0  0  2  0  0  0  0  0  0
  162.2950  206.3060  151.2700 C   0  0  2  0  0  3  0  0  0  0  0  0
  161.3640  207.5220  151.2110 C   0  0  1  0  0  3  0  0  0  0  0  0
  160.7510  205.1840  149.5040 C   0  0  1  0  0  3  0  0  0  0  0  0
  161.4680  204.8140  148.1760 C   0  0  1  0  0  0  0  0  0  0  0  0
  162.8040  205.5300  148.0760 C   0  0  0  0  0  1  0  0  0  0  0  0
  160.8620  202.3960  148.4090 C   0  0  0  0  0  3  0  0  0  0  0  0
  161.7580  203.3340  148.0950 C   0  0  0  0  0  3  0  0  0  0  0  0
  161.2250  200.9570  148.3040 C   0  0  0  0  0  1  0  0  0  0  0  0
  160.6430  205.2570  146.9590 C   0  0  0  0  0  2  0  0  0  0  0  0
  161.4860  205.8470  145.8280 C   0  0  0  0  0  2  0  0  0  0  0  0
  161.6810  204.8430  144.7020 C   0  0  1  0  0  3  0  0  0  0  0  0
  162.7400  203.9990  144.9820 F   0  0  0  0  0  0  0  0  0  0  0  0
  160.5180  204.0970  144.5090 O   0  0  0  0  0  1  0  0  0  0  0  0
  162.0650  208.7670  151.6720 C   0  0  0  0  0  3  0  0  0  0  0  0
  161.7840  209.3840  152.8280 C   0  0  0  0  0  3  0  0  0  0  0  0
  160.2660  207.2660  155.6020 C   0  0  0  0  0  3  0  0  0  0  0  0
  160.7510  208.8930  153.7950 C   0  0  1  0  0  3  0  0  0  0  0  0
  160.2900  209.6340  156.2350 C   0  0  1  0  0  3  0  0  0  0  0  0
  161.2410  207.6330  154.5220 C   0  0  0  0  0  2  0  0  0  0  0  0
  160.3480  210.0360  154.7510 C   0  0  0  0  0  2  0  0  0  0  0  0
  159.4000  210.5920  156.9980 C   0  0  0  0  0  1  0  0  0  0  0  0
  159.8070  208.2230  156.4150 C   0  0  0  0  0  3  0  0  0  0  0  0
  161.0270  202.9760  151.9300 O   0  0  0  0  0  1  0  0  0  0  0  0
  160.8050  204.3550  151.9080 C   0  0  0  0  0  2  0  0  0  0  0  0
  2  6  1  0  0  0  0
  3  5  1  0  0  0  0
  3 28  1  1  0  0  0
  4  7  1  0  0  0  0
  4  2  1  0  0  0  0
  5  1  1  6  0  0  0
  6  5  1  0  0  0  0
  6 18  1  6  0  0  0
  7  8  1  6  0  0  0
  7  3  1  0  0  0  0
  8  9  1  6  0  0  0
 11  8  1  0  0  0  0
 11 10  2  0  0  0  0
 12 10  1  0  0  0  0
 13  8  1  0  0  0  0
 14 13  1  0  0  0  0
 15 17  1  1  0  0  0
 15 16  1  0  0  0  0
 15 14  1  0  0  0  0
 18 19  2  0  0  0  0
 20 26  2  0  0  0  0
 21 19  1  6  0  0  0
 21 23  1  0  0  0  0
 21 24  1  0  0  0  0
 22 26  1  0  0  0  0
 22 25  1  1  0  0  0
 23 20  1  0  0  0  0
 24 22  1  0  0  0  0
 28 27  1  0  0  0  0
M  END
>  <MODEL>
1

>  <REMARK>
 VINA RESULT:      -6.4      0.000      0.000
  Name = 
  8 active torsions:
  status: ('A' for Active; 'I' for Inactive)
    1  A    between atoms: C_1  and  C_3
    2  A    between atoms: C_1  and  C_11
    3  A    between atoms: C_1  and  C_27
    4  A    between atoms: C_6  and  C_8
    5  A    between atoms: C_8  and  C_11
    6  A    between atoms: C_9  and  C_18
    7  A    between atoms: C_14  and  C_25
    8  A    between atoms: C_16  and  C_21
                            x       y       z     vdW  Elec       q    Type
                         _______ _______ _______ _____ _____    ______ ____

>  <TORSDO>
F 8

$$$$
=
 OpenBabel11052423023D

 28 29  0  0  1  0  0  0  0  0999 V2000
  159.8620  208.6070  155.6710 O   0  0  0  0  0  1  0  0  0  0  0  0
  160.3020  209.3270  152.7890 C   0  0  0  0  0  2  0  0  0  0  0  0
  161.3900  210.4320  155.3120 C   0  0  2  0  0  3  0  0  0  0  0  0
  160.7490  210.7810  152.8330 C   0  0  0  0  0  2  0  0  0  0  0  0
  161.1120  208.9320  155.1370 C   0  0  2  0  0  3  0  0  0  0  0  0
  161.2200  208.4920  153.6730 C   0  0  1  0  0  3  0  0  0  0  0  0
  160.7140  211.3480  154.2630 C   0  0  1  0  0  3  0  0  0  0  0  0
  159.3510  211.9610  154.6880 C   0  0  1  0  0  0  0  0  0  0  0  0
  159.3840  212.3710  156.1500 C   0  0  0  0  0  1  0  0  0  0  0  0
  158.3460  213.1830  152.7470 C   0  0  0  0  0  3  0  0  0  0  0  0
  159.0300  213.2050  153.8930 C   0  0  0  0  0  3  0  0  0  0  0  0
  158.0700  214.4530  152.0220 C   0  0  0  0  0  1  0  0  0  0  0  0
  158.2140  210.9380  154.5470 C   0  0  0  0  0  2  0  0  0  0  0  0
  157.2620  210.9110  155.7420 C   0  0  0  0  0  2  0  0  0  0  0  0
  155.8280  211.1800  155.3130 C   0  0  1  0  0  3  0  0  0  0  0  0
  155.7970  212.0860  154.2680 F   0  0  0  0  0  0  0  0  0  0  0  0
  155.2030  209.9930  154.9290 O   0  0  0  0  0  1  0  0  0  0  0  0
  160.9310  207.0270  153.5210 C   0  0  0  0  0  3  0  0  0  0  0  0
  160.8570  206.4120  152.3330 C   0  0  0  0  0  3  0  0  0  0  0  0
  162.7560  208.0730  149.4830 C   0  0  0  0  0  3  0  0  0  0  0  0
  161.0690  207.1120  151.0260 C   0  0  1  0  0  3  0  0  0  0  0  0
  161.5140  206.1190  148.6740 C   0  0  1  0  0  3  0  0  0  0  0  0
  162.5370  207.5320  150.8650 C   0  0  0  0  0  2  0  0  0  0  0  0
  160.5540  206.2280  149.8710 C   0  0  0  0  0  2  0  0  0  0  0  0
  160.7500  205.7230  147.4290 C   0  0  0  0  0  1  0  0  0  0  0  0
  162.2610  207.4020  148.4370 C   0  0  0  0  0  3  0  0  0  0  0  0
  163.3700  210.3600  156.6890 O   0  0  0  0  0  1  0  0  0  0  0  0
  162.8850  210.7220  155.4310 C   0  0  0  0  0  2  0  0  0  0  0  0
  2  4  1  0  0  0  0
  2  6  1  0  0  0  0
  3 28  1  6  0  0  0
  4  7  1  0  0  0  0
  5  3  1  0  0  0  0
  5  1  1  6  0  0  0
  6 18  1  1  0  0  0
  6  5  1  0  0  0  0
  7  8  1  1  0  0  0
  7  3  1  0  0  0  0
  8  9  1  1  0  0  0
 10 11  2  0  0  0  0
 11  8  1  0  0  0  0
 12 10  1  0  0  0  0
 13  8  1  0  0  0  0
 13 14  1  0  0  0  0
 15 16  1  6  0  0  0
 15 14  1  0  0  0  0
 17 15  1  0  0  0  0
 19 18  2  0  0  0  0
 20 23  1  0  0  0  0
 21 19  1  1  0  0  0
 22 25  1  6  0  0  0
 22 24  1  0  0  0  0
 23 21  1  0  0  0  0
 24 21  1  0  0  0  0
 26 22  1  0  0  0  0
 26 20  2  0  0  0  0
 28 27  1  0  0  0  0
M  END
>  <MODEL>
2

>  <REMARK>
 VINA RESULT:      -5.8      4.354      8.974
  Name = 
  8 active torsions:
  status: ('A' for Active; 'I' for Inactive)
    1  A    between atoms: C_1  and  C_3
    2  A    between atoms: C_1  and  C_11
    3  A    between atoms: C_1  and  C_27
    4  A    between atoms: C_6  and  C_8
    5  A    between atoms: C_8  and  C_11
    6  A    between atoms: C_9  and  C_18
    7  A    between atoms: C_14  and  C_25
    8  A    between atoms: C_16  and  C_21
                            x       y       z     vdW  Elec       q    Type
                         _______ _______ _______ _____ _____    ______ ____

>  <TORSDO>
F 8

$$$$
=
 OpenBabel11052423023D

 28 29  0  0  1  0  0  0  0  0999 V2000
  159.6850  206.8440  149.1360 O   0  0  0  0  0  1  0  0  0  0  0  0
  162.4950  207.2880  148.1740 C   0  0  0  0  0  2  0  0  0  0  0  0
  161.3940  206.3100  150.7440 C   0  0  2  0  0  3  0  0  0  0  0  0
  163.2980  207.4870  149.4510 C   0  0  0  0  0  2  0  0  0  0  0  0
  160.7390  205.9660  149.3970 C   0  0  2  0  0  3  0  0  0  0  0  0
  161.7540  205.9590  148.2480 C   0  0  1  0  0  3  0  0  0  0  0  0
  162.3980  207.4880  150.6990 C   0  0  1  0  0  3  0  0  0  0  0  0
  161.8180  208.8780  151.0830 C   0  0  1  0  0  0  0  0  0  0  0  0
  162.8320  209.6740  151.8860 C   0  0  0  0  0  1  0  0  0  0  0  0
  162.1250  210.8270  149.5430 C   0  0  0  0  0  3  0  0  0  0  0  0
  161.4870  209.6990  149.8590 C   0  0  0  0  0  3  0  0  0  0  0  0
  161.7400  211.5810  148.3180 C   0  0  0  0  0  1  0  0  0  0  0  0
  160.5740  208.7330  151.9720 C   0  0  0  0  0  2  0  0  0  0  0  0
  160.7810  209.2310  153.4030 C   0  0  0  0  0  2  0  0  0  0  0  0
  160.7930  208.0770  154.3940 C   0  0  1  0  0  3  0  0  0  0  0  0
  161.6180  207.0610  153.9450 F   0  0  0  0  0  0  0  0  0  0  0  0
  161.2210  208.5170  155.6470 O   0  0  0  0  0  1  0  0  0  0  0  0
  161.0920  205.6350  146.9400 C   0  0  0  0  0  3  0  0  0  0  0  0
  160.9940  204.3890  146.4560 C   0  0  0  0  0  3  0  0  0  0  0  0
  161.2010  201.6650  149.1060 C   0  0  0  0  0  3  0  0  0  0  0  0
  161.5190  203.1820  147.1700 C   0  0  1  0  0  3  0  0  0  0  0  0
  160.8830  200.6860  146.8810 C   0  0  1  0  0  3  0  0  0  0  0  0
  160.7780  202.9700  148.4980 C   0  0  0  0  0  2  0  0  0  0  0  0
  161.4620  201.9560  146.2340 C   0  0  0  0  0  2  0  0  0  0  0  0
  161.3510  199.4600  146.1270 C   0  0  0  0  0  1  0  0  0  0  0  0
  161.2580  200.5760  148.3320 C   0  0  0  0  0  3  0  0  0  0  0  0
  161.0120  204.2540  151.9480 O   0  0  0  0  0  1  0  0  0  0  0  0
  162.0040  205.0790  151.4090 C   0  0  0  0  0  2  0  0  0  0  0  0
  2  6  1  0  0  0  0
  2  4  1  0  0  0  0
  3 28  1  6  0  0  0
  4  7  1  0  0  0  0
  5  1  1  6  0  0  0
  5  3  1  0  0  0  0
  6 18  1  6  0  0  0
  6  5  1  0  0  0  0
  7  3  1  0  0  0  0
  7  8  1  6  0  0  0
  8  9  1  1  0  0  0
  8 13  1  0  0  0  0
 10 11  2  0  0  0  0
 11  8  1  0  0  0  0
 12 10  1  0  0  0  0
 13 14  1  0  0  0  0
 14 15  1  0  0  0  0
 15 16  1  6  0  0  0
 15 17  1  0  0  0  0
 19 18  2  0  0  0  0
 21 19  1  6  0  0  0
 21 23  1  0  0  0  0
 22 25  1  6  0  0  0
 22 26  1  0  0  0  0
 23 20  1  0  0  0  0
 24 22  1  0  0  0  0
 24 21  1  0  0  0  0
 26 20  2  0  0  0  0
 28 27  1  0  0  0  0
M  END
>  <MODEL>
3

>  <REMARK>
 VINA RESULT:      -5.5      2.756      7.993
  Name = 
  8 active torsions:
  status: ('A' for Active; 'I' for Inactive)
    1  A    between atoms: C_1  and  C_3
    2  A    between atoms: C_1  and  C_11
    3  A    between atoms: C_1  and  C_27
    4  A    between atoms: C_6  and  C_8
    5  A    between atoms: C_8  and  C_11
    6  A    between atoms: C_9  and  C_18
    7  A    between atoms: C_14  and  C_25
    8  A    between atoms: C_16  and  C_21
                            x       y       z     vdW  Elec       q    Type
                         _______ _______ _______ _____ _____    ______ ____

>  <TORSDO>
F 8

$$$$
=
 OpenBabel11052423023D

 28 29  0  0  1  0  0  0  0  0999 V2000
  162.3020  210.7220  153.6670 O   0  0  0  0  0  1  0  0  0  0  0  0
  161.2660  207.9090  153.8450 C   0  0  0  0  0  2  0  0  0  0  0  0
  159.9180  210.5450  153.9420 C   0  0  2  0  0  3  0  0  0  0  0  0
  159.9500  208.0440  154.5970 C   0  0  0  0  0  2  0  0  0  0  0  0
  161.1340  210.2880  153.0380 C   0  0  2  0  0  3  0  0  0  0  0  0
  161.2420  208.8160  152.6220 C   0  0  1  0  0  3  0  0  0  0  0  0
  159.6980  209.4920  155.0550 C   0  0  1  0  0  3  0  0  0  0  0  0
  160.2990  209.8490  156.4430 C   0  0  1  0  0  0  0  0  0  0  0  0
  160.5440  208.5900  157.2570 C   0  0  0  0  0  1  0  0  0  0  0  0
  162.6290  210.3920  157.1800 C   0  0  0  0  0  3  0  0  0  0  0  0
  161.6310  210.5480  156.3080 C   0  0  0  0  0  3  0  0  0  0  0  0
  163.9130  211.1170  156.9780 C   0  0  0  0  0  1  0  0  0  0  0  0
  159.3300  210.7150  157.2600 C   0  0  0  0  0  2  0  0  0  0  0  0
  159.4890  212.2160  157.0130 C   0  0  0  0  0  2  0  0  0  0  0  0
  158.2270  212.8140  156.4100 C   0  0  1  0  0  3  0  0  0  0  0  0
  158.5040  213.3960  155.1850 F   0  0  0  0  0  0  0  0  0  0  0  0
  157.2480  211.8320  156.2570 O   0  0  0  0  0  1  0  0  0  0  0  0
  162.4430  208.5840  151.7520 C   0  0  0  0  0  3  0  0  0  0  0  0
  162.5390  207.5620  150.8910 C   0  0  0  0  0  3  0  0  0  0  0  0
  160.4320  204.9570  149.0860 C   0  0  0  0  0  3  0  0  0  0  0  0
  161.4560  206.5470  150.6890 C   0  0  1  0  0  3  0  0  0  0  0  0
  161.5050  203.9830  151.0650 C   0  0  1  0  0  3  0  0  0  0  0  0
  161.4030  206.0920  149.2240 C   0  0  0  0  0  2  0  0  0  0  0  0
  161.6390  205.3840  151.6870 C   0  0  0  0  0  2  0  0  0  0  0  0
  161.1580  202.9710  152.1340 C   0  0  0  0  0  1  0  0  0  0  0  0
  160.4760  203.9530  149.9700 C   0  0  0  0  0  3  0  0  0  0  0  0
  158.7480  211.9310  152.3510 O   0  0  0  0  0  1  0  0  0  0  0  0
  158.6460  210.7750  153.1290 C   0  0  0  0  0  2  0  0  0  0  0  0
  2  4  1  0  0  0  0
  3 28  1  6  0  0  0
  3  7  1  0  0  0  0
  4  7  1  0  0  0  0
  5  1  1  1  0  0  0
  5  3  1  0  0  0  0
  6 18  1  1  0  0  0
  6  5  1  0  0  0  0
  6  2  1  0  0  0  0
  7  8  1  1  0  0  0
  8  9  1  1  0  0  0
  8 13  1  0  0  0  0
 11  8  1  0  0  0  0
 11 10  2  0  0  0  0
 12 10  1  0  0  0  0
 14 13  1  0  0  0  0
 15 16  1  6  0  0  0
 15 14  1  0  0  0  0
 17 15  1  0  0  0  0
 19 18  2  0  0  0  0
 20 23  1  0  0  0  0
 20 26  2  0  0  0  0
 21 19  1  6  0  0  0
 21 24  1  0  0  0  0
 22 24  1  0  0  0  0
 22 25  1  1  0  0  0
 23 21  1  0  0  0  0
 26 22  1  0  0  0  0
 27 28  1  0  0  0  0
M  END
>  <MODEL>
4

>  <REMARK>
 VINA RESULT:      -5.5      4.274      8.957
  Name = 
  8 active torsions:
  status: ('A' for Active; 'I' for Inactive)
    1  A    between atoms: C_1  and  C_3
    2  A    between atoms: C_1  and  C_11
    3  A    between atoms: C_1  and  C_27
    4  A    between atoms: C_6  and  C_8
    5  A    between atoms: C_8  and  C_11
    6  A    between atoms: C_9  and  C_18
    7  A    between atoms: C_14  and  C_25
    8  A    between atoms: C_16  and  C_21
                            x       y       z     vdW  Elec       q    Type
                         _______ _______ _______ _____ _____    ______ ____

>  <TORSDO>
F 8

$$$$
=
 OpenBabel11052423023D

 28 29  0  0  1  0  0  0  0  0999 V2000
  163.4500  206.2270  151.0840 O   0  0  0  0  0  1  0  0  0  0  0  0
  161.2180  207.9460  150.0430 C   0  0  0  0  0  2  0  0  0  0  0  0
  161.2980  205.1510  151.0190 C   0  0  2  0  0  3  0  0  0  0  0  0
  160.1890  206.9490  149.5290 C   0  0  0  0  0  2  0  0  0  0  0  0
  162.1690  206.2530  151.6410 C   0  0  2  0  0  3  0  0  0  0  0  0
  161.5310  207.6400  151.5010 C   0  0  1  0  0  3  0  0  0  0  0  0
  160.6940  205.4990  149.6370 C   0  0  1  0  0  3  0  0  0  0  0  0
  161.5000  204.9980  148.4070 C   0  0  1  0  0  0  0  0  0  0  0  0
  162.8620  205.6690  148.3540 C   0  0  0  0  0  1  0  0  0  0  0  0
  160.7720  202.6110  148.6070 C   0  0  0  0  0  3  0  0  0  0  0  0
  161.7490  203.5100  148.4760 C   0  0  0  0  0  3  0  0  0  0  0  0
  161.0990  201.1600  148.6680 C   0  0  0  0  0  1  0  0  0  0  0  0
  160.7870  205.3530  147.0940 C   0  0  0  0  0  2  0  0  0  0  0  0
  161.7190  205.9270  146.0260 C   0  0  0  0  0  2  0  0  0  0  0  0
  162.1460  204.8580  145.0310 C   0  0  1  0  0  3  0  0  0  0  0  0
  163.3830  204.3420  145.3760 F   0  0  0  0  0  0  0  0  0  0  0  0
  161.2010  203.8320  144.9840 O   0  0  0  0  0  1  0  0  0  0  0  0
  162.4030  208.7030  152.1020 C   0  0  0  0  0  3  0  0  0  0  0  0
  161.9190  209.7930  152.7130 C   0  0  0  0  0  3  0  0  0  0  0  0
  158.6840  210.7870  154.4550 C   0  0  0  0  0  3  0  0  0  0  0  0
  160.4550  210.0650  152.8770 C   0  0  1  0  0  3  0  0  0  0  0  0
  159.1400  212.2760  152.5610 C   0  0  1  0  0  3  0  0  0  0  0  0
  160.1150  210.3510  154.3460 C   0  0  0  0  0  2  0  0  0  0  0  0
  160.0230  211.1930  151.9160 C   0  0  0  0  0  2  0  0  0  0  0  0
  158.3440  212.9990  151.4960 C   0  0  0  0  0  1  0  0  0  0  0  0
  158.2170  211.7010  153.5970 C   0  0  0  0  0  3  0  0  0  0  0  0
  160.4860  203.3460  152.3980 O   0  0  0  0  0  1  0  0  0  0  0  0
  160.2290  204.6570  151.9910 C   0  0  0  0  0  2  0  0  0  0  0  0
  2  6  1  0  0  0  0
  3  5  1  0  0  0  0
  3 28  1  1  0  0  0
  4  7  1  0  0  0  0
  4  2  1  0  0  0  0
  5  1  1  6  0  0  0
  6  5  1  0  0  0  0
  6 18  1  6  0  0  0
  7  8  1  6  0  0  0
  7  3  1  0  0  0  0
  8  9  1  1  0  0  0
  8 11  1  0  0  0  0
 10 12  1  0  0  0  0
 11 10  2  0  0  0  0
 13  8  1  0  0  0  0
 14 13  1  0  0  0  0
 15 17  1  1  0  0  0
 15 16  1  0  0  0  0
 15 14  1  0  0  0  0
 18 19  2  0  0  0  0
 21 19  1  1  0  0  0
 21 23  1  0  0  0  0
 22 25  1  6  0  0  0
 22 26  1  0  0  0  0
 23 20  1  0  0  0  0
 24 22  1  0  0  0  0
 24 21  1  0  0  0  0
 26 20  2  0  0  0  0
 28 27  1  0  0  0  0
M  END
>  <MODEL>
5

>  <REMARK>
 VINA RESULT:      -5.2      1.490      2.104
  Name = 
  8 active torsions:
  status: ('A' for Active; 'I' for Inactive)
    1  A    between atoms: C_1  and  C_3
    2  A    between atoms: C_1  and  C_11
    3  A    between atoms: C_1  and  C_27
    4  A    between atoms: C_6  and  C_8
    5  A    between atoms: C_8  and  C_11
    6  A    between atoms: C_9  and  C_18
    7  A    between atoms: C_14  and  C_25
    8  A    between atoms: C_16  and  C_21
                            x       y       z     vdW  Elec       q    Type
                         _______ _______ _______ _____ _____    ______ ____

>  <TORSDO>
F 8

$$$$
=
 OpenBabel11052423023D

 28 29  0  0  1  0  0  0  0  0999 V2000
  163.8920  206.8760  148.9430 O   0  0  0  0  0  1  0  0  0  0  0  0
  161.3180  205.5020  148.2310 C   0  0  0  0  0  2  0  0  0  0  0  0
  161.9160  208.2100  149.2710 C   0  0  2  0  0  3  0  0  0  0  0  0
  160.2670  206.2320  149.0560 C   0  0  0  0  0  2  0  0  0  0  0  0
  162.8420  207.5030  148.2690 C   0  0  2  0  0  3  0  0  0  0  0  0
  162.0800  206.5110  147.3820 C   0  0  1  0  0  3  0  0  0  0  0  0
  160.8970  207.2870  149.9820 C   0  0  1  0  0  3  0  0  0  0  0  0
  161.3330  206.7540  151.3750 C   0  0  1  0  0  0  0  0  0  0  0  0
  162.8370  206.5420  151.4160 C   0  0  0  0  0  1  0  0  0  0  0  0
  161.1810  207.4700  153.7690 C   0  0  0  0  0  3  0  0  0  0  0  0
  161.0000  207.7350  152.4740 C   0  0  0  0  0  3  0  0  0  0  0  0
  160.8270  208.4900  154.7930 C   0  0  0  0  0  1  0  0  0  0  0  0
  160.6920  205.3910  151.6720 C   0  0  0  0  0  2  0  0  0  0  0  0
  161.6880  204.2310  151.6700 C   0  0  0  0  0  2  0  0  0  0  0  0
  160.9790  202.8920  151.5330 C   0  0  1  0  0  3  0  0  0  0  0  0
  160.2340  202.8550  150.3680 F   0  0  0  0  0  0  0  0  0  0  0  0
  161.9040  201.8480  151.5380 O   0  0  0  0  0  1  0  0  0  0  0  0
  163.0030  205.8210  146.4210 C   0  0  0  0  0  3  0  0  0  0  0  0
  162.7450  204.6180  145.8890 C   0  0  0  0  0  3  0  0  0  0  0  0
  159.7850  202.3150  145.2390 C   0  0  0  0  0  3  0  0  0  0  0  0
  161.5020  203.8360  146.1820 C   0  0  1  0  0  3  0  0  0  0  0  0
  161.2440  201.3820  146.9750 C   0  0  1  0  0  3  0  0  0  0  0  0
  160.9230  203.2310  144.8950 C   0  0  0  0  0  2  0  0  0  0  0  0
  161.7920  202.7870  147.2770 C   0  0  0  0  0  2  0  0  0  0  0  0
  161.0840  200.5990  148.2600 C   0  0  0  0  0  1  0  0  0  0  0  0
  159.9360  201.4380  146.2360 C   0  0  0  0  0  3  0  0  0  0  0  0
  162.0620  210.5510  148.7060 O   0  0  0  0  0  1  0  0  0  0  0  0
  161.2340  209.4280  148.6510 C   0  0  0  0  0  2  0  0  0  0  0  0
  2  4  1  0  0  0  0
  3 28  1  6  0  0  0
  3  7  1  0  0  0  0
  4  7  1  0  0  0  0
  5  1  1  1  0  0  0
  5  3  1  0  0  0  0
  6 18  1  6  0  0  0
  6  2  1  0  0  0  0
  6  5  1  0  0  0  0
  7  8  1  1  0  0  0
  8  9  1  6  0  0  0
  8 13  1  0  0  0  0
  8 11  1  0  0  0  0
 10 12  1  0  0  0  0
 11 10  2  0  0  0  0
 14 13  1  0  0  0  0
 15 16  1  6  0  0  0
 15 17  1  0  0  0  0
 15 14  1  0  0  0  0
 19 18  2  0  0  0  0
 20 26  2  0  0  0  0
 21 19  1  6  0  0  0
 21 24  1  0  0  0  0
 22 24  1  0  0  0  0
 22 25  1  1  0  0  0
 23 20  1  0  0  0  0
 23 21  1  0  0  0  0
 26 22  1  0  0  0  0
 28 27  1  0  0  0  0
M  END
>  <MODEL>
6

>  <REMARK>
 VINA RESULT:      -5.0      2.162      7.591
  Name = 
  8 active torsions:
  status: ('A' for Active; 'I' for Inactive)
    1  A    between atoms: C_1  and  C_3
    2  A    between atoms: C_1  and  C_11
    3  A    between atoms: C_1  and  C_27
    4  A    between atoms: C_6  and  C_8
    5  A    between atoms: C_8  and  C_11
    6  A    between atoms: C_9  and  C_18
    7  A    between atoms: C_14  and  C_25
    8  A    between atoms: C_16  and  C_21
                            x       y       z     vdW  Elec       q    Type
                         _______ _______ _______ _____ _____    ______ ____

>  <TORSDO>
F 8

$$$$
=
 OpenBabel11052423023D

 28 29  0  0  1  0  0  0  0  0999 V2000
  163.1890  205.8180  151.9240 O   0  0  0  0  0  1  0  0  0  0  0  0
  160.2790  205.8130  151.1840 C   0  0  0  0  0  2  0  0  0  0  0  0
  162.5440  207.5390  150.3690 C   0  0  2  0  0  3  0  0  0  0  0  0
  160.0030  207.2450  150.7460 C   0  0  0  0  0  2  0  0  0  0  0  0
  162.7210  206.0350  150.6260 C   0  0  2  0  0  3  0  0  0  0  0  0
  161.4310  205.2490  150.3630 C   0  0  1  0  0  3  0  0  0  0  0  0
  161.2360  208.1470  150.9320 C   0  0  1  0  0  3  0  0  0  0  0  0
  161.3530  208.8080  152.3340 C   0  0  1  0  0  0  0  0  0  0  0  0
  162.4710  209.8370  152.3450 C   0  0  0  0  0  1  0  0  0  0  0  0
  159.9970  210.8670  152.7710 C   0  0  0  0  0  3  0  0  0  0  0  0
  160.0860  209.5370  152.7120 C   0  0  0  0  0  3  0  0  0  0  0  0
  158.7110  211.5100  153.1530 C   0  0  0  0  0  1  0  0  0  0  0  0
  161.7060  207.7700  153.4090 C   0  0  0  0  0  2  0  0  0  0  0  0
  160.6460  207.6350  154.5020 C   0  0  0  0  0  2  0  0  0  0  0  0
  161.1530  208.1670  155.8340 C   0  0  1  0  0  3  0  0  0  0  0  0
  162.1320  209.1240  155.6320 F   0  0  0  0  0  0  0  0  0  0  0  0
  160.1010  208.7130  156.5710 O   0  0  0  0  0  1  0  0  0  0  0  0
  161.6210  203.7850  150.6320 C   0  0  0  0  0  3  0  0  0  0  0  0
  161.3670  202.8320  149.7250 C   0  0  0  0  0  3  0  0  0  0  0  0
  161.4730  204.0920  146.1350 C   0  0  0  0  0  3  0  0  0  0  0  0
  160.8800  203.1210  148.3380 C   0  0  1  0  0  3  0  0  0  0  0  0
  161.0510  201.6770  146.1930 C   0  0  1  0  0  3  0  0  0  0  0  0
  161.9040  203.9640  147.5660 C   0  0  0  0  0  2  0  0  0  0  0  0
  160.5120  201.8010  147.6280 C   0  0  0  0  0  2  0  0  0  0  0  0
  160.2310  200.6720  145.4150 C   0  0  0  0  0  1  0  0  0  0  0  0
  161.0580  203.0010  145.4820 C   0  0  0  0  0  3  0  0  0  0  0  0
  162.2100  209.1510  148.6050 O   0  0  0  0  0  1  0  0  0  0  0  0
  162.7370  207.8900  148.8960 C   0  0  0  0  0  2  0  0  0  0  0  0
  3 28  1  6  0  0  0
  3  5  1  0  0  0  0
  3  7  1  0  0  0  0
  4  7  1  0  0  0  0
  4  2  1  0  0  0  0
  5  1  1  1  0  0  0
  6  5  1  0  0  0  0
  6 18  1  1  0  0  0
  6  2  1  0  0  0  0
  7  8  1  1  0  0  0
  8  9  1  6  0  0  0
  8 11  1  0  0  0  0
  8 13  1  0  0  0  0
 10 12  1  0  0  0  0
 11 10  2  0  0  0  0
 13 14  1  0  0  0  0
 14 15  1  0  0  0  0
 15 16  1  6  0  0  0
 15 17  1  0  0  0  0
 19 18  2  0  0  0  0
 20 23  1  0  0  0  0
 21 19  1  1  0  0  0
 22 25  1  6  0  0  0
 22 24  1  0  0  0  0
 23 21  1  0  0  0  0
 24 21  1  0  0  0  0
 26 20  2  0  0  0  0
 26 22  1  0  0  0  0
 27 28  1  0  0  0  0
M  END
>  <MODEL>
7

>  <REMARK>
 VINA RESULT:      -4.8      3.085      8.489
  Name = 
  8 active torsions:
  status: ('A' for Active; 'I' for Inactive)
    1  A    between atoms: C_1  and  C_3
    2  A    between atoms: C_1  and  C_11
    3  A    between atoms: C_1  and  C_27
    4  A    between atoms: C_6  and  C_8
    5  A    between atoms: C_8  and  C_11
    6  A    between atoms: C_9  and  C_18
    7  A    between atoms: C_14  and  C_25
    8  A    between atoms: C_16  and  C_21
                            x       y       z     vdW  Elec       q    Type
                         _______ _______ _______ _____ _____    ______ ____

>  <TORSDO>
F 8

$$$$
=
 OpenBabel11052423023D

 28 29  0  0  1  0  0  0  0  0999 V2000
  159.8400  206.2900  150.1110 O   0  0  0  0  0  1  0  0  0  0  0  0
  162.7530  205.8920  150.7210 C   0  0  0  0  0  2  0  0  0  0  0  0
  161.3230  207.7910  148.9530 C   0  0  2  0  0  3  0  0  0  0  0  0
  163.4690  206.4570  149.5020 C   0  0  0  0  0  2  0  0  0  0  0  0
  160.7400  207.3410  150.3020 C   0  0  2  0  0  3  0  0  0  0  0  0
  161.8350  206.9580  151.3040 C   0  0  1  0  0  3  0  0  0  0  0  0
  162.4780  206.9100  148.4160 C   0  0  1  0  0  3  0  0  0  0  0  0
  162.0620  205.8010  147.4100 C   0  0  1  0  0  0  0  0  0  0  0  0
  163.2880  205.0790  146.8780 C   0  0  0  0  0  1  0  0  0  0  0  0
  161.5810  203.4970  148.2620 C   0  0  0  0  0  3  0  0  0  0  0  0
  161.1890  204.7570  148.0640 C   0  0  0  0  0  3  0  0  0  0  0  0
  160.6610  202.5260  148.9140 C   0  0  0  0  0  1  0  0  0  0  0  0
  161.3450  206.3990  146.1900 C   0  0  0  0  0  2  0  0  0  0  0  0
  160.1530  205.5710  145.7120 C   0  0  0  0  0  2  0  0  0  0  0  0
  160.5150  204.7280  144.4980 C   0  0  1  0  0  3  0  0  0  0  0  0
  161.5810  205.2900  143.8190 F   0  0  0  0  0  0  0  0  0  0  0  0
  160.8330  203.4270  144.8870 O   0  0  0  0  0  1  0  0  0  0  0  0
  161.2450  206.5090  152.6090 C   0  0  0  0  0  3  0  0  0  0  0  0
  160.9670  207.3470  153.6170 C   0  0  0  0  0  3  0  0  0  0  0  0
  160.2440  211.0050  152.8540 C   0  0  0  0  0  3  0  0  0  0  0  0
  161.1990  208.8250  153.5490 C   0  0  1  0  0  3  0  0  0  0  0  0
  160.5840  210.6730  155.2590 C   0  0  1  0  0  3  0  0  0  0  0  0
  160.0800  209.5170  152.7590 C   0  0  0  0  0  2  0  0  0  0  0  0
  161.3830  209.3900  154.9740 C   0  0  0  0  0  2  0  0  0  0  0  0
  161.2110  211.4300  156.4100 C   0  0  0  0  0  1  0  0  0  0  0  0
  160.4920  211.5560  154.0470 C   0  0  0  0  0  3  0  0  0  0  0  0
  162.2960  209.6280  150.1770 O   0  0  0  0  0  1  0  0  0  0  0  0
  161.7030  209.2690  148.9650 C   0  0  0  0  0  2  0  0  0  0  0  0
  2  6  1  0  0  0  0
  3 28  1  1  0  0  0
  3  5  1  0  0  0  0
  4  2  1  0  0  0  0
  5  1  1  6  0  0  0
  5  6  1  0  0  0  0
  6 18  1  1  0  0  0
  7  8  1  1  0  0  0
  7  3  1  0  0  0  0
  7  4  1  0  0  0  0
  8  9  1  6  0  0  0
  8 11  1  0  0  0  0
 10 12  1  0  0  0  0
 11 10  2  0  0  0  0
 13  8  1  0  0  0  0
 14 13  1  0  0  0  0
 15 16  1  1  0  0  0
 15 17  1  0  0  0  0
 15 14  1  0  0  0  0
 18 19  2  0  0  0  0
 20 26  2  0  0  0  0
 21 19  1  1  0  0  0
 21 24  1  0  0  0  0
 22 25  1  1  0  0  0
 23 20  1  0  0  0  0
 23 21  1  0  0  0  0
 24 22  1  0  0  0  0
 26 22  1  0  0  0  0
 28 27  1  0  0  0  0
M  END
>  <MODEL>
8

>  <REMARK>
 VINA RESULT:      -4.8      1.660      2.856
  Name = 
  8 active torsions:
  status: ('A' for Active; 'I' for Inactive)
    1  A    between atoms: C_1  and  C_3
    2  A    between atoms: C_1  and  C_11
    3  A    between atoms: C_1  and  C_27
    4  A    between atoms: C_6  and  C_8
    5  A    between atoms: C_8  and  C_11
    6  A    between atoms: C_9  and  C_18
    7  A    between atoms: C_14  and  C_25
    8  A    between atoms: C_16  and  C_21
                            x       y       z     vdW  Elec       q    Type
                         _______ _______ _______ _____ _____    ______ ____

>  <TORSDO>
F 8

$$$$
=
 OpenBabel11052423023D

 28 29  0  0  1  0  0  0  0  0999 V2000
  163.3060  209.7160  151.8910 O   0  0  0  0  0  1  0  0  0  0  0  0
  161.8650  208.4400  149.5850 C   0  0  0  0  0  2  0  0  0  0  0  0
  160.9800  209.2450  152.2950 C   0  0  2  0  0  3  0  0  0  0  0  0
  160.6970  207.7110  150.2340 C   0  0  0  0  0  2  0  0  0  0  0  0
  162.0100  210.0630  151.5020 C   0  0  2  0  0  3  0  0  0  0  0  0
  161.8260  209.9090  149.9870 C   0  0  1  0  0  3  0  0  0  0  0  0
  160.7430  207.8080  151.7690 C   0  0  1  0  0  3  0  0  0  0  0  0
  161.5700  206.6940  152.4680 C   0  0  1  0  0  0  0  0  0  0  0  0
  162.9720  206.6280  151.8880 C   0  0  0  0  0  1  0  0  0  0  0  0
  160.6850  207.0530  154.7820 C   0  0  0  0  0  3  0  0  0  0  0  0
  161.7210  206.9590  153.9470 C   0  0  0  0  0  3  0  0  0  0  0  0
  160.9160  207.3180  156.2280 C   0  0  0  0  0  1  0  0  0  0  0  0
  160.9400  205.3110  152.2420 C   0  0  0  0  0  2  0  0  0  0  0  0
  161.6990  204.4470  151.2360 C   0  0  0  0  0  2  0  0  0  0  0  0
  160.7450  203.6800  150.3340 C   0  0  1  0  0  3  0  0  0  0  0  0
  161.2010  203.6860  149.0280 F   0  0  0  0  0  0  0  0  0  0  0  0
  160.6050  202.3650  150.7800 O   0  0  0  0  0  1  0  0  0  0  0  0
  162.8500  210.7040  149.2310 C   0  0  0  0  0  3  0  0  0  0  0  0
  162.5530  211.8100  148.5340 C   0  0  0  0  0  3  0  0  0  0  0  0
  159.8140  214.4520  148.6000 C   0  0  0  0  0  3  0  0  0  0  0  0
  161.1720  212.3830  148.4450 C   0  0  1  0  0  3  0  0  0  0  0  0
  159.9260  213.3750  146.4000 C   0  0  1  0  0  3  0  0  0  0  0  0
  161.1670  213.8600  148.8630 C   0  0  0  0  0  2  0  0  0  0  0  0
  160.5990  212.1450  147.0310 C   0  0  0  0  0  2  0  0  0  0  0  0
  158.9560  212.9410  145.3230 C   0  0  0  0  0  1  0  0  0  0  0  0
  159.2190  214.2150  147.4260 C   0  0  0  0  0  3  0  0  0  0  0  0
  159.8760  211.3840  152.4610 O   0  0  0  0  0  1  0  0  0  0  0  0
  159.6660  210.0030  152.4690 C   0  0  0  0  0  2  0  0  0  0  0  0
  2  6  1  0  0  0  0
  2  4  1  0  0  0  0
  3 28  1  6  0  0  0
  4  7  1  0  0  0  0
  5  1  1  1  0  0  0
  5  3  1  0  0  0  0
  6 18  1  6  0  0  0
  6  5  1  0  0  0  0
  7  3  1  0  0  0  0
  7  8  1  6  0  0  0
  8  9  1  6  0  0  0
  8 11  1  0  0  0  0
 10 12  1  0  0  0  0
 11 10  2  0  0  0  0
 13  8  1  0  0  0  0
 14 13  1  0  0  0  0
 15 16  1  6  0  0  0
 15 17  1  0  0  0  0
 15 14  1  0  0  0  0
 19 18  2  0  0  0  0
 20 23  1  0  0  0  0
 21 19  1  6  0  0  0
 21 23  1  0  0  0  0
 22 25  1  6  0  0  0
 22 24  1  0  0  0  0
 22 26  1  0  0  0  0
 24 21  1  0  0  0  0
 26 20  2  0  0  0  0
 27 28  1  0  0  0  0
M  END
>  <MODEL>
9

>  <REMARK>
 VINA RESULT:      -4.7      3.805      6.717
  Name = 
  8 active torsions:
  status: ('A' for Active; 'I' for Inactive)
    1  A    between atoms: C_1  and  C_3
    2  A    between atoms: C_1  and  C_11
    3  A    between atoms: C_1  and  C_27
    4  A    between atoms: C_6  and  C_8
    5  A    between atoms: C_8  and  C_11
    6  A    between atoms: C_9  and  C_18
    7  A    between atoms: C_14  and  C_25
    8  A    between atoms: C_16  and  C_21
                            x       y       z     vdW  Elec       q    Type
                         _______ _______ _______ _____ _____    ______ ____

>  <TORSDO>
F 8

$$$$
