=
 OpenBabel11062410503D

 32 37  0  0  1  0  0  0  0  0999 V2000
  161.0130  202.2100  149.3410 C   0  0  0  0  0  0  0  0  0  0  0  0
  161.2770  206.5030  151.9740 C   0  0  0  0  0  0  0  0  0  0  0  0
  161.9960  210.0030  148.6740 C   0  0  0  0  0  3  0  0  0  0  0  0
  162.0130  210.9480  149.7000 C   0  0  0  0  0  3  0  0  0  0  0  0
  161.0620  204.1780  151.3330 C   0  0  0  0  0  0  0  0  0  0  0  0
  161.4160  205.8750  149.6270 C   0  0  0  0  0  3  0  0  0  0  0  0
  161.1970  203.5510  148.9870 C   0  0  0  0  0  3  0  0  0  0  0  0
  161.8090  208.6510  148.9720 C   0  0  0  0  0  3  0  0  0  0  0  0
  161.4450  206.8710  150.6190 C   0  0  0  0  0  0  0  0  0  0  0  0
  161.6350  208.2290  150.3010 C   0  0  0  0  0  0  0  0  0  0  0  0
  161.4800  208.7690  152.6730 C   0  0  0  0  0  0  0  0  0  0  0  0
  160.8450  201.8560  150.6840 C   0  0  0  0  0  3  0  0  0  0  0  0
  161.2270  204.5370  149.9760 C   0  0  0  0  0  0  0  0  0  0  0  0
  160.8710  202.8380  151.6790 C   0  0  0  0  0  3  0  0  0  0  0  0
  161.8420  210.5470  151.0260 C   0  0  0  0  0  3  0  0  0  0  0  0
  161.6530  209.1910  151.3410 C   0  0  0  0  0  0  0  0  0  0  0  0
  161.0880  205.1630  152.3220 C   0  0  0  0  0  3  0  0  0  0  0  0
  161.3020  207.4500  152.9460 N   0  0  0  0  0  0  0  0  0  0  0  0
  160.9570  201.1640  148.2830 C   0  0  0  0  0  2  0  0  0  0  0  0
  160.0740  201.5940  147.2130 N   0  0  0  0  0  2  0  0  0  0  0  0
  160.8280  201.4880  145.9780 C   0  0  1  0  0  3  0  0  0  0  0  0
  159.9690  201.7360  144.8930 O   0  0  0  0  0  0  0  0  0  0  0  0
  160.8170  202.7900  145.2770 C   0  0  0  0  0  2  0  0  0  0  0  0
  161.5210  209.7380  153.8140 C   0  0  0  0  0  2  0  0  0  0  0  0
  160.1290  209.9290  154.4170 C   0  0  1  0  0  3  0  0  0  0  0  0
  160.0780  209.4890  155.8780 C   0  0  0  0  0  2  0  0  0  0  0  0
  160.9400  208.4150  156.1130 O   0  0  0  0  0  0  0  0  0  0  0  0
  160.0930  207.3300  156.3350 C   0  0  0  0  0  1  0  0  0  0  0  0
  159.5610  211.3360  154.2040 C   0  0  0  0  0  2  0  0  0  0  0  0
  157.9910  212.7690  152.9410 C   0  0  0  0  0  2  0  0  0  0  0  0
  159.2630  212.6510  152.1340 C   0  0  0  0  0  2  0  0  0  0  0  0
  158.7550  211.4610  152.9210 C   0  0  0  0  0  3  0  0  0  0  0  0
  1 12  1  0  0  0  0
  2 17  2  0  0  0  0
  2 18  1  0  0  0  0
  3  8  2  0  0  0  0
  3  4  1  0  0  0  0
  4 15  2  0  0  0  0
  5 14  1  0  0  0  0
  5 17  1  0  0  0  0
  6 13  1  0  0  0  0
  6  9  2  0  0  0  0
  7  1  2  0  0  0  0
  7 13  1  0  0  0  0
  8 10  1  0  0  0  0
  9  2  1  0  0  0  0
 10  9  1  0  0  0  0
 10 16  2  0  0  0  0
 11 18  2  0  0  0  0
 11 24  1  0  0  0  0
 12 14  2  0  0  0  0
 13  5  2  0  0  0  0
 15 16  1  0  0  0  0
 16 11  1  0  0  0  0
 19  1  1  0  0  0  0
 20 19  1  0  0  0  0
 21 20  1  1  0  0  0
 22 23  1  0  0  0  0
 22 21  1  0  0  0  0
 23 21  1  0  0  0  0
 25 24  1  1  0  0  0
 25 26  1  0  0  0  0
 26 27  1  0  0  0  0
 27 28  1  0  0  0  0
 29 25  1  0  0  0  0
 31 32  1  0  0  0  0
 31 30  1  0  0  0  0
 32 30  1  0  0  0  0
 32 29  1  0  0  0  0
M  END
>  <MODEL>
1

>  <REMARK>
 VINA RESULT:      -8.7      0.000      0.000
  Name = 
  9 active torsions:
  status: ('A' for Active; 'I' for Inactive)
    1  A    between atoms: C_1  and  N_10
    2  A    between atoms: C_2  and  C_24
    3  A    between atoms: O_6  and  C_7
    4  A    between atoms: C_7  and  C_32
    5  A    between atoms: N_10  and  C_24
    6  A    between atoms: C_16  and  C_27
    7  A    between atoms: C_22  and  C_30
    8  A    between atoms: C_22  and  C_32
    9  A    between atoms: C_27  and  C_32
                            x       y       z     vdW  Elec       q    Type
                         _______ _______ _______ _____ _____    ______ ____

>  <TORSDO>
F 9

$$$$
=
 OpenBabel11062410503D

 32 37  0  0  1  0  0  0  0  0999 V2000
  160.9210  202.4990  149.6610 C   0  0  0  0  0  0  0  0  0  0  0  0
  161.5350  206.9640  151.9250 C   0  0  0  0  0  0  0  0  0  0  0  0
  161.9460  210.1980  148.3160 C   0  0  0  0  0  3  0  0  0  0  0  0
  162.0880  211.2150  149.2620 C   0  0  0  0  0  3  0  0  0  0  0  0
  161.2160  204.6040  151.4840 C   0  0  0  0  0  0  0  0  0  0  0  0
  161.4100  206.1650  149.6300 C   0  0  0  0  0  3  0  0  0  0  0  0
  161.0870  203.8060  149.1910 C   0  0  0  0  0  3  0  0  0  0  0  0
  161.7710  208.8770  148.7320 C   0  0  0  0  0  3  0  0  0  0  0  0
  161.5610  207.2290  150.5360 C   0  0  0  0  0  0  0  0  0  0  0  0
  161.7370  208.5550  150.0990 C   0  0  0  0  0  0  0  0  0  0  0  0
  161.8470  209.2690  152.4280 C   0  0  0  0  0  0  0  0  0  0  0  0
  160.8940  202.2460  151.0370 C   0  0  0  0  0  3  0  0  0  0  0  0
  161.2380  204.8600  150.0950 C   0  0  0  0  0  0  0  0  0  0  0  0
  161.0430  203.2970  151.9480 C   0  0  0  0  0  3  0  0  0  0  0  0
  162.0560  210.9140  150.6240 C   0  0  0  0  0  3  0  0  0  0  0  0
  161.8820  209.5890  151.0570 C   0  0  0  0  0  0  0  0  0  0  0  0
  161.3640  205.6570  152.3890 C   0  0  0  0  0  3  0  0  0  0  0  0
  161.6790  207.9780  152.8160 N   0  0  0  0  0  0  0  0  0  0  0  0
  160.7360  201.3810  148.6960 C   0  0  0  0  0  2  0  0  0  0  0  0
  160.0460  201.8630  147.5120 N   0  0  0  0  0  2  0  0  0  0  0  0
  160.8820  201.5290  146.3740 C   0  0  1  0  0  3  0  0  0  0  0  0
  160.1000  201.5570  145.2050 O   0  0  0  0  0  0  0  0  0  0  0  0
  160.9250  202.6710  145.4360 C   0  0  0  0  0  2  0  0  0  0  0  0
  162.0260  210.3160  153.4830 C   0  0  0  0  0  2  0  0  0  0  0  0
  160.9280  210.2170  154.5410 C   0  0  1  0  0  3  0  0  0  0  0  0
  159.5380  210.1520  153.9130 C   0  0  0  0  0  2  0  0  0  0  0  0
  159.2160  211.3500  153.2720 O   0  0  0  0  0  0  0  0  0  0  0  0
  158.2040  211.9040  154.0540 C   0  0  0  0  0  1  0  0  0  0  0  0
  161.1670  209.1030  155.5650 C   0  0  0  0  0  2  0  0  0  0  0  0
  159.9830  206.9440  155.7930 C   0  0  0  0  0  2  0  0  0  0  0  0
  160.1930  207.5070  157.1800 C   0  0  0  0  0  2  0  0  0  0  0  0
  159.8800  208.4370  156.0270 C   0  0  0  0  0  3  0  0  0  0  0  0
  1 12  1  0  0  0  0
  2 17  2  0  0  0  0
  2 18  1  0  0  0  0
  3  8  2  0  0  0  0
  3  4  1  0  0  0  0
  4 15  2  0  0  0  0
  5 14  1  0  0  0  0
  5 17  1  0  0  0  0
  6 13  1  0  0  0  0
  6  9  2  0  0  0  0
  7  1  2  0  0  0  0
  7 13  1  0  0  0  0
  8 10  1  0  0  0  0
  9  2  1  0  0  0  0
 10  9  1  0  0  0  0
 10 16  2  0  0  0  0
 11 18  2  0  0  0  0
 11 24  1  0  0  0  0
 12 14  2  0  0  0  0
 13  5  2  0  0  0  0
 15 16  1  0  0  0  0
 16 11  1  0  0  0  0
 19  1  1  0  0  0  0
 20 19  1  0  0  0  0
 21 20  1  1  0  0  0
 22 23  1  0  0  0  0
 22 21  1  0  0  0  0
 23 21  1  0  0  0  0
 25 24  1  6  0  0  0
 25 29  1  0  0  0  0
 26 25  1  0  0  0  0
 27 26  1  0  0  0  0
 27 28  1  0  0  0  0
 29 32  1  0  0  0  0
 30 32  1  0  0  0  0
 30 31  1  0  0  0  0
 32 31  1  0  0  0  0
M  END
>  <MODEL>
2

>  <REMARK>
 VINA RESULT:      -7.9      1.096      2.429
  Name = 
  9 active torsions:
  status: ('A' for Active; 'I' for Inactive)
    1  A    between atoms: C_1  and  N_10
    2  A    between atoms: C_2  and  C_24
    3  A    between atoms: O_6  and  C_7
    4  A    between atoms: C_7  and  C_32
    5  A    between atoms: N_10  and  C_24
    6  A    between atoms: C_16  and  C_27
    7  A    between atoms: C_22  and  C_30
    8  A    between atoms: C_22  and  C_32
    9  A    between atoms: C_27  and  C_32
                            x       y       z     vdW  Elec       q    Type
                         _______ _______ _______ _____ _____    ______ ____

>  <TORSDO>
F 9

$$$$
=
 OpenBabel11062410503D

 32 37  0  0  1  0  0  0  0  0999 V2000
  160.9330  203.3060  150.4000 C   0  0  0  0  0  0  0  0  0  0  0  0
  161.0080  207.9740  152.3060 C   0  0  0  0  0  0  0  0  0  0  0  0
  160.4530  207.4220  157.1060 C   0  0  0  0  0  3  0  0  0  0  0  0
  160.5200  208.8070  157.2590 C   0  0  0  0  0  3  0  0  0  0  0  0
  161.0550  206.0740  150.8060 C   0  0  0  0  0  0  0  0  0  0  0  0
  160.7780  205.7220  153.1960 C   0  0  0  0  0  3  0  0  0  0  0  0
  160.8300  203.8220  151.6960 C   0  0  0  0  0  3  0  0  0  0  0  0
  160.5570  206.8540  155.8340 C   0  0  0  0  0  3  0  0  0  0  0  0
  160.8360  207.1100  153.4110 C   0  0  0  0  0  0  0  0  0  0  0  0
  160.7290  207.6650  154.7000 C   0  0  0  0  0  0  0  0  0  0  0  0
  160.9690  209.8860  153.7230 C   0  0  0  0  0  0  0  0  0  0  0  0
  161.1050  204.1690  149.3120 C   0  0  0  0  0  3  0  0  0  0  0  0
  160.8860  205.2020  151.9050 C   0  0  0  0  0  0  0  0  0  0  0  0
  161.1640  205.5520  149.5150 C   0  0  0  0  0  3  0  0  0  0  0  0
  160.6910  209.6280  156.1440 C   0  0  0  0  0  3  0  0  0  0  0  0
  160.7960  209.0720  154.8590 C   0  0  0  0  0  0  0  0  0  0  0  0
  161.1140  207.4530  151.0140 C   0  0  0  0  0  3  0  0  0  0  0  0
  161.0650  209.3180  152.4930 N   0  0  0  0  0  0  0  0  0  0  0  0
  160.8970  201.8330  150.1830 C   0  0  0  0  0  2  0  0  0  0  0  0
  160.2810  201.5410  148.8990 N   0  0  0  0  0  2  0  0  0  0  0  0
  161.3590  201.4010  147.9390 C   0  0  1  0  0  3  0  0  0  0  0  0
  161.1680  200.2170  147.2040 O   0  0  0  0  0  0  0  0  0  0  0  0
  160.8080  201.4170  146.5670 C   0  0  0  0  0  2  0  0  0  0  0  0
  161.0160  211.3790  153.8280 C   0  0  0  0  0  2  0  0  0  0  0  0
  159.7430  212.0050  153.2600 C   0  0  1  0  0  3  0  0  0  0  0  0
  159.9190  212.4290  151.8050 C   0  0  0  0  0  2  0  0  0  0  0  0
  159.5240  213.7550  151.6120 O   0  0  0  0  0  0  0  0  0  0  0  0
  159.7650  213.9980  150.2610 C   0  0  0  0  0  1  0  0  0  0  0  0
  158.4910  211.1480  153.4790 C   0  0  0  0  0  2  0  0  0  0  0  0
  157.0680  210.9380  155.4900 C   0  0  0  0  0  2  0  0  0  0  0  0
  158.0140  212.0960  155.7090 C   0  0  0  0  0  2  0  0  0  0  0  0
  157.4400  211.8410  154.3320 C   0  0  0  0  0  3  0  0  0  0  0  0
  1  7  1  0  0  0  0
  2 18  1  0  0  0  0
  2  9  1  0  0  0  0
  3  4  1  0  0  0  0
  5 17  1  0  0  0  0
  5 13  1  0  0  0  0
  6  9  2  0  0  0  0
  7 13  2  0  0  0  0
  8  3  2  0  0  0  0
  9 10  1  0  0  0  0
 10 16  2  0  0  0  0
 10  8  1  0  0  0  0
 11 24  1  0  0  0  0
 11 16  1  0  0  0  0
 12 14  1  0  0  0  0
 12  1  2  0  0  0  0
 13  6  1  0  0  0  0
 14  5  2  0  0  0  0
 15  4  2  0  0  0  0
 16 15  1  0  0  0  0
 17  2  2  0  0  0  0
 18 11  2  0  0  0  0
 19  1  1  0  0  0  0
 20 19  1  0  0  0  0
 21 20  1  1  0  0  0
 22 21  1  0  0  0  0
 23 22  1  0  0  0  0
 23 21  1  0  0  0  0
 25 26  1  6  0  0  0
 25 29  1  0  0  0  0
 25 24  1  0  0  0  0
 27 26  1  0  0  0  0
 28 27  1  0  0  0  0
 29 32  1  0  0  0  0
 30 31  1  0  0  0  0
 32 30  1  0  0  0  0
 32 31  1  0  0  0  0
M  END
>  <MODEL>
3

>  <REMARK>
 VINA RESULT:      -7.9      2.000      4.158
  Name = 
  9 active torsions:
  status: ('A' for Active; 'I' for Inactive)
    1  A    between atoms: C_1  and  N_10
    2  A    between atoms: C_2  and  C_24
    3  A    between atoms: O_6  and  C_7
    4  A    between atoms: C_7  and  C_32
    5  A    between atoms: N_10  and  C_24
    6  A    between atoms: C_16  and  C_27
    7  A    between atoms: C_22  and  C_30
    8  A    between atoms: C_22  and  C_32
    9  A    between atoms: C_27  and  C_32
                            x       y       z     vdW  Elec       q    Type
                         _______ _______ _______ _____ _____    ______ ____

>  <TORSDO>
F 9

$$$$
=
 OpenBabel11062410503D

 32 37  0  0  1  0  0  0  0  0999 V2000
  161.2230  203.6630  148.9970 C   0  0  0  0  0  0  0  0  0  0  0  0
  161.0190  208.1110  151.3660 C   0  0  0  0  0  0  0  0  0  0  0  0
  160.4800  207.0430  156.0800 C   0  0  0  0  0  3  0  0  0  0  0  0
  160.4660  208.4070  156.3740 C   0  0  0  0  0  3  0  0  0  0  0  0
  161.1820  206.3780  149.6820 C   0  0  0  0  0  0  0  0  0  0  0  0
  160.9180  205.7700  152.0220 C   0  0  0  0  0  3  0  0  0  0  0  0
  161.0860  204.0380  150.3380 C   0  0  0  0  0  3  0  0  0  0  0  0
  160.6210  206.6140  154.7590 C   0  0  0  0  0  3  0  0  0  0  0  0
  160.8940  207.1300  152.3770 C   0  0  0  0  0  0  0  0  0  0  0  0
  160.7500  207.5440  153.7140 C   0  0  0  0  0  0  0  0  0  0  0  0
  160.8640  209.8630  152.9690 C   0  0  0  0  0  0  0  0  0  0  0  0
  161.3480  204.6410  148.0040 C   0  0  0  0  0  3  0  0  0  0  0  0
  161.0610  205.3910  150.6860 C   0  0  0  0  0  0  0  0  0  0  0  0
  161.3260  205.9970  148.3460 C   0  0  0  0  0  3  0  0  0  0  0  0
  160.5920  209.3450  155.3490 C   0  0  0  0  0  3  0  0  0  0  0  0
  160.7350  208.9290  154.0150 C   0  0  0  0  0  0  0  0  0  0  0  0
  161.1600  207.7300  150.0290 C   0  0  0  0  0  3  0  0  0  0  0  0
  160.9980  209.4290  151.6890 N   0  0  0  0  0  0  0  0  0  0  0  0
  161.2740  202.2210  148.6320 C   0  0  0  0  0  2  0  0  0  0  0  0
  160.3030  201.9450  147.5880 N   0  0  0  0  0  2  0  0  0  0  0  0
  161.0540  201.5850  146.4000 C   0  0  1  0  0  3  0  0  0  0  0  0
  160.1750  201.0350  145.4490 O   0  0  0  0  0  0  0  0  0  0  0  0
  160.5650  202.3700  145.2460 C   0  0  0  0  0  2  0  0  0  0  0  0
  160.8230  211.3380  153.2260 C   0  0  0  0  0  2  0  0  0  0  0  0
  159.4160  211.8920  153.0000 C   0  0  1  0  0  3  0  0  0  0  0  0
  158.6280  211.9860  154.3040 C   0  0  0  0  0  2  0  0  0  0  0  0
  157.2990  211.5990  154.1210 O   0  0  0  0  0  0  0  0  0  0  0  0
  156.7640  211.5660  155.4070 C   0  0  0  0  0  1  0  0  0  0  0  0
  159.3960  213.1990  152.2010 C   0  0  0  0  0  2  0  0  0  0  0  0
  159.1050  213.7330  149.8040 C   0  0  0  0  0  2  0  0  0  0  0  0
  160.3550  214.4310  150.2870 C   0  0  0  0  0  2  0  0  0  0  0  0
  160.0070  213.0560  150.8160 C   0  0  0  0  0  3  0  0  0  0  0  0
  1  7  1  0  0  0  0
  2 18  1  0  0  0  0
  2  9  1  0  0  0  0
  3  4  1  0  0  0  0
  5 17  1  0  0  0  0
  5 13  1  0  0  0  0
  6  9  2  0  0  0  0
  7 13  2  0  0  0  0
  8  3  2  0  0  0  0
  9 10  1  0  0  0  0
 10 16  2  0  0  0  0
 10  8  1  0  0  0  0
 11 24  1  0  0  0  0
 11 16  1  0  0  0  0
 12 14  1  0  0  0  0
 12  1  2  0  0  0  0
 13  6  1  0  0  0  0
 14  5  2  0  0  0  0
 15  4  2  0  0  0  0
 16 15  1  0  0  0  0
 17  2  2  0  0  0  0
 18 11  2  0  0  0  0
 19  1  1  0  0  0  0
 20 19  1  0  0  0  0
 21 20  1  1  0  0  0
 22 21  1  0  0  0  0
 23 22  1  0  0  0  0
 23 21  1  0  0  0  0
 25 29  1  1  0  0  0
 25 24  1  0  0  0  0
 25 26  1  0  0  0  0
 27 26  1  0  0  0  0
 27 28  1  0  0  0  0
 30 31  1  0  0  0  0
 30 32  1  0  0  0  0
 31 32  1  0  0  0  0
 32 29  1  0  0  0  0
M  END
>  <MODEL>
4

>  <REMARK>
 VINA RESULT:      -7.7      1.639      3.531
  Name = 
  9 active torsions:
  status: ('A' for Active; 'I' for Inactive)
    1  A    between atoms: C_1  and  N_10
    2  A    between atoms: C_2  and  C_24
    3  A    between atoms: O_6  and  C_7
    4  A    between atoms: C_7  and  C_32
    5  A    between atoms: N_10  and  C_24
    6  A    between atoms: C_16  and  C_27
    7  A    between atoms: C_22  and  C_30
    8  A    between atoms: C_22  and  C_32
    9  A    between atoms: C_27  and  C_32
                            x       y       z     vdW  Elec       q    Type
                         _______ _______ _______ _____ _____    ______ ____

>  <TORSDO>
F 9

$$$$
=
 OpenBabel11062410503D

 32 37  0  0  1  0  0  0  0  0999 V2000
  161.5160  204.8910  148.4810 C   0  0  0  0  0  0  0  0  0  0  0  0
  161.1560  208.8070  151.6380 C   0  0  0  0  0  0  0  0  0  0  0  0
  160.2120  206.8710  155.9990 C   0  0  0  0  0  3  0  0  0  0  0  0
  160.1870  208.1530  156.5480 C   0  0  0  0  0  3  0  0  0  0  0  0
  161.4440  207.4250  149.6700 C   0  0  0  0  0  0  0  0  0  0  0  0
  160.9780  206.3870  151.8200 C   0  0  0  0  0  3  0  0  0  0  0  0
  161.2700  205.0060  149.8530 C   0  0  0  0  0  3  0  0  0  0  0  0
  160.4600  206.6990  154.6350 C   0  0  0  0  0  3  0  0  0  0  0  0
  160.9380  207.6540  152.4270 C   0  0  0  0  0  0  0  0  0  0  0  0
  160.6860  207.8090  153.8030 C   0  0  0  0  0  0  0  0  0  0  0  0
  160.8840  210.2230  153.5310 C   0  0  0  0  0  0  0  0  0  0  0  0
  161.7340  206.0370  147.7080 C   0  0  0  0  0  3  0  0  0  0  0  0
  161.2290  206.2680  150.4520 C   0  0  0  0  0  0  0  0  0  0  0  0
  161.6960  207.3030  148.3020 C   0  0  0  0  0  3  0  0  0  0  0  0
  160.4090  209.2670  155.7370 C   0  0  0  0  0  3  0  0  0  0  0  0
  160.6580  209.1100  154.3640 C   0  0  0  0  0  0  0  0  0  0  0  0
  161.4060  208.6860  150.2690 C   0  0  0  0  0  3  0  0  0  0  0  0
  161.1210  210.0390  152.2060 N   0  0  0  0  0  0  0  0  0  0  0  0
  161.5830  203.5450  147.8490 C   0  0  0  0  0  2  0  0  0  0  0  0
  160.7140  203.5040  146.6860 N   0  0  0  0  0  2  0  0  0  0  0  0
  161.2160  202.4510  145.8230 C   0  0  1  0  0  3  0  0  0  0  0  0
  160.8330  201.2040  146.3500 O   0  0  0  0  0  0  0  0  0  0  0  0
  160.0820  201.6850  145.2630 C   0  0  0  0  0  2  0  0  0  0  0  0
  160.8360  211.6220  154.0630 C   0  0  0  0  0  2  0  0  0  0  0  0
  159.5540  212.3290  153.6240 C   0  0  1  0  0  3  0  0  0  0  0  0
  159.7000  212.9620  152.2420 C   0  0  0  0  0  2  0  0  0  0  0  0
  158.4590  213.1110  151.6200 O   0  0  0  0  0  0  0  0  0  0  0  0
  158.7660  213.4710  150.3090 C   0  0  0  0  0  1  0  0  0  0  0  0
  158.3030  211.4520  153.7430 C   0  0  0  0  0  2  0  0  0  0  0  0
  156.4730  210.8840  155.3060 C   0  0  0  0  0  2  0  0  0  0  0  0
  157.5770  211.5390  156.1020 C   0  0  0  0  0  2  0  0  0  0  0  0
  157.2690  212.0220  154.7010 C   0  0  0  0  0  3  0  0  0  0  0  0
  1  7  1  0  0  0  0
  2 18  1  0  0  0  0
  2  9  1  0  0  0  0
  3  4  1  0  0  0  0
  5 17  1  0  0  0  0
  5 13  1  0  0  0  0
  6  9  2  0  0  0  0
  7 13  2  0  0  0  0
  8  3  2  0  0  0  0
  9 10  1  0  0  0  0
 10 16  2  0  0  0  0
 10  8  1  0  0  0  0
 11 24  1  0  0  0  0
 11 16  1  0  0  0  0
 12 14  1  0  0  0  0
 12  1  2  0  0  0  0
 13  6  1  0  0  0  0
 14  5  2  0  0  0  0
 15  4  2  0  0  0  0
 16 15  1  0  0  0  0
 17  2  2  0  0  0  0
 18 11  2  0  0  0  0
 19  1  1  0  0  0  0
 20 19  1  0  0  0  0
 21 22  1  0  0  0  0
 21 20  1  1  0  0  0
 23 21  1  0  0  0  0
 23 22  1  0  0  0  0
 25 26  1  6  0  0  0
 25 29  1  0  0  0  0
 25 24  1  0  0  0  0
 27 26  1  0  0  0  0
 28 27  1  0  0  0  0
 29 32  1  0  0  0  0
 30 31  1  0  0  0  0
 32 30  1  0  0  0  0
 32 31  1  0  0  0  0
M  END
>  <MODEL>
5

>  <REMARK>
 VINA RESULT:      -7.4      1.995      4.170
  Name = 
  9 active torsions:
  status: ('A' for Active; 'I' for Inactive)
    1  A    between atoms: C_1  and  N_10
    2  A    between atoms: C_2  and  C_24
    3  A    between atoms: O_6  and  C_7
    4  A    between atoms: C_7  and  C_32
    5  A    between atoms: N_10  and  C_24
    6  A    between atoms: C_16  and  C_27
    7  A    between atoms: C_22  and  C_30
    8  A    between atoms: C_22  and  C_32
    9  A    between atoms: C_27  and  C_32
                            x       y       z     vdW  Elec       q    Type
                         _______ _______ _______ _____ _____    ______ ____

>  <TORSDO>
F 9

$$$$
=
 OpenBabel11062410503D

 32 37  0  0  1  0  0  0  0  0999 V2000
  161.4450  204.1470  146.5860 C   0  0  0  0  0  0  0  0  0  0  0  0
  161.4770  207.9360  149.9140 C   0  0  0  0  0  0  0  0  0  0  0  0
  160.9080  205.8420  154.2660 C   0  0  0  0  0  3  0  0  0  0  0  0
  160.9640  207.1010  154.8650 C   0  0  0  0  0  3  0  0  0  0  0  0
  161.5450  206.6300  147.8750 C   0  0  0  0  0  0  0  0  0  0  0  0
  161.2620  205.5150  150.0180 C   0  0  0  0  0  3  0  0  0  0  0  0
  161.3330  204.2100  147.9790 C   0  0  0  0  0  3  0  0  0  0  0  0
  161.0210  205.7210  152.8790 C   0  0  0  0  0  3  0  0  0  0  0  0
  161.3080  206.7560  150.6750 C   0  0  0  0  0  0  0  0  0  0  0  0
  161.1920  206.8590  152.0740 C   0  0  0  0  0  0  0  0  0  0  0  0
  161.4190  209.2790  151.8780 C   0  0  0  0  0  0  0  0  0  0  0  0
  161.6140  205.3190  145.8420 C   0  0  0  0  0  3  0  0  0  0  0  0
  161.3780  205.4470  148.6280 C   0  0  0  0  0  0  0  0  0  0  0  0
  161.6620  206.5600  146.4850 C   0  0  0  0  0  3  0  0  0  0  0  0
  161.1340  208.2420  154.0800 C   0  0  0  0  0  3  0  0  0  0  0  0
  161.2480  208.1370  152.6840 C   0  0  0  0  0  0  0  0  0  0  0  0
  161.5930  207.8660  148.5230 C   0  0  0  0  0  3  0  0  0  0  0  0
  161.5240  209.1450  150.5300 N   0  0  0  0  0  0  0  0  0  0  0  0
  161.4210  202.8260  145.8990 C   0  0  0  0  0  2  0  0  0  0  0  0
  160.6490  201.8780  146.6840 N   0  0  0  0  0  2  0  0  0  0  0  0
  161.3730  201.6710  147.9240 C   0  0  1  0  0  3  0  0  0  0  0  0
  160.5670  200.9340  148.8100 O   0  0  0  0  0  0  0  0  0  0  0  0
  161.5790  200.2230  148.1430 C   0  0  0  0  0  2  0  0  0  0  0  0
  161.4540  210.6560  152.4660 C   0  0  0  0  0  2  0  0  0  0  0  0
  160.0550  211.2700  152.5010 C   0  0  1  0  0  3  0  0  0  0  0  0
  159.4660  211.2620  153.9090 C   0  0  0  0  0  2  0  0  0  0  0  0
  159.9300  212.3440  154.6580 O   0  0  0  0  0  0  0  0  0  0  0  0
  160.3580  211.7810  155.8590 C   0  0  0  0  0  1  0  0  0  0  0  0
  159.9770  212.6480  151.8350 C   0  0  0  0  0  2  0  0  0  0  0  0
  158.0610  214.2090  151.9210 C   0  0  0  0  0  2  0  0  0  0  0  0
  158.6540  214.2770  150.5330 C   0  0  0  0  0  2  0  0  0  0  0  0
  158.6000  212.9540  151.2660 C   0  0  0  0  0  3  0  0  0  0  0  0
  1  7  1  0  0  0  0
  2 18  1  0  0  0  0
  2  9  1  0  0  0  0
  3  4  1  0  0  0  0
  5 17  1  0  0  0  0
  5 13  1  0  0  0  0
  6  9  2  0  0  0  0
  7 13  2  0  0  0  0
  8  3  2  0  0  0  0
  9 10  1  0  0  0  0
 10 16  2  0  0  0  0
 10  8  1  0  0  0  0
 11 24  1  0  0  0  0
 11 16  1  0  0  0  0
 12 14  1  0  0  0  0
 12  1  2  0  0  0  0
 13  6  1  0  0  0  0
 14  5  2  0  0  0  0
 15  4  2  0  0  0  0
 16 15  1  0  0  0  0
 17  2  2  0  0  0  0
 18 11  2  0  0  0  0
 19  1  1  0  0  0  0
 19 20  1  0  0  0  0
 21 20  1  6  0  0  0
 21 23  1  0  0  0  0
 21 22  1  0  0  0  0
 23 22  1  0  0  0  0
 24 25  1  0  0  0  0
 25 29  1  1  0  0  0
 25 26  1  0  0  0  0
 26 27  1  0  0  0  0
 27 28  1  0  0  0  0
 31 32  1  0  0  0  0
 31 30  1  0  0  0  0
 32 29  1  0  0  0  0
 32 30  1  0  0  0  0
M  END
>  <MODEL>
6

>  <REMARK>
 VINA RESULT:      -6.8      1.858      3.582
  Name = 
  9 active torsions:
  status: ('A' for Active; 'I' for Inactive)
    1  A    between atoms: C_1  and  N_10
    2  A    between atoms: C_2  and  C_24
    3  A    between atoms: O_6  and  C_7
    4  A    between atoms: C_7  and  C_32
    5  A    between atoms: N_10  and  C_24
    6  A    between atoms: C_16  and  C_27
    7  A    between atoms: C_22  and  C_30
    8  A    between atoms: C_22  and  C_32
    9  A    between atoms: C_27  and  C_32
                            x       y       z     vdW  Elec       q    Type
                         _______ _______ _______ _____ _____    ______ ____

>  <TORSDO>
F 9

$$$$
=
 OpenBabel11062410503D

 32 37  0  0  1  0  0  0  0  0999 V2000
  160.9960  203.2520  148.9800 C   0  0  0  0  0  0  0  0  0  0  0  0
  161.7660  208.2370  148.9650 C   0  0  0  0  0  0  0  0  0  0  0  0
  160.6160  209.7370  153.4460 C   0  0  0  0  0  3  0  0  0  0  0  0
  160.9320  211.0440  153.0750 C   0  0  0  0  0  3  0  0  0  0  0  0
  161.6040  205.9060  148.3260 C   0  0  0  0  0  0  0  0  0  0  0  0
  161.0170  206.5840  150.5860 C   0  0  0  0  0  3  0  0  0  0  0  0
  160.8590  204.2540  149.9470 C   0  0  0  0  0  3  0  0  0  0  0  0
  160.7420  208.6980  152.5210 C   0  0  0  0  0  3  0  0  0  0  0  0
  161.3170  207.9200  150.2680 C   0  0  0  0  0  0  0  0  0  0  0  0
  161.1840  208.9540  151.2130 C   0  0  0  0  0  0  0  0  0  0  0  0
  161.9470  210.5420  149.5270 C   0  0  0  0  0  0  0  0  0  0  0  0
  161.4430  203.5750  147.6940 C   0  0  0  0  0  3  0  0  0  0  0  0
  161.1570  205.5810  149.6260 C   0  0  0  0  0  0  0  0  0  0  0  0
  161.7450  204.9010  147.3660 C   0  0  0  0  0  3  0  0  0  0  0  0
  161.3730  211.3180  151.7790 C   0  0  0  0  0  3  0  0  0  0  0  0
  161.5030  210.2840  150.8380 C   0  0  0  0  0  0  0  0  0  0  0  0
  161.9050  207.2320  148.0050 C   0  0  0  0  0  3  0  0  0  0  0  0
  162.0600  209.5210  148.6390 N   0  0  0  0  0  0  0  0  0  0  0  0
  160.7020  201.8360  149.3320 C   0  0  0  0  0  2  0  0  0  0  0  0
  160.2060  201.1330  148.1610 N   0  0  0  0  0  2  0  0  0  0  0  0
  161.3440  200.9160  147.2880 C   0  0  1  0  0  3  0  0  0  0  0  0
  161.4990  199.5360  147.0680 O   0  0  0  0  0  0  0  0  0  0  0  0
  160.8940  200.2720  146.0360 C   0  0  0  0  0  2  0  0  0  0  0  0
  162.2680  211.9310  149.0670 C   0  0  0  0  0  2  0  0  0  0  0  0
  161.0340  212.6050  148.4680 C   0  0  1  0  0  3  0  0  0  0  0  0
  160.8230  214.0080  149.0320 C   0  0  0  0  0  2  0  0  0  0  0  0
  159.4660  214.3300  149.0960 O   0  0  0  0  0  0  0  0  0  0  0  0
  158.9180  213.3660  149.9400 C   0  0  0  0  0  1  0  0  0  0  0  0
  161.0050  212.5740  146.9360 C   0  0  0  0  0  2  0  0  0  0  0  0
  158.9910  213.2500  145.6710 C   0  0  0  0  0  2  0  0  0  0  0  0
  159.7110  212.1910  144.8680 C   0  0  0  0  0  2  0  0  0  0  0  0
  159.6730  212.0970  146.3780 C   0  0  0  0  0  3  0  0  0  0  0  0
  1 19  1  0  0  0  0
  1  7  1  0  0  0  0
  2  9  1  0  0  0  0
  4  3  1  0  0  0  0
  5 13  1  0  0  0  0
  8  3  2  0  0  0  0
  9  6  2  0  0  0  0
  9 10  1  0  0  0  0
 10  8  1  0  0  0  0
 11 16  1  0  0  0  0
 12  1  2  0  0  0  0
 13  7  2  0  0  0  0
 13  6  1  0  0  0  0
 14 12  1  0  0  0  0
 14  5  2  0  0  0  0
 15  4  2  0  0  0  0
 16 10  2  0  0  0  0
 16 15  1  0  0  0  0
 17  5  1  0  0  0  0
 17  2  2  0  0  0  0
 18  2  1  0  0  0  0
 18 11  2  0  0  0  0
 20 19  1  0  0  0  0
 21 20  1  1  0  0  0
 22 21  1  0  0  0  0
 23 22  1  0  0  0  0
 23 21  1  0  0  0  0
 24 11  1  0  0  0  0
 25 29  1  6  0  0  0
 25 26  1  0  0  0  0
 25 24  1  0  0  0  0
 26 27  1  0  0  0  0
 27 28  1  0  0  0  0
 30 32  1  0  0  0  0
 31 30  1  0  0  0  0
 31 32  1  0  0  0  0
 32 29  1  0  0  0  0
M  END
>  <MODEL>
7

>  <REMARK>
 VINA RESULT:      -6.4      2.775      4.740
  Name = 
  9 active torsions:
  status: ('A' for Active; 'I' for Inactive)
    1  A    between atoms: C_1  and  N_10
    2  A    between atoms: C_2  and  C_24
    3  A    between atoms: O_6  and  C_7
    4  A    between atoms: C_7  and  C_32
    5  A    between atoms: N_10  and  C_24
    6  A    between atoms: C_16  and  C_27
    7  A    between atoms: C_22  and  C_30
    8  A    between atoms: C_22  and  C_32
    9  A    between atoms: C_27  and  C_32
                            x       y       z     vdW  Elec       q    Type
                         _______ _______ _______ _____ _____    ______ ____

>  <TORSDO>
F 9

$$$$
=
 OpenBabel11062410503D

 32 37  0  0  1  0  0  0  0  0999 V2000
  159.6310  211.4100  156.4020 C   0  0  0  0  0  0  0  0  0  0  0  0
  161.1680  208.0210  152.9980 C   0  0  0  0  0  0  0  0  0  0  0  0
  161.9650  210.5500  148.9210 C   0  0  0  0  0  3  0  0  0  0  0  0
  162.3400  209.3700  148.2780 C   0  0  0  0  0  3  0  0  0  0  0  0
  160.4000  209.0940  155.0290 C   0  0  0  0  0  0  0  0  0  0  0  0
  160.7820  210.4230  153.0280 C   0  0  0  0  0  3  0  0  0  0  0  0
  160.0190  211.4960  155.0600 C   0  0  0  0  0  3  0  0  0  0  0  0
  161.5750  210.5220  150.2620 C   0  0  0  0  0  3  0  0  0  0  0  0
  161.1680  209.2660  152.3290 C   0  0  0  0  0  0  0  0  0  0  0  0
  161.5570  209.3130  150.9770 C   0  0  0  0  0  0  0  0  0  0  0  0
  161.9210  206.9030  151.0370 C   0  0  0  0  0  0  0  0  0  0  0  0
  159.6360  210.1740  157.0560 C   0  0  0  0  0  3  0  0  0  0  0  0
  160.4000  210.3430  154.3680 C   0  0  0  0  0  0  0  0  0  0  0  0
  160.0190  209.0160  156.3700 C   0  0  0  0  0  3  0  0  0  0  0  0
  162.3280  208.1600  148.9730 C   0  0  0  0  0  3  0  0  0  0  0  0
  161.9380  208.1160  150.3210 C   0  0  0  0  0  0  0  0  0  0  0  0
  160.7840  207.9420  154.3390 C   0  0  0  0  0  3  0  0  0  0  0  0
  161.5360  206.8930  152.3390 N   0  0  0  0  0  0  0  0  0  0  0  0
  159.2490  212.6430  157.1430 C   0  0  0  0  0  2  0  0  0  0  0  0
  157.8030  212.7170  157.2610 N   0  0  0  0  0  2  0  0  0  0  0  0
  157.3530  213.7050  156.2980 C   0  0  1  0  0  3  0  0  0  0  0  0
  156.6350  213.0570  155.2770 O   0  0  0  0  0  0  0  0  0  0  0  0
  155.8760  213.7210  156.2560 C   0  0  0  0  0  2  0  0  0  0  0  0
  162.2840  205.6040  150.3860 C   0  0  0  0  0  2  0  0  0  0  0  0
  161.0810  205.0040  149.6580 C   0  0  1  0  0  3  0  0  0  0  0  0
  161.2490  205.0580  148.1420 C   0  0  0  0  0  2  0  0  0  0  0  0
  160.4050  206.0140  147.5730 O   0  0  0  0  0  0  0  0  0  0  0  0
  160.9090  206.2040  146.2880 C   0  0  0  0  0  1  0  0  0  0  0  0
  160.6990  203.6070  150.1610 C   0  0  0  0  0  2  0  0  0  0  0  0
  161.1650  201.2240  149.6950 C   0  0  0  0  0  2  0  0  0  0  0  0
  159.7190  201.4910  149.3480 C   0  0  0  0  0  2  0  0  0  0  0  0
  160.7680  202.5470  149.0730 C   0  0  0  0  0  3  0  0  0  0  0  0
  1 12  1  0  0  0  0
  1 19  1  0  0  0  0
  2 17  1  0  0  0  0
  3  8  1  0  0  0  0
  4  3  2  0  0  0  0
  4 15  1  0  0  0  0
  5 14  1  0  0  0  0
  6 13  2  0  0  0  0
  7  1  2  0  0  0  0
  8 10  2  0  0  0  0
  9  2  2  0  0  0  0
  9  6  1  0  0  0  0
 10  9  1  0  0  0  0
 11 18  2  0  0  0  0
 13  5  1  0  0  0  0
 13  7  1  0  0  0  0
 14 12  2  0  0  0  0
 15 16  2  0  0  0  0
 16 10  1  0  0  0  0
 16 11  1  0  0  0  0
 17  5  2  0  0  0  0
 18  2  1  0  0  0  0
 19 20  1  0  0  0  0
 21 20  1  1  0  0  0
 22 23  1  0  0  0  0
 22 21  1  0  0  0  0
 23 21  1  0  0  0  0
 24 11  1  0  0  0  0
 25 26  1  6  0  0  0
 25 29  1  0  0  0  0
 25 24  1  0  0  0  0
 27 26  1  0  0  0  0
 28 27  1  0  0  0  0
 31 30  1  0  0  0  0
 32 31  1  0  0  0  0
 32 30  1  0  0  0  0
 32 29  1  0  0  0  0
M  END
>  <MODEL>
8

>  <REMARK>
 VINA RESULT:      -6.3      2.529      9.039
  Name = 
  9 active torsions:
  status: ('A' for Active; 'I' for Inactive)
    1  A    between atoms: C_1  and  N_10
    2  A    between atoms: C_2  and  C_24
    3  A    between atoms: O_6  and  C_7
    4  A    between atoms: C_7  and  C_32
    5  A    between atoms: N_10  and  C_24
    6  A    between atoms: C_16  and  C_27
    7  A    between atoms: C_22  and  C_30
    8  A    between atoms: C_22  and  C_32
    9  A    between atoms: C_27  and  C_32
                            x       y       z     vdW  Elec       q    Type
                         _______ _______ _______ _____ _____    ______ ____

>  <TORSDO>
F 9

$$$$
=
 OpenBabel11062410503D

 32 37  0  0  1  0  0  0  0  0999 V2000
  160.9220  201.8940  147.3990 C   0  0  0  0  0  0  0  0  0  0  0  0
  161.3490  205.2030  151.1810 C   0  0  0  0  0  0  0  0  0  0  0  0
  162.0950  209.5120  149.0520 C   0  0  0  0  0  3  0  0  0  0  0  0
  162.1570  210.1090  150.3120 C   0  0  0  0  0  3  0  0  0  0  0  0
  161.0610  203.1790  149.8840 C   0  0  0  0  0  0  0  0  0  0  0  0
  161.4270  205.3000  148.7510 C   0  0  0  0  0  3  0  0  0  0  0  0
  161.1350  203.2760  147.4540 C   0  0  0  0  0  3  0  0  0  0  0  0
  161.8790  208.1370  148.9400 C   0  0  0  0  0  3  0  0  0  0  0  0
  161.5000  205.9540  149.9930 C   0  0  0  0  0  0  0  0  0  0  0  0
  161.7200  207.3410  150.0870 C   0  0  0  0  0  0  0  0  0  0  0  0
  161.6250  207.1540  152.5160 C   0  0  0  0  0  0  0  0  0  0  0  0
  160.7710  201.1590  148.5810 C   0  0  0  0  0  3  0  0  0  0  0  0
  161.2090  203.9220  148.6910 C   0  0  0  0  0  0  0  0  0  0  0  0
  160.8430  201.8000  149.8220 C   0  0  0  0  0  3  0  0  0  0  0  0
  162.0010  209.3340  151.4620 C   0  0  0  0  0  3  0  0  0  0  0  0
  161.7840  207.9500  151.3660 C   0  0  0  0  0  0  0  0  0  0  0  0
  161.1330  203.8240  151.1200 C   0  0  0  0  0  3  0  0  0  0  0  0
  161.4180  205.8170  152.3900 N   0  0  0  0  0  0  0  0  0  0  0  0
  160.8190  201.2110  146.0800 C   0  0  0  0  0  2  0  0  0  0  0  0
  160.6390  199.7840  146.2790 N   0  0  0  0  0  2  0  0  0  0  0  0
  160.9740  199.1390  145.0230 C   0  0  1  0  0  3  0  0  0  0  0  0
  162.2750  198.6110  145.1100 O   0  0  0  0  0  0  0  0  0  0  0  0
  161.2150  197.6990  145.2520 C   0  0  0  0  0  2  0  0  0  0  0  0
  161.7130  207.7380  153.8920 C   0  0  0  0  0  2  0  0  0  0  0  0
  160.3250  208.0890  154.4260 C   0  0  1  0  0  3  0  0  0  0  0  0
  159.6720  206.9030  155.1310 C   0  0  0  0  0  2  0  0  0  0  0  0
  160.4470  206.4630  156.2060 O   0  0  0  0  0  0  0  0  0  0  0  0
  160.0910  207.3020  157.2600 C   0  0  0  0  0  1  0  0  0  0  0  0
  160.3010  209.3660  155.2730 C   0  0  0  0  0  2  0  0  0  0  0  0
  160.8250  211.7710  155.0380 C   0  0  0  0  0  2  0  0  0  0  0  0
  161.7630  211.1900  156.0710 C   0  0  0  0  0  2  0  0  0  0  0  0
  161.3690  210.3680  154.8620 C   0  0  0  0  0  3  0  0  0  0  0  0
  1  7  2  0  0  0  0
  1 12  1  0  0  0  0
  2 18  1  0  0  0  0
  3  4  1  0  0  0  0
  4 15  2  0  0  0  0
  5 17  1  0  0  0  0
  6  9  2  0  0  0  0
  7 13  1  0  0  0  0
  8  3  2  0  0  0  0
  8 10  1  0  0  0  0
  9 10  1  0  0  0  0
  9  2  1  0  0  0  0
 10 16  2  0  0  0  0
 11 24  1  0  0  0  0
 12 14  2  0  0  0  0
 13  6  1  0  0  0  0
 13  5  2  0  0  0  0
 14  5  1  0  0  0  0
 16 15  1  0  0  0  0
 16 11  1  0  0  0  0
 17  2  2  0  0  0  0
 18 11  2  0  0  0  0
 19 20  1  0  0  0  0
 19  1  1  0  0  0  0
 21 22  1  0  0  0  0
 21 23  1  0  0  0  0
 21 20  1  1  0  0  0
 22 23  1  0  0  0  0
 25 24  1  1  0  0  0
 25 26  1  0  0  0  0
 25 29  1  0  0  0  0
 26 27  1  0  0  0  0
 27 28  1  0  0  0  0
 30 31  1  0  0  0  0
 32 30  1  0  0  0  0
 32 29  1  0  0  0  0
 32 31  1  0  0  0  0
M  END
>  <MODEL>
9

>  <REMARK>
 VINA RESULT:      -5.7      1.616      2.317
  Name = 
  9 active torsions:
  status: ('A' for Active; 'I' for Inactive)
    1  A    between atoms: C_1  and  N_10
    2  A    between atoms: C_2  and  C_24
    3  A    between atoms: O_6  and  C_7
    4  A    between atoms: C_7  and  C_32
    5  A    between atoms: N_10  and  C_24
    6  A    between atoms: C_16  and  C_27
    7  A    between atoms: C_22  and  C_30
    8  A    between atoms: C_22  and  C_32
    9  A    between atoms: C_27  and  C_32
                            x       y       z     vdW  Elec       q    Type
                         _______ _______ _______ _____ _____    ______ ____

>  <TORSDO>
F 9

$$$$
