=
 OpenBabel11052422013D

 30 33  0  0  1  0  0  0  0  0999 V2000
  157.1780  214.1450  152.9150 C   0  0  0  0  0  0  0  0  0  0  0  0
  157.1000  213.7040  150.5550 C   0  0  0  0  0  3  0  0  0  0  0  0
  161.0850  211.8360  151.1320 O   0  0  0  0  0  0  0  0  0  0  0  0
  157.8670  211.3580  153.8020 C   0  0  0  0  0  2  0  0  0  0  0  0
  158.0130  214.4230  154.0400 N   0  0  0  0  0  2  0  0  0  0  0  0
  156.4640  212.2810  156.5820 C   0  0  1  0  0  3  0  0  0  0  0  0
  156.4920  213.2790  155.5720 O   0  0  0  0  0  0  0  0  0  0  0  0
  158.3480  214.4140  156.3400 O   0  0  0  0  0  0  0  0  0  0  0  0
  160.8230  210.2070  154.3020 C   0  0  2  0  0  3  0  0  0  0  0  0
  160.9960  210.5470  151.7170 C   0  0  1  0  0  3  0  0  0  0  0  0
  157.6190  214.0800  155.3690 C   0  0  0  0  0  0  0  0  0  0  0  0
  158.0350  210.7610  155.2120 C   0  0  2  0  0  3  0  0  0  0  0  0
  157.5480  213.1410  149.2520 C   0  0  0  0  0  2  0  0  0  0  0  0
  160.6140  211.2520  155.4060 C   0  0  0  0  0  2  0  0  0  0  0  0
  155.1110  212.2900  157.2610 C   0  0  0  0  0  1  0  0  0  0  0  0
  155.9550  214.4530  152.9600 O   0  0  0  0  0  0  0  0  0  0  0  0
  159.9460  212.6080  150.9100 C   0  0  0  0  0  0  0  0  0  0  0  0
  158.8930  213.6940  148.9290 C   0  0  0  0  0  3  0  0  0  0  0  0
  156.7110  210.8900  155.9770 C   0  0  0  0  0  2  0  0  0  0  0  0
  157.7340  213.4850  151.7130 C   0  0  0  0  0  0  0  0  0  0  0  0
  159.1590  211.7590  153.0890 C   0  0  1  0  0  3  0  0  0  0  0  0
  162.3880  209.9650  151.9040 C   0  0  0  0  0  1  0  0  0  0  0  0
  160.0940  210.5350  152.9690 C   0  0  2  0  0  3  0  0  0  0  0  0
  159.3000  210.4890  157.2440 O   0  0  0  0  0  1  0  0  0  0  0  0
  159.9600  213.4350  149.6840 C   0  0  0  0  0  3  0  0  0  0  0  0
  158.9320  212.5720  151.8140 C   0  0  0  0  0  0  0  0  0  0  0  0
  159.2310  211.2420  156.0720 C   0  0  2  0  0  3  0  0  0  0  0  0
  160.6200  208.8410  154.8110 N   0  0  0  0  0  0  0  0  0  0  0  0
  161.6230  208.5920  155.8300 C   0  0  0  0  0  1  0  0  0  0  0  0
  160.8230  207.9330  153.8240 O   0  0  0  0  0  1  0  0  0  0  0  0
  1 16  2  0  0  0  0
  1  5  1  0  0  0  0
  2 20  2  0  0  0  0
  3 10  1  0  0  0  0
  5 11  1  0  0  0  0
  6 15  1  6  0  0  0
  7  6  1  0  0  0  0
  9 28  1  1  0  0  0
  9 14  1  0  0  0  0
 10 22  1  1  0  0  0
 10 23  1  0  0  0  0
 11  7  1  0  0  0  0
 11  8  2  0  0  0  0
 12  4  1  6  0  0  0
 12 19  1  0  0  0  0
 12 27  1  0  0  0  0
 13  2  1  0  0  0  0
 14 27  1  0  0  0  0
 17  3  1  0  0  0  0
 17 26  2  0  0  0  0
 18 13  1  0  0  0  0
 18 25  2  0  0  0  0
 19  6  1  0  0  0  0
 20 26  1  0  0  0  0
 20  1  1  0  0  0  0
 21  4  1  6  0  0  0
 23 21  1  0  0  0  0
 23  9  1  0  0  0  0
 25 17  1  0  0  0  0
 26 21  1  0  0  0  0
 27 24  1  0  0  0  0
 28 29  1  0  0  0  0
 30 28  1  0  0  0  0
M  END
>  <MODEL>
1

>  <REMARK>
 VINA RESULT:      -5.2      0.000      0.000
  Name = 
  1 active torsions:
  status: ('A' for Active; 'I' for Inactive)
    1  A    between atoms: N_7  and  C_10
                            x       y       z     vdW  Elec       q    Type
                         _______ _______ _______ _____ _____    ______ ____

>  <TORSDO>
F 1

$$$$
=
 OpenBabel11052422013D

 30 33  0  0  1  0  0  0  0  0999 V2000
  161.3540  202.5600  147.4850 C   0  0  0  0  0  0  0  0  0  0  0  0
  159.9320  201.3080  148.9610 C   0  0  0  0  0  3  0  0  0  0  0  0
  161.6450  203.8380  152.1810 O   0  0  0  0  0  0  0  0  0  0  0  0
  160.5310  205.3020  148.3960 C   0  0  0  0  0  2  0  0  0  0  0  0
  162.5880  203.2680  147.3470 N   0  0  0  0  0  2  0  0  0  0  0  0
  161.4850  206.1870  145.4200 C   0  0  1  0  0  3  0  0  0  0  0  0
  161.6330  204.8030  145.7040 O   0  0  0  0  0  0  0  0  0  0  0  0
  163.8750  204.8570  146.2440 O   0  0  0  0  0  0  0  0  0  0  0  0
  161.9770  207.0570  150.6640 C   0  0  2  0  0  3  0  0  0  0  0  0
  161.0830  205.1410  152.1990 C   0  0  1  0  0  3  0  0  0  0  0  0
  162.7480  204.3130  146.3880 C   0  0  0  0  0  0  0  0  0  0  0  0
  160.9400  206.6980  147.8890 C   0  0  2  0  0  3  0  0  0  0  0  0
  159.2710  200.9470  150.2450 C   0  0  0  0  0  2  0  0  0  0  0  0
  162.9900  206.9860  149.5140 C   0  0  0  0  0  2  0  0  0  0  0  0
  160.9360  206.3570  144.0200 C   0  0  0  0  0  1  0  0  0  0  0  0
  160.7720  202.1230  146.4540 O   0  0  0  0  0  0  0  0  0  0  0  0
  161.2730  202.9050  151.2150 C   0  0  0  0  0  0  0  0  0  0  0  0
  160.3210  200.6020  151.2430 C   0  0  0  0  0  3  0  0  0  0  0  0
  160.5220  206.8450  146.4190 C   0  0  0  0  0  2  0  0  0  0  0  0
  160.7520  202.3570  148.8210 C   0  0  0  0  0  0  0  0  0  0  0  0
  161.2730  204.7990  149.6350 C   0  0  1  0  0  3  0  0  0  0  0  0
  161.7180  205.9640  153.3090 C   0  0  0  0  0  1  0  0  0  0  0  0
  161.0800  205.7950  150.8020 C   0  0  2  0  0  3  0  0  0  0  0  0
  162.5420  208.4890  147.7160 O   0  0  0  0  0  1  0  0  0  0  0  0
  161.2070  201.5000  151.6720 C   0  0  0  0  0  3  0  0  0  0  0  0
  161.0210  203.3250  149.9480 C   0  0  0  0  0  0  0  0  0  0  0  0
  162.4040  207.1560  148.1050 C   0  0  2  0  0  3  0  0  0  0  0  0
  161.2600  208.3420  150.6680 N   0  0  0  0  0  0  0  0  0  0  0  0
  162.2360  209.3970  150.8670 C   0  0  0  0  0  1  0  0  0  0  0  0
  160.3960  208.3990  151.7120 O   0  0  0  0  0  1  0  0  0  0  0  0
  1 20  1  0  0  0  0
  2 13  1  0  0  0  0
  3 10  1  0  0  0  0
  5  1  1  0  0  0  0
  6 15  1  6  0  0  0
  6  7  1  0  0  0  0
  6 19  1  0  0  0  0
  7 11  1  0  0  0  0
  8 11  2  0  0  0  0
  9 28  1  6  0  0  0
  9 23  1  0  0  0  0
 10 22  1  1  0  0  0
 11  5  1  0  0  0  0
 12 19  1  6  0  0  0
 12 27  1  0  0  0  0
 12  4  1  0  0  0  0
 13 18  1  0  0  0  0
 14  9  1  0  0  0  0
 16  1  2  0  0  0  0
 17 25  1  0  0  0  0
 17  3  1  0  0  0  0
 18 25  2  0  0  0  0
 20  2  2  0  0  0  0
 20 26  1  0  0  0  0
 21  4  1  6  0  0  0
 21 26  1  0  0  0  0
 21 23  1  0  0  0  0
 23 10  1  0  0  0  0
 24 27  1  0  0  0  0
 26 17  2  0  0  0  0
 27 14  1  0  0  0  0
 28 29  1  0  0  0  0
 28 30  1  0  0  0  0
M  END
>  <MODEL>
2

>  <REMARK>
 VINA RESULT:      -4.5      6.902     10.682
  Name = 
  1 active torsions:
  status: ('A' for Active; 'I' for Inactive)
    1  A    between atoms: N_7  and  C_10
                            x       y       z     vdW  Elec       q    Type
                         _______ _______ _______ _____ _____    ______ ____

>  <TORSDO>
F 1

$$$$
=
 OpenBabel11052422013D

 30 33  0  0  1  0  0  0  0  0999 V2000
  161.7760  208.0670  150.0060 C   0  0  0  0  0  0  0  0  0  0  0  0
  160.7780  205.8830  149.9120 C   0  0  0  0  0  3  0  0  0  0  0  0
  161.3550  205.8210  154.3130 O   0  0  0  0  0  0  0  0  0  0  0  0
  160.0270  209.1930  152.1740 C   0  0  0  0  0  2  0  0  0  0  0  0
  162.7050  208.9160  150.6820 N   0  0  0  0  0  2  0  0  0  0  0  0
  160.7940  212.0430  150.8170 C   0  0  1  0  0  3  0  0  0  0  0  0
  161.3830  210.9110  150.1930 O   0  0  0  0  0  0  0  0  0  0  0  0
  163.4410  211.0520  151.2250 O   0  0  0  0  0  0  0  0  0  0  0  0
  160.6680  209.1800  155.3210 C   0  0  2  0  0  3  0  0  0  0  0  0
  160.3870  206.6030  154.9950 C   0  0  1  0  0  3  0  0  0  0  0  0
  162.5570  210.3360  150.6850 C   0  0  0  0  0  0  0  0  0  0  0  0
  159.9700  210.6030  152.7930 C   0  0  2  0  0  3  0  0  0  0  0  0
  160.2060  204.6160  150.4440 C   0  0  0  0  0  2  0  0  0  0  0  0
  161.7090  210.1280  154.7110 C   0  0  0  0  0  2  0  0  0  0  0  0
  160.2990  213.0020  149.7550 C   0  0  0  0  0  1  0  0  0  0  0  0
  161.4340  208.3410  148.8230 O   0  0  0  0  0  0  0  0  0  0  0  0
  161.3740  205.7470  152.9210 C   0  0  0  0  0  0  0  0  0  0  0  0
  161.2530  203.9140  151.2370 C   0  0  0  0  0  3  0  0  0  0  0  0
  159.6110  211.6200  151.7010 C   0  0  0  0  0  2  0  0  0  0  0  0
  161.2030  206.8870  150.6910 C   0  0  0  0  0  0  0  0  0  0  0  0
  160.8240  208.1520  152.9610 C   0  0  1  0  0  3  0  0  0  0  0  0
  160.6440  206.5560  156.4930 C   0  0  0  0  0  1  0  0  0  0  0  0
  160.2430  208.0130  154.3860 C   0  0  2  0  0  3  0  0  0  0  0  0
  160.8830  212.3120  154.2240 O   0  0  0  0  0  1  0  0  0  0  0  0
  161.7590  204.4380  152.3530 C   0  0  0  0  0  3  0  0  0  0  0  0
  161.0660  206.8520  152.1930 C   0  0  0  0  0  0  0  0  0  0  0  0
  161.1800  211.0840  153.6320 C   0  0  2  0  0  3  0  0  0  0  0  0
  159.5610  209.9270  155.9400 N   0  0  0  0  0  0  0  0  0  0  0  0
  159.9900  210.3470  157.2610 C   0  0  0  0  0  1  0  0  0  0  0  0
  158.4840  209.1210  156.1100 O   0  0  0  0  0  1  0  0  0  0  0  0
  1  5  1  0  0  0  0
  1 20  1  0  0  0  0
  2 13  1  0  0  0  0
  2 20  2  0  0  0  0
  3 10  1  0  0  0  0
  4 12  1  0  0  0  0
  5 11  1  0  0  0  0
  6 15  1  6  0  0  0
  6 19  1  0  0  0  0
  7 11  1  0  0  0  0
  7  6  1  0  0  0  0
  9 28  1  6  0  0  0
 10 22  1  1  0  0  0
 11  8  2  0  0  0  0
 12 19  1  6  0  0  0
 12 27  1  0  0  0  0
 13 18  1  0  0  0  0
 14  9  1  0  0  0  0
 16  1  2  0  0  0  0
 17  3  1  0  0  0  0
 18 25  2  0  0  0  0
 20 26  1  0  0  0  0
 21  4  1  6  0  0  0
 21 23  1  0  0  0  0
 23 10  1  0  0  0  0
 23  9  1  0  0  0  0
 25 17  1  0  0  0  0
 26 17  2  0  0  0  0
 26 21  1  0  0  0  0
 27 24  1  0  0  0  0
 27 14  1  0  0  0  0
 28 30  1  0  0  0  0
 28 29  1  0  0  0  0
M  END
>  <MODEL>
3

>  <REMARK>
 VINA RESULT:      -3.0      3.052      6.504
  Name = 
  1 active torsions:
  status: ('A' for Active; 'I' for Inactive)
    1  A    between atoms: N_7  and  C_10
                            x       y       z     vdW  Elec       q    Type
                         _______ _______ _______ _____ _____    ______ ____

>  <TORSDO>
F 1

$$$$
=
 OpenBabel11052422013D

 30 33  0  0  1  0  0  0  0  0999 V2000
  161.0800  206.9060  148.2110 C   0  0  0  0  0  0  0  0  0  0  0  0
  162.2110  206.9830  150.3290 C   0  0  0  0  0  3  0  0  0  0  0  0
  160.5020  202.9390  150.9860 O   0  0  0  0  0  0  0  0  0  0  0  0
  162.1180  204.2300  147.3210 C   0  0  0  0  0  2  0  0  0  0  0  0
  159.9520  206.4100  147.4880 N   0  0  0  0  0  2  0  0  0  0  0  0
  161.5470  205.4000  144.3450 C   0  0  1  0  0  3  0  0  0  0  0  0
  161.2200  206.2880  145.4040 O   0  0  0  0  0  0  0  0  0  0  0  0
  158.9580  205.8390  145.4670 O   0  0  0  0  0  0  0  0  0  0  0  0
  160.6740  201.3960  147.7670 C   0  0  2  0  0  3  0  0  0  0  0  0
  161.2020  201.9350  150.2690 C   0  0  1  0  0  3  0  0  0  0  0  0
  159.9990  206.2020  146.0770 C   0  0  0  0  0  0  0  0  0  0  0  0
  161.9160  203.4580  146.0030 C   0  0  2  0  0  3  0  0  0  0  0  0
  162.7060  206.4700  151.6350 C   0  0  0  0  0  2  0  0  0  0  0  0
  159.7690  202.1490  146.7820 C   0  0  0  0  0  2  0  0  0  0  0  0
  162.2390  206.1690  143.2400 C   0  0  0  0  0  1  0  0  0  0  0  0
  161.7020  207.9130  147.7730 O   0  0  0  0  0  0  0  0  0  0  0  0
  160.8550  204.2830  150.8770 C   0  0  0  0  0  0  0  0  0  0  0  0
  161.5360  206.0760  152.4690 C   0  0  0  0  0  3  0  0  0  0  0  0
  162.4820  204.2860  144.8400 C   0  0  0  0  0  2  0  0  0  0  0  0
  161.5300  206.2350  149.4510 C   0  0  0  0  0  0  0  0  0  0  0  0
  161.2130  203.8150  148.4820 C   0  0  1  0  0  3  0  0  0  0  0  0
  160.5630  200.5780  150.5190 C   0  0  0  0  0  1  0  0  0  0  0  0
  161.4070  202.3130  148.7870 C   0  0  2  0  0  3  0  0  0  0  0  0
  160.5470  202.1350  144.5270 O   0  0  0  0  0  1  0  0  0  0  0  0
  160.7200  205.0840  152.1130 C   0  0  0  0  0  3  0  0  0  0  0  0
  161.2680  204.7660  149.6770 C   0  0  0  0  0  0  0  0  0  0  0  0
  160.4990  202.9260  145.6760 C   0  0  2  0  0  3  0  0  0  0  0  0
  161.5270  200.4200  147.0710 N   0  0  0  0  0  0  0  0  0  0  0  0
  160.7150  199.7510  146.0710 C   0  0  0  0  0  1  0  0  0  0  0  0
  161.9560  199.4660  147.9360 O   0  0  0  0  0  1  0  0  0  0  0  0
  1 20  1  0  0  0  0
  2 13  1  0  0  0  0
  5  1  1  0  0  0  0
  6 15  1  6  0  0  0
  6 19  1  0  0  0  0
  6  7  1  0  0  0  0
  7 11  1  0  0  0  0
  8 11  2  0  0  0  0
  9 28  1  6  0  0  0
  9 23  1  0  0  0  0
 10 22  1  6  0  0  0
 10  3  1  0  0  0  0
 11  5  1  0  0  0  0
 12 19  1  6  0  0  0
 12  4  1  0  0  0  0
 13 18  1  0  0  0  0
 14  9  1  0  0  0  0
 16  1  2  0  0  0  0
 17  3  1  0  0  0  0
 17 25  1  0  0  0  0
 20 26  1  0  0  0  0
 20  2  2  0  0  0  0
 21  4  1  6  0  0  0
 21 23  1  0  0  0  0
 21 26  1  0  0  0  0
 23 10  1  0  0  0  0
 24 27  1  0  0  0  0
 25 18  2  0  0  0  0
 26 17  2  0  0  0  0
 27 12  1  0  0  0  0
 27 14  1  0  0  0  0
 28 30  1  0  0  0  0
 29 28  1  0  0  0  0
M  END
>  <MODEL>
4

>  <REMARK>
 VINA RESULT:      -2.8      8.027     11.314
  Name = 
  1 active torsions:
  status: ('A' for Active; 'I' for Inactive)
    1  A    between atoms: N_7  and  C_10
                            x       y       z     vdW  Elec       q    Type
                         _______ _______ _______ _____ _____    ______ ____

>  <TORSDO>
F 1

$$$$
