=
 OpenBabel11062410483D

 32 36  0  0  1  0  0  0  0  0999 V2000
  160.8810  204.5780  148.7060 C   0  0  1  0  0  3  0  0  0  0  0  0
  161.1500  208.7960  151.5900 C   0  0  0  0  0  0  0  0  0  0  0  0
  160.2260  207.1940  156.0940 C   0  0  0  0  0  3  0  0  0  0  0  0
  160.0880  208.5120  156.5320 C   0  0  0  0  0  3  0  0  0  0  0  0
  161.8440  207.1200  149.8650 C   0  0  1  0  0  3  0  0  0  0  0  0
  161.1940  206.3080  151.9940 C   0  0  0  0  0  2  0  0  0  0  0  0
  161.2580  204.8290  150.1730 C   0  0  0  0  0  2  0  0  0  0  0  0
  160.5200  206.9300  154.7540 C   0  0  0  0  0  3  0  0  0  0  0  0
  160.9720  207.7190  152.4840 C   0  0  0  0  0  0  0  0  0  0  0  0
  160.6790  207.9800  153.8370 C   0  0  0  0  0  0  0  0  0  0  0  0
  160.7060  210.3810  153.3730 C   0  0  0  0  0  0  0  0  0  0  0  0
  160.8400  205.8740  147.8870 C   0  0  0  0  0  2  0  0  0  0  0  0
  160.9300  206.1980  150.5610 N   0  0  2  0  0  0  0  0  0  0  0  0
  161.9060  206.8670  148.3480 C   0  0  0  0  0  2  0  0  0  0  0  0
  160.2440  209.5680  155.6330 C   0  0  0  0  0  3  0  0  0  0  0  0
  160.5400  209.3200  154.2830 C   0  0  0  0  0  0  0  0  0  0  0  0
  161.4150  208.5610  150.1290 C   0  0  0  0  0  2  0  0  0  0  0  0
  161.0010  210.1090  152.0360 C   0  0  0  0  0  3  0  0  0  0  0  0
  161.8550  203.5980  148.0760 C   0  0  0  0  0  2  0  0  0  0  0  0
  160.9900  202.6150  145.9240 C   0  0  0  0  0  0  0  0  0  0  0  0
  161.1260  202.5740  147.3430 N   0  0  0  0  0  2  0  0  0  0  0  0
  160.2580  201.5940  145.2570 N   0  0  0  0  0  1  0  0  0  0  0  0
  161.5080  203.5500  145.2570 O   0  0  0  0  0  0  0  0  0  0  0  0
  160.5350  211.8100  153.7840 C   0  0  0  0  0  2  0  0  0  0  0  0
  159.2340  212.3030  153.3430 N   0  0  0  0  0  0  0  0  0  0  0  0
  158.5750  213.7430  151.4220 C   0  0  1  0  0  3  0  0  0  0  0  0
  157.8290  212.5910  151.1540 O   0  0  0  0  0  1  0  0  0  0  0  0
  159.4200  213.6020  152.6920 C   0  0  2  0  0  3  0  0  0  0  0  0
  160.0480  213.4180  151.3220 C   0  0  0  0  0  2  0  0  0  0  0  0
  158.3510  212.4480  154.5090 C   0  0  0  0  0  2  0  0  0  0  0  0
  157.1330  211.5250  154.4710 C   0  0  0  0  0  2  0  0  0  0  0  0
  156.7080  211.1940  155.8850 C   0  0  0  0  0  1  0  0  0  0  0  0
  1 19  1  6  0  0  0
  1  7  1  0  0  0  0
  2 18  2  0  0  0  0
  2  9  1  0  0  0  0
  3  4  1  0  0  0  0
  5 14  1  6  0  0  0
  5 17  1  0  0  0  0
  5 13  1  0  0  0  0
  6  9  1  0  0  0  0
  8  3  2  0  0  0  0
  9 10  2  0  0  0  0
 10 16  1  0  0  0  0
 10  8  1  0  0  0  0
 11 24  1  0  0  0  0
 11 16  2  0  0  0  0
 12 14  1  0  0  0  0
 12  1  1  0  0  0  0
 13  7  1  6  0  0  0
 13  6  1  0  0  0  0
 15  4  2  0  0  0  0
 16 15  1  0  0  0  0
 17  2  1  0  0  0  0
 18 11  1  0  0  0  0
 20 21  1  0  0  0  0
 21 19  1  0  0  0  0
 22 20  1  0  0  0  0
 23 20  2  0  0  0  0
 25 24  1  0  0  0  0
 25 30  1  0  0  0  0
 26 27  1  1  0  0  0
 26 28  1  0  0  0  0
 28 25  1  1  0  0  0
 29 26  1  0  0  0  0
 29 28  1  0  0  0  0
 31 30  1  0  0  0  0
 31 32  1  0  0  0  0
M  END
>  <MODEL>
1

>  <REMARK>
 VINA RESULT:      -8.0      0.000      0.000
  Name = 
  7 active torsions:
  status: ('A' for Active; 'I' for Inactive)
    1  A    between atoms: C_2  and  C_24
    2  A    between atoms: C_6  and  C_7
    3  A    between atoms: C_7  and  N_32
    4  A    between atoms: N_10  and  C_24
    5  A    between atoms: C_16  and  C_27
    6  A    between atoms: C_22  and  N_32
    7  A    between atoms: C_27  and  N_32
                            x       y       z     vdW  Elec       q    Type
                         _______ _______ _______ _____ _____    ______ ____

>  <TORSDO>
F 7

$$$$
=
 OpenBabel11062410483D

 32 36  0  0  1  0  0  0  0  0999 V2000
  161.5670  202.3140  149.6610 C   0  0  1  0  0  3  0  0  0  0  0  0
  161.2350  206.8460  152.0120 C   0  0  0  0  0  0  0  0  0  0  0  0
  162.0350  210.0710  148.4520 C   0  0  0  0  0  3  0  0  0  0  0  0
  162.1670  211.0850  149.4030 C   0  0  0  0  0  3  0  0  0  0  0  0
  160.5810  204.5180  151.3640 C   0  0  1  0  0  3  0  0  0  0  0  0
  161.1730  206.0210  149.6300 C   0  0  0  0  0  2  0  0  0  0  0  0
  161.1520  203.7160  149.1930 C   0  0  0  0  0  2  0  0  0  0  0  0
  161.7770  208.7600  148.8590 C   0  0  0  0  0  3  0  0  0  0  0  0
  161.3870  207.1260  150.6370 C   0  0  0  0  0  0  0  0  0  0  0  0
  161.6450  208.4470  150.2210 C   0  0  0  0  0  0  0  0  0  0  0  0
  161.6380  209.1770  152.5550 C   0  0  0  0  0  0  0  0  0  0  0  0
  161.6340  202.2080  151.1890 C   0  0  0  0  0  2  0  0  0  0  0  0
  161.4740  204.7140  150.2090 N   0  0  2  0  0  0  0  0  0  0  0  0
  160.5590  203.0620  151.8610 C   0  0  0  0  0  2  0  0  0  0  0  0
  162.0380  210.7910  150.7610 C   0  0  0  0  0  3  0  0  0  0  0  0
  161.7760  209.4780  151.1870 C   0  0  0  0  0  0  0  0  0  0  0  0
  161.0080  205.4430  152.5010 C   0  0  0  0  0  2  0  0  0  0  0  0
  161.3770  207.8650  152.9540 C   0  0  0  0  0  3  0  0  0  0  0  0
  160.6060  201.2730  149.1110 C   0  0  0  0  0  2  0  0  0  0  0  0
  160.7260  200.8850  146.6260 C   0  0  0  0  0  0  0  0  0  0  0  0
  160.2300  201.6130  147.7480 N   0  0  0  0  0  2  0  0  0  0  0  0
  160.3360  201.2650  145.3120 N   0  0  0  0  0  1  0  0  0  0  0  0
  161.5090  199.9110  146.7880 O   0  0  0  0  0  0  0  0  0  0  0  0
  161.8020  210.2200  153.6160 C   0  0  0  0  0  2  0  0  0  0  0  0
  160.5620  210.3620  154.3720 N   0  0  0  0  0  0  0  0  0  0  0  0
  158.8070  212.1120  154.1390 C   0  0  1  0  0  3  0  0  0  0  0  0
  158.1010  210.9770  153.7280 O   0  0  0  0  0  1  0  0  0  0  0  0
  160.2570  211.7880  154.5120 C   0  0  2  0  0  3  0  0  0  0  0  0
  159.9230  212.3890  153.1580 C   0  0  0  0  0  2  0  0  0  0  0  0
  160.7320  209.7530  155.6990 C   0  0  0  0  0  2  0  0  0  0  0  0
  159.6150  208.7790  156.0710 C   0  0  0  0  0  2  0  0  0  0  0  0
  160.2130  207.4260  156.3910 C   0  0  0  0  0  1  0  0  0  0  0  0
  1 19  1  1  0  0  0
  1 12  1  0  0  0  0
  2 17  1  0  0  0  0
  2 18  1  0  0  0  0
  3  8  2  0  0  0  0
  3  4  1  0  0  0  0
  4 15  2  0  0  0  0
  5 14  1  1  0  0  0
  5 17  1  0  0  0  0
  6 13  1  0  0  0  0
  6  9  1  0  0  0  0
  7  1  1  0  0  0  0
  8 10  1  0  0  0  0
  9  2  2  0  0  0  0
 10  9  1  0  0  0  0
 10 16  2  0  0  0  0
 11 18  2  0  0  0  0
 11 24  1  0  0  0  0
 12 14  1  0  0  0  0
 13  7  1  6  0  0  0
 13  5  1  0  0  0  0
 15 16  1  0  0  0  0
 16 11  1  0  0  0  0
 20 23  2  0  0  0  0
 20 21  1  0  0  0  0
 21 19  1  0  0  0  0
 22 20  1  0  0  0  0
 24 25  1  0  0  0  0
 25 30  1  0  0  0  0
 26 27  1  6  0  0  0
 26 28  1  0  0  0  0
 28 25  1  6  0  0  0
 29 26  1  0  0  0  0
 29 28  1  0  0  0  0
 30 31  1  0  0  0  0
 31 32  1  0  0  0  0
M  END
>  <MODEL>
2

>  <REMARK>
 VINA RESULT:      -7.6      1.754      3.822
  Name = 
  7 active torsions:
  status: ('A' for Active; 'I' for Inactive)
    1  A    between atoms: C_2  and  C_24
    2  A    between atoms: C_6  and  C_7
    3  A    between atoms: C_7  and  N_32
    4  A    between atoms: N_10  and  C_24
    5  A    between atoms: C_16  and  C_27
    6  A    between atoms: C_22  and  N_32
    7  A    between atoms: C_27  and  N_32
                            x       y       z     vdW  Elec       q    Type
                         _______ _______ _______ _____ _____    ______ ____

>  <TORSDO>
F 7

$$$$
=
 OpenBabel11062410483D

 32 36  0  0  1  0  0  0  0  0999 V2000
  160.8850  204.7070  148.6770 C   0  0  1  0  0  3  0  0  0  0  0  0
  161.2190  208.7720  151.7640 C   0  0  0  0  0  0  0  0  0  0  0  0
  160.2340  206.9710  156.1800 C   0  0  0  0  0  3  0  0  0  0  0  0
  160.1190  208.2690  156.6810 C   0  0  0  0  0  3  0  0  0  0  0  0
  161.8910  207.1690  149.9630 C   0  0  1  0  0  3  0  0  0  0  0  0
  161.2110  206.2670  152.0470 C   0  0  0  0  0  2  0  0  0  0  0  0
  161.2580  204.8790  150.1560 C   0  0  0  0  0  2  0  0  0  0  0  0
  160.5310  206.7670  154.8300 C   0  0  0  0  0  3  0  0  0  0  0  0
  161.0130  207.6570  152.6040 C   0  0  0  0  0  0  0  0  0  0  0  0
  160.7160  207.8580  153.9660 C   0  0  0  0  0  0  0  0  0  0  0  0
  160.7940  210.2780  153.6210 C   0  0  0  0  0  0  0  0  0  0  0  0
  160.8740  206.0420  147.9220 C   0  0  0  0  0  2  0  0  0  0  0  0
  160.9530  206.2330  150.6090 N   0  0  2  0  0  0  0  0  0  0  0  0
  161.9570  206.9890  148.4370 C   0  0  0  0  0  2  0  0  0  0  0  0
  160.3020  209.3640  155.8360 C   0  0  0  0  0  3  0  0  0  0  0  0
  160.6010  209.1760  154.4770 C   0  0  0  0  0  0  0  0  0  0  0  0
  161.4880  208.6040  150.2950 C   0  0  0  0  0  2  0  0  0  0  0  0
  161.0920  210.0650  152.2740 C   0  0  0  0  0  3  0  0  0  0  0  0
  161.8430  203.7390  148.0040 C   0  0  0  0  0  2  0  0  0  0  0  0
  161.0040  202.7450  145.8480 C   0  0  0  0  0  0  0  0  0  0  0  0
  161.0980  202.7280  147.2710 N   0  0  0  0  0  2  0  0  0  0  0  0
  160.2530  201.7390  145.1790 N   0  0  0  0  0  1  0  0  0  0  0  0
  161.5770  203.6450  145.1770 O   0  0  0  0  0  0  0  0  0  0  0  0
  160.6480  211.6870  154.1010 C   0  0  0  0  0  2  0  0  0  0  0  0
  159.5520  212.3430  153.3940 N   0  0  0  0  0  0  0  0  0  0  0  0
  157.1780  212.6260  154.0890 C   0  0  1  0  0  3  0  0  0  0  0  0
  157.6010  213.9590  154.0510 O   0  0  0  0  0  1  0  0  0  0  0  0
  158.3020  211.6520  153.7210 C   0  0  2  0  0  3  0  0  0  0  0  0
  157.9340  211.8930  155.1740 C   0  0  0  0  0  2  0  0  0  0  0  0
  159.8000  212.2730  151.9470 C   0  0  0  0  0  2  0  0  0  0  0  0
  159.7270  213.6310  151.2480 C   0  0  0  0  0  2  0  0  0  0  0  0
  158.3710  213.7900  150.5960 C   0  0  0  0  0  1  0  0  0  0  0  0
  1 19  1  6  0  0  0
  1  7  1  0  0  0  0
  2 18  2  0  0  0  0
  2  9  1  0  0  0  0
  3  4  1  0  0  0  0
  5 14  1  6  0  0  0
  5 17  1  0  0  0  0
  5 13  1  0  0  0  0
  6  9  1  0  0  0  0
  8  3  2  0  0  0  0
  9 10  2  0  0  0  0
 10 16  1  0  0  0  0
 10  8  1  0  0  0  0
 11 24  1  0  0  0  0
 11 16  2  0  0  0  0
 12 14  1  0  0  0  0
 12  1  1  0  0  0  0
 13  7  1  6  0  0  0
 13  6  1  0  0  0  0
 15  4  2  0  0  0  0
 16 15  1  0  0  0  0
 17  2  1  0  0  0  0
 18 11  1  0  0  0  0
 20 21  1  0  0  0  0
 21 19  1  0  0  0  0
 22 20  1  0  0  0  0
 23 20  2  0  0  0  0
 25 24  1  0  0  0  0
 26 27  1  1  0  0  0
 26 29  1  0  0  0  0
 28 25  1  1  0  0  0
 28 26  1  0  0  0  0
 28 29  1  0  0  0  0
 30 25  1  0  0  0  0
 31 30  1  0  0  0  0
 32 31  1  0  0  0  0
M  END
>  <MODEL>
3

>  <REMARK>
 VINA RESULT:      -7.5      0.773      1.913
  Name = 
  7 active torsions:
  status: ('A' for Active; 'I' for Inactive)
    1  A    between atoms: C_2  and  C_24
    2  A    between atoms: C_6  and  C_7
    3  A    between atoms: C_7  and  N_32
    4  A    between atoms: N_10  and  C_24
    5  A    between atoms: C_16  and  C_27
    6  A    between atoms: C_22  and  N_32
    7  A    between atoms: C_27  and  N_32
                            x       y       z     vdW  Elec       q    Type
                         _______ _______ _______ _____ _____    ______ ____

>  <TORSDO>
F 7

$$$$
=
 OpenBabel11062410483D

 32 36  0  0  1  0  0  0  0  0999 V2000
  161.5370  202.3510  148.2820 C   0  0  1  0  0  3  0  0  0  0  0  0
  160.9660  205.3780  152.3670 C   0  0  0  0  0  0  0  0  0  0  0  0
  162.0160  209.8250  150.6830 C   0  0  0  0  0  3  0  0  0  0  0  0
  162.0590  210.3080  151.9920 C   0  0  0  0  0  3  0  0  0  0  0  0
  160.3920  203.5970  150.7050 C   0  0  1  0  0  3  0  0  0  0  0  0
  161.1060  205.6970  149.8700 C   0  0  0  0  0  2  0  0  0  0  0  0
  161.1450  203.8260  148.4550 C   0  0  0  0  0  2  0  0  0  0  0  0
  161.7400  208.4760  150.4450 C   0  0  0  0  0  3  0  0  0  0  0  0
  161.2250  206.2350  151.2770 C   0  0  0  0  0  0  0  0  0  0  0  0
  161.5020  207.5960  151.5110 C   0  0  0  0  0  0  0  0  0  0  0  0
  161.2970  207.2160  153.9190 C   0  0  0  0  0  0  0  0  0  0  0  0
  161.4800  201.5770  149.6050 C   0  0  0  0  0  2  0  0  0  0  0  0
  161.3740  204.2610  149.8300 N   0  0  2  0  0  0  0  0  0  0  0  0
  160.3450  202.0730  150.5010 C   0  0  0  0  0  2  0  0  0  0  0  0
  161.8240  209.4460  153.0640 C   0  0  0  0  0  3  0  0  0  0  0  0
  161.5430  208.0890  152.8410 C   0  0  0  0  0  0  0  0  0  0  0  0
  160.7150  203.9110  152.1640 C   0  0  0  0  0  2  0  0  0  0  0  0
  161.0200  205.8700  153.6710 C   0  0  0  0  0  3  0  0  0  0  0  0
  160.6350  201.6870  147.2550 C   0  0  0  0  0  2  0  0  0  0  0  0
  160.8430  199.7150  145.7030 C   0  0  0  0  0  0  0  0  0  0  0  0
  161.1320  200.3560  146.9440 N   0  0  0  0  0  2  0  0  0  0  0  0
  161.3440  198.4070  145.4530 N   0  0  0  0  0  1  0  0  0  0  0  0
  160.1440  200.2940  144.8290 O   0  0  0  0  0  0  0  0  0  0  0  0
  161.3640  207.6760  155.3410 C   0  0  0  0  0  2  0  0  0  0  0  0
  160.8440  209.0350  155.4490 N   0  0  0  0  0  0  0  0  0  0  0  0
  162.1280  210.7030  156.7800 C   0  0  1  0  0  3  0  0  0  0  0  0
  162.5630  211.0080  155.4860 O   0  0  0  0  0  1  0  0  0  0  0  0
  161.1280  209.5410  156.7940 C   0  0  2  0  0  3  0  0  0  0  0  0
  162.5870  209.3090  157.1450 C   0  0  0  0  0  2  0  0  0  0  0  0
  159.3920  209.0170  155.2180 C   0  0  0  0  0  2  0  0  0  0  0  0
  158.7100  210.3520  155.5160 C   0  0  0  0  0  2  0  0  0  0  0  0
  158.8880  211.2830  154.3360 C   0  0  0  0  0  1  0  0  0  0  0  0
  1 19  1  6  0  0  0
  1  7  1  0  0  0  0
  1 12  1  0  0  0  0
  2 18  1  0  0  0  0
  3  4  1  0  0  0  0
  4 15  2  0  0  0  0
  5 14  1  1  0  0  0
  5 17  1  0  0  0  0
  6  9  1  0  0  0  0
  8  3  2  0  0  0  0
  8 10  1  0  0  0  0
  9 10  1  0  0  0  0
  9  2  2  0  0  0  0
 10 16  2  0  0  0  0
 11 24  1  0  0  0  0
 12 14  1  0  0  0  0
 13  7  1  6  0  0  0
 13  6  1  0  0  0  0
 13  5  1  0  0  0  0
 16 15  1  0  0  0  0
 16 11  1  0  0  0  0
 17  2  1  0  0  0  0
 18 11  2  0  0  0  0
 20 21  1  0  0  0  0
 21 19  1  0  0  0  0
 22 20  1  0  0  0  0
 23 20  2  0  0  0  0
 24 25  1  0  0  0  0
 26 27  1  6  0  0  0
 26 28  1  0  0  0  0
 26 29  1  0  0  0  0
 28 25  1  6  0  0  0
 28 29  1  0  0  0  0
 30 25  1  0  0  0  0
 30 31  1  0  0  0  0
 32 31  1  0  0  0  0
M  END
>  <MODEL>
4

>  <REMARK>
 VINA RESULT:      -6.7      2.311      4.197
  Name = 
  7 active torsions:
  status: ('A' for Active; 'I' for Inactive)
    1  A    between atoms: C_2  and  C_24
    2  A    between atoms: C_6  and  C_7
    3  A    between atoms: C_7  and  N_32
    4  A    between atoms: N_10  and  C_24
    5  A    between atoms: C_16  and  C_27
    6  A    between atoms: C_22  and  N_32
    7  A    between atoms: C_27  and  N_32
                            x       y       z     vdW  Elec       q    Type
                         _______ _______ _______ _____ _____    ______ ____

>  <TORSDO>
F 7

$$$$
=
 OpenBabel11062410483D

 32 36  0  0  1  0  0  0  0  0999 V2000
  161.9860  209.2620  155.9730 C   0  0  1  0  0  3  0  0  0  0  0  0
  160.7510  207.3780  151.3790 C   0  0  0  0  0  0  0  0  0  0  0  0
  161.1610  202.5590  151.9430 C   0  0  0  0  0  3  0  0  0  0  0  0
  161.0650  202.3910  150.5610 C   0  0  0  0  0  3  0  0  0  0  0  0
  160.5450  208.7900  153.4360 C   0  0  1  0  0  3  0  0  0  0  0  0
  160.9550  206.4730  153.7230 C   0  0  0  0  0  2  0  0  0  0  0  0
  161.3580  207.9390  155.5100 C   0  0  0  0  0  2  0  0  0  0  0  0
  161.1130  203.8400  152.4970 C   0  0  0  0  0  3  0  0  0  0  0  0
  160.9220  206.2640  152.2280 C   0  0  0  0  0  0  0  0  0  0  0  0
  160.9680  204.9690  151.6750 C   0  0  0  0  0  0  0  0  0  0  0  0
  160.7140  205.9220  149.4370 C   0  0  0  0  0  0  0  0  0  0  0  0
  161.9910  210.3210  154.8630 C   0  0  0  0  0  2  0  0  0  0  0  0
  161.4490  207.8070  154.0590 N   0  0  2  0  0  0  0  0  0  0  0  0
  160.7510  210.2150  153.9770 C   0  0  0  0  0  2  0  0  0  0  0  0
  160.9190  203.5020  149.7290 C   0  0  0  0  0  3  0  0  0  0  0  0
  160.8680  204.7970  150.2700 C   0  0  0  0  0  0  0  0  0  0  0  0
  160.7460  208.7790  151.9230 C   0  0  0  0  0  2  0  0  0  0  0  0
  160.6650  207.1990  149.9980 C   0  0  0  0  0  3  0  0  0  0  0  0
  161.2500  209.7930  157.1920 C   0  0  0  0  0  2  0  0  0  0  0  0
  160.0900  212.0280  157.2310 C   0  0  0  0  0  0  0  0  0  0  0  0
  161.2830  211.2470  157.1990 N   0  0  0  0  0  2  0  0  0  0  0  0
  160.1780  213.4470  157.2260 N   0  0  0  0  0  1  0  0  0  0  0  0
  158.9600  211.4720  157.2600 O   0  0  0  0  0  0  0  0  0  0  0  0
  160.6400  205.7990  147.9480 C   0  0  0  0  0  2  0  0  0  0  0  0
  161.8310  206.3840  147.3400 N   0  0  0  0  0  0  0  0  0  0  0  0
  162.7290  205.0190  145.4610 C   0  0  1  0  0  3  0  0  0  0  0  0
  161.8260  205.8410  144.7800 O   0  0  0  0  0  1  0  0  0  0  0  0
  162.7480  205.3030  146.9670 C   0  0  2  0  0  3  0  0  0  0  0  0
  161.9690  204.1230  146.4130 C   0  0  0  0  0  2  0  0  0  0  0  0
  162.4800  207.2770  148.3110 C   0  0  0  0  0  2  0  0  0  0  0  0
  162.7280  208.6860  147.7730 C   0  0  0  0  0  2  0  0  0  0  0  0
  162.1460  209.7020  148.7320 C   0  0  0  0  0  1  0  0  0  0  0  0
  1 19  1  1  0  0  0
  2 17  1  0  0  0  0
  2  9  1  0  0  0  0
  3  8  2  0  0  0  0
  4  3  1  0  0  0  0
  5 17  1  6  0  0  0
  5 14  1  0  0  0  0
  5 13  1  0  0  0  0
  7  1  1  0  0  0  0
  9  6  1  0  0  0  0
 10  9  2  0  0  0  0
 10  8  1  0  0  0  0
 11 18  1  0  0  0  0
 11 16  2  0  0  0  0
 12  1  1  0  0  0  0
 13  6  1  1  0  0  0
 13  7  1  0  0  0  0
 14 12  1  0  0  0  0
 15 16  1  0  0  0  0
 15  4  2  0  0  0  0
 16 10  1  0  0  0  0
 18  2  2  0  0  0  0
 19 21  1  0  0  0  0
 20 23  2  0  0  0  0
 21 20  1  0  0  0  0
 22 20  1  0  0  0  0
 24 11  1  0  0  0  0
 25 24  1  0  0  0  0
 25 30  1  0  0  0  0
 26 27  1  6  0  0  0
 26 29  1  0  0  0  0
 26 28  1  0  0  0  0
 28 25  1  6  0  0  0
 29 28  1  0  0  0  0
 31 30  1  0  0  0  0
 31 32  1  0  0  0  0
M  END
>  <MODEL>
5

>  <REMARK>
 VINA RESULT:      -6.4      2.774      8.723
  Name = 
  7 active torsions:
  status: ('A' for Active; 'I' for Inactive)
    1  A    between atoms: C_2  and  C_24
    2  A    between atoms: C_6  and  C_7
    3  A    between atoms: C_7  and  N_32
    4  A    between atoms: N_10  and  C_24
    5  A    between atoms: C_16  and  C_27
    6  A    between atoms: C_22  and  N_32
    7  A    between atoms: C_27  and  N_32
                            x       y       z     vdW  Elec       q    Type
                         _______ _______ _______ _____ _____    ______ ____

>  <TORSDO>
F 7

$$$$
=
 OpenBabel11062410483D

 32 36  0  0  1  0  0  0  0  0999 V2000
  161.8320  209.7250  152.9600 C   0  0  1  0  0  3  0  0  0  0  0  0
  161.7280  206.4060  149.0670 C   0  0  0  0  0  0  0  0  0  0  0  0
  160.4250  202.2010  151.1500 C   0  0  0  0  0  3  0  0  0  0  0  0
  160.7610  201.5200  149.9790 C   0  0  0  0  0  3  0  0  0  0  0  0
  161.2750  208.5270  150.3160 C   0  0  1  0  0  3  0  0  0  0  0  0
  160.8320  206.4780  151.4230 C   0  0  0  0  0  2  0  0  0  0  0  0
  161.0270  208.4460  152.6860 C   0  0  0  0  0  2  0  0  0  0  0  0
  160.5860  203.5870  151.2220 C   0  0  0  0  0  3  0  0  0  0  0  0
  161.2500  205.7050  150.1940 C   0  0  0  0  0  0  0  0  0  0  0  0
  161.0830  204.3080  150.1250 C   0  0  0  0  0  0  0  0  0  0  0  0
  161.9140  204.3280  147.8250 C   0  0  0  0  0  0  0  0  0  0  0  0
  162.5400  210.2450  151.7020 C   0  0  0  0  0  2  0  0  0  0  0  0
  161.5640  207.7390  151.5270 N   0  0  2  0  0  0  0  0  0  0  0  0
  161.7080  209.9980  150.4440 C   0  0  0  0  0  2  0  0  0  0  0  0
  161.2560  202.2210  148.8780 C   0  0  0  0  0  3  0  0  0  0  0  0
  161.4220  203.6140  148.9350 C   0  0  0  0  0  0  0  0  0  0  0  0
  161.9670  207.8890  149.1150 C   0  0  0  0  0  2  0  0  0  0  0  0
  162.0690  205.7130  147.9050 C   0  0  0  0  0  3  0  0  0  0  0  0
  160.9240  210.8030  153.5260 C   0  0  0  0  0  2  0  0  0  0  0  0
  160.4570  211.9140  155.7380 C   0  0  0  0  0  0  0  0  0  0  0  0
  161.1420  210.9350  154.9580 N   0  0  0  0  0  2  0  0  0  0  0  0
  160.7140  212.0080  157.1340 N   0  0  0  0  0  1  0  0  0  0  0  0
  159.6300  212.6980  155.2010 O   0  0  0  0  0  0  0  0  0  0  0  0
  162.3190  203.6420  146.5590 C   0  0  0  0  0  2  0  0  0  0  0  0
  161.1910  203.5950  145.6340 N   0  0  0  0  0  0  0  0  0  0  0  0
  159.6170  202.0270  144.5110 C   0  0  1  0  0  3  0  0  0  0  0  0
  158.9490  203.2420  144.3310 O   0  0  0  0  0  1  0  0  0  0  0  0
  160.9300  202.1970  145.2820 C   0  0  2  0  0  3  0  0  0  0  0  0
  159.6780  201.7030  145.9870 C   0  0  0  0  0  2  0  0  0  0  0  0
  161.5240  204.3620  144.4250 C   0  0  0  0  0  2  0  0  0  0  0  0
  161.4070  205.8740  144.6100 C   0  0  0  0  0  2  0  0  0  0  0  0
  160.0810  206.2010  145.2610 C   0  0  0  0  0  1  0  0  0  0  0  0
  1 19  1  6  0  0  0
  2 17  1  0  0  0  0
  2  9  1  0  0  0  0
  3  8  2  0  0  0  0
  4  3  1  0  0  0  0
  5 17  1  6  0  0  0
  5 14  1  0  0  0  0
  5 13  1  0  0  0  0
  7  1  1  0  0  0  0
  9  6  1  0  0  0  0
 10  9  2  0  0  0  0
 10  8  1  0  0  0  0
 11 18  1  0  0  0  0
 11 16  2  0  0  0  0
 12  1  1  0  0  0  0
 13  6  1  6  0  0  0
 13  7  1  0  0  0  0
 14 12  1  0  0  0  0
 15 16  1  0  0  0  0
 15  4  2  0  0  0  0
 16 10  1  0  0  0  0
 18  2  2  0  0  0  0
 19 21  1  0  0  0  0
 20 22  1  0  0  0  0
 21 20  1  0  0  0  0
 23 20  2  0  0  0  0
 24 11  1  0  0  0  0
 25 24  1  0  0  0  0
 26 27  1  1  0  0  0
 26 28  1  0  0  0  0
 26 29  1  0  0  0  0
 28 25  1  1  0  0  0
 28 29  1  0  0  0  0
 30 31  1  0  0  0  0
 30 25  1  0  0  0  0
 31 32  1  0  0  0  0
M  END
>  <MODEL>
6

>  <REMARK>
 VINA RESULT:      -6.1      2.361      9.431
  Name = 
  7 active torsions:
  status: ('A' for Active; 'I' for Inactive)
    1  A    between atoms: C_2  and  C_24
    2  A    between atoms: C_6  and  C_7
    3  A    between atoms: C_7  and  N_32
    4  A    between atoms: N_10  and  C_24
    5  A    between atoms: C_16  and  C_27
    6  A    between atoms: C_22  and  N_32
    7  A    between atoms: C_27  and  N_32
                            x       y       z     vdW  Elec       q    Type
                         _______ _______ _______ _____ _____    ______ ____

>  <TORSDO>
F 7

$$$$
=
 OpenBabel11062410483D

 32 36  0  0  1  0  0  0  0  0999 V2000
  161.4370  209.6370  156.1610 C   0  0  1  0  0  3  0  0  0  0  0  0
  161.5740  208.1980  151.2540 C   0  0  0  0  0  0  0  0  0  0  0  0
  160.8310  203.3880  151.4250 C   0  0  0  0  0  3  0  0  0  0  0  0
  161.2020  203.2850  150.0830 C   0  0  0  0  0  3  0  0  0  0  0  0
  160.9270  209.5600  153.2520 C   0  0  1  0  0  3  0  0  0  0  0  0
  160.7590  207.2010  153.4210 C   0  0  0  0  0  2  0  0  0  0  0  0
  160.7740  208.4940  155.3790 C   0  0  0  0  0  2  0  0  0  0  0  0
  160.8360  204.6340  152.0580 C   0  0  0  0  0  3  0  0  0  0  0  0
  161.2180  207.0490  151.9910 C   0  0  0  0  0  0  0  0  0  0  0  0
  161.2090  205.7910  151.3560 C   0  0  0  0  0  0  0  0  0  0  0  0
  161.9510  206.8410  149.2760 C   0  0  0  0  0  0  0  0  0  0  0  0
  162.0360  210.7030  155.2350 C   0  0  0  0  0  2  0  0  0  0  0  0
  161.3460  208.3880  154.0400 N   0  0  2  0  0  0  0  0  0  0  0  0
  161.1950  210.8910  153.9730 C   0  0  0  0  0  2  0  0  0  0  0  0
  161.5740  204.4270  149.3700 C   0  0  0  0  0  3  0  0  0  0  0  0
  161.5830  205.6860  149.9920 C   0  0  0  0  0  0  0  0  0  0  0  0
  161.6440  209.5510  151.9040 C   0  0  0  0  0  2  0  0  0  0  0  0
  161.9510  208.0820  149.9160 C   0  0  0  0  0  3  0  0  0  0  0  0
  160.4330  210.2770  157.1050 C   0  0  0  0  0  2  0  0  0  0  0  0
  158.3390  211.2960  156.1460 C   0  0  0  0  0  0  0  0  0  0  0  0
  159.0900  210.1560  156.5600 N   0  0  0  0  0  2  0  0  0  0  0  0
  157.0250  211.1240  155.6290 N   0  0  0  0  0  1  0  0  0  0  0  0
  158.8270  212.4540  156.2390 O   0  0  0  0  0  0  0  0  0  0  0  0
  162.3880  206.7810  147.8460 C   0  0  0  0  0  2  0  0  0  0  0  0
  161.6550  205.7310  147.1460 N   0  0  0  0  0  0  0  0  0  0  0  0
  162.3320  203.8520  145.6590 C   0  0  1  0  0  3  0  0  0  0  0  0
  161.5820  203.1680  146.6210 O   0  0  0  0  0  1  0  0  0  0  0  0
  162.4050  205.3550  145.9450 C   0  0  2  0  0  3  0  0  0  0  0  0
  163.5610  204.4430  146.3120 C   0  0  0  0  0  2  0  0  0  0  0  0
  160.3270  206.2370  146.7690 C   0  0  0  0  0  2  0  0  0  0  0  0
  160.0810  206.2430  145.2600 C   0  0  0  0  0  2  0  0  0  0  0  0
  159.2150  205.0600  144.8860 C   0  0  0  0  0  1  0  0  0  0  0  0
  1 19  1  1  0  0  0
  2 17  1  0  0  0  0
  2  9  1  0  0  0  0
  3  8  2  0  0  0  0
  4  3  1  0  0  0  0
  5 17  1  6  0  0  0
  5 14  1  0  0  0  0
  5 13  1  0  0  0  0
  7  1  1  0  0  0  0
  9  6  1  0  0  0  0
 10  9  2  0  0  0  0
 10  8  1  0  0  0  0
 11 18  1  0  0  0  0
 11 16  2  0  0  0  0
 12  1  1  0  0  0  0
 13  6  1  6  0  0  0
 13  7  1  0  0  0  0
 14 12  1  0  0  0  0
 15 16  1  0  0  0  0
 15  4  2  0  0  0  0
 16 10  1  0  0  0  0
 18  2  2  0  0  0  0
 20 23  2  0  0  0  0
 20 21  1  0  0  0  0
 21 19  1  0  0  0  0
 22 20  1  0  0  0  0
 24 11  1  0  0  0  0
 25 24  1  0  0  0  0
 26 28  1  0  0  0  0
 26 29  1  0  0  0  0
 26 27  1  1  0  0  0
 28 29  1  0  0  0  0
 28 25  1  1  0  0  0
 30 25  1  0  0  0  0
 31 30  1  0  0  0  0
 32 31  1  0  0  0  0
M  END
>  <MODEL>
7

>  <REMARK>
 VINA RESULT:      -6.0      2.308      8.823
  Name = 
  7 active torsions:
  status: ('A' for Active; 'I' for Inactive)
    1  A    between atoms: C_2  and  C_24
    2  A    between atoms: C_6  and  C_7
    3  A    between atoms: C_7  and  N_32
    4  A    between atoms: N_10  and  C_24
    5  A    between atoms: C_16  and  C_27
    6  A    between atoms: C_22  and  N_32
    7  A    between atoms: C_27  and  N_32
                            x       y       z     vdW  Elec       q    Type
                         _______ _______ _______ _____ _____    ______ ____

>  <TORSDO>
F 7

$$$$
=
 OpenBabel11062410483D

 32 36  0  0  1  0  0  0  0  0999 V2000
  160.4130  208.8340  156.0260 C   0  0  1  0  0  3  0  0  0  0  0  0
  160.8230  206.0660  151.7430 C   0  0  0  0  0  0  0  0  0  0  0  0
  162.1480  209.3190  148.3700 C   0  0  0  0  0  3  0  0  0  0  0  0
  161.8940  208.3800  147.3680 C   0  0  0  0  0  3  0  0  0  0  0  0
  161.1440  206.6710  154.1510 C   0  0  1  0  0  3  0  0  0  0  0  0
  161.5930  208.3360  152.5250 C   0  0  0  0  0  2  0  0  0  0  0  0
  161.2710  208.9730  154.7600 C   0  0  0  0  0  2  0  0  0  0  0  0
  161.9400  208.9840  149.7100 C   0  0  0  0  0  3  0  0  0  0  0  0
  161.2640  207.3650  151.4150 C   0  0  0  0  0  0  0  0  0  0  0  0
  161.4780  207.7070  150.0650 C   0  0  0  0  0  0  0  0  0  0  0  0
  160.7680  205.4660  149.3910 C   0  0  0  0  0  0  0  0  0  0  0  0
  159.7560  207.4530  156.1340 C   0  0  0  0  0  2  0  0  0  0  0  0
  160.8170  208.0440  153.7280 N   0  0  2  0  0  0  0  0  0  0  0  0
  160.6590  206.3540  155.5750 C   0  0  0  0  0  2  0  0  0  0  0  0
  161.4360  207.1050  147.7040 C   0  0  0  0  0  3  0  0  0  0  0  0
  161.2240  206.7530  149.0460 C   0  0  0  0  0  0  0  0  0  0  0  0
  160.5360  205.6760  153.1660 C   0  0  0  0  0  2  0  0  0  0  0  0
  160.5650  205.1390  150.7330 C   0  0  0  0  0  3  0  0  0  0  0  0
  161.2560  209.1040  157.2610 C   0  0  0  0  0  2  0  0  0  0  0  0
  162.9330  210.9430  156.8730 C   0  0  0  0  0  0  0  0  0  0  0  0
  162.5800  209.5610  156.8690 N   0  0  0  0  0  2  0  0  0  0  0  0
  164.2390  211.3370  156.4710 N   0  0  0  0  0  1  0  0  0  0  0  0
  162.0970  211.8170  157.2260 O   0  0  0  0  0  0  0  0  0  0  0  0
  160.4500  204.4350  148.3550 C   0  0  0  0  0  2  0  0  0  0  0  0
  161.6800  203.7990  147.8920 N   0  0  0  0  0  0  0  0  0  0  0  0
  162.7790  204.2320  145.7000 C   0  0  1  0  0  3  0  0  0  0  0  0
  163.6720  204.8640  146.5710 O   0  0  0  0  0  1  0  0  0  0  0  0
  161.5930  203.6070  146.4420 C   0  0  2  0  0  3  0  0  0  0  0  0
  161.4480  204.9470  145.7430 C   0  0  0  0  0  2  0  0  0  0  0  0
  161.8330  202.4990  148.5600 C   0  0  0  0  0  2  0  0  0  0  0  0
  160.5050  201.8600  148.9670 C   0  0  0  0  0  2  0  0  0  0  0  0
  160.6410  201.2490  150.3440 C   0  0  0  0  0  1  0  0  0  0  0  0
  1 12  1  0  0  0  0
  1 19  1  1  0  0  0
  2 17  1  0  0  0  0
  3  8  2  0  0  0  0
  4 15  2  0  0  0  0
  4  3  1  0  0  0  0
  5 17  1  6  0  0  0
  5 14  1  0  0  0  0
  7  1  1  0  0  0  0
  8 10  1  0  0  0  0
  9  2  1  0  0  0  0
  9  6  1  0  0  0  0
 10  9  2  0  0  0  0
 11 18  1  0  0  0  0
 13  6  1  6  0  0  0
 13  5  1  0  0  0  0
 13  7  1  0  0  0  0
 14 12  1  0  0  0  0
 15 16  1  0  0  0  0
 16 11  2  0  0  0  0
 16 10  1  0  0  0  0
 18  2  2  0  0  0  0
 20 23  2  0  0  0  0
 21 20  1  0  0  0  0
 21 19  1  0  0  0  0
 22 20  1  0  0  0  0
 24 11  1  0  0  0  0
 25 24  1  0  0  0  0
 25 30  1  0  0  0  0
 26 29  1  0  0  0  0
 26 28  1  0  0  0  0
 26 27  1  1  0  0  0
 28 25  1  1  0  0  0
 29 28  1  0  0  0  0
 30 31  1  0  0  0  0
 31 32  1  0  0  0  0
M  END
>  <MODEL>
8

>  <REMARK>
 VINA RESULT:      -5.4      3.053      9.176
  Name = 
  7 active torsions:
  status: ('A' for Active; 'I' for Inactive)
    1  A    between atoms: C_2  and  C_24
    2  A    between atoms: C_6  and  C_7
    3  A    between atoms: C_7  and  N_32
    4  A    between atoms: N_10  and  C_24
    5  A    between atoms: C_16  and  C_27
    6  A    between atoms: C_22  and  N_32
    7  A    between atoms: C_27  and  N_32
                            x       y       z     vdW  Elec       q    Type
                         _______ _______ _______ _____ _____    ______ ____

>  <TORSDO>
F 7

$$$$
=
 OpenBabel11062410483D

 32 36  0  0  1  0  0  0  0  0999 V2000
  161.0700  213.1580  146.8310 C   0  0  1  0  0  3  0  0  0  0  0  0
  160.7480  211.3600  151.6100 C   0  0  0  0  0  0  0  0  0  0  0  0
  162.4260  206.8020  151.2610 C   0  0  0  0  0  3  0  0  0  0  0  0
  161.9570  206.5330  152.5470 C   0  0  0  0  0  3  0  0  0  0  0  0
  161.3060  212.9630  149.7700 C   0  0  1  0  0  3  0  0  0  0  0  0
  161.9450  210.6970  149.4920 C   0  0  0  0  0  2  0  0  0  0  0  0
  161.8660  212.1050  147.6170 C   0  0  0  0  0  2  0  0  0  0  0  0
  162.2390  208.0680  150.6990 C   0  0  0  0  0  3  0  0  0  0  0  0
  161.3900  210.3560  150.8550 C   0  0  0  0  0  0  0  0  0  0  0  0
  161.5830  209.0790  151.4180 C   0  0  0  0  0  0  0  0  0  0  0  0
  160.4560  209.8150  153.4600 C   0  0  0  0  0  0  0  0  0  0  0  0
  160.1890  214.0200  147.7430 C   0  0  0  0  0  2  0  0  0  0  0  0
  161.1990  211.7940  148.8790 N   0  0  2  0  0  0  0  0  0  0  0  0
  160.8540  214.2700  149.0970 C   0  0  0  0  0  2  0  0  0  0  0  0
  161.3030  207.5280  153.2760 C   0  0  0  0  0  3  0  0  0  0  0  0
  161.1080  208.8050  152.7260 C   0  0  0  0  0  0  0  0  0  0  0  0
  160.4780  212.7200  151.0300 C   0  0  0  0  0  2  0  0  0  0  0  0
  160.2760  211.0770  152.8920 C   0  0  0  0  0  3  0  0  0  0  0  0
  162.0160  214.0430  146.0370 C   0  0  0  0  0  2  0  0  0  0  0  0
  161.7830  213.1720  143.6860 C   0  0  0  0  0  0  0  0  0  0  0  0
  162.5340  213.3140  144.8900 N   0  0  0  0  0  2  0  0  0  0  0  0
  162.3320  212.4400  142.5960 N   0  0  0  0  0  1  0  0  0  0  0  0
  160.6370  213.6850  143.5790 O   0  0  0  0  0  0  0  0  0  0  0  0
  159.9050  209.5680  154.8290 C   0  0  0  0  0  2  0  0  0  0  0  0
  160.4850  210.5150  155.7760 N   0  0  0  0  0  0  0  0  0  0  0  0
  162.4810  209.9150  157.1380 C   0  0  1  0  0  3  0  0  0  0  0  0
  163.0690  210.7030  156.1440 O   0  0  0  0  0  1  0  0  0  0  0  0
  160.9670  209.7740  156.9450 C   0  0  2  0  0  3  0  0  0  0  0  0
  161.9080  208.6640  156.5110 C   0  0  0  0  0  2  0  0  0  0  0  0
  159.4550  211.4800  156.1860 C   0  0  0  0  0  2  0  0  0  0  0  0
  158.0370  211.0630  155.7980 C   0  0  0  0  0  2  0  0  0  0  0  0
  157.3580  212.2010  155.0680 C   0  0  0  0  0  1  0  0  0  0  0  0
  1 19  1  1  0  0  0
  1  7  1  0  0  0  0
  1 12  1  0  0  0  0
  2 18  1  0  0  0  0
  3  4  1  0  0  0  0
  4 15  2  0  0  0  0
  5 14  1  6  0  0  0
  5 17  1  0  0  0  0
  6  9  1  0  0  0  0
  8  3  2  0  0  0  0
  8 10  1  0  0  0  0
  9 10  1  0  0  0  0
  9  2  2  0  0  0  0
 10 16  2  0  0  0  0
 11 24  1  0  0  0  0
 12 14  1  0  0  0  0
 13  7  1  6  0  0  0
 13  6  1  0  0  0  0
 13  5  1  0  0  0  0
 16 15  1  0  0  0  0
 16 11  1  0  0  0  0
 17  2  1  0  0  0  0
 18 11  2  0  0  0  0
 20 21  1  0  0  0  0
 21 19  1  0  0  0  0
 22 20  1  0  0  0  0
 23 20  2  0  0  0  0
 24 25  1  0  0  0  0
 25 30  1  0  0  0  0
 26 27  1  6  0  0  0
 28 25  1  6  0  0  0
 28 26  1  0  0  0  0
 29 28  1  0  0  0  0
 29 26  1  0  0  0  0
 31 30  1  0  0  0  0
 32 31  1  0  0  0  0
M  END
>  <MODEL>
9

>  <REMARK>
 VINA RESULT:      -5.4      4.181      6.398
  Name = 
  7 active torsions:
  status: ('A' for Active; 'I' for Inactive)
    1  A    between atoms: C_2  and  C_24
    2  A    between atoms: C_6  and  C_7
    3  A    between atoms: C_7  and  N_32
    4  A    between atoms: N_10  and  C_24
    5  A    between atoms: C_16  and  C_27
    6  A    between atoms: C_22  and  N_32
    7  A    between atoms: C_27  and  N_32
                            x       y       z     vdW  Elec       q    Type
                         _______ _______ _______ _____ _____    ______ ____

>  <TORSDO>
F 7

$$$$
