=
 OpenBabel11052423143D

 27 30  0  0  1  0  0  0  0  0999 V2000
  161.2130  210.8130  151.5670 C   0  0  0  0  0  0  0  0  0  0  0  0
  159.3700  211.0500  155.4370 C   0  0  0  0  0  2  0  0  0  0  0  0
  160.2350  211.8970  156.3250 C   0  0  0  0  0  3  0  0  0  0  0  0
  160.4030  211.7680  151.9210 N   0  0  0  0  0  0  0  0  0  0  0  0
  162.3850  210.3980  154.6060 C   0  0  0  0  0  2  0  0  0  0  0  0
  162.2220  210.3730  156.1240 C   0  0  0  0  0  2  0  0  0  0  0  0
  161.1130  209.9110  153.9180 C   0  0  1  0  0  3  0  0  0  0  0  0
  161.8710  210.8350  150.2920 N   0  0  0  0  0  2  0  0  0  0  0  0
  161.5070  211.5960  156.6300 C   0  0  0  0  0  3  0  0  0  0  0  0
  159.9980  210.9060  154.0910 C   0  0  0  0  0  0  0  0  0  0  0  0
  161.3820  209.6020  152.4440 C   0  0  1  0  0  3  0  0  0  0  0  0
  159.7400  211.7780  153.1630 N   0  0  0  0  0  0  0  0  0  0  0  0
  161.8220  213.8730  147.3360 C   0  0  0  0  0  3  0  0  0  0  0  0
  161.8300  211.8720  149.3030 C   0  0  0  0  0  0  0  0  0  0  0  0
  160.8720  212.8990  149.3380 C   0  0  0  0  0  3  0  0  0  0  0  0
  160.8690  213.8950  148.3570 C   0  0  0  0  0  3  0  0  0  0  0  0
  162.7800  212.8550  147.2960 C   0  0  0  0  0  3  0  0  0  0  0  0
  162.7820  211.8600  148.2780 C   0  0  0  0  0  3  0  0  0  0  0  0
  160.4840  208.5440  152.0000 N   0  0  0  0  0  2  0  0  0  0  0  0
  160.9670  206.7340  154.5750 Cl  0  0  0  0  0  0  0  0  0  0  0  0
  161.2570  205.3540  150.2650 C   0  0  0  0  0  0  0  0  0  0  0  0
  161.3270  204.8410  148.8730 C   0  0  0  0  0  1  0  0  0  0  0  0
  161.1250  206.2800  152.8840 C   0  0  0  0  0  0  0  0  0  0  0  0
  160.9000  206.6790  150.5100 C   0  0  0  0  0  3  0  0  0  0  0  0
  161.5460  204.5170  151.3400 C   0  0  0  0  0  3  0  0  0  0  0  0
  161.4690  204.9910  152.6100 N   0  0  0  0  0  0  0  0  0  0  0  0
  160.8440  207.1680  151.8170 C   0  0  0  0  0  0  0  0  0  0  0  0
  1  4  2  0  0  0  0
  1 11  1  0  0  0  0
  2  3  1  0  0  0  0
  3  9  2  0  0  0  0
  4 12  1  0  0  0  0
  5  6  1  0  0  0  0
  6  9  1  0  0  0  0
  7 10  1  0  0  0  0
  7  5  1  6  0  0  0
  8  1  1  0  0  0  0
 10  2  1  0  0  0  0
 11 19  1  6  0  0  0
 11  7  1  0  0  0  0
 12 10  2  0  0  0  0
 13 16  1  0  0  0  0
 14 15  1  0  0  0  0
 14  8  1  0  0  0  0
 16 15  2  0  0  0  0
 17 13  2  0  0  0  0
 17 18  1  0  0  0  0
 18 14  2  0  0  0  0
 21 24  2  0  0  0  0
 21 25  1  0  0  0  0
 22 21  1  0  0  0  0
 23 20  1  0  0  0  0
 24 27  1  0  0  0  0
 25 26  2  0  0  0  0
 26 23  1  0  0  0  0
 27 19  1  0  0  0  0
 27 23  2  0  0  0  0
M  END
>  <MODEL>
1

>  <REMARK>
 VINA RESULT:      -7.1      0.000      0.000
  Name = 
  3 active torsions:
  status: ('A' for Active; 'I' for Inactive)
    1  A    between atoms: N_3  and  C_19
    2  A    between atoms: N_3  and  C_26
    3  A    between atoms: C_9  and  N_15
                            x       y       z     vdW  Elec       q    Type
                         _______ _______ _______ _____ _____    ______ ____

>  <TORSDO>
F 3

$$$$
=
 OpenBabel11052423143D

 27 30  0  0  1  0  0  0  0  0999 V2000
  160.1410  210.5900  153.0410 C   0  0  0  0  0  0  0  0  0  0  0  0
  159.7630  213.3750  156.2850 C   0  0  0  0  0  2  0  0  0  0  0  0
  158.7550  212.8370  157.2600 C   0  0  0  0  0  3  0  0  0  0  0  0
  160.8290  210.5090  154.1420 N   0  0  0  0  0  0  0  0  0  0  0  0
  157.5310  211.9190  154.5250 C   0  0  0  0  0  2  0  0  0  0  0  0
  156.8900  212.8200  155.5770 C   0  0  0  0  0  2  0  0  0  0  0  0
  158.8490  212.5110  154.0360 C   0  0  1  0  0  3  0  0  0  0  0  0
  160.2430  209.5780  152.0290 N   0  0  0  0  0  2  0  0  0  0  0  0
  157.4750  212.5890  156.9430 C   0  0  0  0  0  3  0  0  0  0  0  0
  159.8930  212.4560  155.1170 C   0  0  0  0  0  0  0  0  0  0  0  0
  159.3120  211.8130  152.7550 C   0  0  1  0  0  3  0  0  0  0  0  0
  160.7550  211.4840  155.1550 N   0  0  0  0  0  0  0  0  0  0  0  0
  162.4740  205.9750  152.1210 C   0  0  0  0  0  3  0  0  0  0  0  0
  160.9870  208.3540  152.0860 C   0  0  0  0  0  0  0  0  0  0  0  0
  160.8160  207.4240  153.1240 C   0  0  0  0  0  3  0  0  0  0  0  0
  161.5580  206.2400  153.1410 C   0  0  0  0  0  3  0  0  0  0  0  0
  162.6490  206.8950  151.0820 C   0  0  0  0  0  3  0  0  0  0  0  0
  161.9060  208.0790  151.0670 C   0  0  0  0  0  3  0  0  0  0  0  0
  160.0790  212.7490  151.9450 N   0  0  0  0  0  2  0  0  0  0  0  0
  157.3640  214.2450  151.2160 Cl  0  0  0  0  0  0  0  0  0  0  0  0
  160.6040  213.0430  148.2810 C   0  0  0  0  0  0  0  0  0  0  0  0
  161.6510  212.7060  147.2830 C   0  0  0  0  0  1  0  0  0  0  0  0
  158.6270  213.6960  150.1250 C   0  0  0  0  0  0  0  0  0  0  0  0
  160.8040  212.7670  149.6320 C   0  0  0  0  0  3  0  0  0  0  0  0
  159.4120  213.6390  147.8770 C   0  0  0  0  0  3  0  0  0  0  0  0
  158.4630  213.9530  148.7970 N   0  0  0  0  0  0  0  0  0  0  0  0
  159.8170  213.0720  150.5720 C   0  0  0  0  0  0  0  0  0  0  0  0
  1  4  2  0  0  0  0
  2  3  1  0  0  0  0
  4 12  1  0  0  0  0
  5  6  1  0  0  0  0
  6  9  1  0  0  0  0
  7  5  1  1  0  0  0
  7 10  1  0  0  0  0
  8 14  1  0  0  0  0
  8  1  1  0  0  0  0
  9  3  2  0  0  0  0
 10 12  2  0  0  0  0
 10  2  1  0  0  0  0
 11 19  1  6  0  0  0
 11  1  1  0  0  0  0
 11  7  1  0  0  0  0
 13 16  1  0  0  0  0
 14 15  1  0  0  0  0
 15 16  2  0  0  0  0
 17 13  2  0  0  0  0
 18 17  1  0  0  0  0
 18 14  2  0  0  0  0
 21 24  1  0  0  0  0
 22 21  1  0  0  0  0
 23 27  1  0  0  0  0
 23 20  1  0  0  0  0
 24 27  2  0  0  0  0
 25 21  2  0  0  0  0
 25 26  1  0  0  0  0
 26 23  2  0  0  0  0
 27 19  1  0  0  0  0
M  END
>  <MODEL>
2

>  <REMARK>
 VINA RESULT:      -6.6      2.620      6.131
  Name = 
  3 active torsions:
  status: ('A' for Active; 'I' for Inactive)
    1  A    between atoms: N_3  and  C_19
    2  A    between atoms: N_3  and  C_26
    3  A    between atoms: C_9  and  N_15
                            x       y       z     vdW  Elec       q    Type
                         _______ _______ _______ _____ _____    ______ ____

>  <TORSDO>
F 3

$$$$
=
 OpenBabel11052423143D

 27 30  0  0  1  0  0  0  0  0999 V2000
  160.9170  208.1850  152.2610 C   0  0  0  0  0  0  0  0  0  0  0  0
  161.5490  210.6610  155.7100 C   0  0  0  0  0  2  0  0  0  0  0  0
  160.3600  210.5250  156.6180 C   0  0  0  0  0  3  0  0  0  0  0  0
  161.4540  207.7560  153.3650 N   0  0  0  0  0  0  0  0  0  0  0  0
  159.0090  210.3740  153.7930 C   0  0  0  0  0  2  0  0  0  0  0  0
  158.7410  211.3890  154.9020 C   0  0  0  0  0  2  0  0  0  0  0  0
  160.4780  210.4000  153.3810 C   0  0  1  0  0  3  0  0  0  0  0  0
  160.6470  207.2890  151.1720 N   0  0  0  0  0  2  0  0  0  0  0  0
  159.1090  210.8480  156.2570 C   0  0  0  0  0  3  0  0  0  0  0  0
  161.3500  209.8480  154.4750 C   0  0  0  0  0  0  0  0  0  0  0  0
  160.6790  209.6570  152.0570 C   0  0  1  0  0  3  0  0  0  0  0  0
  161.7340  208.6060  154.4520 N   0  0  0  0  0  0  0  0  0  0  0  0
  161.1390  203.0820  151.0110 C   0  0  0  0  0  3  0  0  0  0  0  0
  160.8190  205.8670  151.1460 C   0  0  0  0  0  0  0  0  0  0  0  0
  160.9940  205.1140  152.3180 C   0  0  0  0  0  3  0  0  0  0  0  0
  161.1540  203.7270  152.2500 C   0  0  0  0  0  3  0  0  0  0  0  0
  160.9640  203.8250  149.8390 C   0  0  0  0  0  3  0  0  0  0  0  0
  160.8040  205.2120  149.9090 C   0  0  0  0  0  3  0  0  0  0  0  0
  161.8030  210.2440  151.3400 N   0  0  0  0  0  2  0  0  0  0  0  0
  162.3550  208.6320  148.6510 Cl  0  0  0  0  0  0  0  0  0  0  0  0
  161.2550  213.0220  148.9390 C   0  0  0  0  0  0  0  0  0  0  0  0
  160.8590  214.4530  148.9740 C   0  0  0  0  0  1  0  0  0  0  0  0
  161.9880  210.3410  148.8360 C   0  0  0  0  0  0  0  0  0  0  0  0
  161.3390  212.2850  150.1180 C   0  0  0  0  0  3  0  0  0  0  0  0
  161.5450  212.4010  147.7260 C   0  0  0  0  0  3  0  0  0  0  0  0
  161.8960  211.0890  147.7020 N   0  0  0  0  0  0  0  0  0  0  0  0
  161.7210  210.9420  150.0910 C   0  0  0  0  0  0  0  0  0  0  0  0
  1  4  2  0  0  0  0
  2  3  1  0  0  0  0
  4 12  1  0  0  0  0
  5  6  1  0  0  0  0
  6  9  1  0  0  0  0
  7  5  1  1  0  0  0
  7 10  1  0  0  0  0
  8  1  1  0  0  0  0
  9  3  2  0  0  0  0
 10  2  1  0  0  0  0
 11 19  1  1  0  0  0
 11  1  1  0  0  0  0
 11  7  1  0  0  0  0
 12 10  2  0  0  0  0
 13 16  1  0  0  0  0
 14  8  1  0  0  0  0
 14 15  1  0  0  0  0
 16 15  2  0  0  0  0
 17 18  1  0  0  0  0
 17 13  2  0  0  0  0
 18 14  2  0  0  0  0
 20 23  1  0  0  0  0
 21 22  1  0  0  0  0
 21 24  1  0  0  0  0
 23 27  1  0  0  0  0
 25 21  2  0  0  0  0
 26 25  1  0  0  0  0
 26 23  2  0  0  0  0
 27 24  2  0  0  0  0
 27 19  1  0  0  0  0
M  END
>  <MODEL>
3

>  <REMARK>
 VINA RESULT:      -6.6      1.860      6.153
  Name = 
  3 active torsions:
  status: ('A' for Active; 'I' for Inactive)
    1  A    between atoms: N_3  and  C_19
    2  A    between atoms: N_3  and  C_26
    3  A    between atoms: C_9  and  N_15
                            x       y       z     vdW  Elec       q    Type
                         _______ _______ _______ _____ _____    ______ ____

>  <TORSDO>
F 3

$$$$
=
 OpenBabel11052423143D

 27 30  0  0  1  0  0  0  0  0999 V2000
  160.0260  210.5750  153.0290 C   0  0  0  0  0  0  0  0  0  0  0  0
  159.8180  213.5230  156.1410 C   0  0  0  0  0  2  0  0  0  0  0  0
  158.9800  212.9760  157.2600 C   0  0  0  0  0  3  0  0  0  0  0  0
  160.8450  210.6130  154.0380 N   0  0  0  0  0  0  0  0  0  0  0  0
  157.5150  211.8010  154.7510 C   0  0  0  0  0  2  0  0  0  0  0  0
  156.9340  212.7190  155.8250 C   0  0  0  0  0  2  0  0  0  0  0  0
  158.7130  212.4560  154.0720 C   0  0  1  0  0  3  0  0  0  0  0  0
  160.0860  209.5110  152.0670 N   0  0  0  0  0  2  0  0  0  0  0  0
  157.6950  212.6160  157.1190 C   0  0  0  0  0  3  0  0  0  0  0  0
  159.8800  212.5440  155.0170 C   0  0  0  0  0  0  0  0  0  0  0  0
  159.0740  211.7140  152.7830 C   0  0  1  0  0  3  0  0  0  0  0  0
  160.8150  211.6420  154.9990 N   0  0  0  0  0  0  0  0  0  0  0  0
  162.5450  206.0620  152.2320 C   0  0  0  0  0  3  0  0  0  0  0  0
  160.9270  208.3500  152.0960 C   0  0  0  0  0  0  0  0  0  0  0  0
  161.8570  208.0760  151.0810 C   0  0  0  0  0  3  0  0  0  0  0  0
  162.6620  206.9350  151.1490 C   0  0  0  0  0  3  0  0  0  0  0  0
  161.6220  206.3290  153.2480 C   0  0  0  0  0  3  0  0  0  0  0  0
  160.8180  207.4710  153.1790 C   0  0  0  0  0  3  0  0  0  0  0  0
  159.6610  212.6510  151.8350 N   0  0  0  0  0  2  0  0  0  0  0  0
  161.3270  213.2540  149.1890 Cl  0  0  0  0  0  0  0  0  0  0  0  0
  156.8980  214.0320  149.7750 C   0  0  0  0  0  0  0  0  0  0  0  0
  155.4380  214.2710  149.9000 C   0  0  0  0  0  1  0  0  0  0  0  0
  159.6300  213.5880  149.5030 C   0  0  0  0  0  0  0  0  0  0  0  0
  157.6100  213.4530  150.8240 C   0  0  0  0  0  3  0  0  0  0  0  0
  157.5720  214.3820  148.6070 C   0  0  0  0  0  3  0  0  0  0  0  0
  158.9050  214.1510  148.4970 N   0  0  0  0  0  0  0  0  0  0  0  0
  158.9850  213.2360  150.7140 C   0  0  0  0  0  0  0  0  0  0  0  0
  1  4  2  0  0  0  0
  2  3  1  0  0  0  0
  4 12  1  0  0  0  0
  5  6  1  0  0  0  0
  6  9  1  0  0  0  0
  7  5  1  1  0  0  0
  7 10  1  0  0  0  0
  8 14  1  0  0  0  0
  8  1  1  0  0  0  0
  9  3  2  0  0  0  0
 10  2  1  0  0  0  0
 11 19  1  6  0  0  0
 11  1  1  0  0  0  0
 11  7  1  0  0  0  0
 12 10  2  0  0  0  0
 13 17  1  0  0  0  0
 14 18  1  0  0  0  0
 15 16  1  0  0  0  0
 15 14  2  0  0  0  0
 16 13  2  0  0  0  0
 18 17  2  0  0  0  0
 20 23  1  0  0  0  0
 21 22  1  0  0  0  0
 21 24  1  0  0  0  0
 23 27  1  0  0  0  0
 25 21  2  0  0  0  0
 26 25  1  0  0  0  0
 26 23  2  0  0  0  0
 27 24  2  0  0  0  0
 27 19  1  0  0  0  0
M  END
>  <MODEL>
4

>  <REMARK>
 VINA RESULT:      -6.5      2.936      6.541
  Name = 
  3 active torsions:
  status: ('A' for Active; 'I' for Inactive)
    1  A    between atoms: N_3  and  C_19
    2  A    between atoms: N_3  and  C_26
    3  A    between atoms: C_9  and  N_15
                            x       y       z     vdW  Elec       q    Type
                         _______ _______ _______ _____ _____    ______ ____

>  <TORSDO>
F 3

$$$$
=
 OpenBabel11052423143D

 27 30  0  0  1  0  0  0  0  0999 V2000
  161.2560  210.6510  151.3820 C   0  0  0  0  0  0  0  0  0  0  0  0
  159.3080  210.6890  155.2060 C   0  0  0  0  0  2  0  0  0  0  0  0
  160.1640  211.4590  156.1690 C   0  0  0  0  0  3  0  0  0  0  0  0
  160.4560  211.6000  151.7720 N   0  0  0  0  0  0  0  0  0  0  0  0
  162.3310  210.0220  154.4190 C   0  0  0  0  0  2  0  0  0  0  0  0
  162.1240  209.9060  155.9280 C   0  0  0  0  0  2  0  0  0  0  0  0
  161.0700  209.6070  153.6680 C   0  0  1  0  0  3  0  0  0  0  0  0
  161.9510  210.7370  150.1290 N   0  0  0  0  0  2  0  0  0  0  0  0
  161.4200  211.1110  156.4900 C   0  0  0  0  0  3  0  0  0  0  0  0
  159.9710  210.6140  153.8720 C   0  0  0  0  0  0  0  0  0  0  0  0
  161.3750  209.3840  152.1850 C   0  0  1  0  0  3  0  0  0  0  0  0
  159.7580  211.5480  152.9940 N   0  0  0  0  0  0  0  0  0  0  0  0
  161.9040  214.0080  147.4330 C   0  0  0  0  0  3  0  0  0  0  0  0
  161.9600  211.8340  149.2060 C   0  0  0  0  0  0  0  0  0  0  0  0
  162.9020  211.9300  148.1700 C   0  0  0  0  0  3  0  0  0  0  0  0
  162.8750  213.0130  147.2870 C   0  0  0  0  0  3  0  0  0  0  0  0
  160.9610  213.9180  148.4610 C   0  0  0  0  0  3  0  0  0  0  0  0
  160.9900  212.8330  149.3430 C   0  0  0  0  0  3  0  0  0  0  0  0
  160.4690  208.3760  151.6520 N   0  0  0  0  0  2  0  0  0  0  0  0
  161.4870  208.2540  148.6380 Cl  0  0  0  0  0  0  0  0  0  0  0  0
  161.1860  204.7370  151.4830 C   0  0  0  0  0  0  0  0  0  0  0  0
  161.1430  203.5580  152.3860 C   0  0  0  0  0  1  0  0  0  0  0  0
  161.2860  206.9250  149.7700 C   0  0  0  0  0  0  0  0  0  0  0  0
  160.8310  205.9990  151.9560 C   0  0  0  0  0  3  0  0  0  0  0  0
  161.5810  204.5940  150.1550 C   0  0  0  0  0  3  0  0  0  0  0  0
  161.6270  205.6790  149.3390 N   0  0  0  0  0  0  0  0  0  0  0  0
  160.8590  207.1080  151.1080 C   0  0  0  0  0  0  0  0  0  0  0  0
  1  4  2  0  0  0  0
  1 11  1  0  0  0  0
  2  3  1  0  0  0  0
  3  9  2  0  0  0  0
  4 12  1  0  0  0  0
  5  6  1  0  0  0  0
  6  9  1  0  0  0  0
  7 10  1  0  0  0  0
  7  5  1  1  0  0  0
  8  1  1  0  0  0  0
 10  2  1  0  0  0  0
 11 19  1  6  0  0  0
 11  7  1  0  0  0  0
 12 10  2  0  0  0  0
 13 17  1  0  0  0  0
 14 18  1  0  0  0  0
 14  8  1  0  0  0  0
 15 14  2  0  0  0  0
 16 13  2  0  0  0  0
 16 15  1  0  0  0  0
 17 18  2  0  0  0  0
 20 23  1  0  0  0  0
 21 24  1  0  0  0  0
 21 22  1  0  0  0  0
 23 27  1  0  0  0  0
 25 21  2  0  0  0  0
 26 23  2  0  0  0  0
 26 25  1  0  0  0  0
 27 19  1  0  0  0  0
 27 24  2  0  0  0  0
M  END
>  <MODEL>
5

>  <REMARK>
 VINA RESULT:      -6.1      1.446      1.972
  Name = 
  3 active torsions:
  status: ('A' for Active; 'I' for Inactive)
    1  A    between atoms: N_3  and  C_19
    2  A    between atoms: N_3  and  C_26
    3  A    between atoms: C_9  and  N_15
                            x       y       z     vdW  Elec       q    Type
                         _______ _______ _______ _____ _____    ______ ____

>  <TORSDO>
F 3

$$$$
=
 OpenBabel11052423143D

 27 30  0  0  1  0  0  0  0  0999 V2000
  161.5830  208.7960  150.0880 C   0  0  0  0  0  0  0  0  0  0  0  0
  162.5750  210.3280  153.9730 C   0  0  0  0  0  2  0  0  0  0  0  0
  161.5400  209.8520  154.9520 C   0  0  0  0  0  3  0  0  0  0  0  0
  162.2970  208.1430  150.9580 N   0  0  0  0  0  0  0  0  0  0  0  0
  159.8030  210.3230  152.3860 C   0  0  0  0  0  2  0  0  0  0  0  0
  159.6440  210.9840  153.7530 C   0  0  0  0  0  2  0  0  0  0  0  0
  161.1920  210.5900  151.8150 C   0  0  1  0  0  3  0  0  0  0  0  0
  161.2060  208.1960  148.8410 N   0  0  0  0  0  2  0  0  0  0  0  0
  160.2330  210.1430  154.8520 C   0  0  0  0  0  3  0  0  0  0  0  0
  162.2420  209.8530  152.5990 C   0  0  0  0  0  0  0  0  0  0  0  0
  161.2380  210.2420  150.3250 C   0  0  1  0  0  3  0  0  0  0  0  0
  162.6860  208.7010  152.1910 N   0  0  0  0  0  0  0  0  0  0  0  0
  161.9600  204.2500  147.4860 C   0  0  0  0  0  3  0  0  0  0  0  0
  161.4490  206.8510  148.4060 C   0  0  0  0  0  0  0  0  0  0  0  0
  160.9500  205.7400  149.1040 C   0  0  0  0  0  3  0  0  0  0  0  0
  161.2060  204.4450  148.6460 C   0  0  0  0  0  3  0  0  0  0  0  0
  162.4580  205.3530  146.7840 C   0  0  0  0  0  3  0  0  0  0  0  0
  162.2020  206.6480  147.2450 C   0  0  0  0  0  3  0  0  0  0  0  0
  162.2120  211.0950  149.6590 N   0  0  0  0  0  2  0  0  0  0  0  0
  160.1100  213.3130  150.5540 Cl  0  0  0  0  0  0  0  0  0  0  0  0
  162.3310  213.2000  146.6030 C   0  0  0  0  0  0  0  0  0  0  0  0
  163.0610  213.2310  145.3090 C   0  0  0  0  0  1  0  0  0  0  0  0
  160.9550  213.1750  149.0190 C   0  0  0  0  0  0  0  0  0  0  0  0
  162.5960  212.1990  147.5360 C   0  0  0  0  0  3  0  0  0  0  0  0
  161.3760  214.1700  146.8970 C   0  0  0  0  0  3  0  0  0  0  0  0
  160.7210  214.1390  148.0860 N   0  0  0  0  0  0  0  0  0  0  0  0
  161.9040  212.1590  148.7490 C   0  0  0  0  0  0  0  0  0  0  0  0
  1 11  1  0  0  0  0
  1  4  2  0  0  0  0
  2  3  1  0  0  0  0
  4 12  1  0  0  0  0
  5  6  1  0  0  0  0
  6  9  1  0  0  0  0
  7  5  1  1  0  0  0
  7 10  1  0  0  0  0
  8  1  1  0  0  0  0
  9  3  2  0  0  0  0
 10  2  1  0  0  0  0
 11 19  1  6  0  0  0
 11  7  1  0  0  0  0
 12 10  2  0  0  0  0
 13 16  1  0  0  0  0
 14  8  1  0  0  0  0
 14 15  1  0  0  0  0
 16 15  2  0  0  0  0
 17 18  1  0  0  0  0
 17 13  2  0  0  0  0
 18 14  2  0  0  0  0
 21 25  2  0  0  0  0
 21 24  1  0  0  0  0
 22 21  1  0  0  0  0
 23 20  1  0  0  0  0
 24 27  2  0  0  0  0
 25 26  1  0  0  0  0
 26 23  2  0  0  0  0
 27 23  1  0  0  0  0
 27 19  1  0  0  0  0
M  END
>  <MODEL>
6

>  <REMARK>
 VINA RESULT:      -5.9      2.430      6.274
  Name = 
  3 active torsions:
  status: ('A' for Active; 'I' for Inactive)
    1  A    between atoms: N_3  and  C_19
    2  A    between atoms: N_3  and  C_26
    3  A    between atoms: C_9  and  N_15
                            x       y       z     vdW  Elec       q    Type
                         _______ _______ _______ _____ _____    ______ ____

>  <TORSDO>
F 3

$$$$
=
 OpenBabel11052423143D

 27 30  0  0  1  0  0  0  0  0999 V2000
  160.4170  209.7590  152.9380 C   0  0  0  0  0  0  0  0  0  0  0  0
  160.4540  212.3850  156.3330 C   0  0  0  0  0  2  0  0  0  0  0  0
  159.3440  211.9790  157.2600 C   0  0  0  0  0  3  0  0  0  0  0  0
  161.0540  209.4980  154.0420 N   0  0  0  0  0  0  0  0  0  0  0  0
  158.0440  211.4420  154.4590 C   0  0  0  0  0  2  0  0  0  0  0  0
  157.5450  212.3840  155.5530 C   0  0  0  0  0  2  0  0  0  0  0  0
  159.4570  211.8200  154.0250 C   0  0  1  0  0  3  0  0  0  0  0  0
  160.3650  208.8020  151.8700 N   0  0  0  0  0  2  0  0  0  0  0  0
  158.0480  211.9780  156.9120 C   0  0  0  0  0  3  0  0  0  0  0  0
  160.4490  211.5220  155.1160 C   0  0  0  0  0  0  0  0  0  0  0  0
  159.8220  211.1220  152.7120 C   0  0  1  0  0  3  0  0  0  0  0  0
  161.1260  210.4130  155.1090 N   0  0  0  0  0  0  0  0  0  0  0  0
  161.8820  204.8450  151.7740 C   0  0  0  0  0  3  0  0  0  0  0  0
  160.8820  207.4650  151.8660 C   0  0  0  0  0  0  0  0  0  0  0  0
  161.1690  206.7720  153.0530 C   0  0  0  0  0  3  0  0  0  0  0  0
  161.6680  205.4670  153.0060 C   0  0  0  0  0  3  0  0  0  0  0  0
  161.5970  205.5280  150.5880 C   0  0  0  0  0  3  0  0  0  0  0  0
  161.0980  206.8330  150.6360 C   0  0  0  0  0  3  0  0  0  0  0  0
  160.7600  211.9520  151.9690 N   0  0  0  0  0  2  0  0  0  0  0  0
  158.7890  214.4470  152.1350 Cl  0  0  0  0  0  0  0  0  0  0  0  0
  160.8490  212.9350  148.3890 C   0  0  0  0  0  0  0  0  0  0  0  0
  161.5280  212.5050  147.1400 C   0  0  0  0  0  1  0  0  0  0  0  0
  159.5670  213.7730  150.7110 C   0  0  0  0  0  0  0  0  0  0  0  0
  161.1070  212.2810  149.5920 C   0  0  0  0  0  3  0  0  0  0  0  0
  159.9480  213.9970  148.3710 C   0  0  0  0  0  3  0  0  0  0  0  0
  159.3380  214.3910  149.5190 N   0  0  0  0  0  0  0  0  0  0  0  0
  160.4610  212.6750  150.7670 C   0  0  0  0  0  0  0  0  0  0  0  0
  1  4  2  0  0  0  0
  2  3  1  0  0  0  0
  4 12  1  0  0  0  0
  5  6  1  0  0  0  0
  6  9  1  0  0  0  0
  7  5  1  1  0  0  0
  7 10  1  0  0  0  0
  8  1  1  0  0  0  0
  9  3  2  0  0  0  0
 10  2  1  0  0  0  0
 11 19  1  1  0  0  0
 11  1  1  0  0  0  0
 11  7  1  0  0  0  0
 12 10  2  0  0  0  0
 13 16  1  0  0  0  0
 14  8  1  0  0  0  0
 14 15  1  0  0  0  0
 16 15  2  0  0  0  0
 17 18  1  0  0  0  0
 17 13  2  0  0  0  0
 18 14  2  0  0  0  0
 21 24  1  0  0  0  0
 22 21  1  0  0  0  0
 23 27  1  0  0  0  0
 23 20  1  0  0  0  0
 24 27  2  0  0  0  0
 25 21  2  0  0  0  0
 25 26  1  0  0  0  0
 26 23  2  0  0  0  0
 27 19  1  0  0  0  0
M  END
>  <MODEL>
7

>  <REMARK>
 VINA RESULT:      -5.8      2.198      6.131
  Name = 
  3 active torsions:
  status: ('A' for Active; 'I' for Inactive)
    1  A    between atoms: N_3  and  C_19
    2  A    between atoms: N_3  and  C_26
    3  A    between atoms: C_9  and  N_15
                            x       y       z     vdW  Elec       q    Type
                         _______ _______ _______ _____ _____    ______ ____

>  <TORSDO>
F 3

$$$$
=
 OpenBabel11052423143D

 27 30  0  0  1  0  0  0  0  0999 V2000
  161.6310  212.0260  147.8330 C   0  0  0  0  0  0  0  0  0  0  0  0
  160.0910  213.3610  144.0550 C   0  0  0  0  0  2  0  0  0  0  0  0
  160.9380  212.7760  142.9620 C   0  0  0  0  0  3  0  0  0  0  0  0
  160.7640  211.3550  147.1320 N   0  0  0  0  0  0  0  0  0  0  0  0
  163.0780  213.3220  145.1860 C   0  0  0  0  0  2  0  0  0  0  0  0
  163.0420  213.8890  143.7680 C   0  0  0  0  0  2  0  0  0  0  0  0
  161.8090  213.6890  145.9480 C   0  0  1  0  0  3  0  0  0  0  0  0
  162.1790  211.4870  149.0440 N   0  0  0  0  0  2  0  0  0  0  0  0
  162.2540  213.0110  142.8350 C   0  0  0  0  0  3  0  0  0  0  0  0
  160.6200  212.9560  145.3900 C   0  0  0  0  0  0  0  0  0  0  0  0
  161.9870  213.4360  147.4470 C   0  0  1  0  0  3  0  0  0  0  0  0
  160.2050  211.8540  145.9400 N   0  0  0  0  0  0  0  0  0  0  0  0
  161.5290  207.6700  150.7720 C   0  0  0  0  0  3  0  0  0  0  0  0
  161.9580  210.1850  149.6020 C   0  0  0  0  0  0  0  0  0  0  0  0
  161.9580  209.0240  148.8120 C   0  0  0  0  0  3  0  0  0  0  0  0
  161.7430  207.7720  149.3950 C   0  0  0  0  0  3  0  0  0  0  0  0
  161.5300  208.8210  151.5650 C   0  0  0  0  0  3  0  0  0  0  0  0
  161.7460  210.0730  150.9810 C   0  0  0  0  0  3  0  0  0  0  0  0
  161.1640  214.3750  148.1970 N   0  0  0  0  0  2  0  0  0  0  0  0
  158.2040  214.4470  147.0250 Cl  0  0  0  0  0  0  0  0  0  0  0  0
  159.3620  213.2610  151.2460 C   0  0  0  0  0  0  0  0  0  0  0  0
  159.6890  212.8270  152.6280 C   0  0  0  0  0  1  0  0  0  0  0  0
  158.7140  214.0600  148.6620 C   0  0  0  0  0  0  0  0  0  0  0  0
  160.3780  213.6030  150.3560 C   0  0  0  0  0  3  0  0  0  0  0  0
  158.0360  213.3300  150.8250 C   0  0  0  0  0  3  0  0  0  0  0  0
  157.7450  213.7180  149.5560 N   0  0  0  0  0  0  0  0  0  0  0  0
  160.0730  214.0230  149.0590 C   0  0  0  0  0  0  0  0  0  0  0  0
  1  8  1  0  0  0  0
  2 10  1  0  0  0  0
  3  2  1  0  0  0  0
  4  1  2  0  0  0  0
  6  5  1  0  0  0  0
  7  5  1  6  0  0  0
  7 11  1  0  0  0  0
  8 14  1  0  0  0  0
  9  3  2  0  0  0  0
  9  6  1  0  0  0  0
 10 12  2  0  0  0  0
 10  7  1  0  0  0  0
 11  1  1  0  0  0  0
 11 19  1  1  0  0  0
 12  4  1  0  0  0  0
 13 17  1  0  0  0  0
 14 18  1  0  0  0  0
 15 16  1  0  0  0  0
 15 14  2  0  0  0  0
 16 13  2  0  0  0  0
 18 17  2  0  0  0  0
 19 27  1  0  0  0  0
 20 23  1  0  0  0  0
 21 22  1  0  0  0  0
 23 27  2  0  0  0  0
 23 26  1  0  0  0  0
 24 21  2  0  0  0  0
 25 21  1  0  0  0  0
 26 25  2  0  0  0  0
 27 24  1  0  0  0  0
M  END
>  <MODEL>
8

>  <REMARK>
 VINA RESULT:      -5.8      3.728      8.429
  Name = 
  3 active torsions:
  status: ('A' for Active; 'I' for Inactive)
    1  A    between atoms: N_3  and  C_19
    2  A    between atoms: N_3  and  C_26
    3  A    between atoms: C_9  and  N_15
                            x       y       z     vdW  Elec       q    Type
                         _______ _______ _______ _____ _____    ______ ____

>  <TORSDO>
F 3

$$$$
=
 OpenBabel11052423143D

 27 30  0  0  1  0  0  0  0  0999 V2000
  161.5980  212.0990  147.8540 C   0  0  0  0  0  0  0  0  0  0  0  0
  160.0990  213.2460  143.9990 C   0  0  0  0  0  2  0  0  0  0  0  0
  161.0160  212.6910  142.9470 C   0  0  0  0  0  3  0  0  0  0  0  0
  160.7970  211.3590  147.1440 N   0  0  0  0  0  0  0  0  0  0  0  0
  163.0450  213.4240  145.2210 C   0  0  0  0  0  2  0  0  0  0  0  0
  163.0180  213.9550  143.7900 C   0  0  0  0  0  2  0  0  0  0  0  0
  161.7310  213.7270  145.9340 C   0  0  1  0  0  3  0  0  0  0  0  0
  162.1390  211.6250  149.0950 N   0  0  0  0  0  2  0  0  0  0  0  0
  162.3180  213.0060  142.8550 C   0  0  0  0  0  3  0  0  0  0  0  0
  160.6090  212.9060  145.3590 C   0  0  0  0  0  0  0  0  0  0  0  0
  161.8760  213.5200  147.4440 C   0  0  1  0  0  3  0  0  0  0  0  0
  160.2470  211.7930  145.9240 N   0  0  0  0  0  0  0  0  0  0  0  0
  161.6810  207.8150  150.8970 C   0  0  0  0  0  3  0  0  0  0  0  0
  161.9830  210.3250  149.6790 C   0  0  0  0  0  0  0  0  0  0  0  0
  162.0130  209.1520  148.9070 C   0  0  0  0  0  3  0  0  0  0  0  0
  161.8610  207.9020  149.5150 C   0  0  0  0  0  3  0  0  0  0  0  0
  161.6530  208.9780  151.6720 C   0  0  0  0  0  3  0  0  0  0  0  0
  161.8040  210.2280  151.0630 C   0  0  0  0  0  3  0  0  0  0  0  0
  160.9720  214.4220  148.1440 N   0  0  0  0  0  2  0  0  0  0  0  0
  160.1340  213.4460  151.0570 Cl  0  0  0  0  0  0  0  0  0  0  0  0
  157.3080  214.1880  147.5900 C   0  0  0  0  0  0  0  0  0  0  0  0
  156.3350  214.4530  146.4990 C   0  0  0  0  0  1  0  0  0  0  0  0
  159.1020  213.6910  149.6560 C   0  0  0  0  0  0  0  0  0  0  0  0
  158.6670  214.4270  147.3950 C   0  0  0  0  0  3  0  0  0  0  0  0
  156.8720  213.6990  148.8190 C   0  0  0  0  0  3  0  0  0  0  0  0
  157.7670  213.4690  149.8150 N   0  0  0  0  0  0  0  0  0  0  0  0
  159.5860  214.1680  148.4140 C   0  0  0  0  0  0  0  0  0  0  0  0
  1  8  1  0  0  0  0
  2 10  1  0  0  0  0
  3  2  1  0  0  0  0
  4  1  2  0  0  0  0
  6  5  1  0  0  0  0
  7  5  1  6  0  0  0
  7 11  1  0  0  0  0
  8 14  1  0  0  0  0
  9  3  2  0  0  0  0
  9  6  1  0  0  0  0
 10 12  2  0  0  0  0
 10  7  1  0  0  0  0
 11  1  1  0  0  0  0
 11 19  1  1  0  0  0
 12  4  1  0  0  0  0
 13 17  1  0  0  0  0
 14 18  1  0  0  0  0
 15 16  1  0  0  0  0
 15 14  2  0  0  0  0
 16 13  2  0  0  0  0
 18 17  2  0  0  0  0
 19 27  1  0  0  0  0
 21 25  1  0  0  0  0
 22 21  1  0  0  0  0
 23 26  1  0  0  0  0
 23 20  1  0  0  0  0
 24 21  2  0  0  0  0
 24 27  1  0  0  0  0
 25 26  2  0  0  0  0
 27 23  2  0  0  0  0
M  END
>  <MODEL>
9

>  <REMARK>
 VINA RESULT:      -5.7      3.634      8.524
  Name = 
  3 active torsions:
  status: ('A' for Active; 'I' for Inactive)
    1  A    between atoms: N_3  and  C_19
    2  A    between atoms: N_3  and  C_26
    3  A    between atoms: C_9  and  N_15
                            x       y       z     vdW  Elec       q    Type
                         _______ _______ _______ _____ _____    ______ ____

>  <TORSDO>
F 3

$$$$
