=
 OpenBabel11052422523D

 28 33  0  0  1  0  0  0  0  0999 V2000
  159.7180  211.1100  153.2030 C   0  0  1  0  0  3  0  0  0  0  0  0
  159.9120  210.6620  154.6680 C   0  0  1  0  0  3  0  0  0  0  0  0
  160.3670  208.4120  153.5040 C   0  0  2  0  0  3  0  0  0  0  0  0
  160.7400  206.4310  149.9850 C   0  0  0  0  0  3  0  0  0  0  0  0
  160.5610  212.8300  149.4530 N   0  0  0  0  0  1  0  0  0  0  0  0
  161.7350  210.3420  156.1390 C   0  0  2  0  0  3  0  0  0  0  0  0
  160.3090  209.1850  154.8320 C   0  0  1  0  0  3  0  0  0  0  0  0
  160.4330  212.4400  156.3070 C   0  0  0  0  0  1  0  0  0  0  0  0
  161.4160  204.9500  152.5740 C   0  0  0  0  0  3  0  0  0  0  0  0
  161.3290  208.4090  151.2070 N   0  0  0  0  0  0  0  0  0  0  0  0
  161.0180  211.4110  155.3570 C   0  0  2  0  0  3  0  0  0  0  0  0
  161.3560  204.0630  150.2430 C   0  0  0  0  0  0  0  0  0  0  0  0
  161.0600  206.9920  151.1600 C   0  0  0  0  0  0  0  0  0  0  0  0
  160.8420  206.9790  153.7290 C   0  0  0  0  0  2  0  0  0  0  0  0
  161.7910  204.0110  151.5000 C   0  0  0  0  0  3  0  0  0  0  0  0
  161.1880  211.2180  151.1750 C   0  0  0  0  0  0  0  0  0  0  0  0
  161.2710  209.1320  152.4930 C   0  0  1  0  0  3  0  0  0  0  0  0
  161.0370  206.2310  152.4450 C   0  0  0  0  0  0  0  0  0  0  0  0
  159.4280  212.9870  151.5940 C   0  0  0  0  0  2  0  0  0  0  0  0
  162.1890  210.5530  150.2710 C   0  0  0  0  0  2  0  0  0  0  0  0
  160.7330  212.6340  150.8830 C   0  0  2  0  0  3  0  0  0  0  0  0
  163.2160  210.6620  156.2110 C   0  0  0  0  0  1  0  0  0  0  0  0
  161.7990  203.1420  149.3550 F   0  0  0  0  0  0  0  0  0  0  0  0
  160.2940  205.0170  149.8190 C   0  0  0  0  0  2  0  0  0  0  0  0
  161.7510  209.1150  149.9830 C   0  0  0  0  0  2  0  0  0  0  0  0
  159.5260  212.6210  153.0650 C   0  0  0  0  0  2  0  0  0  0  0  0
  160.7860  210.5520  152.2790 C   0  0  0  0  0  0  0  0  0  0  0  0
  161.5510  209.1100  155.4960 O   0  0  0  0  0  0  0  0  0  0  0  0
  1 26  1  1  0  0  0
  1  2  1  0  0  0  0
  2  7  1  0  0  0  0
  2 11  1  0  0  0  0
  3 14  1  0  0  0  0
  3  7  1  0  0  0  0
  4 13  2  0  0  0  0
  5 21  1  0  0  0  0
  6 22  1  0  0  0  0
  7 28  1  0  0  0  0
 10 17  1  0  0  0  0
 11  6  1  0  0  0  0
 11  8  1  0  0  0  0
 12 15  2  0  0  0  0
 13 10  1  0  0  0  0
 13 18  1  0  0  0  0
 15  9  1  0  0  0  0
 16 27  2  0  0  0  0
 17  3  1  0  0  0  0
 18  9  2  0  0  0  0
 18 14  1  0  0  0  0
 19 26  1  0  0  0  0
 20 16  1  0  0  0  0
 21 16  1  0  0  0  0
 21 19  1  0  0  0  0
 23 12  1  0  0  0  0
 24  4  1  0  0  0  0
 24 12  1  0  0  0  0
 25 20  1  0  0  0  0
 25 10  1  0  0  0  0
 27 17  1  0  0  0  0
 27  1  1  0  0  0  0
 28  6  1  0  0  0  0
M  END
>  <MODEL>
1

>  <REMARK>
 VINA RESULT:      -8.2      0.000      0.000
  Name = 
  0 active torsions:
  status: ('A' for Active; 'I' for Inactive)
                            x       y       z     vdW  Elec       q    Type
                         _______ _______ _______ _____ _____    ______ ____

>  <TORSDO>
F 0

$$$$
=
 OpenBabel11052422523D

 28 33  0  0  1  0  0  0  0  0999 V2000
  162.1750  203.5010  147.5840 C   0  0  1  0  0  3  0  0  0  0  0  0
  161.8490  202.4400  148.6570 C   0  0  1  0  0  3  0  0  0  0  0  0
  161.6770  204.5490  150.1220 C   0  0  2  0  0  3  0  0  0  0  0  0
  161.8320  208.5990  150.2650 C   0  0  0  0  0  3  0  0  0  0  0  0
  161.6450  206.1300  144.3370 N   0  0  0  0  0  1  0  0  0  0  0  0
  159.8980  201.5260  149.6310 C   0  0  2  0  0  3  0  0  0  0  0  0
  161.5350  203.0190  150.0460 C   0  0  1  0  0  3  0  0  0  0  0  0
  161.0310  200.2540  147.8370 C   0  0  0  0  0  1  0  0  0  0  0  0
  160.9710  207.0800  152.7760 C   0  0  0  0  0  3  0  0  0  0  0  0
  160.9800  206.6980  149.0750 N   0  0  0  0  0  0  0  0  0  0  0  0
  160.6260  201.6340  148.3170 C   0  0  2  0  0  3  0  0  0  0  0  0
  161.3490  209.5290  152.4900 C   0  0  0  0  0  0  0  0  0  0  0  0
  161.3470  207.3500  150.3100 C   0  0  0  0  0  0  0  0  0  0  0  0
  161.2760  205.0640  151.5020 C   0  0  0  0  0  2  0  0  0  0  0  0
  160.7810  208.5020  153.1190 C   0  0  0  0  0  3  0  0  0  0  0  0
  160.9370  205.4280  146.5650 C   0  0  0  0  0  0  0  0  0  0  0  0
  160.8460  205.2280  149.0250 C   0  0  1  0  0  3  0  0  0  0  0  0
  161.2760  206.5610  151.5770 C   0  0  0  0  0  0  0  0  0  0  0  0
  162.5180  204.0260  145.1750 C   0  0  0  0  0  2  0  0  0  0  0  0
  160.0900  206.6570  146.7480 C   0  0  0  0  0  2  0  0  0  0  0  0
  161.3280  204.9820  145.1710 C   0  0  2  0  0  3  0  0  0  0  0  0
  158.4010  201.5090  149.3920 C   0  0  0  0  0  1  0  0  0  0  0  0
  161.0700  210.7880  152.9030 F   0  0  0  0  0  0  0  0  0  0  0  0
  162.3860  209.3300  151.4400 C   0  0  0  0  0  2  0  0  0  0  0  0
  160.6510  207.5090  147.8880 C   0  0  0  0  0  2  0  0  0  0  0  0
  162.2810  202.9090  146.1780 C   0  0  0  0  0  2  0  0  0  0  0  0
  161.2570  204.7070  147.6630 C   0  0  0  0  0  0  0  0  0  0  0  0
  160.2350  202.6290  150.4280 O   0  0  0  0  0  0  0  0  0  0  0  0
  1 26  1  6  0  0  0
  1 27  1  0  0  0  0
  1  2  1  0  0  0  0
  2  7  1  0  0  0  0
  3 14  1  0  0  0  0
  4 13  2  0  0  0  0
  4 24  1  0  0  0  0
  5 21  1  0  0  0  0
  6 28  1  0  0  0  0
  7  3  1  0  0  0  0
  7 28  1  0  0  0  0
  8 11  1  0  0  0  0
  9 15  1  0  0  0  0
 10 13  1  0  0  0  0
 11  2  1  0  0  0  0
 11  6  1  0  0  0  0
 12 23  1  0  0  0  0
 12 15  2  0  0  0  0
 13 18  1  0  0  0  0
 14 18  1  0  0  0  0
 16 20  1  0  0  0  0
 16 27  2  0  0  0  0
 17 10  1  0  0  0  0
 17  3  1  0  0  0  0
 18  9  2  0  0  0  0
 19 26  1  0  0  0  0
 20 25  1  0  0  0  0
 21 19  1  0  0  0  0
 21 16  1  0  0  0  0
 22  6  1  0  0  0  0
 24 12  1  0  0  0  0
 25 10  1  0  0  0  0
 27 17  1  0  0  0  0
M  END
>  <MODEL>
2

>  <REMARK>
 VINA RESULT:      -6.3      3.688      8.047
  Name = 
  0 active torsions:
  status: ('A' for Active; 'I' for Inactive)
                            x       y       z     vdW  Elec       q    Type
                         _______ _______ _______ _____ _____    ______ ____

>  <TORSDO>
F 0

$$$$
=
 OpenBabel11052422523D

 28 33  0  0  1  0  0  0  0  0999 V2000
  160.2740  203.8330  148.4370 C   0  0  1  0  0  3  0  0  0  0  0  0
  160.6900  204.5500  147.1350 C   0  0  1  0  0  3  0  0  0  0  0  0
  161.0210  206.5000  148.7820 C   0  0  2  0  0  3  0  0  0  0  0  0
  160.9220  207.7250  152.6470 C   0  0  0  0  0  3  0  0  0  0  0  0
  160.5200  201.3640  151.8400 N   0  0  0  0  0  1  0  0  0  0  0  0
  162.7150  205.0590  146.0250 C   0  0  2  0  0  3  0  0  0  0  0  0
  161.1400  206.0080  147.3300 C   0  0  1  0  0  3  0  0  0  0  0  0
  161.4040  203.1070  145.2570 C   0  0  0  0  0  1  0  0  0  0  0  0
  162.0020  209.6500  150.5310 C   0  0  0  0  0  3  0  0  0  0  0  0
  161.6370  205.9990  151.1420 N   0  0  0  0  0  0  0  0  0  0  0  0
  161.8670  203.8960  146.4670 C   0  0  2  0  0  3  0  0  0  0  0  0
  161.6230  210.0620  152.9620 C   0  0  0  0  0  0  0  0  0  0  0  0
  161.3960  207.3910  151.4380 C   0  0  0  0  0  0  0  0  0  0  0  0
  161.5570  207.9220  148.9200 C   0  0  0  0  0  2  0  0  0  0  0  0
  162.2380  210.3390  151.8140 C   0  0  0  0  0  3  0  0  0  0  0  0
  161.4280  203.2500  150.5840 C   0  0  0  0  0  0  0  0  0  0  0  0
  161.7510  205.5480  149.7410 C   0  0  1  0  0  3  0  0  0  0  0  0
  161.5790  208.3910  150.3430 C   0  0  0  0  0  0  0  0  0  0  0  0
  159.7090  201.6930  149.5760 C   0  0  0  0  0  2  0  0  0  0  0  0
  162.3020  203.6710  151.7340 C   0  0  0  0  0  2  0  0  0  0  0  0
  160.9030  201.8300  150.5170 C   0  0  2  0  0  3  0  0  0  0  0  0
  164.1830  204.6840  146.0960 C   0  0  0  0  0  1  0  0  0  0  0  0
  161.9530  210.7650  154.0710 F   0  0  0  0  0  0  0  0  0  0  0  0
  160.4890  209.0990  153.0320 C   0  0  0  0  0  2  0  0  0  0  0  0
  161.8600  205.0440  152.2450 C   0  0  0  0  0  2  0  0  0  0  0  0
  160.0290  202.3360  148.2370 C   0  0  0  0  0  2  0  0  0  0  0  0
  161.2080  204.1410  149.5930 C   0  0  0  0  0  0  0  0  0  0  0  0
  162.4670  206.1480  146.8730 O   0  0  0  0  0  0  0  0  0  0  0  0
  1 26  1  6  0  0  0
  1 27  1  0  0  0  0
  2  7  1  0  0  0  0
  2  1  1  0  0  0  0
  3 14  1  0  0  0  0
  3 17  1  0  0  0  0
  4 24  1  0  0  0  0
  6 22  1  0  0  0  0
  6 11  1  0  0  0  0
  6 28  1  0  0  0  0
  7  3  1  0  0  0  0
  8 11  1  0  0  0  0
  9 15  1  0  0  0  0
 10 13  1  0  0  0  0
 10 25  1  0  0  0  0
 11  2  1  0  0  0  0
 12 24  1  0  0  0  0
 12 23  1  0  0  0  0
 13  4  2  0  0  0  0
 14 18  1  0  0  0  0
 15 12  2  0  0  0  0
 16 20  1  0  0  0  0
 17 10  1  0  0  0  0
 18  9  2  0  0  0  0
 18 13  1  0  0  0  0
 19 21  1  0  0  0  0
 20 25  1  0  0  0  0
 21 16  1  0  0  0  0
 21  5  1  0  0  0  0
 26 19  1  0  0  0  0
 27 17  1  0  0  0  0
 27 16  2  0  0  0  0
 28  7  1  0  0  0  0
M  END
>  <MODEL>
3

>  <REMARK>
 VINA RESULT:      -6.1      3.603      8.347
  Name = 
  0 active torsions:
  status: ('A' for Active; 'I' for Inactive)
                            x       y       z     vdW  Elec       q    Type
                         _______ _______ _______ _____ _____    ______ ____

>  <TORSDO>
F 0

$$$$
