=
 OpenBabel11062407593D

 34 38  0  0  1  0  0  0  0  0999 V2000
  160.9980  203.7610  148.9500 C   0  0  0  0  0  0  0  0  0  0  0  0
  161.1840  203.8830  151.3870 C   0  0  0  0  0  0  0  0  0  0  0  0
  161.1470  205.9220  150.0460 C   0  0  0  0  0  0  0  0  0  0  0  0
  161.3640  208.0620  151.5200 N   0  0  0  0  0  0  0  0  0  0  0  0
  161.0360  201.7330  150.2800 C   0  0  0  0  0  3  0  0  0  0  0  0
  161.1480  202.4880  151.4560 C   0  0  0  0  0  3  0  0  0  0  0  0
  161.3310  206.0610  152.4440 C   0  0  0  0  0  0  0  0  0  0  0  0
  161.1100  204.5190  150.1270 C   0  0  0  0  0  0  0  0  0  0  0  0
  161.4110  208.3480  152.8570 O   0  0  0  0  0  0  0  0  0  0  0  0
  160.9620  202.3660  149.0310 C   0  0  0  0  0  3  0  0  0  0  0  0
  160.9610  205.8160  147.6830 C   0  0  0  0  0  3  0  0  0  0  0  0
  160.9230  204.4160  147.7190 C   0  0  0  0  0  3  0  0  0  0  0  0
  161.2990  204.6630  152.5550 O   0  0  0  0  0  0  0  0  0  0  0  0
  161.5010  207.0780  153.5070 C   0  0  1  0  0  3  0  0  0  0  0  0
  161.2550  206.6730  151.3080 C   0  0  0  0  0  0  0  0  0  0  0  0
  161.0710  206.5360  148.8340 N   0  0  0  0  0  0  0  0  0  0  0  0
  160.4290  206.9500  154.4810 N   0  0  0  0  0  2  0  0  0  0  0  0
  160.4100  208.1750  155.2620 C   0  0  0  0  0  2  0  0  0  0  0  0
  161.1640  207.9750  156.5640 C   0  0  0  0  0  2  0  0  0  0  0  0
  161.7000  209.3080  157.0740 C   0  0  0  0  0  2  0  0  0  0  0  0
  163.1610  210.6940  155.7650 O   0  0  0  0  0  1  0  0  0  0  0  0
  161.8240  210.3410  155.9560 C   0  0  2  0  0  3  0  0  0  0  0  0
  160.9950  211.5850  156.2390 C   0  0  0  0  0  2  0  0  0  0  0  0
  160.3030  211.7270  154.1490 C   0  0  0  0  0  1  0  0  0  0  0  0
  159.8400  211.5800  155.4550 O   0  0  0  0  0  0  0  0  0  0  0  0
  162.0570  208.9060  150.5590 C   0  0  0  0  0  2  0  0  0  0  0  0
  162.1500  210.3260  151.0860 C   0  0  0  0  0  2  0  0  0  0  0  0
  161.4260  214.0300  148.7050 C   0  0  0  0  0  2  0  0  0  0  0  0
  160.3520  213.2050  149.3900 C   0  0  0  0  0  2  0  0  0  0  0  0
  161.7340  211.2820  150.0260 C   0  0  0  0  0  0  0  0  0  0  0  0
  160.9270  212.2550  150.3360 N   0  0  0  0  0  0  0  0  0  0  0  0
  162.9460  212.1770  147.9880 C   0  0  0  0  0  2  0  0  0  0  0  0
  162.2500  211.1140  148.7010 N   0  0  0  0  0  2  0  0  0  0  0  0
  161.9870  213.2600  147.5240 C   0  0  0  0  0  2  0  0  0  0  0  0
  1 10  2  0  0  0  0
  1  8  1  0  0  0  0
  2  6  1  0  0  0  0
  2 13  1  0  0  0  0
  3  8  1  0  0  0  0
  3 15  1  0  0  0  0
  4  9  1  0  0  0  0
  5  6  2  0  0  0  0
  7 13  1  0  0  0  0
  7 14  1  0  0  0  0
  8  2  2  0  0  0  0
  9 14  1  0  0  0  0
 10  5  1  0  0  0  0
 11 12  2  0  0  0  0
 11 16  1  0  0  0  0
 12  1  1  0  0  0  0
 14 17  1  1  0  0  0
 15  4  1  0  0  0  0
 15  7  2  0  0  0  0
 16  3  2  0  0  0  0
 17 18  1  0  0  0  0
 18 19  1  0  0  0  0
 19 20  1  0  0  0  0
 22 21  1  1  0  0  0
 22 23  1  0  0  0  0
 22 20  1  0  0  0  0
 24 25  1  0  0  0  0
 25 23  1  0  0  0  0
 26 27  1  0  0  0  0
 26  4  1  0  0  0  0
 28 29  1  0  0  0  0
 29 31  1  0  0  0  0
 30 31  2  0  0  0  0
 30 27  1  0  0  0  0
 32 33  1  0  0  0  0
 33 30  1  0  0  0  0
 34 32  1  0  0  0  0
 34 28  1  0  0  0  0
M  END
>  <MODEL>
1

>  <REMARK>
 VINA RESULT:      -7.9      0.000      0.000
  Name = 
  10 active torsions:
  status: ('A' for Active; 'I' for Inactive)
    1  A    between atoms: C_3  and  C_13
    2  A    between atoms: C_3  and  N_17
    3  A    between atoms: N_5  and  C_26
    4  A    between atoms: C_12  and  C_28
    5  A    between atoms: C_13  and  C_33
    6  A    between atoms: O_14  and  C_20
    7  A    between atoms: N_17  and  C_29
    8  A    between atoms: C_20  and  C_34
    9  A    between atoms: C_26  and  C_28
   10  A    between atoms: C_33  and  C_34
                            x       y       z     vdW  Elec       q    Type
                         _______ _______ _______ _____ _____    ______ ____

>  <TORSDO>
F 10

$$$$
=
 OpenBabel11062407593D

 34 38  0  0  1  0  0  0  0  0999 V2000
  161.0600  204.6950  149.1770 C   0  0  0  0  0  0  0  0  0  0  0  0
  161.2970  205.6840  151.4020 C   0  0  0  0  0  0  0  0  0  0  0  0
  161.2630  207.1020  149.4160 C   0  0  0  0  0  0  0  0  0  0  0  0
  161.5400  209.6240  150.0140 N   0  0  0  0  0  0  0  0  0  0  0  0
  161.0950  203.2830  151.1490 C   0  0  0  0  0  3  0  0  0  0  0  0
  161.2420  204.4090  151.9700 C   0  0  0  0  0  3  0  0  0  0  0  0
  161.4970  208.0930  151.5990 C   0  0  0  0  0  0  0  0  0  0  0  0
  161.2070  205.8240  149.9990 C   0  0  0  0  0  0  0  0  0  0  0  0
  161.6190  210.3730  151.1570 O   0  0  0  0  0  0  0  0  0  0  0  0
  161.0050  203.4230  149.7560 C   0  0  0  0  0  3  0  0  0  0  0  0
  161.0280  206.1550  147.2530 C   0  0  0  0  0  3  0  0  0  0  0  0
  160.9700  204.8630  147.7930 C   0  0  0  0  0  3  0  0  0  0  0  0
  161.4460  206.8310  152.2080 O   0  0  0  0  0  0  0  0  0  0  0  0
  161.7030  209.4220  152.2210 C   0  0  1  0  0  3  0  0  0  0  0  0
  161.4070  208.2550  150.3200 C   0  0  0  0  0  0  0  0  0  0  0  0
  161.1710  207.2390  148.0650 N   0  0  0  0  0  0  0  0  0  0  0  0
  160.6490  209.6760  153.1890 N   0  0  0  0  0  2  0  0  0  0  0  0
  160.6260  211.1090  153.4320 C   0  0  0  0  0  2  0  0  0  0  0  0
  161.1380  211.4080  154.8300 C   0  0  0  0  0  2  0  0  0  0  0  0
  160.5430  210.4250  155.8320 C   0  0  0  0  0  2  0  0  0  0  0  0
  162.8690  210.2900  156.4140 O   0  0  0  0  0  1  0  0  0  0  0  0
  161.6210  209.7050  156.6380 C   0  0  2  0  0  3  0  0  0  0  0  0
  161.6780  208.2210  156.3110 C   0  0  0  0  0  2  0  0  0  0  0  0
  159.8430  206.9970  156.2590 C   0  0  0  0  0  1  0  0  0  0  0  0
  160.7990  207.5150  157.1320 O   0  0  0  0  0  0  0  0  0  0  0  0
  162.2260  210.0500  148.8040 C   0  0  0  0  0  2  0  0  0  0  0  0
  162.5500  211.5310  148.8830 C   0  0  0  0  0  2  0  0  0  0  0  0
  158.5920  212.7850  147.2460 C   0  0  0  0  0  2  0  0  0  0  0  0
  159.8690  212.6450  146.4390 C   0  0  0  0  0  2  0  0  0  0  0  0
  161.4320  212.3200  148.2990 C   0  0  0  0  0  0  0  0  0  0  0  0
  160.8970  211.9240  147.1820 N   0  0  0  0  0  0  0  0  0  0  0  0
  159.5700  213.6610  149.3760 C   0  0  0  0  0  2  0  0  0  0  0  0
  160.9660  213.4800  148.9980 N   0  0  0  0  0  2  0  0  0  0  0  0
  158.7020  213.9840  148.1710 C   0  0  0  0  0  2  0  0  0  0  0  0
  1 10  2  0  0  0  0
  1  8  1  0  0  0  0
  2  6  1  0  0  0  0
  2 13  1  0  0  0  0
  3  8  1  0  0  0  0
  3 15  1  0  0  0  0
  4 15  1  0  0  0  0
  4  9  1  0  0  0  0
  5  6  2  0  0  0  0
  7 13  1  0  0  0  0
  7 14  1  0  0  0  0
  8  2  2  0  0  0  0
  9 14  1  0  0  0  0
 10  5  1  0  0  0  0
 11 12  2  0  0  0  0
 11 16  1  0  0  0  0
 12  1  1  0  0  0  0
 14 17  1  1  0  0  0
 15  7  2  0  0  0  0
 16  3  2  0  0  0  0
 17 18  1  0  0  0  0
 18 19  1  0  0  0  0
 19 20  1  0  0  0  0
 20 22  1  0  0  0  0
 22 21  1  6  0  0  0
 23 22  1  0  0  0  0
 23 25  1  0  0  0  0
 24 25  1  0  0  0  0
 26 27  1  0  0  0  0
 26  4  1  0  0  0  0
 28 34  1  0  0  0  0
 29 31  1  0  0  0  0
 29 28  1  0  0  0  0
 30 27  1  0  0  0  0
 30 33  1  0  0  0  0
 31 30  2  0  0  0  0
 33 32  1  0  0  0  0
 34 32  1  0  0  0  0
M  END
>  <MODEL>
2

>  <REMARK>
 VINA RESULT:      -7.6      1.646      2.610
  Name = 
  10 active torsions:
  status: ('A' for Active; 'I' for Inactive)
    1  A    between atoms: C_3  and  C_13
    2  A    between atoms: C_3  and  N_17
    3  A    between atoms: N_5  and  C_26
    4  A    between atoms: C_12  and  C_28
    5  A    between atoms: C_13  and  C_33
    6  A    between atoms: O_14  and  C_20
    7  A    between atoms: N_17  and  C_29
    8  A    between atoms: C_20  and  C_34
    9  A    between atoms: C_26  and  C_28
   10  A    between atoms: C_33  and  C_34
                            x       y       z     vdW  Elec       q    Type
                         _______ _______ _______ _____ _____    ______ ____

>  <TORSDO>
F 10

$$$$
=
 OpenBabel11062407593D

 34 38  0  0  1  0  0  0  0  0999 V2000
  161.1740  207.9350  154.1760 C   0  0  0  0  0  0  0  0  0  0  0  0
  161.8000  209.9130  152.8780 C   0  0  0  0  0  0  0  0  0  0  0  0
  161.3800  207.7840  151.7620 C   0  0  0  0  0  0  0  0  0  0  0  0
  161.7240  207.9510  149.1830 N   0  0  0  0  0  0  0  0  0  0  0  0
  161.5920  210.0500  155.2890 C   0  0  0  0  0  3  0  0  0  0  0  0
  161.8690  210.6590  154.0570 C   0  0  0  0  0  3  0  0  0  0  0  0
  161.9950  209.7210  150.4690 C   0  0  0  0  0  0  0  0  0  0  0  0
  161.4510  208.5450  152.9420 C   0  0  0  0  0  0  0  0  0  0  0  0
  161.9990  208.9400  148.2780 O   0  0  0  0  0  0  0  0  0  0  0  0
  161.2460  208.6920  155.3500 C   0  0  0  0  0  3  0  0  0  0  0  0
  160.7670  205.8600  153.0090 C   0  0  0  0  0  3  0  0  0  0  0  0
  160.8290  206.5810  154.2090 C   0  0  0  0  0  3  0  0  0  0  0  0
  162.0770  210.5040  151.6300 O   0  0  0  0  0  0  0  0  0  0  0  0
  162.2910  210.0960  149.0670 C   0  0  1  0  0  3  0  0  0  0  0  0
  161.6700  208.4700  150.4920 C   0  0  0  0  0  0  0  0  0  0  0  0
  161.0400  206.4670  151.8200 N   0  0  0  0  0  0  0  0  0  0  0  0
  161.4300  211.1950  148.6640 N   0  0  0  0  0  2  0  0  0  0  0  0
  162.2920  212.3180  148.3340 C   0  0  0  0  0  2  0  0  0  0  0  0
  161.8950  212.9010  146.9890 C   0  0  0  0  0  2  0  0  0  0  0  0
  160.4070  212.6870  146.7400 C   0  0  0  0  0  2  0  0  0  0  0  0
  158.9580  212.2550  144.8740 O   0  0  0  0  0  1  0  0  0  0  0  0
  160.0040  213.0670  145.3160 C   0  0  2  0  0  3  0  0  0  0  0  0
  161.1750  212.9750  144.3510 C   0  0  0  0  0  2  0  0  0  0  0  0
  161.9590  212.2090  142.4360 C   0  0  0  0  0  1  0  0  0  0  0  0
  160.8470  212.1490  143.2750 O   0  0  0  0  0  0  0  0  0  0  0  0
  162.1700  206.5870  148.9440 C   0  0  0  0  0  2  0  0  0  0  0  0
  161.0760  205.7960  148.2500 C   0  0  0  0  0  2  0  0  0  0  0  0
  160.1420  201.5940  149.4270 C   0  0  0  0  0  2  0  0  0  0  0  0
  160.8360  202.6160  150.3070 C   0  0  0  0  0  2  0  0  0  0  0  0
  161.1860  204.3600  148.6190 C   0  0  0  0  0  0  0  0  0  0  0  0
  160.7120  203.9640  149.7640 N   0  0  0  0  0  0  0  0  0  0  0  0
  161.1220  202.2470  147.2190 C   0  0  0  0  0  2  0  0  0  0  0  0
  161.7920  203.4520  147.6920 N   0  0  0  0  0  2  0  0  0  0  0  0
  161.0680  201.1780  148.2980 C   0  0  0  0  0  2  0  0  0  0  0  0
  1 12  1  0  0  0  0
  1 10  2  0  0  0  0
  2  8  2  0  0  0  0
  2  6  1  0  0  0  0
  3 16  2  0  0  0  0
  3  8  1  0  0  0  0
  4 15  1  0  0  0  0
  5 10  1  0  0  0  0
  6  5  2  0  0  0  0
  7 15  2  0  0  0  0
  7 13  1  0  0  0  0
  8  1  1  0  0  0  0
  9 14  1  0  0  0  0
  9  4  1  0  0  0  0
 11 12  2  0  0  0  0
 13  2  1  0  0  0  0
 14 17  1  6  0  0  0
 14  7  1  0  0  0  0
 15  3  1  0  0  0  0
 16 11  1  0  0  0  0
 18 17  1  0  0  0  0
 19 18  1  0  0  0  0
 20 19  1  0  0  0  0
 22 21  1  6  0  0  0
 22 20  1  0  0  0  0
 23 22  1  0  0  0  0
 24 25  1  0  0  0  0
 25 23  1  0  0  0  0
 26  4  1  0  0  0  0
 27 30  1  0  0  0  0
 27 26  1  0  0  0  0
 28 29  1  0  0  0  0
 30 31  2  0  0  0  0
 31 29  1  0  0  0  0
 32 33  1  0  0  0  0
 32 34  1  0  0  0  0
 33 30  1  0  0  0  0
 34 28  1  0  0  0  0
M  END
>  <MODEL>
3

>  <REMARK>
 VINA RESULT:      -7.6      3.098      8.317
  Name = 
  10 active torsions:
  status: ('A' for Active; 'I' for Inactive)
    1  A    between atoms: C_3  and  C_13
    2  A    between atoms: C_3  and  N_17
    3  A    between atoms: N_5  and  C_26
    4  A    between atoms: C_12  and  C_28
    5  A    between atoms: C_13  and  C_33
    6  A    between atoms: O_14  and  C_20
    7  A    between atoms: N_17  and  C_29
    8  A    between atoms: C_20  and  C_34
    9  A    between atoms: C_26  and  C_28
   10  A    between atoms: C_33  and  C_34
                            x       y       z     vdW  Elec       q    Type
                         _______ _______ _______ _____ _____    ______ ____

>  <TORSDO>
F 10

$$$$
=
 OpenBabel11062407593D

 34 38  0  0  1  0  0  0  0  0999 V2000
  161.0790  203.7440  149.7640 C   0  0  0  0  0  0  0  0  0  0  0  0
  161.1570  206.0940  149.0870 C   0  0  0  0  0  0  0  0  0  0  0  0
  161.1570  205.4880  151.4510 C   0  0  0  0  0  0  0  0  0  0  0  0
  161.2060  207.5880  152.9950 N   0  0  0  0  0  0  0  0  0  0  0  0
  161.0780  204.3430  147.4140 C   0  0  0  0  0  3  0  0  0  0  0  0
  161.1290  205.7040  147.7460 C   0  0  0  0  0  3  0  0  0  0  0  0
  161.2340  207.8070  150.8020 C   0  0  0  0  0  0  0  0  0  0  0  0
  161.1310  205.1080  150.0980 C   0  0  0  0  0  0  0  0  0  0  0  0
  161.3150  208.9420  152.8300 O   0  0  0  0  0  0  0  0  0  0  0  0
  161.0520  203.3650  148.4190 C   0  0  0  0  0  3  0  0  0  0  0  0
  161.0870  203.2130  152.1200 C   0  0  0  0  0  3  0  0  0  0  0  0
  161.0570  202.7900  150.7840 C   0  0  0  0  0  3  0  0  0  0  0  0
  161.2060  207.4560  149.4440 O   0  0  0  0  0  0  0  0  0  0  0  0
  161.2300  209.1540  151.4190 C   0  0  1  0  0  3  0  0  0  0  0  0
  161.2210  206.9290  151.7500 C   0  0  0  0  0  0  0  0  0  0  0  0
  161.1360  204.5400  152.4260 N   0  0  0  0  0  0  0  0  0  0  0  0
  162.3900  209.9020  150.9650 N   0  0  0  0  0  2  0  0  0  0  0  0
  161.8960  211.0750  150.2630 C   0  0  0  0  0  2  0  0  0  0  0  0
  162.2170  210.9700  148.7820 C   0  0  0  0  0  2  0  0  0  0  0  0
  162.1590  212.3470  148.1310 C   0  0  0  0  0  2  0  0  0  0  0  0
  161.5500  212.8310  145.8580 O   0  0  0  0  0  1  0  0  0  0  0  0
  161.0370  212.4470  147.0990 C   0  0  2  0  0  3  0  0  0  0  0  0
  159.9500  213.4170  147.5340 C   0  0  0  0  0  2  0  0  0  0  0  0
  158.7880  213.8720  149.3530 C   0  0  0  0  0  1  0  0  0  0  0  0
  160.0930  213.7220  148.8880 O   0  0  0  0  0  0  0  0  0  0  0  0
  160.4590  207.0390  154.1170 C   0  0  0  0  0  2  0  0  0  0  0  0
  161.2620  207.1840  155.3970 C   0  0  0  0  0  2  0  0  0  0  0  0
  161.1610  211.5610  156.2610 C   0  0  0  0  0  2  0  0  0  0  0  0
  161.8850  210.5200  157.0950 C   0  0  0  0  0  2  0  0  0  0  0  0
  160.9910  208.5110  156.0100 C   0  0  0  0  0  0  0  0  0  0  0  0
  161.9930  209.2480  156.3890 N   0  0  0  0  0  0  0  0  0  0  0  0
  159.1560  210.2140  155.6070 C   0  0  0  0  0  2  0  0  0  0  0  0
  159.6320  208.9460  156.1450 N   0  0  0  0  0  2  0  0  0  0  0  0
  159.6610  211.3930  156.4230 C   0  0  0  0  0  2  0  0  0  0  0  0
  1  8  2  0  0  0  0
  1 12  1  0  0  0  0
  2 13  1  0  0  0  0
  2  8  1  0  0  0  0
  3 15  1  0  0  0  0
  3 16  2  0  0  0  0
  4 26  1  0  0  0  0
  5  6  1  0  0  0  0
  5 10  2  0  0  0  0
  6  2  2  0  0  0  0
  7 14  1  0  0  0  0
  7 15  2  0  0  0  0
  8  3  1  0  0  0  0
  9  4  1  0  0  0  0
 10  1  1  0  0  0  0
 11 16  1  0  0  0  0
 12 11  2  0  0  0  0
 13  7  1  0  0  0  0
 14 17  1  6  0  0  0
 14  9  1  0  0  0  0
 15  4  1  0  0  0  0
 18 17  1  0  0  0  0
 19 18  1  0  0  0  0
 20 19  1  0  0  0  0
 22 21  1  6  0  0  0
 22 23  1  0  0  0  0
 22 20  1  0  0  0  0
 23 25  1  0  0  0  0
 25 24  1  0  0  0  0
 26 27  1  0  0  0  0
 27 30  1  0  0  0  0
 28 34  1  0  0  0  0
 28 29  1  0  0  0  0
 30 33  1  0  0  0  0
 30 31  2  0  0  0  0
 31 29  1  0  0  0  0
 32 33  1  0  0  0  0
 32 34  1  0  0  0  0
M  END
>  <MODEL>
4

>  <REMARK>
 VINA RESULT:      -7.5      2.408      5.975
  Name = 
  10 active torsions:
  status: ('A' for Active; 'I' for Inactive)
    1  A    between atoms: C_3  and  C_13
    2  A    between atoms: C_3  and  N_17
    3  A    between atoms: N_5  and  C_26
    4  A    between atoms: C_12  and  C_28
    5  A    between atoms: C_13  and  C_33
    6  A    between atoms: O_14  and  C_20
    7  A    between atoms: N_17  and  C_29
    8  A    between atoms: C_20  and  C_34
    9  A    between atoms: C_26  and  C_28
   10  A    between atoms: C_33  and  C_34
                            x       y       z     vdW  Elec       q    Type
                         _______ _______ _______ _____ _____    ______ ____

>  <TORSDO>
F 10

$$$$
=
 OpenBabel11062407593D

 34 38  0  0  1  0  0  0  0  0999 V2000
  161.2250  208.3700  154.1830 C   0  0  0  0  0  0  0  0  0  0  0  0
  161.1280  206.8940  152.2340 C   0  0  0  0  0  0  0  0  0  0  0  0
  161.6680  209.2590  151.9680 C   0  0  0  0  0  0  0  0  0  0  0  0
  162.0500  209.8970  149.4700 N   0  0  0  0  0  0  0  0  0  0  0  0
  160.6860  206.0200  154.4500 C   0  0  0  0  0  3  0  0  0  0  0  0
  160.8010  205.8220  153.0670 C   0  0  0  0  0  3  0  0  0  0  0  0
  161.5780  207.8200  150.0380 C   0  0  0  0  0  0  0  0  0  0  0  0
  161.3400  208.1720  152.7980 C   0  0  0  0  0  0  0  0  0  0  0  0
  162.1070  209.2370  148.2720 O   0  0  0  0  0  0  0  0  0  0  0  0
  160.8970  207.2900  155.0080 C   0  0  0  0  0  3  0  0  0  0  0  0
  161.7710  210.6990  153.8520 C   0  0  0  0  0  3  0  0  0  0  0  0
  161.4420  209.6440  154.7140 C   0  0  0  0  0  3  0  0  0  0  0  0
  161.2460  206.7190  150.8410 O   0  0  0  0  0  0  0  0  0  0  0  0
  161.7030  207.8980  148.5640 C   0  0  1  0  0  3  0  0  0  0  0  0
  161.7870  209.0000  150.5240 C   0  0  0  0  0  0  0  0  0  0  0  0
  161.8770  210.4900  152.5100 N   0  0  0  0  0  0  0  0  0  0  0  0
  162.7230  206.9680  148.1120 N   0  0  0  0  0  2  0  0  0  0  0  0
  162.1520  206.2030  147.0150 C   0  0  0  0  0  2  0  0  0  0  0  0
  162.3330  204.7170  147.2660 C   0  0  0  0  0  2  0  0  0  0  0  0
  161.1690  204.1760  148.0880 C   0  0  0  0  0  2  0  0  0  0  0  0
  160.6150  202.0380  147.1420 O   0  0  0  0  0  1  0  0  0  0  0  0
  161.2280  202.6560  148.2350 C   0  0  2  0  0  3  0  0  0  0  0  0
  160.5800  202.1850  149.5270 C   0  0  0  0  0  2  0  0  0  0  0  0
  161.2060  202.7920  151.5540 C   0  0  0  0  0  1  0  0  0  0  0  0
  160.5020  203.2410  150.4370 O   0  0  0  0  0  0  0  0  0  0  0  0
  161.5810  211.2730  149.5330 C   0  0  0  0  0  2  0  0  0  0  0  0
  161.9240  211.9990  148.2450 C   0  0  0  0  0  2  0  0  0  0  0  0
  157.7980  212.6510  146.6730 C   0  0  0  0  0  2  0  0  0  0  0  0
  159.0660  212.6770  145.8410 C   0  0  0  0  0  2  0  0  0  0  0  0
  160.6950  212.6100  147.6730 C   0  0  0  0  0  0  0  0  0  0  0  0
  160.2000  212.1230  146.5730 N   0  0  0  0  0  0  0  0  0  0  0  0
  158.6820  213.6950  148.7680 C   0  0  0  0  0  2  0  0  0  0  0  0
  160.0820  213.7060  148.3630 N   0  0  0  0  0  2  0  0  0  0  0  0
  157.7540  213.8690  147.5770 C   0  0  0  0  0  2  0  0  0  0  0  0
  1 12  1  0  0  0  0
  1 10  2  0  0  0  0
  2  8  2  0  0  0  0
  2  6  1  0  0  0  0
  3 16  2  0  0  0  0
  3  8  1  0  0  0  0
  4 26  1  0  0  0  0
  4 15  1  0  0  0  0
  5 10  1  0  0  0  0
  6  5  2  0  0  0  0
  7 15  2  0  0  0  0
  7 13  1  0  0  0  0
  8  1  1  0  0  0  0
  9 14  1  0  0  0  0
  9  4  1  0  0  0  0
 11 12  2  0  0  0  0
 13  2  1  0  0  0  0
 14 17  1  1  0  0  0
 14  7  1  0  0  0  0
 15  3  1  0  0  0  0
 16 11  1  0  0  0  0
 18 19  1  0  0  0  0
 18 17  1  0  0  0  0
 19 20  1  0  0  0  0
 20 22  1  0  0  0  0
 22 21  1  6  0  0  0
 22 23  1  0  0  0  0
 23 25  1  0  0  0  0
 25 24  1  0  0  0  0
 27 26  1  0  0  0  0
 28 34  1  0  0  0  0
 29 31  1  0  0  0  0
 29 28  1  0  0  0  0
 30 27  1  0  0  0  0
 30 33  1  0  0  0  0
 31 30  2  0  0  0  0
 33 32  1  0  0  0  0
 34 32  1  0  0  0  0
M  END
>  <MODEL>
5

>  <REMARK>
 VINA RESULT:      -7.5      2.390      6.628
  Name = 
  10 active torsions:
  status: ('A' for Active; 'I' for Inactive)
    1  A    between atoms: C_3  and  C_13
    2  A    between atoms: C_3  and  N_17
    3  A    between atoms: N_5  and  C_26
    4  A    between atoms: C_12  and  C_28
    5  A    between atoms: C_13  and  C_33
    6  A    between atoms: O_14  and  C_20
    7  A    between atoms: N_17  and  C_29
    8  A    between atoms: C_20  and  C_34
    9  A    between atoms: C_26  and  C_28
   10  A    between atoms: C_33  and  C_34
                            x       y       z     vdW  Elec       q    Type
                         _______ _______ _______ _____ _____    ______ ____

>  <TORSDO>
F 10

$$$$
=
 OpenBabel11062407593D

 34 38  0  0  1  0  0  0  0  0999 V2000
  161.1720  202.3320  148.1490 C   0  0  0  0  0  0  0  0  0  0  0  0
  161.1950  204.5940  147.2190 C   0  0  0  0  0  0  0  0  0  0  0  0
  161.2180  204.2510  149.6350 C   0  0  0  0  0  0  0  0  0  0  0  0
  161.2280  206.5080  150.9390 N   0  0  0  0  0  0  0  0  0  0  0  0
  161.1470  202.6700  145.7470 C   0  0  0  0  0  3  0  0  0  0  0  0
  161.1700  204.0590  145.9280 C   0  0  0  0  0  3  0  0  0  0  0  0
  161.2410  206.4860  148.7350 C   0  0  0  0  0  0  0  0  0  0  0  0
  161.1950  203.7240  148.3320 C   0  0  0  0  0  0  0  0  0  0  0  0
  161.3050  207.8380  150.6260 O   0  0  0  0  0  0  0  0  0  0  0  0
  161.1480  201.8070  146.8540 C   0  0  0  0  0  3  0  0  0  0  0  0
  161.2030  202.0620  150.5490 C   0  0  0  0  0  3  0  0  0  0  0  0
  161.1760  201.4950  149.2680 C   0  0  0  0  0  3  0  0  0  0  0  0
  161.2150  205.9880  147.4250 O   0  0  0  0  0  0  0  0  0  0  0  0
  161.2090  207.8920  149.2010 C   0  0  1  0  0  3  0  0  0  0  0  0
  161.2520  205.7170  149.7740 C   0  0  0  0  0  0  0  0  0  0  0  0
  161.2240  203.4150  150.7080 N   0  0  0  0  0  0  0  0  0  0  0  0
  162.3500  208.6110  148.6600 N   0  0  0  0  0  2  0  0  0  0  0  0
  162.3320  209.9440  149.2390 C   0  0  0  0  0  2  0  0  0  0  0  0
  161.8590  210.9540  148.2090 C   0  0  0  0  0  2  0  0  0  0  0  0
  162.7260  212.2070  148.2620 C   0  0  0  0  0  2  0  0  0  0  0  0
  161.1290  213.6460  149.3330 O   0  0  0  0  0  1  0  0  0  0  0  0
  161.8930  213.4840  148.1760 C   0  0  2  0  0  3  0  0  0  0  0  0
  160.9900  213.4910  146.9520 C   0  0  0  0  0  2  0  0  0  0  0  0
  160.8820  212.9530  144.8160 C   0  0  0  0  0  1  0  0  0  0  0  0
  161.7570  213.4330  145.7890 O   0  0  0  0  0  0  0  0  0  0  0  0
  160.4990  206.0690  152.1190 C   0  0  0  0  0  2  0  0  0  0  0  0
  161.3770  206.1950  153.3510 C   0  0  0  0  0  2  0  0  0  0  0  0
  160.7380  209.0140  156.7510 C   0  0  0  0  0  2  0  0  0  0  0  0
  159.8170  207.8680  156.3790 C   0  0  0  0  0  2  0  0  0  0  0  0
  160.8460  207.2650  154.2370 C   0  0  0  0  0  0  0  0  0  0  0  0
  160.4510  206.9530  155.4360 N   0  0  0  0  0  0  0  0  0  0  0  0
  161.4300  209.7230  154.4530 C   0  0  0  0  0  2  0  0  0  0  0  0
  160.8050  208.6110  153.7480 N   0  0  0  0  0  2  0  0  0  0  0  0
  160.6480  210.1050  155.6990 C   0  0  0  0  0  2  0  0  0  0  0  0
  1  8  2  0  0  0  0
  1 12  1  0  0  0  0
  2 13  1  0  0  0  0
  2  8  1  0  0  0  0
  3 15  1  0  0  0  0
  3 16  2  0  0  0  0
  4 26  1  0  0  0  0
  5  6  1  0  0  0  0
  5 10  2  0  0  0  0
  6  2  2  0  0  0  0
  7 14  1  0  0  0  0
  7 15  2  0  0  0  0
  8  3  1  0  0  0  0
  9  4  1  0  0  0  0
 10  1  1  0  0  0  0
 11 16  1  0  0  0  0
 12 11  2  0  0  0  0
 13  7  1  0  0  0  0
 14 17  1  6  0  0  0
 14  9  1  0  0  0  0
 15  4  1  0  0  0  0
 17 18  1  0  0  0  0
 19 20  1  0  0  0  0
 19 18  1  0  0  0  0
 22 20  1  0  0  0  0
 22 21  1  1  0  0  0
 23 22  1  0  0  0  0
 24 25  1  0  0  0  0
 25 23  1  0  0  0  0
 26 27  1  0  0  0  0
 27 30  1  0  0  0  0
 29 28  1  0  0  0  0
 30 31  2  0  0  0  0
 31 29  1  0  0  0  0
 32 34  1  0  0  0  0
 33 30  1  0  0  0  0
 33 32  1  0  0  0  0
 34 28  1  0  0  0  0
M  END
>  <MODEL>
6

>  <REMARK>
 VINA RESULT:      -7.4      2.577      6.219
  Name = 
  10 active torsions:
  status: ('A' for Active; 'I' for Inactive)
    1  A    between atoms: C_3  and  C_13
    2  A    between atoms: C_3  and  N_17
    3  A    between atoms: N_5  and  C_26
    4  A    between atoms: C_12  and  C_28
    5  A    between atoms: C_13  and  C_33
    6  A    between atoms: O_14  and  C_20
    7  A    between atoms: N_17  and  C_29
    8  A    between atoms: C_20  and  C_34
    9  A    between atoms: C_26  and  C_28
   10  A    between atoms: C_33  and  C_34
                            x       y       z     vdW  Elec       q    Type
                         _______ _______ _______ _____ _____    ______ ____

>  <TORSDO>
F 10

$$$$
=
 OpenBabel11062407593D

 34 38  0  0  1  0  0  0  0  0999 V2000
  161.0580  204.8860  149.6190 C   0  0  0  0  0  0  0  0  0  0  0  0
  161.4070  206.0650  151.7340 C   0  0  0  0  0  0  0  0  0  0  0  0
  161.3030  207.3010  149.6330 C   0  0  0  0  0  0  0  0  0  0  0  0
  161.6400  209.8620  149.9900 N   0  0  0  0  0  0  0  0  0  0  0  0
  161.1630  203.6540  151.7060 C   0  0  0  0  0  3  0  0  0  0  0  0
  161.3610  204.8470  152.4160 C   0  0  0  0  0  3  0  0  0  0  0  0
  161.6470  208.4780  151.7060 C   0  0  0  0  0  0  0  0  0  0  0  0
  161.2560  206.0810  150.3300 C   0  0  0  0  0  0  0  0  0  0  0  0
  161.7790  210.7070  151.0570 O   0  0  0  0  0  0  0  0  0  0  0  0
  161.0130  203.6720  150.3110 C   0  0  0  0  0  3  0  0  0  0  0  0
  160.9590  206.1690  147.5750 C   0  0  0  0  0  3  0  0  0  0  0  0
  160.9090  204.9320  148.2310 C   0  0  0  0  0  3  0  0  0  0  0  0
  161.6080  207.2760  152.4270 O   0  0  0  0  0  0  0  0  0  0  0  0
  161.8980  209.8530  152.1970 C   0  0  1  0  0  3  0  0  0  0  0  0
  161.5030  208.5280  150.4230 C   0  0  0  0  0  0  0  0  0  0  0  0
  161.1520  207.3190  148.2800 N   0  0  0  0  0  0  0  0  0  0  0  0
  160.8930  210.2100  153.1840 N   0  0  0  0  0  2  0  0  0  0  0  0
  161.5210  210.1140  154.4910 C   0  0  0  0  0  2  0  0  0  0  0  0
  160.4680  209.8840  155.5600 C   0  0  0  0  0  2  0  0  0  0  0  0
  160.1530  211.1910  156.2790 C   0  0  0  0  0  2  0  0  0  0  0  0
  157.9280  210.6830  155.5290 O   0  0  0  0  0  1  0  0  0  0  0  0
  158.7710  211.7280  155.9140 C   0  0  2  0  0  3  0  0  0  0  0  0
  158.8410  212.7710  154.8090 C   0  0  0  0  0  2  0  0  0  0  0  0
  157.9630  213.4520  152.9040 C   0  0  0  0  0  1  0  0  0  0  0  0
  158.1830  212.3080  153.6690 O   0  0  0  0  0  0  0  0  0  0  0  0
  162.2760  210.1670  148.7180 C   0  0  0  0  0  2  0  0  0  0  0  0
  162.6050  211.6470  148.6420 C   0  0  0  0  0  2  0  0  0  0  0  0
  158.4800  212.7740  147.3700 C   0  0  0  0  0  2  0  0  0  0  0  0
  159.6880  212.7010  146.4560 C   0  0  0  0  0  2  0  0  0  0  0  0
  161.4140  212.4010  148.1720 C   0  0  0  0  0  0  0  0  0  0  0  0
  160.8020  212.0070  147.0940 N   0  0  0  0  0  0  0  0  0  0  0  0
  159.5990  213.6460  149.4310 C   0  0  0  0  0  2  0  0  0  0  0  0
  160.9640  213.5280  148.9340 N   0  0  0  0  0  2  0  0  0  0  0  0
  158.6210  213.9580  148.3100 C   0  0  0  0  0  2  0  0  0  0  0  0
  1 10  2  0  0  0  0
  1  8  1  0  0  0  0
  2  6  1  0  0  0  0
  2 13  1  0  0  0  0
  3  8  1  0  0  0  0
  3 15  1  0  0  0  0
  4 15  1  0  0  0  0
  4  9  1  0  0  0  0
  5  6  2  0  0  0  0
  7 14  1  0  0  0  0
  7 13  1  0  0  0  0
  8  2  2  0  0  0  0
  9 14  1  0  0  0  0
 10  5  1  0  0  0  0
 11 12  2  0  0  0  0
 11 16  1  0  0  0  0
 12  1  1  0  0  0  0
 14 17  1  1  0  0  0
 15  7  2  0  0  0  0
 16  3  2  0  0  0  0
 17 18  1  0  0  0  0
 18 19  1  0  0  0  0
 19 20  1  0  0  0  0
 22 21  1  6  0  0  0
 22 20  1  0  0  0  0
 23 22  1  0  0  0  0
 24 25  1  0  0  0  0
 25 23  1  0  0  0  0
 26  4  1  0  0  0  0
 27 26  1  0  0  0  0
 28 34  1  0  0  0  0
 29 31  1  0  0  0  0
 29 28  1  0  0  0  0
 30 27  1  0  0  0  0
 30 33  1  0  0  0  0
 31 30  2  0  0  0  0
 33 32  1  0  0  0  0
 34 32  1  0  0  0  0
M  END
>  <MODEL>
7

>  <REMARK>
 VINA RESULT:      -7.4      1.797      2.703
  Name = 
  10 active torsions:
  status: ('A' for Active; 'I' for Inactive)
    1  A    between atoms: C_3  and  C_13
    2  A    between atoms: C_3  and  N_17
    3  A    between atoms: N_5  and  C_26
    4  A    between atoms: C_12  and  C_28
    5  A    between atoms: C_13  and  C_33
    6  A    between atoms: O_14  and  C_20
    7  A    between atoms: N_17  and  C_29
    8  A    between atoms: C_20  and  C_34
    9  A    between atoms: C_26  and  C_28
   10  A    between atoms: C_33  and  C_34
                            x       y       z     vdW  Elec       q    Type
                         _______ _______ _______ _____ _____    ______ ____

>  <TORSDO>
F 10

$$$$
=
 OpenBabel11062407593D

 34 38  0  0  1  0  0  0  0  0999 V2000
  161.1190  207.9410  154.4470 C   0  0  0  0  0  0  0  0  0  0  0  0
  161.7950  209.9760  153.2690 C   0  0  0  0  0  0  0  0  0  0  0  0
  161.3440  207.9230  152.0300 C   0  0  0  0  0  0  0  0  0  0  0  0
  161.7140  208.2300  149.4680 N   0  0  0  0  0  0  0  0  0  0  0  0
  161.5680  209.9790  155.6820 C   0  0  0  0  0  3  0  0  0  0  0  0
  161.8690  210.6520  154.4890 C   0  0  0  0  0  3  0  0  0  0  0  0
  162.0090  209.9180  150.8540 C   0  0  0  0  0  0  0  0  0  0  0  0
  161.4200  208.6140  153.2520 C   0  0  0  0  0  0  0  0  0  0  0  0
  162.0170  209.2630  148.6230 O   0  0  0  0  0  0  0  0  0  0  0  0
  161.1950  208.6270  155.6620 C   0  0  0  0  0  3  0  0  0  0  0  0
  160.6820  205.9440  153.1600 C   0  0  0  0  0  3  0  0  0  0  0  0
  160.7480  206.5950  154.3990 C   0  0  0  0  0  3  0  0  0  0  0  0
  162.0950  210.6310  152.0590 O   0  0  0  0  0  0  0  0  0  0  0  0
  162.3250  210.3660  149.4780 C   0  0  1  0  0  3  0  0  0  0  0  0
  161.6590  208.6750  150.8030 C   0  0  0  0  0  0  0  0  0  0  0  0
  160.9780  206.6130  152.0100 N   0  0  0  0  0  0  0  0  0  0  0  0
  161.4890  211.5030  149.1320 N   0  0  0  0  0  2  0  0  0  0  0  0
  162.2810  212.3750  148.2800 C   0  0  0  0  0  2  0  0  0  0  0  0
  161.7250  213.7870  148.3200 C   0  0  0  0  0  2  0  0  0  0  0  0
  160.4940  213.8450  149.2170 C   0  0  0  0  0  2  0  0  0  0  0  0
  158.1380  213.4720  148.9330 O   0  0  0  0  0  1  0  0  0  0  0  0
  159.2280  214.1870  148.4320 C   0  0  2  0  0  3  0  0  0  0  0  0
  159.3910  213.9110  146.9460 C   0  0  0  0  0  2  0  0  0  0  0  0
  159.4480  212.3550  145.3840 C   0  0  0  0  0  1  0  0  0  0  0  0
  158.9110  212.6380  146.6390 O   0  0  0  0  0  0  0  0  0  0  0  0
  162.1350  206.8730  149.1540 C   0  0  0  0  0  2  0  0  0  0  0  0
  160.9890  206.1050  148.5240 C   0  0  0  0  0  2  0  0  0  0  0  0
  160.1790  201.8160  149.4510 C   0  0  0  0  0  2  0  0  0  0  0  0
  160.8400  202.8050  150.3920 C   0  0  0  0  0  2  0  0  0  0  0  0
  161.1410  204.6540  148.8100 C   0  0  0  0  0  0  0  0  0  0  0  0
  160.6760  204.1790  149.9280 N   0  0  0  0  0  0  0  0  0  0  0  0
  161.1450  202.6240  147.2900 C   0  0  0  0  0  2  0  0  0  0  0  0
  161.7770  203.8200  147.8340 N   0  0  0  0  0  2  0  0  0  0  0  0
  161.1200  201.4940  148.3050 C   0  0  0  0  0  2  0  0  0  0  0  0
  1 10  2  0  0  0  0
  2  6  1  0  0  0  0
  3  8  1  0  0  0  0
  4 15  1  0  0  0  0
  6  5  2  0  0  0  0
  7 13  1  0  0  0  0
  8  2  2  0  0  0  0
  8  1  1  0  0  0  0
  9  4  1  0  0  0  0
  9 14  1  0  0  0  0
 10  5  1  0  0  0  0
 11 12  2  0  0  0  0
 12  1  1  0  0  0  0
 13  2  1  0  0  0  0
 14 17  1  6  0  0  0
 14  7  1  0  0  0  0
 15  7  2  0  0  0  0
 15  3  1  0  0  0  0
 16  3  2  0  0  0  0
 16 11  1  0  0  0  0
 18 19  1  0  0  0  0
 18 17  1  0  0  0  0
 19 20  1  0  0  0  0
 22 21  1  1  0  0  0
 22 20  1  0  0  0  0
 23 22  1  0  0  0  0
 24 25  1  0  0  0  0
 25 23  1  0  0  0  0
 26  4  1  0  0  0  0
 27 30  1  0  0  0  0
 27 26  1  0  0  0  0
 28 29  1  0  0  0  0
 30 31  2  0  0  0  0
 31 29  1  0  0  0  0
 32 33  1  0  0  0  0
 32 34  1  0  0  0  0
 33 30  1  0  0  0  0
 34 28  1  0  0  0  0
M  END
>  <MODEL>
8

>  <REMARK>
 VINA RESULT:      -7.4      2.509      7.648
  Name = 
  10 active torsions:
  status: ('A' for Active; 'I' for Inactive)
    1  A    between atoms: C_3  and  C_13
    2  A    between atoms: C_3  and  N_17
    3  A    between atoms: N_5  and  C_26
    4  A    between atoms: C_12  and  C_28
    5  A    between atoms: C_13  and  C_33
    6  A    between atoms: O_14  and  C_20
    7  A    between atoms: N_17  and  C_29
    8  A    between atoms: C_20  and  C_34
    9  A    between atoms: C_26  and  C_28
   10  A    between atoms: C_33  and  C_34
                            x       y       z     vdW  Elec       q    Type
                         _______ _______ _______ _____ _____    ______ ____

>  <TORSDO>
F 10

$$$$
=
 OpenBabel11062407593D

 34 38  0  0  1  0  0  0  0  0999 V2000
  161.1520  205.1960  152.5270 C   0  0  0  0  0  0  0  0  0  0  0  0
  160.8790  204.4950  150.1980 C   0  0  0  0  0  0  0  0  0  0  0  0
  161.5610  206.7770  150.7300 C   0  0  0  0  0  0  0  0  0  0  0  0
  161.8780  208.2240  148.5850 N   0  0  0  0  0  0  0  0  0  0  0  0
  160.4730  202.9280  152.0010 C   0  0  0  0  0  3  0  0  0  0  0  0
  160.5170  203.2170  150.6300 C   0  0  0  0  0  3  0  0  0  0  0  0
  161.2970  206.1040  148.4320 C   0  0  0  0  0  0  0  0  0  0  0  0
  161.1970  205.4870  151.1530 C   0  0  0  0  0  0  0  0  0  0  0  0
  161.8430  208.0190  147.2330 O   0  0  0  0  0  0  0  0  0  0  0  0
  160.7890  203.9130  152.9480 C   0  0  0  0  0  3  0  0  0  0  0  0
  161.8350  207.4670  152.9840 C   0  0  0  0  0  3  0  0  0  0  0  0
  161.4740  206.1950  153.4490 C   0  0  0  0  0  3  0  0  0  0  0  0
  160.9270  204.8090  148.8260 O   0  0  0  0  0  0  0  0  0  0  0  0
  161.3640  206.6830  147.0710 C   0  0  1  0  0  3  0  0  0  0  0  0
  161.6020  207.0300  149.2800 C   0  0  0  0  0  0  0  0  0  0  0  0
  161.8720  207.7320  151.6480 N   0  0  0  0  0  0  0  0  0  0  0  0
  162.3020  205.9210  146.2630 N   0  0  0  0  0  2  0  0  0  0  0  0
  161.7070  205.7640  144.9460 C   0  0  0  0  0  2  0  0  0  0  0  0
  160.8930  204.4830  144.8910 C   0  0  0  0  0  2  0  0  0  0  0  0
  161.5960  203.3790  145.6730 C   0  0  0  0  0  2  0  0  0  0  0  0
  159.6650  202.2040  144.8600 O   0  0  0  0  0  1  0  0  0  0  0  0
  160.8070  202.0710  145.6520 C   0  0  2  0  0  3  0  0  0  0  0  0
  160.4190  201.6190  147.0510 C   0  0  0  0  0  2  0  0  0  0  0  0
  161.5580  200.5320  148.5970 C   0  0  0  0  0  1  0  0  0  0  0  0
  160.9940  200.3790  147.3310 O   0  0  0  0  0  0  0  0  0  0  0  0
  161.5040  209.5130  149.1470 C   0  0  0  0  0  2  0  0  0  0  0  0
  162.3850  210.6070  148.5720 C   0  0  0  0  0  2  0  0  0  0  0  0
  158.9420  213.2170  147.4580 C   0  0  0  0  0  2  0  0  0  0  0  0
  160.0350  212.7580  146.5110 C   0  0  0  0  0  2  0  0  0  0  0  0
  161.5450  211.7660  148.1680 C   0  0  0  0  0  0  0  0  0  0  0  0
  160.8250  211.6760  147.0890 N   0  0  0  0  0  0  0  0  0  0  0  0
  160.3150  213.5160  149.5280 C   0  0  0  0  0  2  0  0  0  0  0  0
  161.5410  212.9380  148.9920 N   0  0  0  0  0  2  0  0  0  0  0  0
  159.5090  214.2180  148.4480 C   0  0  0  0  0  2  0  0  0  0  0  0
  1 10  1  0  0  0  0
  1 12  1  0  0  0  0
  2  6  2  0  0  0  0
  2  8  1  0  0  0  0
  3  8  1  0  0  0  0
  3 16  2  0  0  0  0
  4 26  1  0  0  0  0
  4 15  1  0  0  0  0
  5 10  2  0  0  0  0
  6  5  1  0  0  0  0
  7 13  1  0  0  0  0
  7 15  2  0  0  0  0
  8  1  2  0  0  0  0
  9  4  1  0  0  0  0
 11 12  2  0  0  0  0
 13  2  1  0  0  0  0
 14 17  1  6  0  0  0
 14  9  1  0  0  0  0
 14  7  1  0  0  0  0
 15  3  1  0  0  0  0
 16 11  1  0  0  0  0
 18 17  1  0  0  0  0
 19 18  1  0  0  0  0
 19 20  1  0  0  0  0
 22 21  1  6  0  0  0
 22 20  1  0  0  0  0
 22 23  1  0  0  0  0
 23 25  1  0  0  0  0
 25 24  1  0  0  0  0
 27 26  1  0  0  0  0
 28 34  1  0  0  0  0
 29 31  1  0  0  0  0
 29 28  1  0  0  0  0
 30 27  1  0  0  0  0
 30 33  1  0  0  0  0
 31 30  2  0  0  0  0
 33 32  1  0  0  0  0
 34 32  1  0  0  0  0
M  END
>  <MODEL>
9

>  <REMARK>
 VINA RESULT:      -7.1      3.317      7.104
  Name = 
  10 active torsions:
  status: ('A' for Active; 'I' for Inactive)
    1  A    between atoms: C_3  and  C_13
    2  A    between atoms: C_3  and  N_17
    3  A    between atoms: N_5  and  C_26
    4  A    between atoms: C_12  and  C_28
    5  A    between atoms: C_13  and  C_33
    6  A    between atoms: O_14  and  C_20
    7  A    between atoms: N_17  and  C_29
    8  A    between atoms: C_20  and  C_34
    9  A    between atoms: C_26  and  C_28
   10  A    between atoms: C_33  and  C_34
                            x       y       z     vdW  Elec       q    Type
                         _______ _______ _______ _____ _____    ______ ____

>  <TORSDO>
F 10

$$$$
