=
 OpenBabel11052422543D

 28 33  0  0  1  0  0  0  0  0999 V2000
  160.7420  203.5790  148.0870 C   0  0  0  0  0  0  0  0  0  0  0  0
  160.6760  204.5720  146.9400 C   0  0  1  0  0  3  0  0  0  0  0  0
  161.1330  206.4080  148.5720 C   0  0  2  0  0  3  0  0  0  0  0  0
  161.2390  207.6920  152.6730 C   0  0  0  0  0  2  0  0  0  0  0  0
  160.8290  200.6770  151.2770 C   0  0  0  0  0  1  0  0  0  0  0  0
  163.5170  204.9300  145.8150 C   0  0  0  0  0  2  0  0  0  0  0  0
  161.5330  205.8250  147.2160 C   0  0  1  0  0  3  0  0  0  0  0  0
  161.3060  204.9440  144.4840 C   0  0  0  0  0  2  0  0  0  0  0  0
  162.0050  209.6200  150.4780 C   0  0  0  0  0  2  0  0  0  0  0  0
  161.5180  205.8010  151.0130 C   0  0  0  0  0  0  0  0  0  0  0  0
  160.9210  203.9270  145.5620 C   0  0  0  0  0  2  0  0  0  0  0  0
  161.2900  209.2120  152.9110 C   0  0  2  0  0  0  0  0  0  0  0  0
  161.8510  207.2430  151.3360 C   0  0  1  0  0  3  0  0  0  0  0  0
  161.8670  207.7130  148.8710 C   0  0  0  0  0  2  0  0  0  0  0  0
  162.2690  209.9180  151.9630 C   0  0  0  0  0  2  0  0  0  0  0  0
  161.0590  203.0690  150.4640 C   0  0  0  0  0  0  0  0  0  0  0  0
  161.2590  205.3850  149.6850 C   0  0  0  0  0  0  0  0  0  0  0  0
  161.4320  208.2220  150.2310 C   0  0  2  0  0  3  0  0  0  0  0  0
  160.4930  201.3020  148.9010 C   0  0  0  0  0  3  0  0  0  0  0  0
  161.3600  203.4960  151.7620 C   0  0  0  0  0  3  0  0  0  0  0  0
  160.7980  201.7100  150.1990 C   0  0  0  0  0  0  0  0  0  0  0  0
  162.7630  205.4340  144.5800 C   0  0  0  0  0  2  0  0  0  0  0  0
  161.6990  209.4390  154.2240 O   0  0  0  0  0  1  0  0  0  0  0  0
  159.8960  209.7880  152.7350 C   0  0  0  0  0  1  0  0  0  0  0  0
  161.5980  204.8420  152.0290 C   0  0  0  0  0  3  0  0  0  0  0  0
  160.4600  202.2250  147.8580 C   0  0  0  0  0  3  0  0  0  0  0  0
  161.0140  204.0160  149.4090 C   0  0  0  0  0  0  0  0  0  0  0  0
  163.0530  205.5860  147.1200 C   0  0  0  0  0  2  0  0  0  0  0  0
  1 27  1  0  0  0  0
  2 11  1  6  0  0  0
  2  7  1  0  0  0  0
  2  1  1  0  0  0  0
  3 14  1  1  0  0  0
  3 17  1  0  0  0  0
  4 12  1  0  0  0  0
  6 28  1  0  0  0  0
  7 28  1  1  0  0  0
  7  3  1  0  0  0  0
  8 22  1  0  0  0  0
  8 11  1  0  0  0  0
  9 15  1  0  0  0  0
 10 13  1  0  0  0  0
 10 25  1  0  0  0  0
 12 24  1  6  0  0  0
 12 23  1  0  0  0  0
 13  4  1  1  0  0  0
 15 12  1  0  0  0  0
 16 20  1  0  0  0  0
 17 10  2  0  0  0  0
 18 14  1  6  0  0  0
 18  9  1  0  0  0  0
 18 13  1  0  0  0  0
 19 21  2  0  0  0  0
 20 25  2  0  0  0  0
 21 16  1  0  0  0  0
 21  5  1  0  0  0  0
 22  6  1  0  0  0  0
 26  1  2  0  0  0  0
 26 19  1  0  0  0  0
 27 17  1  0  0  0  0
 27 16  2  0  0  0  0
M  END
>  <MODEL>
1

>  <REMARK>
 VINA RESULT:     -10.1      0.000      0.000
  Name = 
  0 active torsions:
  status: ('A' for Active; 'I' for Inactive)
                            x       y       z     vdW  Elec       q    Type
                         _______ _______ _______ _____ _____    ______ ____

>  <TORSDO>
F 0

$$$$
