=
 OpenBabel11062409123D

 37 41  0  0  1  0  0  0  0  0999 V2000
  161.5660  205.9130  151.7810 C   0  0  0  0  0  2  0  0  0  0  0  0
  162.1930  210.0410  153.1690 C   0  0  2  0  0  3  0  0  0  0  0  0
  161.2410  207.7380  153.5000 C   0  0  2  0  0  3  0  0  0  0  0  0
  161.2080  210.6420  152.1470 C   0  0  1  0  0  3  0  0  0  0  0  0
  162.4360  208.5370  152.9730 C   0  0  0  0  0  2  0  0  0  0  0  0
  160.9920  208.0460  154.9500 C   0  0  0  0  0  3  0  0  0  0  0  0
  161.0140  209.4780  149.8430 C   0  0  1  0  0  3  0  0  0  0  0  0
  160.9120  207.0050  149.6210 C   0  0  0  0  0  2  0  0  0  0  0  0
  161.7930  210.3330  154.5950 C   0  0  0  0  0  0  0  0  0  0  0  0
  161.2200  209.2690  155.4420 C   0  0  0  0  0  3  0  0  0  0  0  0
  161.8290  208.1980  149.8460 C   0  0  1  0  0  3  0  0  0  0  0  0
  161.9850  211.5410  155.1040 C   0  0  0  0  0  2  0  0  0  0  0  0
  161.7420  210.5190  150.7000 C   0  0  1  0  0  3  0  0  0  0  0  0
  161.3840  206.2390  153.2630 C   0  0  0  0  0  2  0  0  0  0  0  0
  160.4080  206.4530  150.9490 C   0  0  0  0  0  2  0  0  0  0  0  0
  161.8390  209.0910  148.6270 C   0  0  0  0  0  2  0  0  0  0  0  0
  159.7640  210.1610  152.3460 C   0  0  0  0  0  2  0  0  0  0  0  0
  158.2170  211.8830  152.1260 C   0  0  0  0  0  1  0  0  0  0  0  0
  158.9980  211.1390  153.1010 N   0  0  0  0  0  0  0  0  0  0  0  0
  158.6550  212.1700  155.8970 C   0  0  0  0  0  2  0  0  0  0  0  0
  158.1400  210.8460  155.3780 C   0  0  1  0  0  3  0  0  0  0  0  0
  157.0070  211.3330  154.4910 C   0  0  2  0  0  3  0  0  0  0  0  0
  155.5290  211.5630  156.3980 C   0  0  0  0  0  3  0  0  0  0  0  0
  156.3230  212.7840  156.8480 C   0  0  0  0  0  2  0  0  0  0  0  0
  155.8290  210.8760  155.2760 C   0  0  0  0  0  3  0  0  0  0  0  0
  157.8190  212.5160  157.1440 C   0  0  0  0  0  2  0  0  0  0  0  0
  158.0520  210.3980  153.9260 C   0  0  1  0  0  3  0  0  0  0  0  0
  161.8840  211.8650  149.9790 C   0  0  2  0  0  3  0  0  0  0  0  0
  159.8010  212.7340  148.7930 C   0  0  0  0  0  1  0  0  0  0  0  0
  160.6070  212.7110  150.0820 C   0  0  0  0  0  3  0  0  0  0  0  0
  160.9240  214.1270  150.5220 C   0  0  0  0  0  1  0  0  0  0  0  0
  162.4440  211.7390  148.5580 C   0  0  0  0  0  2  0  0  0  0  0  0
  163.4500  212.8360  148.2620 C   0  0  0  0  0  2  0  0  0  0  0  0
  162.8430  213.8650  147.3210 C   0  0  0  0  0  2  0  0  0  0  0  0
  162.1850  213.1770  146.1390 C   0  0  0  0  0  2  0  0  0  0  0  0
  163.1800  213.1010  143.9300 N   0  0  0  0  0  1  0  0  0  0  0  0
  162.4560  213.9470  144.8610 C   0  0  0  0  0  2  0  0  0  0  0  0
  1 14  1  0  0  0  0
  2  5  1  1  0  0  0
  2  9  1  0  0  0  0
  3  5  1  1  0  0  0
  3  6  1  0  0  0  0
  4 17  1  6  0  0  0
  4  2  1  0  0  0  0
  6 10  2  0  0  0  0
  7 16  1  6  0  0  0
  7 11  1  0  0  0  0
  7 13  1  0  0  0  0
  8 11  1  0  0  0  0
  8 15  1  0  0  0  0
  9 12  2  0  0  0  0
  9 10  1  0  0  0  0
 11 16  1  6  0  0  0
 13 28  1  6  0  0  0
 13  4  1  0  0  0  0
 14  3  1  0  0  0  0
 15  1  1  0  0  0  0
 17 19  1  0  0  0  0
 18 19  1  0  0  0  0
 20 26  1  0  0  0  0
 21 20  1  6  0  0  0
 22 25  1  1  0  0  0
 22 21  1  0  0  0  0
 23 24  1  0  0  0  0
 24 26  1  0  0  0  0
 25 23  2  0  0  0  0
 27 19  1  6  0  0  0
 27 22  1  0  0  0  0
 27 21  1  0  0  0  0
 28 32  1  6  0  0  0
 28 30  1  0  0  0  0
 29 30  1  0  0  0  0
 30 31  1  0  0  0  0
 33 32  1  0  0  0  0
 34 33  1  0  0  0  0
 35 34  1  0  0  0  0
 36 37  1  0  0  0  0
 37 35  1  0  0  0  0
M  END
>  <MODEL>
1

>  <REMARK>
 VINA RESULT:      -1.5      0.000      0.000
  Name = 
  10 active torsions:
  status: ('A' for Active; 'I' for Inactive)
    1  A    between atoms: C_1  and  C_5
    2  A    between atoms: C_1  and  C_23
    3  A    between atoms: C_5  and  C_17
    4  A    between atoms: C_10  and  C_14
    5  A    between atoms: C_14  and  N_31
    6  A    between atoms: C_17  and  C_26
    7  A    between atoms: C_26  and  C_33
    8  A    between atoms: C_27  and  C_33
    9  A    between atoms: C_29  and  C_33
   10  A    between atoms: N_31  and  C_37
                            x       y       z     vdW  Elec       q    Type
                         _______ _______ _______ _____ _____    ______ ____

>  <TORSDO>
F 10

$$$$
=
 OpenBabel11062409123D

 37 41  0  0  1  0  0  0  0  0999 V2000
  158.3410  213.5000  145.3490 C   0  0  0  0  0  2  0  0  0  0  0  0
  161.5650  213.9110  148.3150 C   0  0  2  0  0  3  0  0  0  0  0  0
  160.7370  213.1380  146.0710 C   0  0  2  0  0  3  0  0  0  0  0  0
  160.9790  212.8360  149.2520 C   0  0  1  0  0  3  0  0  0  0  0  0
  160.6550  214.2470  147.1240 C   0  0  0  0  0  2  0  0  0  0  0  0
  162.1540  212.9420  145.6110 C   0  0  0  0  0  3  0  0  0  0  0  0
  158.4010  212.6080  149.3450 C   0  0  1  0  0  3  0  0  0  0  0  0
  156.9990  212.6650  147.2950 C   0  0  0  0  0  2  0  0  0  0  0  0
  162.9560  213.5640  147.8400 C   0  0  0  0  0  0  0  0  0  0  0  0
  163.1790  213.1090  146.4540 C   0  0  0  0  0  3  0  0  0  0  0  0
  157.7690  213.5070  148.3010 C   0  0  1  0  0  3  0  0  0  0  0  0
  163.9890  213.6980  148.6590 C   0  0  0  0  0  2  0  0  0  0  0  0
  159.6510  213.3040  149.8940 C   0  0  1  0  0  3  0  0  0  0  0  0
  159.7940  213.3720  144.8950 C   0  0  0  0  0  2  0  0  0  0  0  0
  157.8910  212.2680  146.1260 C   0  0  0  0  0  2  0  0  0  0  0  0
  157.1430  213.3940  149.6710 C   0  0  0  0  0  2  0  0  0  0  0  0
  160.9310  211.4410  148.6140 C   0  0  0  0  0  2  0  0  0  0  0  0
  161.5430  210.2230  150.4980 C   0  0  0  0  0  1  0  0  0  0  0  0
  161.9780  210.5930  149.1610 N   0  0  0  0  0  0  0  0  0  0  0  0
  162.6580  208.0930  150.6740 C   0  0  0  0  0  2  0  0  0  0  0  0
  162.5880  208.2190  149.1680 C   0  0  1  0  0  3  0  0  0  0  0  0
  161.0840  208.3340  148.9830 C   0  0  2  0  0  3  0  0  0  0  0  0
  160.8170  205.9310  149.1490 C   0  0  0  0  0  3  0  0  0  0  0  0
  161.1080  206.0160  150.6430 C   0  0  0  0  0  2  0  0  0  0  0  0
  160.7850  207.0200  148.3530 C   0  0  0  0  0  3  0  0  0  0  0  0
  162.4960  206.5970  151.0050 C   0  0  0  0  0  2  0  0  0  0  0  0
  161.9970  209.3700  148.3670 C   0  0  1  0  0  3  0  0  0  0  0  0
  159.6800  213.3170  151.4280 C   0  0  2  0  0  3  0  0  0  0  0  0
  158.2370  211.4910  152.4700 C   0  0  0  0  0  1  0  0  0  0  0  0
  159.6290  211.9000  152.0160 C   0  0  0  0  0  3  0  0  0  0  0  0
  160.6140  211.7470  153.1590 C   0  0  0  0  0  1  0  0  0  0  0  0
  158.6740  214.2920  152.0480 C   0  0  0  0  0  2  0  0  0  0  0  0
  158.8870  214.4270  153.5450 C   0  0  0  0  0  2  0  0  0  0  0  0
  157.5490  214.4530  154.2650 C   0  0  0  0  0  2  0  0  0  0  0  0
  157.5450  213.4570  155.4100 C   0  0  0  0  0  2  0  0  0  0  0  0
  156.1330  212.0100  156.7460 N   0  0  0  0  0  1  0  0  0  0  0  0
  156.1900  212.7830  155.5200 C   0  0  0  0  0  2  0  0  0  0  0  0
  1 15  1  0  0  0  0
  2  5  1  6  0  0  0
  2  4  1  0  0  0  0
  3 14  1  6  0  0  0
  3  5  1  0  0  0  0
  4 17  1  6  0  0  0
  4 13  1  0  0  0  0
  6  3  1  0  0  0  0
  6 10  2  0  0  0  0
  7 16  1  1  0  0  0
  7 13  1  0  0  0  0
  9  2  1  0  0  0  0
  9 12  2  0  0  0  0
 10  9  1  0  0  0  0
 11  8  1  6  0  0  0
 11  7  1  0  0  0  0
 11 16  1  0  0  0  0
 13 28  1  1  0  0  0
 14  1  1  0  0  0  0
 15  8  1  0  0  0  0
 17 19  1  0  0  0  0
 19 18  1  0  0  0  0
 20 26  1  0  0  0  0
 21 20  1  1  0  0  0
 22 25  1  6  0  0  0
 22 21  1  0  0  0  0
 23 24  1  0  0  0  0
 24 26  1  0  0  0  0
 25 23  2  0  0  0  0
 27 22  1  0  0  0  0
 27 19  1  1  0  0  0
 27 21  1  0  0  0  0
 28 30  1  0  0  0  0
 28 32  1  1  0  0  0
 30 29  1  0  0  0  0
 30 31  1  0  0  0  0
 32 33  1  0  0  0  0
 33 34  1  0  0  0  0
 34 35  1  0  0  0  0
 35 37  1  0  0  0  0
 37 36  1  0  0  0  0
M  END
>  <MODEL>
2

>  <REMARK>
 VINA RESULT:       0.1      2.199      7.993
  Name = 
  10 active torsions:
  status: ('A' for Active; 'I' for Inactive)
    1  A    between atoms: C_1  and  C_5
    2  A    between atoms: C_1  and  C_23
    3  A    between atoms: C_5  and  C_17
    4  A    between atoms: C_10  and  C_14
    5  A    between atoms: C_14  and  N_31
    6  A    between atoms: C_17  and  C_26
    7  A    between atoms: C_26  and  C_33
    8  A    between atoms: C_27  and  C_33
    9  A    between atoms: C_29  and  C_33
   10  A    between atoms: N_31  and  C_37
                            x       y       z     vdW  Elec       q    Type
                         _______ _______ _______ _____ _____    ______ ____

>  <TORSDO>
F 10

$$$$
=
 OpenBabel11062409123D

 37 41  0  0  1  0  0  0  0  0999 V2000
  159.2730  213.4840  144.3540 C   0  0  0  0  0  2  0  0  0  0  0  0
  161.6710  213.6900  148.0380 C   0  0  2  0  0  3  0  0  0  0  0  0
  161.4280  213.0760  145.6120 C   0  0  2  0  0  3  0  0  0  0  0  0
  160.8950  212.5510  148.7280 C   0  0  1  0  0  3  0  0  0  0  0  0
  161.0720  214.1070  146.6860 C   0  0  0  0  0  2  0  0  0  0  0  0
  162.9180  212.9150  145.5000 C   0  0  0  0  0  3  0  0  0  0  0  0
  158.3770  212.3110  148.1740 C   0  0  1  0  0  3  0  0  0  0  0  0
  157.5140  212.5100  145.8530 C   0  0  0  0  0  2  0  0  0  0  0  0
  163.1420  213.3800  147.8940 C   0  0  0  0  0  0  0  0  0  0  0  0
  163.7040  213.0250  146.5760 C   0  0  0  0  0  3  0  0  0  0  0  0
  158.0010  213.2810  147.0710 C   0  0  1  0  0  3  0  0  0  0  0  0
  163.9420  213.4580  148.9470 C   0  0  0  0  0  2  0  0  0  0  0  0
  159.4430  212.9690  149.0580 C   0  0  1  0  0  3  0  0  0  0  0  0
  160.7950  213.3900  144.2610 C   0  0  0  0  0  2  0  0  0  0  0  0
  158.6720  212.1990  144.9120 C   0  0  0  0  0  2  0  0  0  0  0  0
  157.0630  213.0700  148.2360 C   0  0  0  0  0  2  0  0  0  0  0  0
  161.0310  211.2030  148.0050 C   0  0  0  0  0  2  0  0  0  0  0  0
  161.8060  210.3350  150.0170 C   0  0  0  0  0  1  0  0  0  0  0  0
  162.0970  210.4110  148.5950 N   0  0  0  0  0  0  0  0  0  0  0  0
  162.7370  208.2070  150.5270 C   0  0  0  0  0  2  0  0  0  0  0  0
  162.5510  208.0430  149.0350 C   0  0  1  0  0  3  0  0  0  0  0  0
  161.0480  208.2400  148.9340 C   0  0  2  0  0  3  0  0  0  0  0  0
  160.6410  205.9430  149.5940 C   0  0  0  0  0  3  0  0  0  0  0  0
  161.0590  206.2940  151.0180 C   0  0  0  0  0  2  0  0  0  0  0  0
  160.6130  206.8560  148.6010 C   0  0  0  0  0  3  0  0  0  0  0  0
  162.5070  206.8220  151.1610 C   0  0  0  0  0  2  0  0  0  0  0  0
  161.9710  209.0600  148.0620 C   0  0  1  0  0  3  0  0  0  0  0  0
  159.0970  212.8740  150.5500 C   0  0  2  0  0  3  0  0  0  0  0  0
  159.2800  214.4530  152.5430 C   0  0  0  0  0  1  0  0  0  0  0  0
  158.7280  214.2410  151.1420 C   0  0  0  0  0  3  0  0  0  0  0  0
  157.2270  214.4500  151.1390 C   0  0  0  0  0  1  0  0  0  0  0  0
  160.1300  212.0910  151.3650 C   0  0  0  0  0  2  0  0  0  0  0  0
  159.4580  211.1290  152.3290 C   0  0  0  0  0  2  0  0  0  0  0  0
  160.4790  210.5640  153.3040 C   0  0  0  0  0  2  0  0  0  0  0  0
  160.6230  211.4770  154.5070 C   0  0  0  0  0  2  0  0  0  0  0  0
  159.0370  210.5100  156.0630 N   0  0  0  0  0  1  0  0  0  0  0  0
  159.2860  211.6510  155.2020 C   0  0  0  0  0  2  0  0  0  0  0  0
  1 15  1  0  0  0  0
  2  5  1  6  0  0  0
  2  4  1  0  0  0  0
  3 14  1  6  0  0  0
  3  5  1  0  0  0  0
  4 17  1  6  0  0  0
  4 13  1  0  0  0  0
  6  3  1  0  0  0  0
  6 10  2  0  0  0  0
  7 16  1  1  0  0  0
  7 13  1  0  0  0  0
  9  2  1  0  0  0  0
  9 12  2  0  0  0  0
 10  9  1  0  0  0  0
 11  8  1  6  0  0  0
 11  7  1  0  0  0  0
 11 16  1  0  0  0  0
 13 28  1  1  0  0  0
 14  1  1  0  0  0  0
 15  8  1  0  0  0  0
 17 19  1  0  0  0  0
 19 18  1  0  0  0  0
 20 26  1  0  0  0  0
 21 20  1  1  0  0  0
 22 25  1  6  0  0  0
 22 21  1  0  0  0  0
 23 24  1  0  0  0  0
 24 26  1  0  0  0  0
 25 23  2  0  0  0  0
 27 19  1  1  0  0  0
 27 22  1  0  0  0  0
 27 21  1  0  0  0  0
 28 30  1  0  0  0  0
 28 32  1  1  0  0  0
 30 29  1  0  0  0  0
 31 30  1  0  0  0  0
 32 33  1  0  0  0  0
 33 34  1  0  0  0  0
 34 35  1  0  0  0  0
 35 37  1  0  0  0  0
 37 36  1  0  0  0  0
M  END
>  <MODEL>
3

>  <REMARK>
 VINA RESULT:       0.9      2.145      7.773
  Name = 
  10 active torsions:
  status: ('A' for Active; 'I' for Inactive)
    1  A    between atoms: C_1  and  C_5
    2  A    between atoms: C_1  and  C_23
    3  A    between atoms: C_5  and  C_17
    4  A    between atoms: C_10  and  C_14
    5  A    between atoms: C_14  and  N_31
    6  A    between atoms: C_17  and  C_26
    7  A    between atoms: C_26  and  C_33
    8  A    between atoms: C_27  and  C_33
    9  A    between atoms: C_29  and  C_33
   10  A    between atoms: N_31  and  C_37
                            x       y       z     vdW  Elec       q    Type
                         _______ _______ _______ _____ _____    ______ ____

>  <TORSDO>
F 10

$$$$
