=
 OpenBabel11052421473D

 30 32  0  0  1  0  0  0  0  0999 V2000
  158.2390  210.4180  153.4180 C   0  0  0  0  0  2  0  0  0  0  0  0
  159.6820  210.1960  153.8690 C   0  0  2  0  0  0  0  0  0  0  0  0
  158.9350  211.4720  154.2640 C   0  0  2  0  0  0  0  0  0  0  0  0
  160.6920  210.4110  152.8510 N   0  0  0  0  0  0  0  0  0  0  0  0
  162.1990  209.8580  151.0440 C   0  0  1  0  0  3  0  0  0  0  0  0
  162.5330  208.6930  150.1060 C   0  0  0  0  0  2  0  0  0  0  0  0
  161.7950  210.9570  150.2850 O   0  0  0  0  0  1  0  0  0  0  0  0
  160.6060  208.0770  152.1090 C   0  0  0  0  0  2  0  0  0  0  0  0
  161.7640  205.7970  152.5050 C   0  0  0  0  0  1  0  0  0  0  0  0
  161.1270  209.4970  152.0500 C   0  0  0  0  0  0  0  0  0  0  0  0
  162.6160  207.3930  150.8560 C   0  0  0  0  0  3  0  0  0  0  0  0
  161.7030  207.1010  151.7890 C   0  0  0  0  0  0  0  0  0  0  0  0
  161.3240  208.5780  156.9520 C   0  0  0  0  0  3  0  0  0  0  0  0
  161.0750  209.5090  155.9320 C   0  0  0  0  0  0  0  0  0  0  0  0
  159.2480  208.1070  155.1540 C   0  0  0  0  0  3  0  0  0  0  0  0
  160.0280  209.2630  155.0100 C   0  0  0  0  0  0  0  0  0  0  0  0
  160.5410  207.4290  157.0760 C   0  0  0  0  0  3  0  0  0  0  0  0
  159.5010  207.1950  156.1790 C   0  0  0  0  0  3  0  0  0  0  0  0
  163.0690  210.4730  155.0160 O   0  0  0  0  0  1  0  0  0  0  0  0
  161.9530  210.7260  155.8250 C   0  0  2  0  0  3  0  0  0  0  0  0
  161.7270  212.5850  157.2590 C   0  0  0  0  0  1  0  0  0  0  0  0
  163.7650  211.4310  157.2600 C   0  0  0  0  0  1  0  0  0  0  0  0
  162.3210  211.2630  157.1420 N   0  0  0  0  0  0  0  0  0  0  0  0
  156.1660  212.1520  155.0210 O   0  0  0  0  0  0  0  0  0  0  0  0
  157.1170  211.8930  156.0000 C   0  0  0  0  0  0  0  0  0  0  0  0
  156.7970  211.9710  157.2150 O   0  0  0  0  0  1  0  0  0  0  0  0
  158.4530  211.5340  155.6440 N   0  0  0  0  0  2  0  0  0  0  0  0
  158.5090  212.9130  152.3870 O   0  0  0  0  0  1  0  0  0  0  0  0
  159.0140  213.9650  154.4630 C   0  0  0  0  0  1  0  0  0  0  0  0
  159.2690  212.7820  153.5490 C   0  0  1  0  0  3  0  0  0  0  0  0
  1  2  1  0  0  0  0
  1  3  1  0  0  0  0
  2  4  1  6  0  0  0
  2  3  1  0  0  0  0
  2 16  1  0  0  0  0
  3 27  1  1  0  0  0
  5  7  1  6  0  0  0
  5 10  1  0  0  0  0
  6 11  1  0  0  0  0
  6  5  1  0  0  0  0
 10  8  1  0  0  0  0
 10  4  2  0  0  0  0
 11 12  2  0  0  0  0
 12  8  1  0  0  0  0
 12  9  1  0  0  0  0
 13 17  1  0  0  0  0
 14 13  2  0  0  0  0
 15 18  1  0  0  0  0
 16 15  2  0  0  0  0
 16 14  1  0  0  0  0
 18 17  2  0  0  0  0
 20 19  1  1  0  0  0
 20 14  1  0  0  0  0
 20 23  1  0  0  0  0
 23 21  1  0  0  0  0
 23 22  1  0  0  0  0
 24 25  2  0  0  0  0
 25 26  1  0  0  0  0
 27 25  1  0  0  0  0
 28 30  1  0  0  0  0
 30  3  1  0  0  0  0
 30 29  1  1  0  0  0
M  END
>  <MODEL>
1

>  <REMARK>
 VINA RESULT:      -4.0      0.000      0.000
  Name = 
  6 active torsions:
  status: ('A' for Active; 'I' for Inactive)
    1  A    between atoms: N_1  and  C_5
    2  A    between atoms: C_5  and  C_12
    3  A    between atoms: C_8  and  C_13
    4  A    between atoms: C_13  and  N_30
    5  A    between atoms: C_23  and  N_25
    6  A    between atoms: C_23  and  C_26
                            x       y       z     vdW  Elec       q    Type
                         _______ _______ _______ _____ _____    ______ ____

>  <TORSDO>
F 6

$$$$
=
 OpenBabel11052421473D

 30 32  0  0  1  0  0  0  0  0999 V2000
  159.4300  210.2430  153.6030 C   0  0  0  0  0  2  0  0  0  0  0  0
  160.9420  210.4610  153.5900 C   0  0  2  0  0  0  0  0  0  0  0  0
  159.9870  211.6520  153.4770 C   0  0  2  0  0  0  0  0  0  0  0  0
  161.6080  210.1350  152.3430 N   0  0  0  0  0  0  0  0  0  0  0  0
  162.3240  208.7720  150.4810 C   0  0  1  0  0  3  0  0  0  0  0  0
  162.0930  207.3790  149.8860 C   0  0  0  0  0  2  0  0  0  0  0  0
  161.9490  209.7380  149.5470 O   0  0  0  0  0  1  0  0  0  0  0  0
  160.7990  207.8230  152.3820 C   0  0  0  0  0  2  0  0  0  0  0  0
  161.5070  205.4580  153.1580 C   0  0  0  0  0  1  0  0  0  0  0  0
  161.5660  208.9780  151.7750 C   0  0  0  0  0  0  0  0  0  0  0  0
  162.1250  206.3170  150.9500 C   0  0  0  0  0  3  0  0  0  0  0  0
  161.5070  206.5240  152.1180 C   0  0  0  0  0  0  0  0  0  0  0  0
  162.1960  209.7360  157.1560 C   0  0  0  0  0  3  0  0  0  0  0  0
  161.3630  209.7200  156.0280 C   0  0  0  0  0  0  0  0  0  0  0  0
  163.0060  211.0670  154.8460 C   0  0  0  0  0  3  0  0  0  0  0  0
  161.7680  210.4070  154.8570 C   0  0  0  0  0  0  0  0  0  0  0  0
  163.4220  210.4030  157.1290 C   0  0  0  0  0  3  0  0  0  0  0  0
  163.8280  211.0650  155.9720 C   0  0  0  0  0  3  0  0  0  0  0  0
  159.3390  209.3650  157.2610 O   0  0  0  0  0  1  0  0  0  0  0  0
  160.0430  209.0030  156.1050 C   0  0  2  0  0  3  0  0  0  0  0  0
  158.9300  207.0190  155.4810 C   0  0  0  0  0  1  0  0  0  0  0  0
  160.4490  206.9190  157.2610 C   0  0  0  0  0  1  0  0  0  0  0  0
  160.1930  207.5470  155.9690 N   0  0  0  0  0  0  0  0  0  0  0  0
  157.3860  212.2120  154.7520 O   0  0  0  0  0  0  0  0  0  0  0  0
  158.5540  212.7510  155.2750 C   0  0  0  0  0  0  0  0  0  0  0  0
  158.4970  213.4980  156.2860 O   0  0  0  0  0  1  0  0  0  0  0  0
  159.8220  212.4610  154.6830 N   0  0  0  0  0  2  0  0  0  0  0  0
  158.4960  212.1090  151.6460 O   0  0  0  0  0  1  0  0  0  0  0  0
  160.0600  213.8120  152.2150 C   0  0  0  0  0  1  0  0  0  0  0  0
  159.7910  212.3230  152.1160 C   0  0  1  0  0  3  0  0  0  0  0  0
  2  4  1  6  0  0  0
  2  1  1  0  0  0  0
  2 16  1  0  0  0  0
  3  2  1  0  0  0  0
  3  1  1  0  0  0  0
  3 27  1  1  0  0  0
  5  7  1  6  0  0  0
  5 10  1  0  0  0  0
  6  5  1  0  0  0  0
  6 11  1  0  0  0  0
 10  4  2  0  0  0  0
 10  8  1  0  0  0  0
 11 12  2  0  0  0  0
 12  8  1  0  0  0  0
 12  9  1  0  0  0  0
 14 20  1  0  0  0  0
 14 13  2  0  0  0  0
 15 16  2  0  0  0  0
 15 18  1  0  0  0  0
 16 14  1  0  0  0  0
 17 13  1  0  0  0  0
 18 17  2  0  0  0  0
 20 19  1  1  0  0  0
 21 23  1  0  0  0  0
 23 20  1  0  0  0  0
 23 22  1  0  0  0  0
 24 25  2  0  0  0  0
 25 26  1  0  0  0  0
 27 25  1  0  0  0  0
 28 30  1  0  0  0  0
 30 29  1  1  0  0  0
 30  3  1  0  0  0  0
M  END
>  <MODEL>
2

>  <REMARK>
 VINA RESULT:      -3.4      1.645      2.828
  Name = 
  6 active torsions:
  status: ('A' for Active; 'I' for Inactive)
    1  A    between atoms: N_1  and  C_5
    2  A    between atoms: C_5  and  C_12
    3  A    between atoms: C_8  and  C_13
    4  A    between atoms: C_13  and  N_30
    5  A    between atoms: C_23  and  N_25
    6  A    between atoms: C_23  and  C_26
                            x       y       z     vdW  Elec       q    Type
                         _______ _______ _______ _____ _____    ______ ____

>  <TORSDO>
F 6

$$$$
=
 OpenBabel11052421473D

 30 32  0  0  1  0  0  0  0  0999 V2000
  162.2400  210.4650  154.3280 C   0  0  0  0  0  2  0  0  0  0  0  0
  160.8450  210.1430  153.7940 C   0  0  2  0  0  0  0  0  0  0  0  0
  161.0710  210.3550  155.2930 C   0  0  2  0  0  0  0  0  0  0  0  0
  160.6200  208.7560  153.4350 N   0  0  0  0  0  0  0  0  0  0  0  0
  160.8130  206.7210  152.1460 C   0  0  1  0  0  3  0  0  0  0  0  0
  161.5950  206.1510  150.9570 C   0  0  0  0  0  2  0  0  0  0  0  0
  161.0770  205.9520  153.2800 O   0  0  0  0  0  1  0  0  0  0  0  0
  162.0730  208.9110  151.4670 C   0  0  0  0  0  2  0  0  0  0  0  0
  161.9710  209.3860  148.9260 C   0  0  0  0  0  1  0  0  0  0  0  0
  161.1490  208.1730  152.4120 C   0  0  0  0  0  0  0  0  0  0  0  0
  161.6470  207.1290  149.8160 C   0  0  0  0  0  3  0  0  0  0  0  0
  161.8830  208.4240  150.0590 C   0  0  0  0  0  0  0  0  0  0  0  0
  157.9930  212.5560  152.8660 C   0  0  0  0  0  3  0  0  0  0  0  0
  158.7120  211.5840  153.5770 C   0  0  0  0  0  0  0  0  0  0  0  0
  160.5160  211.7970  151.9610 C   0  0  0  0  0  3  0  0  0  0  0  0
  159.9900  211.1880  153.1090 C   0  0  0  0  0  0  0  0  0  0  0  0
  158.5290  213.1470  151.7210 C   0  0  0  0  0  3  0  0  0  0  0  0
  159.7930  212.7700  151.2710 C   0  0  0  0  0  3  0  0  0  0  0  0
  157.6770  209.6470  154.5370 O   0  0  0  0  0  1  0  0  0  0  0  0
  158.0900  210.9610  154.7960 C   0  0  2  0  0  3  0  0  0  0  0  0
  157.4410  212.2370  156.6710 C   0  0  0  0  0  1  0  0  0  0  0  0
  155.7920  211.0150  155.5440 C   0  0  0  0  0  1  0  0  0  0  0  0
  157.0130  211.7900  155.3560 N   0  0  0  0  0  0  0  0  0  0  0  0
  162.5990  211.9350  157.2610 O   0  0  0  0  0  0  0  0  0  0  0  0
  161.3640  212.3820  156.8090 C   0  0  0  0  0  0  0  0  0  0  0  0
  160.8880  213.4560  157.2610 O   0  0  0  0  0  1  0  0  0  0  0  0
  160.6290  211.6400  155.8340 N   0  0  0  0  0  2  0  0  0  0  0  0
  162.3270  209.0280  156.8560 O   0  0  0  0  0  1  0  0  0  0  0  0
  159.9910  209.2490  157.2610 C   0  0  0  0  0  1  0  0  0  0  0  0
  161.0900  209.1400  156.2220 C   0  0  1  0  0  3  0  0  0  0  0  0
  1  3  1  0  0  0  0
  2  4  1  6  0  0  0
  2  1  1  0  0  0  0
  2  3  1  0  0  0  0
  3 27  1  1  0  0  0
  3 30  1  0  0  0  0
  5 10  1  0  0  0  0
  5  7  1  1  0  0  0
  6  5  1  0  0  0  0
  8 10  1  0  0  0  0
  9 12  1  0  0  0  0
 10  4  2  0  0  0  0
 11 12  2  0  0  0  0
 11  6  1  0  0  0  0
 12  8  1  0  0  0  0
 13 14  1  0  0  0  0
 14 20  1  0  0  0  0
 15 16  1  0  0  0  0
 16 14  2  0  0  0  0
 16  2  1  0  0  0  0
 17 13  2  0  0  0  0
 18 17  1  0  0  0  0
 18 15  2  0  0  0  0
 20 19  1  6  0  0  0
 20 23  1  0  0  0  0
 23 22  1  0  0  0  0
 23 21  1  0  0  0  0
 25 24  2  0  0  0  0
 25 26  1  0  0  0  0
 27 25  1  0  0  0  0
 30 28  1  0  0  0  0
 30 29  1  1  0  0  0
M  END
>  <MODEL>
3

>  <REMARK>
 VINA RESULT:      -3.1      2.126      4.798
  Name = 
  6 active torsions:
  status: ('A' for Active; 'I' for Inactive)
    1  A    between atoms: N_1  and  C_5
    2  A    between atoms: C_5  and  C_12
    3  A    between atoms: C_8  and  C_13
    4  A    between atoms: C_13  and  N_30
    5  A    between atoms: C_23  and  N_25
    6  A    between atoms: C_23  and  C_26
                            x       y       z     vdW  Elec       q    Type
                         _______ _______ _______ _____ _____    ______ ____

>  <TORSDO>
F 6

$$$$
=
 OpenBabel11052421473D

 30 32  0  0  1  0  0  0  0  0999 V2000
  160.2090  211.8240  141.5310 C   0  0  0  0  0  2  0  0  0  0  0  0
  159.9690  212.5830  140.2270 C   0  0  2  0  0  0  0  0  0  0  0  0
  160.3470  213.3370  141.5040 C   0  0  2  0  0  0  0  0  0  0  0  0
  158.5790  212.7480  139.8490 N   0  0  0  0  0  0  0  0  0  0  0  0
  156.3960  212.1190  139.0260 C   0  0  1  0  0  3  0  0  0  0  0  0
  155.6130  210.8700  138.6040 C   0  0  0  0  0  2  0  0  0  0  0  0
  155.7450  212.7280  140.0990 O   0  0  0  0  0  1  0  0  0  0  0  0
  158.3510  210.3920  139.2170 C   0  0  0  0  0  2  0  0  0  0  0  0
  158.5280  208.8370  137.1560 C   0  0  0  0  0  1  0  0  0  0  0  0
  157.8280  211.8000  139.3990 C   0  0  0  0  0  0  0  0  0  0  0  0
  156.4370  209.9800  137.7170 C   0  0  0  0  0  3  0  0  0  0  0  0
  157.7220  209.7480  138.0140 C   0  0  0  0  0  0  0  0  0  0  0  0
  162.8980  211.7340  137.8770 C   0  0  0  0  0  3  0  0  0  0  0  0
  161.9770  211.6060  138.9280 C   0  0  0  0  0  0  0  0  0  0  0  0
  160.9650  213.7080  138.2390 C   0  0  0  0  0  3  0  0  0  0  0  0
  161.0020  212.6170  139.1200 C   0  0  0  0  0  0  0  0  0  0  0  0
  162.8500  212.8300  137.0140 C   0  0  0  0  0  3  0  0  0  0  0  0
  161.8810  213.8150  137.1940 C   0  0  0  0  0  3  0  0  0  0  0  0
  163.3920  210.2210  140.2770 O   0  0  0  0  0  1  0  0  0  0  0  0
  162.0740  210.4180  139.8440 C   0  0  2  0  0  3  0  0  0  0  0  0
  161.9530  208.0690  140.0230 C   0  0  0  0  0  1  0  0  0  0  0  0
  161.9560  209.0140  137.8800 C   0  0  0  0  0  1  0  0  0  0  0  0
  161.4900  209.2080  139.2480 N   0  0  0  0  0  0  0  0  0  0  0  0
  162.0730  212.9790  143.8700 O   0  0  0  0  0  1  0  0  0  0  0  0
  162.5470  213.6520  142.7510 C   0  0  0  0  0  0  0  0  0  0  0  0
  163.7110  214.1290  142.7590 O   0  0  0  0  0  0  0  0  0  0  0  0
  161.7300  213.8050  141.5890 N   0  0  0  0  0  2  0  0  0  0  0  0
  158.2170  214.4490  141.3990 O   0  0  0  0  0  1  0  0  0  0  0  0
  158.7360  213.2970  143.4180 C   0  0  0  0  0  1  0  0  0  0  0  0
  159.2660  214.1150  142.2560 C   0  0  1  0  0  3  0  0  0  0  0  0
  2  4  1  6  0  0  0
  2  3  1  0  0  0  0
  2  1  1  0  0  0  0
  3  1  1  0  0  0  0
  3 27  1  1  0  0  0
  3 30  1  0  0  0  0
  5 10  1  0  0  0  0
  5  7  1  1  0  0  0
  6  5  1  0  0  0  0
  8 10  1  0  0  0  0
  9 12  1  0  0  0  0
 10  4  2  0  0  0  0
 11 12  2  0  0  0  0
 11  6  1  0  0  0  0
 12  8  1  0  0  0  0
 13 14  1  0  0  0  0
 14 16  2  0  0  0  0
 14 20  1  0  0  0  0
 15 16  1  0  0  0  0
 16  2  1  0  0  0  0
 17 18  1  0  0  0  0
 17 13  2  0  0  0  0
 18 15  2  0  0  0  0
 20 19  1  6  0  0  0
 22 23  1  0  0  0  0
 23 20  1  0  0  0  0
 23 21  1  0  0  0  0
 25 26  2  0  0  0  0
 25 24  1  0  0  0  0
 27 25  1  0  0  0  0
 28 30  1  0  0  0  0
 30 29  1  1  0  0  0
M  END
>  <MODEL>
4

>  <REMARK>
 VINA RESULT:      -2.2     12.138     15.337
  Name = 
  6 active torsions:
  status: ('A' for Active; 'I' for Inactive)
    1  A    between atoms: N_1  and  C_5
    2  A    between atoms: C_5  and  C_12
    3  A    between atoms: C_8  and  C_13
    4  A    between atoms: C_13  and  N_30
    5  A    between atoms: C_23  and  N_25
    6  A    between atoms: C_23  and  C_26
                            x       y       z     vdW  Elec       q    Type
                         _______ _______ _______ _____ _____    ______ ____

>  <TORSDO>
F 6

$$$$
=
 OpenBabel11052421473D

 30 32  0  0  1  0  0  0  0  0999 V2000
  162.5670  209.8580  152.1810 C   0  0  0  0  0  2  0  0  0  0  0  0
  161.2570  209.0740  152.1030 C   0  0  2  0  0  0  0  0  0  0  0  0
  161.9730  209.5160  150.8240 C   0  0  2  0  0  0  0  0  0  0  0  0
  160.0570  209.8360  152.3860 N   0  0  0  0  0  0  0  0  0  0  0  0
  158.6410  211.4470  153.5000 C   0  0  1  0  0  3  0  0  0  0  0  0
  158.7250  212.5540  154.5570 C   0  0  0  0  0  2  0  0  0  0  0  0
  158.2060  211.9950  152.2940 O   0  0  0  0  0  1  0  0  0  0  0  0
  161.1380  211.0870  154.1950 C   0  0  0  0  0  2  0  0  0  0  0  0
  161.4720  211.0260  156.7600 C   0  0  0  0  0  1  0  0  0  0  0  0
  159.9640  210.7390  153.3030 C   0  0  0  0  0  0  0  0  0  0  0  0
  159.5230  212.1120  155.7520 C   0  0  0  0  0  3  0  0  0  0  0  0
  160.6630  211.4310  155.5780 C   0  0  0  0  0  0  0  0  0  0  0  0
  161.0730  205.5930  153.7370 C   0  0  0  0  0  3  0  0  0  0  0  0
  161.1040  206.9910  153.6230 C   0  0  0  0  0  0  0  0  0  0  0  0
  161.2480  206.7490  151.2080 C   0  0  0  0  0  3  0  0  0  0  0  0
  161.2060  207.5790  152.3380 C   0  0  0  0  0  0  0  0  0  0  0  0
  161.1220  204.7830  152.6020 C   0  0  0  0  0  3  0  0  0  0  0  0
  161.2060  205.3610  151.3370 C   0  0  0  0  0  3  0  0  0  0  0  0
  162.3310  207.9030  155.4690 O   0  0  0  0  0  1  0  0  0  0  0  0
  161.0650  207.8270  154.8730 C   0  0  2  0  0  3  0  0  0  0  0  0
  158.9560  208.3570  155.7870 C   0  0  0  0  0  1  0  0  0  0  0  0
  160.5340  207.3280  157.1780 C   0  0  0  0  0  1  0  0  0  0  0  0
  160.0270  207.3760  155.8110 N   0  0  0  0  0  0  0  0  0  0  0  0
  161.2060  208.4850  148.1690 O   0  0  0  0  0  0  0  0  0  0  0  0
  162.3090  207.9620  148.8320 C   0  0  0  0  0  0  0  0  0  0  0  0
  162.9690  207.0300  148.3040 O   0  0  0  0  0  1  0  0  0  0  0  0
  162.7060  208.4750  150.1050 N   0  0  0  0  0  2  0  0  0  0  0  0
  161.2140  211.7970  150.8600 O   0  0  0  0  0  1  0  0  0  0  0  0
  162.3560  211.0710  148.9020 C   0  0  0  0  0  1  0  0  0  0  0  0
  161.4130  210.6960  150.0280 C   0  0  1  0  0  3  0  0  0  0  0  0
  2  1  1  0  0  0  0
  2 16  1  0  0  0  0
  2  4  1  1  0  0  0
  3 27  1  6  0  0  0
  3  2  1  0  0  0  0
  3  1  1  0  0  0  0
  4 10  2  0  0  0  0
  5  7  1  6  0  0  0
  5  6  1  0  0  0  0
  6 11  1  0  0  0  0
  8 12  1  0  0  0  0
 10  5  1  0  0  0  0
 10  8  1  0  0  0  0
 12 11  2  0  0  0  0
 12  9  1  0  0  0  0
 14 13  1  0  0  0  0
 14 20  1  0  0  0  0
 15 18  2  0  0  0  0
 15 16  1  0  0  0  0
 16 14  2  0  0  0  0
 17 13  2  0  0  0  0
 18 17  1  0  0  0  0
 20 19  1  1  0  0  0
 20 23  1  0  0  0  0
 21 23  1  0  0  0  0
 23 22  1  0  0  0  0
 24 25  2  0  0  0  0
 25 27  1  0  0  0  0
 26 25  1  0  0  0  0
 30 29  1  6  0  0  0
 30  3  1  0  0  0  0
 30 28  1  0  0  0  0
M  END
>  <MODEL>
5

>  <REMARK>
 VINA RESULT:      -1.6      2.040      5.695
  Name = 
  6 active torsions:
  status: ('A' for Active; 'I' for Inactive)
    1  A    between atoms: N_1  and  C_5
    2  A    between atoms: C_5  and  C_12
    3  A    between atoms: C_8  and  C_13
    4  A    between atoms: C_13  and  N_30
    5  A    between atoms: C_23  and  N_25
    6  A    between atoms: C_23  and  C_26
                            x       y       z     vdW  Elec       q    Type
                         _______ _______ _______ _____ _____    ______ ____

>  <TORSDO>
F 6

$$$$
=
 OpenBabel11052421473D

 30 32  0  0  1  0  0  0  0  0999 V2000
  159.7080  211.6060  142.4390 C   0  0  0  0  0  2  0  0  0  0  0  0
  159.8560  211.9540  140.9580 C   0  0  2  0  0  0  0  0  0  0  0  0
  160.2800  212.9550  142.0360 C   0  0  2  0  0  0  0  0  0  0  0  0
  158.6290  212.3220  140.2790 N   0  0  0  0  0  0  0  0  0  0  0  0
  156.6920  212.0530  138.8600 C   0  0  1  0  0  3  0  0  0  0  0  0
  155.9500  210.9650  138.0770 C   0  0  0  0  0  2  0  0  0  0  0  0
  155.8350  212.5950  139.8180 O   0  0  0  0  0  1  0  0  0  0  0  0
  158.3890  210.1040  139.2660 C   0  0  0  0  0  2  0  0  0  0  0  0
  158.9720  208.8080  137.1030 C   0  0  0  0  0  1  0  0  0  0  0  0
  157.9480  211.5300  139.5220 C   0  0  0  0  0  0  0  0  0  0  0  0
  156.9040  210.1030  137.2970 C   0  0  0  0  0  3  0  0  0  0  0  0
  158.0450  209.6920  137.8620 C   0  0  0  0  0  0  0  0  0  0  0  0
  162.5480  211.4400  138.2540 C   0  0  0  0  0  3  0  0  0  0  0  0
  161.5110  212.0490  138.9780 C   0  0  0  0  0  0  0  0  0  0  0  0
  161.5200  210.1560  140.5040 C   0  0  0  0  0  3  0  0  0  0  0  0
  160.9790  211.3900  140.1140 C   0  0  0  0  0  0  0  0  0  0  0  0
  163.0690  210.2080  138.6530 C   0  0  0  0  0  3  0  0  0  0  0  0
  162.5570  209.5680  139.7800 C   0  0  0  0  0  3  0  0  0  0  0  0
  160.2650  213.2230  137.3010 O   0  0  0  0  0  1  0  0  0  0  0  0
  160.9680  213.3690  138.5040 C   0  0  2  0  0  3  0  0  0  0  0  0
  162.5010  214.4310  137.0590 C   0  0  0  0  0  1  0  0  0  0  0  0
  163.1440  214.0760  139.2830 C   0  0  0  0  0  1  0  0  0  0  0  0
  162.0100  214.4030  138.4270 N   0  0  0  0  0  0  0  0  0  0  0  0
  161.5130  213.1570  144.7080 O   0  0  0  0  0  1  0  0  0  0  0  0
  162.3030  213.2060  143.5660 C   0  0  0  0  0  0  0  0  0  0  0  0
  163.5470  213.3580  143.6760 O   0  0  0  0  0  0  0  0  0  0  0  0
  161.7190  213.0790  142.2690 N   0  0  0  0  0  2  0  0  0  0  0  0
  158.5880  214.4530  141.2140 O   0  0  0  0  0  1  0  0  0  0  0  0
  158.5140  213.9060  143.5310 C   0  0  0  0  0  1  0  0  0  0  0  0
  159.3880  214.1650  142.3190 C   0  0  1  0  0  3  0  0  0  0  0  0
  2  4  1  6  0  0  0
  2  3  1  0  0  0  0
  2  1  1  0  0  0  0
  3 27  1  1  0  0  0
  3 30  1  0  0  0  0
  3  1  1  0  0  0  0
  5 10  1  0  0  0  0
  5  7  1  1  0  0  0
  6  5  1  0  0  0  0
  8 10  1  0  0  0  0
  9 12  1  0  0  0  0
 10  4  2  0  0  0  0
 11 12  2  0  0  0  0
 11  6  1  0  0  0  0
 12  8  1  0  0  0  0
 13 17  2  0  0  0  0
 13 14  1  0  0  0  0
 14 16  2  0  0  0  0
 16 15  1  0  0  0  0
 16  2  1  0  0  0  0
 17 18  1  0  0  0  0
 18 15  2  0  0  0  0
 20 19  1  6  0  0  0
 20 14  1  0  0  0  0
 21 23  1  0  0  0  0
 23 20  1  0  0  0  0
 23 22  1  0  0  0  0
 25 26  2  0  0  0  0
 25 24  1  0  0  0  0
 27 25  1  0  0  0  0
 28 30  1  0  0  0  0
 30 29  1  1  0  0  0
M  END
>  <MODEL>
6

>  <REMARK>
 VINA RESULT:      -1.5     11.700     15.027
  Name = 
  6 active torsions:
  status: ('A' for Active; 'I' for Inactive)
    1  A    between atoms: N_1  and  C_5
    2  A    between atoms: C_5  and  C_12
    3  A    between atoms: C_8  and  C_13
    4  A    between atoms: C_13  and  N_30
    5  A    between atoms: C_23  and  N_25
    6  A    between atoms: C_23  and  C_26
                            x       y       z     vdW  Elec       q    Type
                         _______ _______ _______ _____ _____    ______ ____

>  <TORSDO>
F 6

$$$$
=
 OpenBabel11052421473D

 30 32  0  0  1  0  0  0  0  0999 V2000
  161.0590  211.0410  154.2940 C   0  0  0  0  0  2  0  0  0  0  0  0
  159.6450  211.0210  153.7150 C   0  0  2  0  0  0  0  0  0  0  0  0
  160.4600  209.7290  153.8110 C   0  0  2  0  0  0  0  0  0  0  0  0
  159.5180  211.5240  152.3610 N   0  0  0  0  0  0  0  0  0  0  0  0
  158.7650  212.9620  150.5710 C   0  0  1  0  0  3  0  0  0  0  0  0
  157.9810  214.2620  150.3580 C   0  0  0  0  0  2  0  0  0  0  0  0
  160.0560  213.1170  150.0650 O   0  0  0  0  0  1  0  0  0  0  0  0
  158.0490  213.3570  153.0560 C   0  0  0  0  0  2  0  0  0  0  0  0
  155.5390  213.9390  153.3010 C   0  0  0  0  0  1  0  0  0  0  0  0
  158.8220  212.5580  152.0280 C   0  0  0  0  0  0  0  0  0  0  0  0
  156.7310  214.2910  151.1920 C   0  0  0  0  0  3  0  0  0  0  0  0
  156.7680  213.8750  152.4640 C   0  0  0  0  0  0  0  0  0  0  0  0
  157.2180  211.6960  156.6260 C   0  0  0  0  0  3  0  0  0  0  0  0
  158.4050  211.6970  155.8770 C   0  0  0  0  0  0  0  0  0  0  0  0
  157.2370  210.5140  154.1030 C   0  0  0  0  0  3  0  0  0  0  0  0
  158.4180  211.0840  154.6000 C   0  0  0  0  0  0  0  0  0  0  0  0
  156.0530  211.1170  156.1180 C   0  0  0  0  0  3  0  0  0  0  0  0
  156.0630  210.5300  154.8550 C   0  0  0  0  0  3  0  0  0  0  0  0
  160.3840  211.3720  157.1890 O   0  0  0  0  0  1  0  0  0  0  0  0
  159.6400  212.3170  156.4690 C   0  0  2  0  0  3  0  0  0  0  0  0
  158.2170  214.1910  156.6250 C   0  0  0  0  0  1  0  0  0  0  0  0
  160.4560  214.4510  157.2570 C   0  0  0  0  0  1  0  0  0  0  0  0
  159.3360  213.5170  157.2610 N   0  0  0  0  0  0  0  0  0  0  0  0
  162.3820  208.5820  155.7340 O   0  0  0  0  0  0  0  0  0  0  0  0
  161.0360  208.2430  155.8000 C   0  0  0  0  0  0  0  0  0  0  0  0
  160.6430  207.4250  156.6710 O   0  0  0  0  0  1  0  0  0  0  0  0
  160.0930  208.8160  154.8920 N   0  0  0  0  0  2  0  0  0  0  0  0
  162.3300  209.7160  152.2990 O   0  0  0  0  0  1  0  0  0  0  0  0
  161.2230  207.6400  152.6650 C   0  0  0  0  0  1  0  0  0  0  0  0
  161.0810  209.1450  152.5410 C   0  0  1  0  0  3  0  0  0  0  0  0
  2  4  1  6  0  0  0
  2  3  1  0  0  0  0
  2  1  1  0  0  0  0
  2 16  1  0  0  0  0
  3  1  1  0  0  0  0
  3 27  1  1  0  0  0
  5  7  1  1  0  0  0
  5 10  1  0  0  0  0
  6  5  1  0  0  0  0
  6 11  1  0  0  0  0
 10  4  2  0  0  0  0
 10  8  1  0  0  0  0
 11 12  2  0  0  0  0
 12  8  1  0  0  0  0
 12  9  1  0  0  0  0
 14 20  1  0  0  0  0
 14 13  2  0  0  0  0
 15 16  2  0  0  0  0
 15 18  1  0  0  0  0
 16 14  1  0  0  0  0
 17 13  1  0  0  0  0
 18 17  2  0  0  0  0
 20 19  1  1  0  0  0
 20 23  1  0  0  0  0
 21 23  1  0  0  0  0
 22 23  1  0  0  0  0
 24 25  2  0  0  0  0
 25 26  1  0  0  0  0
 27 25  1  0  0  0  0
 28 30  1  0  0  0  0
 30 29  1  1  0  0  0
 30  3  1  0  0  0  0
M  END
>  <MODEL>
7

>  <REMARK>
 VINA RESULT:      -1.4      2.331      5.199
  Name = 
  6 active torsions:
  status: ('A' for Active; 'I' for Inactive)
    1  A    between atoms: N_1  and  C_5
    2  A    between atoms: C_5  and  C_12
    3  A    between atoms: C_8  and  C_13
    4  A    between atoms: C_13  and  N_30
    5  A    between atoms: C_23  and  N_25
    6  A    between atoms: C_23  and  C_26
                            x       y       z     vdW  Elec       q    Type
                         _______ _______ _______ _____ _____    ______ ____

>  <TORSDO>
F 6

$$$$
=
 OpenBabel11052421473D

 30 32  0  0  1  0  0  0  0  0999 V2000
  162.5980  210.3300  152.3970 C   0  0  0  0  0  2  0  0  0  0  0  0
  161.2200  209.8080  152.8020 C   0  0  2  0  0  0  0  0  0  0  0  0
  162.0050  209.1300  151.6760 C   0  0  2  0  0  0  0  0  0  0  0  0
  160.0950  210.5910  152.3300 N   0  0  0  0  0  0  0  0  0  0  0  0
  158.2550  212.1540  152.4410 C   0  0  1  0  0  3  0  0  0  0  0  0
  157.6230  213.1600  153.4100 C   0  0  0  0  0  2  0  0  0  0  0  0
  158.6700  212.8240  151.2900 O   0  0  0  0  0  1  0  0  0  0  0  0
  159.7540  211.6330  154.5210 C   0  0  0  0  0  2  0  0  0  0  0  0
  158.3880  211.3340  156.6980 C   0  0  0  0  0  1  0  0  0  0  0  0
  159.4200  211.4130  153.0610 C   0  0  0  0  0  0  0  0  0  0  0  0
  157.4940  212.5830  154.7920 C   0  0  0  0  0  3  0  0  0  0  0  0
  158.5010  211.8740  155.3160 C   0  0  0  0  0  0  0  0  0  0  0  0
  161.2610  208.5010  156.4220 C   0  0  0  0  0  3  0  0  0  0  0  0
  161.4940  209.3480  155.3280 C   0  0  0  0  0  0  0  0  0  0  0  0
  160.3000  207.7760  153.9090 C   0  0  0  0  0  3  0  0  0  0  0  0
  161.0160  208.9730  154.0480 C   0  0  0  0  0  0  0  0  0  0  0  0
  160.5520  207.3090  156.2640 C   0  0  0  0  0  3  0  0  0  0  0  0
  160.0680  206.9480  155.0080 C   0  0  0  0  0  3  0  0  0  0  0  0
  163.4710  210.5970  154.8090 O   0  0  0  0  0  1  0  0  0  0  0  0
  162.2760  210.6150  155.5400 C   0  0  2  0  0  3  0  0  0  0  0  0
  161.8350  212.1660  157.2610 C   0  0  0  0  0  1  0  0  0  0  0  0
  163.9090  211.0780  157.2610 C   0  0  0  0  0  1  0  0  0  0  0  0
  162.4910  210.9040  156.9650 N   0  0  0  0  0  0  0  0  0  0  0  0
  160.8310  206.4800  151.1240 O   0  0  0  0  0  0  0  0  0  0  0  0
  162.0580  206.5840  151.7690 C   0  0  0  0  0  0  0  0  0  0  0  0
  162.6570  205.5410  152.1360 O   0  0  0  0  0  1  0  0  0  0  0  0
  162.6490  207.8610  152.0140 N   0  0  0  0  0  2  0  0  0  0  0  0
  161.9540  210.6500  149.8130 O   0  0  0  0  0  1  0  0  0  0  0  0
  162.2130  208.3360  149.3120 C   0  0  0  0  0  1  0  0  0  0  0  0
  161.5830  209.3710  150.2250 C   0  0  1  0  0  3  0  0  0  0  0  0
  1  2  1  0  0  0  0
  2  4  1  6  0  0  0
  2 16  1  0  0  0  0
  3 27  1  1  0  0  0
  3  1  1  0  0  0  0
  3  2  1  0  0  0  0
  4 10  2  0  0  0  0
  5  7  1  6  0  0  0
  5 10  1  0  0  0  0
  5  6  1  0  0  0  0
  6 11  1  0  0  0  0
  8 12  1  0  0  0  0
 10  8  1  0  0  0  0
 11 12  2  0  0  0  0
 12  9  1  0  0  0  0
 14 20  1  0  0  0  0
 14 13  2  0  0  0  0
 15 16  2  0  0  0  0
 15 18  1  0  0  0  0
 16 14  1  0  0  0  0
 17 13  1  0  0  0  0
 18 17  2  0  0  0  0
 20 19  1  6  0  0  0
 20 23  1  0  0  0  0
 23 21  1  0  0  0  0
 23 22  1  0  0  0  0
 24 25  2  0  0  0  0
 25 27  1  0  0  0  0
 25 26  1  0  0  0  0
 28 30  1  0  0  0  0
 30 29  1  6  0  0  0
 30  3  1  0  0  0  0
M  END
>  <MODEL>
8

>  <REMARK>
 VINA RESULT:      -1.4      1.888      5.010
  Name = 
  6 active torsions:
  status: ('A' for Active; 'I' for Inactive)
    1  A    between atoms: N_1  and  C_5
    2  A    between atoms: C_5  and  C_12
    3  A    between atoms: C_8  and  C_13
    4  A    between atoms: C_13  and  N_30
    5  A    between atoms: C_23  and  N_25
    6  A    between atoms: C_23  and  C_26
                            x       y       z     vdW  Elec       q    Type
                         _______ _______ _______ _____ _____    ______ ____

>  <TORSDO>
F 6

$$$$
