=
 OpenBabel11062410353D

 43 47  0  0  1  0  0  0  0  0999 V2000
  161.9240  209.7040  152.1760 C   0  0  0  0  0  0  0  0  0  0  0  0
  161.6180  210.4910  153.2180 C   0  0  0  0  0  3  0  0  0  0  0  0
  161.9520  212.3130  155.8780 C   0  0  0  0  0  2  0  0  0  0  0  0
  159.5400  212.6360  153.9930 C   0  0  2  0  0  3  0  0  0  0  0  0
  158.4980  211.8580  153.1380 C   0  0  1  0  0  3  0  0  0  0  0  0
  160.6650  213.0340  156.1820 C   0  0  0  0  0  0  0  0  0  0  0  0
  160.6230  213.8150  157.2610 C   0  0  0  0  0  2  0  0  0  0  0  0
  159.4790  209.7360  154.3570 C   0  0  2  0  0  3  0  0  0  0  0  0
  159.3660  212.6720  155.5040 C   0  0  1  0  0  3  0  0  0  0  0  0
  161.9320  210.9110  156.4060 C   0  0  0  0  0  3  0  0  0  0  0  0
  158.6770  210.3230  153.1810 C   0  0  1  0  0  3  0  0  0  0  0  0
  158.8810  213.8300  154.6480 C   0  0  0  0  0  2  0  0  0  0  0  0
  161.1460  208.5890  156.3740 C   0  0  0  0  0  2  0  0  0  0  0  0
  161.4630  209.8870  155.6900 C   0  0  0  0  0  0  0  0  0  0  0  0
  160.4730  207.6130  155.3890 C   0  0  0  0  0  2  0  0  0  0  0  0
  160.8880  210.1000  154.3980 N   0  0  0  0  0  0  0  0  0  0  0  0
  159.3000  208.2310  154.5880 C   0  0  0  0  0  2  0  0  0  0  0  0
  157.3570  210.9600  153.6460 C   0  0  1  0  0  3  0  0  0  0  0  0
  157.0990  210.9890  155.1540 C   0  0  0  0  0  2  0  0  0  0  0  0
  155.7230  211.5670  155.4480 C   0  0  0  0  0  2  0  0  0  0  0  0
  154.9220  213.4240  154.1770 O   0  0  0  0  0  1  0  0  0  0  0  0
  155.7130  213.0760  155.2730 C   0  0  0  0  0  2  0  0  0  0  0  0
  162.7520  210.3000  151.0810 C   0  0  0  0  0  2  0  0  0  0  0  0
  160.1860  213.0690  150.0890 C   0  0  0  0  0  0  0  0  0  0  0  0
  160.3530  212.9880  148.6240 C   0  0  0  0  0  0  0  0  0  0  0  0
  159.4130  214.0150  147.5560 Cl  0  0  0  0  0  0  0  0  0  0  0  0
  162.0310  211.2400  148.9460 C   0  0  0  0  0  3  0  0  0  0  0  0
  161.0130  212.2110  151.0050 C   0  0  0  0  0  2  0  0  0  0  0  0
  161.9460  211.2720  150.2820 C   0  0  0  0  0  0  0  0  0  0  0  0
  159.3500  213.8690  150.5870 O   0  0  0  0  0  0  0  0  0  0  0  0
  161.2220  212.1280  148.0960 C   0  0  0  0  0  3  0  0  0  0  0  0
  161.3840  208.3080  152.0230 C   0  0  1  0  0  3  0  0  0  0  0  0
  161.2860  207.9340  150.5400 C   0  0  1  0  0  3  0  0  0  0  0  0
  162.5430  207.7180  149.9570 O   0  0  0  0  0  1  0  0  0  0  0  0
  160.3850  206.8750  150.2910 O   0  0  0  0  0  0  0  0  0  0  0  0
  160.5770  206.4080  148.9810 C   0  0  0  0  0  2  0  0  0  0  0  0
  160.8270  204.9160  149.0080 C   0  0  0  0  0  2  0  0  0  0  0  0
  161.3680  204.4730  147.6650 C   0  0  0  0  0  2  0  0  0  0  0  0
  161.6420  203.1050  147.7040 O   0  0  0  0  0  1  0  0  0  0  0  0
  162.1870  207.3680  152.7310 O   0  0  0  0  0  0  0  0  0  0  0  0
  161.0050  205.2540  153.1380 N   0  0  0  0  0  1  0  0  0  0  0  0
  162.0660  205.9910  152.5370 C   0  0  0  0  0  0  0  0  0  0  0  0
  162.9030  205.3920  151.8130 O   0  0  0  0  0  0  0  0  0  0  0  0
  1  2  2  0  0  0  0
  2 16  1  0  0  0  0
  3  6  1  0  0  0  0
  3 10  1  0  0  0  0
  4 12  1  6  0  0  0
  4  9  1  0  0  0  0
  5 11  1  0  0  0  0
  5 18  1  0  0  0  0
  5  4  1  0  0  0  0
  6  7  2  0  0  0  0
  8 16  1  0  0  0  0
  8 17  1  0  0  0  0
  9  6  1  0  0  0  0
 11 18  1  0  0  0  0
 11  8  1  0  0  0  0
 12  9  1  0  0  0  0
 14 13  1  0  0  0  0
 14 10  2  0  0  0  0
 15 13  1  0  0  0  0
 16 14  1  0  0  0  0
 17 15  1  0  0  0  0
 18 19  1  0  0  0  0
 19 20  1  0  0  0  0
 21 22  1  0  0  0  0
 22 20  1  0  0  0  0
 23  1  1  0  0  0  0
 24 30  2  0  0  0  0
 24 28  1  0  0  0  0
 25 24  1  0  0  0  0
 26 25  1  0  0  0  0
 27 29  2  0  0  0  0
 29 28  1  0  0  0  0
 29 23  1  0  0  0  0
 31 25  2  0  0  0  0
 31 27  1  0  0  0  0
 32  1  1  0  0  0  0
 32 40  1  0  0  0  0
 33 32  1  0  0  0  0
 34 33  1  0  0  0  0
 35 33  1  0  0  0  0
 36 37  1  0  0  0  0
 36 35  1  0  0  0  0
 38 39  1  0  0  0  0
 38 37  1  0  0  0  0
 42 40  1  0  0  0  0
 42 41  1  0  0  0  0
 43 42  2  0  0  0  0
M  END
>  <MODEL>
1

>  <REMARK>
 VINA RESULT:      -1.7      0.000      0.000
  Name = 
  14 active torsions:
  status: ('A' for Active; 'I' for Inactive)
    1  A    between atoms: C_1  and  C_34
    2  A    between atoms: C_1  and  C_35
    3  A    between atoms: C_5  and  C_18
    4  A    between atoms: C_5  and  C_23
    5  A    between atoms: C_8  and  C_21
    6  A    between atoms: C_8  and  O_30
    7  A    between atoms: C_8  and  C_34
    8  A    between atoms: C_10  and  C_41
    9  A    between atoms: C_10  and  C_42
   10  A    between atoms: O_16  and  C_21
   11  A    between atoms: O_16  and  C_23
   12  A    between atoms: C_22  and  C_42
   13  A    between atoms: O_30  and  C_33
   14  A    between atoms: N_36  and  C_38
                            x       y       z     vdW  Elec       q    Type
                         _______ _______ _______ _____ _____    ______ ____

>  <TORSDO>
F 14

$$$$
=
 OpenBabel11062410353D

 43 47  0  0  1  0  0  0  0  0999 V2000
  160.8600  207.9290  150.9170 C   0  0  0  0  0  0  0  0  0  0  0  0
  160.3490  209.0100  151.5250 C   0  0  0  0  0  3  0  0  0  0  0  0
  161.2840  211.5860  149.7950 C   0  0  0  0  0  2  0  0  0  0  0  0
  158.7740  211.6630  151.5760 C   0  0  2  0  0  3  0  0  0  0  0  0
  158.1960  211.2310  152.9540 C   0  0  1  0  0  3  0  0  0  0  0  0
  160.5400  212.8160  150.2450 C   0  0  0  0  0  0  0  0  0  0  0  0
  160.8210  213.9730  149.6470 C   0  0  0  0  0  2  0  0  0  0  0  0
  160.6910  210.5730  153.4950 C   0  0  2  0  0  3  0  0  0  0  0  0
  159.7360  212.8410  151.5220 C   0  0  1  0  0  3  0  0  0  0  0  0
  162.4610  211.3040  150.6800 C   0  0  0  0  0  3  0  0  0  0  0  0
  159.1940  210.4380  153.8290 C   0  0  1  0  0  3  0  0  0  0  0  0
  158.2620  213.0380  151.2100 C   0  0  0  0  0  2  0  0  0  0  0  0
  163.4620  210.5870  152.7990 C   0  0  0  0  0  2  0  0  0  0  0  0
  162.3610  210.5540  151.7790 C   0  0  0  0  0  0  0  0  0  0  0  0
  163.0620  209.7760  154.0480 C   0  0  0  0  0  2  0  0  0  0  0  0
  161.0950  210.0400  152.2020 N   0  0  0  0  0  0  0  0  0  0  0  0
  161.6540  210.1150  154.5970 C   0  0  0  0  0  2  0  0  0  0  0  0
  158.5980  211.7590  154.3420 C   0  0  1  0  0  3  0  0  0  0  0  0
  159.5260  212.9750  154.3560 C   0  0  0  0  0  2  0  0  0  0  0  0
  158.7790  214.2090  154.8400 C   0  0  0  0  0  2  0  0  0  0  0  0
  156.5100  214.3250  155.5750 O   0  0  0  0  0  1  0  0  0  0  0  0
  157.7760  213.8540  155.9250 C   0  0  0  0  0  2  0  0  0  0  0  0
  159.9030  207.0170  150.2140 C   0  0  0  0  0  2  0  0  0  0  0  0
  161.1720  203.4550  149.2460 C   0  0  0  0  0  0  0  0  0  0  0  0
  161.0960  202.8390  150.5860 C   0  0  0  0  0  0  0  0  0  0  0  0
  161.5350  201.1570  150.8250 Cl  0  0  0  0  0  0  0  0  0  0  0  0
  160.3050  204.9700  151.4830 C   0  0  0  0  0  3  0  0  0  0  0  0
  160.8260  204.9040  149.0460 C   0  0  0  0  0  2  0  0  0  0  0  0
  160.3660  205.6000  150.3030 C   0  0  0  0  0  0  0  0  0  0  0  0
  161.5380  202.7700  148.2550 O   0  0  0  0  0  0  0  0  0  0  0  0
  160.6900  203.5580  151.6310 C   0  0  0  0  0  3  0  0  0  0  0  0
  162.3140  207.5550  151.0050 C   0  0  1  0  0  3  0  0  0  0  0  0
  162.5180  206.4550  152.0530 C   0  0  1  0  0  3  0  0  0  0  0  0
  163.6980  205.7260  151.8430 O   0  0  0  0  0  1  0  0  0  0  0  0
  162.4010  206.9220  153.3810 O   0  0  0  0  0  0  0  0  0  0  0  0
  161.5220  206.0850  154.0860 C   0  0  0  0  0  2  0  0  0  0  0  0
  160.4400  206.9210  154.7360 C   0  0  0  0  0  2  0  0  0  0  0  0
  160.7960  207.1620  156.1880 C   0  0  0  0  0  2  0  0  0  0  0  0
  159.6720  206.9350  156.9840 O   0  0  0  0  0  1  0  0  0  0  0  0
  162.8170  207.1450  149.7370 O   0  0  0  0  0  0  0  0  0  0  0  0
  162.1480  207.1500  147.3740 N   0  0  0  0  0  1  0  0  0  0  0  0
  162.5270  207.8400  148.5620 C   0  0  0  0  0  0  0  0  0  0  0  0
  162.5920  209.0960  148.5540 O   0  0  0  0  0  0  0  0  0  0  0  0
  1 32  1  0  0  0  0
  1  2  2  0  0  0  0
  2 16  1  0  0  0  0
  3  6  1  0  0  0  0
  3 10  1  0  0  0  0
  4 12  1  6  0  0  0
  4  5  1  0  0  0  0
  5 11  1  0  0  0  0
  5 18  1  0  0  0  0
  6  9  1  0  0  0  0
  7  6  2  0  0  0  0
  8 11  1  0  0  0  0
  8 17  1  0  0  0  0
  9  4  1  0  0  0  0
 10 14  2  0  0  0  0
 11 18  1  0  0  0  0
 12  9  1  0  0  0  0
 13 15  1  0  0  0  0
 14 16  1  0  0  0  0
 14 13  1  0  0  0  0
 15 17  1  0  0  0  0
 16  8  1  0  0  0  0
 18 19  1  0  0  0  0
 19 20  1  0  0  0  0
 20 22  1  0  0  0  0
 21 22  1  0  0  0  0
 23 29  1  0  0  0  0
 23  1  1  0  0  0  0
 24 25  1  0  0  0  0
 25 26  1  0  0  0  0
 25 31  2  0  0  0  0
 27 31  1  0  0  0  0
 28 24  1  0  0  0  0
 28 29  1  0  0  0  0
 29 27  2  0  0  0  0
 30 24  2  0  0  0  0
 32 33  1  0  0  0  0
 33 35  1  0  0  0  0
 34 33  1  0  0  0  0
 35 36  1  0  0  0  0
 36 37  1  0  0  0  0
 37 38  1  0  0  0  0
 38 39  1  0  0  0  0
 40 32  1  0  0  0  0
 41 42  1  0  0  0  0
 42 40  1  0  0  0  0
 43 42  2  0  0  0  0
M  END
>  <MODEL>
2

>  <REMARK>
 VINA RESULT:       0.6      2.772      5.821
  Name = 
  14 active torsions:
  status: ('A' for Active; 'I' for Inactive)
    1  A    between atoms: C_1  and  C_34
    2  A    between atoms: C_1  and  C_35
    3  A    between atoms: C_5  and  C_18
    4  A    between atoms: C_5  and  C_23
    5  A    between atoms: C_8  and  C_21
    6  A    between atoms: C_8  and  O_30
    7  A    between atoms: C_8  and  C_34
    8  A    between atoms: C_10  and  C_41
    9  A    between atoms: C_10  and  C_42
   10  A    between atoms: O_16  and  C_21
   11  A    between atoms: O_16  and  C_23
   12  A    between atoms: C_22  and  C_42
   13  A    between atoms: O_30  and  C_33
   14  A    between atoms: N_36  and  C_38
                            x       y       z     vdW  Elec       q    Type
                         _______ _______ _______ _____ _____    ______ ____

>  <TORSDO>
F 14

$$$$
=
 OpenBabel11062410353D

 43 47  0  0  1  0  0  0  0  0999 V2000
  160.8340  207.7790  151.8520 C   0  0  0  0  0  0  0  0  0  0  0  0
  160.5480  209.0780  151.6870 C   0  0  0  0  0  3  0  0  0  0  0  0
  161.5900  211.4200  149.7040 C   0  0  0  0  0  2  0  0  0  0  0  0
  158.9810  211.7100  151.3120 C   0  0  2  0  0  3  0  0  0  0  0  0
  158.3210  211.4520  152.6970 C   0  0  1  0  0  3  0  0  0  0  0  0
  160.8240  212.6940  149.9520 C   0  0  0  0  0  0  0  0  0  0  0  0
  161.1440  213.7670  149.2300 C   0  0  0  0  0  2  0  0  0  0  0  0
  160.7780  210.8780  153.4610 C   0  0  2  0  0  3  0  0  0  0  0  0
  159.9470  212.8760  151.1660 C   0  0  1  0  0  3  0  0  0  0  0  0
  162.7120  211.2570  150.6850 C   0  0  0  0  0  3  0  0  0  0  0  0
  159.2640  210.7800  153.7210 C   0  0  1  0  0  3  0  0  0  0  0  0
  158.4950  213.0260  150.7460 C   0  0  0  0  0  2  0  0  0  0  0  0
  163.5850  210.8170  152.9320 C   0  0  0  0  0  2  0  0  0  0  0  0
  162.5460  210.6510  151.8620 C   0  0  0  0  0  0  0  0  0  0  0  0
  163.1100  210.1670  154.2480 C   0  0  0  0  0  2  0  0  0  0  0  0
  161.2560  210.1890  152.2720 N   0  0  0  0  0  0  0  0  0  0  0  0
  161.6740  210.5670  154.6670 C   0  0  0  0  0  2  0  0  0  0  0  0
  158.6420  212.1530  154.0280 C   0  0  1  0  0  3  0  0  0  0  0  0
  159.5720  213.3650  153.9440 C   0  0  0  0  0  2  0  0  0  0  0  0
  159.3310  214.3030  155.1170 C   0  0  0  0  0  2  0  0  0  0  0  0
  159.1480  213.1910  157.2220 O   0  0  0  0  0  1  0  0  0  0  0  0
  158.4060  213.6720  156.1430 C   0  0  0  0  0  2  0  0  0  0  0  0
  160.0050  206.7880  151.0950 C   0  0  0  0  0  2  0  0  0  0  0  0
  161.2550  204.9600  147.8810 C   0  0  0  0  0  0  0  0  0  0  0  0
  161.9030  206.1150  147.2270 C   0  0  0  0  0  0  0  0  0  0  0  0
  162.7110  205.9320  145.6800 Cl  0  0  0  0  0  0  0  0  0  0  0  0
  161.2240  207.5180  149.1090 C   0  0  0  0  0  3  0  0  0  0  0  0
  160.5370  205.1230  149.1910 C   0  0  0  0  0  2  0  0  0  0  0  0
  160.6000  206.5220  149.7510 C   0  0  0  0  0  0  0  0  0  0  0  0
  161.2920  203.8240  147.3390 O   0  0  0  0  0  0  0  0  0  0  0  0
  161.8820  207.3120  147.8100 C   0  0  0  0  0  3  0  0  0  0  0  0
  161.8660  207.2890  152.8310 C   0  0  1  0  0  3  0  0  0  0  0  0
  161.2030  206.9120  154.1600 C   0  0  1  0  0  3  0  0  0  0  0  0
  162.1290  206.4700  155.1160 O   0  0  0  0  0  1  0  0  0  0  0  0
  160.3490  207.9190  154.6610 O   0  0  0  0  0  0  0  0  0  0  0  0
  159.4530  207.3470  155.5790 C   0  0  0  0  0  2  0  0  0  0  0  0
  159.9940  207.5110  156.9830 C   0  0  0  0  0  2  0  0  0  0  0  0
  160.5620  208.9060  157.1420 C   0  0  0  0  0  2  0  0  0  0  0  0
  159.5150  209.8220  157.2590 O   0  0  0  0  0  1  0  0  0  0  0  0
  162.5960  206.1880  152.2990 O   0  0  0  0  0  0  0  0  0  0  0  0
  161.0210  204.4640  153.0600 N   0  0  0  0  0  1  0  0  0  0  0  0
  162.0360  204.9160  152.1670 C   0  0  0  0  0  0  0  0  0  0  0  0
  162.4260  204.1620  151.2390 O   0  0  0  0  0  0  0  0  0  0  0  0
  1 32  1  0  0  0  0
  2  1  2  0  0  0  0
  2 16  1  0  0  0  0
  3  6  1  0  0  0  0
  3 10  1  0  0  0  0
  4 12  1  6  0  0  0
  4  5  1  0  0  0  0
  5 11  1  0  0  0  0
  5 18  1  0  0  0  0
  6  9  1  0  0  0  0
  7  6  2  0  0  0  0
  8 11  1  0  0  0  0
  8 17  1  0  0  0  0
  9  4  1  0  0  0  0
 10 14  2  0  0  0  0
 11 18  1  0  0  0  0
 12  9  1  0  0  0  0
 13 15  1  0  0  0  0
 14 16  1  0  0  0  0
 14 13  1  0  0  0  0
 15 17  1  0  0  0  0
 16  8  1  0  0  0  0
 19 18  1  0  0  0  0
 19 20  1  0  0  0  0
 20 22  1  0  0  0  0
 22 21  1  0  0  0  0
 23  1  1  0  0  0  0
 24 28  1  0  0  0  0
 25 31  2  0  0  0  0
 25 24  1  0  0  0  0
 26 25  1  0  0  0  0
 27 29  2  0  0  0  0
 28 29  1  0  0  0  0
 29 23  1  0  0  0  0
 30 24  2  0  0  0  0
 31 27  1  0  0  0  0
 32 33  1  0  0  0  0
 33 35  1  0  0  0  0
 33 34  1  0  0  0  0
 35 36  1  0  0  0  0
 36 37  1  0  0  0  0
 37 38  1  0  0  0  0
 38 39  1  0  0  0  0
 40 32  1  0  0  0  0
 42 40  1  0  0  0  0
 42 41  1  0  0  0  0
 43 42  2  0  0  0  0
M  END
>  <MODEL>
3

>  <REMARK>
 VINA RESULT:       0.8      2.412      5.436
  Name = 
  14 active torsions:
  status: ('A' for Active; 'I' for Inactive)
    1  A    between atoms: C_1  and  C_34
    2  A    between atoms: C_1  and  C_35
    3  A    between atoms: C_5  and  C_18
    4  A    between atoms: C_5  and  C_23
    5  A    between atoms: C_8  and  C_21
    6  A    between atoms: C_8  and  O_30
    7  A    between atoms: C_8  and  C_34
    8  A    between atoms: C_10  and  C_41
    9  A    between atoms: C_10  and  C_42
   10  A    between atoms: O_16  and  C_21
   11  A    between atoms: O_16  and  C_23
   12  A    between atoms: C_22  and  C_42
   13  A    between atoms: O_30  and  C_33
   14  A    between atoms: N_36  and  C_38
                            x       y       z     vdW  Elec       q    Type
                         _______ _______ _______ _____ _____    ______ ____

>  <TORSDO>
F 14

$$$$
