=
 OpenBabel11062410313D

 43 47  0  0  1  0  0  0  0  0999 V2000
  161.7410  209.9680  149.4990 N   0  0  0  0  0  0  0  0  0  0  0  0
  162.7440  208.2530  148.2610 O   0  0  0  0  0  0  0  0  0  0  0  0
  160.2530  207.2610  156.2310 C   0  0  0  0  0  0  0  0  0  0  0  0
  161.9090  208.5790  149.1480 C   0  0  0  0  0  0  0  0  0  0  0  0
  160.2540  211.3160  153.2540 C   0  0  0  0  0  0  0  0  0  0  0  0
  161.0470  209.5640  151.7420 N   0  0  0  0  0  0  0  0  0  0  0  0
  160.0510  209.5100  155.3550 C   0  0  0  0  0  0  0  0  0  0  0  0
  160.6860  206.8090  154.9810 C   0  0  0  0  0  3  0  0  0  0  0  0
  160.1340  206.3900  157.2610 F   0  0  0  0  0  0  0  0  0  0  0  0
  160.4860  209.0550  154.0890 C   0  0  0  0  0  0  0  0  0  0  0  0
  159.9350  208.6090  156.4170 C   0  0  0  0  0  3  0  0  0  0  0  0
  160.8040  207.7020  153.9120 C   0  0  0  0  0  3  0  0  0  0  0  0
  161.2400  210.4100  150.7750 C   0  0  0  0  0  0  0  0  0  0  0  0
  160.5900  209.9750  153.0340 C   0  0  0  0  0  0  0  0  0  0  0  0
  159.8330  211.7210  154.5240 C   0  0  0  0  0  3  0  0  0  0  0  0
  160.2810  212.2920  152.1150 C   0  0  1  0  0  3  0  0  0  0  0  0
  161.0060  211.7790  150.9910 O   0  0  0  0  0  0  0  0  0  0  0  0
  159.7440  210.8200  155.5380 N   0  0  0  0  0  0  0  0  0  0  0  0
  162.1180  210.9450  148.5600 C   0  0  0  0  0  0  0  0  0  0  0  0
  162.4270  211.7500  147.7870 N   0  0  0  0  0  0  0  0  0  0  0  0
  158.8560  212.6280  151.6950 C   0  0  0  0  0  2  0  0  0  0  0  0
  159.8830  214.2020  148.3990 C   0  0  0  0  0  3  0  0  0  0  0  0
  158.7210  214.0180  147.6290 C   0  0  0  0  0  0  0  0  0  0  0  0
  157.6560  212.9340  149.5230 C   0  0  0  0  0  3  0  0  0  0  0  0
  159.9300  213.7530  149.7230 C   0  0  0  0  0  3  0  0  0  0  0  0
  158.8160  213.1170  150.2860 C   0  0  0  0  0  0  0  0  0  0  0  0
  157.6100  213.3840  148.1990 C   0  0  0  0  0  3  0  0  0  0  0  0
  159.4990  213.9550  145.2800 C   0  0  0  0  0  1  0  0  0  0  0  0
  158.6430  214.4520  146.3020 O   0  0  0  0  0  0  0  0  0  0  0  0
  161.1000  207.5010  149.8050 C   0  0  0  0  0  2  0  0  0  0  0  0
  161.9480  206.2770  150.1480 C   0  0  0  0  0  2  0  0  0  0  0  0
  161.1390  205.0010  150.4210 C   0  0  2  0  0  3  0  0  0  0  0  0
  161.4640  204.3660  151.7390 C   0  0  0  0  0  3  0  0  0  0  0  0
  160.6540  204.3850  152.6510 O   0  0  0  0  0  0  0  0  0  0  0  0
  161.1810  204.0210  149.2830 C   0  0  0  0  0  0  0  0  0  0  0  0
  160.3730  203.1050  149.2570 O   0  0  0  0  0  0  0  0  0  0  0  0
  162.1750  204.1590  148.1690 C   0  0  0  0  0  2  0  0  0  0  0  0
  161.5110  204.5290  146.8850 C   0  0  0  0  0  0  0  0  0  0  0  0
  160.4540  206.1970  145.4780 C   0  0  0  0  0  3  0  0  0  0  0  0
  160.6920  203.9190  144.6840 C   0  0  0  0  0  3  0  0  0  0  0  0
  160.2620  205.2340  144.4800 C   0  0  0  0  0  3  0  0  0  0  0  0
  161.3140  203.5650  145.8850 C   0  0  0  0  0  3  0  0  0  0  0  0
  161.0780  205.8440  146.6790 C   0  0  0  0  0  3  0  0  0  0  0  0
  1 13  1  0  0  0  0
  2  4  2  0  0  0  0
  3 11  1  0  0  0  0
  3  9  1  0  0  0  0
  4  1  1  0  0  0  0
  4 30  1  0  0  0  0
  5 15  1  0  0  0  0
  6 14  1  0  0  0  0
  7 18  1  0  0  0  0
  7 11  2  0  0  0  0
  8  3  2  0  0  0  0
 10  7  1  0  0  0  0
 12 10  2  0  0  0  0
 12  8  1  0  0  0  0
 13 17  1  0  0  0  0
 13  6  2  0  0  0  0
 14  5  2  0  0  0  0
 14 10  1  0  0  0  0
 15 18  2  0  0  0  0
 16 21  1  6  0  0  0
 16  5  1  0  0  0  0
 17 16  1  0  0  0  0
 19  1  1  0  0  0  0
 20 19  3  0  0  0  0
 22 25  1  0  0  0  0
 23 27  1  0  0  0  0
 23 22  2  0  0  0  0
 24 26  1  0  0  0  0
 25 26  2  0  0  0  0
 26 21  1  0  0  0  0
 27 24  2  0  0  0  0
 28 29  1  0  0  0  0
 29 23  1  0  0  0  0
 30 31  1  0  0  0  0
 32 31  1  6  0  0  0
 32 33  1  0  0  0  0
 33 34  2  0  0  0  0
 35 32  1  0  0  0  0
 36 35  2  0  0  0  0
 37 35  1  0  0  0  0
 38 37  1  0  0  0  0
 39 43  2  0  0  0  0
 40 42  1  0  0  0  0
 41 40  2  0  0  0  0
 41 39  1  0  0  0  0
 42 38  2  0  0  0  0
 43 38  1  0  0  0  0
M  END
>  <MODEL>
1

>  <REMARK>
 VINA RESULT:      -7.8      0.000      0.000
  Name = 
  11 active torsions:
  status: ('A' for Active; 'I' for Inactive)
    1  A    between atoms: C_1  and  C_34
    2  A    between atoms: C_1  and  C_35
    3  A    between atoms: N_2  and  C_12
    4  A    between atoms: C_4  and  C_7
    5  A    between atoms: C_4  and  C_15
    6  A    between atoms: C_6  and  C_7
    7  A    between atoms: C_10  and  C_15
    8  A    between atoms: C_11  and  C_14
    9  A    between atoms: C_14  and  C_22
   10  A    between atoms: C_15  and  C_22
   11  A    between atoms: C_19  and  O_37
                            x       y       z     vdW  Elec       q    Type
                         _______ _______ _______ _____ _____    ______ ____

>  <TORSDO>
F 11

$$$$
=
 OpenBabel11062410313D

 43 47  0  0  1  0  0  0  0  0999 V2000
  161.9810  213.0850  147.8020 N   0  0  0  0  0  0  0  0  0  0  0  0
  164.1550  212.2380  147.9930 O   0  0  0  0  0  0  0  0  0  0  0  0
  158.6770  212.2110  154.3730 C   0  0  0  0  0  0  0  0  0  0  0  0
  162.9440  212.1550  148.3370 C   0  0  0  0  0  0  0  0  0  0  0  0
  158.3150  214.0900  149.7210 C   0  0  0  0  0  0  0  0  0  0  0  0
  160.5040  212.9970  149.6690 N   0  0  0  0  0  0  0  0  0  0  0  0
  157.9260  213.3420  152.3680 C   0  0  0  0  0  0  0  0  0  0  0  0
  159.8550  211.8320  153.7230 C   0  0  0  0  0  3  0  0  0  0  0  0
  158.4650  211.8410  155.6580 F   0  0  0  0  0  0  0  0  0  0  0  0
  159.1150  212.9580  151.7070 C   0  0  0  0  0  0  0  0  0  0  0  0
  157.7140  212.9640  153.6960 C   0  0  0  0  0  3  0  0  0  0  0  0
  160.0760  212.2040  152.3940 C   0  0  0  0  0  3  0  0  0  0  0  0
  160.7460  213.4180  148.4640 C   0  0  0  0  0  0  0  0  0  0  0  0
  159.3060  213.3440  150.3710 C   0  0  0  0  0  0  0  0  0  0  0  0
  157.1580  214.4510  150.4170 C   0  0  0  0  0  3  0  0  0  0  0  0
  158.4700  214.4370  148.2700 C   0  0  1  0  0  3  0  0  0  0  0  0
  159.8170  214.2510  147.8180 O   0  0  0  0  0  0  0  0  0  0  0  0
  156.9900  214.0760  151.7120 N   0  0  0  0  0  0  0  0  0  0  0  0
  162.2760  213.7270  146.5860 C   0  0  0  0  0  0  0  0  0  0  0  0
  162.5200  214.2550  145.5850 N   0  0  0  0  0  0  0  0  0  0  0  0
  157.5260  213.5800  147.4350 C   0  0  0  0  0  2  0  0  0  0  0  0
  158.0070  214.3740  143.7560 C   0  0  0  0  0  3  0  0  0  0  0  0
  158.8790  213.3440  143.3610 C   0  0  0  0  0  0  0  0  0  0  0  0
  158.8530  212.4750  145.6280 C   0  0  0  0  0  3  0  0  0  0  0  0
  157.5630  214.4530  145.0810 C   0  0  0  0  0  3  0  0  0  0  0  0
  157.9880  213.5030  146.0190 C   0  0  0  0  0  0  0  0  0  0  0  0
  159.2960  212.3970  144.3040 C   0  0  0  0  0  3  0  0  0  0  0  0
  160.4990  212.4880  141.6990 C   0  0  0  0  0  1  0  0  0  0  0  0
  159.3430  213.2390  142.0460 O   0  0  0  0  0  0  0  0  0  0  0  0
  162.5410  211.0690  149.2900 C   0  0  0  0  0  2  0  0  0  0  0  0
  162.0700  209.8120  148.5590 C   0  0  0  0  0  2  0  0  0  0  0  0
  161.4880  208.7260  149.4760 C   0  0  2  0  0  3  0  0  0  0  0  0
  161.9310  208.8570  150.9010 C   0  0  0  0  0  3  0  0  0  0  0  0
  161.3710  208.2270  151.7840 O   0  0  0  0  0  0  0  0  0  0  0  0
  161.6770  207.3360  148.9380 C   0  0  0  0  0  0  0  0  0  0  0  0
  162.8070  206.9390  148.6990 O   0  0  0  0  0  0  0  0  0  0  0  0
  160.5100  206.4210  148.7120 C   0  0  0  0  0  2  0  0  0  0  0  0
  160.7340  205.0850  149.3390 C   0  0  0  0  0  0  0  0  0  0  0  0
  161.0470  202.6920  149.1130 C   0  0  0  0  0  3  0  0  0  0  0  0
  161.0460  203.7090  151.3130 C   0  0  0  0  0  3  0  0  0  0  0  0
  161.1520  202.5740  150.5040 C   0  0  0  0  0  3  0  0  0  0  0  0
  160.8350  204.9640  150.7320 C   0  0  0  0  0  3  0  0  0  0  0  0
  160.8380  203.9470  148.5320 C   0  0  0  0  0  3  0  0  0  0  0  0
  1  4  1  0  0  0  0
  1 13  1  0  0  0  0
  2  4  2  0  0  0  0
  3  9  1  0  0  0  0
  4 30  1  0  0  0  0
  5 14  2  0  0  0  0
  5 15  1  0  0  0  0
  6 14  1  0  0  0  0
  7 11  1  0  0  0  0
  8  3  1  0  0  0  0
 10  7  2  0  0  0  0
 10 12  1  0  0  0  0
 11  3  2  0  0  0  0
 12  8  2  0  0  0  0
 13  6  2  0  0  0  0
 14 10  1  0  0  0  0
 15 18  2  0  0  0  0
 16 21  1  6  0  0  0
 16  5  1  0  0  0  0
 17 16  1  0  0  0  0
 17 13  1  0  0  0  0
 18  7  1  0  0  0  0
 19  1  1  0  0  0  0
 20 19  3  0  0  0  0
 22 25  1  0  0  0  0
 23 22  2  0  0  0  0
 23 27  1  0  0  0  0
 24 26  1  0  0  0  0
 25 26  2  0  0  0  0
 26 21  1  0  0  0  0
 27 24  2  0  0  0  0
 28 29  1  0  0  0  0
 29 23  1  0  0  0  0
 31 30  1  0  0  0  0
 32 31  1  6  0  0  0
 32 33  1  0  0  0  0
 33 34  2  0  0  0  0
 35 32  1  0  0  0  0
 36 35  2  0  0  0  0
 37 35  1  0  0  0  0
 37 38  1  0  0  0  0
 38 42  1  0  0  0  0
 39 41  2  0  0  0  0
 41 40  1  0  0  0  0
 42 40  2  0  0  0  0
 43 39  1  0  0  0  0
 43 38  2  0  0  0  0
M  END
>  <MODEL>
2

>  <REMARK>
 VINA RESULT:      -7.6      2.781      4.589
  Name = 
  11 active torsions:
  status: ('A' for Active; 'I' for Inactive)
    1  A    between atoms: C_1  and  C_34
    2  A    between atoms: C_1  and  C_35
    3  A    between atoms: N_2  and  C_12
    4  A    between atoms: C_4  and  C_7
    5  A    between atoms: C_4  and  C_15
    6  A    between atoms: C_6  and  C_7
    7  A    between atoms: C_10  and  C_15
    8  A    between atoms: C_11  and  C_14
    9  A    between atoms: C_14  and  C_22
   10  A    between atoms: C_15  and  C_22
   11  A    between atoms: C_19  and  O_37
                            x       y       z     vdW  Elec       q    Type
                         _______ _______ _______ _____ _____    ______ ____

>  <TORSDO>
F 11

$$$$
=
 OpenBabel11062410313D

 43 47  0  0  1  0  0  0  0  0999 V2000
  161.1000  209.8670  154.5800 N   0  0  0  0  0  0  0  0  0  0  0  0
  160.8800  211.5700  156.1720 O   0  0  0  0  0  0  0  0  0  0  0  0
  161.7090  213.1000  147.9450 C   0  0  0  0  0  0  0  0  0  0  0  0
  160.6420  211.1690  155.0000 C   0  0  0  0  0  0  0  0  0  0  0  0
  161.8210  208.7850  150.5260 C   0  0  0  0  0  0  0  0  0  0  0  0
  161.2980  210.4180  152.2710 N   0  0  0  0  0  0  0  0  0  0  0  0
  161.9170  210.7760  148.5920 C   0  0  0  0  0  0  0  0  0  0  0  0
  161.4150  213.4470  149.2670 C   0  0  0  0  0  3  0  0  0  0  0  0
  161.7440  214.0570  146.9870 F   0  0  0  0  0  0  0  0  0  0  0  0
  161.6180  211.1220  149.9300 C   0  0  0  0  0  0  0  0  0  0  0  0
  161.9590  211.7670  147.6080 C   0  0  0  0  0  3  0  0  0  0  0  0
  161.3700  212.4620  150.2580 C   0  0  0  0  0  3  0  0  0  0  0  0
  161.3430  209.5160  153.2050 C   0  0  0  0  0  0  0  0  0  0  0  0
  161.5760  210.1110  150.9010 C   0  0  0  0  0  0  0  0  0  0  0  0
  162.1180  208.4900  149.1920 C   0  0  0  0  0  3  0  0  0  0  0  0
  161.6970  207.6840  151.5380 C   0  0  1  0  0  3  0  0  0  0  0  0
  161.6840  208.1920  152.8780 O   0  0  0  0  0  0  0  0  0  0  0  0
  162.1620  209.4810  148.2640 N   0  0  0  0  0  0  0  0  0  0  0  0
  161.3560  208.8990  155.5680 C   0  0  0  0  0  0  0  0  0  0  0  0
  161.5680  208.1030  156.3820 N   0  0  0  0  0  0  0  0  0  0  0  0
  160.4230  206.8910  151.2780 C   0  0  0  0  0  2  0  0  0  0  0  0
  161.3250  203.2360  151.7560 C   0  0  0  0  0  3  0  0  0  0  0  0
  161.3070  202.7690  150.4300 C   0  0  0  0  0  0  0  0  0  0  0  0
  160.7190  205.0000  149.6710 C   0  0  0  0  0  3  0  0  0  0  0  0
  161.0400  204.5770  152.0370 C   0  0  0  0  0  3  0  0  0  0  0  0
  160.7350  205.4600  150.9930 C   0  0  0  0  0  0  0  0  0  0  0  0
  161.0040  203.6590  149.3920 C   0  0  0  0  0  3  0  0  0  0  0  0
  161.3490  200.8850  148.8270 C   0  0  0  0  0  1  0  0  0  0  0  0
  161.5840  201.4350  150.1180 O   0  0  0  0  0  0  0  0  0  0  0  0
  159.8690  212.0630  154.0770 C   0  0  0  0  0  2  0  0  0  0  0  0
  158.4040  211.6400  153.9640 C   0  0  0  0  0  2  0  0  0  0  0  0
  157.4360  212.4700  154.8190 C   0  0  2  0  0  3  0  0  0  0  0  0
  156.6080  211.6380  155.7500 C   0  0  0  0  0  3  0  0  0  0  0  0
  156.7230  210.4230  155.7630 O   0  0  0  0  0  0  0  0  0  0  0  0
  156.6080  213.4290  154.0110 C   0  0  0  0  0  0  0  0  0  0  0  0
  155.3910  213.3840  154.0990 O   0  0  0  0  0  0  0  0  0  0  0  0
  157.2470  214.4530  153.1200 C   0  0  0  0  0  2  0  0  0  0  0  0
  156.9580  214.1820  151.6820 C   0  0  0  0  0  0  0  0  0  0  0  0
  155.4080  214.1960  149.8180 C   0  0  0  0  0  3  0  0  0  0  0  0
  157.6780  213.4110  149.4970 C   0  0  0  0  0  3  0  0  0  0  0  0
  156.4060  213.6780  148.9830 C   0  0  0  0  0  3  0  0  0  0  0  0
  157.9550  213.6600  150.8450 C   0  0  0  0  0  3  0  0  0  0  0  0
  155.6850  214.4480  151.1660 C   0  0  0  0  0  3  0  0  0  0  0  0
  1  4  1  0  0  0  0
  1 19  1  0  0  0  0
  3  8  1  0  0  0  0
  4  2  2  0  0  0  0
  5 14  1  0  0  0  0
  5 16  1  0  0  0  0
  6 13  2  0  0  0  0
  7 10  1  0  0  0  0
  8 12  2  0  0  0  0
  9  3  1  0  0  0  0
 10 12  1  0  0  0  0
 10 14  2  0  0  0  0
 11  3  2  0  0  0  0
 11  7  1  0  0  0  0
 13  1  1  0  0  0  0
 14  6  1  0  0  0  0
 15  5  2  0  0  0  0
 16 21  1  6  0  0  0
 16 17  1  0  0  0  0
 17 13  1  0  0  0  0
 18  7  2  0  0  0  0
 18 15  1  0  0  0  0
 19 20  3  0  0  0  0
 22 25  1  0  0  0  0
 23 22  2  0  0  0  0
 24 26  1  0  0  0  0
 26 21  1  0  0  0  0
 26 25  2  0  0  0  0
 27 24  2  0  0  0  0
 27 23  1  0  0  0  0
 28 29  1  0  0  0  0
 29 23  1  0  0  0  0
 30  4  1  0  0  0  0
 31 30  1  0  0  0  0
 32 31  1  6  0  0  0
 32 33  1  0  0  0  0
 33 34  2  0  0  0  0
 35 36  2  0  0  0  0
 35 32  1  0  0  0  0
 37 35  1  0  0  0  0
 38 37  1  0  0  0  0
 39 43  2  0  0  0  0
 40 42  1  0  0  0  0
 41 40  2  0  0  0  0
 41 39  1  0  0  0  0
 42 38  2  0  0  0  0
 43 38  1  0  0  0  0
M  END
>  <MODEL>
3

>  <REMARK>
 VINA RESULT:      -7.5      3.327      9.088
  Name = 
  11 active torsions:
  status: ('A' for Active; 'I' for Inactive)
    1  A    between atoms: C_1  and  C_34
    2  A    between atoms: C_1  and  C_35
    3  A    between atoms: N_2  and  C_12
    4  A    between atoms: C_4  and  C_7
    5  A    between atoms: C_4  and  C_15
    6  A    between atoms: C_6  and  C_7
    7  A    between atoms: C_10  and  C_15
    8  A    between atoms: C_11  and  C_14
    9  A    between atoms: C_14  and  C_22
   10  A    between atoms: C_15  and  C_22
   11  A    between atoms: C_19  and  O_37
                            x       y       z     vdW  Elec       q    Type
                         _______ _______ _______ _____ _____    ______ ____

>  <TORSDO>
F 11

$$$$
=
 OpenBabel11062410313D

 43 47  0  0  1  0  0  0  0  0999 V2000
  160.7670  208.7120  154.3170 N   0  0  0  0  0  0  0  0  0  0  0  0
  160.3990  210.2070  156.0810 O   0  0  0  0  0  0  0  0  0  0  0  0
  162.0110  212.7410  148.2270 C   0  0  0  0  0  0  0  0  0  0  0  0
  160.2730  209.9580  154.8510 C   0  0  0  0  0  0  0  0  0  0  0  0
  161.8690  208.1350  150.2450 C   0  0  0  0  0  0  0  0  0  0  0  0
  161.1850  209.5450  152.1240 N   0  0  0  0  0  0  0  0  0  0  0  0
  162.1530  210.3510  148.5940 C   0  0  0  0  0  0  0  0  0  0  0  0
  161.5930  212.9230  149.5490 C   0  0  0  0  0  3  0  0  0  0  0  0
  162.1390  213.8090  147.4050 F   0  0  0  0  0  0  0  0  0  0  0  0
  161.7280  210.5320  149.9300 C   0  0  0  0  0  0  0  0  0  0  0  0
  162.2890  211.4570  147.7510 C   0  0  0  0  0  3  0  0  0  0  0  0
  161.4520  211.8230  150.3990 C   0  0  0  0  0  3  0  0  0  0  0  0
  161.1400  208.5320  152.9380 C   0  0  0  0  0  0  0  0  0  0  0  0
  161.5910  209.4080  150.7590 C   0  0  0  0  0  0  0  0  0  0  0  0
  162.2920  208.0050  148.9190 C   0  0  0  0  0  3  0  0  0  0  0  0
  161.6480  206.9190  151.0950 C   0  0  1  0  0  3  0  0  0  0  0  0
  161.5070  207.2550  152.4800 O   0  0  0  0  0  0  0  0  0  0  0  0
  162.4260  209.1040  148.1300 N   0  0  0  0  0  0  0  0  0  0  0  0
  160.9260  207.6260  155.1940 C   0  0  0  0  0  0  0  0  0  0  0  0
  161.0580  206.7310  155.9180 N   0  0  0  0  0  0  0  0  0  0  0  0
  160.4030  206.1810  150.6180 C   0  0  0  0  0  2  0  0  0  0  0  0
  161.4470  203.4060  148.2510 C   0  0  0  0  0  3  0  0  0  0  0  0
  161.4210  202.2880  149.1040 C   0  0  0  0  0  0  0  0  0  0  0  0
  160.7240  203.7230  150.9350 C   0  0  0  0  0  3  0  0  0  0  0  0
  161.1150  204.6740  148.7390 C   0  0  0  0  0  3  0  0  0  0  0  0
  160.7540  204.8340  150.0830 C   0  0  0  0  0  0  0  0  0  0  0  0
  161.0560  202.4550  150.4450 C   0  0  0  0  0  3  0  0  0  0  0  0
  161.1920  200.4490  147.4640 C   0  0  0  0  0  1  0  0  0  0  0  0
  161.7510  201.0090  148.6470 O   0  0  0  0  0  0  0  0  0  0  0  0
  159.5930  210.9700  153.9800 C   0  0  0  0  0  2  0  0  0  0  0  0
  158.1970  211.3240  154.4940 C   0  0  0  0  0  2  0  0  0  0  0  0
  157.9730  212.8230  154.7390 C   0  0  2  0  0  3  0  0  0  0  0  0
  158.5130  213.2950  156.0540 C   0  0  0  0  0  3  0  0  0  0  0  0
  159.6370  213.7640  156.1290 O   0  0  0  0  0  0  0  0  0  0  0  0
  156.5500  213.2520  154.5120 C   0  0  0  0  0  0  0  0  0  0  0  0
  155.6470  212.6180  155.0350 O   0  0  0  0  0  0  0  0  0  0  0  0
  156.2200  214.4530  153.6760 C   0  0  0  0  0  2  0  0  0  0  0  0
  156.3860  214.1700  152.2210 C   0  0  0  0  0  0  0  0  0  0  0  0
  155.4560  214.0950  149.9830 C   0  0  0  0  0  3  0  0  0  0  0  0
  157.7630  213.4500  150.3580 C   0  0  0  0  0  3  0  0  0  0  0  0
  156.6850  213.6410  149.4880 C   0  0  0  0  0  3  0  0  0  0  0  0
  157.6140  213.7120  151.7230 C   0  0  0  0  0  3  0  0  0  0  0  0
  155.3080  214.3590  151.3490 C   0  0  0  0  0  3  0  0  0  0  0  0
  1  4  1  0  0  0  0
  1 19  1  0  0  0  0
  3  8  1  0  0  0  0
  4  2  2  0  0  0  0
  5 14  1  0  0  0  0
  5 16  1  0  0  0  0
  6 13  2  0  0  0  0
  7 10  1  0  0  0  0
  8 12  2  0  0  0  0
  9  3  1  0  0  0  0
 10 12  1  0  0  0  0
 10 14  2  0  0  0  0
 11  3  2  0  0  0  0
 11  7  1  0  0  0  0
 13  1  1  0  0  0  0
 14  6  1  0  0  0  0
 15  5  2  0  0  0  0
 16 21  1  6  0  0  0
 16 17  1  0  0  0  0
 17 13  1  0  0  0  0
 18  7  2  0  0  0  0
 18 15  1  0  0  0  0
 19 20  3  0  0  0  0
 22 25  2  0  0  0  0
 22 23  1  0  0  0  0
 23 27  2  0  0  0  0
 25 26  1  0  0  0  0
 26 21  1  0  0  0  0
 26 24  2  0  0  0  0
 27 24  1  0  0  0  0
 28 29  1  0  0  0  0
 29 23  1  0  0  0  0
 30 31  1  0  0  0  0
 30  4  1  0  0  0  0
 32 31  1  1  0  0  0
 32 33  1  0  0  0  0
 33 34  2  0  0  0  0
 35 32  1  0  0  0  0
 35 36  2  0  0  0  0
 37 35  1  0  0  0  0
 38 37  1  0  0  0  0
 39 43  1  0  0  0  0
 40 42  2  0  0  0  0
 41 39  2  0  0  0  0
 41 40  1  0  0  0  0
 42 38  1  0  0  0  0
 43 38  2  0  0  0  0
M  END
>  <MODEL>
4

>  <REMARK>
 VINA RESULT:      -6.8      3.231      9.280
  Name = 
  11 active torsions:
  status: ('A' for Active; 'I' for Inactive)
    1  A    between atoms: C_1  and  C_34
    2  A    between atoms: C_1  and  C_35
    3  A    between atoms: N_2  and  C_12
    4  A    between atoms: C_4  and  C_7
    5  A    between atoms: C_4  and  C_15
    6  A    between atoms: C_6  and  C_7
    7  A    between atoms: C_10  and  C_15
    8  A    between atoms: C_11  and  C_14
    9  A    between atoms: C_14  and  C_22
   10  A    between atoms: C_15  and  C_22
   11  A    between atoms: C_19  and  O_37
                            x       y       z     vdW  Elec       q    Type
                         _______ _______ _______ _____ _____    ______ ____

>  <TORSDO>
F 11

$$$$
=
 OpenBabel11062410313D

 43 47  0  0  1  0  0  0  0  0999 V2000
  160.4910  208.4480  154.9590 N   0  0  0  0  0  0  0  0  0  0  0  0
  160.0740  210.0520  156.6120 O   0  0  0  0  0  0  0  0  0  0  0  0
  161.8670  212.0750  148.6490 C   0  0  0  0  0  0  0  0  0  0  0  0
  159.9800  209.7230  155.3980 C   0  0  0  0  0  0  0  0  0  0  0  0
  161.6950  207.6110  150.9610 C   0  0  0  0  0  0  0  0  0  0  0  0
  160.9590  209.1370  152.7270 N   0  0  0  0  0  0  0  0  0  0  0  0
  162.0100  209.7160  149.1760 C   0  0  0  0  0  0  0  0  0  0  0  0
  161.4160  212.3420  149.9460 C   0  0  0  0  0  3  0  0  0  0  0  0
  162.0110  213.0880  147.7630 F   0  0  0  0  0  0  0  0  0  0  0  0
  161.5520  209.9810  150.4870 C   0  0  0  0  0  0  0  0  0  0  0  0
  162.1620  210.7650  148.2650 C   0  0  0  0  0  3  0  0  0  0  0  0
  161.2590  211.2990  150.8630 C   0  0  0  0  0  3  0  0  0  0  0  0
  160.8980  208.1800  153.6030 C   0  0  0  0  0  0  0  0  0  0  0  0
  161.4000  208.9130  151.3830 C   0  0  0  0  0  0  0  0  0  0  0  0
  162.1500  207.3970  149.6570 C   0  0  0  0  0  3  0  0  0  0  0  0
  161.4580  206.4520  151.8830 C   0  0  1  0  0  3  0  0  0  0  0  0
  161.2820  206.8780  153.2400 O   0  0  0  0  0  0  0  0  0  0  0  0
  162.2990  208.4430  148.8010 N   0  0  0  0  0  0  0  0  0  0  0  0
  160.6340  207.4220  155.9090 C   0  0  0  0  0  0  0  0  0  0  0  0
  160.7510  206.5770  156.6930 N   0  0  0  0  0  0  0  0  0  0  0  0
  160.2280  205.6780  151.4260 C   0  0  0  0  0  2  0  0  0  0  0  0
  161.1510  202.0400  150.8640 C   0  0  0  0  0  3  0  0  0  0  0  0
  161.3430  202.0140  149.4720 C   0  0  0  0  0  0  0  0  0  0  0  0
  160.8120  204.3820  149.3700 C   0  0  0  0  0  3  0  0  0  0  0  0
  160.7900  203.2310  151.5040 C   0  0  0  0  0  3  0  0  0  0  0  0
  160.6190  204.4030  150.7570 C   0  0  0  0  0  0  0  0  0  0  0  0
  161.1730  203.1910  148.7310 C   0  0  0  0  0  3  0  0  0  0  0  0
  161.2320  200.5290  147.4950 C   0  0  0  0  0  1  0  0  0  0  0  0
  161.7010  200.8400  148.8020 O   0  0  0  0  0  0  0  0  0  0  0  0
  159.3170  210.6720  154.4460 C   0  0  0  0  0  2  0  0  0  0  0  0
  160.1260  211.9560  154.2590 C   0  0  0  0  0  2  0  0  0  0  0  0
  159.3240  213.2470  154.4670 C   0  0  2  0  0  3  0  0  0  0  0  0
  159.1380  213.6010  155.9110 C   0  0  0  0  0  3  0  0  0  0  0  0
  160.0970  213.8990  156.6040 O   0  0  0  0  0  0  0  0  0  0  0  0
  158.0350  213.2720  153.6960 C   0  0  0  0  0  0  0  0  0  0  0  0
  158.0320  212.9100  152.5290 O   0  0  0  0  0  0  0  0  0  0  0  0
  156.7500  213.7090  154.3350 C   0  0  0  0  0  2  0  0  0  0  0  0
  156.1450  212.6140  155.1490 C   0  0  0  0  0  0  0  0  0  0  0  0
  155.2440  211.8240  157.2560 C   0  0  0  0  0  3  0  0  0  0  0  0
  155.3410  210.3340  155.3470 C   0  0  0  0  0  3  0  0  0  0  0  0
  155.0080  210.5680  156.6850 C   0  0  0  0  0  3  0  0  0  0  0  0
  155.9100  211.3550  154.5790 C   0  0  0  0  0  3  0  0  0  0  0  0
  155.8120  212.8460  156.4880 C   0  0  0  0  0  3  0  0  0  0  0  0
  1  4  1  0  0  0  0
  1 19  1  0  0  0  0
  3  8  1  0  0  0  0
  4  2  2  0  0  0  0
  5 14  1  0  0  0  0
  5 16  1  0  0  0  0
  6 13  2  0  0  0  0
  7 10  1  0  0  0  0
  8 12  2  0  0  0  0
  9  3  1  0  0  0  0
 10 12  1  0  0  0  0
 10 14  2  0  0  0  0
 11  3  2  0  0  0  0
 11  7  1  0  0  0  0
 13  1  1  0  0  0  0
 14  6  1  0  0  0  0
 15  5  2  0  0  0  0
 16 21  1  6  0  0  0
 16 17  1  0  0  0  0
 17 13  1  0  0  0  0
 18  7  2  0  0  0  0
 18 15  1  0  0  0  0
 19 20  3  0  0  0  0
 22 25  1  0  0  0  0
 23 22  2  0  0  0  0
 24 26  1  0  0  0  0
 26 21  1  0  0  0  0
 26 25  2  0  0  0  0
 27 24  2  0  0  0  0
 27 23  1  0  0  0  0
 28 29  1  0  0  0  0
 29 23  1  0  0  0  0
 30  4  1  0  0  0  0
 31 30  1  0  0  0  0
 32 31  1  1  0  0  0
 32 33  1  0  0  0  0
 33 34  2  0  0  0  0
 35 37  1  0  0  0  0
 35 32  1  0  0  0  0
 36 35  2  0  0  0  0
 37 38  1  0  0  0  0
 38 43  1  0  0  0  0
 40 41  2  0  0  0  0
 41 39  1  0  0  0  0
 42 38  2  0  0  0  0
 42 40  1  0  0  0  0
 43 39  2  0  0  0  0
M  END
>  <MODEL>
5

>  <REMARK>
 VINA RESULT:      -6.6      3.318      9.626
  Name = 
  11 active torsions:
  status: ('A' for Active; 'I' for Inactive)
    1  A    between atoms: C_1  and  C_34
    2  A    between atoms: C_1  and  C_35
    3  A    between atoms: N_2  and  C_12
    4  A    between atoms: C_4  and  C_7
    5  A    between atoms: C_4  and  C_15
    6  A    between atoms: C_6  and  C_7
    7  A    between atoms: C_10  and  C_15
    8  A    between atoms: C_11  and  C_14
    9  A    between atoms: C_14  and  C_22
   10  A    between atoms: C_15  and  C_22
   11  A    between atoms: C_19  and  O_37
                            x       y       z     vdW  Elec       q    Type
                         _______ _______ _______ _____ _____    ______ ____

>  <TORSDO>
F 11

$$$$
=
 OpenBabel11062410313D

 43 47  0  0  1  0  0  0  0  0999 V2000
  161.8120  210.1540  149.4600 N   0  0  0  0  0  0  0  0  0  0  0  0
  162.8490  208.4430  148.2430 O   0  0  0  0  0  0  0  0  0  0  0  0
  160.1940  207.4400  156.1590 C   0  0  0  0  0  0  0  0  0  0  0  0
  161.9940  208.7650  149.1130 C   0  0  0  0  0  0  0  0  0  0  0  0
  160.2400  211.4950  153.1830 C   0  0  0  0  0  0  0  0  0  0  0  0
  161.0730  209.7460  151.6870 N   0  0  0  0  0  0  0  0  0  0  0  0
  160.0010  209.6870  155.2780 C   0  0  0  0  0  0  0  0  0  0  0  0
  160.6560  206.9890  154.9190 C   0  0  0  0  0  3  0  0  0  0  0  0
  160.0570  206.5690  157.1860 F   0  0  0  0  0  0  0  0  0  0  0  0
  160.4650  209.2350  154.0220 C   0  0  0  0  0  0  0  0  0  0  0  0
  159.8670  208.7860  156.3380 C   0  0  0  0  0  3  0  0  0  0  0  0
  160.7920  207.8830  153.8530 C   0  0  0  0  0  3  0  0  0  0  0  0
  161.2830  210.5930  150.7250 C   0  0  0  0  0  0  0  0  0  0  0  0
  160.5870  210.1550  152.9700 C   0  0  0  0  0  0  0  0  0  0  0  0
  159.7900  211.8980  154.4430 C   0  0  0  0  0  3  0  0  0  0  0  0
  160.2860  212.4710  152.0440 C   0  0  1  0  0  3  0  0  0  0  0  0
  161.0380  211.9610  150.9360 O   0  0  0  0  0  0  0  0  0  0  0  0
  159.6840  210.9960  155.4550 N   0  0  0  0  0  0  0  0  0  0  0  0
  162.2050  211.1320  148.5290 C   0  0  0  0  0  0  0  0  0  0  0  0
  162.5280  211.9380  147.7640 N   0  0  0  0  0  0  0  0  0  0  0  0
  158.8690  212.8000  151.5940 C   0  0  0  0  0  2  0  0  0  0  0  0
  159.8610  214.4510  148.3250 C   0  0  0  0  0  3  0  0  0  0  0  0
  158.8020  214.0640  147.4850 C   0  0  0  0  0  0  0  0  0  0  0  0
  157.7940  212.8620  149.3380 C   0  0  0  0  0  3  0  0  0  0  0  0
  159.8860  214.0440  149.6630 C   0  0  0  0  0  3  0  0  0  0  0  0
  158.8520  213.2460  150.1700 C   0  0  0  0  0  0  0  0  0  0  0  0
  157.7710  213.2700  148.0000 C   0  0  0  0  0  3  0  0  0  0  0  0
  159.7950  214.1660  145.2200 C   0  0  0  0  0  1  0  0  0  0  0  0
  158.7500  214.4530  146.1420 O   0  0  0  0  0  0  0  0  0  0  0  0
  161.1760  207.6840  149.7520 C   0  0  0  0  0  2  0  0  0  0  0  0
  161.5940  206.2920  149.2760 C   0  0  0  0  0  2  0  0  0  0  0  0
  161.6630  206.1380  147.7500 C   0  0  2  0  0  3  0  0  0  0  0  0
  160.4060  206.5640  147.0560 C   0  0  0  0  0  3  0  0  0  0  0  0
  160.1600  206.1750  145.9260 O   0  0  0  0  0  0  0  0  0  0  0  0
  162.1300  204.7770  147.3150 C   0  0  0  0  0  0  0  0  0  0  0  0
  162.8660  204.6830  146.3450 O   0  0  0  0  0  0  0  0  0  0  0  0
  161.7290  203.5390  148.0600 C   0  0  0  0  0  2  0  0  0  0  0  0
  161.2470  202.4740  147.1330 C   0  0  0  0  0  0  0  0  0  0  0  0
  160.9860  200.1240  146.5990 C   0  0  0  0  0  3  0  0  0  0  0  0
  160.1600  201.8120  145.0680 C   0  0  0  0  0  3  0  0  0  0  0  0
  160.3470  200.4670  145.4000 C   0  0  0  0  0  3  0  0  0  0  0  0
  160.6110  202.8150  145.9310 C   0  0  0  0  0  3  0  0  0  0  0  0
  161.4340  201.1270  147.4640 C   0  0  0  0  0  3  0  0  0  0  0  0
  1 13  1  0  0  0  0
  2  4  2  0  0  0  0
  3 11  1  0  0  0  0
  3  9  1  0  0  0  0
  4  1  1  0  0  0  0
  4 30  1  0  0  0  0
  5 15  1  0  0  0  0
  6 14  1  0  0  0  0
  7 18  1  0  0  0  0
  7 11  2  0  0  0  0
  8  3  2  0  0  0  0
 10  7  1  0  0  0  0
 12 10  2  0  0  0  0
 12  8  1  0  0  0  0
 13 17  1  0  0  0  0
 13  6  2  0  0  0  0
 14  5  2  0  0  0  0
 14 10  1  0  0  0  0
 15 18  2  0  0  0  0
 16 21  1  6  0  0  0
 16  5  1  0  0  0  0
 17 16  1  0  0  0  0
 19  1  1  0  0  0  0
 20 19  3  0  0  0  0
 22 25  1  0  0  0  0
 23 27  1  0  0  0  0
 23 22  2  0  0  0  0
 24 26  1  0  0  0  0
 25 26  2  0  0  0  0
 26 21  1  0  0  0  0
 27 24  2  0  0  0  0
 28 29  1  0  0  0  0
 29 23  1  0  0  0  0
 31 30  1  0  0  0  0
 32 33  1  6  0  0  0
 32 31  1  0  0  0  0
 34 33  2  0  0  0  0
 35 32  1  0  0  0  0
 35 37  1  0  0  0  0
 36 35  2  0  0  0  0
 38 43  1  0  0  0  0
 38 37  1  0  0  0  0
 39 43  2  0  0  0  0
 40 41  2  0  0  0  0
 40 42  1  0  0  0  0
 41 39  1  0  0  0  0
 42 38  2  0  0  0  0
M  END
>  <MODEL>
6

>  <REMARK>
 VINA RESULT:      -6.3      1.463      2.189
  Name = 
  11 active torsions:
  status: ('A' for Active; 'I' for Inactive)
    1  A    between atoms: C_1  and  C_34
    2  A    between atoms: C_1  and  C_35
    3  A    between atoms: N_2  and  C_12
    4  A    between atoms: C_4  and  C_7
    5  A    between atoms: C_4  and  C_15
    6  A    between atoms: C_6  and  C_7
    7  A    between atoms: C_10  and  C_15
    8  A    between atoms: C_11  and  C_14
    9  A    between atoms: C_14  and  C_22
   10  A    between atoms: C_15  and  C_22
   11  A    between atoms: C_19  and  O_37
                            x       y       z     vdW  Elec       q    Type
                         _______ _______ _______ _____ _____    ______ ____

>  <TORSDO>
F 11

$$$$
=
 OpenBabel11062410313D

 43 47  0  0  1  0  0  0  0  0999 V2000
  162.2410  212.8700  147.0240 N   0  0  0  0  0  0  0  0  0  0  0  0
  164.1990  212.3090  148.1790 O   0  0  0  0  0  0  0  0  0  0  0  0
  156.8210  213.5100  152.0310 C   0  0  0  0  0  0  0  0  0  0  0  0
  162.9440  212.2120  148.0980 C   0  0  0  0  0  0  0  0  0  0  0  0
  158.1450  214.0180  147.2050 C   0  0  0  0  0  0  0  0  0  0  0  0
  160.2000  213.1560  148.2170 N   0  0  0  0  0  0  0  0  0  0  0  0
  156.8390  213.9830  149.6560 C   0  0  0  0  0  0  0  0  0  0  0  0
  158.1490  213.0790  151.9590 C   0  0  0  0  0  3  0  0  0  0  0  0
  156.1650  213.4840  153.2150 F   0  0  0  0  0  0  0  0  0  0  0  0
  158.1810  213.5450  149.5790 C   0  0  0  0  0  0  0  0  0  0  0  0
  156.1670  213.9610  150.8810 C   0  0  0  0  0  3  0  0  0  0  0  0
  158.8280  213.0960  150.7380 C   0  0  0  0  0  3  0  0  0  0  0  0
  160.8560  213.2560  147.1000 C   0  0  0  0  0  0  0  0  0  0  0  0
  158.8350  213.5700  148.3380 C   0  0  0  0  0  0  0  0  0  0  0  0
  156.8200  214.4470  147.3290 C   0  0  0  0  0  3  0  0  0  0  0  0
  158.8060  213.9720  145.8590 C   0  0  1  0  0  3  0  0  0  0  0  0
  160.2230  213.7940  145.9660 O   0  0  0  0  0  0  0  0  0  0  0  0
  156.2020  214.4230  148.5400 N   0  0  0  0  0  0  0  0  0  0  0  0
  162.9540  213.1830  145.8530 C   0  0  0  0  0  0  0  0  0  0  0  0
  163.5410  213.4420  144.8890 N   0  0  0  0  0  0  0  0  0  0  0  0
  158.2090  212.8380  145.0340 C   0  0  0  0  0  2  0  0  0  0  0  0
  160.3670  211.5540  142.1900 C   0  0  0  0  0  3  0  0  0  0  0  0
  160.1420  212.5330  141.2060 C   0  0  0  0  0  0  0  0  0  0  0  0
  158.6630  213.7050  142.7340 C   0  0  0  0  0  3  0  0  0  0  0  0
  159.7420  211.6510  143.4380 C   0  0  0  0  0  3  0  0  0  0  0  0
  158.8870  212.7270  143.7100 C   0  0  0  0  0  0  0  0  0  0  0  0
  159.2890  213.6070  141.4870 C   0  0  0  0  0  3  0  0  0  0  0  0
  161.0850  211.2290  139.3260 C   0  0  0  0  0  1  0  0  0  0  0  0
  160.7500  212.4640  139.9490 O   0  0  0  0  0  0  0  0  0  0  0  0
  162.2190  211.3930  149.1230 C   0  0  0  0  0  2  0  0  0  0  0  0
  161.9470  209.9700  148.6330 C   0  0  0  0  0  2  0  0  0  0  0  0
  161.6210  208.9670  149.7480 C   0  0  2  0  0  3  0  0  0  0  0  0
  162.2050  209.3470  151.0740 C   0  0  0  0  0  3  0  0  0  0  0  0
  161.4800  209.6740  152.0000 O   0  0  0  0  0  0  0  0  0  0  0  0
  161.9240  207.5440  149.3700 C   0  0  0  0  0  0  0  0  0  0  0  0
  161.5760  206.6430  150.1160 O   0  0  0  0  0  0  0  0  0  0  0  0
  162.6240  207.2100  148.0860 C   0  0  0  0  0  2  0  0  0  0  0  0
  162.2010  205.8780  147.5620 C   0  0  0  0  0  0  0  0  0  0  0  0
  161.3050  203.6610  147.9590 C   0  0  0  0  0  3  0  0  0  0  0  0
  161.9020  204.3400  145.7110 C   0  0  0  0  0  3  0  0  0  0  0  0
  161.4040  203.3760  146.5920 C   0  0  0  0  0  3  0  0  0  0  0  0
  162.3020  205.5900  146.1940 C   0  0  0  0  0  3  0  0  0  0  0  0
  161.7030  204.9120  148.4430 C   0  0  0  0  0  3  0  0  0  0  0  0
  1 13  1  0  0  0  0
  1  4  1  0  0  0  0
  3  9  1  0  0  0  0
  4  2  2  0  0  0  0
  4 30  1  0  0  0  0
  5 15  2  0  0  0  0
  5 14  1  0  0  0  0
  6 14  1  0  0  0  0
  7 11  1  0  0  0  0
  8  3  1  0  0  0  0
 10  7  1  0  0  0  0
 10 12  1  0  0  0  0
 11  3  2  0  0  0  0
 12  8  2  0  0  0  0
 13  6  2  0  0  0  0
 14 10  2  0  0  0  0
 15 18  1  0  0  0  0
 16 21  1  6  0  0  0
 16 17  1  0  0  0  0
 16  5  1  0  0  0  0
 17 13  1  0  0  0  0
 18  7  2  0  0  0  0
 19  1  1  0  0  0  0
 20 19  3  0  0  0  0
 22 25  1  0  0  0  0
 23 27  1  0  0  0  0
 23 22  2  0  0  0  0
 24 26  1  0  0  0  0
 25 26  2  0  0  0  0
 26 21  1  0  0  0  0
 27 24  2  0  0  0  0
 28 29  1  0  0  0  0
 29 23  1  0  0  0  0
 31 30  1  0  0  0  0
 32 31  1  6  0  0  0
 32 33  1  0  0  0  0
 33 34  2  0  0  0  0
 35 32  1  0  0  0  0
 35 36  2  0  0  0  0
 37 35  1  0  0  0  0
 38 37  1  0  0  0  0
 38 43  1  0  0  0  0
 39 43  2  0  0  0  0
 40 42  1  0  0  0  0
 40 41  2  0  0  0  0
 41 39  1  0  0  0  0
 42 38  2  0  0  0  0
M  END
>  <MODEL>
7

>  <REMARK>
 VINA RESULT:      -6.0      3.230      5.804
  Name = 
  11 active torsions:
  status: ('A' for Active; 'I' for Inactive)
    1  A    between atoms: C_1  and  C_34
    2  A    between atoms: C_1  and  C_35
    3  A    between atoms: N_2  and  C_12
    4  A    between atoms: C_4  and  C_7
    5  A    between atoms: C_4  and  C_15
    6  A    between atoms: C_6  and  C_7
    7  A    between atoms: C_10  and  C_15
    8  A    between atoms: C_11  and  C_14
    9  A    between atoms: C_14  and  C_22
   10  A    between atoms: C_15  and  C_22
   11  A    between atoms: C_19  and  O_37
                            x       y       z     vdW  Elec       q    Type
                         _______ _______ _______ _____ _____    ______ ____

>  <TORSDO>
F 11

$$$$
=
 OpenBabel11062410313D

 43 47  0  0  1  0  0  0  0  0999 V2000
  161.1010  207.6950  148.9740 N   0  0  0  0  0  0  0  0  0  0  0  0
  161.4180  209.5060  147.5230 O   0  0  0  0  0  0  0  0  0  0  0  0
  161.7200  210.2680  155.8920 C   0  0  0  0  0  0  0  0  0  0  0  0
  161.7120  208.9530  148.6180 C   0  0  0  0  0  0  0  0  0  0  0  0
  160.6530  206.3110  152.9760 C   0  0  0  0  0  0  0  0  0  0  0  0
  161.2400  208.0240  151.3300 N   0  0  0  0  0  0  0  0  0  0  0  0
  161.0790  208.0810  155.0740 C   0  0  0  0  0  0  0  0  0  0  0  0
  161.9230  210.7040  154.5800 C   0  0  0  0  0  3  0  0  0  0  0  0
  161.9380  211.1140  156.9270 F   0  0  0  0  0  0  0  0  0  0  0  0
  161.2860  208.5180  153.7450 C   0  0  0  0  0  0  0  0  0  0  0  0
  161.3000  208.9580  156.1390 C   0  0  0  0  0  3  0  0  0  0  0  0
  161.7060  209.8330  153.5080 C   0  0  0  0  0  3  0  0  0  0  0  0
  160.9530  207.2410  150.3330 C   0  0  0  0  0  0  0  0  0  0  0  0
  161.0640  207.6190  152.6910 C   0  0  0  0  0  0  0  0  0  0  0  0
  160.4570  205.9240  154.3050 C   0  0  0  0  0  3  0  0  0  0  0  0
  160.4930  205.3170  151.8630 C   0  0  1  0  0  3  0  0  0  0  0  0
  160.4440  205.9550  150.5810 O   0  0  0  0  0  0  0  0  0  0  0  0
  160.6690  206.8090  155.3150 N   0  0  0  0  0  0  0  0  0  0  0  0
  160.5920  206.8850  147.9440 C   0  0  0  0  0  0  0  0  0  0  0  0
  160.1730  206.2180  147.0950 N   0  0  0  0  0  0  0  0  0  0  0  0
  161.6460  204.3220  151.8970 C   0  0  0  0  0  2  0  0  0  0  0  0
  161.2020  200.9990  150.1190 C   0  0  0  0  0  3  0  0  0  0  0  0
  161.2180  201.4000  148.7720 C   0  0  0  0  0  0  0  0  0  0  0  0
  161.5190  203.7030  149.4780 C   0  0  0  0  0  3  0  0  0  0  0  0
  161.3430  201.9460  151.1390 C   0  0  0  0  0  3  0  0  0  0  0  0
  161.5010  203.3010  150.8180 C   0  0  0  0  0  0  0  0  0  0  0  0
  161.3780  202.7550  148.4590 C   0  0  0  0  0  3  0  0  0  0  0  0
  160.8300  200.8730  146.3850 C   0  0  0  0  0  1  0  0  0  0  0  0
  161.0760  200.4780  147.7300 O   0  0  0  0  0  0  0  0  0  0  0  0
  162.7110  209.6210  149.5150 C   0  0  0  0  0  2  0  0  0  0  0  0
  162.2040  210.9670  150.0340 C   0  0  0  0  0  2  0  0  0  0  0  0
  161.8210  211.9680  148.9350 C   0  0  2  0  0  3  0  0  0  0  0  0
  163.0070  212.5740  148.2500 C   0  0  0  0  0  3  0  0  0  0  0  0
  163.0840  212.5770  147.0310 O   0  0  0  0  0  0  0  0  0  0  0  0
  160.8310  213.0000  149.3960 C   0  0  0  0  0  0  0  0  0  0  0  0
  160.4290  212.9660  150.5480 O   0  0  0  0  0  0  0  0  0  0  0  0
  160.3450  214.0810  148.4760 C   0  0  0  0  0  2  0  0  0  0  0  0
  159.3500  213.5580  147.4940 C   0  0  0  0  0  0  0  0  0  0  0  0
  158.7720  212.9530  145.2190 C   0  0  0  0  0  3  0  0  0  0  0  0
  157.1390  212.6960  146.9920 C   0  0  0  0  0  3  0  0  0  0  0  0
  157.4910  212.5790  145.6440 C   0  0  0  0  0  3  0  0  0  0  0  0
  158.0660  213.1860  147.9170 C   0  0  0  0  0  3  0  0  0  0  0  0
  159.7000  213.4420  146.1450 C   0  0  0  0  0  3  0  0  0  0  0  0
  1 13  1  0  0  0  0
  2  4  2  0  0  0  0
  3 11  1  0  0  0  0
  3  9  1  0  0  0  0
  4  1  1  0  0  0  0
  4 30  1  0  0  0  0
  5 15  1  0  0  0  0
  6 14  1  0  0  0  0
  7 18  1  0  0  0  0
  7 11  2  0  0  0  0
  8  3  2  0  0  0  0
 10  7  1  0  0  0  0
 12 10  2  0  0  0  0
 12  8  1  0  0  0  0
 13 17  1  0  0  0  0
 13  6  2  0  0  0  0
 14  5  2  0  0  0  0
 14 10  1  0  0  0  0
 15 18  2  0  0  0  0
 16 21  1  6  0  0  0
 16  5  1  0  0  0  0
 17 16  1  0  0  0  0
 19  1  1  0  0  0  0
 20 19  3  0  0  0  0
 22 25  1  0  0  0  0
 23 22  2  0  0  0  0
 24 26  1  0  0  0  0
 26 25  2  0  0  0  0
 26 21  1  0  0  0  0
 27 23  1  0  0  0  0
 27 24  2  0  0  0  0
 28 29  1  0  0  0  0
 29 23  1  0  0  0  0
 30 31  1  0  0  0  0
 32 33  1  1  0  0  0
 32 35  1  0  0  0  0
 32 31  1  0  0  0  0
 34 33  2  0  0  0  0
 35 36  2  0  0  0  0
 37 35  1  0  0  0  0
 38 42  1  0  0  0  0
 38 37  1  0  0  0  0
 39 41  2  0  0  0  0
 39 43  1  0  0  0  0
 40 42  2  0  0  0  0
 41 40  1  0  0  0  0
 43 38  2  0  0  0  0
M  END
>  <MODEL>
8

>  <REMARK>
 VINA RESULT:      -5.6      2.301      7.765
  Name = 
  11 active torsions:
  status: ('A' for Active; 'I' for Inactive)
    1  A    between atoms: C_1  and  C_34
    2  A    between atoms: C_1  and  C_35
    3  A    between atoms: N_2  and  C_12
    4  A    between atoms: C_4  and  C_7
    5  A    between atoms: C_4  and  C_15
    6  A    between atoms: C_6  and  C_7
    7  A    between atoms: C_10  and  C_15
    8  A    between atoms: C_11  and  C_14
    9  A    between atoms: C_14  and  C_22
   10  A    between atoms: C_15  and  C_22
   11  A    between atoms: C_19  and  O_37
                            x       y       z     vdW  Elec       q    Type
                         _______ _______ _______ _____ _____    ______ ____

>  <TORSDO>
F 11

$$$$
=
 OpenBabel11062410313D

 43 47  0  0  1  0  0  0  0  0999 V2000
  161.0720  207.7200  148.9930 N   0  0  0  0  0  0  0  0  0  0  0  0
  161.3760  209.5030  147.5070 O   0  0  0  0  0  0  0  0  0  0  0  0
  161.7190  210.4250  155.8580 C   0  0  0  0  0  0  0  0  0  0  0  0
  161.6770  208.9720  148.6100 C   0  0  0  0  0  0  0  0  0  0  0  0
  160.6480  206.4110  153.0230 C   0  0  0  0  0  0  0  0  0  0  0  0
  161.2210  208.0940  151.3410 N   0  0  0  0  0  0  0  0  0  0  0  0
  161.0800  208.2210  155.0840 C   0  0  0  0  0  0  0  0  0  0  0  0
  161.9140  210.8370  154.5360 C   0  0  0  0  0  3  0  0  0  0  0  0
  161.9400  211.2910  156.8750 F   0  0  0  0  0  0  0  0  0  0  0  0
  161.2780  208.6330  153.7470 C   0  0  0  0  0  0  0  0  0  0  0  0
  161.3040  209.1190  156.1310 C   0  0  0  0  0  3  0  0  0  0  0  0
  161.6940  209.9450  153.4820 C   0  0  0  0  0  3  0  0  0  0  0  0
  160.9310  207.2910  150.3610 C   0  0  0  0  0  0  0  0  0  0  0  0
  161.0540  207.7140  152.7110 C   0  0  0  0  0  0  0  0  0  0  0  0
  160.4590  206.0490  154.3600 C   0  0  0  0  0  3  0  0  0  0  0  0
  160.4850  205.3950  151.9300 C   0  0  1  0  0  3  0  0  0  0  0  0
  160.4280  206.0090  150.6360 O   0  0  0  0  0  0  0  0  0  0  0  0
  160.6740  206.9530  155.3520 N   0  0  0  0  0  0  0  0  0  0  0  0
  160.5590  206.8890  147.9820 C   0  0  0  0  0  0  0  0  0  0  0  0
  160.1380  206.2040  147.1480 N   0  0  0  0  0  0  0  0  0  0  0  0
  161.6400  204.4040  151.9760 C   0  0  0  0  0  2  0  0  0  0  0  0
  161.2060  201.0770  150.2040 C   0  0  0  0  0  3  0  0  0  0  0  0
  161.2490  201.4720  148.8560 C   0  0  0  0  0  0  0  0  0  0  0  0
  161.5540  203.7760  149.5580 C   0  0  0  0  0  3  0  0  0  0  0  0
  161.3350  202.0270  151.2230 C   0  0  0  0  0  3  0  0  0  0  0  0
  161.5080  203.3800  150.9000 C   0  0  0  0  0  0  0  0  0  0  0  0
  161.4250  202.8250  148.5410 C   0  0  0  0  0  3  0  0  0  0  0  0
  160.8320  200.9340  146.4770 C   0  0  0  0  0  1  0  0  0  0  0  0
  161.1200  200.5470  147.8150 O   0  0  0  0  0  0  0  0  0  0  0  0
  162.6790  209.6600  149.4890 C   0  0  0  0  0  2  0  0  0  0  0  0
  162.2970  211.1150  149.7620 C   0  0  0  0  0  2  0  0  0  0  0  0
  161.9570  211.9280  148.5050 C   0  0  2  0  0  3  0  0  0  0  0  0
  163.1510  212.5870  147.8860 C   0  0  0  0  0  3  0  0  0  0  0  0
  163.0110  213.4280  147.0120 O   0  0  0  0  0  0  0  0  0  0  0  0
  160.8140  212.8820  148.7110 C   0  0  0  0  0  0  0  0  0  0  0  0
  159.8440  212.8170  147.9720 O   0  0  0  0  0  0  0  0  0  0  0  0
  160.8310  213.8940  149.8180 C   0  0  0  0  0  2  0  0  0  0  0  0
  159.7370  213.6460  150.8030 C   0  0  0  0  0  0  0  0  0  0  0  0
  158.8670  212.4120  152.6980 C   0  0  0  0  0  3  0  0  0  0  0  0
  157.5390  214.1680  151.6850 C   0  0  0  0  0  3  0  0  0  0  0  0
  157.6920  213.1730  152.6550 C   0  0  0  0  0  3  0  0  0  0  0  0
  158.5590  214.4050  150.7580 C   0  0  0  0  0  3  0  0  0  0  0  0
  159.8880  212.6500  151.7730 C   0  0  0  0  0  3  0  0  0  0  0  0
  1 13  1  0  0  0  0
  2  4  2  0  0  0  0
  3 11  1  0  0  0  0
  3  9  1  0  0  0  0
  4  1  1  0  0  0  0
  4 30  1  0  0  0  0
  5 15  1  0  0  0  0
  6 14  1  0  0  0  0
  7 18  1  0  0  0  0
  7 11  2  0  0  0  0
  8  3  2  0  0  0  0
 10  7  1  0  0  0  0
 12 10  2  0  0  0  0
 12  8  1  0  0  0  0
 13 17  1  0  0  0  0
 13  6  2  0  0  0  0
 14  5  2  0  0  0  0
 14 10  1  0  0  0  0
 15 18  2  0  0  0  0
 16 21  1  6  0  0  0
 16  5  1  0  0  0  0
 17 16  1  0  0  0  0
 19  1  1  0  0  0  0
 20 19  3  0  0  0  0
 22 25  1  0  0  0  0
 23 22  2  0  0  0  0
 24 26  1  0  0  0  0
 26 25  2  0  0  0  0
 26 21  1  0  0  0  0
 27 23  1  0  0  0  0
 27 24  2  0  0  0  0
 28 29  1  0  0  0  0
 29 23  1  0  0  0  0
 30 31  1  0  0  0  0
 32 33  1  1  0  0  0
 32 35  1  0  0  0  0
 32 31  1  0  0  0  0
 34 33  2  0  0  0  0
 35 37  1  0  0  0  0
 36 35  2  0  0  0  0
 37 38  1  0  0  0  0
 38 43  1  0  0  0  0
 40 41  2  0  0  0  0
 41 39  1  0  0  0  0
 42 38  2  0  0  0  0
 42 40  1  0  0  0  0
 43 39  2  0  0  0  0
M  END
>  <MODEL>
9

>  <REMARK>
 VINA RESULT:      -5.6      2.325      8.140
  Name = 
  11 active torsions:
  status: ('A' for Active; 'I' for Inactive)
    1  A    between atoms: C_1  and  C_34
    2  A    between atoms: C_1  and  C_35
    3  A    between atoms: N_2  and  C_12
    4  A    between atoms: C_4  and  C_7
    5  A    between atoms: C_4  and  C_15
    6  A    between atoms: C_6  and  C_7
    7  A    between atoms: C_10  and  C_15
    8  A    between atoms: C_11  and  C_14
    9  A    between atoms: C_14  and  C_22
   10  A    between atoms: C_15  and  C_22
   11  A    between atoms: C_19  and  O_37
                            x       y       z     vdW  Elec       q    Type
                         _______ _______ _______ _____ _____    ______ ____

>  <TORSDO>
F 11

$$$$
