=
 OpenBabel11062409583D

 43 48  0  0  1  0  0  0  0  0999 V2000
  160.7300  207.0850  152.2230 N   0  0  0  0  0  0  0  0  0  0  0  0
  161.2380  208.2650  151.9810 C   0  0  0  0  0  0  0  0  0  0  0  0
  158.7630  212.3150  156.5590 C   0  0  0  0  0  0  0  0  0  0  0  0
  160.8450  209.4100  152.8450 C   0  0  0  0  0  0  0  0  0  0  0  0
  159.6970  211.5200  154.4660 C   0  0  0  0  0  0  0  0  0  0  0  0
  159.1970  211.1510  157.1990 C   0  0  0  0  0  3  0  0  0  0  0  0
  158.1060  213.2690  157.2610 F   0  0  0  0  0  0  0  0  0  0  0  0
  160.1380  210.3490  155.1110 C   0  0  0  0  0  0  0  0  0  0  0  0
  159.0220  212.5040  155.1970 C   0  0  0  0  0  3  0  0  0  0  0  0
  159.8840  210.1710  156.4770 C   0  0  0  0  0  3  0  0  0  0  0  0
  161.4050  208.3590  154.9200 O   0  0  0  0  0  0  0  0  0  0  0  0
  160.8320  209.3120  154.3280 C   0  0  0  0  0  0  0  0  0  0  0  0
  160.4350  210.5490  152.2670 C   0  0  0  0  0  3  0  0  0  0  0  0
  160.0470  211.7880  153.0300 C   0  0  0  0  0  2  0  0  0  0  0  0
  161.2770  204.4540  149.4210 C   0  0  0  0  0  2  0  0  0  0  0  0
  160.8230  203.2760  150.2710 C   0  0  2  0  0  3  0  0  0  0  0  0
  161.1990  204.7600  152.2540 C   0  0  0  0  0  3  0  0  0  0  0  0
  160.7490  205.7520  150.0260 C   0  0  0  0  0  2  0  0  0  0  0  0
  160.9740  205.8560  151.5210 C   0  0  0  0  0  0  0  0  0  0  0  0
  161.4610  203.4080  151.6520 C   0  0  0  0  0  2  0  0  0  0  0  0
  160.4590  201.7380  148.3420 C   0  0  0  0  0  1  0  0  0  0  0  0
  161.2560  201.9790  149.6110 C   0  0  0  0  0  2  0  0  0  0  0  0
  162.3220  208.4470  150.9610 C   0  0  0  0  0  2  0  0  0  0  0  0
  162.1280  209.9380  148.9390 C   0  0  0  0  0  0  0  0  0  0  0  0
  162.0310  211.2490  148.3990 N   0  0  0  0  0  0  0  0  0  0  0  0
  162.1560  208.9440  148.1660 O   0  0  0  0  0  0  0  0  0  0  0  0
  161.9080  212.2070  147.2620 C   0  0  2  0  0  3  0  0  0  0  0  0
  162.1970  209.7620  150.3530 N   0  0  0  0  0  2  0  0  0  0  0  0
  161.9520  212.7330  148.5350 C   0  0  0  0  0  2  0  0  0  0  0  0
  160.4790  212.1770  146.7470 C   0  0  0  0  0  2  0  0  0  0  0  0
  160.1800  213.4060  146.0260 N   0  0  0  0  0  0  0  0  0  0  0  0
  158.8320  213.8150  144.0940 C   0  0  0  0  0  2  0  0  0  0  0  0
  158.9170  213.8400  146.4690 N   0  0  0  0  0  2  0  0  0  0  0  0
  160.0330  213.0680  144.6150 C   0  0  1  0  0  3  0  0  0  0  0  0
  158.2570  214.4530  145.3270 C   0  0  0  0  0  2  0  0  0  0  0  0
  161.2770  213.4170  143.8420 C   0  0  0  0  0  0  0  0  0  0  0  0
  162.3930  214.4250  144.5130 S   0  0  0  0  0  0  0  0  0  0  0  0
  161.4990  212.8220  142.5020 C   0  0  0  0  0  0  0  0  0  0  0  0
  161.1700  211.0440  140.8910 C   0  0  0  0  0  3  0  0  0  0  0  0
  162.4740  212.9310  140.2870 C   0  0  0  0  0  3  0  0  0  0  0  0
  161.9240  211.7250  139.9870 N   0  0  0  0  0  0  0  0  0  0  0  0
  162.2700  213.5000  141.5470 C   0  0  0  0  0  3  0  0  0  0  0  0
  160.9460  211.5780  142.1610 C   0  0  0  0  0  3  0  0  0  0  0  0
  2  1  2  0  0  0  0
  2  4  1  0  0  0  0
  3  6  1  0  0  0  0
  3  7  1  0  0  0  0
  4 12  1  0  0  0  0
  5  8  2  0  0  0  0
  5  9  1  0  0  0  0
  8 10  1  0  0  0  0
  9  3  2  0  0  0  0
 10  6  2  0  0  0  0
 12 11  2  0  0  0  0
 12  8  1  0  0  0  0
 13  4  2  0  0  0  0
 13 14  1  0  0  0  0
 14  5  1  0  0  0  0
 15 18  1  0  0  0  0
 15 16  1  0  0  0  0
 16 22  1  6  0  0  0
 16 20  1  0  0  0  0
 18 19  1  0  0  0  0
 19  1  1  0  0  0  0
 19 17  2  0  0  0  0
 20 17  1  0  0  0  0
 21 22  1  0  0  0  0
 23  2  1  0  0  0  0
 24 28  1  0  0  0  0
 25 29  1  0  0  0  0
 25 24  1  0  0  0  0
 26 24  2  0  0  0  0
 27 30  1  1  0  0  0
 27 25  1  0  0  0  0
 27 29  1  0  0  0  0
 28 23  1  0  0  0  0
 31 33  1  0  0  0  0
 31 30  1  0  0  0  0
 32 34  1  0  0  0  0
 32 35  1  0  0  0  0
 34 36  1  6  0  0  0
 34 31  1  0  0  0  0
 35 33  1  0  0  0  0
 36 37  2  0  0  0  0
 38 36  1  0  0  0  0
 39 43  2  0  0  0  0
 40 42  1  0  0  0  0
 41 40  2  0  0  0  0
 41 39  1  0  0  0  0
 42 38  2  0  0  0  0
 43 38  1  0  0  0  0
M  END
>  <MODEL>
1

>  <REMARK>
 VINA RESULT:      -9.0      0.000      0.000
  Name = 
  9 active torsions:
  status: ('A' for Active; 'I' for Inactive)
    1  A    between atoms: N_1  and  C_35
    2  A    between atoms: C_3  and  N_4
    3  A    between atoms: C_3  and  C_12
    4  A    between atoms: C_8  and  C_34
    5  A    between atoms: C_11  and  C_14
    6  A    between atoms: N_13  and  C_38
    7  A    between atoms: C_14  and  C_22
    8  A    between atoms: C_19  and  C_37
    9  A    between atoms: C_34  and  C_38
                            x       y       z     vdW  Elec       q    Type
                         _______ _______ _______ _____ _____    ______ ____

>  <TORSDO>
F 9

$$$$
=
 OpenBabel11062409583D

 43 48  0  0  1  0  0  0  0  0999 V2000
  160.8480  205.3280  151.7300 N   0  0  0  0  0  0  0  0  0  0  0  0
  161.3880  206.5180  151.7770 C   0  0  0  0  0  0  0  0  0  0  0  0
  160.8480  211.3940  156.1840 C   0  0  0  0  0  0  0  0  0  0  0  0
  161.1120  207.3880  152.9520 C   0  0  0  0  0  0  0  0  0  0  0  0
  160.9700  209.1640  155.2370 C   0  0  0  0  0  0  0  0  0  0  0  0
  160.5680  211.9190  154.9200 C   0  0  0  0  0  3  0  0  0  0  0  0
  160.9180  212.2150  157.2590 F   0  0  0  0  0  0  0  0  0  0  0  0
  160.6850  209.6920  153.9640 C   0  0  0  0  0  0  0  0  0  0  0  0
  161.0380  210.0170  156.3440 C   0  0  0  0  0  3  0  0  0  0  0  0
  160.4860  211.0710  153.8130 C   0  0  0  0  0  3  0  0  0  0  0  0
  160.1870  209.2060  151.7020 O   0  0  0  0  0  0  0  0  0  0  0  0
  160.6340  208.7870  152.8030 C   0  0  0  0  0  0  0  0  0  0  0  0
  161.3560  206.9130  154.1830 C   0  0  0  0  0  3  0  0  0  0  0  0
  161.0830  207.6820  155.4500 C   0  0  0  0  0  2  0  0  0  0  0  0
  161.2540  203.5810  148.2870 C   0  0  0  0  0  2  0  0  0  0  0  0
  160.5970  202.2820  148.7320 C   0  0  2  0  0  3  0  0  0  0  0  0
  161.0180  203.0530  151.0780 C   0  0  0  0  0  3  0  0  0  0  0  0
  160.8530  204.7070  149.2360 C   0  0  0  0  0  2  0  0  0  0  0  0
  160.9850  204.3360  150.7000 C   0  0  0  0  0  0  0  0  0  0  0  0
  161.1480  201.9130  150.1070 C   0  0  0  0  0  2  0  0  0  0  0  0
  160.9660  201.7570  146.3220 C   0  0  0  0  0  1  0  0  0  0  0  0
  160.9080  201.1880  147.7270 C   0  0  0  0  0  2  0  0  0  0  0  0
  162.3970  206.9520  150.7580 C   0  0  0  0  0  2  0  0  0  0  0  0
  162.3340  208.9170  149.1810 C   0  0  0  0  0  0  0  0  0  0  0  0
  162.1960  210.3190  148.9880 N   0  0  0  0  0  0  0  0  0  0  0  0
  162.5430  208.1670  148.1900 O   0  0  0  0  0  0  0  0  0  0  0  0
  162.1370  211.5370  148.1310 C   0  0  2  0  0  3  0  0  0  0  0  0
  162.2400  208.3740  150.4960 N   0  0  0  0  0  2  0  0  0  0  0  0
  161.9770  211.7070  149.4890 C   0  0  0  0  0  2  0  0  0  0  0  0
  160.7920  211.5770  147.4260 C   0  0  0  0  0  2  0  0  0  0  0  0
  160.4790  212.9400  147.0190 N   0  0  0  0  0  0  0  0  0  0  0  0
  158.7830  213.8040  145.5710 C   0  0  0  0  0  2  0  0  0  0  0  0
  159.4080  213.3690  147.8230 N   0  0  0  0  0  2  0  0  0  0  0  0
  159.9780  212.8890  145.6490 C   0  0  1  0  0  3  0  0  0  0  0  0
  158.5800  214.2340  146.9960 C   0  0  0  0  0  2  0  0  0  0  0  0
  161.0450  213.2900  144.6670 C   0  0  0  0  0  0  0  0  0  0  0  0
  162.2480  214.3100  145.1460 S   0  0  0  0  0  0  0  0  0  0  0  0
  161.0210  212.7380  143.2910 C   0  0  0  0  0  0  0  0  0  0  0  0
  159.8210  212.0530  141.3010 C   0  0  0  0  0  3  0  0  0  0  0  0
  162.1840  211.8480  141.3610 C   0  0  0  0  0  3  0  0  0  0  0  0
  160.9970  211.7020  140.7150 N   0  0  0  0  0  0  0  0  0  0  0  0
  162.2170  212.3680  142.6570 C   0  0  0  0  0  3  0  0  0  0  0  0
  159.8130  212.5750  142.5970 C   0  0  0  0  0  3  0  0  0  0  0  0
  1  2  2  0  0  0  0
  2  4  1  0  0  0  0
  3  9  1  0  0  0  0
  3  7  1  0  0  0  0
  4 13  2  0  0  0  0
  5 14  1  0  0  0  0
  5  9  2  0  0  0  0
  6  3  2  0  0  0  0
  8  5  1  0  0  0  0
 10  8  2  0  0  0  0
 10  6  1  0  0  0  0
 11 12  2  0  0  0  0
 12  4  1  0  0  0  0
 12  8  1  0  0  0  0
 13 14  1  0  0  0  0
 15 16  1  0  0  0  0
 15 18  1  0  0  0  0
 16 22  1  6  0  0  0
 16 20  1  0  0  0  0
 18 19  1  0  0  0  0
 19 17  2  0  0  0  0
 19  1  1  0  0  0  0
 20 17  1  0  0  0  0
 21 22  1  0  0  0  0
 23  2  1  0  0  0  0
 24 28  1  0  0  0  0
 25 24  1  0  0  0  0
 25 29  1  0  0  0  0
 26 24  2  0  0  0  0
 27 30  1  6  0  0  0
 27 25  1  0  0  0  0
 27 29  1  0  0  0  0
 28 23  1  0  0  0  0
 31 30  1  0  0  0  0
 31 33  1  0  0  0  0
 32 34  1  0  0  0  0
 32 35  1  0  0  0  0
 34 36  1  6  0  0  0
 34 31  1  0  0  0  0
 35 33  1  0  0  0  0
 36 37  2  0  0  0  0
 38 36  1  0  0  0  0
 39 43  1  0  0  0  0
 40 42  2  0  0  0  0
 41 39  2  0  0  0  0
 41 40  1  0  0  0  0
 42 38  1  0  0  0  0
 43 38  2  0  0  0  0
M  END
>  <MODEL>
2

>  <REMARK>
 VINA RESULT:      -9.0      1.415      2.058
  Name = 
  9 active torsions:
  status: ('A' for Active; 'I' for Inactive)
    1  A    between atoms: N_1  and  C_35
    2  A    between atoms: C_3  and  N_4
    3  A    between atoms: C_3  and  C_12
    4  A    between atoms: C_8  and  C_34
    5  A    between atoms: C_11  and  C_14
    6  A    between atoms: N_13  and  C_38
    7  A    between atoms: C_14  and  C_22
    8  A    between atoms: C_19  and  C_37
    9  A    between atoms: C_34  and  C_38
                            x       y       z     vdW  Elec       q    Type
                         _______ _______ _______ _____ _____    ______ ____

>  <TORSDO>
F 9

$$$$
=
 OpenBabel11062409583D

 43 48  0  0  1  0  0  0  0  0999 V2000
  159.7110  213.1150  146.3480 N   0  0  0  0  0  0  0  0  0  0  0  0
  160.1570  213.2270  147.5720 C   0  0  0  0  0  0  0  0  0  0  0  0
  156.8770  213.9670  153.2450 C   0  0  0  0  0  0  0  0  0  0  0  0
  159.1980  213.5520  148.6610 C   0  0  0  0  0  0  0  0  0  0  0  0
  157.3360  213.7900  150.8700 C   0  0  0  0  0  0  0  0  0  0  0  0
  158.2310  214.2080  153.4920 C   0  0  0  0  0  3  0  0  0  0  0  0
  155.9950  213.9420  154.2720 F   0  0  0  0  0  0  0  0  0  0  0  0
  158.7000  214.0360  151.1180 C   0  0  0  0  0  0  0  0  0  0  0  0
  156.4290  213.7690  151.9350 C   0  0  0  0  0  3  0  0  0  0  0  0
  159.1400  214.2440  152.4320 C   0  0  0  0  0  3  0  0  0  0  0  0
  160.8270  214.4520  150.1660 O   0  0  0  0  0  0  0  0  0  0  0  0
  159.6490  214.0390  149.9910 C   0  0  0  0  0  0  0  0  0  0  0  0
  157.8880  213.3460  148.4560 C   0  0  0  0  0  3  0  0  0  0  0  0
  156.8170  213.6690  149.4660 C   0  0  0  0  0  2  0  0  0  0  0  0
  162.5320  212.8810  143.6910 C   0  0  0  0  0  2  0  0  0  0  0  0
  161.5790  212.6840  142.5200 C   0  0  2  0  0  3  0  0  0  0  0  0
  159.8550  212.0600  144.2280 C   0  0  0  0  0  3  0  0  0  0  0  0
  161.7750  213.4960  144.8650 C   0  0  0  0  0  2  0  0  0  0  0  0
  160.4580  212.8070  145.1600 C   0  0  0  0  0  0  0  0  0  0  0  0
  160.5160  211.6700  142.9350 C   0  0  0  0  0  2  0  0  0  0  0  0
  161.4400  211.4010  140.3870 C   0  0  0  0  0  1  0  0  0  0  0  0
  162.3540  212.1750  141.3180 C   0  0  0  0  0  2  0  0  0  0  0  0
  161.5750  212.8800  147.9150 C   0  0  0  0  0  2  0  0  0  0  0  0
  161.7830  210.5970  148.9610 C   0  0  0  0  0  0  0  0  0  0  0  0
  161.9910  209.1990  148.8020 N   0  0  0  0  0  0  0  0  0  0  0  0
  161.6260  211.0780  150.1150 O   0  0  0  0  0  0  0  0  0  0  0  0
  162.1190  207.8110  149.3320 C   0  0  2  0  0  3  0  0  0  0  0  0
  161.7590  211.4410  147.8120 N   0  0  0  0  0  2  0  0  0  0  0  0
  162.2270  207.9840  147.9690 C   0  0  0  0  0  2  0  0  0  0  0  0
  160.7380  207.2940  149.6960 C   0  0  0  0  0  2  0  0  0  0  0  0
  160.7780  206.6300  150.9910 N   0  0  0  0  0  0  0  0  0  0  0  0
  162.5980  205.7040  152.2350 C   0  0  0  0  0  2  0  0  0  0  0  0
  161.1890  207.5940  151.9300 N   0  0  0  0  0  2  0  0  0  0  0  0
  161.8310  205.6220  150.9410 C   0  0  1  0  0  3  0  0  0  0  0  0
  161.9990  206.9000  152.9200 C   0  0  0  0  0  2  0  0  0  0  0  0
  161.2560  204.2480  150.7270 C   0  0  0  0  0  0  0  0  0  0  0  0
  160.6400  203.4180  152.0100 S   0  0  0  0  0  0  0  0  0  0  0  0
  161.2180  203.6720  149.3610 C   0  0  0  0  0  0  0  0  0  0  0  0
  161.5060  203.8780  146.9650 C   0  0  0  0  0  3  0  0  0  0  0  0
  160.8180  201.8000  147.8780 C   0  0  0  0  0  3  0  0  0  0  0  0
  161.1430  202.5760  146.8110 N   0  0  0  0  0  0  0  0  0  0  0  0
  160.8500  202.3320  149.1680 C   0  0  0  0  0  3  0  0  0  0  0  0
  161.5490  204.4470  148.2390 C   0  0  0  0  0  3  0  0  0  0  0  0
  1  2  2  0  0  0  0
  2 23  1  0  0  0  0
  2  4  1  0  0  0  0
  3  6  1  0  0  0  0
  3  7  1  0  0  0  0
  4 12  1  0  0  0  0
  5  8  2  0  0  0  0
  5  9  1  0  0  0  0
  8 10  1  0  0  0  0
  9  3  2  0  0  0  0
 10  6  2  0  0  0  0
 12 11  2  0  0  0  0
 12  8  1  0  0  0  0
 13  4  2  0  0  0  0
 13 14  1  0  0  0  0
 14  5  1  0  0  0  0
 15 18  1  0  0  0  0
 16 22  1  6  0  0  0
 16 20  1  0  0  0  0
 16 15  1  0  0  0  0
 17 19  2  0  0  0  0
 18 19  1  0  0  0  0
 19  1  1  0  0  0  0
 20 17  1  0  0  0  0
 21 22  1  0  0  0  0
 24 26  2  0  0  0  0
 25 24  1  0  0  0  0
 25 27  1  0  0  0  0
 27 30  1  6  0  0  0
 28 23  1  0  0  0  0
 28 24  1  0  0  0  0
 29 25  1  0  0  0  0
 29 27  1  0  0  0  0
 30 31  1  0  0  0  0
 31 33  1  0  0  0  0
 32 35  1  0  0  0  0
 33 35  1  0  0  0  0
 34 36  1  1  0  0  0
 34 31  1  0  0  0  0
 34 32  1  0  0  0  0
 36 37  2  0  0  0  0
 38 36  1  0  0  0  0
 39 43  1  0  0  0  0
 40 42  2  0  0  0  0
 41 39  2  0  0  0  0
 41 40  1  0  0  0  0
 42 38  1  0  0  0  0
 43 38  2  0  0  0  0
M  END
>  <MODEL>
3

>  <REMARK>
 VINA RESULT:      -8.6      3.283      8.724
  Name = 
  9 active torsions:
  status: ('A' for Active; 'I' for Inactive)
    1  A    between atoms: N_1  and  C_35
    2  A    between atoms: C_3  and  N_4
    3  A    between atoms: C_3  and  C_12
    4  A    between atoms: C_8  and  C_34
    5  A    between atoms: C_11  and  C_14
    6  A    between atoms: N_13  and  C_38
    7  A    between atoms: C_14  and  C_22
    8  A    between atoms: C_19  and  C_37
    9  A    between atoms: C_34  and  C_38
                            x       y       z     vdW  Elec       q    Type
                         _______ _______ _______ _____ _____    ______ ____

>  <TORSDO>
F 9

$$$$
=
 OpenBabel11062409583D

 43 48  0  0  1  0  0  0  0  0999 V2000
  160.7910  207.2510  152.2320 N   0  0  0  0  0  0  0  0  0  0  0  0
  161.2040  208.4910  152.2020 C   0  0  0  0  0  0  0  0  0  0  0  0
  159.9350  213.5110  156.2860 C   0  0  0  0  0  0  0  0  0  0  0  0
  160.8890  209.3840  153.3490 C   0  0  0  0  0  0  0  0  0  0  0  0
  160.6120  211.3240  155.4840 C   0  0  0  0  0  0  0  0  0  0  0  0
  159.2500  213.7410  155.0900 C   0  0  0  0  0  3  0  0  0  0  0  0
  159.9350  214.4530  157.2590 F   0  0  0  0  0  0  0  0  0  0  0  0
  159.9200  211.5540  154.2810 C   0  0  0  0  0  0  0  0  0  0  0  0
  160.6060  212.3000  156.4870 C   0  0  0  0  0  3  0  0  0  0  0  0
  159.2410  212.7650  154.0900 C   0  0  0  0  0  3  0  0  0  0  0  0
  159.1770  210.6280  152.2330 O   0  0  0  0  0  0  0  0  0  0  0  0
  159.9480  210.5270  153.2240 C   0  0  0  0  0  0  0  0  0  0  0  0
  161.5170  209.1860  154.5180 C   0  0  0  0  0  3  0  0  0  0  0  0
  161.2580  209.9970  155.7610 C   0  0  0  0  0  2  0  0  0  0  0  0
  161.0460  205.3540  148.8550 C   0  0  0  0  0  2  0  0  0  0  0  0
  160.7700  203.9860  149.4630 C   0  0  2  0  0  3  0  0  0  0  0  0
  161.3600  205.0180  151.6690 C   0  0  0  0  0  3  0  0  0  0  0  0
  160.5540  206.4430  149.8050 C   0  0  0  0  0  2  0  0  0  0  0  0
  160.9860  206.2300  151.2420 C   0  0  0  0  0  0  0  0  0  0  0  0
  161.5920  203.8570  150.7430 C   0  0  0  0  0  2  0  0  0  0  0  0
  160.3000  201.6700  148.6700 C   0  0  0  0  0  1  0  0  0  0  0  0
  161.1590  202.9040  148.4730 C   0  0  0  0  0  2  0  0  0  0  0  0
  162.1180  208.9770  151.1170 C   0  0  0  0  0  2  0  0  0  0  0  0
  162.0350  210.8400  149.4230 C   0  0  0  0  0  0  0  0  0  0  0  0
  161.6390  212.1640  149.0890 N   0  0  0  0  0  0  0  0  0  0  0  0
  162.6650  210.1460  148.5830 O   0  0  0  0  0  0  0  0  0  0  0  0
  161.5360  213.3180  148.1490 C   0  0  2  0  0  3  0  0  0  0  0  0
  161.7180  210.3140  150.7110 N   0  0  0  0  0  2  0  0  0  0  0  0
  160.9840  213.4680  149.4030 C   0  0  0  0  0  2  0  0  0  0  0  0
  160.4560  213.0210  147.1230 C   0  0  0  0  0  2  0  0  0  0  0  0
  161.0540  212.8120  145.8120 N   0  0  0  0  0  0  0  0  0  0  0  0
  161.8320  214.3640  144.1680 C   0  0  0  0  0  2  0  0  0  0  0  0
  162.4450  212.9450  145.9740 N   0  0  0  0  0  2  0  0  0  0  0  0
  160.6270  213.9090  144.9510 C   0  0  1  0  0  3  0  0  0  0  0  0
  162.9540  213.5560  144.7560 C   0  0  0  0  0  2  0  0  0  0  0  0
  159.5080  213.4800  144.0410 C   0  0  0  0  0  0  0  0  0  0  0  0
  157.9640  213.4430  144.6150 S   0  0  0  0  0  0  0  0  0  0  0  0
  159.8020  213.1300  142.6310 C   0  0  0  0  0  0  0  0  0  0  0  0
  160.8000  211.6740  140.9710 C   0  0  0  0  0  3  0  0  0  0  0  0
  159.6250  213.6090  140.2630 C   0  0  0  0  0  3  0  0  0  0  0  0
  160.3420  212.4880  139.9840 N   0  0  0  0  0  0  0  0  0  0  0  0
  159.3420  213.9480  141.5880 C   0  0  0  0  0  3  0  0  0  0  0  0
  160.5390  211.9800  142.3090 C   0  0  0  0  0  3  0  0  0  0  0  0
  2  1  2  0  0  0  0
  2  4  1  0  0  0  0
  3  9  1  0  0  0  0
  3  7  1  0  0  0  0
  4 13  2  0  0  0  0
  5 14  1  0  0  0  0
  5  9  2  0  0  0  0
  6  3  2  0  0  0  0
  8  5  1  0  0  0  0
 10  8  2  0  0  0  0
 10  6  1  0  0  0  0
 11 12  2  0  0  0  0
 12  4  1  0  0  0  0
 12  8  1  0  0  0  0
 13 14  1  0  0  0  0
 15 16  1  0  0  0  0
 15 18  1  0  0  0  0
 16 22  1  6  0  0  0
 16 20  1  0  0  0  0
 18 19  1  0  0  0  0
 19 17  2  0  0  0  0
 19  1  1  0  0  0  0
 20 17  1  0  0  0  0
 22 21  1  0  0  0  0
 23  2  1  0  0  0  0
 24 28  1  0  0  0  0
 25 29  1  0  0  0  0
 25 24  1  0  0  0  0
 26 24  2  0  0  0  0
 27 30  1  6  0  0  0
 27 25  1  0  0  0  0
 27 29  1  0  0  0  0
 28 23  1  0  0  0  0
 31 33  1  0  0  0  0
 31 30  1  0  0  0  0
 32 35  1  0  0  0  0
 32 34  1  0  0  0  0
 34 36  1  6  0  0  0
 34 31  1  0  0  0  0
 35 33  1  0  0  0  0
 36 37  2  0  0  0  0
 38 36  1  0  0  0  0
 39 43  2  0  0  0  0
 40 42  1  0  0  0  0
 41 40  2  0  0  0  0
 41 39  1  0  0  0  0
 42 38  2  0  0  0  0
 43 38  1  0  0  0  0
M  END
>  <MODEL>
4

>  <REMARK>
 VINA RESULT:      -8.1      1.582      2.131
  Name = 
  9 active torsions:
  status: ('A' for Active; 'I' for Inactive)
    1  A    between atoms: N_1  and  C_35
    2  A    between atoms: C_3  and  N_4
    3  A    between atoms: C_3  and  C_12
    4  A    between atoms: C_8  and  C_34
    5  A    between atoms: C_11  and  C_14
    6  A    between atoms: N_13  and  C_38
    7  A    between atoms: C_14  and  C_22
    8  A    between atoms: C_19  and  C_37
    9  A    between atoms: C_34  and  C_38
                            x       y       z     vdW  Elec       q    Type
                         _______ _______ _______ _____ _____    ______ ____

>  <TORSDO>
F 9

$$$$
=
 OpenBabel11062409583D

 43 48  0  0  1  0  0  0  0  0999 V2000
  159.8010  213.2080  148.8080 N   0  0  0  0  0  0  0  0  0  0  0  0
  160.2310  212.9700  150.0200 C   0  0  0  0  0  0  0  0  0  0  0  0
  156.2680  212.3760  155.2570 C   0  0  0  0  0  0  0  0  0  0  0  0
  159.3010  213.1630  151.1650 C   0  0  0  0  0  0  0  0  0  0  0  0
  157.2650  213.2480  153.2260 C   0  0  0  0  0  0  0  0  0  0  0  0
  157.3990  211.5860  155.4780 C   0  0  0  0  0  3  0  0  0  0  0  0
  155.2370  212.3430  156.1350 F   0  0  0  0  0  0  0  0  0  0  0  0
  158.4070  212.4560  153.4490 C   0  0  0  0  0  0  0  0  0  0  0  0
  156.2050  213.2130  154.1390 C   0  0  0  0  0  3  0  0  0  0  0  0
  158.4670  211.6270  154.5780 C   0  0  0  0  0  3  0  0  0  0  0  0
  160.6120  211.9460  152.7550 O   0  0  0  0  0  0  0  0  0  0  0  0
  159.5100  212.4880  152.4730 C   0  0  0  0  0  0  0  0  0  0  0  0
  158.2100  213.9250  150.9950 C   0  0  0  0  0  3  0  0  0  0  0  0
  157.2150  214.2250  152.0860 C   0  0  0  0  0  2  0  0  0  0  0  0
  162.5580  213.4140  146.0830 C   0  0  0  0  0  2  0  0  0  0  0  0
  161.5810  213.3500  144.9180 C   0  0  2  0  0  3  0  0  0  0  0  0
  159.9160  212.4540  146.5620 C   0  0  0  0  0  3  0  0  0  0  0  0
  161.8170  213.8430  147.3470 C   0  0  0  0  0  2  0  0  0  0  0  0
  160.5240  213.0850  147.5740 C   0  0  0  0  0  0  0  0  0  0  0  0
  160.5530  212.2620  145.2140 C   0  0  0  0  0  2  0  0  0  0  0  0
  161.4680  212.2190  142.6990 C   0  0  0  0  0  1  0  0  0  0  0  0
  162.3370  213.0300  143.6410 C   0  0  0  0  0  2  0  0  0  0  0  0
  161.5790  212.3580  150.2580 C   0  0  0  0  0  2  0  0  0  0  0  0
  161.7180  209.8450  150.1370 C   0  0  0  0  0  0  0  0  0  0  0  0
  161.8520  208.6700  149.3480 N   0  0  0  0  0  0  0  0  0  0  0  0
  161.6300  209.7500  151.3900 O   0  0  0  0  0  0  0  0  0  0  0  0
  161.9340  207.1910  149.1800 C   0  0  2  0  0  3  0  0  0  0  0  0
  161.6890  211.1220  149.5010 N   0  0  0  0  0  2  0  0  0  0  0  0
  161.9970  207.9640  148.0410 C   0  0  0  0  0  2  0  0  0  0  0  0
  160.5460  206.5990  149.3480 C   0  0  0  0  0  2  0  0  0  0  0  0
  160.5280  205.6740  150.4720 N   0  0  0  0  0  0  0  0  0  0  0  0
  162.3010  204.5640  151.6310 C   0  0  0  0  0  2  0  0  0  0  0  0
  160.8250  206.4270  151.6230 N   0  0  0  0  0  2  0  0  0  0  0  0
  161.6300  204.7360  150.2920 C   0  0  1  0  0  3  0  0  0  0  0  0
  161.5980  205.5640  152.5040 C   0  0  0  0  0  2  0  0  0  0  0  0
  161.1400  203.4210  149.7480 C   0  0  0  0  0  0  0  0  0  0  0  0
  160.5410  202.2880  150.7830 S   0  0  0  0  0  0  0  0  0  0  0  0
  161.1690  203.1740  148.2870 C   0  0  0  0  0  0  0  0  0  0  0  0
  161.6670  203.8870  146.0260 C   0  0  0  0  0  3  0  0  0  0  0  0
  160.7460  201.7310  146.3880 C   0  0  0  0  0  3  0  0  0  0  0  0
  161.2180  202.6940  145.5520 N   0  0  0  0  0  0  0  0  0  0  0  0
  160.7150  201.9540  147.7660 C   0  0  0  0  0  3  0  0  0  0  0  0
  161.6500  204.1480  147.3970 C   0  0  0  0  0  3  0  0  0  0  0  0
  1  2  2  0  0  0  0
  2 23  1  0  0  0  0
  2  4  1  0  0  0  0
  3  6  1  0  0  0  0
  3  7  1  0  0  0  0
  4 12  1  0  0  0  0
  5  8  2  0  0  0  0
  5  9  1  0  0  0  0
  8 10  1  0  0  0  0
  9  3  2  0  0  0  0
 10  6  2  0  0  0  0
 12 11  2  0  0  0  0
 12  8  1  0  0  0  0
 13  4  2  0  0  0  0
 13 14  1  0  0  0  0
 14  5  1  0  0  0  0
 15 18  1  0  0  0  0
 16 22  1  6  0  0  0
 16 20  1  0  0  0  0
 16 15  1  0  0  0  0
 17 19  2  0  0  0  0
 18 19  1  0  0  0  0
 19  1  1  0  0  0  0
 20 17  1  0  0  0  0
 21 22  1  0  0  0  0
 24 26  2  0  0  0  0
 25 24  1  0  0  0  0
 27 30  1  6  0  0  0
 27 25  1  0  0  0  0
 28 24  1  0  0  0  0
 28 23  1  0  0  0  0
 29 27  1  0  0  0  0
 29 25  1  0  0  0  0
 30 31  1  0  0  0  0
 31 33  1  0  0  0  0
 32 35  1  0  0  0  0
 33 35  1  0  0  0  0
 34 36  1  1  0  0  0
 34 31  1  0  0  0  0
 34 32  1  0  0  0  0
 36 37  2  0  0  0  0
 38 36  1  0  0  0  0
 39 43  1  0  0  0  0
 40 42  2  0  0  0  0
 41 39  2  0  0  0  0
 41 40  1  0  0  0  0
 42 38  1  0  0  0  0
 43 38  2  0  0  0  0
M  END
>  <MODEL>
5

>  <REMARK>
 VINA RESULT:      -7.6      3.201      8.165
  Name = 
  9 active torsions:
  status: ('A' for Active; 'I' for Inactive)
    1  A    between atoms: N_1  and  C_35
    2  A    between atoms: C_3  and  N_4
    3  A    between atoms: C_3  and  C_12
    4  A    between atoms: C_8  and  C_34
    5  A    between atoms: C_11  and  C_14
    6  A    between atoms: N_13  and  C_38
    7  A    between atoms: C_14  and  C_22
    8  A    between atoms: C_19  and  C_37
    9  A    between atoms: C_34  and  C_38
                            x       y       z     vdW  Elec       q    Type
                         _______ _______ _______ _____ _____    ______ ____

>  <TORSDO>
F 9

$$$$
=
 OpenBabel11062409583D

 43 48  0  0  1  0  0  0  0  0999 V2000
  161.2500  212.3690  148.9070 N   0  0  0  0  0  0  0  0  0  0  0  0
  161.5970  211.2680  149.5210 C   0  0  0  0  0  0  0  0  0  0  0  0
  160.1140  212.0910  155.8940 C   0  0  0  0  0  0  0  0  0  0  0  0
  161.2900  211.1250  150.9700 C   0  0  0  0  0  0  0  0  0  0  0  0
  160.9850  211.1150  153.8520 C   0  0  0  0  0  0  0  0  0  0  0  0
  159.2820  212.9270  155.1440 C   0  0  0  0  0  3  0  0  0  0  0  0
  160.0920  212.1510  157.2470 F   0  0  0  0  0  0  0  0  0  0  0  0
  160.1460  211.9540  153.0950 C   0  0  0  0  0  0  0  0  0  0  0  0
  160.9560  211.1790  155.2490 C   0  0  0  0  0  3  0  0  0  0  0  0
  159.2970  212.8580  153.7490 C   0  0  0  0  0  3  0  0  0  0  0  0
  159.3200  212.4830  150.9410 O   0  0  0  0  0  0  0  0  0  0  0  0
  160.1970  211.8910  151.6240 C   0  0  0  0  0  0  0  0  0  0  0  0
  162.0580  210.3200  151.7200 C   0  0  0  0  0  3  0  0  0  0  0  0
  161.8260  210.0640  153.1860 C   0  0  0  0  0  2  0  0  0  0  0  0
  160.6740  213.0120  145.1220 C   0  0  0  0  0  2  0  0  0  0  0  0
  162.1290  212.7860  144.7380 C   0  0  2  0  0  3  0  0  0  0  0  0
  162.6620  213.1350  147.1610 C   0  0  0  0  0  3  0  0  0  0  0  0
  160.4010  212.3740  146.4810 C   0  0  0  0  0  2  0  0  0  0  0  0
  161.4470  212.7100  147.5250 C   0  0  0  0  0  0  0  0  0  0  0  0
  163.0100  213.5160  145.7490 C   0  0  0  0  0  2  0  0  0  0  0  0
  162.1370  212.2410  142.3050 C   0  0  0  0  0  1  0  0  0  0  0  0
  162.3730  213.3240  143.3390 C   0  0  0  0  0  2  0  0  0  0  0  0
  162.1460  210.0980  148.7630 C   0  0  0  0  0  2  0  0  0  0  0  0
  161.2170  207.7640  148.9630 C   0  0  0  0  0  0  0  0  0  0  0  0
  160.9960  206.6060  149.7580 N   0  0  0  0  0  0  0  0  0  0  0  0
  160.7950  207.7980  147.7770 O   0  0  0  0  0  0  0  0  0  0  0  0
  160.4840  205.2210  149.9650 C   0  0  2  0  0  3  0  0  0  0  0  0
  161.9120  208.8780  149.5200 N   0  0  0  0  0  2  0  0  0  0  0  0
  161.1160  205.8310  151.0270 C   0  0  0  0  0  2  0  0  0  0  0  0
  161.4200  204.2430  149.2760 C   0  0  0  0  0  2  0  0  0  0  0  0
  160.7240  202.9960  148.9940 N   0  0  0  0  0  0  0  0  0  0  0  0
  161.5390  200.7700  148.6810 C   0  0  0  0  0  2  0  0  0  0  0  0
  160.5950  202.3160  150.2200 N   0  0  0  0  0  2  0  0  0  0  0  0
  161.5960  202.1810  148.1550 C   0  0  1  0  0  3  0  0  0  0  0  0
  160.7100  200.8950  149.9280 C   0  0  0  0  0  2  0  0  0  0  0  0
  161.1770  202.2490  146.7110 C   0  0  0  0  0  0  0  0  0  0  0  0
  160.4680  200.9380  146.0100 S   0  0  0  0  0  0  0  0  0  0  0  0
  161.3750  203.5050  145.9480 C   0  0  0  0  0  0  0  0  0  0  0  0
  162.5770  205.5670  145.5340 C   0  0  0  0  0  3  0  0  0  0  0  0
  160.7180  205.0110  144.1690 C   0  0  0  0  0  3  0  0  0  0  0  0
  161.7320  205.8510  144.5070 N   0  0  0  0  0  0  0  0  0  0  0  0
  160.5230  203.8260  144.8820 C   0  0  0  0  0  3  0  0  0  0  0  0
  162.4130  204.3930  146.2720 C   0  0  0  0  0  3  0  0  0  0  0  0
  1  2  2  0  0  0  0
  2  4  1  0  0  0  0
  3  7  1  0  0  0  0
  4 12  1  0  0  0  0
  4 13  2  0  0  0  0
  5  9  2  0  0  0  0
  6  3  2  0  0  0  0
  8 10  2  0  0  0  0
  8  5  1  0  0  0  0
  9  3  1  0  0  0  0
 10  6  1  0  0  0  0
 11 12  2  0  0  0  0
 12  8  1  0  0  0  0
 13 14  1  0  0  0  0
 14  5  1  0  0  0  0
 15 18  1  0  0  0  0
 16 22  1  6  0  0  0
 16 15  1  0  0  0  0
 16 20  1  0  0  0  0
 17 19  2  0  0  0  0
 18 19  1  0  0  0  0
 19  1  1  0  0  0  0
 20 17  1  0  0  0  0
 21 22  1  0  0  0  0
 23 28  1  0  0  0  0
 23  2  1  0  0  0  0
 24 28  1  0  0  0  0
 24 25  1  0  0  0  0
 25 27  1  0  0  0  0
 25 29  1  0  0  0  0
 26 24  2  0  0  0  0
 27 30  1  6  0  0  0
 27 29  1  0  0  0  0
 31 30  1  0  0  0  0
 31 33  1  0  0  0  0
 32 35  1  0  0  0  0
 34 36  1  6  0  0  0
 34 32  1  0  0  0  0
 34 31  1  0  0  0  0
 35 33  1  0  0  0  0
 37 36  2  0  0  0  0
 38 43  1  0  0  0  0
 38 36  1  0  0  0  0
 39 43  2  0  0  0  0
 40 41  2  0  0  0  0
 40 42  1  0  0  0  0
 41 39  1  0  0  0  0
 42 38  2  0  0  0  0
M  END
>  <MODEL>
6

>  <REMARK>
 VINA RESULT:      -7.4      3.281      8.184
  Name = 
  9 active torsions:
  status: ('A' for Active; 'I' for Inactive)
    1  A    between atoms: N_1  and  C_35
    2  A    between atoms: C_3  and  N_4
    3  A    between atoms: C_3  and  C_12
    4  A    between atoms: C_8  and  C_34
    5  A    between atoms: C_11  and  C_14
    6  A    between atoms: N_13  and  C_38
    7  A    between atoms: C_14  and  C_22
    8  A    between atoms: C_19  and  C_37
    9  A    between atoms: C_34  and  C_38
                            x       y       z     vdW  Elec       q    Type
                         _______ _______ _______ _____ _____    ______ ____

>  <TORSDO>
F 9

$$$$
=
 OpenBabel11062409583D

 43 48  0  0  1  0  0  0  0  0999 V2000
  160.9190  204.7920  151.7110 N   0  0  0  0  0  0  0  0  0  0  0  0
  161.4130  206.0030  151.6960 C   0  0  0  0  0  0  0  0  0  0  0  0
  161.2130  210.8780  156.1330 C   0  0  0  0  0  0  0  0  0  0  0  0
  161.1980  206.8830  152.8760 C   0  0  0  0  0  0  0  0  0  0  0  0
  161.1790  208.6510  155.1730 C   0  0  0  0  0  0  0  0  0  0  0  0
  160.9720  211.4300  154.8720 C   0  0  0  0  0  3  0  0  0  0  0  0
  161.3400  211.6860  157.2130 F   0  0  0  0  0  0  0  0  0  0  0  0
  160.9330  209.2050  153.9030 C   0  0  0  0  0  0  0  0  0  0  0  0
  161.3050  209.4910  156.2850 C   0  0  0  0  0  3  0  0  0  0  0  0
  160.8310  210.5960  153.7600 C   0  0  0  0  0  3  0  0  0  0  0  0
  160.4040  208.7700  151.6370 O   0  0  0  0  0  0  0  0  0  0  0  0
  160.8190  208.3140  152.7350 C   0  0  0  0  0  0  0  0  0  0  0  0
  161.4060  206.3850  154.1050 C   0  0  0  0  0  3  0  0  0  0  0  0
  161.1870  207.1630  155.3760 C   0  0  0  0  0  2  0  0  0  0  0  0
  161.1070  202.9990  148.2730 C   0  0  0  0  0  2  0  0  0  0  0  0
  160.5520  201.6820  148.7930 C   0  0  2  0  0  3  0  0  0  0  0  0
  161.1370  202.5150  151.0820 C   0  0  0  0  0  3  0  0  0  0  0  0
  160.7380  204.1240  149.2360 C   0  0  0  0  0  2  0  0  0  0  0  0
  161.0120  203.7880  150.6880 C   0  0  0  0  0  0  0  0  0  0  0  0
  161.2350  201.3640  150.1200 C   0  0  0  0  0  2  0  0  0  0  0  0
  160.6810  201.1140  146.3690 C   0  0  0  0  0  1  0  0  0  0  0  0
  160.8250  200.5830  147.7820 C   0  0  0  0  0  2  0  0  0  0  0  0
  162.3180  206.4580  150.5910 C   0  0  0  0  0  2  0  0  0  0  0  0
  162.2340  208.6140  149.2910 C   0  0  0  0  0  0  0  0  0  0  0  0
  162.2570  210.0360  149.2880 N   0  0  0  0  0  0  0  0  0  0  0  0
  162.1470  207.9890  148.2010 O   0  0  0  0  0  0  0  0  0  0  0  0
  162.2080  211.3600  148.6030 C   0  0  2  0  0  3  0  0  0  0  0  0
  162.3130  207.9110  150.5290 N   0  0  0  0  0  2  0  0  0  0  0  0
  162.3300  211.3580  149.9750 C   0  0  0  0  0  2  0  0  0  0  0  0
  160.7730  211.6480  148.1950 C   0  0  0  0  0  2  0  0  0  0  0  0
  160.7430  212.2830  146.8850 N   0  0  0  0  0  0  0  0  0  0  0  0
  161.4460  214.4530  146.1670 C   0  0  0  0  0  2  0  0  0  0  0  0
  162.0340  212.1560  146.3410 N   0  0  0  0  0  2  0  0  0  0  0  0
  160.5150  213.7100  147.0900 C   0  0  1  0  0  3  0  0  0  0  0  0
  162.2850  213.3610  145.5650 C   0  0  0  0  0  2  0  0  0  0  0  0
  159.0770  214.0720  146.8300 C   0  0  0  0  0  0  0  0  0  0  0  0
  158.5670  214.3080  145.2820 S   0  0  0  0  0  0  0  0  0  0  0  0
  158.1310  214.1780  147.9670 C   0  0  0  0  0  0  0  0  0  0  0  0
  155.8760  214.2200  148.8510 C   0  0  0  0  0  3  0  0  0  0  0  0
  157.7110  214.4370  150.3380 C   0  0  0  0  0  3  0  0  0  0  0  0
  156.3730  214.3760  150.1070 N   0  0  0  0  0  0  0  0  0  0  0  0
  158.6110  214.3380  149.2740 C   0  0  0  0  0  3  0  0  0  0  0  0
  156.7430  214.1190  147.7620 C   0  0  0  0  0  3  0  0  0  0  0  0
  2  1  2  0  0  0  0
  2  4  1  0  0  0  0
  3  9  1  0  0  0  0
  3  7  1  0  0  0  0
  4 13  2  0  0  0  0
  5 14  1  0  0  0  0
  5  9  2  0  0  0  0
  6  3  2  0  0  0  0
  8  5  1  0  0  0  0
 10  8  2  0  0  0  0
 10  6  1  0  0  0  0
 11 12  2  0  0  0  0
 12  4  1  0  0  0  0
 12  8  1  0  0  0  0
 13 14  1  0  0  0  0
 15 16  1  0  0  0  0
 15 18  1  0  0  0  0
 16 22  1  6  0  0  0
 16 20  1  0  0  0  0
 18 19  1  0  0  0  0
 19 17  2  0  0  0  0
 19  1  1  0  0  0  0
 20 17  1  0  0  0  0
 21 22  1  0  0  0  0
 23  2  1  0  0  0  0
 24 28  1  0  0  0  0
 25 24  1  0  0  0  0
 25 29  1  0  0  0  0
 26 24  2  0  0  0  0
 27 30  1  1  0  0  0
 27 25  1  0  0  0  0
 27 29  1  0  0  0  0
 28 23  1  0  0  0  0
 31 34  1  0  0  0  0
 31 30  1  0  0  0  0
 32 34  1  0  0  0  0
 33 31  1  0  0  0  0
 34 36  1  6  0  0  0
 35 32  1  0  0  0  0
 35 33  1  0  0  0  0
 36 38  1  0  0  0  0
 37 36  2  0  0  0  0
 38 42  1  0  0  0  0
 39 41  2  0  0  0  0
 41 40  1  0  0  0  0
 42 40  2  0  0  0  0
 43 38  2  0  0  0  0
 43 39  1  0  0  0  0
M  END
>  <MODEL>
7

>  <REMARK>
 VINA RESULT:      -7.4      2.511      4.399
  Name = 
  9 active torsions:
  status: ('A' for Active; 'I' for Inactive)
    1  A    between atoms: N_1  and  C_35
    2  A    between atoms: C_3  and  N_4
    3  A    between atoms: C_3  and  C_12
    4  A    between atoms: C_8  and  C_34
    5  A    between atoms: C_11  and  C_14
    6  A    between atoms: N_13  and  C_38
    7  A    between atoms: C_14  and  C_22
    8  A    between atoms: C_19  and  C_37
    9  A    between atoms: C_34  and  C_38
                            x       y       z     vdW  Elec       q    Type
                         _______ _______ _______ _____ _____    ______ ____

>  <TORSDO>
F 9

$$$$
=
 OpenBabel11062409583D

 43 48  0  0  1  0  0  0  0  0999 V2000
  161.4070  205.0830  151.7690 N   0  0  0  0  0  0  0  0  0  0  0  0
  160.9710  204.9940  150.5400 C   0  0  0  0  0  0  0  0  0  0  0  0
  161.0020  199.9590  146.2810 C   0  0  0  0  0  0  0  0  0  0  0  0
  161.2140  203.7390  149.7780 C   0  0  0  0  0  0  0  0  0  0  0  0
  161.2890  201.2330  148.3250 C   0  0  0  0  0  0  0  0  0  0  0  0
  160.9180  201.1460  145.5480 C   0  0  0  0  0  3  0  0  0  0  0  0
  160.9100  198.7650  145.6480 F   0  0  0  0  0  0  0  0  0  0  0  0
  161.2090  202.4290  147.5870 C   0  0  0  0  0  0  0  0  0  0  0  0
  161.1970  200.0020  147.6650 C   0  0  0  0  0  3  0  0  0  0  0  0
  161.0220  202.3780  146.1990 C   0  0  0  0  0  3  0  0  0  0  0  0
  161.4190  204.7860  147.6360 O   0  0  0  0  0  0  0  0  0  0  0  0
  161.2880  203.7200  148.2940 C   0  0  0  0  0  0  0  0  0  0  0  0
  161.3130  202.5810  150.4480 C   0  0  0  0  0  3  0  0  0  0  0  0
  161.5940  201.2530  149.7950 C   0  0  0  0  0  2  0  0  0  0  0  0
  161.5180  208.6360  153.3290 C   0  0  0  0  0  2  0  0  0  0  0  0
  161.5680  208.1360  154.7660 C   0  0  2  0  0  3  0  0  0  0  0  0
  160.7330  205.9490  153.8720 C   0  0  0  0  0  3  0  0  0  0  0  0
  161.9510  207.5170  152.3850 C   0  0  0  0  0  2  0  0  0  0  0  0
  161.2790  206.1900  152.6740 C   0  0  0  0  0  0  0  0  0  0  0  0
  160.5460  207.0120  154.9180 C   0  0  0  0  0  2  0  0  0  0  0  0
  161.7870  210.5860  155.1700 C   0  0  0  0  0  1  0  0  0  0  0  0
  161.2430  209.2780  155.7110 C   0  0  0  0  0  2  0  0  0  0  0  0
  160.0990  206.0600  149.9480 C   0  0  0  0  0  2  0  0  0  0  0  0
  161.0860  208.1700  148.9880 C   0  0  0  0  0  0  0  0  0  0  0  0
  161.7370  209.4160  149.2020 N   0  0  0  0  0  0  0  0  0  0  0  0
  160.8230  207.7960  147.8140 O   0  0  0  0  0  0  0  0  0  0  0  0
  162.3350  210.6960  148.7240 C   0  0  2  0  0  3  0  0  0  0  0  0
  160.7430  207.3540  150.1060 N   0  0  0  0  0  2  0  0  0  0  0  0
  162.3290  210.4650  150.0830 C   0  0  0  0  0  2  0  0  0  0  0  0
  161.2160  211.6490  148.3400 C   0  0  0  0  0  2  0  0  0  0  0  0
  161.4390  212.1690  146.9990 N   0  0  0  0  0  0  0  0  0  0  0  0
  161.3320  214.3950  146.1320 C   0  0  0  0  0  2  0  0  0  0  0  0
  162.7490  212.6830  146.9740 N   0  0  0  0  0  2  0  0  0  0  0  0
  160.5430  213.3040  146.8090 C   0  0  1  0  0  3  0  0  0  0  0  0
  162.7290  213.8450  146.0990 C   0  0  0  0  0  2  0  0  0  0  0  0
  159.3360  212.9120  145.9990 C   0  0  0  0  0  0  0  0  0  0  0  0
  157.9190  212.5740  146.7680 S   0  0  0  0  0  0  0  0  0  0  0  0
  159.4270  212.8690  144.5200 C   0  0  0  0  0  0  0  0  0  0  0  0
  158.8590  213.7450  142.3350 C   0  0  0  0  0  3  0  0  0  0  0  0
  160.2740  211.8490  142.4940 C   0  0  0  0  0  3  0  0  0  0  0  0
  159.6100  212.7740  141.7520 N   0  0  0  0  0  0  0  0  0  0  0  0
  160.1950  211.8810  143.8880 C   0  0  0  0  0  3  0  0  0  0  0  0
  158.7530  213.8100  143.7260 C   0  0  0  0  0  3  0  0  0  0  0  0
  1 19  1  0  0  0  0
  2  1  2  0  0  0  0
  3  9  1  0  0  0  0
  4 13  2  0  0  0  0
  4  2  1  0  0  0  0
  5 14  1  0  0  0  0
  6 10  1  0  0  0  0
  6  3  2  0  0  0  0
  7  3  1  0  0  0  0
  8 12  1  0  0  0  0
  8  5  1  0  0  0  0
  9  5  2  0  0  0  0
 10  8  2  0  0  0  0
 11 12  2  0  0  0  0
 12  4  1  0  0  0  0
 14 13  1  0  0  0  0
 15 16  1  0  0  0  0
 16 20  1  0  0  0  0
 16 22  1  1  0  0  0
 17 20  1  0  0  0  0
 18 19  1  0  0  0  0
 18 15  1  0  0  0  0
 19 17  2  0  0  0  0
 21 22  1  0  0  0  0
 23 28  1  0  0  0  0
 23  2  1  0  0  0  0
 24 25  1  0  0  0  0
 24 28  1  0  0  0  0
 25 29  1  0  0  0  0
 26 24  2  0  0  0  0
 27 30  1  1  0  0  0
 27 25  1  0  0  0  0
 27 29  1  0  0  0  0
 31 30  1  0  0  0  0
 32 34  1  0  0  0  0
 33 31  1  0  0  0  0
 34 36  1  6  0  0  0
 34 31  1  0  0  0  0
 35 32  1  0  0  0  0
 35 33  1  0  0  0  0
 36 37  2  0  0  0  0
 38 36  1  0  0  0  0
 39 43  1  0  0  0  0
 40 42  2  0  0  0  0
 41 39  2  0  0  0  0
 41 40  1  0  0  0  0
 42 38  1  0  0  0  0
 43 38  2  0  0  0  0
M  END
>  <MODEL>
8

>  <REMARK>
 VINA RESULT:      -7.2      3.691      7.526
  Name = 
  9 active torsions:
  status: ('A' for Active; 'I' for Inactive)
    1  A    between atoms: N_1  and  C_35
    2  A    between atoms: C_3  and  N_4
    3  A    between atoms: C_3  and  C_12
    4  A    between atoms: C_8  and  C_34
    5  A    between atoms: C_11  and  C_14
    6  A    between atoms: N_13  and  C_38
    7  A    between atoms: C_14  and  C_22
    8  A    between atoms: C_19  and  C_37
    9  A    between atoms: C_34  and  C_38
                            x       y       z     vdW  Elec       q    Type
                         _______ _______ _______ _____ _____    ______ ____

>  <TORSDO>
F 9

$$$$
=
 OpenBabel11062409583D

 43 48  0  0  1  0  0  0  0  0999 V2000
  161.3090  205.1570  151.9460 N   0  0  0  0  0  0  0  0  0  0  0  0
  160.9730  205.1220  150.6820 C   0  0  0  0  0  0  0  0  0  0  0  0
  161.0140  200.1570  146.3420 C   0  0  0  0  0  0  0  0  0  0  0  0
  161.2060  203.8730  149.9090 C   0  0  0  0  0  0  0  0  0  0  0  0
  161.2600  201.3890  148.4170 C   0  0  0  0  0  0  0  0  0  0  0  0
  160.9980  201.3580  145.6270 C   0  0  0  0  0  3  0  0  0  0  0  0
  160.9100  198.9770  145.6860 F   0  0  0  0  0  0  0  0  0  0  0  0
  161.2470  202.5980  147.6980 C   0  0  0  0  0  0  0  0  0  0  0  0
  161.1550  200.1720  147.7340 C   0  0  0  0  0  3  0  0  0  0  0  0
  161.1150  202.5750  146.3030 C   0  0  0  0  0  3  0  0  0  0  0  0
  161.5300  204.9460  147.7960 O   0  0  0  0  0  0  0  0  0  0  0  0
  161.3400  203.8740  148.4290 C   0  0  0  0  0  0  0  0  0  0  0  0
  161.2410  202.7010  150.5630 C   0  0  0  0  0  3  0  0  0  0  0  0
  161.5060  201.3750  149.8990 C   0  0  0  0  0  2  0  0  0  0  0  0
  161.4660  208.6690  153.5930 C   0  0  0  0  0  2  0  0  0  0  0  0
  161.4050  208.1370  155.0180 C   0  0  2  0  0  3  0  0  0  0  0  0
  160.5390  206.0070  154.0220 C   0  0  0  0  0  3  0  0  0  0  0  0
  161.9120  207.5530  152.6510 C   0  0  0  0  0  2  0  0  0  0  0  0
  161.1700  206.2500  152.8670 C   0  0  0  0  0  0  0  0  0  0  0  0
  160.3300  207.0550  155.0790 C   0  0  0  0  0  2  0  0  0  0  0  0
  159.8920  210.0720  155.4430 C   0  0  0  0  0  1  0  0  0  0  0  0
  161.0680  209.2720  155.9680 C   0  0  0  0  0  2  0  0  0  0  0  0
  160.2180  206.2520  150.0500 C   0  0  0  0  0  2  0  0  0  0  0  0
  161.2680  208.4100  149.2830 C   0  0  0  0  0  0  0  0  0  0  0  0
  161.9580  209.6100  149.6070 N   0  0  0  0  0  0  0  0  0  0  0  0
  160.9890  208.1550  148.0820 O   0  0  0  0  0  0  0  0  0  0  0  0
  162.5950  210.9090  149.2470 C   0  0  2  0  0  3  0  0  0  0  0  0
  160.9030  207.5050  150.3230 N   0  0  0  0  0  2  0  0  0  0  0  0
  162.5870  210.5530  150.5780 C   0  0  0  0  0  2  0  0  0  0  0  0
  161.5060  211.9280  148.9600 C   0  0  0  0  0  2  0  0  0  0  0  0
  161.4680  212.2350  147.5370 N   0  0  0  0  0  0  0  0  0  0  0  0
  161.5260  214.3220  146.3710 C   0  0  0  0  0  2  0  0  0  0  0  0
  162.7970  212.4630  147.1350 N   0  0  0  0  0  2  0  0  0  0  0  0
  160.7600  213.5000  147.3760 C   0  0  1  0  0  3  0  0  0  0  0  0
  162.7560  213.4970  146.1120 C   0  0  0  0  0  2  0  0  0  0  0  0
  159.3390  213.2740  146.9330 C   0  0  0  0  0  0  0  0  0  0  0  0
  159.0470  212.5400  145.4870 S   0  0  0  0  0  0  0  0  0  0  0  0
  158.2220  213.6810  147.8180 C   0  0  0  0  0  0  0  0  0  0  0  0
  155.9490  214.4530  148.1450 C   0  0  0  0  0  3  0  0  0  0  0  0
  157.3260  214.0620  150.0360 C   0  0  0  0  0  3  0  0  0  0  0  0
  156.1390  214.4400  149.4910 N   0  0  0  0  0  0  0  0  0  0  0  0
  158.3850  213.6770  149.2110 C   0  0  0  0  0  3  0  0  0  0  0  0
  156.9840  214.0760  147.2870 C   0  0  0  0  0  3  0  0  0  0  0  0
  1 19  1  0  0  0  0
  2  1  2  0  0  0  0
  3  9  1  0  0  0  0
  4 13  2  0  0  0  0
  4  2  1  0  0  0  0
  5 14  1  0  0  0  0
  6 10  1  0  0  0  0
  6  3  2  0  0  0  0
  7  3  1  0  0  0  0
  8  5  1  0  0  0  0
  8 12  1  0  0  0  0
  9  5  2  0  0  0  0
 10  8  2  0  0  0  0
 11 12  2  0  0  0  0
 12  4  1  0  0  0  0
 14 13  1  0  0  0  0
 15 16  1  0  0  0  0
 16 20  1  0  0  0  0
 16 22  1  1  0  0  0
 17 20  1  0  0  0  0
 18 19  1  0  0  0  0
 18 15  1  0  0  0  0
 19 17  2  0  0  0  0
 21 22  1  0  0  0  0
 23 28  1  0  0  0  0
 23  2  1  0  0  0  0
 24 25  1  0  0  0  0
 24 28  1  0  0  0  0
 25 29  1  0  0  0  0
 26 24  2  0  0  0  0
 27 30  1  1  0  0  0
 27 25  1  0  0  0  0
 27 29  1  0  0  0  0
 31 30  1  0  0  0  0
 32 34  1  0  0  0  0
 33 31  1  0  0  0  0
 34 36  1  6  0  0  0
 34 31  1  0  0  0  0
 35 32  1  0  0  0  0
 35 33  1  0  0  0  0
 36 38  1  0  0  0  0
 37 36  2  0  0  0  0
 38 42  1  0  0  0  0
 39 41  2  0  0  0  0
 41 40  1  0  0  0  0
 42 40  2  0  0  0  0
 43 38  2  0  0  0  0
 43 39  1  0  0  0  0
M  END
>  <MODEL>
9

>  <REMARK>
 VINA RESULT:      -7.2      4.045      8.108
  Name = 
  9 active torsions:
  status: ('A' for Active; 'I' for Inactive)
    1  A    between atoms: N_1  and  C_35
    2  A    between atoms: C_3  and  N_4
    3  A    between atoms: C_3  and  C_12
    4  A    between atoms: C_8  and  C_34
    5  A    between atoms: C_11  and  C_14
    6  A    between atoms: N_13  and  C_38
    7  A    between atoms: C_14  and  C_22
    8  A    between atoms: C_19  and  C_37
    9  A    between atoms: C_34  and  C_38
                            x       y       z     vdW  Elec       q    Type
                         _______ _______ _______ _____ _____    ______ ____

>  <TORSDO>
F 9

$$$$
