=
 OpenBabel11052422183D

 25 28  0  0  1  0  0  0  0  0999 V2000
  161.2440  203.8850  147.5100 N   0  0  0  0  0  0  0  0  0  0  0  0
  161.1580  203.4280  148.8670 C   0  0  0  0  0  0  0  0  0  0  0  0
  161.0550  201.6490  146.6390 C   0  0  0  0  0  3  0  0  0  0  0  0
  161.4210  205.2350  146.9740 C   0  0  0  0  0  0  0  0  0  0  0  0
  160.8150  205.8850  144.4490 C   0  0  0  0  0  2  0  0  0  0  0  0
  160.9350  201.1460  148.0310 C   0  0  0  0  0  3  0  0  0  0  0  0
  161.4510  204.9520  145.4540 C   0  0  0  0  0  0  0  0  0  0  0  0
  162.3350  205.7300  144.5050 C   0  0  0  0  0  2  0  0  0  0  0  0
  160.8150  201.4420  150.4870 C   0  0  2  0  0  3  0  0  0  0  0  0
  159.4830  200.8860  150.6540 N   0  0  0  0  0  1  0  0  0  0  0  0
  161.2730  204.2550  149.9030 C   0  0  0  0  0  3  0  0  0  0  0  0
  160.2470  206.1190  147.3720 C   0  0  0  0  0  1  0  0  0  0  0  0
  161.1970  202.9600  146.4330 C   0  0  0  0  0  0  0  0  0  0  0  0
  161.3170  203.5640  145.1970 O   0  0  0  0  0  0  0  0  0  0  0  0
  161.0420  202.4690  151.5140 N   0  0  0  0  0  0  0  0  0  0  0  0
  162.7300  205.8350  147.4680 C   0  0  0  0  0  1  0  0  0  0  0  0
  161.2290  203.7380  151.2800 C   0  0  0  0  0  0  0  0  0  0  0  0
  160.9760  201.9760  149.0880 C   0  0  0  0  0  0  0  0  0  0  0  0
  161.4060  204.6370  152.3340 O   0  0  0  0  0  0  0  0  0  0  0  0
  162.1210  205.8540  152.1790 C   0  0  0  0  0  2  0  0  0  0  0  0
  161.2670  206.9930  152.6180 C   0  0  0  0  0  0  0  0  0  0  0  0
  160.8380  207.0230  153.8030 O   0  0  0  0  0  0  0  0  0  0  0  0
  160.9580  208.0920  151.6950 C   0  0  0  0  0  0  0  0  0  0  0  0
  161.1900  207.9470  150.3320 O   0  0  0  0  0  0  0  0  0  0  0  0
  160.4810  209.1720  152.1310 O   0  0  0  0  0  1  0  0  0  0  0  0
  1  2  1  0  0  0  0
  2 18  1  0  0  0  0
  2 11  2  0  0  0  0
  3  6  1  0  0  0  0
  4 12  1  0  0  0  0
  4 16  1  0  0  0  0
  4  1  1  0  0  0  0
  5  8  1  0  0  0  0
  5  7  1  0  0  0  0
  6 18  2  0  0  0  0
  7  4  1  0  0  0  0
  8  7  1  0  0  0  0
  9 10  1  6  0  0  0
  9 15  1  0  0  0  0
 11 17  1  0  0  0  0
 13  3  2  0  0  0  0
 13  1  1  0  0  0  0
 14  7  1  0  0  0  0
 14 13  1  0  0  0  0
 17 15  2  0  0  0  0
 17 19  1  0  0  0  0
 18  9  1  0  0  0  0
 20 19  1  0  0  0  0
 20 21  1  0  0  0  0
 21 22  2  0  0  0  0
 23 25  1  0  0  0  0
 23 21  1  0  0  0  0
 24 23  2  0  0  0  0
M  END
>  <MODEL>
1

>  <REMARK>
 VINA RESULT:      -7.5      0.000      0.000
  Name = 
  4 active torsions:
  status: ('A' for Active; 'I' for Inactive)
    1  A    between atoms: C_2  and  C_21
    2  A    between atoms: O_6  and  C_15
    3  A    between atoms: O_6  and  C_23
    4  A    between atoms: C_15  and  C_21
                            x       y       z     vdW  Elec       q    Type
                         _______ _______ _______ _____ _____    ______ ____

>  <TORSDO>
F 4

$$$$
=
 OpenBabel11052422183D

 25 28  0  0  1  0  0  0  0  0999 V2000
  161.2910  204.3310  148.2540 N   0  0  0  0  0  0  0  0  0  0  0  0
  161.3180  204.5490  149.6720 C   0  0  0  0  0  0  0  0  0  0  0  0
  161.1340  201.9440  148.5230 C   0  0  0  0  0  3  0  0  0  0  0  0
  161.3740  205.2840  147.1460 C   0  0  0  0  0  0  0  0  0  0  0  0
  160.5660  204.6960  144.6630 C   0  0  0  0  0  2  0  0  0  0  0  0
  161.1320  202.1370  149.9950 C   0  0  0  0  0  3  0  0  0  0  0  0
  161.3090  204.3330  145.9280 C   0  0  0  0  0  0  0  0  0  0  0  0
  162.0920  204.5920  144.6600 C   0  0  0  0  0  2  0  0  0  0  0  0
  161.1720  203.5290  152.0430 C   0  0  2  0  0  3  0  0  0  0  0  0
  159.8790  203.1060  152.5530 N   0  0  0  0  0  1  0  0  0  0  0  0
  161.4710  205.7600  150.2000 C   0  0  0  0  0  3  0  0  0  0  0  0
  160.1950  206.2460  147.1890 C   0  0  0  0  0  1  0  0  0  0  0  0
  161.2070  203.0140  147.7280 C   0  0  0  0  0  0  0  0  0  0  0  0
  161.2150  202.9820  146.3470 O   0  0  0  0  0  0  0  0  0  0  0  0
  161.4270  204.9140  152.4630 N   0  0  0  0  0  0  0  0  0  0  0  0
  162.6880  206.0500  147.2030 C   0  0  0  0  0  1  0  0  0  0  0  0
  161.5450  205.9340  151.6590 C   0  0  0  0  0  0  0  0  0  0  0  0
  161.2120  203.3610  150.5470 C   0  0  0  0  0  0  0  0  0  0  0  0
  161.7580  207.2180  152.1660 O   0  0  0  0  0  0  0  0  0  0  0  0
  160.9920  208.3370  151.7440 C   0  0  0  0  0  2  0  0  0  0  0  0
  161.9040  209.4400  151.3320 C   0  0  0  0  0  0  0  0  0  0  0  0
  162.5990  210.0250  152.2050 O   0  0  0  0  0  0  0  0  0  0  0  0
  162.0230  209.8200  149.9190 C   0  0  0  0  0  0  0  0  0  0  0  0
  162.0620  211.1600  149.5550 O   0  0  0  0  0  1  0  0  0  0  0  0
  162.0910  208.9330  149.0280 O   0  0  0  0  0  0  0  0  0  0  0  0
  1  2  1  0  0  0  0
  2 11  2  0  0  0  0
  2 18  1  0  0  0  0
  3  6  1  0  0  0  0
  4 12  1  0  0  0  0
  4 16  1  0  0  0  0
  4  1  1  0  0  0  0
  5  7  1  0  0  0  0
  6 18  2  0  0  0  0
  7 14  1  0  0  0  0
  7  4  1  0  0  0  0
  8  5  1  0  0  0  0
  8  7  1  0  0  0  0
  9 15  1  0  0  0  0
  9 10  1  6  0  0  0
 11 17  1  0  0  0  0
 13  1  1  0  0  0  0
 13  3  2  0  0  0  0
 14 13  1  0  0  0  0
 17 19  1  0  0  0  0
 17 15  2  0  0  0  0
 18  9  1  0  0  0  0
 20 19  1  0  0  0  0
 21 20  1  0  0  0  0
 21 22  2  0  0  0  0
 23 21  1  0  0  0  0
 24 23  1  0  0  0  0
 25 23  2  0  0  0  0
M  END
>  <MODEL>
2

>  <REMARK>
 VINA RESULT:      -7.4      1.510      2.199
  Name = 
  4 active torsions:
  status: ('A' for Active; 'I' for Inactive)
    1  A    between atoms: C_2  and  C_21
    2  A    between atoms: O_6  and  C_15
    3  A    between atoms: O_6  and  C_23
    4  A    between atoms: C_15  and  C_21
                            x       y       z     vdW  Elec       q    Type
                         _______ _______ _______ _____ _____    ______ ____

>  <TORSDO>
F 4

$$$$
=
 OpenBabel11052422183D

 25 28  0  0  1  0  0  0  0  0999 V2000
  161.3000  204.4270  148.2750 N   0  0  0  0  0  0  0  0  0  0  0  0
  161.3500  204.6600  149.6900 C   0  0  0  0  0  0  0  0  0  0  0  0
  161.1210  202.0460  148.5730 C   0  0  0  0  0  3  0  0  0  0  0  0
  161.3780  205.3670  147.1560 C   0  0  0  0  0  0  0  0  0  0  0  0
  160.5290  204.7610  144.6910 C   0  0  0  0  0  2  0  0  0  0  0  0
  161.1420  202.2540  150.0420 C   0  0  0  0  0  3  0  0  0  0  0  0
  161.2860  204.4040  145.9490 C   0  0  0  0  0  0  0  0  0  0  0  0
  162.0540  204.6400  144.6680 C   0  0  0  0  0  2  0  0  0  0  0  0
  161.2250  203.6680  152.0740 C   0  0  2  0  0  3  0  0  0  0  0  0
  159.9360  203.2650  152.6070 N   0  0  0  0  0  1  0  0  0  0  0  0
  161.5230  205.8760  150.2030 C   0  0  0  0  0  3  0  0  0  0  0  0
  160.2110  206.3430  147.2040 C   0  0  0  0  0  1  0  0  0  0  0  0
  161.1940  203.1050  147.7650 C   0  0  0  0  0  0  0  0  0  0  0  0
  161.1820  203.0580  146.3850 O   0  0  0  0  0  0  0  0  0  0  0  0
  161.5020  205.0550  152.4750 N   0  0  0  0  0  0  0  0  0  0  0  0
  162.7010  206.1190  147.1860 C   0  0  0  0  0  1  0  0  0  0  0  0
  161.6190  206.0650  151.6580 C   0  0  0  0  0  0  0  0  0  0  0  0
  161.2430  203.4830  150.5800 C   0  0  0  0  0  0  0  0  0  0  0  0
  161.8540  207.3520  152.1480 O   0  0  0  0  0  0  0  0  0  0  0  0
  160.8020  208.1990  152.5850 C   0  0  0  0  0  2  0  0  0  0  0  0
  161.1440  208.7740  153.9160 C   0  0  0  0  0  0  0  0  0  0  0  0
  161.4560  209.9920  154.0010 O   0  0  0  0  0  0  0  0  0  0  0  0
  161.0830  207.9430  155.1250 C   0  0  0  0  0  0  0  0  0  0  0  0
  161.8240  208.2850  156.2490 O   0  0  0  0  0  1  0  0  0  0  0  0
  160.3580  206.9140  155.1500 O   0  0  0  0  0  0  0  0  0  0  0  0
  1  2  1  0  0  0  0
  2 11  2  0  0  0  0
  2 18  1  0  0  0  0
  3  6  1  0  0  0  0
  4 16  1  0  0  0  0
  4 12  1  0  0  0  0
  4  1  1  0  0  0  0
  5  7  1  0  0  0  0
  6 18  2  0  0  0  0
  7 14  1  0  0  0  0
  7  4  1  0  0  0  0
  8  5  1  0  0  0  0
  8  7  1  0  0  0  0
  9 15  1  0  0  0  0
  9 10  1  6  0  0  0
 11 17  1  0  0  0  0
 13  1  1  0  0  0  0
 13  3  2  0  0  0  0
 14 13  1  0  0  0  0
 17 19  1  0  0  0  0
 17 15  2  0  0  0  0
 18  9  1  0  0  0  0
 19 20  1  0  0  0  0
 20 21  1  0  0  0  0
 21 22  2  0  0  0  0
 21 23  1  0  0  0  0
 23 25  2  0  0  0  0
 23 24  1  0  0  0  0
M  END
>  <MODEL>
3

>  <REMARK>
 VINA RESULT:      -7.2      1.505      2.435
  Name = 
  4 active torsions:
  status: ('A' for Active; 'I' for Inactive)
    1  A    between atoms: C_2  and  C_21
    2  A    between atoms: O_6  and  C_15
    3  A    between atoms: O_6  and  C_23
    4  A    between atoms: C_15  and  C_21
                            x       y       z     vdW  Elec       q    Type
                         _______ _______ _______ _____ _____    ______ ____

>  <TORSDO>
F 4

$$$$
=
 OpenBabel11052422183D

 25 28  0  0  1  0  0  0  0  0999 V2000
  160.9900  204.7880  150.4370 N   0  0  0  0  0  0  0  0  0  0  0  0
  161.0850  206.0050  151.1920 C   0  0  0  0  0  0  0  0  0  0  0  0
  160.8380  205.9770  148.3500 C   0  0  0  0  0  3  0  0  0  0  0  0
  160.9660  203.3950  150.8850 C   0  0  0  0  0  0  0  0  0  0  0  0
  161.5220  201.3400  149.2620 C   0  0  0  0  0  2  0  0  0  0  0  0
  160.9620  207.2530  149.0980 C   0  0  0  0  0  3  0  0  0  0  0  0
  160.8210  202.6500  149.5370 C   0  0  0  0  0  0  0  0  0  0  0  0
  160.0000  201.3890  149.3960 C   0  0  0  0  0  2  0  0  0  0  0  0
  161.2450  208.5860  151.1670 C   0  0  2  0  0  3  0  0  0  0  0  0
  162.4990  209.2130  150.7860 N   0  0  0  0  0  1  0  0  0  0  0  0
  161.1330  206.0130  152.5210 C   0  0  0  0  0  3  0  0  0  0  0  0
  162.2640  203.0470  151.5980 C   0  0  0  0  0  1  0  0  0  0  0  0
  160.8600  204.8250  149.0230 C   0  0  0  0  0  0  0  0  0  0  0  0
  160.7580  203.5690  148.4580 O   0  0  0  0  0  0  0  0  0  0  0  0
  161.2080  208.4260  152.6270 N   0  0  0  0  0  0  0  0  0  0  0  0
  159.7740  203.1520  151.8010 C   0  0  0  0  0  1  0  0  0  0  0  0
  161.1780  207.2850  153.2590 C   0  0  0  0  0  0  0  0  0  0  0  0
  161.0850  207.2780  150.4370 C   0  0  0  0  0  0  0  0  0  0  0  0
  161.1750  207.2460  154.6550 O   0  0  0  0  0  0  0  0  0  0  0  0
  160.6070  208.2840  155.4410 C   0  0  0  0  0  2  0  0  0  0  0  0
  161.6920  209.0430  156.1230 C   0  0  0  0  0  0  0  0  0  0  0  0
  162.2660  208.5360  157.1230 O   0  0  0  0  0  0  0  0  0  0  0  0
  162.1160  210.3540  155.6160 C   0  0  0  0  0  0  0  0  0  0  0  0
  161.2570  211.1120  154.8290 O   0  0  0  0  0  0  0  0  0  0  0  0
  163.2610  210.8000  155.8900 O   0  0  0  0  0  1  0  0  0  0  0  0
  1  4  1  0  0  0  0
  1  2  1  0  0  0  0
  2 11  2  0  0  0  0
  3 13  2  0  0  0  0
  3  6  1  0  0  0  0
  4 12  1  0  0  0  0
  4 16  1  0  0  0  0
  5  8  1  0  0  0  0
  5  7  1  0  0  0  0
  6 18  2  0  0  0  0
  7  4  1  0  0  0  0
  8  7  1  0  0  0  0
  9 10  1  1  0  0  0
  9 15  1  0  0  0  0
 11 17  1  0  0  0  0
 13  1  1  0  0  0  0
 14 13  1  0  0  0  0
 14  7  1  0  0  0  0
 15 17  2  0  0  0  0
 17 19  1  0  0  0  0
 18  9  1  0  0  0  0
 18  2  1  0  0  0  0
 19 20  1  0  0  0  0
 20 21  1  0  0  0  0
 21 22  2  0  0  0  0
 23 25  1  0  0  0  0
 23 21  1  0  0  0  0
 24 23  2  0  0  0  0
M  END
>  <MODEL>
4

>  <REMARK>
 VINA RESULT:      -7.2      2.942      5.160
  Name = 
  4 active torsions:
  status: ('A' for Active; 'I' for Inactive)
    1  A    between atoms: C_2  and  C_21
    2  A    between atoms: O_6  and  C_15
    3  A    between atoms: O_6  and  C_23
    4  A    between atoms: C_15  and  C_21
                            x       y       z     vdW  Elec       q    Type
                         _______ _______ _______ _____ _____    ______ ____

>  <TORSDO>
F 4

$$$$
=
 OpenBabel11052422183D

 25 28  0  0  1  0  0  0  0  0999 V2000
  161.4340  205.5500  148.1930 N   0  0  0  0  0  0  0  0  0  0  0  0
  161.6270  206.7580  148.9430 C   0  0  0  0  0  0  0  0  0  0  0  0
  161.2610  204.2210  150.1920 C   0  0  0  0  0  3  0  0  0  0  0  0
  161.4080  205.3250  146.7480 C   0  0  0  0  0  0  0  0  0  0  0  0
  160.3110  203.1510  145.6370 C   0  0  0  0  0  2  0  0  0  0  0  0
  161.4320  205.4560  150.9970 C   0  0  0  0  0  3  0  0  0  0  0  0
  161.1860  203.7960  146.6870 C   0  0  0  0  0  0  0  0  0  0  0  0
  161.8240  202.9290  145.6240 C   0  0  0  0  0  2  0  0  0  0  0  0
  161.7330  207.9000  151.2600 C   0  0  2  0  0  3  0  0  0  0  0  0
  160.4990  208.1400  151.9880 N   0  0  0  0  0  1  0  0  0  0  0  0
  161.8630  207.9280  148.3540 C   0  0  0  0  0  3  0  0  0  0  0  0
  160.2620  206.0990  146.1130 C   0  0  0  0  0  1  0  0  0  0  0  0
  161.2640  204.3080  148.8610 C   0  0  0  0  0  0  0  0  0  0  0  0
  161.1140  203.2450  147.9920 O   0  0  0  0  0  0  0  0  0  0  0  0
  162.0620  209.0900  150.4630 N   0  0  0  0  0  0  0  0  0  0  0  0
  162.7350  205.7340  146.1230 C   0  0  0  0  0  1  0  0  0  0  0  0
  162.1070  209.1340  149.1600 C   0  0  0  0  0  0  0  0  0  0  0  0
  161.5990  206.6590  150.4190 C   0  0  0  0  0  0  0  0  0  0  0  0
  162.4020  210.3280  148.4990 O   0  0  0  0  0  0  0  0  0  0  0  0
  161.9400  211.5870  148.9660 C   0  0  0  0  0  2  0  0  0  0  0  0
  162.1700  212.6230  147.9200 C   0  0  0  0  0  0  0  0  0  0  0  0
  163.2430  213.2820  147.9280 O   0  0  0  0  0  0  0  0  0  0  0  0
  161.1730  212.8510  146.8660 C   0  0  0  0  0  0  0  0  0  0  0  0
  161.2890  213.9450  146.0170 O   0  0  0  0  0  0  0  0  0  0  0  0
  160.2070  212.0570  146.7250 O   0  0  0  0  0  1  0  0  0  0  0  0
  1 13  1  0  0  0  0
  1  2  1  0  0  0  0
  2 18  1  0  0  0  0
  3  6  1  0  0  0  0
  4  1  1  0  0  0  0
  5  7  1  0  0  0  0
  7  4  1  0  0  0  0
  7 14  1  0  0  0  0
  8  5  1  0  0  0  0
  8  7  1  0  0  0  0
  9 10  1  6  0  0  0
 11  2  2  0  0  0  0
 11 17  1  0  0  0  0
 12  4  1  0  0  0  0
 13  3  2  0  0  0  0
 14 13  1  0  0  0  0
 15  9  1  0  0  0  0
 16  4  1  0  0  0  0
 17 15  2  0  0  0  0
 18  6  2  0  0  0  0
 18  9  1  0  0  0  0
 19 20  1  0  0  0  0
 19 17  1  0  0  0  0
 21 22  2  0  0  0  0
 21 20  1  0  0  0  0
 23 21  1  0  0  0  0
 24 23  2  0  0  0  0
 25 23  1  0  0  0  0
M  END
>  <MODEL>
5

>  <REMARK>
 VINA RESULT:      -7.1      3.748      5.234
  Name = 
  4 active torsions:
  status: ('A' for Active; 'I' for Inactive)
    1  A    between atoms: C_2  and  C_21
    2  A    between atoms: O_6  and  C_15
    3  A    between atoms: O_6  and  C_23
    4  A    between atoms: C_15  and  C_21
                            x       y       z     vdW  Elec       q    Type
                         _______ _______ _______ _____ _____    ______ ____

>  <TORSDO>
F 4

$$$$
=
 OpenBabel11052422183D

 25 28  0  0  1  0  0  0  0  0999 V2000
  161.1610  208.0880  153.0450 N   0  0  0  0  0  0  0  0  0  0  0  0
  161.0790  207.1920  151.9270 C   0  0  0  0  0  0  0  0  0  0  0  0
  160.8910  206.2960  154.6280 C   0  0  0  0  0  3  0  0  0  0  0  0
  161.3130  209.5430  153.0840 C   0  0  0  0  0  0  0  0  0  0  0  0
  162.1680  210.8530  155.2560 C   0  0  0  0  0  2  0  0  0  0  0  0
  160.8310  205.3380  153.4950 C   0  0  0  0  0  3  0  0  0  0  0  0
  161.2940  209.8040  154.6080 C   0  0  0  0  0  0  0  0  0  0  0  0
  160.6500  211.0340  155.2080 C   0  0  0  0  0  2  0  0  0  0  0  0
  160.8960  204.7520  151.0900 C   0  0  2  0  0  3  0  0  0  0  0  0
  162.0620  203.8890  151.1630 N   0  0  0  0  0  1  0  0  0  0  0  0
  161.1010  207.6240  150.6680 C   0  0  0  0  0  3  0  0  0  0  0  0
  162.6330  209.9530  152.4470 C   0  0  0  0  0  1  0  0  0  0  0  0
  161.0530  207.5950  154.3730 C   0  0  0  0  0  0  0  0  0  0  0  0
  161.1290  208.5920  155.3260 O   0  0  0  0  0  0  0  0  0  0  0  0
  160.8530  205.3950  149.7690 N   0  0  0  0  0  0  0  0  0  0  0  0
  160.1480  210.2180  152.3750 C   0  0  0  0  0  1  0  0  0  0  0  0
  160.9630  206.6770  149.5510 C   0  0  0  0  0  0  0  0  0  0  0  0
  160.9240  205.7490  152.2180 C   0  0  0  0  0  0  0  0  0  0  0  0
  160.9390  207.1820  148.2490 O   0  0  0  0  0  0  0  0  0  0  0  0
  161.9600  206.8910  147.3050 C   0  0  0  0  0  2  0  0  0  0  0  0
  161.4400  205.9360  146.2870 C   0  0  0  0  0  0  0  0  0  0  0  0
  160.3700  206.2030  145.6780 O   0  0  0  0  0  0  0  0  0  0  0  0
  162.1850  204.7120  145.9650 C   0  0  0  0  0  0  0  0  0  0  0  0
  161.5060  203.5550  145.6020 O   0  0  0  0  0  0  0  0  0  0  0  0
  163.4420  204.7030  146.0160 O   0  0  0  0  0  1  0  0  0  0  0  0
  1  4  1  0  0  0  0
  1 13  1  0  0  0  0
  2 18  1  0  0  0  0
  2  1  1  0  0  0  0
  4  7  1  0  0  0  0
  6  3  1  0  0  0  0
  7  8  1  0  0  0  0
  7  5  1  0  0  0  0
  7 14  1  0  0  0  0
  8  5  1  0  0  0  0
  9 10  1  6  0  0  0
  9 18  1  0  0  0  0
 11  2  2  0  0  0  0
 12  4  1  0  0  0  0
 13  3  2  0  0  0  0
 13 14  1  0  0  0  0
 15  9  1  0  0  0  0
 16  4  1  0  0  0  0
 17 15  2  0  0  0  0
 17 11  1  0  0  0  0
 18  6  2  0  0  0  0
 19 17  1  0  0  0  0
 20 19  1  0  0  0  0
 21 20  1  0  0  0  0
 22 21  2  0  0  0  0
 23 25  1  0  0  0  0
 23 21  1  0  0  0  0
 24 23  2  0  0  0  0
M  END
>  <MODEL>
6

>  <REMARK>
 VINA RESULT:      -7.1      2.575      7.381
  Name = 
  4 active torsions:
  status: ('A' for Active; 'I' for Inactive)
    1  A    between atoms: C_2  and  C_21
    2  A    between atoms: O_6  and  C_15
    3  A    between atoms: O_6  and  C_23
    4  A    between atoms: C_15  and  C_21
                            x       y       z     vdW  Elec       q    Type
                         _______ _______ _______ _____ _____    ______ ____

>  <TORSDO>
F 4

$$$$
=
 OpenBabel11052422183D

 25 28  0  0  1  0  0  0  0  0999 V2000
  161.3940  205.7030  150.1460 N   0  0  0  0  0  0  0  0  0  0  0  0
  161.3150  206.6340  151.2350 C   0  0  0  0  0  0  0  0  0  0  0  0
  161.5840  203.8220  151.6350 C   0  0  0  0  0  3  0  0  0  0  0  0
  161.3900  205.9330  148.7000 C   0  0  0  0  0  0  0  0  0  0  0  0
  160.8090  204.0140  146.9280 C   0  0  0  0  0  2  0  0  0  0  0  0
  161.4770  204.7550  152.7850 C   0  0  0  0  0  3  0  0  0  0  0  0
  161.5320  204.4880  148.1670 C   0  0  0  0  0  0  0  0  0  0  0  0
  162.3320  204.1610  146.9260 C   0  0  0  0  0  2  0  0  0  0  0  0
  161.2020  207.0010  153.7920 C   0  0  2  0  0  3  0  0  0  0  0  0
  159.9630  206.7140  154.4940 N   0  0  0  0  0  1  0  0  0  0  0  0
  161.2570  207.9490  151.0420 C   0  0  0  0  0  3  0  0  0  0  0  0
  160.0800  206.5790  148.2720 C   0  0  0  0  0  1  0  0  0  0  0  0
  161.5360  204.3120  150.3950 C   0  0  0  0  0  0  0  0  0  0  0  0
  161.6200  203.5620  149.2380 O   0  0  0  0  0  0  0  0  0  0  0  0
  161.2250  208.4210  153.4110 N   0  0  0  0  0  0  0  0  0  0  0  0
  162.5700  206.8080  148.2990 C   0  0  0  0  0  1  0  0  0  0  0  0
  161.2280  208.8710  152.1870 C   0  0  0  0  0  0  0  0  0  0  0  0
  161.3440  206.0820  152.6080 C   0  0  0  0  0  0  0  0  0  0  0  0
  161.2200  210.2450  151.9360 O   0  0  0  0  0  0  0  0  0  0  0  0
  160.8380  211.1930  152.9220 C   0  0  0  0  0  2  0  0  0  0  0  0
  159.4850  211.7270  152.6020 C   0  0  0  0  0  0  0  0  0  0  0  0
  158.4640  211.1030  152.9980 O   0  0  0  0  0  0  0  0  0  0  0  0
  159.3370  212.9890  151.8640 C   0  0  0  0  0  0  0  0  0  0  0  0
  158.3930  213.9270  152.2640 O   0  0  0  0  0  1  0  0  0  0  0  0
  160.0640  213.2280  150.8650 O   0  0  0  0  0  0  0  0  0  0  0  0
  1 13  1  0  0  0  0
  1  2  1  0  0  0  0
  2 18  1  0  0  0  0
  3  6  1  0  0  0  0
  4  1  1  0  0  0  0
  5  7  1  0  0  0  0
  7  4  1  0  0  0  0
  7 14  1  0  0  0  0
  8  5  1  0  0  0  0
  8  7  1  0  0  0  0
  9 10  1  6  0  0  0
 11  2  2  0  0  0  0
 11 17  1  0  0  0  0
 12  4  1  0  0  0  0
 13  3  2  0  0  0  0
 14 13  1  0  0  0  0
 15  9  1  0  0  0  0
 16  4  1  0  0  0  0
 17 15  2  0  0  0  0
 18  6  2  0  0  0  0
 18  9  1  0  0  0  0
 19 17  1  0  0  0  0
 19 20  1  0  0  0  0
 21 20  1  0  0  0  0
 21 22  2  0  0  0  0
 23 24  1  0  0  0  0
 23 21  1  0  0  0  0
 25 23  2  0  0  0  0
M  END
>  <MODEL>
7

>  <REMARK>
 VINA RESULT:      -6.3      2.946      4.743
  Name = 
  4 active torsions:
  status: ('A' for Active; 'I' for Inactive)
    1  A    between atoms: C_2  and  C_21
    2  A    between atoms: O_6  and  C_15
    3  A    between atoms: O_6  and  C_23
    4  A    between atoms: C_15  and  C_21
                            x       y       z     vdW  Elec       q    Type
                         _______ _______ _______ _____ _____    ______ ____

>  <TORSDO>
F 4

$$$$
=
 OpenBabel11052422183D

 25 28  0  0  1  0  0  0  0  0999 V2000
  161.1130  204.6630  149.4580 N   0  0  0  0  0  0  0  0  0  0  0  0
  161.2500  206.0670  149.7190 C   0  0  0  0  0  0  0  0  0  0  0  0
  161.3530  204.9790  147.0850 C   0  0  0  0  0  3  0  0  0  0  0  0
  160.8780  203.5470  150.3750 C   0  0  0  0  0  0  0  0  0  0  0  0
  161.3960  201.0020  149.7270 C   0  0  0  0  0  2  0  0  0  0  0  0
  161.5270  206.4340  147.3220 C   0  0  0  0  0  3  0  0  0  0  0  0
  160.8170  202.3570  149.3890 C   0  0  0  0  0  0  0  0  0  0  0  0
  159.8830  201.1860  149.5940 C   0  0  0  0  0  2  0  0  0  0  0  0
  161.7010  208.4320  148.7750 C   0  0  2  0  0  3  0  0  0  0  0  0
  163.0550  208.7950  148.3920 N   0  0  0  0  0  1  0  0  0  0  0  0
  161.1350  206.5760  150.9430 C   0  0  0  0  0  3  0  0  0  0  0  0
  162.0320  203.4200  151.3600 C   0  0  0  0  0  1  0  0  0  0  0  0
  161.1630  204.1690  148.1270 C   0  0  0  0  0  0  0  0  0  0  0  0
  160.9910  202.8000  148.0530 O   0  0  0  0  0  0  0  0  0  0  0  0
  161.4670  208.8400  150.1680 N   0  0  0  0  0  0  0  0  0  0  0  0
  159.5630  203.7390  151.1190 C   0  0  0  0  0  1  0  0  0  0  0  0
  161.2320  208.0270  151.1610 C   0  0  0  0  0  0  0  0  0  0  0  0
  161.4860  206.9570  148.5610 C   0  0  0  0  0  0  0  0  0  0  0  0
  161.0530  208.5200  152.4550 O   0  0  0  0  0  0  0  0  0  0  0  0
  161.0570  207.6730  153.5950 C   0  0  0  0  0  2  0  0  0  0  0  0
  160.8290  208.4860  154.8220 C   0  0  0  0  0  0  0  0  0  0  0  0
  160.4720  209.6890  154.7080 O   0  0  0  0  0  0  0  0  0  0  0  0
  160.9810  207.8860  156.1530 C   0  0  0  0  0  0  0  0  0  0  0  0
  160.0080  207.0270  156.6500 O   0  0  0  0  0  0  0  0  0  0  0  0
  161.9950  208.1450  156.8540 O   0  0  0  0  0  1  0  0  0  0  0  0
  1  2  1  0  0  0  0
  1  4  1  0  0  0  0
  2 11  2  0  0  0  0
  3  6  1  0  0  0  0
  3 13  2  0  0  0  0
  4 16  1  0  0  0  0
  4 12  1  0  0  0  0
  6 18  2  0  0  0  0
  7  8  1  0  0  0  0
  7  5  1  0  0  0  0
  7  4  1  0  0  0  0
  8  5  1  0  0  0  0
  9 10  1  1  0  0  0
  9 15  1  0  0  0  0
 11 17  1  0  0  0  0
 13  1  1  0  0  0  0
 14 13  1  0  0  0  0
 14  7  1  0  0  0  0
 15 17  2  0  0  0  0
 17 19  1  0  0  0  0
 18  9  1  0  0  0  0
 18  2  1  0  0  0  0
 19 20  1  0  0  0  0
 20 21  1  0  0  0  0
 21 23  1  0  0  0  0
 22 21  2  0  0  0  0
 23 24  2  0  0  0  0
 23 25  1  0  0  0  0
M  END
>  <MODEL>
8

>  <REMARK>
 VINA RESULT:      -6.3      2.477      4.948
  Name = 
  4 active torsions:
  status: ('A' for Active; 'I' for Inactive)
    1  A    between atoms: C_2  and  C_21
    2  A    between atoms: O_6  and  C_15
    3  A    between atoms: O_6  and  C_23
    4  A    between atoms: C_15  and  C_21
                            x       y       z     vdW  Elec       q    Type
                         _______ _______ _______ _____ _____    ______ ____

>  <TORSDO>
F 4

$$$$
=
 OpenBabel11052422183D

 25 28  0  0  1  0  0  0  0  0999 V2000
  161.2630  208.6630  152.7010 N   0  0  0  0  0  0  0  0  0  0  0  0
  161.5010  208.9970  151.3250 C   0  0  0  0  0  0  0  0  0  0  0  0
  160.9500  206.3330  152.1840 C   0  0  0  0  0  3  0  0  0  0  0  0
  161.2150  209.5150  153.8890 C   0  0  0  0  0  0  0  0  0  0  0  0
  161.4880  208.5580  156.3740 C   0  0  0  0  0  2  0  0  0  0  0  0
  161.2190  206.6400  150.7560 C   0  0  0  0  0  3  0  0  0  0  0  0
  160.8890  208.4780  154.9890 C   0  0  0  0  0  0  0  0  0  0  0  0
  159.9930  208.8020  156.1630 C   0  0  0  0  0  2  0  0  0  0  0  0
  161.7910  208.1690  148.8930 C   0  0  2  0  0  3  0  0  0  0  0  0
  163.0270  207.5080  148.5130 N   0  0  0  0  0  1  0  0  0  0  0  0
  161.6910  210.2510  150.9230 C   0  0  0  0  0  3  0  0  0  0  0  0
  162.5620  210.1860  154.1120 C   0  0  0  0  0  1  0  0  0  0  0  0
  160.9850  207.3220  153.0790 C   0  0  0  0  0  0  0  0  0  0  0  0
  160.7580  207.1790  154.4340 O   0  0  0  0  0  0  0  0  0  0  0  0
  161.9020  209.6060  148.6040 N   0  0  0  0  0  0  0  0  0  0  0  0
  160.1170  210.5610  153.7470 C   0  0  0  0  0  1  0  0  0  0  0  0
  161.8810  210.5560  149.4970 C   0  0  0  0  0  0  0  0  0  0  0  0
  161.4860  207.8920  150.3420 C   0  0  0  0  0  0  0  0  0  0  0  0
  162.0250  211.8920  149.1160 O   0  0  0  0  0  0  0  0  0  0  0  0
  162.8330  212.2830  148.0150 C   0  0  0  0  0  2  0  0  0  0  0  0
  162.0180  213.0800  147.0560 C   0  0  0  0  0  0  0  0  0  0  0  0
  162.5930  213.8880  146.2780 O   0  0  0  0  0  0  0  0  0  0  0  0
  160.5620  212.9030  146.9890 C   0  0  0  0  0  0  0  0  0  0  0  0
  159.7240  213.6840  147.7760 O   0  0  0  0  0  1  0  0  0  0  0  0
  160.0630  212.0420  146.2180 O   0  0  0  0  0  0  0  0  0  0  0  0
  1 13  1  0  0  0  0
  1  4  1  0  0  0  0
  2  1  1  0  0  0  0
  3 13  2  0  0  0  0
  4 12  1  0  0  0  0
  4  7  1  0  0  0  0
  6  3  1  0  0  0  0
  7  8  1  0  0  0  0
  7  5  1  0  0  0  0
  8  5  1  0  0  0  0
  9 10  1  1  0  0  0
  9 18  1  0  0  0  0
 11  2  2  0  0  0  0
 13 14  1  0  0  0  0
 14  7  1  0  0  0  0
 15  9  1  0  0  0  0
 15 17  2  0  0  0  0
 16  4  1  0  0  0  0
 17 11  1  0  0  0  0
 18  6  2  0  0  0  0
 18  2  1  0  0  0  0
 19 17  1  0  0  0  0
 20 19  1  0  0  0  0
 21 20  1  0  0  0  0
 22 21  2  0  0  0  0
 23 21  1  0  0  0  0
 23 24  1  0  0  0  0
 25 23  2  0  0  0  0
M  END
>  <MODEL>
9

>  <REMARK>
 VINA RESULT:      -6.3      4.594      8.168
  Name = 
  4 active torsions:
  status: ('A' for Active; 'I' for Inactive)
    1  A    between atoms: C_2  and  C_21
    2  A    between atoms: O_6  and  C_15
    3  A    between atoms: O_6  and  C_23
    4  A    between atoms: C_15  and  C_21
                            x       y       z     vdW  Elec       q    Type
                         _______ _______ _______ _____ _____    ______ ____

>  <TORSDO>
F 4

$$$$
