=
 OpenBabel11062410493D

 32 36  0  0  1  0  0  0  0  0999 V2000
  161.2340  204.0860  149.5430 C   0  0  2  0  0  3  0  0  0  0  0  0
  161.2490  208.2050  150.9710 C   0  0  0  0  0  0  0  0  0  0  0  0
  160.4460  206.6690  155.6490 C   0  0  0  0  0  3  0  0  0  0  0  0
  160.4090  207.9570  155.9950 C   0  0  0  0  0  3  0  0  0  0  0  0
  161.7290  206.5230  149.1590 C   0  0  1  0  0  3  0  0  0  0  0  0
  161.1880  205.6650  151.4550 C   0  0  0  0  0  2  0  0  0  0  0  0
  160.3000  203.2000  150.0490 F   0  0  0  0  0  0  0  0  0  0  0  0
  160.7850  206.2110  154.2550 C   0  0  0  0  0  3  0  0  0  0  0  0
  161.0610  207.0870  151.9410 C   0  0  0  0  0  0  0  0  0  0  0  0
  160.8990  207.3410  153.2550 C   0  0  0  0  0  0  0  0  0  0  0  0
  161.1260  209.8020  152.7730 N   0  0  0  0  0  0  0  0  0  0  0  0
  162.1450  205.0860  147.4630 C   0  0  1  0  0  3  0  0  0  0  0  0
  160.8860  205.5150  149.9660 C   0  0  2  0  0  3  0  0  0  0  0  0
  161.5500  206.3200  147.7780 O   0  0  0  0  0  0  0  0  0  0  0  0
  161.2920  203.9510  148.0260 C   0  0  0  0  0  2  0  0  0  0  0  0
  160.6670  209.0220  155.0160 C   0  0  0  0  0  3  0  0  0  0  0  0
  160.8980  208.7490  153.7280 C   0  0  1  0  0  3  0  0  0  0  0  0
  161.2990  207.9480  149.4970 C   0  0  0  0  0  2  0  0  0  0  0  0
  161.2640  209.4740  151.3850 C   0  0  0  0  0  3  0  0  0  0  0  0
  162.2770  204.9450  145.9840 C   0  0  0  0  0  0  0  0  0  0  0  0
  161.3020  205.5440  145.1340 N   0  0  0  0  0  2  0  0  0  0  0  0
  163.2490  204.3140  145.4890 O   0  0  0  0  0  0  0  0  0  0  0  0
  161.3980  205.4400  143.7870 O   0  0  0  0  0  1  0  0  0  0  0  0
  161.2420  211.2010  153.1720 C   0  0  0  0  0  2  0  0  0  0  0  0
  156.5040  212.5160  155.0360 S   0  0  0  0  0  1  0  0  0  0  0  0
  158.9690  211.8970  153.9540 C   0  0  0  0  0  3  0  0  0  0  0  0
  159.6990  212.5950  151.7510 C   0  0  0  0  0  0  0  0  0  0  0  0
  158.4770  213.2460  151.5570 C   0  0  0  0  0  3  0  0  0  0  0  0
  157.5020  213.2230  152.5580 C   0  0  0  0  0  3  0  0  0  0  0  0
  157.7480  212.5490  153.7560 C   0  0  0  0  0  0  0  0  0  0  0  0
  160.6360  212.6360  150.7710 F   0  0  0  0  0  0  0  0  0  0  0  0
  159.9480  211.9170  152.9540 C   0  0  0  0  0  0  0  0  0  0  0  0
  1 13  1  0  0  0  0
  1  7  1  6  0  0  0
  2 19  2  0  0  0  0
  2  9  1  0  0  0  0
  3  4  1  0  0  0  0
  5 18  1  1  0  0  0
  5 13  1  0  0  0  0
  6  9  1  0  0  0  0
  8  3  2  0  0  0  0
  9 10  2  0  0  0  0
 10 17  1  0  0  0  0
 10  8  1  0  0  0  0
 11 24  1  0  0  0  0
 11 17  1  0  0  0  0
 12 20  1  6  0  0  0
 12 14  1  0  0  0  0
 12 15  1  0  0  0  0
 13  6  1  1  0  0  0
 14  5  1  0  0  0  0
 15  1  1  0  0  0  0
 16  4  2  0  0  0  0
 17 16  1  6  0  0  0
 18  2  1  0  0  0  0
 19 11  1  0  0  0  0
 21 20  1  0  0  0  0
 22 20  2  0  0  0  0
 23 21  1  0  0  0  0
 27 32  1  0  0  0  0
 28 27  2  0  0  0  0
 28 29  1  0  0  0  0
 29 30  2  0  0  0  0
 30 26  1  0  0  0  0
 30 25  1  0  0  0  0
 31 27  1  0  0  0  0
 32 24  1  0  0  0  0
 32 26  2  0  0  0  0
M  END
>  <MODEL>
1

>  <REMARK>
 VINA RESULT:      -9.9      0.000      0.000
  Name = 
  3 active torsions:
  status: ('A' for Active; 'I' for Inactive)
    1  A    between atoms: C_1  and  C_19
    2  A    between atoms: N_16  and  C_27
    3  A    between atoms: C_27  and  C_32
                            x       y       z     vdW  Elec       q    Type
                         _______ _______ _______ _____ _____    ______ ____

>  <TORSDO>
F 3

$$$$
=
 OpenBabel11062410493D

 32 36  0  0  1  0  0  0  0  0999 V2000
  161.2590  204.1210  149.5670 C   0  0  2  0  0  3  0  0  0  0  0  0
  161.2520  208.2310  151.0250 C   0  0  0  0  0  0  0  0  0  0  0  0
  160.4750  206.6580  155.6940 C   0  0  0  0  0  3  0  0  0  0  0  0
  160.4310  207.9420  156.0490 C   0  0  0  0  0  3  0  0  0  0  0  0
  161.7370  206.5650  149.1990 C   0  0  1  0  0  3  0  0  0  0  0  0
  161.2100  205.6880  151.4910 C   0  0  0  0  0  2  0  0  0  0  0  0
  160.3330  203.2260  150.0710 F   0  0  0  0  0  0  0  0  0  0  0  0
  160.8120  206.2110  154.2960 C   0  0  0  0  0  3  0  0  0  0  0  0
  161.0750  207.1050  151.9870 C   0  0  0  0  0  0  0  0  0  0  0  0
  160.9160  207.3480  153.3030 C   0  0  0  0  0  0  0  0  0  0  0  0
  161.1250  209.8140  152.8380 N   0  0  0  0  0  0  0  0  0  0  0  0
  162.1570  205.1420  147.4920 C   0  0  1  0  0  3  0  0  0  0  0  0
  160.9040  205.5460  150.0020 C   0  0  2  0  0  3  0  0  0  0  0  0
  161.5550  206.3700  147.8180 O   0  0  0  0  0  0  0  0  0  0  0  0
  161.3140  203.9970  148.0490 C   0  0  0  0  0  2  0  0  0  0  0  0
  160.6780  209.0160  155.0770 C   0  0  0  0  0  3  0  0  0  0  0  0
  160.9070  208.7530  153.7860 C   0  0  1  0  0  3  0  0  0  0  0  0
  161.2990  207.9840  149.5480 C   0  0  0  0  0  2  0  0  0  0  0  0
  161.2610  209.4970  151.4470 C   0  0  0  0  0  3  0  0  0  0  0  0
  162.2850  205.0130  146.0110 C   0  0  0  0  0  0  0  0  0  0  0  0
  161.2950  205.5980  145.1690 N   0  0  0  0  0  2  0  0  0  0  0  0
  163.2660  204.4030  145.5080 O   0  0  0  0  0  0  0  0  0  0  0  0
  161.3870  205.5030  143.8220 O   0  0  0  0  0  1  0  0  0  0  0  0
  161.2330  211.2110  153.2460 C   0  0  0  0  0  2  0  0  0  0  0  0
  158.8800  214.2380  149.6460 S   0  0  0  0  0  1  0  0  0  0  0  0
  160.0070  212.6480  151.6040 C   0  0  0  0  0  3  0  0  0  0  0  0
  158.8890  212.0320  153.6640 C   0  0  0  0  0  0  0  0  0  0  0  0
  157.7650  212.7620  153.2670 C   0  0  0  0  0  3  0  0  0  0  0  0
  157.7600  213.4350  152.0420 C   0  0  0  0  0  3  0  0  0  0  0  0
  158.8820  213.3780  151.2110 C   0  0  0  0  0  0  0  0  0  0  0  0
  158.8710  211.3790  154.8520 F   0  0  0  0  0  0  0  0  0  0  0  0
  160.0160  211.9740  152.8300 C   0  0  0  0  0  0  0  0  0  0  0  0
  1 13  1  0  0  0  0
  1  7  1  6  0  0  0
  2 19  2  0  0  0  0
  2  9  1  0  0  0  0
  3  4  1  0  0  0  0
  5 18  1  1  0  0  0
  5 13  1  0  0  0  0
  6  9  1  0  0  0  0
  8  3  2  0  0  0  0
  9 10  2  0  0  0  0
 10 17  1  0  0  0  0
 10  8  1  0  0  0  0
 11 24  1  0  0  0  0
 11 17  1  0  0  0  0
 12 20  1  6  0  0  0
 12 14  1  0  0  0  0
 12 15  1  0  0  0  0
 13  6  1  1  0  0  0
 14  5  1  0  0  0  0
 15  1  1  0  0  0  0
 16  4  2  0  0  0  0
 17 16  1  6  0  0  0
 18  2  1  0  0  0  0
 19 11  1  0  0  0  0
 21 20  1  0  0  0  0
 22 20  2  0  0  0  0
 23 21  1  0  0  0  0
 25 30  1  0  0  0  0
 26 32  1  0  0  0  0
 27 31  1  0  0  0  0
 28 27  1  0  0  0  0
 29 28  2  0  0  0  0
 30 26  2  0  0  0  0
 30 29  1  0  0  0  0
 32 24  1  0  0  0  0
 32 27  2  0  0  0  0
M  END
>  <MODEL>
2

>  <REMARK>
 VINA RESULT:      -9.8      1.373      1.615
  Name = 
  3 active torsions:
  status: ('A' for Active; 'I' for Inactive)
    1  A    between atoms: C_1  and  C_19
    2  A    between atoms: N_16  and  C_27
    3  A    between atoms: C_27  and  C_32
                            x       y       z     vdW  Elec       q    Type
                         _______ _______ _______ _____ _____    ______ ____

>  <TORSDO>
F 3

$$$$
=
 OpenBabel11062410493D

 32 36  0  0  1  0  0  0  0  0999 V2000
  160.6670  203.7130  150.3400 C   0  0  2  0  0  3  0  0  0  0  0  0
  161.5450  207.8140  149.1450 C   0  0  0  0  0  0  0  0  0  0  0  0
  161.2080  209.3500  153.8790 C   0  0  0  0  0  3  0  0  0  0  0  0
  161.4270  210.5840  153.4240 C   0  0  0  0  0  3  0  0  0  0  0  0
  161.4800  205.3530  148.6120 C   0  0  1  0  0  3  0  0  0  0  0  0
  161.1550  206.0550  151.0000 C   0  0  0  0  0  2  0  0  0  0  0  0
  159.6900  203.4830  151.2910 F   0  0  0  0  0  0  0  0  0  0  0  0
  161.2610  208.1350  152.9910 C   0  0  0  0  0  3  0  0  0  0  0  0
  161.3280  207.4940  150.5850 C   0  0  0  0  0  0  0  0  0  0  0  0
  161.4030  208.4620  151.5200 C   0  0  0  0  0  0  0  0  0  0  0  0
  161.9430  210.1240  149.7070 N   0  0  0  0  0  0  0  0  0  0  0  0
  161.4080  203.1670  148.0360 C   0  0  1  0  0  3  0  0  0  0  0  0
  160.6170  205.1720  149.8770 C   0  0  2  0  0  3  0  0  0  0  0  0
  161.0700  204.4610  147.6040 O   0  0  0  0  0  0  0  0  0  0  0  0
  160.4790  202.7500  149.1740 C   0  0  0  0  0  2  0  0  0  0  0  0
  161.7030  210.8410  152.0040 C   0  0  0  0  0  3  0  0  0  0  0  0
  161.6950  209.8570  151.0990 C   0  0  1  0  0  3  0  0  0  0  0  0
  161.3350  206.7770  148.0840 C   0  0  0  0  0  2  0  0  0  0  0  0
  161.8210  209.0600  148.7550 C   0  0  0  0  0  3  0  0  0  0  0  0
  161.2970  202.2040  146.9020 C   0  0  0  0  0  0  0  0  0  0  0  0
  161.3240  200.8040  147.1680 N   0  0  0  0  0  2  0  0  0  0  0  0
  161.1660  202.6230  145.7210 O   0  0  0  0  0  0  0  0  0  0  0  0
  161.2190  199.9050  146.1610 O   0  0  0  0  0  1  0  0  0  0  0  0
  162.3370  211.4450  149.2270 C   0  0  0  0  0  2  0  0  0  0  0  0
  159.6170  212.3100  144.8100 S   0  0  0  0  0  1  0  0  0  0  0  0
  160.9590  211.9250  147.1930 C   0  0  0  0  0  3  0  0  0  0  0  0
  160.3340  212.9710  149.2880 C   0  0  0  0  0  0  0  0  0  0  0  0
  159.2700  213.6110  148.6460 C   0  0  0  0  0  3  0  0  0  0  0  0
  159.0490  213.4100  147.2800 C   0  0  0  0  0  3  0  0  0  0  0  0
  159.8950  212.5670  146.5550 C   0  0  0  0  0  0  0  0  0  0  0  0
  160.5270  213.1720  150.6160 F   0  0  0  0  0  0  0  0  0  0  0  0
  161.1840  212.1240  148.5600 C   0  0  0  0  0  0  0  0  0  0  0  0
  1  7  1  1  0  0  0
  2  9  1  0  0  0  0
  4  3  1  0  0  0  0
  5 18  1  6  0  0  0
  5 13  1  0  0  0  0
  8  3  2  0  0  0  0
  9  6  1  0  0  0  0
  9 10  2  0  0  0  0
 10  8  1  0  0  0  0
 11 17  1  0  0  0  0
 12 20  1  6  0  0  0
 12 15  1  0  0  0  0
 13  1  1  0  0  0  0
 13  6  1  1  0  0  0
 14 12  1  0  0  0  0
 14  5  1  0  0  0  0
 15  1  1  0  0  0  0
 16  4  2  0  0  0  0
 17 10  1  0  0  0  0
 17 16  1  6  0  0  0
 18  2  1  0  0  0  0
 19  2  2  0  0  0  0
 19 11  1  0  0  0  0
 20 21  1  0  0  0  0
 22 20  2  0  0  0  0
 23 21  1  0  0  0  0
 24 11  1  0  0  0  0
 25 30  1  0  0  0  0
 26 32  1  0  0  0  0
 27 31  1  0  0  0  0
 28 27  1  0  0  0  0
 29 28  2  0  0  0  0
 30 26  2  0  0  0  0
 30 29  1  0  0  0  0
 32 24  1  0  0  0  0
 32 27  2  0  0  0  0
M  END
>  <MODEL>
3

>  <REMARK>
 VINA RESULT:      -9.4      3.127      3.895
  Name = 
  3 active torsions:
  status: ('A' for Active; 'I' for Inactive)
    1  A    between atoms: C_1  and  C_19
    2  A    between atoms: N_16  and  C_27
    3  A    between atoms: C_27  and  C_32
                            x       y       z     vdW  Elec       q    Type
                         _______ _______ _______ _____ _____    ______ ____

>  <TORSDO>
F 3

$$$$
=
 OpenBabel11062410493D

 32 36  0  0  1  0  0  0  0  0999 V2000
  161.1550  204.3550  150.0890 C   0  0  2  0  0  3  0  0  0  0  0  0
  161.1280  208.4310  151.6390 C   0  0  0  0  0  0  0  0  0  0  0  0
  160.4200  206.7450  156.2800 C   0  0  0  0  0  3  0  0  0  0  0  0
  160.3680  208.0210  156.6640 C   0  0  0  0  0  3  0  0  0  0  0  0
  161.6060  206.8100  149.7710 C   0  0  1  0  0  3  0  0  0  0  0  0
  161.1140  205.8770  152.0470 C   0  0  0  0  0  2  0  0  0  0  0  0
  160.2430  203.4400  150.5830 F   0  0  0  0  0  0  0  0  0  0  0  0
  160.7440  206.3340  154.8690 C   0  0  0  0  0  3  0  0  0  0  0  0
  160.9720  207.2810  152.5770 C   0  0  0  0  0  0  0  0  0  0  0  0
  160.8260  207.4940  153.9000 C   0  0  0  0  0  0  0  0  0  0  0  0
  161.0070  209.9710  153.4880 N   0  0  0  0  0  0  0  0  0  0  0  0
  162.0190  205.4300  148.0270 C   0  0  1  0  0  3  0  0  0  0  0  0
  160.7920  205.7660  150.5600 C   0  0  2  0  0  3  0  0  0  0  0  0
  161.4100  206.6450  148.3870 O   0  0  0  0  0  0  0  0  0  0  0  0
  161.1930  204.2650  148.5680 C   0  0  0  0  0  2  0  0  0  0  0  0
  160.5950  209.1190  155.7130 C   0  0  0  0  0  3  0  0  0  0  0  0
  160.8110  208.8870  154.4150 C   0  0  1  0  0  3  0  0  0  0  0  0
  161.1600  208.2170  150.1560 C   0  0  0  0  0  2  0  0  0  0  0  0
  161.1300  209.6860  152.0900 C   0  0  0  0  0  3  0  0  0  0  0  0
  162.1310  205.3350  146.5430 C   0  0  0  0  0  0  0  0  0  0  0  0
  161.0480  205.7800  145.7290 N   0  0  0  0  0  2  0  0  0  0  0  0
  163.1780  204.8780  146.0110 O   0  0  0  0  0  0  0  0  0  0  0  0
  161.1220  205.7120  144.3790 O   0  0  0  0  0  1  0  0  0  0  0  0
  161.1080  211.3600  153.9270 C   0  0  0  0  0  2  0  0  0  0  0  0
  155.8980  211.9130  154.3790 S   0  0  0  0  0  1  0  0  0  0  0  0
  158.6450  211.6520  154.2650 C   0  0  0  0  0  3  0  0  0  0  0  0
  160.1350  212.1460  156.1130 C   0  0  0  0  0  0  0  0  0  0  0  0
  159.0340  212.4950  156.9010 C   0  0  0  0  0  3  0  0  0  0  0  0
  157.7410  212.4250  156.3740 C   0  0  0  0  0  3  0  0  0  0  0  0
  157.5480  212.0030  155.0560 C   0  0  0  0  0  0  0  0  0  0  0  0
  161.3810  212.2120  156.6450 F   0  0  0  0  0  0  0  0  0  0  0  0
  159.9420  211.7220  154.7890 C   0  0  0  0  0  0  0  0  0  0  0  0
  1 13  1  0  0  0  0
  1  7  1  6  0  0  0
  2 19  2  0  0  0  0
  2  9  1  0  0  0  0
  3  4  1  0  0  0  0
  5 18  1  1  0  0  0
  5 13  1  0  0  0  0
  6  9  1  0  0  0  0
  8  3  2  0  0  0  0
  9 10  2  0  0  0  0
 10 17  1  0  0  0  0
 10  8  1  0  0  0  0
 11 24  1  0  0  0  0
 11 17  1  0  0  0  0
 12 20  1  6  0  0  0
 12 14  1  0  0  0  0
 12 15  1  0  0  0  0
 13  6  1  1  0  0  0
 14  5  1  0  0  0  0
 15  1  1  0  0  0  0
 16  4  2  0  0  0  0
 17 16  1  6  0  0  0
 18  2  1  0  0  0  0
 19 11  1  0  0  0  0
 21 20  1  0  0  0  0
 22 20  2  0  0  0  0
 23 21  1  0  0  0  0
 24 32  1  0  0  0  0
 25 30  1  0  0  0  0
 26 32  2  0  0  0  0
 26 30  1  0  0  0  0
 27 31  1  0  0  0  0
 27 28  2  0  0  0  0
 29 28  1  0  0  0  0
 30 29  2  0  0  0  0
 32 27  1  0  0  0  0
M  END
>  <MODEL>
4

>  <REMARK>
 VINA RESULT:      -8.5      1.553      1.916
  Name = 
  3 active torsions:
  status: ('A' for Active; 'I' for Inactive)
    1  A    between atoms: C_1  and  C_19
    2  A    between atoms: N_16  and  C_27
    3  A    between atoms: C_27  and  C_32
                            x       y       z     vdW  Elec       q    Type
                         _______ _______ _______ _____ _____    ______ ____

>  <TORSDO>
F 3

$$$$
=
 OpenBabel11062410493D

 32 36  0  0  1  0  0  0  0  0999 V2000
  160.4710  213.4950  149.8720 C   0  0  2  0  0  3  0  0  0  0  0  0
  161.8210  209.4340  150.7100 C   0  0  0  0  0  0  0  0  0  0  0  0
  159.7560  209.5990  155.2480 C   0  0  0  0  0  3  0  0  0  0  0  0
  160.2520  208.3770  155.4460 C   0  0  0  0  0  3  0  0  0  0  0  0
  161.4080  211.3000  149.0710 C   0  0  1  0  0  3  0  0  0  0  0  0
  160.4580  211.5270  151.3830 C   0  0  0  0  0  2  0  0  0  0  0  0
  160.5610  214.4530  150.8650 F   0  0  0  0  0  0  0  0  0  0  0  0
  159.8580  210.3150  153.9270 C   0  0  0  0  0  3  0  0  0  0  0  0
  161.0290  210.1760  151.7340 C   0  0  0  0  0  0  0  0  0  0  0  0
  160.7260  209.6000  152.9140 C   0  0  0  0  0  0  0  0  0  0  0  0
  161.9230  207.5140  152.1650 N   0  0  0  0  0  0  0  0  0  0  0  0
  161.1120  212.9400  147.5410 C   0  0  1  0  0  3  0  0  0  0  0  0
  161.2430  212.2380  150.2840 C   0  0  2  0  0  3  0  0  0  0  0  0
  162.0270  211.9790  148.0050 O   0  0  0  0  0  0  0  0  0  0  0  0
  160.9960  214.0690  148.5620 C   0  0  0  0  0  2  0  0  0  0  0  0
  160.9680  207.6590  154.3830 C   0  0  0  0  0  3  0  0  0  0  0  0
  161.1980  208.2190  153.1910 C   0  0  1  0  0  3  0  0  0  0  0  0
  162.2770  210.1060  149.4520 C   0  0  0  0  0  2  0  0  0  0  0  0
  162.2400  208.1880  150.9410 C   0  0  0  0  0  3  0  0  0  0  0  0
  161.5620  213.4800  146.2250 C   0  0  0  0  0  0  0  0  0  0  0  0
  162.7390  212.9540  145.6180 N   0  0  0  0  0  2  0  0  0  0  0  0
  160.9000  214.3850  145.6490 O   0  0  0  0  0  0  0  0  0  0  0  0
  163.1690  213.4200  144.4210 O   0  0  0  0  0  1  0  0  0  0  0  0
  162.3310  206.1220  152.3190 C   0  0  0  0  0  2  0  0  0  0  0  0
  161.2080  205.6290  147.2050 S   0  0  0  0  0  1  0  0  0  0  0  0
  161.7550  205.7680  149.9080 C   0  0  0  0  0  3  0  0  0  0  0  0
  161.2040  204.0230  151.4980 C   0  0  0  0  0  0  0  0  0  0  0  0
  160.6570  203.2590  150.4630 C   0  0  0  0  0  3  0  0  0  0  0  0
  160.6580  203.7480  149.1530 C   0  0  0  0  0  3  0  0  0  0  0  0
  161.2070  205.0020  148.8760 C   0  0  0  0  0  0  0  0  0  0  0  0
  161.2020  203.5290  152.7610 F   0  0  0  0  0  0  0  0  0  0  0  0
  161.7560  205.2840  151.2210 C   0  0  0  0  0  0  0  0  0  0  0  0
  1 13  1  0  0  0  0
  1  7  1  1  0  0  0
  2 19  2  0  0  0  0
  2  9  1  0  0  0  0
  3  4  1  0  0  0  0
  5 18  1  1  0  0  0
  5 13  1  0  0  0  0
  6  9  1  0  0  0  0
  8  3  2  0  0  0  0
  9 10  2  0  0  0  0
 10 17  1  0  0  0  0
 10  8  1  0  0  0  0
 11 24  1  0  0  0  0
 11 17  1  0  0  0  0
 12 20  1  6  0  0  0
 12 14  1  0  0  0  0
 12 15  1  0  0  0  0
 13  6  1  1  0  0  0
 14  5  1  0  0  0  0
 15  1  1  0  0  0  0
 16  4  2  0  0  0  0
 17 16  1  1  0  0  0
 18  2  1  0  0  0  0
 19 11  1  0  0  0  0
 21 20  1  0  0  0  0
 22 20  2  0  0  0  0
 23 21  1  0  0  0  0
 25 30  1  0  0  0  0
 26 32  1  0  0  0  0
 27 31  1  0  0  0  0
 28 27  1  0  0  0  0
 29 28  2  0  0  0  0
 30 29  1  0  0  0  0
 30 26  2  0  0  0  0
 32 27  2  0  0  0  0
 32 24  1  0  0  0  0
M  END
>  <MODEL>
5

>  <REMARK>
 VINA RESULT:      -7.3      3.903      7.132
  Name = 
  3 active torsions:
  status: ('A' for Active; 'I' for Inactive)
    1  A    between atoms: C_1  and  C_19
    2  A    between atoms: N_16  and  C_27
    3  A    between atoms: C_27  and  C_32
                            x       y       z     vdW  Elec       q    Type
                         _______ _______ _______ _____ _____    ______ ____

>  <TORSDO>
F 3

$$$$
=
 OpenBabel11062410493D

 32 36  0  0  1  0  0  0  0  0999 V2000
  161.1340  203.3130  150.5940 C   0  0  2  0  0  3  0  0  0  0  0  0
  160.8980  207.6470  151.0110 C   0  0  0  0  0  0  0  0  0  0  0  0
  161.0310  207.2550  155.9820 C   0  0  0  0  0  3  0  0  0  0  0  0
  160.9000  208.5810  156.0240 C   0  0  0  0  0  3  0  0  0  0  0  0
  161.2760  205.6110  149.5770 C   0  0  1  0  0  3  0  0  0  0  0  0
  161.2090  205.3070  152.0680 C   0  0  0  0  0  2  0  0  0  0  0  0
  160.4020  202.5120  151.4510 F   0  0  0  0  0  0  0  0  0  0  0  0
  161.1950  206.4940  154.6930 C   0  0  0  0  0  3  0  0  0  0  0  0
  160.9970  206.7910  152.2290 C   0  0  0  0  0  0  0  0  0  0  0  0
  161.0180  207.3480  153.4570 C   0  0  0  0  0  0  0  0  0  0  0  0
  160.8780  209.6240  152.3900 N   0  0  0  0  0  0  0  0  0  0  0  0
  161.5810  203.8360  148.2100 C   0  0  1  0  0  3  0  0  0  0  0  0
  160.6950  204.7730  150.7340 C   0  0  2  0  0  3  0  0  0  0  0  0
  160.9050  205.0620  148.3360 O   0  0  0  0  0  0  0  0  0  0  0  0
  160.9670  202.8130  149.1640 C   0  0  0  0  0  2  0  0  0  0  0  0
  160.8740  209.3890  154.7970 C   0  0  0  0  0  3  0  0  0  0  0  0
  160.9280  208.8250  153.5860 C   0  0  1  0  0  3  0  0  0  0  0  0
  160.7430  207.0390  149.6510 C   0  0  0  0  0  2  0  0  0  0  0  0
  160.8310  208.9760  151.1130 C   0  0  0  0  0  3  0  0  0  0  0  0
  161.4920  203.3450  146.8040 C   0  0  0  0  0  0  0  0  0  0  0  0
  160.7970  202.1320  146.5290 N   0  0  0  0  0  2  0  0  0  0  0  0
  162.0150  204.0040  145.8660 O   0  0  0  0  0  0  0  0  0  0  0  0
  160.6940  201.6630  145.2630 O   0  0  0  0  0  1  0  0  0  0  0  0
  160.8930  211.0830  152.4290 C   0  0  0  0  0  2  0  0  0  0  0  0
  158.9760  214.2880  148.7260 S   0  0  0  0  0  1  0  0  0  0  0  0
  160.0800  212.5780  150.5930 C   0  0  0  0  0  3  0  0  0  0  0  0
  162.0530  211.2260  150.1970 C   0  0  0  0  0  0  0  0  0  0  0  0
  162.1450  211.7470  148.9030 C   0  0  0  0  0  3  0  0  0  0  0  0
  161.2070  212.6810  148.4530 C   0  0  0  0  0  3  0  0  0  0  0  0
  160.1760  213.0960  149.2980 C   0  0  0  0  0  0  0  0  0  0  0  0
  162.9760  210.3270  150.6180 F   0  0  0  0  0  0  0  0  0  0  0  0
  161.0160  211.6420  151.0470 C   0  0  0  0  0  0  0  0  0  0  0  0
  1 13  1  0  0  0  0
  1  7  1  1  0  0  0
  2 19  2  0  0  0  0
  2  9  1  0  0  0  0
  3  4  1  0  0  0  0
  5 18  1  6  0  0  0
  5 13  1  0  0  0  0
  6  9  1  0  0  0  0
  8  3  2  0  0  0  0
  9 10  2  0  0  0  0
 10 17  1  0  0  0  0
 10  8  1  0  0  0  0
 11 24  1  0  0  0  0
 11 17  1  0  0  0  0
 12 20  1  6  0  0  0
 12 14  1  0  0  0  0
 12 15  1  0  0  0  0
 13  6  1  1  0  0  0
 14  5  1  0  0  0  0
 15  1  1  0  0  0  0
 16  4  2  0  0  0  0
 17 16  1  1  0  0  0
 18  2  1  0  0  0  0
 19 11  1  0  0  0  0
 21 20  1  0  0  0  0
 22 20  2  0  0  0  0
 23 21  1  0  0  0  0
 25 30  1  0  0  0  0
 26 32  1  0  0  0  0
 27 31  1  0  0  0  0
 27 32  2  0  0  0  0
 28 27  1  0  0  0  0
 29 28  2  0  0  0  0
 29 30  1  0  0  0  0
 30 26  2  0  0  0  0
 32 24  1  0  0  0  0
M  END
>  <MODEL>
6

>  <REMARK>
 VINA RESULT:      -7.2      2.153      2.643
  Name = 
  3 active torsions:
  status: ('A' for Active; 'I' for Inactive)
    1  A    between atoms: C_1  and  C_19
    2  A    between atoms: N_16  and  C_27
    3  A    between atoms: C_27  and  C_32
                            x       y       z     vdW  Elec       q    Type
                         _______ _______ _______ _____ _____    ______ ____

>  <TORSDO>
F 3

$$$$
=
 OpenBabel11062410493D

 32 36  0  0  1  0  0  0  0  0999 V2000
  161.4080  208.0740  156.0290 C   0  0  2  0  0  3  0  0  0  0  0  0
  160.9010  207.9080  151.7020 C   0  0  0  0  0  0  0  0  0  0  0  0
  161.1250  202.9250  151.7860 C   0  0  0  0  0  3  0  0  0  0  0  0
  161.0230  202.9640  150.4570 C   0  0  0  0  0  3  0  0  0  0  0  0
  160.8050  209.2010  153.8610 C   0  0  1  0  0  3  0  0  0  0  0  0
  161.0680  206.7080  153.9870 C   0  0  0  0  0  2  0  0  0  0  0  0
  162.3180  207.2260  156.6350 F   0  0  0  0  0  0  0  0  0  0  0  0
  161.0240  204.1570  152.6460 C   0  0  0  0  0  3  0  0  0  0  0  0
  161.0240  206.6420  152.4810 C   0  0  0  0  0  0  0  0  0  0  0  0
  160.9770  205.4480  151.8570 C   0  0  0  0  0  0  0  0  0  0  0  0
  160.6520  206.6430  149.6650 N   0  0  0  0  0  0  0  0  0  0  0  0
  160.7390  210.4460  155.7480 C   0  0  1  0  0  3  0  0  0  0  0  0
  161.5900  208.0430  154.5100 C   0  0  2  0  0  3  0  0  0  0  0  0
  161.1950  210.4330  154.4180 O   0  0  0  0  0  0  0  0  0  0  0  0
  161.5780  209.4830  156.5850 C   0  0  0  0  0  2  0  0  0  0  0  0
  160.8350  204.2330  149.7390 C   0  0  0  0  0  3  0  0  0  0  0  0
  160.8120  205.4050  150.3820 C   0  0  1  0  0  3  0  0  0  0  0  0
  161.0820  209.2410  152.3620 C   0  0  0  0  0  2  0  0  0  0  0  0
  160.7380  207.8830  150.3770 C   0  0  0  0  0  3  0  0  0  0  0  0
  160.8320  211.8260  156.3060 C   0  0  0  0  0  0  0  0  0  0  0  0
  160.0130  212.8580  155.7610 N   0  0  0  0  0  2  0  0  0  0  0  0
  161.6160  212.0760  157.2610 O   0  0  0  0  0  0  0  0  0  0  0  0
  160.0700  214.1190  156.2500 O   0  0  0  0  0  1  0  0  0  0  0  0
  160.3820  206.6820  148.2310 C   0  0  0  0  0  2  0  0  0  0  0  0
  160.8400  202.1310  145.6360 S   0  0  0  0  0  1  0  0  0  0  0  0
  160.7230  204.5440  146.9740 C   0  0  0  0  0  3  0  0  0  0  0  0
  162.6400  205.9750  147.3670 C   0  0  0  0  0  0  0  0  0  0  0  0
  163.4560  205.0570  146.7000 C   0  0  0  0  0  3  0  0  0  0  0  0
  162.9080  203.8840  146.1710 C   0  0  0  0  0  3  0  0  0  0  0  0
  161.5420  203.6290  146.3090 C   0  0  0  0  0  0  0  0  0  0  0  0
  163.1880  207.1100  147.8660 F   0  0  0  0  0  0  0  0  0  0  0  0
  161.2670  205.7190  147.5060 C   0  0  0  0  0  0  0  0  0  0  0  0
  1 15  1  0  0  0  0
  1  7  1  1  0  0  0
  2 18  1  0  0  0  0
  2  9  1  0  0  0  0
  3  8  2  0  0  0  0
  4  3  1  0  0  0  0
  5 18  1  6  0  0  0
  5 14  1  0  0  0  0
  5 13  1  0  0  0  0
  9  6  1  0  0  0  0
 10  9  2  0  0  0  0
 10  8  1  0  0  0  0
 11 19  1  0  0  0  0
 11 17  1  0  0  0  0
 12 20  1  1  0  0  0
 12 15  1  0  0  0  0
 13  6  1  6  0  0  0
 13  1  1  0  0  0  0
 14 12  1  0  0  0  0
 16  4  2  0  0  0  0
 17 16  1  6  0  0  0
 17 10  1  0  0  0  0
 19  2  2  0  0  0  0
 20 22  2  0  0  0  0
 21 23  1  0  0  0  0
 21 20  1  0  0  0  0
 24 11  1  0  0  0  0
 25 30  1  0  0  0  0
 26 32  1  0  0  0  0
 27 32  2  0  0  0  0
 27 31  1  0  0  0  0
 28 27  1  0  0  0  0
 29 30  1  0  0  0  0
 29 28  2  0  0  0  0
 30 26  2  0  0  0  0
 32 24  1  0  0  0  0
M  END
>  <MODEL>
7

>  <REMARK>
 VINA RESULT:      -7.0      4.911      8.643
  Name = 
  3 active torsions:
  status: ('A' for Active; 'I' for Inactive)
    1  A    between atoms: C_1  and  C_19
    2  A    between atoms: N_16  and  C_27
    3  A    between atoms: C_27  and  C_32
                            x       y       z     vdW  Elec       q    Type
                         _______ _______ _______ _____ _____    ______ ____

>  <TORSDO>
F 3

$$$$
