=
 OpenBabel11052421463D

 30 32  0  0  1  0  0  0  0  0999 V2000
  161.6190  210.0840  152.4410 C   0  0  0  0  0  0  0  0  0  0  0  0
  159.5370  210.2040  153.8990 C   0  0  2  0  0  3  0  0  0  0  0  0
  162.6650  209.9260  153.2600 C   0  0  0  0  0  3  0  0  0  0  0  0
  161.6860  210.8570  156.8090 C   0  0  0  0  0  3  0  0  0  0  0  0
  161.5820  210.3590  155.5050 C   0  0  0  0  0  0  0  0  0  0  0  0
  163.9050  210.9690  155.1150 C   0  0  0  0  0  3  0  0  0  0  0  0
  162.7040  210.4300  154.6430 C   0  0  0  0  0  0  0  0  0  0  0  0
  160.2990  209.6580  155.1250 C   0  0  2  0  0  3  0  0  0  0  0  0
  162.8830  211.4180  157.2600 C   0  0  0  0  0  3  0  0  0  0  0  0
  163.9940  211.4680  156.4160 C   0  0  0  0  0  3  0  0  0  0  0  0
  160.4430  210.9300  152.8860 C   0  0  2  0  0  3  0  0  0  0  0  0
  161.9700  209.9690  149.9280 C   0  0  0  0  0  0  0  0  0  0  0  0
  161.9440  209.2250  148.7430 C   0  0  0  0  0  3  0  0  0  0  0  0
  162.4040  211.6690  149.8180 Cl  0  0  0  0  0  0  0  0  0  0  0  0
  161.2100  208.0110  151.1450 C   0  0  0  0  0  3  0  0  0  0  0  0
  160.7000  205.5980  149.9790 Cl  0  0  0  0  0  0  0  0  0  0  0  0
  161.6020  209.3580  151.1490 C   0  0  0  0  0  0  0  0  0  0  0  0
  161.5590  207.8840  148.7580 C   0  0  0  0  0  3  0  0  0  0  0  0
  161.1890  207.2780  149.9590 C   0  0  0  0  0  0  0  0  0  0  0  0
  160.0910  207.5250  153.9840 O   0  0  0  0  0  1  0  0  0  0  0  0
  160.4030  208.1300  155.2020 C   0  0  2  0  0  3  0  0  0  0  0  0
  159.5440  207.5740  156.2940 C   0  0  0  0  0  3  0  0  0  0  0  0
  160.0390  207.0080  157.2560 O   0  0  0  0  0  0  0  0  0  0  0  0
  159.6690  211.5350  151.7100 C   0  0  0  0  0  2  0  0  0  0  0  0
  160.1150  213.7380  150.9050 O   0  0  0  0  0  1  0  0  0  0  0  0
  159.4530  213.0260  151.9070 C   0  0  0  0  0  2  0  0  0  0  0  0
  158.4400  211.1290  154.4200 C   0  0  0  0  0  2  0  0  0  0  0  0
  158.3490  211.9640  156.6560 O   0  0  0  0  0  1  0  0  0  0  0  0
  158.1080  210.8340  155.8730 C   0  0  1  0  0  3  0  0  0  0  0  0
  156.7770  210.4830  155.9760 F   0  0  0  0  0  0  0  0  0  0  0  0
  1 11  1  0  0  0  0
  1  3  2  0  0  0  0
  2 27  1  1  0  0  0
  2  8  1  0  0  0  0
  3  7  1  0  0  0  0
  4  9  1  0  0  0  0
  5  4  2  0  0  0  0
  6 10  1  0  0  0  0
  7  6  2  0  0  0  0
  7  5  1  0  0  0  0
  8 21  1  6  0  0  0
  8  5  1  0  0  0  0
 10  9  2  0  0  0  0
 11 24  1  6  0  0  0
 11  2  1  0  0  0  0
 12 17  1  0  0  0  0
 13 18  1  0  0  0  0
 13 12  2  0  0  0  0
 14 12  1  0  0  0  0
 15 17  2  0  0  0  0
 17  1  1  0  0  0  0
 18 19  2  0  0  0  0
 19 16  1  0  0  0  0
 19 15  1  0  0  0  0
 21 20  1  6  0  0  0
 21 22  1  0  0  0  0
 22 23  2  0  0  0  0
 24 26  1  0  0  0  0
 25 26  1  0  0  0  0
 27 29  1  0  0  0  0
 29 30  1  6  0  0  0
 29 28  1  0  0  0  0
M  END
>  <MODEL>
1

>  <REMARK>
 VINA RESULT:      -3.1      0.000      0.000
  Name = 
  7 active torsions:
  status: ('A' for Active; 'I' for Inactive)
    1  A    between atoms: C_1  and  C_22
    2  A    between atoms: C_4  and  C_25
    3  A    between atoms: C_7  and  C_30
    4  A    between atoms: C_10  and  C_23
    5  A    between atoms: C_10  and  C_26
    6  A    between atoms: C_11  and  C_25
    7  A    between atoms: C_13  and  C_30
                            x       y       z     vdW  Elec       q    Type
                         _______ _______ _______ _____ _____    ______ ____

>  <TORSDO>
F 7

$$$$
=
 OpenBabel11052421463D

 30 32  0  0  1  0  0  0  0  0999 V2000
  160.5210  209.9410  154.3220 C   0  0  0  0  0  0  0  0  0  0  0  0
  158.6110  211.2010  153.2090 C   0  0  2  0  0  3  0  0  0  0  0  0
  160.6530  210.4350  155.5580 C   0  0  0  0  0  3  0  0  0  0  0  0
  158.8810  213.7850  155.8100 C   0  0  0  0  0  3  0  0  0  0  0  0
  159.1530  212.4690  155.4190 C   0  0  0  0  0  0  0  0  0  0  0  0
  161.1350  212.4880  156.8300 C   0  0  0  0  0  3  0  0  0  0  0  0
  160.3050  211.8180  155.9260 C   0  0  0  0  0  0  0  0  0  0  0  0
  158.1270  211.7670  154.5610 C   0  0  2  0  0  3  0  0  0  0  0  0
  159.7330  214.4530  156.6920 C   0  0  0  0  0  3  0  0  0  0  0  0
  160.8550  213.8030  157.2070 C   0  0  0  0  0  3  0  0  0  0  0  0
  160.1130  210.8610  153.1880 C   0  0  2  0  0  3  0  0  0  0  0  0
  160.5550  207.5400  155.1490 C   0  0  0  0  0  0  0  0  0  0  0  0
  160.7240  206.1770  154.8800 C   0  0  0  0  0  3  0  0  0  0  0  0
  160.2300  208.0110  156.8120 Cl  0  0  0  0  0  0  0  0  0  0  0  0
  161.0190  208.0340  152.8190 C   0  0  0  0  0  3  0  0  0  0  0  0
  161.5790  206.1330  150.9430 Cl  0  0  0  0  0  0  0  0  0  0  0  0
  160.6990  208.4850  154.1080 C   0  0  0  0  0  0  0  0  0  0  0  0
  161.0340  205.7440  153.5900 C   0  0  0  0  0  3  0  0  0  0  0  0
  161.1840  206.6730  152.5600 C   0  0  0  0  0  0  0  0  0  0  0  0
  156.0060  210.5930  154.6880 O   0  0  0  0  0  1  0  0  0  0  0  0
  157.2020  210.8450  155.3620 C   0  0  2  0  0  3  0  0  0  0  0  0
  156.9220  211.3950  156.7260 C   0  0  0  0  0  3  0  0  0  0  0  0
  155.7770  211.6090  157.0940 O   0  0  0  0  0  0  0  0  0  0  0  0
  160.6020  210.3700  151.8220 C   0  0  0  0  0  2  0  0  0  0  0  0
  162.1410  210.9680  150.0960 O   0  0  0  0  0  1  0  0  0  0  0  0
  161.9580  210.9650  151.4800 C   0  0  0  0  0  2  0  0  0  0  0  0
  158.2630  212.2280  152.1340 C   0  0  0  0  0  2  0  0  0  0  0  0
  159.5800  213.6240  150.7140 O   0  0  0  0  0  1  0  0  0  0  0  0
  159.3140  213.3210  152.0490 C   0  0  1  0  0  3  0  0  0  0  0  0
  158.8500  214.4530  152.6900 F   0  0  0  0  0  0  0  0  0  0  0  0
  1  3  2  0  0  0  0
  2 27  1  6  0  0  0
  2  8  1  0  0  0  0
  3  7  1  0  0  0  0
  4  9  1  0  0  0  0
  5  4  2  0  0  0  0
  5  7  1  0  0  0  0
  6 10  1  0  0  0  0
  7  6  2  0  0  0  0
  8 21  1  1  0  0  0
  8  5  1  0  0  0  0
  9 10  2  0  0  0  0
 11 24  1  6  0  0  0
 11  2  1  0  0  0  0
 11  1  1  0  0  0  0
 12 14  1  0  0  0  0
 13 12  1  0  0  0  0
 15 17  1  0  0  0  0
 16 19  1  0  0  0  0
 17  1  1  0  0  0  0
 17 12  2  0  0  0  0
 18 13  2  0  0  0  0
 19 15  2  0  0  0  0
 19 18  1  0  0  0  0
 21 20  1  6  0  0  0
 21 22  1  0  0  0  0
 22 23  2  0  0  0  0
 25 26  1  0  0  0  0
 26 24  1  0  0  0  0
 29 28  1  6  0  0  0
 29 27  1  0  0  0  0
 29 30  1  0  0  0  0
M  END
>  <MODEL>
2

>  <REMARK>
 VINA RESULT:      -2.9      2.745      4.253
  Name = 
  7 active torsions:
  status: ('A' for Active; 'I' for Inactive)
    1  A    between atoms: C_1  and  C_22
    2  A    between atoms: C_4  and  C_25
    3  A    between atoms: C_7  and  C_30
    4  A    between atoms: C_10  and  C_23
    5  A    between atoms: C_10  and  C_26
    6  A    between atoms: C_11  and  C_25
    7  A    between atoms: C_13  and  C_30
                            x       y       z     vdW  Elec       q    Type
                         _______ _______ _______ _____ _____    ______ ____

>  <TORSDO>
F 7

$$$$
=
 OpenBabel11052421463D

 30 32  0  0  1  0  0  0  0  0999 V2000
  159.4940  210.3340  153.5590 C   0  0  0  0  0  0  0  0  0  0  0  0
  160.4980  211.0340  155.7900 C   0  0  2  0  0  3  0  0  0  0  0  0
  158.2430  210.8080  153.5230 C   0  0  0  0  0  3  0  0  0  0  0  0
  157.1090  211.7370  157.0270 C   0  0  0  0  0  3  0  0  0  0  0  0
  157.9500  211.5570  155.9220 C   0  0  0  0  0  0  0  0  0  0  0  0
  156.0550  210.7140  154.6500 C   0  0  0  0  0  3  0  0  0  0  0  0
  157.4170  211.0240  154.7230 C   0  0  0  0  0  0  0  0  0  0  0  0
  159.3710  212.0580  156.0360 C   0  0  2  0  0  3  0  0  0  0  0  0
  155.7570  211.3970  156.9510 C   0  0  0  0  0  3  0  0  0  0  0  0
  155.2290  210.8920  155.7610 C   0  0  0  0  0  3  0  0  0  0  0  0
  160.0790  209.8650  154.8760 C   0  0  2  0  0  3  0  0  0  0  0  0
  160.5500  211.5410  151.5900 C   0  0  0  0  0  0  0  0  0  0  0  0
  161.3340  211.4960  150.4320 C   0  0  0  0  0  3  0  0  0  0  0  0
  159.8470  213.0880  152.0430 Cl  0  0  0  0  0  0  0  0  0  0  0  0
  160.8520  209.1470  151.8580 C   0  0  0  0  0  3  0  0  0  0  0  0
  162.3090  207.5970  150.1510 Cl  0  0  0  0  0  0  0  0  0  0  0  0
  160.3050  210.3550  152.3190 C   0  0  0  0  0  0  0  0  0  0  0  0
  161.8780  210.2890  149.9920 C   0  0  0  0  0  3  0  0  0  0  0  0
  161.6340  209.1140  150.7040 C   0  0  0  0  0  0  0  0  0  0  0  0
  160.4080  214.2500  156.1500 O   0  0  0  0  0  1  0  0  0  0  0  0
  159.5790  213.4290  155.3840 C   0  0  2  0  0  3  0  0  0  0  0  0
  158.2760  214.1150  155.1140 C   0  0  0  0  0  3  0  0  0  0  0  0
  157.9620  214.4450  153.9810 O   0  0  0  0  0  0  0  0  0  0  0  0
  161.1780  208.8150  154.6970 C   0  0  0  0  0  2  0  0  0  0  0  0
  160.5170  207.1760  156.3030 O   0  0  0  0  0  1  0  0  0  0  0  0
  160.6400  207.4140  154.9330 C   0  0  0  0  0  2  0  0  0  0  0  0
  160.9620  210.5280  157.1540 C   0  0  0  0  0  2  0  0  0  0  0  0
  162.9560  209.2190  157.2600 O   0  0  0  0  0  1  0  0  0  0  0  0
  162.4770  210.5290  157.2610 C   0  0  1  0  0  3  0  0  0  0  0  0
  163.0110  211.2110  156.1850 F   0  0  0  0  0  0  0  0  0  0  0  0
  1 11  1  0  0  0  0
  2  8  1  0  0  0  0
  2 27  1  1  0  0  0
  3  1  2  0  0  0  0
  3  7  1  0  0  0  0
  5  8  1  0  0  0  0
  5  4  2  0  0  0  0
  6  7  2  0  0  0  0
  6 10  1  0  0  0  0
  7  5  1  0  0  0  0
  8 21  1  6  0  0  0
  9  4  1  0  0  0  0
 10  9  2  0  0  0  0
 11 24  1  6  0  0  0
 11  2  1  0  0  0  0
 12 14  1  0  0  0  0
 12 17  1  0  0  0  0
 13 12  2  0  0  0  0
 15 17  2  0  0  0  0
 16 19  1  0  0  0  0
 17  1  1  0  0  0  0
 18 13  1  0  0  0  0
 18 19  2  0  0  0  0
 19 15  1  0  0  0  0
 21 20  1  1  0  0  0
 22 21  1  0  0  0  0
 23 22  2  0  0  0  0
 24 26  1  0  0  0  0
 26 25  1  0  0  0  0
 27 29  1  0  0  0  0
 28 29  1  0  0  0  0
 29 30  1  6  0  0  0
M  END
>  <MODEL>
3

>  <REMARK>
 VINA RESULT:      -2.7      2.279      5.113
  Name = 
  7 active torsions:
  status: ('A' for Active; 'I' for Inactive)
    1  A    between atoms: C_1  and  C_22
    2  A    between atoms: C_4  and  C_25
    3  A    between atoms: C_7  and  C_30
    4  A    between atoms: C_10  and  C_23
    5  A    between atoms: C_10  and  C_26
    6  A    between atoms: C_11  and  C_25
    7  A    between atoms: C_13  and  C_30
                            x       y       z     vdW  Elec       q    Type
                         _______ _______ _______ _____ _____    ______ ____

>  <TORSDO>
F 7

$$$$
=
 OpenBabel11052421463D

 30 32  0  0  1  0  0  0  0  0999 V2000
  160.6810  210.2660  153.6870 C   0  0  0  0  0  0  0  0  0  0  0  0
  158.9100  211.8020  152.6970 C   0  0  2  0  0  3  0  0  0  0  0  0
  160.7320  210.5170  155.0000 C   0  0  0  0  0  3  0  0  0  0  0  0
  159.0660  213.8470  155.7480 C   0  0  0  0  0  3  0  0  0  0  0  0
  159.3210  212.6130  155.1380 C   0  0  0  0  0  0  0  0  0  0  0  0
  161.1850  212.2750  156.6650 C   0  0  0  0  0  3  0  0  0  0  0  0
  160.4050  211.8240  155.5950 C   0  0  0  0  0  0  0  0  0  0  0  0
  158.3410  212.1330  154.0930 C   0  0  2  0  0  3  0  0  0  0  0  0
  159.8680  214.2990  156.7980 C   0  0  0  0  0  3  0  0  0  0  0  0
  160.9230  213.5100  157.2600 C   0  0  0  0  0  3  0  0  0  0  0  0
  160.3970  211.3970  152.7190 C   0  0  2  0  0  3  0  0  0  0  0  0
  160.8620  207.7670  154.1050 C   0  0  0  0  0  0  0  0  0  0  0  0
  160.9870  206.4690  153.5980 C   0  0  0  0  0  3  0  0  0  0  0  0
  160.8270  207.9630  155.8520 Cl  0  0  0  0  0  0  0  0  0  0  0  0
  160.9180  208.6320  151.8380 C   0  0  0  0  0  3  0  0  0  0  0  0
  161.1520  207.0650  149.6170 Cl  0  0  0  0  0  0  0  0  0  0  0  0
  160.8230  208.8670  153.2180 C   0  0  0  0  0  0  0  0  0  0  0  0
  161.0710  206.2520  152.2220 C   0  0  0  0  0  3  0  0  0  0  0  0
  161.0400  207.3340  151.3430 C   0  0  0  0  0  0  0  0  0  0  0  0
  156.0570  211.3130  154.0850 O   0  0  0  0  0  1  0  0  0  0  0  0
  157.3240  211.1260  154.6400 C   0  0  2  0  0  3  0  0  0  0  0  0
  157.2480  211.1760  156.1350 C   0  0  0  0  0  3  0  0  0  0  0  0
  156.2660  211.6320  156.6990 O   0  0  0  0  0  0  0  0  0  0  0  0
  160.9740  211.1430  151.3240 C   0  0  0  0  0  2  0  0  0  0  0  0
  161.5680  212.1690  149.2510 O   0  0  0  0  0  1  0  0  0  0  0  0
  161.0590  212.4320  150.5240 C   0  0  0  0  0  2  0  0  0  0  0  0
  158.6850  213.0250  151.8110 C   0  0  0  0  0  2  0  0  0  0  0  0
  156.6160  214.1950  151.5720 O   0  0  0  0  0  1  0  0  0  0  0  0
  157.2880  213.0260  151.2120 C   0  0  1  0  0  3  0  0  0  0  0  0
  157.3820  212.9600  149.8360 F   0  0  0  0  0  0  0  0  0  0  0  0
  1  3  2  0  0  0  0
  2 27  1  6  0  0  0
  2 11  1  0  0  0  0
  2  8  1  0  0  0  0
  3  7  1  0  0  0  0
  4  9  1  0  0  0  0
  5  7  1  0  0  0  0
  5  4  2  0  0  0  0
  6 10  1  0  0  0  0
  7  6  2  0  0  0  0
  8 21  1  1  0  0  0
  8  5  1  0  0  0  0
  9 10  2  0  0  0  0
 11 24  1  6  0  0  0
 11  1  1  0  0  0  0
 12 14  1  0  0  0  0
 13 12  1  0  0  0  0
 15 17  1  0  0  0  0
 16 19  1  0  0  0  0
 17  1  1  0  0  0  0
 17 12  2  0  0  0  0
 18 13  2  0  0  0  0
 19 15  2  0  0  0  0
 19 18  1  0  0  0  0
 21 20  1  6  0  0  0
 21 22  1  0  0  0  0
 22 23  2  0  0  0  0
 25 26  1  0  0  0  0
 26 24  1  0  0  0  0
 29 30  1  6  0  0  0
 29 28  1  0  0  0  0
 29 27  1  0  0  0  0
M  END
>  <MODEL>
4

>  <REMARK>
 VINA RESULT:      -2.5      2.745      3.963
  Name = 
  7 active torsions:
  status: ('A' for Active; 'I' for Inactive)
    1  A    between atoms: C_1  and  C_22
    2  A    between atoms: C_4  and  C_25
    3  A    between atoms: C_7  and  C_30
    4  A    between atoms: C_10  and  C_23
    5  A    between atoms: C_10  and  C_26
    6  A    between atoms: C_11  and  C_25
    7  A    between atoms: C_13  and  C_30
                            x       y       z     vdW  Elec       q    Type
                         _______ _______ _______ _____ _____    ______ ____

>  <TORSDO>
F 7

$$$$
=
 OpenBabel11052421463D

 30 32  0  0  1  0  0  0  0  0999 V2000
  158.8290  211.9420  153.9130 C   0  0  0  0  0  0  0  0  0  0  0  0
  160.5220  211.1010  155.6170 C   0  0  2  0  0  3  0  0  0  0  0  0
  159.0410  211.2640  152.7790 C   0  0  0  0  0  3  0  0  0  0  0  0
  162.4670  209.6280  152.8670 C   0  0  0  0  0  3  0  0  0  0  0  0
  161.2340  210.1200  153.3110 C   0  0  0  0  0  0  0  0  0  0  0  0
  160.7140  210.7960  151.0330 C   0  0  0  0  0  3  0  0  0  0  0  0
  160.3530  210.7250  152.3820 C   0  0  0  0  0  0  0  0  0  0  0  0
  160.8590  209.8680  154.7530 C   0  0  2  0  0  3  0  0  0  0  0  0
  162.8280  209.7300  151.5220 C   0  0  0  0  0  3  0  0  0  0  0  0
  161.9490  210.3070  150.6040 C   0  0  0  0  0  3  0  0  0  0  0  0
  160.0050  212.3010  154.8000 C   0  0  2  0  0  3  0  0  0  0  0  0
  156.7090  213.3320  153.7590 C   0  0  0  0  0  0  0  0  0  0  0  0
  155.3930  213.5670  154.1720 C   0  0  0  0  0  3  0  0  0  0  0  0
  157.4160  214.4510  152.6020 Cl  0  0  0  0  0  0  0  0  0  0  0  0
  156.8220  211.4420  155.2780 C   0  0  0  0  0  3  0  0  0  0  0  0
  154.7610  210.6540  156.8820 Cl  0  0  0  0  0  0  0  0  0  0  0  0
  157.4370  212.2540  154.3140 C   0  0  0  0  0  0  0  0  0  0  0  0
  154.7920  212.7440  155.1260 C   0  0  0  0  0  3  0  0  0  0  0  0
  155.5090  211.6840  155.6810 C   0  0  0  0  0  0  0  0  0  0  0  0
  159.1270  208.7930  156.0720 O   0  0  0  0  0  1  0  0  0  0  0  0
  159.9180  208.6710  154.9280 C   0  0  2  0  0  3  0  0  0  0  0  0
  160.6700  207.3770  154.9540 C   0  0  0  0  0  3  0  0  0  0  0  0
  161.0210  206.8340  153.9180 O   0  0  0  0  0  0  0  0  0  0  0  0
  159.7450  213.5450  155.6540 C   0  0  0  0  0  2  0  0  0  0  0  0
  158.0210  213.9360  157.2610 O   0  0  0  0  0  1  0  0  0  0  0  0
  159.1590  213.1690  157.0050 C   0  0  0  0  0  2  0  0  0  0  0  0
  161.7820  211.4680  156.3980 C   0  0  0  0  0  2  0  0  0  0  0  0
  163.8820  210.6610  157.1990 O   0  0  0  0  0  1  0  0  0  0  0  0
  162.7150  210.2770  156.5360 C   0  0  1  0  0  3  0  0  0  0  0  0
  162.0850  209.2840  157.2600 F   0  0  0  0  0  0  0  0  0  0  0  0
  1 17  1  0  0  0  0
  1 11  1  0  0  0  0
  2 27  1  6  0  0  0
  3  1  2  0  0  0  0
  4  5  1  0  0  0  0
  5  8  1  0  0  0  0
  6  7  1  0  0  0  0
  7  3  1  0  0  0  0
  7  5  2  0  0  0  0
  8 21  1  6  0  0  0
  8  2  1  0  0  0  0
  9  4  2  0  0  0  0
 10  6  2  0  0  0  0
 10  9  1  0  0  0  0
 11  2  1  0  0  0  0
 11 24  1  1  0  0  0
 12 13  2  0  0  0  0
 12 17  1  0  0  0  0
 13 18  1  0  0  0  0
 14 12  1  0  0  0  0
 15 19  1  0  0  0  0
 17 15  2  0  0  0  0
 18 19  2  0  0  0  0
 19 16  1  0  0  0  0
 21 22  1  0  0  0  0
 21 20  1  1  0  0  0
 23 22  2  0  0  0  0
 24 26  1  0  0  0  0
 26 25  1  0  0  0  0
 27 29  1  0  0  0  0
 29 28  1  1  0  0  0
 29 30  1  0  0  0  0
M  END
>  <MODEL>
5

>  <REMARK>
 VINA RESULT:      -2.5      3.190      5.660
  Name = 
  7 active torsions:
  status: ('A' for Active; 'I' for Inactive)
    1  A    between atoms: C_1  and  C_22
    2  A    between atoms: C_4  and  C_25
    3  A    between atoms: C_7  and  C_30
    4  A    between atoms: C_10  and  C_23
    5  A    between atoms: C_10  and  C_26
    6  A    between atoms: C_11  and  C_25
    7  A    between atoms: C_13  and  C_30
                            x       y       z     vdW  Elec       q    Type
                         _______ _______ _______ _____ _____    ______ ____

>  <TORSDO>
F 7

$$$$
=
 OpenBabel11052421463D

 30 32  0  0  1  0  0  0  0  0999 V2000
  158.7210  210.9420  155.1020 C   0  0  0  0  0  0  0  0  0  0  0  0
  160.7170  211.1070  153.5320 C   0  0  2  0  0  3  0  0  0  0  0  0
  158.9250  209.8790  155.8890 C   0  0  0  0  0  3  0  0  0  0  0  0
  161.5890  207.6360  154.3740 C   0  0  0  0  0  3  0  0  0  0  0  0
  160.8990  208.8010  154.7300 C   0  0  0  0  0  0  0  0  0  0  0  0
  159.2430  207.4370  155.8780 C   0  0  0  0  0  3  0  0  0  0  0  0
  159.7020  208.6970  155.4800 C   0  0  0  0  0  0  0  0  0  0  0  0
  161.5410  210.1260  154.3920 C   0  0  2  0  0  3  0  0  0  0  0  0
  161.1060  206.3820  154.7530 C   0  0  0  0  0  3  0  0  0  0  0  0
  159.9370  206.2830  155.5110 C   0  0  0  0  0  3  0  0  0  0  0  0
  159.1940  210.9080  153.6630 C   0  0  2  0  0  3  0  0  0  0  0  0
  158.8260  213.0490  156.5160 C   0  0  0  0  0  0  0  0  0  0  0  0
  158.1920  214.1880  157.0250 C   0  0  0  0  0  3  0  0  0  0  0  0
  160.4890  212.7510  157.0020 Cl  0  0  0  0  0  0  0  0  0  0  0  0
  156.7640  212.4350  155.3910 C   0  0  0  0  0  3  0  0  0  0  0  0
  154.4660  213.9010  155.5200 Cl  0  0  0  0  0  0  0  0  0  0  0  0
  158.1080  212.1590  155.6840 C   0  0  0  0  0  0  0  0  0  0  0  0
  156.8570  214.4530  156.7170 C   0  0  0  0  0  3  0  0  0  0  0  0
  156.1420  213.5750  155.9030 C   0  0  0  0  0  0  0  0  0  0  0  0
  163.6260  210.9820  155.2930 O   0  0  0  0  0  1  0  0  0  0  0  0
  162.2790  210.7560  155.5790 C   0  0  2  0  0  3  0  0  0  0  0  0
  162.1420  209.9260  156.8170 C   0  0  0  0  0  3  0  0  0  0  0  0
  163.0680  209.2370  157.2160 O   0  0  0  0  0  0  0  0  0  0  0  0
  158.3850  211.8340  152.7510 C   0  0  0  0  0  2  0  0  0  0  0  0
  159.2130  213.5080  151.2610 O   0  0  0  0  0  1  0  0  0  0  0  0
  159.0570  213.1900  152.6120 C   0  0  0  0  0  2  0  0  0  0  0  0
  161.1730  210.9390  152.0850 C   0  0  0  0  0  2  0  0  0  0  0  0
  161.9000  209.0180  150.8670 O   0  0  0  0  0  1  0  0  0  0  0  0
  162.2090  209.8350  151.9540 C   0  0  1  0  0  3  0  0  0  0  0  0
  163.4550  210.3990  151.7610 F   0  0  0  0  0  0  0  0  0  0  0  0
  1 17  1  0  0  0  0
  1  3  2  0  0  0  0
  2 27  1  6  0  0  0
  2 11  1  0  0  0  0
  2  8  1  0  0  0  0
  4  5  2  0  0  0  0
  4  9  1  0  0  0  0
  5  7  1  0  0  0  0
  7  6  2  0  0  0  0
  7  3  1  0  0  0  0
  8  5  1  0  0  0  0
  8 21  1  1  0  0  0
  9 10  2  0  0  0  0
 10  6  1  0  0  0  0
 11 24  1  6  0  0  0
 11  1  1  0  0  0  0
 12 14  1  0  0  0  0
 12 13  1  0  0  0  0
 15 17  1  0  0  0  0
 15 19  2  0  0  0  0
 16 19  1  0  0  0  0
 17 12  2  0  0  0  0
 18 13  2  0  0  0  0
 19 18  1  0  0  0  0
 21 20  1  6  0  0  0
 21 22  1  0  0  0  0
 22 23  2  0  0  0  0
 25 26  1  0  0  0  0
 26 24  1  0  0  0  0
 29 28  1  6  0  0  0
 29 27  1  0  0  0  0
 30 29  1  0  0  0  0
M  END
>  <MODEL>
6

>  <REMARK>
 VINA RESULT:      -2.3      3.421      6.092
  Name = 
  7 active torsions:
  status: ('A' for Active; 'I' for Inactive)
    1  A    between atoms: C_1  and  C_22
    2  A    between atoms: C_4  and  C_25
    3  A    between atoms: C_7  and  C_30
    4  A    between atoms: C_10  and  C_23
    5  A    between atoms: C_10  and  C_26
    6  A    between atoms: C_11  and  C_25
    7  A    between atoms: C_13  and  C_30
                            x       y       z     vdW  Elec       q    Type
                         _______ _______ _______ _____ _____    ______ ____

>  <TORSDO>
F 7

$$$$
=
 OpenBabel11052421463D

 30 32  0  0  1  0  0  0  0  0999 V2000
  159.7920  212.8600  141.0420 C   0  0  0  0  0  0  0  0  0  0  0  0
  161.4570  211.9710  139.3350 C   0  0  2  0  0  3  0  0  0  0  0  0
  158.6640  212.1540  140.8980 C   0  0  0  0  0  3  0  0  0  0  0  0
  158.6750  210.3650  137.5480 C   0  0  0  0  0  3  0  0  0  0  0  0
  159.1480  210.9200  138.7430 C   0  0  0  0  0  0  0  0  0  0  0  0
  156.8750  211.5810  139.3050 C   0  0  0  0  0  3  0  0  0  0  0  0
  158.2370  211.5490  139.6250 C   0  0  0  0  0  0  0  0  0  0  0  0
  160.6050  210.7090  139.0830 C   0  0  2  0  0  3  0  0  0  0  0  0
  157.3170  210.4280  137.2260 C   0  0  0  0  0  3  0  0  0  0  0  0
  156.4170  211.0290  138.1080 C   0  0  0  0  0  3  0  0  0  0  0  0
  160.6350  213.1800  139.8240 C   0  0  2  0  0  3  0  0  0  0  0  0
  159.3710  213.8770  143.3310 C   0  0  0  0  0  0  0  0  0  0  0  0
  159.8420  214.2010  144.6080 C   0  0  0  0  0  3  0  0  0  0  0  0
  157.7260  214.3460  142.9230 Cl  0  0  0  0  0  0  0  0  0  0  0  0
  161.5490  212.9540  142.7870 C   0  0  0  0  0  3  0  0  0  0  0  0
  163.6570  212.9080  144.5190 Cl  0  0  0  0  0  0  0  0  0  0  0  0
  160.2300  213.2410  142.4060 C   0  0  0  0  0  0  0  0  0  0  0  0
  161.1550  213.9010  144.9760 C   0  0  0  0  0  3  0  0  0  0  0  0
  162.0090  213.2800  144.0640 C   0  0  0  0  0  0  0  0  0  0  0  0
  162.0110  209.7230  140.7980 O   0  0  0  0  0  1  0  0  0  0  0  0
  160.8320  209.5590  140.0700 C   0  0  2  0  0  3  0  0  0  0  0  0
  160.8280  208.2310  139.3800 C   0  0  0  0  0  3  0  0  0  0  0  0
  161.8270  207.5290  139.3650 O   0  0  0  0  0  0  0  0  0  0  0  0
  161.4740  214.4480  140.0000 C   0  0  0  0  0  2  0  0  0  0  0  0
  163.7020  214.4530  140.8600 O   0  0  0  0  0  1  0  0  0  0  0  0
  162.9430  214.1760  139.7220 C   0  0  0  0  0  2  0  0  0  0  0  0
  162.1910  212.2930  138.0360 C   0  0  0  0  0  2  0  0  0  0  0  0
  163.9590  211.0610  139.0670 O   0  0  0  0  0  1  0  0  0  0  0  0
  163.3890  211.3800  137.8340 C   0  0  1  0  0  3  0  0  0  0  0  0
  162.9780  210.2190  137.2080 F   0  0  0  0  0  0  0  0  0  0  0  0
  1 17  1  0  0  0  0
  2 27  1  6  0  0  0
  2 11  1  0  0  0  0
  3  1  2  0  0  0  0
  4  5  1  0  0  0  0
  5  8  1  0  0  0  0
  5  7  2  0  0  0  0
  6  7  1  0  0  0  0
  7  3  1  0  0  0  0
  8  2  1  0  0  0  0
  8 21  1  1  0  0  0
  9  4  2  0  0  0  0
  9 10  1  0  0  0  0
 10  6  2  0  0  0  0
 11 24  1  1  0  0  0
 11  1  1  0  0  0  0
 12 13  1  0  0  0  0
 13 18  2  0  0  0  0
 14 12  1  0  0  0  0
 15 19  2  0  0  0  0
 17 15  1  0  0  0  0
 17 12  2  0  0  0  0
 19 16  1  0  0  0  0
 19 18  1  0  0  0  0
 21 20  1  6  0  0  0
 22 21  1  0  0  0  0
 23 22  2  0  0  0  0
 26 24  1  0  0  0  0
 26 25  1  0  0  0  0
 29 30  1  1  0  0  0
 29 27  1  0  0  0  0
 29 28  1  0  0  0  0
M  END
>  <MODEL>
7

>  <REMARK>
 VINA RESULT:      -2.1     10.952     14.627
  Name = 
  7 active torsions:
  status: ('A' for Active; 'I' for Inactive)
    1  A    between atoms: C_1  and  C_22
    2  A    between atoms: C_4  and  C_25
    3  A    between atoms: C_7  and  C_30
    4  A    between atoms: C_10  and  C_23
    5  A    between atoms: C_10  and  C_26
    6  A    between atoms: C_11  and  C_25
    7  A    between atoms: C_13  and  C_30
                            x       y       z     vdW  Elec       q    Type
                         _______ _______ _______ _____ _____    ______ ____

>  <TORSDO>
F 7

$$$$
=
 OpenBabel11052421463D

 30 32  0  0  1  0  0  0  0  0999 V2000
  161.4150  209.1000  153.0180 C   0  0  0  0  0  0  0  0  0  0  0  0
  160.2250  211.2260  152.2840 C   0  0  2  0  0  3  0  0  0  0  0  0
  161.3580  209.0570  154.3540 C   0  0  0  0  0  3  0  0  0  0  0  0
  160.4900  212.4900  155.7250 C   0  0  0  0  0  3  0  0  0  0  0  0
  160.5060  211.3830  154.8690 C   0  0  0  0  0  0  0  0  0  0  0  0
  162.0150  210.2510  156.4050 C   0  0  0  0  0  3  0  0  0  0  0  0
  161.2920  210.2540  155.2080 C   0  0  0  0  0  0  0  0  0  0  0  0
  159.5810  211.4090  153.6740 C   0  0  2  0  0  3  0  0  0  0  0  0
  161.2370  212.4850  156.9050 C   0  0  0  0  0  3  0  0  0  0  0  0
  161.9940  211.3630  157.2480 C   0  0  0  0  0  3  0  0  0  0  0  0
  161.5490  210.4370  152.3180 C   0  0  2  0  0  3  0  0  0  0  0  0
  161.0720  206.5870  152.8780 C   0  0  0  0  0  0  0  0  0  0  0  0
  160.9250  205.4350  152.0970 C   0  0  0  0  0  3  0  0  0  0  0  0
  161.0730  206.3970  154.6260 Cl  0  0  0  0  0  0  0  0  0  0  0  0
  161.3130  207.9010  150.8510 C   0  0  0  0  0  3  0  0  0  0  0  0
  161.2210  206.8480  148.3360 Cl  0  0  0  0  0  0  0  0  0  0  0  0
  161.2650  207.8400  152.2520 C   0  0  0  0  0  0  0  0  0  0  0  0
  160.9660  205.5140  150.7050 C   0  0  0  0  0  3  0  0  0  0  0  0
  161.1630  206.7460  150.0820 C   0  0  0  0  0  0  0  0  0  0  0  0
  157.1620  211.3470  153.4920 O   0  0  0  0  0  1  0  0  0  0  0  0
  158.2840  210.6260  153.9030 C   0  0  2  0  0  3  0  0  0  0  0  0
  158.1370  210.2070  155.3320 C   0  0  0  0  0  3  0  0  0  0  0  0
  157.3730  210.7940  156.0830 O   0  0  0  0  0  0  0  0  0  0  0  0
  162.2190  210.3250  150.9460 C   0  0  0  0  0  2  0  0  0  0  0  0
  161.9170  210.8650  148.6390 O   0  0  0  0  0  1  0  0  0  0  0  0
  161.5500  211.2390  149.9330 C   0  0  0  0  0  2  0  0  0  0  0  0
  160.4260  212.6170  151.6880 C   0  0  0  0  0  2  0  0  0  0  0  0
  159.2780  214.4470  150.6720 O   0  0  0  0  0  1  0  0  0  0  0  0
  159.1020  213.3360  151.4980 C   0  0  1  0  0  3  0  0  0  0  0  0
  158.1930  212.4750  150.9150 F   0  0  0  0  0  0  0  0  0  0  0  0
  1  3  2  0  0  0  0
  2 27  1  1  0  0  0
  2 11  1  0  0  0  0
  2  8  1  0  0  0  0
  3  7  1  0  0  0  0
  4  9  1  0  0  0  0
  5  7  1  0  0  0  0
  5  4  2  0  0  0  0
  6 10  1  0  0  0  0
  7  6  2  0  0  0  0
  8 21  1  1  0  0  0
  8  5  1  0  0  0  0
  9 10  2  0  0  0  0
 11 24  1  6  0  0  0
 11  1  1  0  0  0  0
 12 14  1  0  0  0  0
 13 12  2  0  0  0  0
 15 17  2  0  0  0  0
 16 19  1  0  0  0  0
 17 12  1  0  0  0  0
 17  1  1  0  0  0  0
 18 13  1  0  0  0  0
 19 18  2  0  0  0  0
 19 15  1  0  0  0  0
 21 20  1  1  0  0  0
 21 22  1  0  0  0  0
 22 23  2  0  0  0  0
 25 26  1  0  0  0  0
 26 24  1  0  0  0  0
 29 28  1  6  0  0  0
 29 27  1  0  0  0  0
 30 29  1  0  0  0  0
M  END
>  <MODEL>
8

>  <REMARK>
 VINA RESULT:      -2.1      2.296      3.557
  Name = 
  7 active torsions:
  status: ('A' for Active; 'I' for Inactive)
    1  A    between atoms: C_1  and  C_22
    2  A    between atoms: C_4  and  C_25
    3  A    between atoms: C_7  and  C_30
    4  A    between atoms: C_10  and  C_23
    5  A    between atoms: C_10  and  C_26
    6  A    between atoms: C_11  and  C_25
    7  A    between atoms: C_13  and  C_30
                            x       y       z     vdW  Elec       q    Type
                         _______ _______ _______ _____ _____    ______ ____

>  <TORSDO>
F 7

$$$$
=
 OpenBabel11052421463D

 30 32  0  0  1  0  0  0  0  0999 V2000
  161.1570  210.8280  140.4800 C   0  0  0  0  0  0  0  0  0  0  0  0
  160.9750  213.1370  139.4260 C   0  0  2  0  0  3  0  0  0  0  0  0
  160.4450  210.8540  141.6120 C   0  0  0  0  0  3  0  0  0  0  0  0
  159.7900  214.4490  142.6490 C   0  0  0  0  0  3  0  0  0  0  0  0
  159.9820  213.3330  141.8260 C   0  0  0  0  0  0  0  0  0  0  0  0
  160.2570  211.9510  143.8100 C   0  0  0  0  0  3  0  0  0  0  0  0
  160.2330  212.0700  142.4160 C   0  0  0  0  0  0  0  0  0  0  0  0
  159.7910  213.5190  140.3390 C   0  0  2  0  0  3  0  0  0  0  0  0
  159.8430  214.3230  144.0390 C   0  0  0  0  0  3  0  0  0  0  0  0
  160.0700  213.0730  144.6190 C   0  0  0  0  0  3  0  0  0  0  0  0
  161.9040  212.0700  140.0370 C   0  0  2  0  0  3  0  0  0  0  0  0
  160.3400  209.4990  138.4760 C   0  0  0  0  0  0  0  0  0  0  0  0
  160.3680  208.3210  137.7220 C   0  0  0  0  0  3  0  0  0  0  0  0
  159.2540  210.7800  137.9530 Cl  0  0  0  0  0  0  0  0  0  0  0  0
  161.9250  208.5150  140.0280 C   0  0  0  0  0  3  0  0  0  0  0  0
  162.9500  206.0000  139.7660 Cl  0  0  0  0  0  0  0  0  0  0  0  0
  161.1300  209.6050  139.6430 C   0  0  0  0  0  0  0  0  0  0  0  0
  161.1700  207.2490  138.1140 C   0  0  0  0  0  3  0  0  0  0  0  0
  161.9470  207.3450  139.2690 C   0  0  0  0  0  0  0  0  0  0  0  0
  158.2410  213.3000  138.4840 O   0  0  0  0  0  1  0  0  0  0  0  0
  158.4130  213.0620  139.8490 C   0  0  2  0  0  3  0  0  0  0  0  0
  157.3090  213.7020  140.6310 C   0  0  0  0  0  3  0  0  0  0  0  0
  156.1730  213.2550  140.5950 O   0  0  0  0  0  0  0  0  0  0  0  0
  163.1170  211.7520  139.1590 C   0  0  0  0  0  2  0  0  0  0  0  0
  165.4920  211.9580  139.0220 O   0  0  0  0  0  1  0  0  0  0  0  0
  164.4150  211.9940  139.9100 C   0  0  0  0  0  2  0  0  0  0  0  0
  161.7400  214.4200  139.1110 C   0  0  0  0  0  2  0  0  0  0  0  0
  163.6150  214.4330  137.6310 O   0  0  0  0  0  1  0  0  0  0  0  0
  162.2200  214.4410  137.6700 C   0  0  1  0  0  3  0  0  0  0  0  0
  161.7400  213.3260  137.0120 F   0  0  0  0  0  0  0  0  0  0  0  0
  1  3  2  0  0  0  0
  2 27  1  1  0  0  0
  2 11  1  0  0  0  0
  2  8  1  0  0  0  0
  3  7  1  0  0  0  0
  4  9  1  0  0  0  0
  5  7  1  0  0  0  0
  5  4  2  0  0  0  0
  6 10  1  0  0  0  0
  7  6  2  0  0  0  0
  8 21  1  6  0  0  0
  8  5  1  0  0  0  0
  9 10  2  0  0  0  0
 11 24  1  6  0  0  0
 11  1  1  0  0  0  0
 12 17  1  0  0  0  0
 13 18  1  0  0  0  0
 13 12  2  0  0  0  0
 14 12  1  0  0  0  0
 17 15  2  0  0  0  0
 17  1  1  0  0  0  0
 18 19  2  0  0  0  0
 19 16  1  0  0  0  0
 19 15  1  0  0  0  0
 21 20  1  6  0  0  0
 21 22  1  0  0  0  0
 23 22  2  0  0  0  0
 24 26  1  0  0  0  0
 25 26  1  0  0  0  0
 28 29  1  0  0  0  0
 29 30  1  6  0  0  0
 29 27  1  0  0  0  0
M  END
>  <MODEL>
9

>  <REMARK>
 VINA RESULT:      -1.8     11.322     14.209
  Name = 
  7 active torsions:
  status: ('A' for Active; 'I' for Inactive)
    1  A    between atoms: C_1  and  C_22
    2  A    between atoms: C_4  and  C_25
    3  A    between atoms: C_7  and  C_30
    4  A    between atoms: C_10  and  C_23
    5  A    between atoms: C_10  and  C_26
    6  A    between atoms: C_11  and  C_25
    7  A    between atoms: C_13  and  C_30
                            x       y       z     vdW  Elec       q    Type
                         _______ _______ _______ _____ _____    ______ ____

>  <TORSDO>
F 7

$$$$
