=
 OpenBabel11052423133D

 27 31  0  0  1  0  0  0  0  0999 V2000
  160.5510  208.0890  151.7250 C   0  0  0  0  0  3  0  0  0  0  0  0
  160.8310  210.5430  151.6730 C   0  0  0  0  0  0  0  0  0  0  0  0
  162.0970  209.7520  149.7320 N   0  0  0  0  0  0  0  0  0  0  0  0
  159.2680  213.6570  149.6170 C   0  0  0  0  0  3  0  0  0  0  0  0
  159.4410  214.2270  148.4250 C   0  0  0  0  0  3  0  0  0  0  0  0
  160.0830  211.6160  152.3630 C   0  0  0  0  0  3  0  0  0  0  0  0
  161.8580  212.3310  148.6600 C   0  0  0  0  0  3  0  0  0  0  0  0
  162.1360  206.5010  148.2110 C   0  0  0  0  0  0  0  0  0  0  0  0
  161.7910  213.5670  147.8540 C   0  0  0  0  0  3  0  0  0  0  0  0
  162.5510  206.0060  147.1320 O   0  0  0  0  0  0  0  0  0  0  0  0
  161.1950  212.0880  149.7980 C   0  0  0  0  0  0  0  0  0  0  0  0
  161.0010  209.2910  152.3590 N   0  0  0  0  0  0  0  0  0  0  0  0
  160.7400  214.3880  147.7480 C   0  0  0  0  0  3  0  0  0  0  0  0
  160.4010  213.1860  150.4660 C   0  0  2  0  0  3  0  0  0  0  0  0
  160.9450  207.7230  150.5110 C   0  0  0  0  0  0  0  0  0  0  0  0
  161.3360  210.7520  150.4390 C   0  0  0  0  0  0  0  0  0  0  0  0
  162.8600  207.6700  148.8150 C   0  0  0  0  0  2  0  0  0  0  0  0
  159.8840  212.8140  151.8210 C   0  0  0  0  0  3  0  0  0  0  0  0
  160.9930  205.8810  148.9020 C   0  0  0  0  0  3  0  0  0  0  0  0
  160.4560  206.4380  149.9880 C   0  0  0  0  0  3  0  0  0  0  0  0
  161.9750  208.4570  149.7370 C   0  0  0  0  0  0  0  0  0  0  0  0
  161.9560  209.2040  156.5090 C   0  0  0  0  0  3  0  0  0  0  0  0
  161.3430  209.2550  153.7630 C   0  0  0  0  0  0  0  0  0  0  0  0
  160.9640  208.1630  154.5620 C   0  0  0  0  0  3  0  0  0  0  0  0
  161.2710  208.1350  155.9250 C   0  0  0  0  0  3  0  0  0  0  0  0
  162.3300  210.3000  155.7290 C   0  0  0  0  0  3  0  0  0  0  0  0
  162.0230  210.3280  154.3670 C   0  0  0  0  0  3  0  0  0  0  0  0
  1 12  1  0  0  0  0
  2 12  1  0  0  0  0
  2  6  1  0  0  0  0
  3 21  2  0  0  0  0
  3 16  1  0  0  0  0
  5  4  2  0  0  0  0
  7 11  2  0  0  0  0
  8 17  1  0  0  0  0
  8 19  1  0  0  0  0
  9  7  1  0  0  0  0
 10  8  2  0  0  0  0
 11 16  1  0  0  0  0
 11 14  1  0  0  0  0
 12 23  1  0  0  0  0
 13  9  2  0  0  0  0
 13  5  1  0  0  0  0
 14  4  1  6  0  0  0
 14 18  1  0  0  0  0
 15  1  2  0  0  0  0
 16  2  2  0  0  0  0
 17 21  1  0  0  0  0
 18  6  2  0  0  0  0
 19 20  2  0  0  0  0
 20 15  1  0  0  0  0
 21 15  1  0  0  0  0
 23 27  2  0  0  0  0
 23 24  1  0  0  0  0
 24 25  2  0  0  0  0
 25 22  1  0  0  0  0
 26 22  2  0  0  0  0
 27 26  1  0  0  0  0
M  END
>  <MODEL>
1

>  <REMARK>
 VINA RESULT:      -6.5      0.000      0.000
  Name = 
  1 active torsions:
  status: ('A' for Active; 'I' for Inactive)
    1  A    between atoms: C_9  and  N_15
                            x       y       z     vdW  Elec       q    Type
                         _______ _______ _______ _____ _____    ______ ____

>  <TORSDO>
F 1

$$$$
=
 OpenBabel11052423133D

 27 31  0  0  1  0  0  0  0  0999 V2000
  160.7840  208.2660  152.7390 C   0  0  0  0  0  3  0  0  0  0  0  0
  160.5850  210.7270  152.6940 C   0  0  0  0  0  0  0  0  0  0  0  0
  161.6950  210.1750  150.5820 N   0  0  0  0  0  0  0  0  0  0  0  0
  158.1910  213.4720  150.9310 C   0  0  0  0  0  3  0  0  0  0  0  0
  158.0860  214.0540  149.7380 C   0  0  0  0  0  3  0  0  0  0  0  0
  159.7510  211.6440  153.5000 C   0  0  0  0  0  3  0  0  0  0  0  0
  160.8270  212.6530  149.6010 C   0  0  0  0  0  3  0  0  0  0  0  0
  162.1350  206.9780  149.0100 C   0  0  0  0  0  0  0  0  0  0  0  0
  160.4160  213.8470  148.8350 C   0  0  0  0  0  3  0  0  0  0  0  0
  162.4820  206.5620  147.8750 O   0  0  0  0  0  0  0  0  0  0  0  0
  160.3860  212.2970  150.8150 C   0  0  0  0  0  0  0  0  0  0  0  0
  161.0820  209.5360  153.3260 N   0  0  0  0  0  0  0  0  0  0  0  0
  159.2240  214.4530  148.8900 C   0  0  0  0  0  3  0  0  0  0  0  0
  159.5010  213.2310  151.6070 C   0  0  2  0  0  3  0  0  0  0  0  0
  161.0670  207.9700  151.4750 C   0  0  0  0  0  0  0  0  0  0  0  0
  160.8650  211.0180  151.4050 C   0  0  0  0  0  0  0  0  0  0  0  0
  162.7020  208.2680  149.5300 C   0  0  0  0  0  2  0  0  0  0  0  0
  159.2560  212.7790  153.0130 C   0  0  0  0  0  3  0  0  0  0  0  0
  161.2370  206.1580  149.8410 C   0  0  0  0  0  3  0  0  0  0  0  0
  160.7610  206.6120  151.0010 C   0  0  0  0  0  3  0  0  0  0  0  0
  161.8210  208.8800  150.5800 C   0  0  0  0  0  0  0  0  0  0  0  0
  162.7090  209.6380  157.2610 C   0  0  0  0  0  3  0  0  0  0  0  0
  161.6170  209.5770  154.6690 C   0  0  0  0  0  0  0  0  0  0  0  0
  162.4200  210.6540  155.0830 C   0  0  0  0  0  3  0  0  0  0  0  0
  162.9590  210.6860  156.3720 C   0  0  0  0  0  3  0  0  0  0  0  0
  161.9220  208.5560  156.8590 C   0  0  0  0  0  3  0  0  0  0  0  0
  161.3830  208.5240  155.5710 C   0  0  0  0  0  3  0  0  0  0  0  0
  1 12  1  0  0  0  0
  2 12  1  0  0  0  0
  2  6  1  0  0  0  0
  3 16  1  0  0  0  0
  5  4  2  0  0  0  0
  7 11  2  0  0  0  0
  8 17  1  0  0  0  0
  8 19  1  0  0  0  0
  9 13  2  0  0  0  0
  9  7  1  0  0  0  0
 10  8  2  0  0  0  0
 11 16  1  0  0  0  0
 11 14  1  0  0  0  0
 12 23  1  0  0  0  0
 13  5  1  0  0  0  0
 14  4  1  6  0  0  0
 14 18  1  0  0  0  0
 15  1  2  0  0  0  0
 16  2  2  0  0  0  0
 17 21  1  0  0  0  0
 18  6  2  0  0  0  0
 19 20  2  0  0  0  0
 20 15  1  0  0  0  0
 21  3  2  0  0  0  0
 21 15  1  0  0  0  0
 23 24  2  0  0  0  0
 23 27  1  0  0  0  0
 24 25  1  0  0  0  0
 25 22  2  0  0  0  0
 26 22  1  0  0  0  0
 27 26  2  0  0  0  0
M  END
>  <MODEL>
2

>  <REMARK>
 VINA RESULT:      -6.4      0.974      1.546
  Name = 
  1 active torsions:
  status: ('A' for Active; 'I' for Inactive)
    1  A    between atoms: C_9  and  N_15
                            x       y       z     vdW  Elec       q    Type
                         _______ _______ _______ _____ _____    ______ ____

>  <TORSDO>
F 1

$$$$
=
 OpenBabel11052423133D

 27 31  0  0  1  0  0  0  0  0999 V2000
  161.9510  209.2150  153.2540 C   0  0  0  0  0  3  0  0  0  0  0  0
  161.5840  209.7840  150.8790 C   0  0  0  0  0  0  0  0  0  0  0  0
  160.2340  211.4180  152.1040 N   0  0  0  0  0  0  0  0  0  0  0  0
  162.9150  212.5690  148.2630 C   0  0  0  0  0  3  0  0  0  0  0  0
  162.6520  213.8430  147.9740 C   0  0  0  0  0  3  0  0  0  0  0  0
  162.3350  209.3970  149.6650 C   0  0  0  0  0  3  0  0  0  0  0  0
  160.3190  213.0420  149.8210 C   0  0  0  0  0  3  0  0  0  0  0  0
  160.2170  212.1850  155.6110 C   0  0  0  0  0  0  0  0  0  0  0  0
  160.2960  214.1010  148.7920 C   0  0  0  0  0  3  0  0  0  0  0  0
  159.7560  213.1010  156.3400 O   0  0  0  0  0  0  0  0  0  0  0  0
  161.0570  211.9240  149.7940 C   0  0  0  0  0  0  0  0  0  0  0  0
  161.4990  208.8320  151.9520 N   0  0  0  0  0  0  0  0  0  0  0  0
  161.3100  214.4530  147.9930 C   0  0  0  0  0  3  0  0  0  0  0  0
  161.8500  211.5660  148.5580 C   0  0  0  0  0  0  0  0  0  0  0  0
  161.4990  210.2910  153.8880 C   0  0  0  0  0  0  0  0  0  0  0  0
  161.0000  210.9990  150.9580 C   0  0  2  0  0  3  0  0  0  0  0  0
  159.4910  211.8060  154.3520 C   0  0  0  0  0  2  0  0  0  0  0  0
  162.4600  210.1990  148.6120 C   0  0  0  0  0  3  0  0  0  0  0  0
  161.4200  211.4520  156.0390 C   0  0  0  0  0  3  0  0  0  0  0  0
  162.0000  210.5510  155.2450 C   0  0  0  0  0  3  0  0  0  0  0  0
  160.4010  211.1390  153.3630 C   0  0  0  0  0  0  0  0  0  0  0  0
  160.7970  204.7070  151.1560 C   0  0  0  0  0  3  0  0  0  0  0  0
  161.2410  207.4340  151.6840 C   0  0  0  0  0  0  0  0  0  0  0  0
  161.4320  206.4690  152.6890 C   0  0  0  0  0  3  0  0  0  0  0  0
  161.2090  205.1150  152.4270 C   0  0  0  0  0  3  0  0  0  0  0  0
  160.6130  205.6540  150.1460 C   0  0  0  0  0  3  0  0  0  0  0  0
  160.8370  207.0080  150.4070 C   0  0  0  0  0  3  0  0  0  0  0  0
  1 15  2  0  0  0  0
  2 16  1  0  0  0  0
  2 12  1  0  0  0  0
  3 21  2  0  0  0  0
  4 14  1  0  0  0  0
  5 13  1  0  0  0  0
  5  4  2  0  0  0  0
  6  2  2  0  0  0  0
  8 19  1  0  0  0  0
  8 10  2  0  0  0  0
  9  7  1  0  0  0  0
 11  7  2  0  0  0  0
 12  1  1  0  0  0  0
 13  9  2  0  0  0  0
 14 18  2  0  0  0  0
 14 11  1  0  0  0  0
 15 20  1  0  0  0  0
 16 11  1  6  0  0  0
 16  3  1  0  0  0  0
 17  8  1  0  0  0  0
 18  6  1  0  0  0  0
 20 19  2  0  0  0  0
 21 15  1  0  0  0  0
 21 17  1  0  0  0  0
 22 25  1  0  0  0  0
 23 12  1  0  0  0  0
 23 24  1  0  0  0  0
 25 24  2  0  0  0  0
 26 27  1  0  0  0  0
 26 22  2  0  0  0  0
 27 23  2  0  0  0  0
M  END
>  <MODEL>
3

>  <REMARK>
 VINA RESULT:      -6.3      2.702      5.226
  Name = 
  1 active torsions:
  status: ('A' for Active; 'I' for Inactive)
    1  A    between atoms: C_9  and  N_15
                            x       y       z     vdW  Elec       q    Type
                         _______ _______ _______ _____ _____    ______ ____

>  <TORSDO>
F 1

$$$$
=
 OpenBabel11052423133D

 27 31  0  0  1  0  0  0  0  0999 V2000
  160.4580  211.4180  151.2740 C   0  0  0  0  0  3  0  0  0  0  0  0
  161.4440  209.4380  150.1730 C   0  0  0  0  0  0  0  0  0  0  0  0
  161.9960  209.1470  152.5400 N   0  0  0  0  0  0  0  0  0  0  0  0
  160.5060  205.5290  149.7200 C   0  0  0  0  0  3  0  0  0  0  0  0
  160.5980  204.4120  150.4400 C   0  0  0  0  0  3  0  0  0  0  0  0
  161.2060  208.8590  148.8330 C   0  0  0  0  0  3  0  0  0  0  0  0
  162.3310  206.4140  152.0160 C   0  0  0  0  0  3  0  0  0  0  0  0
  160.7520  210.9200  155.4030 C   0  0  0  0  0  0  0  0  0  0  0  0
  162.4770  204.9450  152.0130 C   0  0  0  0  0  3  0  0  0  0  0  0
  160.7730  210.7630  156.6510 O   0  0  0  0  0  0  0  0  0  0  0  0
  161.8680  207.1690  151.0100 C   0  0  0  0  0  0  0  0  0  0  0  0
  161.3650  210.8670  150.3140 N   0  0  0  0  0  0  0  0  0  0  0  0
  161.7210  204.0740  151.3330 C   0  0  0  0  0  3  0  0  0  0  0  0
  161.5930  206.5500  149.6590 C   0  0  0  0  0  0  0  0  0  0  0  0
  160.4710  211.0770  152.5570 C   0  0  0  0  0  0  0  0  0  0  0  0
  161.7290  208.6350  151.2200 C   0  0  2  0  0  3  0  0  0  0  0  0
  161.8990  210.4160  154.5740 C   0  0  0  0  0  2  0  0  0  0  0  0
  161.2710  207.5530  148.5940 C   0  0  0  0  0  3  0  0  0  0  0  0
  159.6390  211.6590  154.7830 C   0  0  0  0  0  3  0  0  0  0  0  0
  159.5240  211.7520  153.4580 C   0  0  0  0  0  3  0  0  0  0  0  0
  161.4950  210.1820  153.1480 C   0  0  0  0  0  0  0  0  0  0  0  0
  163.0690  213.4290  147.3690 C   0  0  0  0  0  3  0  0  0  0  0  0
  161.9560  211.7430  149.3280 C   0  0  0  0  0  0  0  0  0  0  0  0
  161.3500  212.9710  149.0110 C   0  0  0  0  0  3  0  0  0  0  0  0
  161.9050  213.8100  148.0400 C   0  0  0  0  0  3  0  0  0  0  0  0
  163.6760  212.2060  147.6660 C   0  0  0  0  0  3  0  0  0  0  0  0
  163.1220  211.3680  148.6360 C   0  0  0  0  0  3  0  0  0  0  0  0
  1 15  2  0  0  0  0
  2 12  1  0  0  0  0
  3 21  2  0  0  0  0
  4  5  2  0  0  0  0
  5 13  1  0  0  0  0
  6  2  2  0  0  0  0
  8 10  2  0  0  0  0
  9  7  1  0  0  0  0
 11 16  1  0  0  0  0
 11  7  2  0  0  0  0
 12  1  1  0  0  0  0
 13  9  2  0  0  0  0
 14  4  1  0  0  0  0
 14 11  1  0  0  0  0
 15 21  1  0  0  0  0
 15 20  1  0  0  0  0
 16  2  1  6  0  0  0
 16  3  1  0  0  0  0
 17  8  1  0  0  0  0
 18  6  1  0  0  0  0
 18 14  2  0  0  0  0
 19  8  1  0  0  0  0
 20 19  2  0  0  0  0
 21 17  1  0  0  0  0
 22 26  2  0  0  0  0
 22 25  1  0  0  0  0
 23 12  1  0  0  0  0
 24 23  1  0  0  0  0
 25 24  2  0  0  0  0
 26 27  1  0  0  0  0
 27 23  2  0  0  0  0
M  END
>  <MODEL>
4

>  <REMARK>
 VINA RESULT:      -5.7      2.608      7.079
  Name = 
  1 active torsions:
  status: ('A' for Active; 'I' for Inactive)
    1  A    between atoms: C_9  and  N_15
                            x       y       z     vdW  Elec       q    Type
                         _______ _______ _______ _____ _____    ______ ____

>  <TORSDO>
F 1

$$$$
=
 OpenBabel11052423133D

 27 31  0  0  0  0  0  0  0  0999 V2000
  161.9560  210.0490  150.4530 C   0  0  0  0  0  3  0  0  0  0  0  0
  161.0300  210.3340  152.7250 C   0  0  0  0  0  0  0  0  0  0  0  0
  160.4300  208.0400  152.1150 N   0  0  0  0  0  0  0  0  0  0  0  0
  162.0450  209.2650  156.4920 C   0  0  0  0  0  3  0  0  0  0  0  0
  161.9570  208.1770  157.2570 C   0  0  0  0  0  2  0  0  0  0  0  0
  161.3070  211.3530  153.7600 C   0  0  0  0  0  3  0  0  0  0  0  0
  160.1550  207.4980  154.8510 C   0  0  0  0  0  3  0  0  0  0  0  0
  161.5800  206.0420  149.3640 C   0  0  0  0  0  0  0  0  0  0  0  0
  160.0350  206.9480  156.2160 C   0  0  0  0  0  3  0  0  0  0  0  0
  161.5340  204.8270  149.0390 O   0  0  0  0  0  0  0  0  0  0  0  0
  160.6260  208.7080  154.5200 C   0  0  0  0  0  0  0  0  0  0  0  0
  161.0800  210.7420  151.3470 N   0  0  0  0  0  0  0  0  0  0  0  0
  160.8200  207.2390  157.2600 C   0  0  0  0  0  3  0  0  0  0  0  0
  160.9420  209.7210  155.5960 C   0  0  0  0  0  0  0  0  0  0  0  0
  161.9210  208.7320  150.2850 C   0  0  0  0  0  0  0  0  0  0  0  0
  160.7350  209.0660  153.0800 C   0  0  0  0  0  0  0  0  0  0  0  0
  160.4610  206.6350  150.1710 C   0  0  0  0  0  2  0  0  0  0  0  0
  161.2700  211.0810  155.0610 C   0  0  0  0  0  3  0  0  0  0  0  0
  162.6940  206.8790  148.8860 C   0  0  0  0  0  3  0  0  0  0  0  0
  162.8360  208.1400  149.2960 C   0  0  0  0  0  3  0  0  0  0  0  0
  160.9000  207.8610  150.9150 C   0  0  0  0  0  0  0  0  0  0  0  0
  159.3150  214.4020  150.0700 C   0  0  0  0  0  3  0  0  0  0  0  0
  160.4960  211.9940  150.9220 C   0  0  0  0  0  0  0  0  0  0  0  0
  159.4310  212.5640  151.6420 C   0  0  0  0  0  3  0  0  0  0  0  0
  158.8470  213.7620  151.2200 C   0  0  0  0  0  3  0  0  0  0  0  0
  160.3650  213.8410  149.3400 C   0  0  0  0  0  3  0  0  0  0  0  0
  160.9490  212.6440  149.7600 C   0  0  0  0  0  3  0  0  0  0  0  0
  1 12  1  0  0  0  0
  2 16  2  0  0  0  0
  2  6  1  0  0  0  0
  3 16  1  0  0  0  0
  4  5  1  0  0  0  0
  5 13  1  0  0  0  0
  6 18  2  0  0  0  0
  7  9  1  0  0  0  0
  8 17  1  0  0  0  0
  9 13  2  0  0  0  0
 10  8  2  0  0  0  0
 11  7  2  0  0  0  0
 11 14  1  0  0  0  0
 12  2  1  0  0  0  0
 14  4  2  0  0  0  0
 15  1  2  0  0  0  0
 15 21  1  0  0  0  0
 16 11  1  0  0  0  0
 17 21  1  0  0  0  0
 18 14  1  0  0  0  0
 19 20  2  0  0  0  0
 19  8  1  0  0  0  0
 20 15  1  0  0  0  0
 21  3  2  0  0  0  0
 22 25  1  0  0  0  0
 23 12  1  0  0  0  0
 23 24  1  0  0  0  0
 25 24  2  0  0  0  0
 26 27  1  0  0  0  0
 26 22  2  0  0  0  0
 27 23  2  0  0  0  0
M  END
>  <MODEL>
5

>  <REMARK>
 VINA RESULT:      -4.9      1.226      5.913
  Name = 
  1 active torsions:
  status: ('A' for Active; 'I' for Inactive)
    1  A    between atoms: C_9  and  N_15
                            x       y       z     vdW  Elec       q    Type
                         _______ _______ _______ _____ _____    ______ ____

>  <TORSDO>
F 1

$$$$
=
 OpenBabel11052423133D

 27 31  0  0  1  0  0  0  0  0999 V2000
  159.7180  209.0840  137.6350 C   0  0  0  0  0  3  0  0  0  0  0  0
  159.5350  211.0380  139.1360 C   0  0  0  0  0  0  0  0  0  0  0  0
  160.9610  209.4700  140.3620 N   0  0  0  0  0  0  0  0  0  0  0  0
  161.8290  214.2100  140.1570 C   0  0  0  0  0  3  0  0  0  0  0  0
  162.8540  214.4530  140.9720 C   0  0  0  0  0  3  0  0  0  0  0  0
  159.0880  212.4220  138.8700 C   0  0  0  0  0  3  0  0  0  0  0  0
  161.9060  211.6540  141.8430 C   0  0  0  0  0  3  0  0  0  0  0  0
  162.5530  206.4650  139.2120 C   0  0  0  0  0  0  0  0  0  0  0  0
  162.6160  212.6380  142.6850 C   0  0  0  0  0  3  0  0  0  0  0  0
  163.4490  205.6900  139.6360 O   0  0  0  0  0  0  0  0  0  0  0  0
  161.0820  211.9290  140.8240 C   0  0  0  0  0  0  0  0  0  0  0  0
  158.9030  209.9730  138.4060 N   0  0  0  0  0  0  0  0  0  0  0  0
  163.0320  213.8520  142.3060 C   0  0  0  0  0  3  0  0  0  0  0  0
  160.6680  213.3540  140.5420 C   0  0  0  0  0  0  0  0  0  0  0  0
  160.7410  208.4120  138.1520 C   0  0  0  0  0  0  0  0  0  0  0  0
  160.5060  210.8000  140.0430 C   0  0  2  0  0  3  0  0  0  0  0  0
  161.6730  207.1850  140.1930 C   0  0  0  0  0  2  0  0  0  0  0  0
  159.5970  213.4750  139.5020 C   0  0  0  0  0  3  0  0  0  0  0  0
  162.3340  206.5970  137.7620 C   0  0  0  0  0  3  0  0  0  0  0  0
  161.4700  207.4870  137.2710 C   0  0  0  0  0  3  0  0  0  0  0  0
  161.0710  208.4230  139.5970 C   0  0  0  0  0  0  0  0  0  0  0  0
  154.6920  209.9630  137.7710 C   0  0  0  0  0  3  0  0  0  0  0  0
  157.4710  209.9580  138.2060 C   0  0  0  0  0  0  0  0  0  0  0  0
  156.8900  209.0780  137.2770 C   0  0  0  0  0  3  0  0  0  0  0  0
  155.5090  209.0780  137.0630 C   0  0  0  0  0  3  0  0  0  0  0  0
  155.2570  210.8490  138.6900 C   0  0  0  0  0  3  0  0  0  0  0  0
  156.6370  210.8500  138.9040 C   0  0  0  0  0  3  0  0  0  0  0  0
  1 15  2  0  0  0  0
  1 12  1  0  0  0  0
  4 14  1  0  0  0  0
  4  5  2  0  0  0  0
  5 13  1  0  0  0  0
  6  2  2  0  0  0  0
  6 18  1  0  0  0  0
  7  9  1  0  0  0  0
  8 10  2  0  0  0  0
  8 17  1  0  0  0  0
 11  7  2  0  0  0  0
 12  2  1  0  0  0  0
 13  9  2  0  0  0  0
 14 11  1  0  0  0  0
 15 21  1  0  0  0  0
 16  2  1  1  0  0  0
 16  3  1  0  0  0  0
 16 11  1  0  0  0  0
 18 14  2  0  0  0  0
 19  8  1  0  0  0  0
 20 19  2  0  0  0  0
 20 15  1  0  0  0  0
 21 17  1  0  0  0  0
 21  3  2  0  0  0  0
 22 26  1  0  0  0  0
 23 12  1  0  0  0  0
 23 27  1  0  0  0  0
 24 23  2  0  0  0  0
 25 24  1  0  0  0  0
 25 22  2  0  0  0  0
 26 27  2  0  0  0  0
M  END
>  <MODEL>
6

>  <REMARK>
 VINA RESULT:      -4.4      9.697     12.597
  Name = 
  1 active torsions:
  status: ('A' for Active; 'I' for Inactive)
    1  A    between atoms: C_9  and  N_15
                            x       y       z     vdW  Elec       q    Type
                         _______ _______ _______ _____ _____    ______ ____

>  <TORSDO>
F 1

$$$$
=
 OpenBabel11052423133D

 27 31  0  0  1  0  0  0  0  0999 V2000
  159.6210  210.4370  153.4170 C   0  0  0  0  0  3  0  0  0  0  0  0
  159.3520  212.6140  152.2800 C   0  0  0  0  0  0  0  0  0  0  0  0
  161.1590  211.5120  151.0500 N   0  0  0  0  0  0  0  0  0  0  0  0
  157.6300  213.9880  148.8870 C   0  0  0  0  0  3  0  0  0  0  0  0
  157.9310  214.0420  147.5900 C   0  0  0  0  0  3  0  0  0  0  0  0
  158.2500  213.5990  152.3270 C   0  0  0  0  0  3  0  0  0  0  0  0
  160.5960  213.2240  148.9020 C   0  0  0  0  0  3  0  0  0  0  0  0
  162.2560  208.0970  151.1900 C   0  0  0  0  0  0  0  0  0  0  0  0
  160.4360  213.9370  147.6200 C   0  0  0  0  0  3  0  0  0  0  0  0
  162.9990  207.3510  150.5020 O   0  0  0  0  0  0  0  0  0  0  0  0
  159.7690  213.2830  149.9540 C   0  0  0  0  0  0  0  0  0  0  0  0
  159.6400  211.8670  153.4740 N   0  0  0  0  0  0  0  0  0  0  0  0
  159.2790  214.2890  147.0470 C   0  0  0  0  0  3  0  0  0  0  0  0
  158.6230  214.2690  149.9660 C   0  0  2  0  0  3  0  0  0  0  0  0
  160.3450  209.7400  152.5490 C   0  0  0  0  0  0  0  0  0  0  0  0
  160.0590  212.4370  151.1430 C   0  0  0  0  0  0  0  0  0  0  0  0
  162.5490  209.5680  151.2630 C   0  0  0  0  0  2  0  0  0  0  0  0
  157.9150  214.3500  151.2820 C   0  0  0  0  0  3  0  0  0  0  0  0
  161.1550  207.5060  151.9700 C   0  0  0  0  0  3  0  0  0  0  0  0
  160.2820  208.2730  152.6230 C   0  0  0  0  0  3  0  0  0  0  0  0
  161.3300  210.3610  151.6310 C   0  0  0  0  0  0  0  0  0  0  0  0
  159.7390  213.8160  157.2600 C   0  0  0  0  0  3  0  0  0  0  0  0
  159.6630  212.5140  154.7670 C   0  0  0  0  0  0  0  0  0  0  0  0
  158.8120  213.6010  155.0340 C   0  0  0  0  0  3  0  0  0  0  0  0
  158.8480  214.2460  156.2740 C   0  0  0  0  0  3  0  0  0  0  0  0
  160.5970  212.7440  157.0040 C   0  0  0  0  0  3  0  0  0  0  0  0
  160.5620  212.1000  155.7650 C   0  0  0  0  0  3  0  0  0  0  0  0
  1 12  1  0  0  0  0
  2  6  1  0  0  0  0
  2 12  1  0  0  0  0
  3 16  1  0  0  0  0
  3 21  2  0  0  0  0
  5  4  2  0  0  0  0
  7 11  2  0  0  0  0
  8 17  1  0  0  0  0
  8 19  1  0  0  0  0
  9  7  1  0  0  0  0
 10  8  2  0  0  0  0
 11 14  1  0  0  0  0
 11 16  1  0  0  0  0
 12 23  1  0  0  0  0
 13  5  1  0  0  0  0
 13  9  2  0  0  0  0
 14  4  1  6  0  0  0
 14 18  1  0  0  0  0
 15 20  1  0  0  0  0
 15  1  2  0  0  0  0
 16  2  2  0  0  0  0
 17 21  1  0  0  0  0
 18  6  2  0  0  0  0
 19 20  2  0  0  0  0
 21 15  1  0  0  0  0
 23 24  2  0  0  0  0
 23 27  1  0  0  0  0
 24 25  1  0  0  0  0
 25 22  2  0  0  0  0
 26 22  1  0  0  0  0
 27 26  2  0  0  0  0
M  END
>  <MODEL>
7

>  <REMARK>
 VINA RESULT:      -4.2      2.305      3.230
  Name = 
  1 active torsions:
  status: ('A' for Active; 'I' for Inactive)
    1  A    between atoms: C_9  and  N_15
                            x       y       z     vdW  Elec       q    Type
                         _______ _______ _______ _____ _____    ______ ____

>  <TORSDO>
F 1

$$$$
=
 OpenBabel11052423133D

 27 31  0  0  1  0  0  0  0  0999 V2000
  162.5940  209.8820  150.2910 C   0  0  0  0  0  3  0  0  0  0  0  0
  161.6360  207.6780  149.7200 C   0  0  0  0  0  0  0  0  0  0  0  0
  160.9160  209.1380  147.8910 N   0  0  0  0  0  0  0  0  0  0  0  0
  162.5050  204.6380  147.1960 C   0  0  0  0  0  3  0  0  0  0  0  0
  162.3360  204.3620  145.9030 C   0  0  0  0  0  3  0  0  0  0  0  0
  161.9500  206.3260  150.2300 C   0  0  0  0  0  3  0  0  0  0  0  0
  160.5500  206.8340  146.3370 C   0  0  0  0  0  3  0  0  0  0  0  0
  162.0050  212.4570  147.0650 C   0  0  0  0  0  0  0  0  0  0  0  0
  160.3680  205.7950  145.3040 C   0  0  0  0  0  3  0  0  0  0  0  0
  161.8950  213.2330  146.0810 O   0  0  0  0  0  0  0  0  0  0  0  0
  161.0990  206.6640  147.5480 C   0  0  0  0  0  0  0  0  0  0  0  0
  161.7410  208.7850  150.6310 N   0  0  0  0  0  0  0  0  0  0  0  0
  161.1460  204.7230  145.1120 C   0  0  0  0  0  3  0  0  0  0  0  0
  161.4510  205.2780  148.0360 C   0  0  2  0  0  3  0  0  0  0  0  0
  162.4840  210.5550  149.1510 C   0  0  0  0  0  0  0  0  0  0  0  0
  161.2600  207.8490  148.4340 C   0  0  0  0  0  0  0  0  0  0  0  0
  160.9060  211.4790  147.3630 C   0  0  0  0  0  2  0  0  0  0  0  0
  161.8690  205.2360  149.4730 C   0  0  0  0  0  3  0  0  0  0  0  0
  163.1760  212.5710  147.9510 C   0  0  0  0  0  3  0  0  0  0  0  0
  163.3830  211.6990  148.9380 C   0  0  0  0  0  3  0  0  0  0  0  0
  161.4000  210.3130  148.1680 C   0  0  0  0  0  0  0  0  0  0  0  0
  160.3180  208.4970  154.6350 C   0  0  0  0  0  3  0  0  0  0  0  0
  161.2400  208.6810  151.9840 C   0  0  0  0  0  0  0  0  0  0  0  0
  160.8120  209.8280  152.6750 C   0  0  0  0  0  3  0  0  0  0  0  0
  160.3510  209.7360  153.9910 C   0  0  0  0  0  3  0  0  0  0  0  0
  160.7500  207.3510  153.9640 C   0  0  0  0  0  3  0  0  0  0  0  0
  161.2120  207.4430  152.6490 C   0  0  0  0  0  3  0  0  0  0  0  0
  1 12  1  0  0  0  0
  2  6  1  0  0  0  0
  2 12  1  0  0  0  0
  3 21  2  0  0  0  0
  3 16  1  0  0  0  0
  5  4  2  0  0  0  0
  7 11  2  0  0  0  0
  8 17  1  0  0  0  0
  8 19  1  0  0  0  0
  9  7  1  0  0  0  0
 10  8  2  0  0  0  0
 11 14  1  0  0  0  0
 11 16  1  0  0  0  0
 12 23  1  0  0  0  0
 13  9  2  0  0  0  0
 13  5  1  0  0  0  0
 14  4  1  6  0  0  0
 14 18  1  0  0  0  0
 15  1  2  0  0  0  0
 16  2  2  0  0  0  0
 17 21  1  0  0  0  0
 18  6  2  0  0  0  0
 19 20  2  0  0  0  0
 20 15  1  0  0  0  0
 21 15  1  0  0  0  0
 23 27  2  0  0  0  0
 23 24  1  0  0  0  0
 24 25  2  0  0  0  0
 25 22  1  0  0  0  0
 26 22  2  0  0  0  0
 27 26  1  0  0  0  0
M  END
>  <MODEL>
8

>  <REMARK>
 VINA RESULT:      -4.1      2.435      5.882
  Name = 
  1 active torsions:
  status: ('A' for Active; 'I' for Inactive)
    1  A    between atoms: C_9  and  N_15
                            x       y       z     vdW  Elec       q    Type
                         _______ _______ _______ _____ _____    ______ ____

>  <TORSDO>
F 1

$$$$
=
 OpenBabel11052423133D

 27 31  0  0  1  0  0  0  0  0999 V2000
  161.8860  214.1480  141.3870 C   0  0  0  0  0  3  0  0  0  0  0  0
  160.8550  213.2400  139.3340 C   0  0  0  0  0  0  0  0  0  0  0  0
  159.7800  211.9940  141.1470 N   0  0  0  0  0  0  0  0  0  0  0  0
  157.3710  213.6850  137.3260 C   0  0  0  0  0  3  0  0  0  0  0  0
  156.1230  213.2270  137.4190 C   0  0  0  0  0  3  0  0  0  0  0  0
  160.8310  213.7650  137.9520 C   0  0  0  0  0  3  0  0  0  0  0  0
  157.6860  211.4270  139.3720 C   0  0  0  0  0  3  0  0  0  0  0  0
  159.8470  212.6100  144.6830 C   0  0  0  0  0  0  0  0  0  0  0  0
  156.4370  211.0750  138.6670 C   0  0  0  0  0  3  0  0  0  0  0  0
  159.2070  212.2090  145.6890 O   0  0  0  0  0  0  0  0  0  0  0  0
  158.6360  212.2650  138.9360 C   0  0  0  0  0  0  0  0  0  0  0  0
  162.0290  213.4840  140.1280 N   0  0  0  0  0  0  0  0  0  0  0  0
  155.7560  211.8580  137.8220 C   0  0  0  0  0  3  0  0  0  0  0  0
  158.5720  212.8230  137.5330 C   0  0  0  0  0  0  0  0  0  0  0  0
  161.0690  213.7170  142.3410 C   0  0  0  0  0  0  0  0  0  0  0  0
  159.8000  212.5520  139.8180 C   0  0  2  0  0  3  0  0  0  0  0  0
  160.0400  211.6890  143.5130 C   0  0  0  0  0  2  0  0  0  0  0  0
  159.8000  213.5800  137.1320 C   0  0  0  0  0  3  0  0  0  0  0  0
  160.4580  213.9500  144.6980 C   0  0  0  0  0  3  0  0  0  0  0  0
  161.0490  214.4530  143.6140 C   0  0  0  0  0  3  0  0  0  0  0  0
  160.3100  212.4460  142.2460 C   0  0  0  0  0  0  0  0  0  0  0  0
  165.9430  213.0320  138.5110 C   0  0  0  0  0  3  0  0  0  0  0  0
  163.3510  213.3360  139.5610 C   0  0  0  0  0  0  0  0  0  0  0  0
  163.8300  212.0670  139.1910 C   0  0  0  0  0  3  0  0  0  0  0  0
  165.1160  211.9160  138.6660 C   0  0  0  0  0  3  0  0  0  0  0  0
  165.4840  214.2970  138.8840 C   0  0  0  0  0  3  0  0  0  0  0  0
  164.1980  214.4480  139.4090 C   0  0  0  0  0  3  0  0  0  0  0  0
  1 15  2  0  0  0  0
  2 16  1  0  0  0  0
  2 12  1  0  0  0  0
  3 21  2  0  0  0  0
  4  5  2  0  0  0  0
  4 14  1  0  0  0  0
  5 13  1  0  0  0  0
  6  2  2  0  0  0  0
  8 19  1  0  0  0  0
  8 10  2  0  0  0  0
  9  7  1  0  0  0  0
 11  7  2  0  0  0  0
 12  1  1  0  0  0  0
 13  9  2  0  0  0  0
 14 11  1  0  0  0  0
 15 20  1  0  0  0  0
 16 11  1  6  0  0  0
 16  3  1  0  0  0  0
 17  8  1  0  0  0  0
 18 14  2  0  0  0  0
 18  6  1  0  0  0  0
 20 19  2  0  0  0  0
 21 15  1  0  0  0  0
 21 17  1  0  0  0  0
 22 25  2  0  0  0  0
 22 26  1  0  0  0  0
 23 12  1  0  0  0  0
 24 23  2  0  0  0  0
 25 24  1  0  0  0  0
 26 27  2  0  0  0  0
 27 23  1  0  0  0  0
M  END
>  <MODEL>
9

>  <REMARK>
 VINA RESULT:      -4.0      8.754     12.597
  Name = 
  1 active torsions:
  status: ('A' for Active; 'I' for Inactive)
    1  A    between atoms: C_9  and  N_15
                            x       y       z     vdW  Elec       q    Type
                         _______ _______ _______ _____ _____    ______ ____

>  <TORSDO>
F 1

$$$$
