=
 OpenBabel11062409453D

 34 38  0  0  1  0  0  0  0  0999 V2000
  161.0350  208.2620  151.5500 C   0  0  0  0  0  0  0  0  0  0  0  0
  161.1800  210.8170  151.0260 C   0  0  0  0  0  0  0  0  0  0  0  0
  159.7030  210.4360  153.0700 C   0  0  0  0  0  2  0  0  0  0  0  0
  161.4530  205.8730  153.0750 C   0  0  0  0  0  2  0  0  0  0  0  0
  160.9530  207.0550  150.9630 C   0  0  0  0  0  3  0  0  0  0  0  0
  161.1700  207.1770  153.7600 C   0  0  0  0  0  0  0  0  0  0  0  0
  161.5820  208.5430  155.7840 C   0  0  0  0  0  2  0  0  0  0  0  0
  161.1140  207.1940  155.2580 C   0  0  0  0  0  2  0  0  0  0  0  0
  160.8540  205.8520  151.7390 N   0  0  0  0  0  0  0  0  0  0  0  0
  160.5770  209.5030  153.7420 N   0  0  0  0  0  0  0  0  0  0  0  0
  160.9570  208.3040  153.0460 C   0  0  0  0  0  0  0  0  0  0  0  0
  160.6930  209.6330  155.1970 C   0  0  0  0  0  2  0  0  0  0  0  0
  161.6410  211.8190  150.1630 C   0  0  0  0  0  3  0  0  0  0  0  0
  162.2800  211.5090  148.9600 C   0  0  0  0  0  0  0  0  0  0  0  0
  162.4550  210.1760  148.6060 C   0  0  0  0  0  3  0  0  0  0  0  0
  160.4850  211.2710  152.1890 N   0  0  0  0  0  2  0  0  0  0  0  0
  162.0150  209.1660  149.4570 C   0  0  0  0  0  3  0  0  0  0  0  0
  161.3760  209.4450  150.6850 C   0  0  0  0  0  0  0  0  0  0  0  0
  161.1930  202.0900  151.0970 C   0  0  0  0  0  2  0  0  0  0  0  0
  160.9710  204.6760  149.5610 C   0  0  0  0  0  2  0  0  0  0  0  0
  161.1160  200.9530  148.9980 O   0  0  0  0  0  1  0  0  0  0  0  0
  160.7520  202.1460  149.6270 C   0  0  2  0  0  3  0  0  0  0  0  0
  161.3600  203.3470  148.8920 C   0  0  1  0  0  3  0  0  0  0  0  0
  160.6710  204.5600  151.0670 C   0  0  1  0  0  3  0  0  0  0  0  0
  161.5360  203.4610  151.6890 C   0  0  0  0  0  2  0  0  0  0  0  0
  161.5920  203.9980  146.4860 C   0  0  0  0  0  0  0  0  0  0  0  0
  160.9270  203.3640  147.4570 C   0  0  0  0  0  3  0  0  0  0  0  0
  162.8590  204.7380  146.7750 C   0  0  0  0  0  1  0  0  0  0  0  0
  161.0760  203.9570  145.1080 C   0  0  0  0  0  0  0  0  0  0  0  0
  160.3680  202.9900  144.7220 O   0  0  0  0  0  1  0  0  0  0  0  0
  161.3670  204.9840  144.2150 O   0  0  0  0  0  0  0  0  0  0  0  0
  162.7450  212.5350  148.0800 N   0  0  0  0  0  2  0  0  0  0  0  0
  161.8660  213.5310  147.4910 C   0  0  0  0  0  2  0  0  0  0  0  0
  160.8720  212.8480  146.5750 C   0  0  0  0  0  1  0  0  0  0  0  0
  1 11  1  0  0  0  0
  2 16  1  0  0  0  0
  3 10  1  0  0  0  0
  4  6  1  0  0  0  0
  5  1  2  0  0  0  0
  5  9  1  0  0  0  0
  6  8  1  0  0  0  0
  8  7  1  0  0  0  0
  9  4  1  0  0  0  0
 10 12  1  0  0  0  0
 11 10  1  0  0  0  0
 11  6  2  0  0  0  0
 12  7  1  0  0  0  0
 13  2  2  0  0  0  0
 14 13  1  0  0  0  0
 15 14  2  0  0  0  0
 15 17  1  0  0  0  0
 16  3  1  0  0  0  0
 17 18  2  0  0  0  0
 18  2  1  0  0  0  0
 18  1  1  0  0  0  0
 19 25  1  0  0  0  0
 22 21  1  6  0  0  0
 22 19  1  0  0  0  0
 23 27  1  6  0  0  0
 23 20  1  0  0  0  0
 23 22  1  0  0  0  0
 24 20  1  6  0  0  0
 24 25  1  0  0  0  0
 24  9  1  0  0  0  0
 26 28  1  0  0  0  0
 26 27  2  0  0  0  0
 29 26  1  0  0  0  0
 30 29  1  0  0  0  0
 31 29  2  0  0  0  0
 32 14  1  0  0  0  0
 33 32  1  0  0  0  0
 34 33  1  0  0  0  0
M  END
>  <MODEL>
1

>  <REMARK>
 VINA RESULT:      -9.5      0.000      0.000
  Name = 
  5 active torsions:
  status: ('A' for Active; 'I' for Inactive)
    1  A    between atoms: N_3  and  C_13
    2  A    between atoms: N_3  and  C_25
    3  A    between atoms: C_7  and  C_11
    4  A    between atoms: N_18  and  C_30
    5  A    between atoms: C_26  and  C_28
                            x       y       z     vdW  Elec       q    Type
                         _______ _______ _______ _____ _____    ______ ____

>  <TORSDO>
F 5

$$$$
=
 OpenBabel11062409453D

 34 38  0  0  1  0  0  0  0  0999 V2000
  161.2440  208.0170  152.1210 C   0  0  0  0  0  0  0  0  0  0  0  0
  161.4730  209.9430  153.8710 C   0  0  0  0  0  0  0  0  0  0  0  0
  163.2210  210.2290  152.0370 C   0  0  0  0  0  2  0  0  0  0  0  0
  160.6970  206.8570  149.5590 C   0  0  0  0  0  2  0  0  0  0  0  0
  160.9880  206.7020  152.0080 C   0  0  0  0  0  3  0  0  0  0  0  0
  161.3420  208.2070  149.6640 C   0  0  0  0  0  0  0  0  0  0  0  0
  161.5860  210.4320  148.6060 C   0  0  0  0  0  2  0  0  0  0  0  0
  161.6880  208.9290  148.3970 C   0  0  0  0  0  2  0  0  0  0  0  0
  161.0120  206.0420  150.7340 N   0  0  0  0  0  0  0  0  0  0  0  0
  162.3370  209.9950  150.9190 N   0  0  0  0  0  0  0  0  0  0  0  0
  161.6160  208.7530  150.8690 C   0  0  0  0  0  0  0  0  0  0  0  0
  162.5300  210.8350  149.7330 C   0  0  0  0  0  2  0  0  0  0  0  0
  161.0460  210.4850  155.0900 C   0  0  0  0  0  3  0  0  0  0  0  0
  160.1410  209.8090  155.9120 C   0  0  0  0  0  0  0  0  0  0  0  0
  159.6590  208.5670  155.5170 C   0  0  0  0  0  3  0  0  0  0  0  0
  162.4520  210.7050  153.1610 N   0  0  0  0  0  2  0  0  0  0  0  0
  160.0620  208.0170  154.3020 C   0  0  0  0  0  3  0  0  0  0  0  0
  160.9660  208.6790  153.4430 C   0  0  0  0  0  0  0  0  0  0  0  0
  161.4690  202.3390  151.6010 C   0  0  0  0  0  2  0  0  0  0  0  0
  160.9410  204.0930  149.2060 C   0  0  0  0  0  2  0  0  0  0  0  0
  161.2130  200.4560  150.1540 O   0  0  0  0  0  1  0  0  0  0  0  0
  160.8620  201.8000  150.2970 C   0  0  2  0  0  3  0  0  0  0  0  0
  161.3200  202.6070  149.0770 C   0  0  1  0  0  3  0  0  0  0  0  0
  160.8210  204.5890  150.6580 C   0  0  1  0  0  3  0  0  0  0  0  0
  161.8060  203.8330  151.5530 C   0  0  0  0  0  2  0  0  0  0  0  0
  161.0080  202.5050  146.5950 C   0  0  0  0  0  0  0  0  0  0  0  0
  160.7270  202.0480  147.8190 C   0  0  0  0  0  3  0  0  0  0  0  0
  161.9780  203.6270  146.3940 C   0  0  0  0  0  1  0  0  0  0  0  0
  160.3650  201.8870  145.4240 C   0  0  0  0  0  0  0  0  0  0  0  0
  160.4440  200.6440  145.2370 O   0  0  0  0  0  1  0  0  0  0  0  0
  159.6650  202.6680  144.5100 O   0  0  0  0  0  0  0  0  0  0  0  0
  159.7110  210.3650  157.1570 N   0  0  0  0  0  2  0  0  0  0  0  0
  159.0340  211.6460  157.2590 C   0  0  0  0  0  2  0  0  0  0  0  0
  157.7060  211.5740  156.5350 C   0  0  0  0  0  1  0  0  0  0  0  0
  1 18  1  0  0  0  0
  2 13  1  0  0  0  0
  3 16  1  0  0  0  0
  4  6  1  0  0  0  0
  4  9  1  0  0  0  0
  5  1  2  0  0  0  0
  6 11  2  0  0  0  0
  7 12  1  0  0  0  0
  8  7  1  0  0  0  0
  8  6  1  0  0  0  0
  9  5  1  0  0  0  0
 10  3  1  0  0  0  0
 11 10  1  0  0  0  0
 11  1  1  0  0  0  0
 12 10  1  0  0  0  0
 13 14  2  0  0  0  0
 14 32  1  0  0  0  0
 15 14  1  0  0  0  0
 16  2  1  0  0  0  0
 17 15  2  0  0  0  0
 18  2  2  0  0  0  0
 18 17  1  0  0  0  0
 22 21  1  6  0  0  0
 22 19  1  0  0  0  0
 23 27  1  6  0  0  0
 23 20  1  0  0  0  0
 23 22  1  0  0  0  0
 24 20  1  6  0  0  0
 24  9  1  0  0  0  0
 24 25  1  0  0  0  0
 25 19  1  0  0  0  0
 26 27  2  0  0  0  0
 28 26  1  0  0  0  0
 29 26  1  0  0  0  0
 30 29  1  0  0  0  0
 31 29  2  0  0  0  0
 32 33  1  0  0  0  0
 34 33  1  0  0  0  0
M  END
>  <MODEL>
2

>  <REMARK>
 VINA RESULT:      -6.8      1.663      4.666
  Name = 
  5 active torsions:
  status: ('A' for Active; 'I' for Inactive)
    1  A    between atoms: N_3  and  C_13
    2  A    between atoms: N_3  and  C_25
    3  A    between atoms: C_7  and  C_11
    4  A    between atoms: N_18  and  C_30
    5  A    between atoms: C_26  and  C_28
                            x       y       z     vdW  Elec       q    Type
                         _______ _______ _______ _____ _____    ______ ____

>  <TORSDO>
F 5

$$$$
=
 OpenBabel11062409453D

 34 38  0  0  1  0  0  0  0  0999 V2000
  161.6380  207.5740  150.2330 C   0  0  0  0  0  0  0  0  0  0  0  0
  161.5030  205.0050  150.6850 C   0  0  0  0  0  0  0  0  0  0  0  0
  162.5790  206.1780  152.6770 C   0  0  0  0  0  2  0  0  0  0  0  0
  161.0260  210.3420  150.6460 C   0  0  0  0  0  2  0  0  0  0  0  0
  161.8730  208.4760  149.2640 C   0  0  0  0  0  3  0  0  0  0  0  0
  161.1270  209.4010  151.8090 C   0  0  0  0  0  0  0  0  0  0  0  0
  160.2900  208.8760  154.0790 C   0  0  0  0  0  2  0  0  0  0  0  0
  160.8980  209.9470  153.1860 C   0  0  0  0  0  2  0  0  0  0  0  0
  161.8670  209.8850  149.5380 N   0  0  0  0  0  0  0  0  0  0  0  0
  161.6280  207.2610  152.7740 N   0  0  0  0  0  0  0  0  0  0  0  0
  161.4300  208.0970  151.6220 C   0  0  0  0  0  0  0  0  0  0  0  0
  161.2340  207.6800  154.1220 C   0  0  0  0  0  2  0  0  0  0  0  0
  161.1770  203.7360  150.1900 C   0  0  0  0  0  3  0  0  0  0  0  0
  160.7890  203.5490  148.8600 C   0  0  0  0  0  0  0  0  0  0  0  0
  160.7320  204.6460  148.0080 C   0  0  0  0  0  3  0  0  0  0  0  0
  161.9490  205.0450  152.0420 N   0  0  0  0  0  2  0  0  0  0  0  0
  161.0400  205.9170  148.4860 C   0  0  0  0  0  3  0  0  0  0  0  0
  161.4240  206.1420  149.8250 C   0  0  0  0  0  0  0  0  0  0  0  0
  163.6270  212.8350  147.8410 C   0  0  0  0  0  2  0  0  0  0  0  0
  160.9570  211.4330  147.8300 C   0  0  0  0  0  2  0  0  0  0  0  0
  162.8050  214.2010  146.0640 O   0  0  0  0  0  1  0  0  0  0  0  0
  162.6300  212.9610  146.6800 C   0  0  2  0  0  3  0  0  0  0  0  0
  161.1800  212.7960  147.1510 C   0  0  1  0  0  3  0  0  0  0  0  0
  162.2200  210.8380  148.4790 C   0  0  1  0  0  3  0  0  0  0  0  0
  163.1230  211.9620  148.9950 C   0  0  0  0  0  2  0  0  0  0  0  0
  159.1190  213.6820  146.0410 C   0  0  0  0  0  0  0  0  0  0  0  0
  160.2290  212.9410  146.0010 C   0  0  0  0  0  3  0  0  0  0  0  0
  158.7490  214.4520  147.2700 C   0  0  0  0  0  1  0  0  0  0  0  0
  158.2490  213.7530  144.8550 C   0  0  0  0  0  0  0  0  0  0  0  0
  157.0630  214.1600  144.9600 O   0  0  0  0  0  1  0  0  0  0  0  0
  158.7280  213.3700  143.6060 O   0  0  0  0  0  0  0  0  0  0  0  0
  160.4620  202.2520  148.3570 N   0  0  0  0  0  2  0  0  0  0  0  0
  161.1180  201.0380  148.8150 C   0  0  0  0  0  2  0  0  0  0  0  0
  161.5560  200.2200  147.6180 C   0  0  0  0  0  1  0  0  0  0  0  0
  1 11  1  0  0  0  0
  2 16  1  0  0  0  0
  3 10  1  0  0  0  0
  4  6  1  0  0  0  0
  5  9  1  0  0  0  0
  5  1  2  0  0  0  0
  6  8  1  0  0  0  0
  7 12  1  0  0  0  0
  8  7  1  0  0  0  0
  9  4  1  0  0  0  0
 10 12  1  0  0  0  0
 11  6  2  0  0  0  0
 11 10  1  0  0  0  0
 13  2  1  0  0  0  0
 14 13  2  0  0  0  0
 15 17  2  0  0  0  0
 15 14  1  0  0  0  0
 16  3  1  0  0  0  0
 17 18  1  0  0  0  0
 18  1  1  0  0  0  0
 18  2  2  0  0  0  0
 19 25  1  0  0  0  0
 22 21  1  1  0  0  0
 22 23  1  0  0  0  0
 22 19  1  0  0  0  0
 23 27  1  6  0  0  0
 23 20  1  0  0  0  0
 24 20  1  1  0  0  0
 24 25  1  0  0  0  0
 24  9  1  0  0  0  0
 26 28  1  0  0  0  0
 27 26  2  0  0  0  0
 29 30  1  0  0  0  0
 29 26  1  0  0  0  0
 31 29  2  0  0  0  0
 32 33  1  0  0  0  0
 32 14  1  0  0  0  0
 34 33  1  0  0  0  0
M  END
>  <MODEL>
3

>  <REMARK>
 VINA RESULT:      -6.5      3.672      7.972
  Name = 
  5 active torsions:
  status: ('A' for Active; 'I' for Inactive)
    1  A    between atoms: N_3  and  C_13
    2  A    between atoms: N_3  and  C_25
    3  A    between atoms: C_7  and  C_11
    4  A    between atoms: N_18  and  C_30
    5  A    between atoms: C_26  and  C_28
                            x       y       z     vdW  Elec       q    Type
                         _______ _______ _______ _____ _____    ______ ____

>  <TORSDO>
F 5

$$$$
