=
 OpenBabel11062409053D

 37 41  0  0  1  0  0  0  0  0999 V2000
  161.1860  208.4000  154.8430 C   0  0  1  0  0  0  0  0  0  0  0  0
  161.2010  205.8800  152.3390 C   0  0  0  0  0  0  0  0  0  0  0  0
  162.2030  208.6590  150.4880 C   0  0  0  0  0  2  0  0  0  0  0  0
  162.0320  208.6520  156.0660 N   0  0  0  0  0  0  0  0  0  0  0  0
  160.4230  212.3100  152.5960 C   0  0  0  0  0  2  0  0  0  0  0  0
  161.9910  205.9360  149.8950 C   0  0  0  0  0  2  0  0  0  0  0  0
  158.8880  210.3530  152.2490 C   0  0  0  0  0  1  0  0  0  0  0  0
  162.1610  210.9370  155.4650 C   0  0  1  0  0  3  0  0  0  0  0  0
  160.9160  208.0160  150.9860 C   0  0  0  0  0  2  0  0  0  0  0  0
  161.2830  211.9760  150.3250 C   0  0  0  0  0  0  0  0  0  0  0  0
  161.7720  206.3730  148.4390 C   0  0  0  0  0  2  0  0  0  0  0  0
  161.7960  209.9940  156.5950 C   0  0  2  0  0  3  0  0  0  0  0  0
  160.8190  206.9020  154.7110 C   0  0  0  0  0  2  0  0  0  0  0  0
  162.6700  206.0310  152.7500 C   0  0  0  0  0  1  0  0  0  0  0  0
  161.5360  210.2540  148.6600 C   0  0  0  0  0  2  0  0  0  0  0  0
  161.3450  207.8310  148.2200 C   0  0  0  0  0  2  0  0  0  0  0  0
  160.2230  206.5320  153.3460 C   0  0  0  0  0  2  0  0  0  0  0  0
  160.7940  211.5440  155.2810 C   0  0  0  0  0  2  0  0  0  0  0  0
  160.1380  210.8410  152.9770 C   0  0  2  0  0  3  0  0  0  0  0  0
  162.1640  208.8960  148.9710 C   0  0  2  0  0  3  0  0  0  0  0  0
  159.8500  209.2380  154.8350 C   0  0  0  0  0  2  0  0  0  0  0  0
  160.9710  206.4770  150.9300 C   0  0  2  0  0  3  0  0  0  0  0  0
  160.4360  212.5830  151.1200 C   0  0  0  0  0  0  0  0  0  0  0  0
  160.8840  204.3960  152.3030 C   0  0  0  0  0  1  0  0  0  0  0  0
  159.9400  210.6750  154.4300 N   0  0  1  0  0  0  0  0  0  0  0  0
  162.9570  210.9350  156.7590 C   0  0  0  0  0  2  0  0  0  0  0  0
  161.9490  208.7430  153.7240 O   0  0  0  0  0  1  0  0  0  0  0  0
  162.0860  211.3590  149.5020 C   0  0  0  0  0  3  0  0  0  0  0  0
  158.0790  213.4060  151.2630 C   0  0  0  0  0  2  0  0  0  0  0  0
  159.4390  213.5610  150.5770 C   0  0  2  0  0  3  0  0  0  0  0  0
  159.3010  213.4280  149.0580 C   0  0  0  0  0  2  0  0  0  0  0  0
  158.1540  214.2840  147.0940 N   0  0  0  0  0  1  0  0  0  0  0  0
  156.9490  214.2740  149.2050 C   0  0  0  0  0  2  0  0  0  0  0  0
  158.3040  214.4530  148.5270 C   0  0  1  0  0  3  0  0  0  0  0  0
  157.0930  214.4340  150.7160 C   0  0  0  0  0  2  0  0  0  0  0  0
  160.4110  207.3000  157.2600 N   0  0  0  0  0  1  0  0  0  0  0  0
  161.8100  207.7020  157.1700 C   0  0  0  0  0  2  0  0  0  0  0  0
  1 27  1  6  0  0  0
  1  4  1  0  0  0  0
  2 14  1  0  0  0  0
  2 17  1  0  0  0  0
  3  9  1  0  0  0  0
  4 12  1  0  0  0  0
  4 37  1  0  0  0  0
  5 19  1  0  0  0  0
  8 18  1  1  0  0  0
  8 12  1  0  0  0  0
  8 26  1  0  0  0  0
 10 23  2  0  0  0  0
 11  6  1  0  0  0  0
 12 26  1  1  0  0  0
 13  1  1  0  0  0  0
 15 20  1  0  0  0  0
 15 28  1  0  0  0  0
 16 11  1  0  0  0  0
 17 13  1  0  0  0  0
 19  7  1  6  0  0  0
 19 25  1  0  0  0  0
 20 16  1  6  0  0  0
 20  3  1  0  0  0  0
 21  1  1  0  0  0  0
 22  6  1  6  0  0  0
 22  9  1  0  0  0  0
 22  2  1  0  0  0  0
 23  5  1  0  0  0  0
 24  2  1  0  0  0  0
 25 21  1  1  0  0  0
 25 18  1  0  0  0  0
 28 10  2  0  0  0  0
 30 23  1  1  0  0  0
 30 29  1  0  0  0  0
 31 30  1  0  0  0  0
 33 35  1  0  0  0  0
 34 32  1  6  0  0  0
 34 31  1  0  0  0  0
 34 33  1  0  0  0  0
 35 29  1  0  0  0  0
 37 36  1  0  0  0  0
M  END
>  <MODEL>
1

>  <REMARK>
 VINA RESULT:      -4.6      0.000      0.000
  Name = 
  2 active torsions:
  status: ('A' for Active; 'I' for Inactive)
    1  A    between atoms: N_5  and  C_23
    2  A    between atoms: C_6  and  C_31
                            x       y       z     vdW  Elec       q    Type
                         _______ _______ _______ _____ _____    ______ ____

>  <TORSDO>
F 2

$$$$
=
 OpenBabel11062409053D

 37 41  0  0  1  0  0  0  0  0999 V2000
  161.6240  208.7260  151.6880 C   0  0  1  0  0  0  0  0  0  0  0  0
  160.6180  210.9250  154.2900 C   0  0  0  0  0  0  0  0  0  0  0  0
  158.6140  212.0440  151.6660 C   0  0  0  0  0  2  0  0  0  0  0  0
  161.4540  207.2450  151.4590 N   0  0  0  0  0  0  0  0  0  0  0  0
  160.8700  211.0370  147.8140 C   0  0  0  0  0  2  0  0  0  0  0  0
  158.7470  212.6820  154.3840 C   0  0  0  0  0  2  0  0  0  0  0  0
  162.2080  212.0950  149.6570 C   0  0  0  0  0  1  0  0  0  0  0  0
  160.8570  207.6940  149.2140 C   0  0  1  0  0  3  0  0  0  0  0  0
  160.0310  212.2350  152.1890 C   0  0  0  0  0  2  0  0  0  0  0  0
  159.0530  212.6110  148.2960 C   0  0  0  0  0  0  0  0  0  0  0  0
  158.1970  214.0600  153.9850 C   0  0  0  0  0  2  0  0  0  0  0  0
  161.8000  206.8880  150.0850 C   0  0  2  0  0  3  0  0  0  0  0  0
  162.0090  209.0290  153.1560 C   0  0  0  0  0  2  0  0  0  0  0  0
  159.5240  209.8550  154.2400 C   0  0  0  0  0  1  0  0  0  0  0  0
  158.1770  213.9570  150.0910 C   0  0  0  0  0  2  0  0  0  0  0  0
  158.3390  214.4490  152.5060 C   0  0  0  0  0  2  0  0  0  0  0  0
  161.9010  210.5130  153.5280 C   0  0  0  0  0  2  0  0  0  0  0  0
  161.9070  208.5120  148.5090 C   0  0  0  0  0  2  0  0  0  0  0  0
  161.4280  210.8510  149.2410 C   0  0  2  0  0  3  0  0  0  0  0  0
  157.8960  213.3890  151.4820 C   0  0  2  0  0  3  0  0  0  0  0  0
  162.7120  209.3740  150.7490 C   0  0  0  0  0  2  0  0  0  0  0  0
  160.0880  212.2670  153.7280 C   0  0  2  0  0  3  0  0  0  0  0  0
  160.1230  212.3210  147.5960 C   0  0  0  0  0  0  0  0  0  0  0  0
  161.0050  211.1200  155.7450 C   0  0  0  0  0  1  0  0  0  0  0  0
  162.3160  209.6760  149.3400 N   0  0  1  0  0  0  0  0  0  0  0  0
  160.7870  206.1760  149.2310 C   0  0  0  0  0  2  0  0  0  0  0  0
  160.3890  209.3340  151.4460 O   0  0  0  0  0  1  0  0  0  0  0  0
  158.0090  212.9470  149.0030 C   0  0  0  0  0  3  0  0  0  0  0  0
  159.6460  213.4540  145.4190 C   0  0  0  0  0  2  0  0  0  0  0  0
  160.6470  213.2730  146.5640 C   0  0  2  0  0  3  0  0  0  0  0  0
  162.0080  212.8200  146.0300 C   0  0  0  0  0  2  0  0  0  0  0  0
  163.8010  213.3530  144.4790 N   0  0  0  0  0  1  0  0  0  0  0  0
  161.5340  213.9760  143.8600 C   0  0  0  0  0  2  0  0  0  0  0  0
  162.5320  213.8200  145.0040 C   0  0  1  0  0  3  0  0  0  0  0  0
  160.1880  214.4520  144.3990 C   0  0  0  0  0  2  0  0  0  0  0  0
  161.4360  205.4260  153.0630 N   0  0  0  0  0  1  0  0  0  0  0  0
  162.2620  206.3920  152.3490 C   0  0  0  0  0  2  0  0  0  0  0  0
  1 27  1  6  0  0  0
  1 13  1  0  0  0  0
  2 24  1  0  0  0  0
  3  9  1  0  0  0  0
  4  1  1  0  0  0  0
  4 37  1  0  0  0  0
  5 19  1  0  0  0  0
  8 18  1  6  0  0  0
  8 26  1  0  0  0  0
  8 12  1  0  0  0  0
 10 28  2  0  0  0  0
 11  6  1  0  0  0  0
 12 26  1  1  0  0  0
 12  4  1  0  0  0  0
 13 17  1  0  0  0  0
 14  2  1  0  0  0  0
 16 11  1  0  0  0  0
 17  2  1  0  0  0  0
 19 25  1  0  0  0  0
 19  7  1  6  0  0  0
 20 15  1  6  0  0  0
 20  3  1  0  0  0  0
 20 16  1  0  0  0  0
 21  1  1  0  0  0  0
 22  9  1  6  0  0  0
 22  2  1  0  0  0  0
 22  6  1  0  0  0  0
 23  5  1  0  0  0  0
 23 10  2  0  0  0  0
 25 18  1  1  0  0  0
 25 21  1  0  0  0  0
 28 15  1  0  0  0  0
 29 30  1  0  0  0  0
 30 23  1  1  0  0  0
 31 30  1  0  0  0  0
 33 35  1  0  0  0  0
 33 34  1  0  0  0  0
 34 32  1  6  0  0  0
 34 31  1  0  0  0  0
 35 29  1  0  0  0  0
 37 36  1  0  0  0  0
M  END
>  <MODEL>
2

>  <REMARK>
 VINA RESULT:      -4.3      2.782      5.890
  Name = 
  2 active torsions:
  status: ('A' for Active; 'I' for Inactive)
    1  A    between atoms: N_5  and  C_23
    2  A    between atoms: C_6  and  C_31
                            x       y       z     vdW  Elec       q    Type
                         _______ _______ _______ _____ _____    ______ ____

>  <TORSDO>
F 2

$$$$
=
 OpenBabel11062409053D

 37 41  0  0  1  0  0  0  0  0999 V2000
  161.3620  206.4460  152.6730 C   0  0  1  0  0  0  0  0  0  0  0  0
  160.8030  208.0000  155.8180 C   0  0  0  0  0  0  0  0  0  0  0  0
  159.3380  210.3170  153.6650 C   0  0  0  0  0  2  0  0  0  0  0  0
  160.8250  205.1950  152.0250 N   0  0  0  0  0  0  0  0  0  0  0  0
  161.4950  209.8780  149.6530 C   0  0  0  0  0  2  0  0  0  0  0  0
  159.4570  210.0960  156.4480 C   0  0  0  0  0  2  0  0  0  0  0  0
  162.9410  209.9660  151.7040 C   0  0  0  0  0  1  0  0  0  0  0  0
  160.5130  206.4080  150.0170 C   0  0  1  0  0  3  0  0  0  0  0  0
  160.7180  209.9610  154.1990 C   0  0  0  0  0  2  0  0  0  0  0  0
  160.1280  211.6800  150.6000 C   0  0  0  0  0  0  0  0  0  0  0  0
  159.3150  211.6250  156.4760 C   0  0  0  0  0  2  0  0  0  0  0  0
  161.1530  205.1640  150.6010 C   0  0  2  0  0  3  0  0  0  0  0  0
  161.7170  206.2030  154.1600 C   0  0  0  0  0  2  0  0  0  0  0  0
  159.4710  207.3260  155.4740 C   0  0  0  0  0  1  0  0  0  0  0  0
  159.5210  212.6430  152.7220 C   0  0  0  0  0  2  0  0  0  0  0  0
  159.6500  212.3650  155.1740 C   0  0  0  0  0  2  0  0  0  0  0  0
  161.9790  207.4920  154.9500 C   0  0  0  0  0  2  0  0  0  0  0  0
  161.7850  207.0780  149.5660 C   0  0  0  0  0  2  0  0  0  0  0  0
  161.8900  209.1500  150.9550 C   0  0  2  0  0  3  0  0  0  0  0  0
  159.0120  211.8010  153.8920 C   0  0  2  0  0  3  0  0  0  0  0  0
  162.6410  207.0150  151.9480 C   0  0  0  0  0  2  0  0  0  0  0  0
  160.6810  209.5370  155.6790 C   0  0  2  0  0  3  0  0  0  0  0  0
  161.1270  211.3230  149.8300 C   0  0  0  0  0  0  0  0  0  0  0  0
  161.1320  207.6610  157.2610 C   0  0  0  0  0  1  0  0  0  0  0  0
  162.4300  207.8010  150.6930 N   0  0  1  0  0  0  0  0  0  0  0  0
  160.0460  205.0260  149.5930 C   0  0  0  0  0  2  0  0  0  0  0  0
  160.3490  207.4080  152.6380 O   0  0  0  0  0  1  0  0  0  0  0  0
  159.1650  212.0690  151.3900 C   0  0  0  0  0  3  0  0  0  0  0  0
  161.0580  213.4010  148.4410 C   0  0  0  0  0  2  0  0  0  0  0  0
  161.9480  212.3510  149.1120 C   0  0  2  0  0  3  0  0  0  0  0  0
  162.8850  211.6990  148.0920 C   0  0  0  0  0  2  0  0  0  0  0  0
  164.5810  212.1330  146.4050 N   0  0  0  0  0  1  0  0  0  0  0  0
  162.8310  213.7920  146.7180 C   0  0  0  0  0  2  0  0  0  0  0  0
  163.7300  212.7630  147.3970 C   0  0  1  0  0  3  0  0  0  0  0  0
  161.9180  214.4530  147.7460 C   0  0  0  0  0  2  0  0  0  0  0  0
  161.4900  202.9000  151.6060 N   0  0  0  0  0  1  0  0  0  0  0  0
  161.3210  203.9390  152.6150 C   0  0  0  0  0  2  0  0  0  0  0  0
  1 27  1  6  0  0  0
  1 13  1  0  0  0  0
  2 24  1  0  0  0  0
  3 20  1  0  0  0  0
  3  9  1  0  0  0  0
  4 37  1  0  0  0  0
  4  1  1  0  0  0  0
  5 23  1  0  0  0  0
  5 19  1  0  0  0  0
  6 11  1  0  0  0  0
  8 18  1  6  0  0  0
  8 12  1  0  0  0  0
 10 28  2  0  0  0  0
 12 26  1  6  0  0  0
 12  4  1  0  0  0  0
 13 17  1  0  0  0  0
 14  2  1  0  0  0  0
 16 11  1  0  0  0  0
 17  2  1  0  0  0  0
 19  7  1  6  0  0  0
 20 15  1  6  0  0  0
 20 16  1  0  0  0  0
 21  1  1  0  0  0  0
 22  9  1  6  0  0  0
 22  2  1  0  0  0  0
 22  6  1  0  0  0  0
 23 10  2  0  0  0  0
 25 18  1  6  0  0  0
 25 19  1  0  0  0  0
 25 21  1  0  0  0  0
 26  8  1  0  0  0  0
 28 15  1  0  0  0  0
 29 30  1  0  0  0  0
 30 23  1  6  0  0  0
 31 30  1  0  0  0  0
 33 34  1  0  0  0  0
 33 35  1  0  0  0  0
 34 32  1  6  0  0  0
 34 31  1  0  0  0  0
 35 29  1  0  0  0  0
 36 37  1  0  0  0  0
M  END
>  <MODEL>
3

>  <REMARK>
 VINA RESULT:      -2.3      2.593      5.578
  Name = 
  2 active torsions:
  status: ('A' for Active; 'I' for Inactive)
    1  A    between atoms: N_5  and  C_23
    2  A    between atoms: C_6  and  C_31
                            x       y       z     vdW  Elec       q    Type
                         _______ _______ _______ _____ _____    ______ ____

>  <TORSDO>
F 2

$$$$
