=
 OpenBabel11052423113D

 27 31  0  0  0  0  0  0  0  0999 V2000
  162.2740  209.0480  149.0660 C   0  0  0  0  0  3  0  0  0  0  0  0
  161.4130  209.8220  151.3130 C   0  0  0  0  0  0  0  0  0  0  0  0
  161.1040  207.3650  151.2990 C   0  0  0  0  0  3  0  0  0  0  0  0
  160.7860  209.3230  155.5540 C   0  0  0  0  0  2  0  0  0  0  0  0
  160.2140  207.1160  156.6200 N   0  0  0  0  0  1  0  0  0  0  0  0
  161.3010  210.9670  152.1500 C   0  0  0  0  0  3  0  0  0  0  0  0
  160.9070  207.3800  154.2470 C   0  0  0  0  0  0  0  0  0  0  0  0
  160.3190  205.2940  148.2370 C   0  0  0  0  0  3  0  0  0  0  0  0
  160.8510  206.1610  153.9350 O   0  0  0  0  0  0  0  0  0  0  0  0
  161.1960  205.3110  147.2380 C   0  0  0  0  0  3  0  0  0  0  0  0
  161.0990  208.4960  153.3330 C   0  0  0  0  0  0  0  0  0  0  0  0
  161.7160  210.0470  149.9990 C   0  0  0  0  0  0  0  0  0  0  0  0
  160.7650  207.8650  155.5730 N   0  0  0  0  0  0  0  0  0  0  0  0
  161.0260  209.6340  154.1050 C   0  0  0  0  0  0  0  0  0  0  0  0
  162.0550  207.7450  148.9670 C   0  0  0  0  0  0  0  0  0  0  0  0
  161.2550  208.5340  151.9320 C   0  0  0  0  0  0  0  0  0  0  0  0
  160.4210  205.9730  149.5360 C   0  0  0  0  0  3  0  0  0  0  0  0
  161.1030  210.8880  153.5300 C   0  0  0  0  0  3  0  0  0  0  0  0
  162.4730  206.0290  147.1850 C   0  0  0  0  0  3  0  0  0  0  0  0
  162.8370  207.0760  147.9200 C   0  0  0  0  0  3  0  0  0  0  0  0
  161.1570  207.0310  149.8800 C   0  0  0  0  0  0  0  0  0  0  0  0
  161.6710  213.9710  148.3390 N   0  0  0  0  0  0  0  0  0  0  0  0
  161.7130  211.4250  149.4340 C   0  0  0  0  0  0  0  0  0  0  0  0
  160.7200  212.3430  149.8030 C   0  0  0  0  0  3  0  0  0  0  0  0
  160.7180  213.6220  149.2430 C   0  0  0  0  0  3  0  0  0  0  0  0
  162.6400  213.1000  147.9530 C   0  0  0  0  0  3  0  0  0  0  0  0
  162.6770  211.8100  148.4900 C   0  0  0  0  0  3  0  0  0  0  0  0
  1 12  1  0  0  0  0
  2 16  1  0  0  0  0
  2  6  1  0  0  0  0
  3 16  2  0  0  0  0
  4 13  1  0  0  0  0
  6 18  2  0  0  0  0
  7 13  1  0  0  0  0
  8 17  1  0  0  0  0
  9  7  2  0  0  0  0
 10  8  2  0  0  0  0
 11 14  2  0  0  0  0
 11  7  1  0  0  0  0
 12  2  2  0  0  0  0
 13  5  1  0  0  0  0
 14  4  1  0  0  0  0
 15  1  2  0  0  0  0
 15 21  1  0  0  0  0
 16 11  1  0  0  0  0
 17 21  2  0  0  0  0
 18 14  1  0  0  0  0
 19 10  1  0  0  0  0
 19 20  2  0  0  0  0
 20 15  1  0  0  0  0
 21  3  1  0  0  0  0
 22 25  1  0  0  0  0
 23 24  1  0  0  0  0
 23 12  1  0  0  0  0
 25 24  2  0  0  0  0
 26 22  2  0  0  0  0
 26 27  1  0  0  0  0
 27 23  2  0  0  0  0
M  END
>  <MODEL>
1

>  <REMARK>
 VINA RESULT:      -7.7      0.000      0.000
  Name = 
  1 active torsions:
  status: ('A' for Active; 'I' for Inactive)
    1  A    between atoms: C_9  and  C_15
                            x       y       z     vdW  Elec       q    Type
                         _______ _______ _______ _____ _____    ______ ____

>  <TORSDO>
F 1

$$$$
=
 OpenBabel11052423113D

 27 31  0  0  0  0  0  0  0  0999 V2000
  160.4840  209.8820  152.5360 C   0  0  0  0  0  3  0  0  0  0  0  0
  161.1880  208.1360  150.8500 C   0  0  0  0  0  0  0  0  0  0  0  0
  161.0230  206.9370  153.0110 C   0  0  0  0  0  3  0  0  0  0  0  0
  161.1720  204.1260  149.2540 C   0  0  0  0  0  2  0  0  0  0  0  0
  161.1750  202.0620  150.6950 N   0  0  0  0  0  1  0  0  0  0  0  0
  161.4090  207.9280  149.4600 C   0  0  0  0  0  3  0  0  0  0  0  0
  160.8480  204.3680  151.5640 C   0  0  0  0  0  0  0  0  0  0  0  0
  161.7770  208.4470  156.3920 C   0  0  0  0  0  3  0  0  0  0  0  0
  160.7100  204.0560  152.7770 O   0  0  0  0  0  0  0  0  0  0  0  0
  161.0520  209.4920  156.7790 C   0  0  0  0  0  3  0  0  0  0  0  0
  160.9870  205.7140  151.0320 C   0  0  0  0  0  0  0  0  0  0  0  0
  161.1000  209.4330  151.2720 C   0  0  0  0  0  0  0  0  0  0  0  0
  160.9120  203.4240  150.5060 N   0  0  0  0  0  0  0  0  0  0  0  0
  161.1780  205.5660  149.6760 C   0  0  0  0  0  0  0  0  0  0  0  0
  160.4610  209.3150  153.7340 C   0  0  0  0  0  0  0  0  0  0  0  0
  161.0190  206.9700  151.6740 C   0  0  0  0  0  0  0  0  0  0  0  0
  161.6440  207.6670  155.1550 C   0  0  0  0  0  3  0  0  0  0  0  0
  161.4140  206.6630  148.8690 C   0  0  0  0  0  3  0  0  0  0  0  0
  159.9520  210.1310  156.0500 C   0  0  0  0  0  3  0  0  0  0  0  0
  159.7050  210.0610  154.7460 C   0  0  0  0  0  3  0  0  0  0  0  0
  161.0860  208.0130  153.9940 C   0  0  0  0  0  0  0  0  0  0  0  0
  162.0150  212.6510  148.6330 N   0  0  0  0  0  0  0  0  0  0  0  0
  161.4360  210.5630  150.3610 C   0  0  0  0  0  0  0  0  0  0  0  0
  160.8410  211.8200  150.5380 C   0  0  0  0  0  3  0  0  0  0  0  0
  161.1490  212.8600  149.6590 C   0  0  0  0  0  3  0  0  0  0  0  0
  162.6000  211.4400  148.4290 C   0  0  0  0  0  3  0  0  0  0  0  0
  162.3180  210.3740  149.2870 C   0  0  0  0  0  3  0  0  0  0  0  0
  1 15  1  0  0  0  0
  2 12  1  0  0  0  0
  2 16  1  0  0  0  0
  3 21  2  0  0  0  0
  4 14  1  0  0  0  0
  4 13  1  0  0  0  0
  6  2  2  0  0  0  0
  7  9  2  0  0  0  0
  8 10  1  0  0  0  0
 11  7  1  0  0  0  0
 11 16  2  0  0  0  0
 12  1  2  0  0  0  0
 13  5  1  0  0  0  0
 13  7  1  0  0  0  0
 14 11  1  0  0  0  0
 15 21  1  0  0  0  0
 15 20  2  0  0  0  0
 16  3  1  0  0  0  0
 17  8  2  0  0  0  0
 18  6  1  0  0  0  0
 18 14  2  0  0  0  0
 19 10  2  0  0  0  0
 20 19  1  0  0  0  0
 21 17  1  0  0  0  0
 22 25  1  0  0  0  0
 23 24  1  0  0  0  0
 23 12  1  0  0  0  0
 25 24  2  0  0  0  0
 26 22  2  0  0  0  0
 26 27  1  0  0  0  0
 27 23  2  0  0  0  0
M  END
>  <MODEL>
2

>  <REMARK>
 VINA RESULT:      -7.7      2.314      5.359
  Name = 
  1 active torsions:
  status: ('A' for Active; 'I' for Inactive)
    1  A    between atoms: C_9  and  C_15
                            x       y       z     vdW  Elec       q    Type
                         _______ _______ _______ _____ _____    ______ ____

>  <TORSDO>
F 1

$$$$
=
 OpenBabel11052423113D

 27 31  0  0  0  0  0  0  0  0999 V2000
  161.5080  206.4200  153.2660 C   0  0  0  0  0  3  0  0  0  0  0  0
  161.4070  207.3760  150.9280 C   0  0  0  0  0  0  0  0  0  0  0  0
  161.0530  209.3020  152.4450 C   0  0  0  0  0  3  0  0  0  0  0  0
  162.1230  210.4940  148.0320 C   0  0  0  0  0  2  0  0  0  0  0  0
  161.8600  212.9450  148.5410 N   0  0  0  0  0  1  0  0  0  0  0  0
  161.5890  207.0400  149.5580 C   0  0  0  0  0  3  0  0  0  0  0  0
  161.7850  211.1490  150.2580 C   0  0  0  0  0  0  0  0  0  0  0  0
  159.3050  209.1360  155.7910 C   0  0  0  0  0  3  0  0  0  0  0  0
  161.6060  211.8980  151.2550 O   0  0  0  0  0  0  0  0  0  0  0  0
  159.8260  208.3440  156.7220 C   0  0  0  0  0  3  0  0  0  0  0  0
  161.7090  209.6960  150.2470 C   0  0  0  0  0  0  0  0  0  0  0  0
  161.2920  206.3360  151.8080 C   0  0  0  0  0  0  0  0  0  0  0  0
  162.0750  211.6240  148.9530 N   0  0  0  0  0  0  0  0  0  0  0  0
  161.9060  209.3170  148.9370 C   0  0  0  0  0  0  0  0  0  0  0  0
  161.2380  207.3940  154.1230 C   0  0  0  0  0  0  0  0  0  0  0  0
  161.4200  208.7720  151.2720 C   0  0  0  0  0  0  0  0  0  0  0  0
  159.8230  209.4010  154.4420 C   0  0  0  0  0  3  0  0  0  0  0  0
  161.8300  207.9890  148.5630 C   0  0  0  0  0  3  0  0  0  0  0  0
  161.0400  207.5270  156.6200 C   0  0  0  0  0  3  0  0  0  0  0  0
  161.6390  207.1150  155.5070 C   0  0  0  0  0  3  0  0  0  0  0  0
  160.6530  208.6700  153.6970 C   0  0  0  0  0  0  0  0  0  0  0  0
  160.8120  202.3280  150.4430 N   0  0  0  0  0  0  0  0  0  0  0  0
  161.1450  204.9340  151.3270 C   0  0  0  0  0  0  0  0  0  0  0  0
  160.8150  204.6720  149.9900 C   0  0  0  0  0  3  0  0  0  0  0  0
  160.6560  203.3530  149.5630 C   0  0  0  0  0  3  0  0  0  0  0  0
  161.1210  202.5510  151.7480 C   0  0  0  0  0  3  0  0  0  0  0  0
  161.2890  203.8580  152.2140 C   0  0  0  0  0  3  0  0  0  0  0  0
  1 15  1  0  0  0  0
  2 16  1  0  0  0  0
  2 12  1  0  0  0  0
  3 21  2  0  0  0  0
  4 14  1  0  0  0  0
  4 13  1  0  0  0  0
  5 13  1  0  0  0  0
  6  2  2  0  0  0  0
  7  9  2  0  0  0  0
  8 10  1  0  0  0  0
 11  7  1  0  0  0  0
 11 16  2  0  0  0  0
 12  1  2  0  0  0  0
 13  7  1  0  0  0  0
 14 11  1  0  0  0  0
 15 20  2  0  0  0  0
 16  3  1  0  0  0  0
 17  8  2  0  0  0  0
 18 14  2  0  0  0  0
 18  6  1  0  0  0  0
 19 10  2  0  0  0  0
 20 19  1  0  0  0  0
 21 15  1  0  0  0  0
 21 17  1  0  0  0  0
 22 26  1  0  0  0  0
 23 12  1  0  0  0  0
 23 27  1  0  0  0  0
 24 23  2  0  0  0  0
 25 24  1  0  0  0  0
 25 22  2  0  0  0  0
 26 27  2  0  0  0  0
M  END
>  <MODEL>
3

>  <REMARK>
 VINA RESULT:      -7.2      2.835      7.219
  Name = 
  1 active torsions:
  status: ('A' for Active; 'I' for Inactive)
    1  A    between atoms: C_9  and  C_15
                            x       y       z     vdW  Elec       q    Type
                         _______ _______ _______ _____ _____    ______ ____

>  <TORSDO>
F 1

$$$$
=
 OpenBabel11052423113D

 27 31  0  0  0  0  0  0  0  0999 V2000
  160.6490  211.3040  151.9960 C   0  0  0  0  0  3  0  0  0  0  0  0
  161.4310  209.2880  150.6870 C   0  0  0  0  0  0  0  0  0  0  0  0
  161.2360  208.5170  153.0340 C   0  0  0  0  0  3  0  0  0  0  0  0
  161.5360  205.0480  149.8840 C   0  0  0  0  0  2  0  0  0  0  0  0
  161.5460  203.2950  151.6900 N   0  0  0  0  0  1  0  0  0  0  0  0
  161.6910  208.8250  149.3680 C   0  0  0  0  0  3  0  0  0  0  0  0
  161.1500  205.7160  152.0980 C   0  0  0  0  0  0  0  0  0  0  0  0
  161.8750  210.6590  156.0800 C   0  0  0  0  0  3  0  0  0  0  0  0
  160.9880  205.6360  153.3450 O   0  0  0  0  0  0  0  0  0  0  0  0
  161.1190  211.7400  156.2460 C   0  0  0  0  0  3  0  0  0  0  0  0
  161.2750  206.9400  151.3220 C   0  0  0  0  0  0  0  0  0  0  0  0
  161.3050  210.6380  150.8530 C   0  0  0  0  0  0  0  0  0  0  0  0
  161.2600  204.5900  151.2410 N   0  0  0  0  0  0  0  0  0  0  0  0
  161.5030  206.5420  150.0230 C   0  0  0  0  0  0  0  0  0  0  0  0
  160.6080  210.9740  153.2780 C   0  0  0  0  0  0  0  0  0  0  0  0
  161.2650  208.2950  151.7140 C   0  0  0  0  0  0  0  0  0  0  0  0
  161.7890  209.6550  155.0110 C   0  0  0  0  0  3  0  0  0  0  0  0
  161.7360  207.4710  149.0270 C   0  0  0  0  0  3  0  0  0  0  0  0
  160.0250  212.2010  155.3870 C   0  0  0  0  0  3  0  0  0  0  0  0
  159.8110  211.8790  154.1150 C   0  0  0  0  0  3  0  0  0  0  0  0
  161.2520  209.7610  153.7940 C   0  0  0  0  0  0  0  0  0  0  0  0
  162.3020  213.3700  147.7380 N   0  0  0  0  0  0  0  0  0  0  0  0
  161.6410  211.5830  149.7510 C   0  0  0  0  0  0  0  0  0  0  0  0
  162.7530  211.3520  148.9310 C   0  0  0  0  0  3  0  0  0  0  0  0
  163.0670  212.2620  147.9200 C   0  0  0  0  0  3  0  0  0  0  0  0
  161.2220  213.6270  148.5250 C   0  0  0  0  0  3  0  0  0  0  0  0
  160.8750  212.7400  149.5470 C   0  0  0  0  0  3  0  0  0  0  0  0
  1 15  1  0  0  0  0
  2 12  1  0  0  0  0
  2 16  1  0  0  0  0
  3 21  2  0  0  0  0
  4 14  1  0  0  0  0
  4 13  1  0  0  0  0
  6  2  2  0  0  0  0
  7  9  2  0  0  0  0
  8 10  1  0  0  0  0
 11 16  2  0  0  0  0
 11  7  1  0  0  0  0
 12  1  2  0  0  0  0
 13  5  1  0  0  0  0
 13  7  1  0  0  0  0
 14 11  1  0  0  0  0
 15 21  1  0  0  0  0
 15 20  2  0  0  0  0
 16  3  1  0  0  0  0
 17  8  2  0  0  0  0
 18  6  1  0  0  0  0
 18 14  2  0  0  0  0
 19 10  2  0  0  0  0
 20 19  1  0  0  0  0
 21 17  1  0  0  0  0
 22 25  2  0  0  0  0
 22 26  1  0  0  0  0
 23 12  1  0  0  0  0
 24 23  2  0  0  0  0
 25 24  1  0  0  0  0
 26 27  2  0  0  0  0
 27 23  1  0  0  0  0
M  END
>  <MODEL>
4

>  <REMARK>
 VINA RESULT:      -7.2      1.932      5.272
  Name = 
  1 active torsions:
  status: ('A' for Active; 'I' for Inactive)
    1  A    between atoms: C_9  and  C_15
                            x       y       z     vdW  Elec       q    Type
                         _______ _______ _______ _____ _____    ______ ____

>  <TORSDO>
F 1

$$$$
=
 OpenBabel11052423113D

 27 31  0  0  0  0  0  0  0  0999 V2000
  161.3950  209.8770  140.5170 C   0  0  0  0  0  3  0  0  0  0  0  0
  159.5350  211.5340  140.0890 C   0  0  0  0  0  0  0  0  0  0  0  0
  159.0360  209.5930  138.6340 C   0  0  0  0  0  3  0  0  0  0  0  0
  155.4310  212.5450  139.2130 C   0  0  0  0  0  2  0  0  0  0  0  0
  153.9890  211.2280  137.6260 N   0  0  0  0  0  1  0  0  0  0  0  0
  159.0050  212.7800  140.5260 C   0  0  0  0  0  3  0  0  0  0  0  0
  156.2310  210.4920  138.4090 C   0  0  0  0  0  0  0  0  0  0  0  0
  161.6290  207.3750  137.0110 C   0  0  0  0  0  3  0  0  0  0  0  0
  156.2630  209.4020  137.7780 O   0  0  0  0  0  0  0  0  0  0  0  0
  162.4650  206.7160  137.8080 C   0  0  0  0  0  3  0  0  0  0  0  0
  157.3350  211.1010  139.1340 C   0  0  0  0  0  0  0  0  0  0  0  0
  160.8050  211.2300  140.4910 C   0  0  0  0  0  0  0  0  0  0  0  0
  155.0850  211.3260  138.4910 N   0  0  0  0  0  0  0  0  0  0  0  0
  156.8610  212.3060  139.6030 C   0  0  0  0  0  0  0  0  0  0  0  0
  161.2270  208.8480  139.6990 C   0  0  0  0  0  0  0  0  0  0  0  0
  158.6700  210.6840  139.3170 C   0  0  0  0  0  0  0  0  0  0  0  0
  160.5180  208.2530  137.4010 C   0  0  0  0  0  3  0  0  0  0  0  0
  157.6880  213.1760  140.2870 C   0  0  0  0  0  3  0  0  0  0  0  0
  162.4910  206.7230  139.2730 C   0  0  0  0  0  3  0  0  0  0  0  0
  161.9670  207.6390  140.0820 C   0  0  0  0  0  3  0  0  0  0  0  0
  160.3180  208.9030  138.5490 C   0  0  0  0  0  0  0  0  0  0  0  0
  163.3060  214.0980  142.4090 N   0  0  0  0  0  0  0  0  0  0  0  0
  161.6630  212.2450  141.1640 C   0  0  0  0  0  0  0  0  0  0  0  0
  162.3380  213.2160  140.4120 C   0  0  0  0  0  3  0  0  0  0  0  0
  163.1580  214.1430  141.0580 C   0  0  0  0  0  3  0  0  0  0  0  0
  162.6730  213.1610  143.1640 C   0  0  0  0  0  3  0  0  0  0  0  0
  161.8440  212.2160  142.5540 C   0  0  0  0  0  3  0  0  0  0  0  0
  2 12  2  0  0  0  0
  2  6  1  0  0  0  0
  3 16  2  0  0  0  0
  4 14  1  0  0  0  0
  5 13  1  0  0  0  0
  7 13  1  0  0  0  0
  7 11  1  0  0  0  0
  8 17  1  0  0  0  0
  8 10  2  0  0  0  0
  9  7  2  0  0  0  0
 10 19  1  0  0  0  0
 11 16  1  0  0  0  0
 11 14  2  0  0  0  0
 12  1  1  0  0  0  0
 12 23  1  0  0  0  0
 13  4  1  0  0  0  0
 14 18  1  0  0  0  0
 15 20  1  0  0  0  0
 15  1  2  0  0  0  0
 16  2  1  0  0  0  0
 17 21  2  0  0  0  0
 18  6  2  0  0  0  0
 19 20  2  0  0  0  0
 21  3  1  0  0  0  0
 21 15  1  0  0  0  0
 22 26  1  0  0  0  0
 23 27  1  0  0  0  0
 24 25  1  0  0  0  0
 24 23  2  0  0  0  0
 25 22  2  0  0  0  0
 27 26  2  0  0  0  0
M  END
>  <MODEL>
5

>  <REMARK>
 VINA RESULT:      -6.6      9.915     12.353
  Name = 
  1 active torsions:
  status: ('A' for Active; 'I' for Inactive)
    1  A    between atoms: C_9  and  C_15
                            x       y       z     vdW  Elec       q    Type
                         _______ _______ _______ _____ _____    ______ ____

>  <TORSDO>
F 1

$$$$
=
 OpenBabel11052423113D

 27 31  0  0  0  0  0  0  0  0999 V2000
  162.0850  209.6520  150.8760 C   0  0  0  0  0  3  0  0  0  0  0  0
  161.2810  207.2790  150.5390 C   0  0  0  0  0  0  0  0  0  0  0  0
  161.5810  208.2040  148.2600 C   0  0  0  0  0  3  0  0  0  0  0  0
  161.2060  203.5270  148.4080 C   0  0  0  0  0  2  0  0  0  0  0  0
  161.2960  203.3560  145.8980 N   0  0  0  0  0  1  0  0  0  0  0  0
  160.9750  206.0770  151.2350 C   0  0  0  0  0  3  0  0  0  0  0  0
  161.6720  205.4610  147.1670 C   0  0  0  0  0  0  0  0  0  0  0  0
  161.0340  211.8170  147.2960 C   0  0  0  0  0  3  0  0  0  0  0  0
  161.8850  206.2030  146.1720 O   0  0  0  0  0  0  0  0  0  0  0  0
  161.7800  212.7370  147.8990 C   0  0  0  0  0  3  0  0  0  0  0  0
  161.4970  205.8960  148.5440 C   0  0  0  0  0  0  0  0  0  0  0  0
  161.3920  208.4150  151.2900 C   0  0  0  0  0  0  0  0  0  0  0  0
  161.5440  204.0500  147.0890 N   0  0  0  0  0  0  0  0  0  0  0  0
  161.2230  204.7560  149.2680 C   0  0  0  0  0  0  0  0  0  0  0  0
  162.1820  210.2280  149.6870 C   0  0  0  0  0  0  0  0  0  0  0  0
  161.5020  207.1830  149.1210 C   0  0  0  0  0  0  0  0  0  0  0  0
  161.0930  210.3590  147.4660 C   0  0  0  0  0  3  0  0  0  0  0  0
  160.9360  204.8250  150.6180 C   0  0  0  0  0  3  0  0  0  0  0  0
  162.8320  212.5180  148.8970 C   0  0  0  0  0  3  0  0  0  0  0  0
  162.9980  211.4480  149.6670 C   0  0  0  0  0  3  0  0  0  0  0  0
  161.5770  209.6450  148.4840 C   0  0  0  0  0  0  0  0  0  0  0  0
  160.3190  208.4760  155.4140 N   0  0  0  0  0  0  0  0  0  0  0  0
  160.9980  208.4290  152.7270 C   0  0  0  0  0  0  0  0  0  0  0  0
  160.4560  209.5860  153.3040 C   0  0  0  0  0  3  0  0  0  0  0  0
  160.1160  209.5880  154.6580 C   0  0  0  0  0  3  0  0  0  0  0  0
  160.8530  207.3430  154.8850 C   0  0  0  0  0  3  0  0  0  0  0  0
  161.2060  207.3010  153.5330 C   0  0  0  0  0  3  0  0  0  0  0  0
  1 12  1  0  0  0  0
  2  6  1  0  0  0  0
  2 12  2  0  0  0  0
  3 21  1  0  0  0  0
  3 16  2  0  0  0  0
  4 14  1  0  0  0  0
  5 13  1  0  0  0  0
  7 11  1  0  0  0  0
  8 17  1  0  0  0  0
  8 10  2  0  0  0  0
  9  7  2  0  0  0  0
 10 19  1  0  0  0  0
 11 16  1  0  0  0  0
 11 14  2  0  0  0  0
 12 23  1  0  0  0  0
 13  7  1  0  0  0  0
 13  4  1  0  0  0  0
 14 18  1  0  0  0  0
 15  1  2  0  0  0  0
 16  2  1  0  0  0  0
 17 21  2  0  0  0  0
 18  6  2  0  0  0  0
 19 20  2  0  0  0  0
 20 15  1  0  0  0  0
 21 15  1  0  0  0  0
 23 24  2  0  0  0  0
 23 27  1  0  0  0  0
 24 25  1  0  0  0  0
 25 22  2  0  0  0  0
 26 22  1  0  0  0  0
 27 26  2  0  0  0  0
M  END
>  <MODEL>
6

>  <REMARK>
 VINA RESULT:      -6.3      3.316      6.405
  Name = 
  1 active torsions:
  status: ('A' for Active; 'I' for Inactive)
    1  A    between atoms: C_9  and  C_15
                            x       y       z     vdW  Elec       q    Type
                         _______ _______ _______ _____ _____    ______ ____

>  <TORSDO>
F 1

$$$$
=
 OpenBabel11052423113D

 27 31  0  0  0  0  0  0  0  0999 V2000
  161.7490  203.7900  148.0910 C   0  0  0  0  0  3  0  0  0  0  0  0
  161.4870  206.2170  148.7460 C   0  0  0  0  0  0  0  0  0  0  0  0
  160.9940  204.9230  150.8000 C   0  0  0  0  0  3  0  0  0  0  0  0
  161.8120  209.4850  151.5460 C   0  0  0  0  0  2  0  0  0  0  0  0
  161.3300  209.2550  154.0060 N   0  0  0  0  0  1  0  0  0  0  0  0
  161.6600  207.5450  148.2660 C   0  0  0  0  0  3  0  0  0  0  0  0
  161.4800  207.3390  152.4300 C   0  0  0  0  0  0  0  0  0  0  0  0
  159.3710  201.5120  150.8770 C   0  0  0  0  0  3  0  0  0  0  0  0
  161.2590  206.4300  153.2730 O   0  0  0  0  0  0  0  0  0  0  0  0
  159.9940  200.5160  150.2530 C   0  0  0  0  0  3  0  0  0  0  0  0
  161.5430  207.1770  150.9850 C   0  0  0  0  0  0  0  0  0  0  0  0
  161.4990  205.2180  147.8130 C   0  0  0  0  0  0  0  0  0  0  0  0
  161.6830  208.7010  152.7700 N   0  0  0  0  0  0  0  0  0  0  0  0
  161.7370  208.4400  150.4720 C   0  0  0  0  0  0  0  0  0  0  0  0
  161.4130  203.0430  149.1330 C   0  0  0  0  0  0  0  0  0  0  0  0
  161.3760  206.0390  150.1690 C   0  0  0  0  0  0  0  0  0  0  0  0
  159.8200  202.9020  151.0240 C   0  0  0  0  0  3  0  0  0  0  0  0
  161.7780  208.6530  149.1070 C   0  0  0  0  0  3  0  0  0  0  0  0
  161.2760  200.5720  149.5460 C   0  0  0  0  0  3  0  0  0  0  0  0
  161.8790  201.6530  149.0600 C   0  0  0  0  0  3  0  0  0  0  0  0
  160.6950  203.5900  150.2890 C   0  0  0  0  0  0  0  0  0  0  0  0
  161.4020  206.0440  143.6340 N   0  0  0  0  0  0  0  0  0  0  0  0
  161.4730  205.5260  146.3560 C   0  0  0  0  0  0  0  0  0  0  0  0
  160.3230  206.0660  145.7640 C   0  0  0  0  0  3  0  0  0  0  0  0
  160.3090  206.3240  144.3920 C   0  0  0  0  0  3  0  0  0  0  0  0
  162.5280  205.5100  144.1780 C   0  0  0  0  0  3  0  0  0  0  0  0
  162.5820  205.2370  145.5470 C   0  0  0  0  0  3  0  0  0  0  0  0
  1 15  1  0  0  0  0
  2 16  1  0  0  0  0
  4 13  1  0  0  0  0
  6  2  2  0  0  0  0
  6 18  1  0  0  0  0
  7 13  1  0  0  0  0
  7  9  2  0  0  0  0
  8 17  2  0  0  0  0
 10  8  1  0  0  0  0
 11  7  1  0  0  0  0
 12  1  2  0  0  0  0
 12  2  1  0  0  0  0
 13  5  1  0  0  0  0
 14 11  1  0  0  0  0
 14  4  1  0  0  0  0
 15 21  1  0  0  0  0
 16  3  1  0  0  0  0
 16 11  2  0  0  0  0
 18 14  2  0  0  0  0
 19 10  2  0  0  0  0
 20 15  2  0  0  0  0
 20 19  1  0  0  0  0
 21  3  2  0  0  0  0
 21 17  1  0  0  0  0
 22 26  2  0  0  0  0
 22 25  1  0  0  0  0
 23 12  1  0  0  0  0
 24 23  1  0  0  0  0
 25 24  2  0  0  0  0
 26 27  1  0  0  0  0
 27 23  2  0  0  0  0
M  END
>  <MODEL>
7

>  <REMARK>
 VINA RESULT:      -6.0      3.090      5.330
  Name = 
  1 active torsions:
  status: ('A' for Active; 'I' for Inactive)
    1  A    between atoms: C_9  and  C_15
                            x       y       z     vdW  Elec       q    Type
                         _______ _______ _______ _____ _____    ______ ____

>  <TORSDO>
F 1

$$$$
=
 OpenBabel11052423113D

 27 31  0  0  0  0  0  0  0  0999 V2000
  159.3450  209.6750  137.9570 C   0  0  0  0  0  3  0  0  0  0  0  0
  158.8500  211.3630  139.7720 C   0  0  0  0  0  0  0  0  0  0  0  0
  161.1140  210.4940  140.2790 C   0  0  0  0  0  3  0  0  0  0  0  0
  160.0170  214.4530  142.5500 C   0  0  0  0  0  2  0  0  0  0  0  0
  162.1940  214.4310  143.8140 N   0  0  0  0  0  1  0  0  0  0  0  0
  157.9010  212.3390  140.1830 C   0  0  0  0  0  3  0  0  0  0  0  0
  161.6360  212.8590  141.9700 C   0  0  0  0  0  0  0  0  0  0  0  0
  162.2940  206.9740  139.5730 C   0  0  0  0  0  3  0  0  0  0  0  0
  162.7210  212.2200  141.9810 O   0  0  0  0  0  0  0  0  0  0  0  0
  162.2860  206.5610  138.3100 C   0  0  0  0  0  3  0  0  0  0  0  0
  160.4390  212.5130  141.2190 C   0  0  0  0  0  0  0  0  0  0  0  0
  158.4480  210.4780  138.8110 C   0  0  0  0  0  0  0  0  0  0  0  0
  161.4030  214.0370  142.7270 N   0  0  0  0  0  0  0  0  0  0  0  0
  159.4910  213.4510  141.5650 C   0  0  0  0  0  0  0  0  0  0  0  0
  160.5140  209.1110  138.2250 C   0  0  0  0  0  0  0  0  0  0  0  0
  160.1620  211.4300  140.3590 C   0  0  0  0  0  0  0  0  0  0  0  0
  161.9290  208.3000  140.0890 C   0  0  0  0  0  3  0  0  0  0  0  0
  158.2020  213.3720  141.0730 C   0  0  0  0  0  3  0  0  0  0  0  0
  161.8930  207.3280  137.1240 C   0  0  0  0  0  3  0  0  0  0  0  0
  161.1280  208.4150  137.0880 C   0  0  0  0  0  3  0  0  0  0  0  0
  161.1630  209.2410  139.5340 C   0  0  0  0  0  0  0  0  0  0  0  0
  154.3600  210.3110  137.6180 N   0  0  0  0  0  0  0  0  0  0  0  0
  157.0240  210.4050  138.3800 C   0  0  0  0  0  0  0  0  0  0  0  0
  156.5380  211.2620  137.3840 C   0  0  0  0  0  3  0  0  0  0  0  0
  155.1940  211.1960  137.0110 C   0  0  0  0  0  3  0  0  0  0  0  0
  154.8000  209.4750  138.5960 C   0  0  0  0  0  3  0  0  0  0  0  0
  156.1380  209.5090  138.9970 C   0  0  0  0  0  3  0  0  0  0  0  0
  1 15  2  0  0  0  0
  1 12  1  0  0  0  0
  2  6  1  0  0  0  0
  2 16  1  0  0  0  0
  3 16  2  0  0  0  0
  4 13  1  0  0  0  0
  6 18  2  0  0  0  0
  7  9  2  0  0  0  0
  7 13  1  0  0  0  0
  8 17  1  0  0  0  0
 10  8  2  0  0  0  0
 11 14  2  0  0  0  0
 11  7  1  0  0  0  0
 12  2  2  0  0  0  0
 13  5  1  0  0  0  0
 14  4  1  0  0  0  0
 15 21  1  0  0  0  0
 16 11  1  0  0  0  0
 18 14  1  0  0  0  0
 19 10  1  0  0  0  0
 20 19  2  0  0  0  0
 20 15  1  0  0  0  0
 21 17  2  0  0  0  0
 21  3  1  0  0  0  0
 22 26  1  0  0  0  0
 23 12  1  0  0  0  0
 23 27  1  0  0  0  0
 24 23  2  0  0  0  0
 25 24  1  0  0  0  0
 25 22  2  0  0  0  0
 26 27  2  0  0  0  0
M  END
>  <MODEL>
8

>  <REMARK>
 VINA RESULT:      -6.0     10.134     12.231
  Name = 
  1 active torsions:
  status: ('A' for Active; 'I' for Inactive)
    1  A    between atoms: C_9  and  C_15
                            x       y       z     vdW  Elec       q    Type
                         _______ _______ _______ _____ _____    ______ ____

>  <TORSDO>
F 1

$$$$
=
 OpenBabel11052423113D

 27 31  0  0  0  0  0  0  0  0999 V2000
  162.2820  210.5220  150.6990 C   0  0  0  0  0  3  0  0  0  0  0  0
  161.4890  208.1280  150.8790 C   0  0  0  0  0  0  0  0  0  0  0  0
  161.5440  208.6240  148.4530 C   0  0  0  0  0  3  0  0  0  0  0  0
  161.2670  204.0510  149.4800 C   0  0  0  0  0  2  0  0  0  0  0  0
  161.1080  203.4280  147.0460 N   0  0  0  0  0  1  0  0  0  0  0  0
  161.2750  207.0730  151.8080 C   0  0  0  0  0  3  0  0  0  0  0  0
  161.5730  205.7280  147.8690 C   0  0  0  0  0  0  0  0  0  0  0  0
  160.8410  212.0020  146.9120 C   0  0  0  0  0  3  0  0  0  0  0  0
  161.6720  206.2770  146.7400 O   0  0  0  0  0  0  0  0  0  0  0  0
  161.6270  213.0160  147.2600 C   0  0  0  0  0  3  0  0  0  0  0  0
  161.5290  206.4050  149.1560 C   0  0  0  0  0  0  0  0  0  0  0  0
  161.6560  209.3820  151.3980 C   0  0  0  0  0  0  0  0  0  0  0  0
  161.4620  204.3260  148.0610 N   0  0  0  0  0  0  0  0  0  0  0  0
  161.3480  205.4170  150.0980 C   0  0  0  0  0  0  0  0  0  0  0  0
  162.2490  210.8720  149.4210 C   0  0  0  0  0  0  0  0  0  0  0  0
  161.5700  207.7760  149.4870 C   0  0  0  0  0  0  0  0  0  0  0  0
  160.9410  210.5990  147.3360 C   0  0  0  0  0  3  0  0  0  0  0  0
  161.1970  205.7300  151.4350 C   0  0  0  0  0  3  0  0  0  0  0  0
  162.7770  212.9810  148.1690 C   0  0  0  0  0  3  0  0  0  0  0  0
  163.0390  212.0670  149.0980 C   0  0  0  0  0  3  0  0  0  0  0  0
  161.5380  210.0820  148.4110 C   0  0  0  0  0  0  0  0  0  0  0  0
  160.9750  210.1190  155.5390 N   0  0  0  0  0  0  0  0  0  0  0  0
  161.4070  209.6570  152.8400 C   0  0  0  0  0  0  0  0  0  0  0  0
  162.3390  210.3800  153.5970 C   0  0  0  0  0  3  0  0  0  0  0  0
  162.1010  210.6050  154.9540 C   0  0  0  0  0  3  0  0  0  0  0  0
  160.0580  209.4040  154.8340 C   0  0  0  0  0  3  0  0  0  0  0  0
  160.2590  209.1570  153.4730 C   0  0  0  0  0  3  0  0  0  0  0  0
  1 12  1  0  0  0  0
  2 12  2  0  0  0  0
  2  6  1  0  0  0  0
  3 16  2  0  0  0  0
  4 14  1  0  0  0  0
  5 13  1  0  0  0  0
  7 13  1  0  0  0  0
  7 11  1  0  0  0  0
  8 10  2  0  0  0  0
  8 17  1  0  0  0  0
  9  7  2  0  0  0  0
 10 19  1  0  0  0  0
 11 16  1  0  0  0  0
 11 14  2  0  0  0  0
 12 23  1  0  0  0  0
 13  4  1  0  0  0  0
 14 18  1  0  0  0  0
 15  1  2  0  0  0  0
 16  2  1  0  0  0  0
 17 21  2  0  0  0  0
 18  6  2  0  0  0  0
 19 20  2  0  0  0  0
 20 15  1  0  0  0  0
 21  3  1  0  0  0  0
 21 15  1  0  0  0  0
 23 27  2  0  0  0  0
 23 24  1  0  0  0  0
 24 25  2  0  0  0  0
 25 22  1  0  0  0  0
 26 22  2  0  0  0  0
 27 26  1  0  0  0  0
M  END
>  <MODEL>
9

>  <REMARK>
 VINA RESULT:      -5.6      3.092      5.926
  Name = 
  1 active torsions:
  status: ('A' for Active; 'I' for Inactive)
    1  A    between atoms: C_9  and  C_15
                            x       y       z     vdW  Elec       q    Type
                         _______ _______ _______ _____ _____    ______ ____

>  <TORSDO>
F 1

$$$$
