=
 OpenBabel11062409333D

 34 40  0  0  1  0  0  0  0  0999 V2000
  163.0190  208.1020  150.8250 O   0  0  0  0  0  0  0  0  0  0  0  0
  159.8970  208.4460  153.8830 O   0  0  0  0  0  0  0  0  0  0  0  0
  160.4590  206.1320  153.4500 C   0  0  0  0  0  2  0  0  0  0  0  0
  162.3520  207.4490  151.6680 C   0  0  0  0  0  0  0  0  0  0  0  0
  161.0290  203.9780  150.8950 C   0  0  2  0  0  3  0  0  0  0  0  0
  162.0140  203.2700  151.6140 O   0  0  0  0  0  0  0  0  0  0  0  0
  161.5680  205.3250  150.4030 C   0  0  2  0  0  3  0  0  0  0  0  0
  161.6160  205.3030  152.8530 C   0  0  2  0  0  3  0  0  0  0  0  0
  162.2660  205.9480  151.6150 C   0  0  2  0  0  3  0  0  0  0  0  0
  161.0560  203.9670  152.3800 C   0  0  1  0  0  3  0  0  0  0  0  0
  160.9410  207.5320  153.8460 C   0  0  1  0  0  0  0  0  0  0  0  0
  160.5300  209.0470  152.8030 C   0  0  1  0  0  0  0  0  0  0  0  0
  161.6490  208.1070  152.7080 N   0  0  0  0  0  0  0  0  0  0  0  0
  160.3740  206.1480  149.8910 C   0  0  2  0  0  3  0  0  0  0  0  0
  160.3000  206.3280  148.3600 C   0  0  1  0  0  3  0  0  0  0  0  0
  160.8560  207.4290  149.2470 C   0  0  0  0  0  2  0  0  0  0  0  0
  162.6350  206.1560  147.7190 O   0  0  0  0  0  1  0  0  0  0  0  0
  161.3800  205.6510  147.6320 N   0  0  0  0  0  0  0  0  0  0  0  0
  160.6890  205.4730  144.8400 F   0  0  0  0  0  0  0  0  0  0  0  0
  161.1240  201.9690  147.0340 C   0  0  0  0  0  0  0  0  0  0  0  0
  161.3050  203.2050  147.6640 C   0  0  0  0  0  3  0  0  0  0  0  0
  161.1900  204.4010  146.9420 C   0  0  0  0  0  0  0  0  0  0  0  0
  160.6790  203.1060  144.9460 C   0  0  0  0  0  3  0  0  0  0  0  0
  160.8680  204.3440  145.5700 C   0  0  0  0  0  0  0  0  0  0  0  0
  160.8080  201.9210  145.6750 C   0  0  0  0  0  3  0  0  0  0  0  0
  161.2360  200.7070  147.8180 C   0  0  0  0  0  2  0  0  0  0  0  0
  159.7840  201.0650  149.6130 C   0  0  0  0  0  1  0  0  0  0  0  0
  161.1870  200.9980  149.2400 N   0  0  0  0  0  2  0  0  0  0  0  0
  160.4320  211.5500  152.4360 S   0  0  0  0  0  0  0  0  0  0  0  0
  161.0070  210.4380  153.1340 C   0  0  0  0  0  0  0  0  0  0  0  0
  162.1320  210.6800  154.0990 C   0  0  0  0  0  2  0  0  0  0  0  0
  161.6220  210.9460  155.5090 C   0  0  0  0  0  2  0  0  0  0  0  0
  162.4640  210.2360  156.5180 C   0  0  0  0  0  3  0  0  0  0  0  0
  162.1480  209.0020  156.8960 C   0  0  0  0  0  2  0  0  0  0  0  0
  1  4  2  0  0  0  0
  4 13  1  0  0  0  0
  5  6  1  6  0  0  0
  5 10  1  0  0  0  0
  7 14  1  1  0  0  0
  7  5  1  0  0  0  0
  7  9  1  0  0  0  0
  8  3  1  6  0  0  0
  9  4  1  1  0  0  0
  9  8  1  0  0  0  0
 10  6  1  6  0  0  0
 10  8  1  0  0  0  0
 11  3  1  6  0  0  0
 11  2  1  0  0  0  0
 12 30  1  1  0  0  0
 12 11  1  0  0  0  0
 12  2  1  0  0  0  0
 13 12  1  0  0  0  0
 13 11  1  0  0  0  0
 14 16  1  1  0  0  0
 15 18  1  6  0  0  0
 15 16  1  0  0  0  0
 15 14  1  0  0  0  0
 18 17  1  0  0  0  0
 19 24  1  0  0  0  0
 20 21  1  0  0  0  0
 20 26  1  0  0  0  0
 22 18  1  0  0  0  0
 22 21  2  0  0  0  0
 23 24  2  0  0  0  0
 23 25  1  0  0  0  0
 24 22  1  0  0  0  0
 25 20  2  0  0  0  0
 26 28  1  0  0  0  0
 28 27  1  0  0  0  0
 29 30  2  0  0  0  0
 30 31  1  0  0  0  0
 31 32  1  0  0  0  0
 32 33  1  0  0  0  0
 33 34  2  0  0  0  0
M  END
>  <MODEL>
1

>  <REMARK>
 VINA RESULT:      -7.4      0.000      0.000
  Name = 
  9 active torsions:
  status: ('A' for Active; 'I' for Inactive)
    1  A    between atoms: C_3  and  C_24
    2  A    between atoms: C_7  and  C_15
    3  A    between atoms: C_8  and  C_17
    4  A    between atoms: C_15  and  N_21
    5  A    between atoms: C_16  and  N_31
    6  A    between atoms: C_18  and  N_31
    7  A    between atoms: C_24  and  C_25
    8  A    between atoms: C_25  and  C_27
    9  A    between atoms: C_27  and  C_33
                            x       y       z     vdW  Elec       q    Type
                         _______ _______ _______ _____ _____    ______ ____

>  <TORSDO>
F 9

$$$$
=
 OpenBabel11062409333D

 34 40  0  0  1  0  0  0  0  0999 V2000
  162.8990  208.6950  151.0570 O   0  0  0  0  0  0  0  0  0  0  0  0
  159.6640  208.6920  154.0170 O   0  0  0  0  0  0  0  0  0  0  0  0
  160.4600  206.4490  153.5750 C   0  0  0  0  0  2  0  0  0  0  0  0
  162.2710  207.9680  151.8710 C   0  0  0  0  0  0  0  0  0  0  0  0
  161.3140  204.3980  151.0130 C   0  0  2  0  0  3  0  0  0  0  0  0
  162.3400  203.7770  151.7560 O   0  0  0  0  0  0  0  0  0  0  0  0
  161.7350  205.7980  150.5560 C   0  0  2  0  0  3  0  0  0  0  0  0
  161.7090  205.7440  153.0050 C   0  0  2  0  0  3  0  0  0  0  0  0
  162.3320  206.4660  151.7970 C   0  0  2  0  0  3  0  0  0  0  0  0
  161.2960  204.3670  152.4980 C   0  0  1  0  0  3  0  0  0  0  0  0
  160.7920  207.8830  154.0020 C   0  0  1  0  0  0  0  0  0  0  0  0
  160.2700  209.3660  152.9640 C   0  0  1  0  0  0  0  0  0  0  0  0
  161.4770  208.5400  152.8940 N   0  0  0  0  0  0  0  0  0  0  0  0
  160.4850  206.5100  150.0140 C   0  0  2  0  0  3  0  0  0  0  0  0
  160.3740  206.5810  148.4770 C   0  0  1  0  0  3  0  0  0  0  0  0
  160.8750  207.7720  149.2760 C   0  0  0  0  0  2  0  0  0  0  0  0
  162.7180  206.4710  147.8580 O   0  0  0  0  0  1  0  0  0  0  0  0
  161.4810  205.9230  147.7730 N   0  0  0  0  0  0  0  0  0  0  0  0
  161.1520  205.6510  144.9230 F   0  0  0  0  0  0  0  0  0  0  0  0
  161.1730  202.2290  147.2840 C   0  0  0  0  0  0  0  0  0  0  0  0
  161.3140  203.4830  147.8860 C   0  0  0  0  0  3  0  0  0  0  0  0
  161.3370  204.6520  147.1110 C   0  0  0  0  0  0  0  0  0  0  0  0
  161.0430  203.2920  145.1140 C   0  0  0  0  0  3  0  0  0  0  0  0
  161.1940  204.5480  145.7120 C   0  0  0  0  0  0  0  0  0  0  0  0
  161.0340  202.1340  145.8980 C   0  0  0  0  0  3  0  0  0  0  0  0
  161.1370  200.9980  148.1220 C   0  0  0  0  0  2  0  0  0  0  0  0
  160.9140  200.9650  150.4470 C   0  0  0  0  0  1  0  0  0  0  0  0
  160.1840  201.1600  149.2060 N   0  0  0  0  0  2  0  0  0  0  0  0
  160.3640  211.8230  152.3610 S   0  0  0  0  0  0  0  0  0  0  0  0
  160.6000  210.7910  153.3280 C   0  0  0  0  0  0  0  0  0  0  0  0
  161.2570  211.1450  154.6310 C   0  0  0  0  0  2  0  0  0  0  0  0
  160.3760  212.0460  155.4850 C   0  0  0  0  0  2  0  0  0  0  0  0
  159.4060  211.2350  156.2810 C   0  0  0  0  0  3  0  0  0  0  0  0
  158.1160  211.2400  155.9600 C   0  0  0  0  0  2  0  0  0  0  0  0
  1  4  2  0  0  0  0
  4 13  1  0  0  0  0
  5  6  1  1  0  0  0
  5 10  1  0  0  0  0
  7 14  1  1  0  0  0
  7  5  1  0  0  0  0
  7  9  1  0  0  0  0
  8  3  1  6  0  0  0
  9  4  1  1  0  0  0
  9  8  1  0  0  0  0
 10  6  1  1  0  0  0
 10  8  1  0  0  0  0
 11  3  1  6  0  0  0
 11  2  1  0  0  0  0
 12 30  1  1  0  0  0
 12 11  1  0  0  0  0
 12  2  1  0  0  0  0
 13 12  1  0  0  0  0
 13 11  1  0  0  0  0
 14 16  1  1  0  0  0
 15 18  1  6  0  0  0
 15 16  1  0  0  0  0
 15 14  1  0  0  0  0
 18 17  1  0  0  0  0
 19 24  1  0  0  0  0
 20 21  1  0  0  0  0
 20 26  1  0  0  0  0
 22 18  1  0  0  0  0
 22 21  2  0  0  0  0
 23 24  2  0  0  0  0
 23 25  1  0  0  0  0
 24 22  1  0  0  0  0
 25 20  2  0  0  0  0
 26 28  1  0  0  0  0
 28 27  1  0  0  0  0
 29 30  2  0  0  0  0
 30 31  1  0  0  0  0
 31 32  1  0  0  0  0
 32 33  1  0  0  0  0
 34 33  2  0  0  0  0
M  END
>  <MODEL>
2

>  <REMARK>
 VINA RESULT:      -7.1      0.947      1.153
  Name = 
  9 active torsions:
  status: ('A' for Active; 'I' for Inactive)
    1  A    between atoms: C_3  and  C_24
    2  A    between atoms: C_7  and  C_15
    3  A    between atoms: C_8  and  C_17
    4  A    between atoms: C_15  and  N_21
    5  A    between atoms: C_16  and  N_31
    6  A    between atoms: C_18  and  N_31
    7  A    between atoms: C_24  and  C_25
    8  A    between atoms: C_25  and  C_27
    9  A    between atoms: C_27  and  C_33
                            x       y       z     vdW  Elec       q    Type
                         _______ _______ _______ _____ _____    ______ ____

>  <TORSDO>
F 9

$$$$
=
 OpenBabel11062409333D

 34 40  0  0  1  0  0  0  0  0999 V2000
  162.8380  205.3620  152.4460 O   0  0  0  0  0  0  0  0  0  0  0  0
  160.2160  205.8190  148.9610 O   0  0  0  0  0  0  0  0  0  0  0  0
  161.0970  207.9530  149.6910 C   0  0  0  0  0  2  0  0  0  0  0  0
  162.4330  206.1850  151.5840 C   0  0  0  0  0  0  0  0  0  0  0  0
  161.6280  209.7790  152.4980 C   0  0  2  0  0  3  0  0  0  0  0  0
  162.8210  210.3400  151.9960 O   0  0  0  0  0  0  0  0  0  0  0  0
  161.8420  208.3240  152.9270 C   0  0  2  0  0  3  0  0  0  0  0  0
  162.2730  208.5090  150.5220 C   0  0  2  0  0  3  0  0  0  0  0  0
  162.6020  207.6690  151.7710 C   0  0  2  0  0  3  0  0  0  0  0  0
  161.8870  209.8890  151.0400 C   0  0  1  0  0  3  0  0  0  0  0  0
  161.3850  206.5190  149.2330 C   0  0  1  0  0  0  0  0  0  0  0  0
  160.5610  205.0380  150.0570 C   0  0  1  0  0  0  0  0  0  0  0  0
  161.7970  205.7440  150.3980 N   0  0  0  0  0  0  0  0  0  0  0  0
  160.4600  207.7030  153.1860 C   0  0  2  0  0  3  0  0  0  0  0  0
  159.9550  207.7880  154.6410 C   0  0  1  0  0  3  0  0  0  0  0  0
  160.5820  206.5110  154.1090 C   0  0  0  0  0  2  0  0  0  0  0  0
  161.9970  207.8350  155.9520 O   0  0  0  0  0  1  0  0  0  0  0  0
  160.8770  208.4830  155.5470 N   0  0  0  0  0  0  0  0  0  0  0  0
  162.7230  209.8980  157.2490 F   0  0  0  0  0  0  0  0  0  0  0  0
  159.3810  211.9000  155.8000 C   0  0  0  0  0  0  0  0  0  0  0  0
  159.5810  210.5570  155.4630 C   0  0  0  0  0  3  0  0  0  0  0  0
  160.7130  209.8650  155.9160 C   0  0  0  0  0  0  0  0  0  0  0  0
  161.4330  211.8780  157.0800 C   0  0  0  0  0  3  0  0  0  0  0  0
  161.6420  210.5380  156.7380 C   0  0  0  0  0  0  0  0  0  0  0  0
  160.3060  212.5590  156.6120 C   0  0  0  0  0  3  0  0  0  0  0  0
  158.1650  212.6170  155.3220 C   0  0  0  0  0  2  0  0  0  0  0  0
  155.9710  212.0870  154.7210 C   0  0  0  0  0  1  0  0  0  0  0  0
  157.3630  211.7380  154.4900 N   0  0  0  0  0  2  0  0  0  0  0  0
  160.8300  202.5980  150.6780 S   0  0  0  0  0  0  0  0  0  0  0  0
  160.8350  203.6090  149.6620 C   0  0  0  0  0  0  0  0  0  0  0  0
  161.2090  203.2340  148.2560 C   0  0  0  0  0  2  0  0  0  0  0  0
  160.8730  201.7810  147.9490 C   0  0  0  0  0  2  0  0  0  0  0  0
  160.8570  201.5430  146.4740 C   0  0  0  0  0  3  0  0  0  0  0  0
  160.8830  202.5730  145.6360 C   0  0  0  0  0  2  0  0  0  0  0  0
  2 11  1  0  0  0  0
  2 12  1  0  0  0  0
  4  1  2  0  0  0  0
  5  6  1  1  0  0  0
  5  7  1  0  0  0  0
  7 14  1  6  0  0  0
  8  3  1  1  0  0  0
  8 10  1  0  0  0  0
  8  9  1  0  0  0  0
  9  4  1  6  0  0  0
  9  7  1  0  0  0  0
 10  6  1  1  0  0  0
 10  5  1  0  0  0  0
 11  3  1  1  0  0  0
 11 12  1  0  0  0  0
 11 13  1  0  0  0  0
 12 30  1  6  0  0  0
 12 13  1  0  0  0  0
 13  4  1  0  0  0  0
 14 16  1  1  0  0  0
 14 15  1  0  0  0  0
 15 18  1  1  0  0  0
 16 15  1  0  0  0  0
 18 22  1  0  0  0  0
 18 17  1  0  0  0  0
 20 25  1  0  0  0  0
 21 20  2  0  0  0  0
 21 22  1  0  0  0  0
 22 24  2  0  0  0  0
 24 23  1  0  0  0  0
 24 19  1  0  0  0  0
 25 23  2  0  0  0  0
 26 20  1  0  0  0  0
 28 27  1  0  0  0  0
 28 26  1  0  0  0  0
 30 29  2  0  0  0  0
 31 30  1  0  0  0  0
 32 31  1  0  0  0  0
 33 32  1  0  0  0  0
 34 33  2  0  0  0  0
M  END
>  <MODEL>
3

>  <REMARK>
 VINA RESULT:      -6.3      3.557      9.323
  Name = 
  9 active torsions:
  status: ('A' for Active; 'I' for Inactive)
    1  A    between atoms: C_3  and  C_24
    2  A    between atoms: C_7  and  C_15
    3  A    between atoms: C_8  and  C_17
    4  A    between atoms: C_15  and  N_21
    5  A    between atoms: C_16  and  N_31
    6  A    between atoms: C_18  and  N_31
    7  A    between atoms: C_24  and  C_25
    8  A    between atoms: C_25  and  C_27
    9  A    between atoms: C_27  and  C_33
                            x       y       z     vdW  Elec       q    Type
                         _______ _______ _______ _____ _____    ______ ____

>  <TORSDO>
F 9

$$$$
=
 OpenBabel11062409333D

 34 40  0  0  1  0  0  0  0  0999 V2000
  162.6750  210.2600  151.0400 O   0  0  0  0  0  0  0  0  0  0  0  0
  158.8650  211.6380  152.7160 O   0  0  0  0  0  0  0  0  0  0  0  0
  159.6750  209.6680  153.8650 C   0  0  0  0  0  2  0  0  0  0  0  0
  161.8620  210.0860  151.9850 C   0  0  0  0  0  0  0  0  0  0  0  0
  161.0190  206.6140  153.2620 C   0  0  2  0  0  3  0  0  0  0  0  0
  161.8370  206.6660  154.4110 O   0  0  0  0  0  0  0  0  0  0  0  0
  161.5710  207.5140  152.1530 C   0  0  2  0  0  3  0  0  0  0  0  0
  161.0000  208.9060  154.0870 C   0  0  2  0  0  3  0  0  0  0  0  0
  161.8960  208.8450  152.8360 C   0  0  2  0  0  3  0  0  0  0  0  0
  160.6710  207.4590  154.4330 C   0  0  1  0  0  3  0  0  0  0  0  0
  159.9450  211.1060  153.4070 C   0  0  1  0  0  0  0  0  0  0  0  0
  159.7080  211.6280  151.6120 C   0  0  1  0  0  0  0  0  0  0  0  0
  160.8770  211.0580  152.2860 N   0  0  0  0  0  0  0  0  0  0  0  0
  160.4920  207.6290  151.0630 C   0  0  2  0  0  3  0  0  0  0  0  0
  160.4500  206.4700  150.0450 C   0  0  1  0  0  3  0  0  0  0  0  0
  161.1330  207.7820  149.7010 C   0  0  0  0  0  2  0  0  0  0  0  0
  162.5660  205.7450  150.9860 O   0  0  0  0  0  1  0  0  0  0  0  0
  161.4410  205.4190  150.3050 N   0  0  0  0  0  0  0  0  0  0  0  0
  161.0890  203.3730  152.3030 F   0  0  0  0  0  0  0  0  0  0  0  0
  160.9710  202.3060  148.2880 C   0  0  0  0  0  0  0  0  0  0  0  0
  161.1900  203.6420  148.6400 C   0  0  0  0  0  3  0  0  0  0  0  0
  161.2080  204.0340  149.9870 C   0  0  0  0  0  0  0  0  0  0  0  0
  160.8130  201.7190  150.6290 C   0  0  0  0  0  3  0  0  0  0  0  0
  161.0230  203.0560  150.9860 C   0  0  0  0  0  0  0  0  0  0  0  0
  160.7850  201.3450  149.2830 C   0  0  0  0  0  3  0  0  0  0  0  0
  160.9670  201.9030  146.8530 C   0  0  0  0  0  2  0  0  0  0  0  0
  160.5040  203.2120  144.9740 C   0  0  0  0  0  1  0  0  0  0  0  0
  161.4760  202.9860  146.0300 N   0  0  0  0  0  2  0  0  0  0  0  0
  159.1460  214.0950  151.5410 S   0  0  0  0  0  0  0  0  0  0  0  0
  159.9890  213.0200  151.1080 C   0  0  0  0  0  0  0  0  0  0  0  0
  161.0620  213.2940  150.0930 C   0  0  0  0  0  2  0  0  0  0  0  0
  160.5550  213.1080  148.6690 C   0  0  0  0  0  2  0  0  0  0  0  0
  161.4430  212.1780  147.9090 C   0  0  0  0  0  3  0  0  0  0  0  0
  162.7560  212.3820  147.8890 C   0  0  0  0  0  2  0  0  0  0  0  0
  1  4  2  0  0  0  0
  2 11  1  0  0  0  0
  4 13  1  0  0  0  0
  5  6  1  1  0  0  0
  5 10  1  0  0  0  0
  7 14  1  6  0  0  0
  7  9  1  0  0  0  0
  7  5  1  0  0  0  0
  8  3  1  6  0  0  0
  8 10  1  0  0  0  0
  9  4  1  6  0  0  0
  9  8  1  0  0  0  0
 10  6  1  1  0  0  0
 11  3  1  6  0  0  0
 12 30  1  1  0  0  0
 12 13  1  0  0  0  0
 12  2  1  0  0  0  0
 12 11  1  0  0  0  0
 13 11  1  0  0  0  0
 14 16  1  6  0  0  0
 15 18  1  1  0  0  0
 15 14  1  0  0  0  0
 16 15  1  0  0  0  0
 18 17  1  0  0  0  0
 20 21  2  0  0  0  0
 20 25  1  0  0  0  0
 21 22  1  0  0  0  0
 22 18  1  0  0  0  0
 22 24  2  0  0  0  0
 23 24  1  0  0  0  0
 24 19  1  0  0  0  0
 25 23  2  0  0  0  0
 26 20  1  0  0  0  0
 27 28  1  0  0  0  0
 28 26  1  0  0  0  0
 30 29  2  0  0  0  0
 31 30  1  0  0  0  0
 32 31  1  0  0  0  0
 33 32  1  0  0  0  0
 34 33  2  0  0  0  0
M  END
>  <MODEL>
4

>  <REMARK>
 VINA RESULT:      -5.7      2.799      4.339
  Name = 
  9 active torsions:
  status: ('A' for Active; 'I' for Inactive)
    1  A    between atoms: C_3  and  C_24
    2  A    between atoms: C_7  and  C_15
    3  A    between atoms: C_8  and  C_17
    4  A    between atoms: C_15  and  N_21
    5  A    between atoms: C_16  and  N_31
    6  A    between atoms: C_18  and  N_31
    7  A    between atoms: C_24  and  C_25
    8  A    between atoms: C_25  and  C_27
    9  A    between atoms: C_27  and  C_33
                            x       y       z     vdW  Elec       q    Type
                         _______ _______ _______ _____ _____    ______ ____

>  <TORSDO>
F 9

$$$$
=
 OpenBabel11062409333D

 34 40  0  0  1  0  0  0  0  0999 V2000
  162.7210  209.7400  150.6800 O   0  0  0  0  0  0  0  0  0  0  0  0
  159.3630  209.6950  153.4980 O   0  0  0  0  0  0  0  0  0  0  0  0
  160.4540  207.5370  153.3890 C   0  0  0  0  0  2  0  0  0  0  0  0
  162.1480  209.0480  151.5610 C   0  0  0  0  0  0  0  0  0  0  0  0
  161.6900  205.3030  151.1570 C   0  0  2  0  0  3  0  0  0  0  0  0
  162.7460  204.9220  152.0110 O   0  0  0  0  0  0  0  0  0  0  0  0
  161.9560  206.6760  150.5310 C   0  0  2  0  0  3  0  0  0  0  0  0
  161.8100  206.9330  152.9630 C   0  0  2  0  0  3  0  0  0  0  0  0
  162.4000  207.5700  151.6920 C   0  0  2  0  0  3  0  0  0  0  0  0
  161.5990  205.4610  152.6310 C   0  0  1  0  0  3  0  0  0  0  0  0
  160.5820  209.0440  153.6320 C   0  0  1  0  0  0  0  0  0  0  0  0
  159.9340  210.3020  152.3870 C   0  0  1  0  0  0  0  0  0  0  0  0
  161.2360  209.6380  152.4710 N   0  0  0  0  0  0  0  0  0  0  0  0
  160.6570  207.1430  149.8560 C   0  0  2  0  0  3  0  0  0  0  0  0
  160.4580  206.6720  148.4000 C   0  0  1  0  0  3  0  0  0  0  0  0
  160.9670  208.0710  148.7020 C   0  0  0  0  0  2  0  0  0  0  0  0
  162.7990  206.3280  147.8610 O   0  0  0  0  0  1  0  0  0  0  0  0
  161.5440  205.8200  147.9010 N   0  0  0  0  0  0  0  0  0  0  0  0
  161.7410  204.7720  145.2240 F   0  0  0  0  0  0  0  0  0  0  0  0
  160.8260  202.1770  148.3390 C   0  0  0  0  0  0  0  0  0  0  0  0
  161.0210  203.5350  148.6080 C   0  0  0  0  0  3  0  0  0  0  0  0
  161.3560  204.4280  147.5800 C   0  0  0  0  0  0  0  0  0  0  0  0
  161.2710  202.5820  145.9970 C   0  0  0  0  0  3  0  0  0  0  0  0
  161.4750  203.9400  146.2620 C   0  0  0  0  0  0  0  0  0  0  0  0
  160.9480  201.7010  147.0330 C   0  0  0  0  0  3  0  0  0  0  0  0
  160.4580  201.2430  149.4410 C   0  0  0  0  0  2  0  0  0  0  0  0
  161.6530  201.6650  151.4030 C   0  0  0  0  0  1  0  0  0  0  0  0
  160.4120  201.9560  150.7050 N   0  0  0  0  0  2  0  0  0  0  0  0
  159.7080  212.3690  153.8310 S   0  0  0  0  0  0  0  0  0  0  0  0
  160.0630  211.7920  152.5680 C   0  0  0  0  0  0  0  0  0  0  0  0
  160.4580  212.6960  151.4340 C   0  0  0  0  0  2  0  0  0  0  0  0
  159.2710  213.4830  150.8960 C   0  0  0  0  0  2  0  0  0  0  0  0
  159.4130  213.7150  149.4280 C   0  0  0  0  0  3  0  0  0  0  0  0
  160.6150  213.6760  148.8630 C   0  0  0  0  0  2  0  0  0  0  0  0
  1  4  2  0  0  0  0
  2 11  1  0  0  0  0
  4 13  1  0  0  0  0
  5  6  1  1  0  0  0
  5 10  1  0  0  0  0
  7 14  1  1  0  0  0
  7  5  1  0  0  0  0
  7  9  1  0  0  0  0
  8  3  1  6  0  0  0
  9  4  1  6  0  0  0
  9  8  1  0  0  0  0
 10  6  1  1  0  0  0
 10  8  1  0  0  0  0
 11  3  1  6  0  0  0
 12 13  1  0  0  0  0
 12 30  1  1  0  0  0
 12  2  1  0  0  0  0
 12 11  1  0  0  0  0
 13 11  1  0  0  0  0
 14 16  1  6  0  0  0
 15 18  1  6  0  0  0
 15 16  1  0  0  0  0
 15 14  1  0  0  0  0
 17 18  1  0  0  0  0
 19 24  1  0  0  0  0
 20 21  1  0  0  0  0
 20 26  1  0  0  0  0
 22 18  1  0  0  0  0
 22 21  2  0  0  0  0
 23 24  2  0  0  0  0
 23 25  1  0  0  0  0
 24 22  1  0  0  0  0
 25 20  2  0  0  0  0
 26 28  1  0  0  0  0
 28 27  1  0  0  0  0
 30 29  2  0  0  0  0
 31 30  1  0  0  0  0
 32 31  1  0  0  0  0
 33 32  1  0  0  0  0
 34 33  2  0  0  0  0
M  END
>  <MODEL>
5

>  <REMARK>
 VINA RESULT:      -5.6      1.930      2.829
  Name = 
  9 active torsions:
  status: ('A' for Active; 'I' for Inactive)
    1  A    between atoms: C_3  and  C_24
    2  A    between atoms: C_7  and  C_15
    3  A    between atoms: C_8  and  C_17
    4  A    between atoms: C_15  and  N_21
    5  A    between atoms: C_16  and  N_31
    6  A    between atoms: C_18  and  N_31
    7  A    between atoms: C_24  and  C_25
    8  A    between atoms: C_25  and  C_27
    9  A    between atoms: C_27  and  C_33
                            x       y       z     vdW  Elec       q    Type
                         _______ _______ _______ _____ _____    ______ ____

>  <TORSDO>
F 9

$$$$
=
 OpenBabel11062409333D

 34 40  0  0  1  0  0  0  0  0999 V2000
  159.7060  207.6560  153.6340 O   0  0  0  0  0  0  0  0  0  0  0  0
  163.1130  210.3020  154.4200 O   0  0  0  0  0  0  0  0  0  0  0  0
  162.7070  210.0650  152.0450 C   0  0  0  0  0  2  0  0  0  0  0  0
  160.5190  208.4500  153.0920 C   0  0  0  0  0  0  0  0  0  0  0  0
  162.0400  207.7150  149.6940 C   0  0  2  0  0  3  0  0  0  0  0  0
  161.2060  208.5830  148.9580 O   0  0  0  0  0  0  0  0  0  0  0  0
  161.3350  207.2180  150.9600 C   0  0  2  0  0  3  0  0  0  0  0  0
  161.5660  209.6540  151.0910 C   0  0  2  0  0  3  0  0  0  0  0  0
  160.7270  208.4680  151.6010 C   0  0  2  0  0  3  0  0  0  0  0  0
  162.1810  209.1910  149.7760 C   0  0  1  0  0  3  0  0  0  0  0  0
  162.1540  210.4380  153.4250 C   0  0  1  0  0  0  0  0  0  0  0  0
  162.3120  209.2730  154.8980 C   0  0  1  0  0  0  0  0  0  0  0  0
  161.2750  209.3610  153.8680 N   0  0  0  0  0  0  0  0  0  0  0  0
  162.3870  206.5240  151.8400 C   0  0  2  0  0  3  0  0  0  0  0  0
  162.1870  205.0080  152.0440 C   0  0  1  0  0  3  0  0  0  0  0  0
  161.7490  205.9990  153.1080 C   0  0  0  0  0  2  0  0  0  0  0  0
  159.7910  204.6730  151.8480 O   0  0  0  0  0  1  0  0  0  0  0  0
  161.0260  204.4630  151.3300 N   0  0  0  0  0  0  0  0  0  0  0  0
  160.5330  201.6580  150.8880 F   0  0  0  0  0  0  0  0  0  0  0  0
  161.6480  204.0380  147.6680 C   0  0  0  0  0  0  0  0  0  0  0  0
  161.5300  204.6090  148.9390 C   0  0  0  0  0  3  0  0  0  0  0  0
  161.1300  203.8350  150.0380 C   0  0  0  0  0  0  0  0  0  0  0  0
  160.9950  201.8940  148.5760 C   0  0  0  0  0  3  0  0  0  0  0  0
  160.8670  202.4620  149.8480 C   0  0  0  0  0  0  0  0  0  0  0  0
  161.3830  202.6790  147.4880 C   0  0  0  0  0  3  0  0  0  0  0  0
  162.0870  204.8710  146.5120 C   0  0  0  0  0  2  0  0  0  0  0  0
  160.4560  205.9850  145.2640 C   0  0  0  0  0  1  0  0  0  0  0  0
  161.2960  206.0870  146.4460 N   0  0  0  0  0  2  0  0  0  0  0  0
  161.5480  208.5040  157.1860 S   0  0  0  0  0  0  0  0  0  0  0  0
  161.7580  209.5820  156.2650 C   0  0  0  0  0  0  0  0  0  0  0  0
  161.3290  210.9690  156.6500 C   0  0  0  0  0  2  0  0  0  0  0  0
  159.8140  211.1190  156.6330 C   0  0  0  0  0  2  0  0  0  0  0  0
  159.3750  211.9030  155.4390 C   0  0  0  0  0  3  0  0  0  0  0  0
  158.4100  211.4320  154.6550 C   0  0  0  0  0  2  0  0  0  0  0  0
  2 12  1  0  0  0  0
  4  1  2  0  0  0  0
  4 13  1  0  0  0  0
  5  6  1  6  0  0  0
  5 10  1  0  0  0  0
  5  7  1  0  0  0  0
  7  9  1  0  0  0  0
  7 14  1  1  0  0  0
  8  9  1  0  0  0  0
  8  3  1  1  0  0  0
  9  4  1  1  0  0  0
 10  6  1  6  0  0  0
 10  8  1  0  0  0  0
 11  3  1  6  0  0  0
 11 13  1  0  0  0  0
 11  2  1  0  0  0  0
 11 12  1  0  0  0  0
 12 30  1  1  0  0  0
 13 12  1  0  0  0  0
 14 15  1  0  0  0  0
 14 16  1  1  0  0  0
 15 18  1  6  0  0  0
 15 16  1  0  0  0  0
 18 17  1  0  0  0  0
 20 21  1  0  0  0  0
 21 22  2  0  0  0  0
 22 18  1  0  0  0  0
 23 24  2  0  0  0  0
 24 22  1  0  0  0  0
 24 19  1  0  0  0  0
 25 20  2  0  0  0  0
 25 23  1  0  0  0  0
 26 20  1  0  0  0  0
 27 28  1  0  0  0  0
 28 26  1  0  0  0  0
 30 31  1  0  0  0  0
 30 29  2  0  0  0  0
 32 31  1  0  0  0  0
 33 32  1  0  0  0  0
 34 33  2  0  0  0  0
M  END
>  <MODEL>
6

>  <REMARK>
 VINA RESULT:      -5.5      2.389      4.181
  Name = 
  9 active torsions:
  status: ('A' for Active; 'I' for Inactive)
    1  A    between atoms: C_3  and  C_24
    2  A    between atoms: C_7  and  C_15
    3  A    between atoms: C_8  and  C_17
    4  A    between atoms: C_15  and  N_21
    5  A    between atoms: C_16  and  N_31
    6  A    between atoms: C_18  and  N_31
    7  A    between atoms: C_24  and  C_25
    8  A    between atoms: C_25  and  C_27
    9  A    between atoms: C_27  and  C_33
                            x       y       z     vdW  Elec       q    Type
                         _______ _______ _______ _____ _____    ______ ____

>  <TORSDO>
F 9

$$$$
=
 OpenBabel11062409333D

 34 40  0  0  1  0  0  0  0  0999 V2000
  163.0830  207.7780  150.9780 O   0  0  0  0  0  0  0  0  0  0  0  0
  160.0710  208.0290  154.1540 O   0  0  0  0  0  0  0  0  0  0  0  0
  160.4650  205.7350  153.4880 C   0  0  0  0  0  2  0  0  0  0  0  0
  162.3950  207.0920  151.7780 C   0  0  0  0  0  0  0  0  0  0  0  0
  160.8230  203.8030  150.7250 C   0  0  2  0  0  3  0  0  0  0  0  0
  161.7770  202.9670  151.3430 O   0  0  0  0  0  0  0  0  0  0  0  0
  161.4380  205.1530  150.3450 C   0  0  2  0  0  3  0  0  0  0  0  0
  161.5480  204.8940  152.7790 C   0  0  2  0  0  3  0  0  0  0  0  0
  162.2070  205.6110  151.5870 C   0  0  2  0  0  3  0  0  0  0  0  0
  160.8880  203.6480  152.2010 C   0  0  1  0  0  3  0  0  0  0  0  0
  161.0500  207.0570  153.9980 C   0  0  1  0  0  0  0  0  0  0  0  0
  160.7150  208.6880  153.1140 C   0  0  1  0  0  0  0  0  0  0  0  0
  161.7660  207.6910  152.8960 N   0  0  0  0  0  0  0  0  0  0  0  0
  160.2900  206.0960  149.9500 C   0  0  2  0  0  3  0  0  0  0  0  0
  160.2820  206.5530  148.4760 C   0  0  1  0  0  3  0  0  0  0  0  0
  160.8330  207.4550  149.5670 C   0  0  0  0  0  2  0  0  0  0  0  0
  162.6320  206.4280  147.8850 O   0  0  0  0  0  1  0  0  0  0  0  0
  161.3700  205.9810  147.6750 N   0  0  0  0  0  0  0  0  0  0  0  0
  160.6790  206.3040  144.8960 F   0  0  0  0  0  0  0  0  0  0  0  0
  161.1000  202.4650  146.4320 C   0  0  0  0  0  0  0  0  0  0  0  0
  161.2850  203.5670  147.2720 C   0  0  0  0  0  3  0  0  0  0  0  0
  161.1750  204.8740  146.7740 C   0  0  0  0  0  0  0  0  0  0  0  0
  160.6600  203.9550  144.5790 C   0  0  0  0  0  3  0  0  0  0  0  0
  160.8530  205.0620  145.4130 C   0  0  0  0  0  0  0  0  0  0  0  0
  160.7840  202.6590  145.0870 C   0  0  0  0  0  3  0  0  0  0  0  0
  161.2070  201.0830  146.9800 C   0  0  0  0  0  2  0  0  0  0  0  0
  161.5820  198.9940  146.0020 C   0  0  0  0  0  1  0  0  0  0  0  0
  160.6710  200.1260  146.0270 N   0  0  0  0  0  2  0  0  0  0  0  0
  162.3420  210.0080  154.5350 S   0  0  0  0  0  0  0  0  0  0  0  0
  161.2920  210.0070  153.5590 C   0  0  0  0  0  0  0  0  0  0  0  0
  160.7330  211.3170  153.0830 C   0  0  0  0  0  2  0  0  0  0  0  0
  160.2900  211.2490  151.6270 C   0  0  0  0  0  2  0  0  0  0  0  0
  161.3920  211.6880  150.7190 C   0  0  0  0  0  3  0  0  0  0  0  0
  161.9580  210.8140  149.8930 C   0  0  0  0  0  2  0  0  0  0  0  0
  1  4  2  0  0  0  0
  4 13  1  0  0  0  0
  5  6  1  6  0  0  0
  5 10  1  0  0  0  0
  7 14  1  1  0  0  0
  7  5  1  0  0  0  0
  7  9  1  0  0  0  0
  8  3  1  6  0  0  0
  9  4  1  1  0  0  0
  9  8  1  0  0  0  0
 10  6  1  6  0  0  0
 10  8  1  0  0  0  0
 11  3  1  6  0  0  0
 11  2  1  0  0  0  0
 12 30  1  1  0  0  0
 12 11  1  0  0  0  0
 12  2  1  0  0  0  0
 13 12  1  0  0  0  0
 13 11  1  0  0  0  0
 14 16  1  1  0  0  0
 15 18  1  6  0  0  0
 15 16  1  0  0  0  0
 15 14  1  0  0  0  0
 18 17  1  0  0  0  0
 19 24  1  0  0  0  0
 20 26  1  0  0  0  0
 20 21  1  0  0  0  0
 22 21  2  0  0  0  0
 22 18  1  0  0  0  0
 23 25  1  0  0  0  0
 23 24  2  0  0  0  0
 24 22  1  0  0  0  0
 25 20  2  0  0  0  0
 27 28  1  0  0  0  0
 28 26  1  0  0  0  0
 30 29  2  0  0  0  0
 31 30  1  0  0  0  0
 32 31  1  0  0  0  0
 33 32  1  0  0  0  0
 34 33  2  0  0  0  0
M  END
>  <MODEL>
7

>  <REMARK>
 VINA RESULT:      -5.3      1.409      2.169
  Name = 
  9 active torsions:
  status: ('A' for Active; 'I' for Inactive)
    1  A    between atoms: C_3  and  C_24
    2  A    between atoms: C_7  and  C_15
    3  A    between atoms: C_8  and  C_17
    4  A    between atoms: C_15  and  N_21
    5  A    between atoms: C_16  and  N_31
    6  A    between atoms: C_18  and  N_31
    7  A    between atoms: C_24  and  C_25
    8  A    between atoms: C_25  and  C_27
    9  A    between atoms: C_27  and  C_33
                            x       y       z     vdW  Elec       q    Type
                         _______ _______ _______ _____ _____    ______ ____

>  <TORSDO>
F 9

$$$$
=
 OpenBabel11062409333D

 34 40  0  0  1  0  0  0  0  0999 V2000
  160.1760  211.7000  152.9750 O   0  0  0  0  0  0  0  0  0  0  0  0
  157.8040  212.7040  156.5240 O   0  0  0  0  0  0  0  0  0  0  0  0
  160.0040  211.8960  157.1300 C   0  0  0  0  0  2  0  0  0  0  0  0
  160.2310  211.8350  154.2250 C   0  0  0  0  0  0  0  0  0  0  0  0
  162.2190  209.4380  156.3930 C   0  0  2  0  0  3  0  0  0  0  0  0
  163.3320  210.2830  156.5820 O   0  0  0  0  0  0  0  0  0  0  0  0
  161.5140  209.7440  155.0680 C   0  0  2  0  0  3  0  0  0  0  0  0
  161.4020  211.7310  156.4990 C   0  0  2  0  0  3  0  0  0  0  0  0
  161.3690  211.2680  155.0310 C   0  0  2  0  0  3  0  0  0  0  0  0
  162.1480  210.6420  157.2600 C   0  0  1  0  0  3  0  0  0  0  0  0
  159.1650  212.9050  156.3370 C   0  0  1  0  0  0  0  0  0  0  0  0
  157.7850  212.3450  155.1820 C   0  0  1  0  0  0  0  0  0  0  0  0
  159.2150  212.5290  154.9280 N   0  0  0  0  0  0  0  0  0  0  0  0
  160.1700  208.9980  155.0690 C   0  0  2  0  0  3  0  0  0  0  0  0
  160.0920  207.7700  154.1380 C   0  0  1  0  0  3  0  0  0  0  0  0
  159.5070  209.1060  153.7130 C   0  0  0  0  0  2  0  0  0  0  0  0
  162.3620  206.9120  154.0880 O   0  0  0  0  0  1  0  0  0  0  0  0
  161.3400  207.4950  153.4150 N   0  0  0  0  0  0  0  0  0  0  0  0
  162.5540  209.8370  152.2550 F   0  0  0  0  0  0  0  0  0  0  0  0
  161.0730  206.8800  149.7370 C   0  0  0  0  0  0  0  0  0  0  0  0
  160.9630  206.7250  151.1220 C   0  0  0  0  0  3  0  0  0  0  0  0
  161.4780  207.6940  151.9960 C   0  0  0  0  0  0  0  0  0  0  0  0
  162.1910  208.9990  150.0690 C   0  0  0  0  0  3  0  0  0  0  0  0
  162.0920  208.8440  151.4560 C   0  0  0  0  0  0  0  0  0  0  0  0
  161.6840  208.0200  149.2110 C   0  0  0  0  0  3  0  0  0  0  0  0
  160.5090  205.8480  148.8220 C   0  0  0  0  0  2  0  0  0  0  0  0
  161.2790  203.7100  148.2780 C   0  0  0  0  0  1  0  0  0  0  0  0
  161.5840  205.1260  148.1630 N   0  0  0  0  0  2  0  0  0  0  0  0
  155.5420  213.0730  154.2610 S   0  0  0  0  0  0  0  0  0  0  0  0
  156.9540  213.2960  154.3590 C   0  0  0  0  0  0  0  0  0  0  0  0
  157.5780  214.4060  153.5620 C   0  0  0  0  0  2  0  0  0  0  0  0
  157.1160  214.3900  152.1110 C   0  0  0  0  0  2  0  0  0  0  0  0
  157.9890  213.5000  151.2880 C   0  0  0  0  0  3  0  0  0  0  0  0
  158.1890  213.7720  150.0030 C   0  0  0  0  0  2  0  0  0  0  0  0
  1  4  2  0  0  0  0
  4 13  1  0  0  0  0
  5  6  1  6  0  0  0
  5 10  1  0  0  0  0
  7 14  1  1  0  0  0
  7  5  1  0  0  0  0
  8  3  1  1  0  0  0
  8 10  1  0  0  0  0
  9  4  1  1  0  0  0
  9  7  1  0  0  0  0
  9  8  1  0  0  0  0
 10  6  1  6  0  0  0
 11  2  1  0  0  0  0
 11  3  1  1  0  0  0
 12 30  1  6  0  0  0
 12 11  1  0  0  0  0
 12  2  1  0  0  0  0
 13 12  1  0  0  0  0
 13 11  1  0  0  0  0
 14 16  1  6  0  0  0
 15 18  1  6  0  0  0
 15 14  1  0  0  0  0
 16 15  1  0  0  0  0
 18 17  1  0  0  0  0
 20 21  1  0  0  0  0
 21 22  2  0  0  0  0
 22 18  1  0  0  0  0
 23 24  2  0  0  0  0
 24 22  1  0  0  0  0
 24 19  1  0  0  0  0
 25 20  2  0  0  0  0
 25 23  1  0  0  0  0
 26 20  1  0  0  0  0
 28 27  1  0  0  0  0
 28 26  1  0  0  0  0
 29 30  2  0  0  0  0
 31 30  1  0  0  0  0
 32 31  1  0  0  0  0
 33 32  1  0  0  0  0
 34 33  2  0  0  0  0
M  END
>  <MODEL>
8

>  <REMARK>
 VINA RESULT:      -5.1      3.470      6.456
  Name = 
  9 active torsions:
  status: ('A' for Active; 'I' for Inactive)
    1  A    between atoms: C_3  and  C_24
    2  A    between atoms: C_7  and  C_15
    3  A    between atoms: C_8  and  C_17
    4  A    between atoms: C_15  and  N_21
    5  A    between atoms: C_16  and  N_31
    6  A    between atoms: C_18  and  N_31
    7  A    between atoms: C_24  and  C_25
    8  A    between atoms: C_25  and  C_27
    9  A    between atoms: C_27  and  C_33
                            x       y       z     vdW  Elec       q    Type
                         _______ _______ _______ _____ _____    ______ ____

>  <TORSDO>
F 9

$$$$
=
 OpenBabel11062409333D

 34 40  0  0  1  0  0  0  0  0999 V2000
  159.5890  206.7830  148.5950 O   0  0  0  0  0  0  0  0  0  0  0  0
  162.3770  203.5790  147.5070 O   0  0  0  0  0  0  0  0  0  0  0  0
  161.9420  203.6020  149.8880 C   0  0  0  0  0  2  0  0  0  0  0  0
  160.1910  205.7710  149.0390 C   0  0  0  0  0  0  0  0  0  0  0  0
  161.7050  205.7290  152.5180 C   0  0  2  0  0  3  0  0  0  0  0  0
  160.6780  204.9790  153.1270 O   0  0  0  0  0  0  0  0  0  0  0  0
  161.1710  206.5210  151.3200 C   0  0  2  0  0  3  0  0  0  0  0  0
  160.8800  204.1280  150.8770 C   0  0  2  0  0  3  0  0  0  0  0  0
  160.3340  205.5220  150.5160 C   0  0  2  0  0  3  0  0  0  0  0  0
  161.5300  204.2790  152.2470 C   0  0  1  0  0  3  0  0  0  0  0  0
  161.3740  203.5320  148.4670 C   0  0  1  0  0  0  0  0  0  0  0  0
  161.8340  204.8080  147.1590 C   0  0  1  0  0  0  0  0  0  0  0  0
  160.7630  204.8200  148.1580 N   0  0  0  0  0  0  0  0  0  0  0  0
  162.3800  207.0730  150.5470 C   0  0  2  0  0  3  0  0  0  0  0  0
  162.7570  208.5370  150.8590 C   0  0  1  0  0  3  0  0  0  0  0  0
  161.9480  208.1890  149.6210 C   0  0  0  0  0  2  0  0  0  0  0  0
  161.8970  208.6340  153.1270 O   0  0  0  0  0  1  0  0  0  0  0  0
  161.9050  209.1610  151.8790 N   0  0  0  0  0  0  0  0  0  0  0  0
  159.7490  210.0730  153.5600 F   0  0  0  0  0  0  0  0  0  0  0  0
  160.8330  212.3580  150.2620 C   0  0  0  0  0  0  0  0  0  0  0  0
  161.5110  211.1630  150.5260 C   0  0  0  0  0  3  0  0  0  0  0  0
  161.1840  210.3860  151.6470 C   0  0  0  0  0  0  0  0  0  0  0  0
  159.4620  212.0080  152.2230 C   0  0  0  0  0  3  0  0  0  0  0  0
  160.1430  210.8160  152.4960 C   0  0  0  0  0  0  0  0  0  0  0  0
  159.8070  212.7780  151.1090 C   0  0  0  0  0  3  0  0  0  0  0  0
  161.1840  213.1650  149.0600 C   0  0  0  0  0  2  0  0  0  0  0  0
  160.6670  212.3080  146.9490 C   0  0  0  0  0  1  0  0  0  0  0  0
  161.6700  212.2980  148.0000 N   0  0  0  0  0  2  0  0  0  0  0  0
  160.6340  205.9800  145.2620 S   0  0  0  0  0  0  0  0  0  0  0  0
  161.2780  204.7990  145.7580 C   0  0  0  0  0  0  0  0  0  0  0  0
  161.2930  203.5610  144.9080 C   0  0  0  0  0  2  0  0  0  0  0  0
  159.9330  202.8760  144.8800 C   0  0  0  0  0  2  0  0  0  0  0  0
  160.0830  201.3980  145.0330 C   0  0  0  0  0  3  0  0  0  0  0  0
  160.8290  200.9050  146.0150 C   0  0  0  0  0  2  0  0  0  0  0  0
  1  4  2  0  0  0  0
  2 11  1  0  0  0  0
  5  6  1  1  0  0  0
  7 14  1  6  0  0  0
  7  5  1  0  0  0  0
  8  3  1  6  0  0  0
  8 10  1  0  0  0  0
  9  4  1  6  0  0  0
  9  8  1  0  0  0  0
  9  7  1  0  0  0  0
 10  5  1  0  0  0  0
 10  6  1  1  0  0  0
 11  3  1  1  0  0  0
 12 30  1  6  0  0  0
 12  2  1  0  0  0  0
 12 13  1  0  0  0  0
 12 11  1  0  0  0  0
 13 11  1  0  0  0  0
 13  4  1  0  0  0  0
 14 16  1  6  0  0  0
 14 15  1  0  0  0  0
 15 18  1  1  0  0  0
 16 15  1  0  0  0  0
 18 17  1  0  0  0  0
 20 21  2  0  0  0  0
 20 25  1  0  0  0  0
 21 22  1  0  0  0  0
 22 18  1  0  0  0  0
 22 24  2  0  0  0  0
 23 24  1  0  0  0  0
 24 19  1  0  0  0  0
 25 23  2  0  0  0  0
 26 20  1  0  0  0  0
 27 28  1  0  0  0  0
 28 26  1  0  0  0  0
 29 30  2  0  0  0  0
 31 30  1  0  0  0  0
 32 31  1  0  0  0  0
 32 33  1  0  0  0  0
 33 34  2  0  0  0  0
M  END
>  <MODEL>
9

>  <REMARK>
 VINA RESULT:      -5.0      3.262      8.397
  Name = 
  9 active torsions:
  status: ('A' for Active; 'I' for Inactive)
    1  A    between atoms: C_3  and  C_24
    2  A    between atoms: C_7  and  C_15
    3  A    between atoms: C_8  and  C_17
    4  A    between atoms: C_15  and  N_21
    5  A    between atoms: C_16  and  N_31
    6  A    between atoms: C_18  and  N_31
    7  A    between atoms: C_24  and  C_25
    8  A    between atoms: C_25  and  C_27
    9  A    between atoms: C_27  and  C_33
                            x       y       z     vdW  Elec       q    Type
                         _______ _______ _______ _____ _____    ______ ____

>  <TORSDO>
F 9

$$$$
