=
 OpenBabel11062409353D

 34 37  0  0  1  0  0  0  0  0999 V2000
  161.1370  207.3190  149.1330 C   0  0  2  0  0  3  0  0  0  0  0  0
  162.3640  208.2240  149.1950 C   0  0  0  0  0  2  0  0  0  0  0  0
  162.0310  209.5880  148.7740 C   0  0  0  0  0  0  0  0  0  0  0  0
  161.7580  210.7100  148.4280 C   0  0  0  0  0  3  0  0  0  0  0  0
  160.6150  207.0730  150.5440 C   0  0  0  0  0  2  0  0  0  0  0  0
  161.3590  207.9490  151.5340 C   0  0  0  0  0  2  0  0  0  0  0  0
  160.4200  208.9770  152.1430 C   0  0  0  0  0  2  0  0  0  0  0  0
  159.0690  211.2840  153.5490 C   0  0  0  0  0  2  0  0  0  0  0  0
  160.9460  208.6940  155.3190 C   0  0  2  0  0  0  0  0  0  0  0  0
  161.7580  208.7760  154.0330 C   0  0  0  0  0  2  0  0  0  0  0  0
  161.1100  209.7450  153.1740 N   0  0  0  0  0  0  0  0  0  0  0  0
  159.9190  209.6520  155.2730 O   0  0  0  0  0  0  0  0  0  0  0  0
  160.1230  210.3280  154.0660 C   0  0  0  0  0  0  0  0  0  0  0  0
  161.7790  208.9660  156.4060 O   0  0  0  0  0  1  0  0  0  0  0  0
  160.3130  211.8150  154.2530 C   0  0  0  0  0  2  0  0  0  0  0  0
  160.3670  207.3170  155.4590 C   0  0  0  0  0  0  0  0  0  0  0  0
  159.6030  207.0410  156.4230 O   0  0  0  0  0  1  0  0  0  0  0  0
  160.6220  206.3530  154.4910 O   0  0  0  0  0  0  0  0  0  0  0  0
  161.4820  205.9910  148.4530 C   0  0  1  0  0  3  0  0  0  0  0  0
  162.3140  206.8780  146.3830 O   0  0  0  0  0  0  0  0  0  0  0  0
  162.6060  205.5150  146.1960 C   0  0  1  0  0  3  0  0  0  0  0  0
  162.6970  206.1680  147.5380 C   0  0  2  0  0  3  0  0  0  0  0  0
  159.5790  203.8620  144.5650 N   0  0  0  0  0  1  0  0  0  0  0  0
  160.7780  204.6150  144.7040 C   0  0  0  0  0  0  0  0  0  0  0  0
  161.3110  205.1340  143.6880 O   0  0  0  0  0  0  0  0  0  0  0  0
  161.3650  204.7750  145.9940 N   0  0  0  0  0  2  0  0  0  0  0  0
  161.7940  205.0060  149.4330 O   0  0  0  0  0  0  0  0  0  0  0  0
  161.2090  203.0210  148.2470 C   0  0  0  0  0  3  0  0  0  0  0  0
  160.2820  201.0700  149.3320 C   0  0  0  0  0  3  0  0  0  0  0  0
  160.7120  201.7180  148.1740 C   0  0  0  0  0  3  0  0  0  0  0  0
  160.8470  203.0320  150.6490 C   0  0  0  0  0  0  0  0  0  0  0  0
  161.2860  203.6960  149.4710 C   0  0  0  0  0  0  0  0  0  0  0  0
  160.3500  201.7270  150.5620 C   0  0  0  0  0  3  0  0  0  0  0  0
  160.8760  203.6510  152.0030 C   0  0  0  0  0  1  0  0  0  0  0  0
  1  2  1  1  0  0  0
  1  5  1  0  0  0  0
  3  2  1  0  0  0  0
  4  3  3  0  0  0  0
  5  6  1  0  0  0  0
  6  7  1  0  0  0  0
  7 11  1  0  0  0  0
  8 13  1  0  0  0  0
  8 15  1  0  0  0  0
  9 16  1  0  0  0  0
  9 14  1  1  0  0  0
 10  9  1  0  0  0  0
 11 10  1  0  0  0  0
 11 13  1  0  0  0  0
 12  9  1  0  0  0  0
 13 15  1  0  0  0  0
 13 12  1  0  0  0  0
 16 17  1  0  0  0  0
 18 16  2  0  0  0  0
 19  1  1  0  0  0  0
 19 27  1  1  0  0  0
 20 22  1  0  0  0  0
 21 26  1  1  0  0  0
 21 20  1  0  0  0  0
 21 22  1  0  0  0  0
 22 19  1  1  0  0  0
 23 24  1  0  0  0  0
 24 26  1  0  0  0  0
 25 24  2  0  0  0  0
 27 32  1  0  0  0  0
 28 32  1  0  0  0  0
 29 33  2  0  0  0  0
 30 28  2  0  0  0  0
 30 29  1  0  0  0  0
 31 34  1  0  0  0  0
 32 31  2  0  0  0  0
 33 31  1  0  0  0  0
M  END
>  <MODEL>
1

>  <REMARK>
 VINA RESULT:      -6.8      0.000      0.000
  Name = 
  12 active torsions:
  status: ('A' for Active; 'I' for Inactive)
    1  A    between atoms: O_1  and  C_20
    2  A    between atoms: O_1  and  C_34
    3  A    between atoms: C_4  and  N_16
    4  A    between atoms: C_4  and  C_31
    5  A    between atoms: C_5  and  C_18
    6  A    between atoms: C_5  and  C_33
    7  A    between atoms: C_5  and  C_34
    8  A    between atoms: C_7  and  C_11
    9  A    between atoms: C_8  and  C_18
   10  A    between atoms: C_23  and  N_27
   11  A    between atoms: C_31  and  C_33
   12  A    between atoms: C_32  and  C_34
                            x       y       z     vdW  Elec       q    Type
                         _______ _______ _______ _____ _____    ______ ____

>  <TORSDO>
F 12

$$$$
=
 OpenBabel11062409353D

 34 37  0  0  1  0  0  0  0  0999 V2000
  161.2020  207.4020  151.4780 C   0  0  2  0  0  3  0  0  0  0  0  0
  161.9540  206.4180  152.3710 C   0  0  0  0  0  2  0  0  0  0  0  0
  161.3650  205.0790  152.2870 C   0  0  0  0  0  0  0  0  0  0  0  0
  160.8810  203.9770  152.2180 C   0  0  0  0  0  3  0  0  0  0  0  0
  161.9430  207.5530  150.1540 C   0  0  0  0  0  2  0  0  0  0  0  0
  160.9730  207.4090  148.9960 C   0  0  0  0  0  2  0  0  0  0  0  0
  160.5510  205.9580  148.8350 C   0  0  0  0  0  2  0  0  0  0  0  0
  160.3770  202.9430  148.8780 C   0  0  0  0  0  2  0  0  0  0  0  0
  161.9400  204.8120  146.1520 C   0  0  2  0  0  0  0  0  0  0  0  0
  162.3040  205.7080  147.3290 C   0  0  0  0  0  2  0  0  0  0  0  0
  161.7080  205.1280  148.5140 N   0  0  0  0  0  0  0  0  0  0  0  0
  161.2470  203.6860  146.6310 O   0  0  0  0  0  0  0  0  0  0  0  0
  161.2410  203.8440  148.0200 C   0  0  0  0  0  0  0  0  0  0  0  0
  163.1100  204.3930  145.5150 O   0  0  0  0  0  1  0  0  0  0  0  0
  161.8730  202.6780  148.7450 C   0  0  0  0  0  2  0  0  0  0  0  0
  161.0860  205.5760  145.1850 C   0  0  0  0  0  0  0  0  0  0  0  0
  160.1640  206.3280  145.6040 O   0  0  0  0  0  1  0  0  0  0  0  0
  161.3430  205.5070  143.8220 O   0  0  0  0  0  0  0  0  0  0  0  0
  161.0650  208.7610  152.1700 C   0  0  1  0  0  3  0  0  0  0  0  0
  160.7010  207.9930  154.4160 O   0  0  0  0  0  0  0  0  0  0  0  0
  160.8100  209.3760  154.6480 C   0  0  1  0  0  3  0  0  0  0  0  0
  161.6160  208.6830  153.5970 C   0  0  2  0  0  3  0  0  0  0  0  0
  157.6960  211.5590  154.3540 N   0  0  0  0  0  1  0  0  0  0  0  0
  158.8220  210.9070  154.9290 C   0  0  0  0  0  0  0  0  0  0  0  0
  159.0960  211.0890  156.1440 O   0  0  0  0  0  0  0  0  0  0  0  0
  159.6300  210.0520  154.1220 N   0  0  0  0  0  2  0  0  0  0  0  0
  161.7990  209.7510  151.4550 O   0  0  0  0  0  0  0  0  0  0  0  0
  160.4610  211.6870  151.8470 C   0  0  0  0  0  3  0  0  0  0  0  0
  160.1390  213.4140  150.1870 C   0  0  0  0  0  3  0  0  0  0  0  0
  159.8930  212.9020  151.4610 C   0  0  0  0  0  3  0  0  0  0  0  0
  161.5330  211.4920  149.6750 C   0  0  0  0  0  0  0  0  0  0  0  0
  161.2840  210.9650  150.9720 C   0  0  0  0  0  0  0  0  0  0  0  0
  160.9560  212.7100  149.3010 C   0  0  0  0  0  3  0  0  0  0  0  0
  162.3850  210.8120  148.6600 C   0  0  0  0  0  1  0  0  0  0  0  0
  1  5  1  6  0  0  0
  1 19  1  0  0  0  0
  1  2  1  0  0  0  0
  3  2  1  0  0  0  0
  4  3  3  0  0  0  0
  6  5  1  0  0  0  0
  7  6  1  0  0  0  0
  9 14  1  6  0  0  0
  9 12  1  0  0  0  0
  9 10  1  0  0  0  0
 10 11  1  0  0  0  0
 11  7  1  0  0  0  0
 12 13  1  0  0  0  0
 13 11  1  0  0  0  0
 13 15  1  0  0  0  0
 13  8  1  0  0  0  0
 15  8  1  0  0  0  0
 16 17  1  0  0  0  0
 16  9  1  0  0  0  0
 18 16  2  0  0  0  0
 19 27  1  6  0  0  0
 20 21  1  0  0  0  0
 21 26  1  6  0  0  0
 22 19  1  6  0  0  0
 22 20  1  0  0  0  0
 22 21  1  0  0  0  0
 23 24  1  0  0  0  0
 24 25  2  0  0  0  0
 26 24  1  0  0  0  0
 29 30  2  0  0  0  0
 30 28  1  0  0  0  0
 31 32  1  0  0  0  0
 32 27  1  0  0  0  0
 32 28  2  0  0  0  0
 33 31  2  0  0  0  0
 33 29  1  0  0  0  0
 34 31  1  0  0  0  0
M  END
>  <MODEL>
2

>  <REMARK>
 VINA RESULT:      -6.7      1.961      9.022
  Name = 
  12 active torsions:
  status: ('A' for Active; 'I' for Inactive)
    1  A    between atoms: O_1  and  C_20
    2  A    between atoms: O_1  and  C_34
    3  A    between atoms: C_4  and  N_16
    4  A    between atoms: C_4  and  C_31
    5  A    between atoms: C_5  and  C_18
    6  A    between atoms: C_5  and  C_33
    7  A    between atoms: C_5  and  C_34
    8  A    between atoms: C_7  and  C_11
    9  A    between atoms: C_8  and  C_18
   10  A    between atoms: C_23  and  N_27
   11  A    between atoms: C_31  and  C_33
   12  A    between atoms: C_32  and  C_34
                            x       y       z     vdW  Elec       q    Type
                         _______ _______ _______ _____ _____    ______ ____

>  <TORSDO>
F 12

$$$$
=
 OpenBabel11062409353D

 34 37  0  0  1  0  0  0  0  0999 V2000
  161.4860  207.3490  151.9400 C   0  0  2  0  0  3  0  0  0  0  0  0
  160.6990  206.4070  152.8470 C   0  0  0  0  0  2  0  0  0  0  0  0
  160.7010  206.8890  154.2310 C   0  0  0  0  0  0  0  0  0  0  0  0
  160.7020  207.2860  155.3700 C   0  0  0  0  0  3  0  0  0  0  0  0
  160.7200  208.6580  151.7800 C   0  0  0  0  0  2  0  0  0  0  0  0
  161.5080  209.8000  152.3940 C   0  0  0  0  0  2  0  0  0  0  0  0
  160.6230  211.0240  152.5630 C   0  0  0  0  0  2  0  0  0  0  0  0
  160.9580  211.4850  155.5300 C   0  0  0  0  0  2  0  0  0  0  0  0
  158.0090  212.5730  153.6630 C   0  0  2  0  0  0  0  0  0  0  0  0
  158.3410  211.2910  152.9090 C   0  0  0  0  0  2  0  0  0  0  0  0
  159.5420  210.7410  153.5010 N   0  0  0  0  0  0  0  0  0  0  0  0
  158.9130  212.7230  154.7290 O   0  0  0  0  0  0  0  0  0  0  0  0
  159.7100  211.5760  154.6780 C   0  0  0  0  0  0  0  0  0  0  0  0
  156.7120  212.4840  154.1710 O   0  0  0  0  0  1  0  0  0  0  0  0
  159.6760  210.7820  155.9640 C   0  0  0  0  0  2  0  0  0  0  0  0
  158.1070  213.7420  152.7290 C   0  0  0  0  0  0  0  0  0  0  0  0
  159.2130  214.0560  152.2130 O   0  0  0  0  0  0  0  0  0  0  0  0
  156.9640  214.4520  152.3790 O   0  0  0  0  0  1  0  0  0  0  0  0
  161.7270  206.7030  150.5720 C   0  0  1  0  0  3  0  0  0  0  0  0
  162.3060  208.6970  149.3660 O   0  0  0  0  0  0  0  0  0  0  0  0
  162.5470  207.7340  148.3700 C   0  0  1  0  0  3  0  0  0  0  0  0
  162.8190  207.4650  149.8160 C   0  0  2  0  0  3  0  0  0  0  0  0
  159.9020  205.9420  146.2860 N   0  0  0  0  0  1  0  0  0  0  0  0
  161.1620  206.4760  146.6740 C   0  0  0  0  0  0  0  0  0  0  0  0
  162.1640  206.3200  145.9280 O   0  0  0  0  0  0  0  0  0  0  0  0
  161.2770  207.1850  147.9070 N   0  0  0  0  0  2  0  0  0  0  0  0
  162.1470  205.3520  150.7360 O   0  0  0  0  0  0  0  0  0  0  0  0
  161.6450  204.1450  148.7410 C   0  0  0  0  0  3  0  0  0  0  0  0
  160.4130  202.0650  148.7430 C   0  0  0  0  0  3  0  0  0  0  0  0
  161.0810  203.0730  148.0470 C   0  0  0  0  0  3  0  0  0  0  0  0
  160.8730  203.2000  150.8410 C   0  0  0  0  0  0  0  0  0  0  0  0
  161.5540  204.2290  150.1360 C   0  0  0  0  0  0  0  0  0  0  0  0
  160.3120  202.1310  150.1330 C   0  0  0  0  0  3  0  0  0  0  0  0
  160.7080  203.1850  152.3210 C   0  0  0  0  0  1  0  0  0  0  0  0
  1  5  1  6  0  0  0
  1  2  1  0  0  0  0
  2  3  1  0  0  0  0
  3  4  3  0  0  0  0
  5  6  1  0  0  0  0
  6  7  1  0  0  0  0
  7 11  1  0  0  0  0
  8 15  1  0  0  0  0
  9 14  1  1  0  0  0
  9 12  1  0  0  0  0
 10 11  1  0  0  0  0
 10  9  1  0  0  0  0
 11 13  1  0  0  0  0
 13 12  1  0  0  0  0
 13  8  1  0  0  0  0
 13 15  1  0  0  0  0
 16  9  1  0  0  0  0
 17 16  2  0  0  0  0
 18 16  1  0  0  0  0
 19 27  1  1  0  0  0
 19  1  1  0  0  0  0
 20 22  1  0  0  0  0
 21 26  1  1  0  0  0
 21 20  1  0  0  0  0
 21 22  1  0  0  0  0
 22 19  1  1  0  0  0
 23 24  1  0  0  0  0
 24 26  1  0  0  0  0
 25 24  2  0  0  0  0
 28 32  1  0  0  0  0
 29 33  2  0  0  0  0
 30 28  2  0  0  0  0
 30 29  1  0  0  0  0
 31 34  1  0  0  0  0
 32 27  1  0  0  0  0
 32 31  2  0  0  0  0
 33 31  1  0  0  0  0
M  END
>  <MODEL>
3

>  <REMARK>
 VINA RESULT:      -6.6      2.243      3.968
  Name = 
  12 active torsions:
  status: ('A' for Active; 'I' for Inactive)
    1  A    between atoms: O_1  and  C_20
    2  A    between atoms: O_1  and  C_34
    3  A    between atoms: C_4  and  N_16
    4  A    between atoms: C_4  and  C_31
    5  A    between atoms: C_5  and  C_18
    6  A    between atoms: C_5  and  C_33
    7  A    between atoms: C_5  and  C_34
    8  A    between atoms: C_7  and  C_11
    9  A    between atoms: C_8  and  C_18
   10  A    between atoms: C_23  and  N_27
   11  A    between atoms: C_31  and  C_33
   12  A    between atoms: C_32  and  C_34
                            x       y       z     vdW  Elec       q    Type
                         _______ _______ _______ _____ _____    ______ ____

>  <TORSDO>
F 12

$$$$
=
 OpenBabel11062409353D

 34 37  0  0  1  0  0  0  0  0999 V2000
  161.4380  207.3390  149.8490 C   0  0  2  0  0  3  0  0  0  0  0  0
  161.8810  208.0200  148.5570 C   0  0  0  0  0  2  0  0  0  0  0  0
  162.0010  209.4690  148.7430 C   0  0  0  0  0  0  0  0  0  0  0  0
  162.0980  210.6610  148.8970 C   0  0  0  0  0  3  0  0  0  0  0  0
  162.4620  207.6130  150.9440 C   0  0  0  0  0  2  0  0  0  0  0  0
  161.7560  207.9250  152.2500 C   0  0  0  0  0  2  0  0  0  0  0  0
  160.7230  209.0210  152.0450 C   0  0  0  0  0  2  0  0  0  0  0  0
  158.8180  211.2840  152.6590 C   0  0  0  0  0  2  0  0  0  0  0  0
  161.3860  210.1480  155.0010 C   0  0  2  0  0  0  0  0  0  0  0  0
  162.1100  209.9160  153.6810 C   0  0  0  0  0  2  0  0  0  0  0  0
  161.1980  210.2770  152.6180 N   0  0  0  0  0  0  0  0  0  0  0  0
  160.1310  210.7250  154.7380 O   0  0  0  0  0  0  0  0  0  0  0  0
  160.1090  210.9000  153.3510 C   0  0  0  0  0  0  0  0  0  0  0  0
  162.1360  211.0220  155.7900 O   0  0  0  0  0  1  0  0  0  0  0  0
  159.8820  212.3380  152.9450 C   0  0  0  0  0  2  0  0  0  0  0  0
  161.2170  208.8400  155.7160 C   0  0  0  0  0  0  0  0  0  0  0  0
  162.0250  208.4990  156.6210 O   0  0  0  0  0  1  0  0  0  0  0  0
  160.1310  208.0230  155.4260 O   0  0  0  0  0  0  0  0  0  0  0  0
  161.2780  205.8310  149.6340 C   0  0  1  0  0  3  0  0  0  0  0  0
  161.1250  204.5040  151.6300 O   0  0  0  0  0  0  0  0  0  0  0  0
  160.3020  203.7490  150.7740 C   0  0  1  0  0  3  0  0  0  0  0  0
  160.3580  205.2420  150.7070 C   0  0  2  0  0  3  0  0  0  0  0  0
  161.4970  201.3810  148.0320 N   0  0  0  0  0  1  0  0  0  0  0  0
  160.6600  201.9660  149.0220 C   0  0  0  0  0  0  0  0  0  0  0  0
  159.5160  201.4830  149.2380 O   0  0  0  0  0  0  0  0  0  0  0  0
  161.1240  203.0930  149.7630 N   0  0  0  0  0  2  0  0  0  0  0  0
  160.7040  205.5760  148.3560 O   0  0  0  0  0  0  0  0  0  0  0  0
  162.6900  204.7440  147.3300 C   0  0  0  0  0  3  0  0  0  0  0  0
  163.0110  204.7060  144.9350 C   0  0  0  0  0  3  0  0  0  0  0  0
  163.4830  204.4440  146.2210 C   0  0  0  0  0  3  0  0  0  0  0  0
  160.9400  205.5710  145.8630 C   0  0  0  0  0  0  0  0  0  0  0  0
  161.4170  205.3060  147.1760 C   0  0  0  0  0  0  0  0  0  0  0  0
  161.7450  205.2660  144.7600 C   0  0  0  0  0  3  0  0  0  0  0  0
  159.6070  206.1700  145.5770 C   0  0  0  0  0  1  0  0  0  0  0  0
  1  2  1  6  0  0  0
  1  5  1  0  0  0  0
  2  3  1  0  0  0  0
  3  4  3  0  0  0  0
  5  6  1  0  0  0  0
  7  6  1  0  0  0  0
  7 11  1  0  0  0  0
  8 15  1  0  0  0  0
  8 13  1  0  0  0  0
  9 16  1  0  0  0  0
  9 14  1  1  0  0  0
 10  9  1  0  0  0  0
 11 13  1  0  0  0  0
 11 10  1  0  0  0  0
 12  9  1  0  0  0  0
 13 12  1  0  0  0  0
 15 13  1  0  0  0  0
 16 17  1  0  0  0  0
 18 16  2  0  0  0  0
 19 27  1  6  0  0  0
 19  1  1  0  0  0  0
 21 26  1  6  0  0  0
 21 20  1  0  0  0  0
 22 19  1  6  0  0  0
 22 21  1  0  0  0  0
 22 20  1  0  0  0  0
 23 24  1  0  0  0  0
 24 25  2  0  0  0  0
 24 26  1  0  0  0  0
 29 30  1  0  0  0  0
 30 28  2  0  0  0  0
 31 32  2  0  0  0  0
 32 28  1  0  0  0  0
 32 27  1  0  0  0  0
 33 29  2  0  0  0  0
 33 31  1  0  0  0  0
 34 31  1  0  0  0  0
M  END
>  <MODEL>
4

>  <REMARK>
 VINA RESULT:      -6.6      1.796      3.565
  Name = 
  12 active torsions:
  status: ('A' for Active; 'I' for Inactive)
    1  A    between atoms: O_1  and  C_20
    2  A    between atoms: O_1  and  C_34
    3  A    between atoms: C_4  and  N_16
    4  A    between atoms: C_4  and  C_31
    5  A    between atoms: C_5  and  C_18
    6  A    between atoms: C_5  and  C_33
    7  A    between atoms: C_5  and  C_34
    8  A    between atoms: C_7  and  C_11
    9  A    between atoms: C_8  and  C_18
   10  A    between atoms: C_23  and  N_27
   11  A    between atoms: C_31  and  C_33
   12  A    between atoms: C_32  and  C_34
                            x       y       z     vdW  Elec       q    Type
                         _______ _______ _______ _____ _____    ______ ____

>  <TORSDO>
F 12

$$$$
=
 OpenBabel11062409353D

 34 37  0  0  1  0  0  0  0  0999 V2000
  161.4410  207.2820  151.9130 C   0  0  2  0  0  3  0  0  0  0  0  0
  160.8880  206.2660  152.9080 C   0  0  0  0  0  2  0  0  0  0  0  0
  160.7560  206.8580  154.2420 C   0  0  0  0  0  0  0  0  0  0  0  0
  160.6470  207.3450  155.3400 C   0  0  0  0  0  3  0  0  0  0  0  0
  160.4400  208.4190  151.7390 C   0  0  0  0  0  2  0  0  0  0  0  0
  160.9650  209.6800  152.4000 C   0  0  0  0  0  2  0  0  0  0  0  0
  159.8220  210.4710  153.0140 C   0  0  0  0  0  2  0  0  0  0  0  0
  158.3890  212.7850  151.7040 C   0  0  0  0  0  2  0  0  0  0  0  0
  159.2580  212.7300  155.2550 C   0  0  2  0  0  0  0  0  0  0  0  0
  160.4440  211.9670  154.6810 C   0  0  0  0  0  2  0  0  0  0  0  0
  160.2340  211.8510  153.2540 N   0  0  0  0  0  0  0  0  0  0  0  0
  158.4280  213.1460  154.1990 O   0  0  0  0  0  0  0  0  0  0  0  0
  159.0920  212.7250  153.0440 C   0  0  0  0  0  0  0  0  0  0  0  0
  159.7230  213.8530  155.9420 O   0  0  0  0  0  1  0  0  0  0  0  0
  159.3960  213.8610  152.0950 C   0  0  0  0  0  2  0  0  0  0  0  0
  158.4980  211.8430  156.1950 C   0  0  0  0  0  0  0  0  0  0  0  0
  157.3720  212.1970  156.6390 O   0  0  0  0  0  1  0  0  0  0  0  0
  159.0040  210.5940  156.5360 O   0  0  0  0  0  0  0  0  0  0  0  0
  161.7270  206.6140  150.5640 C   0  0  1  0  0  3  0  0  0  0  0  0
  162.4070  208.6160  149.4260 O   0  0  0  0  0  0  0  0  0  0  0  0
  162.6180  207.6740  148.4040 C   0  0  1  0  0  3  0  0  0  0  0  0
  162.8600  207.3500  149.8430 C   0  0  2  0  0  3  0  0  0  0  0  0
  159.9300  206.0160  146.2630 N   0  0  0  0  0  1  0  0  0  0  0  0
  161.2080  206.4810  146.6810 C   0  0  0  0  0  0  0  0  0  0  0  0
  162.2190  206.2590  145.9640 O   0  0  0  0  0  0  0  0  0  0  0  0
  161.3320  207.1940  147.9110 N   0  0  0  0  0  2  0  0  0  0  0  0
  162.1210  205.2600  150.7630 O   0  0  0  0  0  0  0  0  0  0  0  0
  161.5820  204.0910  148.7550 C   0  0  0  0  0  3  0  0  0  0  0  0
  160.4050  201.9810  148.7420 C   0  0  0  0  0  3  0  0  0  0  0  0
  161.0220  203.0230  148.0510 C   0  0  0  0  0  3  0  0  0  0  0  0
  160.9060  203.0720  150.8540 C   0  0  0  0  0  0  0  0  0  0  0  0
  161.5360  204.1370  150.1540 C   0  0  0  0  0  0  0  0  0  0  0  0
  160.3490  202.0080  150.1370 C   0  0  0  0  0  3  0  0  0  0  0  0
  160.7930  203.0150  152.3380 C   0  0  0  0  0  1  0  0  0  0  0  0
  1  5  1  6  0  0  0
  1  2  1  0  0  0  0
  2  3  1  0  0  0  0
  3  4  3  0  0  0  0
  5  6  1  0  0  0  0
  6  7  1  0  0  0  0
  7 11  1  0  0  0  0
  8 15  1  0  0  0  0
  8 13  1  0  0  0  0
  9 14  1  1  0  0  0
  9 16  1  0  0  0  0
 10  9  1  0  0  0  0
 11 10  1  0  0  0  0
 12  9  1  0  0  0  0
 13 11  1  0  0  0  0
 13 12  1  0  0  0  0
 15 13  1  0  0  0  0
 16 18  2  0  0  0  0
 16 17  1  0  0  0  0
 19 27  1  1  0  0  0
 19  1  1  0  0  0  0
 20 22  1  0  0  0  0
 21 26  1  1  0  0  0
 21 20  1  0  0  0  0
 21 22  1  0  0  0  0
 22 19  1  1  0  0  0
 23 24  1  0  0  0  0
 24 26  1  0  0  0  0
 25 24  2  0  0  0  0
 28 32  1  0  0  0  0
 29 33  2  0  0  0  0
 30 29  1  0  0  0  0
 30 28  2  0  0  0  0
 31 34  1  0  0  0  0
 32 27  1  0  0  0  0
 32 31  2  0  0  0  0
 33 31  1  0  0  0  0
M  END
>  <MODEL>
5

>  <REMARK>
 VINA RESULT:      -6.6      1.974      3.414
  Name = 
  12 active torsions:
  status: ('A' for Active; 'I' for Inactive)
    1  A    between atoms: O_1  and  C_20
    2  A    between atoms: O_1  and  C_34
    3  A    between atoms: C_4  and  N_16
    4  A    between atoms: C_4  and  C_31
    5  A    between atoms: C_5  and  C_18
    6  A    between atoms: C_5  and  C_33
    7  A    between atoms: C_5  and  C_34
    8  A    between atoms: C_7  and  C_11
    9  A    between atoms: C_8  and  C_18
   10  A    between atoms: C_23  and  N_27
   11  A    between atoms: C_31  and  C_33
   12  A    between atoms: C_32  and  C_34
                            x       y       z     vdW  Elec       q    Type
                         _______ _______ _______ _____ _____    ______ ____

>  <TORSDO>
F 12

$$$$
=
 OpenBabel11062409353D

 34 37  0  0  1  0  0  0  0  0999 V2000
  161.5330  209.1510  149.8670 C   0  0  2  0  0  3  0  0  0  0  0  0
  162.3290  209.9070  148.8060 C   0  0  0  0  0  2  0  0  0  0  0  0
  161.9290  211.3160  148.7570 C   0  0  0  0  0  0  0  0  0  0  0  0
  161.6010  212.4750  148.7160 C   0  0  0  0  0  3  0  0  0  0  0  0
  162.2900  209.1820  151.1890 C   0  0  0  0  0  2  0  0  0  0  0  0
  161.6070  210.1290  152.1580 C   0  0  0  0  0  2  0  0  0  0  0  0
  161.7470  209.6210  153.5840 C   0  0  0  0  0  2  0  0  0  0  0  0
  161.5490  208.0890  156.1790 C   0  0  0  0  0  2  0  0  0  0  0  0
  159.2500  210.7830  155.2740 C   0  0  2  0  0  0  0  0  0  0  0  0
  159.5150  210.1890  153.8970 C   0  0  0  0  0  2  0  0  0  0  0  0
  160.4670  209.1120  154.0670 N   0  0  0  0  0  0  0  0  0  0  0  0
  159.9330  210.0230  156.2390 O   0  0  0  0  0  0  0  0  0  0  0  0
  160.5280  208.9870  155.5130 C   0  0  0  0  0  0  0  0  0  0  0  0
  157.8800  210.7350  155.5390 O   0  0  0  0  0  1  0  0  0  0  0  0
  160.1100  207.6180  155.9970 C   0  0  0  0  0  2  0  0  0  0  0  0
  159.7210  212.2070  155.3050 C   0  0  0  0  0  0  0  0  0  0  0  0
  160.1850  212.7030  156.3660 O   0  0  0  0  0  1  0  0  0  0  0  0
  159.7030  212.9710  154.1440 O   0  0  0  0  0  0  0  0  0  0  0  0
  161.2890  207.7040  149.4270 C   0  0  1  0  0  3  0  0  0  0  0  0
  163.2100  207.6590  147.9860 O   0  0  0  0  0  0  0  0  0  0  0  0
  162.7050  206.3660  147.7560 C   0  0  1  0  0  3  0  0  0  0  0  0
  162.6210  207.0240  149.0970 C   0  0  2  0  0  3  0  0  0  0  0  0
  160.0800  205.9320  145.0220 N   0  0  0  0  0  1  0  0  0  0  0  0
  161.3180  205.8300  145.7150 C   0  0  0  0  0  0  0  0  0  0  0  0
  162.2720  205.1900  145.1990 O   0  0  0  0  0  0  0  0  0  0  0  0
  161.4680  206.4560  146.9880 N   0  0  0  0  0  2  0  0  0  0  0  0
  160.6550  206.9750  150.4720 O   0  0  0  0  0  0  0  0  0  0  0  0
  160.4610  204.7220  149.7120 C   0  0  0  0  0  3  0  0  0  0  0  0
  161.0680  202.8220  151.0770 C   0  0  0  0  0  3  0  0  0  0  0  0
  160.5820  203.3410  149.8760 C   0  0  0  0  0  3  0  0  0  0  0  0
  161.3180  205.0710  151.9580 C   0  0  0  0  0  0  0  0  0  0  0  0
  160.8230  205.6050  150.7370 C   0  0  0  0  0  0  0  0  0  0  0  0
  161.4330  203.6850  152.1100 C   0  0  0  0  0  3  0  0  0  0  0  0
  161.7280  205.9110  153.1180 C   0  0  0  0  0  1  0  0  0  0  0  0
  1  2  1  6  0  0  0
  1  5  1  0  0  0  0
  3  2  1  0  0  0  0
  4  3  3  0  0  0  0
  5  6  1  0  0  0  0
  6  7  1  0  0  0  0
  7 11  1  0  0  0  0
  9 16  1  0  0  0  0
  9 14  1  1  0  0  0
  9 12  1  0  0  0  0
 10 11  1  0  0  0  0
 10  9  1  0  0  0  0
 11 13  1  0  0  0  0
 13 15  1  0  0  0  0
 13  8  1  0  0  0  0
 13 12  1  0  0  0  0
 15  8  1  0  0  0  0
 16 17  1  0  0  0  0
 18 16  2  0  0  0  0
 19  1  1  0  0  0  0
 19 27  1  1  0  0  0
 20 22  1  0  0  0  0
 21 26  1  6  0  0  0
 21 20  1  0  0  0  0
 21 22  1  0  0  0  0
 22 19  1  6  0  0  0
 23 24  1  0  0  0  0
 24 26  1  0  0  0  0
 25 24  2  0  0  0  0
 27 32  1  0  0  0  0
 28 30  2  0  0  0  0
 28 32  1  0  0  0  0
 29 33  2  0  0  0  0
 30 29  1  0  0  0  0
 31 33  1  0  0  0  0
 31 34  1  0  0  0  0
 32 31  2  0  0  0  0
M  END
>  <MODEL>
6

>  <REMARK>
 VINA RESULT:      -6.4      1.666      2.945
  Name = 
  12 active torsions:
  status: ('A' for Active; 'I' for Inactive)
    1  A    between atoms: O_1  and  C_20
    2  A    between atoms: O_1  and  C_34
    3  A    between atoms: C_4  and  N_16
    4  A    between atoms: C_4  and  C_31
    5  A    between atoms: C_5  and  C_18
    6  A    between atoms: C_5  and  C_33
    7  A    between atoms: C_5  and  C_34
    8  A    between atoms: C_7  and  C_11
    9  A    between atoms: C_8  and  C_18
   10  A    between atoms: C_23  and  N_27
   11  A    between atoms: C_31  and  C_33
   12  A    between atoms: C_32  and  C_34
                            x       y       z     vdW  Elec       q    Type
                         _______ _______ _______ _____ _____    ______ ____

>  <TORSDO>
F 12

$$$$
=
 OpenBabel11062409353D

 34 37  0  0  1  0  0  0  0  0999 V2000
  161.7780  207.5510  151.0680 C   0  0  2  0  0  3  0  0  0  0  0  0
  162.2940  206.2310  151.6340 C   0  0  0  0  0  2  0  0  0  0  0  0
  161.5880  205.8790  152.8690 C   0  0  0  0  0  0  0  0  0  0  0  0
  161.0080  205.5890  153.8860 C   0  0  0  0  0  3  0  0  0  0  0  0
  160.8440  208.2070  152.0790 C   0  0  0  0  0  2  0  0  0  0  0  0
  161.3110  209.6200  152.3780 C   0  0  0  0  0  2  0  0  0  0  0  0
  160.1420  210.4800  152.8280 C   0  0  0  0  0  2  0  0  0  0  0  0
  158.1440  212.1430  154.3680 C   0  0  0  0  0  2  0  0  0  0  0  0
  160.8860  210.3310  155.9690 C   0  0  2  0  0  0  0  0  0  0  0  0
  161.5560  210.7180  154.6570 C   0  0  0  0  0  2  0  0  0  0  0  0
  160.5720  211.4190  153.8600 N   0  0  0  0  0  0  0  0  0  0  0  0
  159.5890  210.8730  155.9970 O   0  0  0  0  0  0  0  0  0  0  0  0
  159.4880  211.6030  154.8090 C   0  0  0  0  0  0  0  0  0  0  0  0
  161.6240  210.8540  157.0330 O   0  0  0  0  0  1  0  0  0  0  0  0
  159.1590  213.0590  155.0420 C   0  0  0  0  0  2  0  0  0  0  0  0
  160.8280  208.8370  156.0810 C   0  0  0  0  0  0  0  0  0  0  0  0
  159.7820  208.2130  155.7560 O   0  0  0  0  0  0  0  0  0  0  0  0
  161.9500  208.1250  156.4870 O   0  0  0  0  0  1  0  0  0  0  0  0
  161.0490  207.3190  149.7410 C   0  0  1  0  0  3  0  0  0  0  0  0
  163.1940  208.1000  148.9950 O   0  0  0  0  0  0  0  0  0  0  0  0
  162.3590  208.8000  148.1050 C   0  0  1  0  0  3  0  0  0  0  0  0
  162.0360  207.4170  148.5740 C   0  0  2  0  0  3  0  0  0  0  0  0
  161.2040  212.1970  149.3990 N   0  0  0  0  0  1  0  0  0  0  0  0
  161.9570  211.2240  148.6860 C   0  0  0  0  0  0  0  0  0  0  0  0
  162.8980  211.5910  147.9330 O   0  0  0  0  0  0  0  0  0  0  0  0
  161.6390  209.8410  148.8290 N   0  0  0  0  0  2  0  0  0  0  0  0
  160.4580  206.0240  149.7270 O   0  0  0  0  0  0  0  0  0  0  0  0
  161.1710  205.2930  147.5710 C   0  0  0  0  0  3  0  0  0  0  0  0
  161.5910  202.9710  147.0470 C   0  0  0  0  0  3  0  0  0  0  0  0
  161.5490  204.3090  146.6560 C   0  0  0  0  0  3  0  0  0  0  0  0
  160.8770  203.5950  149.2840 C   0  0  0  0  0  0  0  0  0  0  0  0
  160.8320  204.9600  148.8890 C   0  0  0  0  0  0  0  0  0  0  0  0
  161.2560  202.6190  148.3560 C   0  0  0  0  0  3  0  0  0  0  0  0
  160.5330  203.1230  150.6540 C   0  0  0  0  0  1  0  0  0  0  0  0
  1  2  1  1  0  0  0
  1  5  1  0  0  0  0
  2  3  1  0  0  0  0
  3  4  3  0  0  0  0
  5  6  1  0  0  0  0
  6  7  1  0  0  0  0
  7 11  1  0  0  0  0
  8 13  1  0  0  0  0
  8 15  1  0  0  0  0
  9 12  1  0  0  0  0
  9 16  1  0  0  0  0
  9 14  1  1  0  0  0
 10  9  1  0  0  0  0
 11 10  1  0  0  0  0
 11 13  1  0  0  0  0
 13 15  1  0  0  0  0
 13 12  1  0  0  0  0
 16 18  1  0  0  0  0
 17 16  2  0  0  0  0
 19 27  1  1  0  0  0
 19  1  1  0  0  0  0
 21 22  1  0  0  0  0
 21 26  1  1  0  0  0
 21 20  1  0  0  0  0
 22 20  1  0  0  0  0
 22 19  1  1  0  0  0
 24 26  1  0  0  0  0
 24 23  1  0  0  0  0
 25 24  2  0  0  0  0
 28 32  1  0  0  0  0
 29 33  2  0  0  0  0
 30 29  1  0  0  0  0
 30 28  2  0  0  0  0
 31 34  1  0  0  0  0
 32 31  2  0  0  0  0
 32 27  1  0  0  0  0
 33 31  1  0  0  0  0
M  END
>  <MODEL>
7

>  <REMARK>
 VINA RESULT:      -6.4      2.393      3.737
  Name = 
  12 active torsions:
  status: ('A' for Active; 'I' for Inactive)
    1  A    between atoms: O_1  and  C_20
    2  A    between atoms: O_1  and  C_34
    3  A    between atoms: C_4  and  N_16
    4  A    between atoms: C_4  and  C_31
    5  A    between atoms: C_5  and  C_18
    6  A    between atoms: C_5  and  C_33
    7  A    between atoms: C_5  and  C_34
    8  A    between atoms: C_7  and  C_11
    9  A    between atoms: C_8  and  C_18
   10  A    between atoms: C_23  and  N_27
   11  A    between atoms: C_31  and  C_33
   12  A    between atoms: C_32  and  C_34
                            x       y       z     vdW  Elec       q    Type
                         _______ _______ _______ _____ _____    ______ ____

>  <TORSDO>
F 12

$$$$
=
 OpenBabel11062409353D

 34 37  0  0  1  0  0  0  0  0999 V2000
  161.9010  206.4670  151.4520 C   0  0  2  0  0  3  0  0  0  0  0  0
  162.4490  206.0580  152.8160 C   0  0  0  0  0  2  0  0  0  0  0  0
  161.5540  206.4920  153.8930 C   0  0  0  0  0  0  0  0  0  0  0  0
  160.8190  206.8490  154.7790 C   0  0  0  0  0  3  0  0  0  0  0  0
  160.8320  207.5390  151.6350 C   0  0  0  0  0  2  0  0  0  0  0  0
  161.3330  208.8690  151.1040 C   0  0  0  0  0  2  0  0  0  0  0  0
  161.6440  209.8150  152.2510 C   0  0  0  0  0  2  0  0  0  0  0  0
  162.0110  210.6520  155.1310 C   0  0  0  0  0  2  0  0  0  0  0  0
  159.3570  211.9740  152.9930 C   0  0  2  0  0  0  0  0  0  0  0  0
  159.4490  210.5540  152.4500 C   0  0  0  0  0  2  0  0  0  0  0  0
  160.5120  209.8850  153.1700 N   0  0  0  0  0  0  0  0  0  0  0  0
  160.2550  212.1130  154.0650 O   0  0  0  0  0  0  0  0  0  0  0  0
  160.8170  210.8430  154.2190 C   0  0  0  0  0  0  0  0  0  0  0  0
  158.0580  212.2080  153.4490 O   0  0  0  0  0  1  0  0  0  0  0  0
  160.6110  210.2750  155.6040 C   0  0  0  0  0  2  0  0  0  0  0  0
  159.6930  212.9490  151.9040 C   0  0  0  0  0  0  0  0  0  0  0  0
  159.3830  214.1660  152.0180 O   0  0  0  0  0  1  0  0  0  0  0  0
  160.4030  212.5270  150.7860 O   0  0  0  0  0  0  0  0  0  0  0  0
  161.3180  205.2540  150.7200 C   0  0  1  0  0  3  0  0  0  0  0  0
  160.8260  203.6940  152.4780 O   0  0  0  0  0  0  0  0  0  0  0  0
  160.0910  203.1150  151.4280 C   0  0  1  0  0  3  0  0  0  0  0  0
  160.2310  204.5960  151.5750 C   0  0  2  0  0  3  0  0  0  0  0  0
  161.5600  200.9550  148.6470 N   0  0  0  0  0  1  0  0  0  0  0  0
  160.6300  201.4600  149.5990 C   0  0  0  0  0  0  0  0  0  0  0  0
  159.4820  200.9490  149.6820 O   0  0  0  0  0  0  0  0  0  0  0  0
  161.0080  202.5400  150.4510 N   0  0  0  0  0  2  0  0  0  0  0  0
  160.7390  205.6600  149.4840 O   0  0  0  0  0  0  0  0  0  0  0  0
  161.0870  204.1750  147.6500 C   0  0  0  0  0  3  0  0  0  0  0  0
  162.3260  204.8030  145.6720 C   0  0  0  0  0  3  0  0  0  0  0  0
  161.5990  203.8540  146.3920 C   0  0  0  0  0  3  0  0  0  0  0  0
  162.0290  206.4070  147.4720 C   0  0  0  0  0  0  0  0  0  0  0  0
  161.2890  205.4430  148.2090 C   0  0  0  0  0  0  0  0  0  0  0  0
  162.5380  206.0720  146.2120 C   0  0  0  0  0  3  0  0  0  0  0  0
  162.3110  207.7830  147.9670 C   0  0  0  0  0  1  0  0  0  0  0  0
  1  5  1  1  0  0  0
  1  2  1  0  0  0  0
  2  3  1  0  0  0  0
  3  4  3  0  0  0  0
  6  5  1  0  0  0  0
  6  7  1  0  0  0  0
  7 11  1  0  0  0  0
  8 15  1  0  0  0  0
  9 14  1  1  0  0  0
  9 12  1  0  0  0  0
 10  9  1  0  0  0  0
 10 11  1  0  0  0  0
 11 13  1  0  0  0  0
 12 13  1  0  0  0  0
 13  8  1  0  0  0  0
 13 15  1  0  0  0  0
 16 17  1  0  0  0  0
 16  9  1  0  0  0  0
 18 16  2  0  0  0  0
 19 27  1  6  0  0  0
 19  1  1  0  0  0  0
 21 26  1  6  0  0  0
 21 22  1  0  0  0  0
 21 20  1  0  0  0  0
 22 19  1  6  0  0  0
 22 20  1  0  0  0  0
 23 24  1  0  0  0  0
 24 25  2  0  0  0  0
 24 26  1  0  0  0  0
 28 32  1  0  0  0  0
 29 33  2  0  0  0  0
 29 30  1  0  0  0  0
 30 28  2  0  0  0  0
 31 34  1  0  0  0  0
 31 32  2  0  0  0  0
 32 27  1  0  0  0  0
 33 31  1  0  0  0  0
M  END
>  <MODEL>
8

>  <REMARK>
 VINA RESULT:      -6.4      2.505      4.817
  Name = 
  12 active torsions:
  status: ('A' for Active; 'I' for Inactive)
    1  A    between atoms: O_1  and  C_20
    2  A    between atoms: O_1  and  C_34
    3  A    between atoms: C_4  and  N_16
    4  A    between atoms: C_4  and  C_31
    5  A    between atoms: C_5  and  C_18
    6  A    between atoms: C_5  and  C_33
    7  A    between atoms: C_5  and  C_34
    8  A    between atoms: C_7  and  C_11
    9  A    between atoms: C_8  and  C_18
   10  A    between atoms: C_23  and  N_27
   11  A    between atoms: C_31  and  C_33
   12  A    between atoms: C_32  and  C_34
                            x       y       z     vdW  Elec       q    Type
                         _______ _______ _______ _____ _____    ______ ____

>  <TORSDO>
F 12

$$$$
=
 OpenBabel11062409353D

 34 37  0  0  1  0  0  0  0  0999 V2000
  161.6350  206.3350  150.5620 C   0  0  2  0  0  3  0  0  0  0  0  0
  160.4550  205.5450  151.1230 C   0  0  0  0  0  2  0  0  0  0  0  0
  160.8880  204.2320  151.6110 C   0  0  0  0  0  0  0  0  0  0  0  0
  161.2450  203.1520  152.0110 C   0  0  0  0  0  3  0  0  0  0  0  0
  162.0990  207.3560  151.5930 C   0  0  0  0  0  2  0  0  0  0  0  0
  160.9880  208.3490  151.8790 C   0  0  0  0  0  2  0  0  0  0  0  0
  161.3060  209.1560  153.1270 C   0  0  0  0  0  2  0  0  0  0  0  0
  161.1480  206.6560  154.8160 C   0  0  0  0  0  2  0  0  0  0  0  0
  160.8250  210.0230  156.2030 C   0  0  2  0  0  0  0  0  0  0  0  0
  160.1690  210.2330  154.8450 C   0  0  0  0  0  2  0  0  0  0  0  0
  160.2550  208.9800  154.1250 N   0  0  0  0  0  0  0  0  0  0  0  0
  161.1910  208.6710  156.3300 O   0  0  0  0  0  0  0  0  0  0  0  0
  160.7310  208.0720  155.1540 C   0  0  0  0  0  0  0  0  0  0  0  0
  159.9130  210.3470  157.2090 O   0  0  0  0  0  1  0  0  0  0  0  0
  159.7730  206.9320  155.4130 C   0  0  0  0  0  2  0  0  0  0  0  0
  162.0350  210.9020  156.3160 C   0  0  0  0  0  0  0  0  0  0  0  0
  163.0420  210.7000  155.5850 O   0  0  0  0  0  0  0  0  0  0  0  0
  162.0300  211.9850  157.1880 O   0  0  0  0  0  1  0  0  0  0  0  0
  161.2410  207.0360  149.2580 C   0  0  1  0  0  3  0  0  0  0  0  0
  163.4230  208.0370  149.2270 O   0  0  0  0  0  0  0  0  0  0  0  0
  162.7960  208.7950  148.2220 C   0  0  1  0  0  3  0  0  0  0  0  0
  162.4910  207.3450  148.4290 C   0  0  2  0  0  3  0  0  0  0  0  0
  160.9520  211.9250  149.3850 N   0  0  0  0  0  1  0  0  0  0  0  0
  161.9560  211.1050  148.7990 C   0  0  0  0  0  0  0  0  0  0  0  0
  162.9630  211.6370  148.2620 O   0  0  0  0  0  0  0  0  0  0  0  0
  161.8120  209.6860  148.8260 N   0  0  0  0  0  2  0  0  0  0  0  0
  160.3850  206.1960  148.4900 O   0  0  0  0  0  0  0  0  0  0  0  0
  160.4540  206.3400  146.1100 C   0  0  0  0  0  3  0  0  0  0  0  0
  161.2810  204.5510  144.7110 C   0  0  0  0  0  3  0  0  0  0  0  0
  160.7350  205.8280  144.8420 C   0  0  0  0  0  3  0  0  0  0  0  0
  161.2680  204.2900  147.1260 C   0  0  0  0  0  0  0  0  0  0  0  0
  160.7120  205.5910  147.2640 C   0  0  0  0  0  0  0  0  0  0  0  0
  161.5450  203.7880  145.8500 C   0  0  0  0  0  3  0  0  0  0  0  0
  161.5800  203.4010  148.2800 C   0  0  0  0  0  1  0  0  0  0  0  0
  1  2  1  1  0  0  0
  1  5  1  0  0  0  0
  2  3  1  0  0  0  0
  3  4  3  0  0  0  0
  5  6  1  0  0  0  0
  6  7  1  0  0  0  0
  7 11  1  0  0  0  0
  8 13  1  0  0  0  0
  8 15  1  0  0  0  0
  9 16  1  0  0  0  0
  9 12  1  0  0  0  0
  9 14  1  1  0  0  0
 10  9  1  0  0  0  0
 11 10  1  0  0  0  0
 11 13  1  0  0  0  0
 13 15  1  0  0  0  0
 13 12  1  0  0  0  0
 16 18  1  0  0  0  0
 17 16  2  0  0  0  0
 19 27  1  6  0  0  0
 19  1  1  0  0  0  0
 21 22  1  0  0  0  0
 21 26  1  1  0  0  0
 21 20  1  0  0  0  0
 22 20  1  0  0  0  0
 22 19  1  1  0  0  0
 24 26  1  0  0  0  0
 24 23  1  0  0  0  0
 25 24  2  0  0  0  0
 28 32  1  0  0  0  0
 29 30  1  0  0  0  0
 29 33  2  0  0  0  0
 30 28  2  0  0  0  0
 31 32  2  0  0  0  0
 31 34  1  0  0  0  0
 32 27  1  0  0  0  0
 33 31  1  0  0  0  0
M  END
>  <MODEL>
9

>  <REMARK>
 VINA RESULT:      -6.4      2.384      4.604
  Name = 
  12 active torsions:
  status: ('A' for Active; 'I' for Inactive)
    1  A    between atoms: O_1  and  C_20
    2  A    between atoms: O_1  and  C_34
    3  A    between atoms: C_4  and  N_16
    4  A    between atoms: C_4  and  C_31
    5  A    between atoms: C_5  and  C_18
    6  A    between atoms: C_5  and  C_33
    7  A    between atoms: C_5  and  C_34
    8  A    between atoms: C_7  and  C_11
    9  A    between atoms: C_8  and  C_18
   10  A    between atoms: C_23  and  N_27
   11  A    between atoms: C_31  and  C_33
   12  A    between atoms: C_32  and  C_34
                            x       y       z     vdW  Elec       q    Type
                         _______ _______ _______ _____ _____    ______ ____

>  <TORSDO>
F 12

$$$$
