=
 OpenBabel11052423193D

 27 31  0  0  0  0  0  0  0  0999 V2000
  162.4450  208.8170  148.9500 C   0  0  0  0  0  3  0  0  0  0  0  0
  161.8190  209.5080  151.2590 C   0  0  0  0  0  0  0  0  0  0  0  0
  160.8060  207.2460  150.8950 N   0  0  0  0  0  0  0  0  0  0  0  0
  161.4170  209.0210  155.3960 C   0  0  0  0  0  3  0  0  0  0  0  0
  160.7090  207.7180  157.2610 F   0  0  0  0  0  0  0  0  0  0  0  0
  162.2370  210.4610  152.1430 N   0  0  0  0  0  0  0  0  0  0  0  0
  160.3930  206.8530  155.0620 C   0  0  0  0  0  3  0  0  0  0  0  0
  160.6700  203.7770  147.7830 F   0  0  0  0  0  0  0  0  0  0  0  0
  160.5260  206.9990  153.6780 C   0  0  0  0  0  3  0  0  0  0  0  0
  161.1480  204.9930  148.1420 C   0  0  0  0  0  0  0  0  0  0  0  0
  161.1030  208.1600  153.1370 C   0  0  0  0  0  0  0  0  0  0  0  0
  161.9090  209.7830  149.8570 N   0  0  0  0  0  0  0  0  0  0  0  0
  160.8380  207.8630  155.9200 C   0  0  0  0  0  0  0  0  0  0  0  0
  161.5500  209.1710  154.0130 C   0  0  0  0  0  0  0  0  0  0  0  0
  162.1060  207.5310  148.8730 C   0  0  0  0  0  0  0  0  0  0  0  0
  161.2550  208.3130  151.7440 C   0  0  0  0  0  0  0  0  0  0  0  0
  160.6690  205.6180  149.2930 C   0  0  0  0  0  3  0  0  0  0  0  0
  162.1240  210.3190  153.4860 C   0  0  0  0  0  3  0  0  0  0  0  0
  162.1500  205.5980  147.3920 C   0  0  0  0  0  3  0  0  0  0  0  0
  162.6150  206.8620  147.7520 C   0  0  0  0  0  3  0  0  0  0  0  0
  161.1590  206.8660  149.7010 C   0  0  0  0  0  0  0  0  0  0  0  0
  161.3620  213.7330  148.4620 N   0  0  0  0  0  0  0  0  0  0  0  0
  161.7070  211.1290  149.3700 C   0  0  0  0  0  0  0  0  0  0  0  0
  162.4630  211.6210  148.2930 C   0  0  0  0  0  3  0  0  0  0  0  0
  162.2720  212.9310  147.8490 C   0  0  0  0  0  3  0  0  0  0  0  0
  160.6200  213.2920  149.5130 C   0  0  0  0  0  3  0  0  0  0  0  0
  160.7820  211.9880  149.9860 C   0  0  0  0  0  3  0  0  0  0  0  0
  1 12  1  0  0  0  0
  2 16  2  0  0  0  0
  2  6  1  0  0  0  0
  3 16  1  0  0  0  0
  4 13  1  0  0  0  0
  6 18  2  0  0  0  0
  7 13  2  0  0  0  0
  8 10  1  0  0  0  0
  9  7  1  0  0  0  0
 10 17  2  0  0  0  0
 11  9  2  0  0  0  0
 11 14  1  0  0  0  0
 12  2  1  0  0  0  0
 13  5  1  0  0  0  0
 14  4  2  0  0  0  0
 15  1  2  0  0  0  0
 15 21  1  0  0  0  0
 16 11  1  0  0  0  0
 17 21  1  0  0  0  0
 18 14  1  0  0  0  0
 19 20  2  0  0  0  0
 19 10  1  0  0  0  0
 20 15  1  0  0  0  0
 21  3  2  0  0  0  0
 22 26  1  0  0  0  0
 23 12  1  0  0  0  0
 23 27  1  0  0  0  0
 24 23  2  0  0  0  0
 25 24  1  0  0  0  0
 25 22  2  0  0  0  0
 26 27  2  0  0  0  0
M  END
>  <MODEL>
1

>  <REMARK>
 VINA RESULT:      -7.7      0.000      0.000
  Name = 
  1 active torsions:
  status: ('A' for Active; 'I' for Inactive)
    1  A    between atoms: C_9  and  N_15
                            x       y       z     vdW  Elec       q    Type
                         _______ _______ _______ _____ _____    ______ ____

>  <TORSDO>
F 1

$$$$
=
 OpenBabel11052423193D

 27 31  0  0  0  0  0  0  0  0999 V2000
  160.5320  209.0190  152.0940 C   0  0  0  0  0  3  0  0  0  0  0  0
  160.9970  207.1870  150.4710 C   0  0  0  0  0  0  0  0  0  0  0  0
  161.5390  206.2800  152.7410 N   0  0  0  0  0  0  0  0  0  0  0  0
  160.7610  203.2880  148.9700 C   0  0  0  0  0  3  0  0  0  0  0  0
  160.9330  200.9350  149.3030 F   0  0  0  0  0  0  0  0  0  0  0  0
  160.6840  206.9330  149.1660 N   0  0  0  0  0  0  0  0  0  0  0  0
  161.3300  202.3940  151.1460 C   0  0  0  0  0  3  0  0  0  0  0  0
  161.3190  207.4080  157.2610 F   0  0  0  0  0  0  0  0  0  0  0  0
  161.4070  203.6900  151.6630 C   0  0  0  0  0  3  0  0  0  0  0  0
  161.0720  207.7400  155.9710 C   0  0  0  0  0  0  0  0  0  0  0  0
  161.1640  204.8010  150.8380 C   0  0  0  0  0  0  0  0  0  0  0  0
  161.1450  208.5480  150.8900 N   0  0  0  0  0  0  0  0  0  0  0  0
  161.0070  202.1930  149.8010 C   0  0  0  0  0  0  0  0  0  0  0  0
  160.8380  204.5860  149.4830 C   0  0  0  0  0  0  0  0  0  0  0  0
  160.5950  208.4400  153.2910 C   0  0  0  0  0  0  0  0  0  0  0  0
  161.2260  206.1130  151.3500 C   0  0  0  0  0  0  0  0  0  0  0  0
  161.5250  206.9170  154.9400 C   0  0  0  0  0  3  0  0  0  0  0  0
  160.5950  205.6780  148.6620 C   0  0  0  0  0  3  0  0  0  0  0  0
  160.3250  208.8740  155.6730 C   0  0  0  0  0  3  0  0  0  0  0  0
  160.1000  209.2230  154.3420 C   0  0  0  0  0  3  0  0  0  0  0  0
  161.2660  207.2230  153.5960 C   0  0  0  0  0  0  0  0  0  0  0  0
  162.6890  211.4240  148.2090 N   0  0  0  0  0  0  0  0  0  0  0  0
  161.6900  209.5300  149.9800 C   0  0  0  0  0  0  0  0  0  0  0  0
  161.5850  210.9020  150.2600 C   0  0  0  0  0  3  0  0  0  0  0  0
  162.0960  211.8380  149.3600 C   0  0  0  0  0  3  0  0  0  0  0  0
  162.7990  210.1040  147.9010 C   0  0  0  0  0  3  0  0  0  0  0  0
  162.3000  209.1370  148.7770 C   0  0  0  0  0  3  0  0  0  0  0  0
  1 15  2  0  0  0  0
  2 12  1  0  0  0  0
  2 16  1  0  0  0  0
  3 21  2  0  0  0  0
  4 14  1  0  0  0  0
  4 13  2  0  0  0  0
  5 13  1  0  0  0  0
  6  2  2  0  0  0  0
  7  9  2  0  0  0  0
 10  8  1  0  0  0  0
 11 16  2  0  0  0  0
 11  9  1  0  0  0  0
 12  1  1  0  0  0  0
 13  7  1  0  0  0  0
 14 11  1  0  0  0  0
 15 21  1  0  0  0  0
 15 20  1  0  0  0  0
 16  3  1  0  0  0  0
 17 10  2  0  0  0  0
 18  6  1  0  0  0  0
 18 14  2  0  0  0  0
 19 10  1  0  0  0  0
 20 19  2  0  0  0  0
 21 17  1  0  0  0  0
 22 25  1  0  0  0  0
 23 24  1  0  0  0  0
 23 12  1  0  0  0  0
 25 24  2  0  0  0  0
 26 22  2  0  0  0  0
 26 27  1  0  0  0  0
 27 23  2  0  0  0  0
M  END
>  <MODEL>
2

>  <REMARK>
 VINA RESULT:      -7.1      1.795      5.770
  Name = 
  1 active torsions:
  status: ('A' for Active; 'I' for Inactive)
    1  A    between atoms: C_9  and  N_15
                            x       y       z     vdW  Elec       q    Type
                         _______ _______ _______ _____ _____    ______ ____

>  <TORSDO>
F 1

$$$$
=
 OpenBabel11052423193D

 27 31  0  0  0  0  0  0  0  0999 V2000
  162.0910  208.9160  152.2960 C   0  0  0  0  0  3  0  0  0  0  0  0
  161.3300  206.5470  152.1960 C   0  0  0  0  0  0  0  0  0  0  0  0
  161.0440  207.4830  149.8910 N   0  0  0  0  0  0  0  0  0  0  0  0
  161.1760  202.6650  150.6390 C   0  0  0  0  0  3  0  0  0  0  0  0
  160.9330  201.1970  148.7780 F   0  0  0  0  0  0  0  0  0  0  0  0
  161.4570  205.4440  152.9910 N   0  0  0  0  0  0  0  0  0  0  0  0
  160.8520  203.5510  148.4100 C   0  0  0  0  0  3  0  0  0  0  0  0
  161.9040  211.3210  147.3870 F   0  0  0  0  0  0  0  0  0  0  0  0
  160.9060  204.8530  148.9150 C   0  0  0  0  0  3  0  0  0  0  0  0
  161.9970  210.6630  148.5680 C   0  0  0  0  0  0  0  0  0  0  0  0
  161.0940  205.0770  150.2890 C   0  0  0  0  0  0  0  0  0  0  0  0
  161.3050  207.8390  152.8120 N   0  0  0  0  0  0  0  0  0  0  0  0
  160.9860  202.4590  149.2710 C   0  0  0  0  0  0  0  0  0  0  0  0
  161.2310  203.9660  151.1480 C   0  0  0  0  0  0  0  0  0  0  0  0
  162.1560  209.3090  151.0250 C   0  0  0  0  0  0  0  0  0  0  0  0
  161.1640  206.3850  150.8080 C   0  0  0  0  0  0  0  0  0  0  0  0
  161.3740  209.4260  148.7280 C   0  0  0  0  0  3  0  0  0  0  0  0
  161.4190  204.1790  152.5060 C   0  0  0  0  0  3  0  0  0  0  0  0
  162.7540  211.1960  149.6050 C   0  0  0  0  0  3  0  0  0  0  0  0
  162.8220  210.5260  150.8260 C   0  0  0  0  0  3  0  0  0  0  0  0
  161.4710  208.7110  149.9300 C   0  0  0  0  0  0  0  0  0  0  0  0
  159.5710  208.3470  156.6310 N   0  0  0  0  0  0  0  0  0  0  0  0
  160.6950  208.0090  154.1120 C   0  0  0  0  0  0  0  0  0  0  0  0
  160.3930  209.2920  154.5980 C   0  0  0  0  0  3  0  0  0  0  0  0
  159.8260  209.4410  155.8650 C   0  0  0  0  0  3  0  0  0  0  0  0
  159.8590  207.0910  156.1950 C   0  0  0  0  0  3  0  0  0  0  0  0
  160.4270  206.9020  154.9330 C   0  0  0  0  0  3  0  0  0  0  0  0
  1 12  1  0  0  0  0
  2 12  1  0  0  0  0
  2  6  1  0  0  0  0
  3 21  2  0  0  0  0
  3 16  1  0  0  0  0
  4 14  1  0  0  0  0
  5 13  1  0  0  0  0
  7  9  2  0  0  0  0
  7 13  1  0  0  0  0
  8 10  1  0  0  0  0
  9 11  1  0  0  0  0
 10 17  2  0  0  0  0
 10 19  1  0  0  0  0
 11 16  1  0  0  0  0
 11 14  2  0  0  0  0
 12 23  1  0  0  0  0
 13  4  2  0  0  0  0
 14 18  1  0  0  0  0
 15  1  2  0  0  0  0
 16  2  2  0  0  0  0
 17 21  1  0  0  0  0
 18  6  2  0  0  0  0
 19 20  2  0  0  0  0
 20 15  1  0  0  0  0
 21 15  1  0  0  0  0
 23 24  2  0  0  0  0
 23 27  1  0  0  0  0
 24 25  1  0  0  0  0
 25 22  2  0  0  0  0
 26 22  1  0  0  0  0
 27 26  2  0  0  0  0
M  END
>  <MODEL>
3

>  <REMARK>
 VINA RESULT:      -6.9      2.920      6.290
  Name = 
  1 active torsions:
  status: ('A' for Active; 'I' for Inactive)
    1  A    between atoms: C_9  and  N_15
                            x       y       z     vdW  Elec       q    Type
                         _______ _______ _______ _____ _____    ______ ____

>  <TORSDO>
F 1

$$$$
=
 OpenBabel11052423193D

 27 31  0  0  0  0  0  0  0  0999 V2000
  161.6400  207.3570  153.5280 C   0  0  0  0  0  3  0  0  0  0  0  0
  161.5970  208.3770  151.2550 C   0  0  0  0  0  0  0  0  0  0  0  0
  160.3730  209.9550  152.7660 N   0  0  0  0  0  0  0  0  0  0  0  0
  162.0990  211.4460  148.4560 C   0  0  0  0  0  3  0  0  0  0  0  0
  161.7370  213.7020  147.7810 F   0  0  0  0  0  0  0  0  0  0  0  0
  162.2690  208.1820  150.0830 N   0  0  0  0  0  0  0  0  0  0  0  0
  160.8770  212.9740  149.8810 C   0  0  0  0  0  3  0  0  0  0  0  0
  159.2990  210.6010  157.2570 F   0  0  0  0  0  0  0  0  0  0  0  0
  160.7060  211.9600  150.8280 C   0  0  0  0  0  3  0  0  0  0  0  0
  159.9290  209.8640  156.3110 C   0  0  0  0  0  0  0  0  0  0  0  0
  161.2280  210.6760  150.5990 C   0  0  0  0  0  0  0  0  0  0  0  0
  161.3900  207.2570  152.1230 N   0  0  0  0  0  0  0  0  0  0  0  0
  161.5730  212.7170  148.6970 C   0  0  0  0  0  0  0  0  0  0  0  0
  161.9290  210.4300  149.4000 C   0  0  0  0  0  0  0  0  0  0  0  0
  161.2030  208.3170  154.3420 C   0  0  0  0  0  0  0  0  0  0  0  0
  161.0740  209.6490  151.5510 C   0  0  0  0  0  0  0  0  0  0  0  0
  159.7650  210.1740  154.9620 C   0  0  0  0  0  3  0  0  0  0  0  0
  162.4500  209.1650  149.1670 C   0  0  0  0  0  3  0  0  0  0  0  0
  160.7780  208.8270  156.6850 C   0  0  0  0  0  3  0  0  0  0  0  0
  161.4000  208.0560  155.7040 C   0  0  0  0  0  3  0  0  0  0  0  0
  160.4210  209.4430  153.9610 C   0  0  0  0  0  0  0  0  0  0  0  0
  160.8270  203.4000  150.4950 N   0  0  0  0  0  0  0  0  0  0  0  0
  161.1790  205.9400  151.5660 C   0  0  0  0  0  0  0  0  0  0  0  0
  161.2060  204.8020  152.3890 C   0  0  0  0  0  3  0  0  0  0  0  0
  161.0230  203.5350  151.8330 C   0  0  0  0  0  3  0  0  0  0  0  0
  160.8050  204.4790  149.6670 C   0  0  0  0  0  3  0  0  0  0  0  0
  160.9830  205.7630  150.1870 C   0  0  0  0  0  3  0  0  0  0  0  0
  1 15  2  0  0  0  0
  2 16  1  0  0  0  0
  2 12  1  0  0  0  0
  3 21  2  0  0  0  0
  4 13  2  0  0  0  0
  4 14  1  0  0  0  0
  5 13  1  0  0  0  0
  6  2  2  0  0  0  0
  7  9  2  0  0  0  0
 10 19  1  0  0  0  0
 10  8  1  0  0  0  0
 11  9  1  0  0  0  0
 11 16  2  0  0  0  0
 12  1  1  0  0  0  0
 13  7  1  0  0  0  0
 14 11  1  0  0  0  0
 15 20  1  0  0  0  0
 16  3  1  0  0  0  0
 17 10  2  0  0  0  0
 18 14  2  0  0  0  0
 18  6  1  0  0  0  0
 20 19  2  0  0  0  0
 21 15  1  0  0  0  0
 21 17  1  0  0  0  0
 22 25  1  0  0  0  0
 23 12  1  0  0  0  0
 23 24  1  0  0  0  0
 25 24  2  0  0  0  0
 26 27  1  0  0  0  0
 26 22  2  0  0  0  0
 27 23  2  0  0  0  0
M  END
>  <MODEL>
4

>  <REMARK>
 VINA RESULT:      -6.6      2.665      7.215
  Name = 
  1 active torsions:
  status: ('A' for Active; 'I' for Inactive)
    1  A    between atoms: C_9  and  N_15
                            x       y       z     vdW  Elec       q    Type
                         _______ _______ _______ _____ _____    ______ ____

>  <TORSDO>
F 1

$$$$
=
 OpenBabel11052423193D

 27 31  0  0  0  0  0  0  0  0999 V2000
  160.4160  208.9820  153.7120 C   0  0  0  0  0  3  0  0  0  0  0  0
  160.7080  211.0830  152.4060 C   0  0  0  0  0  0  0  0  0  0  0  0
  161.9930  209.3080  151.1940 N   0  0  0  0  0  0  0  0  0  0  0  0
  160.7060  213.4420  148.9500 C   0  0  0  0  0  3  0  0  0  0  0  0
  161.3430  213.7730  146.6780 F   0  0  0  0  0  0  0  0  0  0  0  0
  160.0950  212.3020  152.3640 N   0  0  0  0  0  0  0  0  0  0  0  0
  161.9880  211.7580  147.7750 C   0  0  0  0  0  3  0  0  0  0  0  0
  162.8420  204.7240  151.2850 F   0  0  0  0  0  0  0  0  0  0  0  0
  161.9920  210.9570  148.9200 C   0  0  0  0  0  3  0  0  0  0  0  0
  162.2000  205.7930  151.8120 C   0  0  0  0  0  0  0  0  0  0  0  0
  161.3550  211.3900  150.0950 C   0  0  0  0  0  0  0  0  0  0  0  0
  160.7430  210.3730  153.6490 N   0  0  0  0  0  0  0  0  0  0  0  0
  161.3450  212.9990  147.7900 C   0  0  0  0  0  0  0  0  0  0  0  0
  160.7090  212.6440  150.0970 C   0  0  0  0  0  0  0  0  0  0  0  0
  160.8980  208.0210  152.9270 C   0  0  0  0  0  0  0  0  0  0  0  0
  161.3410  210.5860  151.2520 C   0  0  0  0  0  0  0  0  0  0  0  0
  162.4800  207.0760  151.3430 C   0  0  0  0  0  3  0  0  0  0  0  0
  160.0760  213.0780  151.2520 C   0  0  0  0  0  3  0  0  0  0  0  0
  161.2260  205.6110  152.7880 C   0  0  0  0  0  3  0  0  0  0  0  0
  160.5900  206.7200  153.3460 C   0  0  0  0  0  3  0  0  0  0  0  0
  161.8160  208.2000  151.8540 C   0  0  0  0  0  0  0  0  0  0  0  0
  161.0800  212.5380  157.2610 N   0  0  0  0  0  0  0  0  0  0  0  0
  160.8500  211.1000  154.8940 C   0  0  0  0  0  0  0  0  0  0  0  0
  159.9210  212.1020  155.2190 C   0  0  0  0  0  3  0  0  0  0  0  0
  160.0510  212.8110  156.4150 C   0  0  0  0  0  3  0  0  0  0  0  0
  162.0020  211.5810  156.9730 C   0  0  0  0  0  3  0  0  0  0  0  0
  161.9060  210.8500  155.7860 C   0  0  0  0  0  3  0  0  0  0  0  0
  2 12  1  0  0  0  0
  3 16  1  0  0  0  0
  3 21  2  0  0  0  0
  4 14  1  0  0  0  0
  5 13  1  0  0  0  0
  6  2  1  0  0  0  0
  7 13  1  0  0  0  0
  7  9  2  0  0  0  0
  8 10  1  0  0  0  0
  9 11  1  0  0  0  0
 10 19  1  0  0  0  0
 11 14  2  0  0  0  0
 11 16  1  0  0  0  0
 12  1  1  0  0  0  0
 12 23  1  0  0  0  0
 13  4  2  0  0  0  0
 14 18  1  0  0  0  0
 15 20  1  0  0  0  0
 15  1  2  0  0  0  0
 16  2  2  0  0  0  0
 17 10  2  0  0  0  0
 17 21  1  0  0  0  0
 18  6  2  0  0  0  0
 19 20  2  0  0  0  0
 21 15  1  0  0  0  0
 23 24  2  0  0  0  0
 23 27  1  0  0  0  0
 24 25  1  0  0  0  0
 25 22  2  0  0  0  0
 26 22  1  0  0  0  0
 27 26  2  0  0  0  0
M  END
>  <MODEL>
5

>  <REMARK>
 VINA RESULT:      -5.5      2.971      6.171
  Name = 
  1 active torsions:
  status: ('A' for Active; 'I' for Inactive)
    1  A    between atoms: C_9  and  N_15
                            x       y       z     vdW  Elec       q    Type
                         _______ _______ _______ _____ _____    ______ ____

>  <TORSDO>
F 1

$$$$
=
 OpenBabel11052423193D

 27 31  0  0  0  0  0  0  0  0999 V2000
  160.5690  211.3950  151.6370 C   0  0  0  0  0  3  0  0  0  0  0  0
  161.2560  209.2650  150.5440 C   0  0  0  0  0  0  0  0  0  0  0  0
  161.6520  208.9650  152.9990 N   0  0  0  0  0  0  0  0  0  0  0  0
  161.3380  205.1140  150.0230 C   0  0  0  0  0  3  0  0  0  0  0  0
  161.5980  202.9260  150.9300 F   0  0  0  0  0  0  0  0  0  0  0  0
  161.0660  208.6870  149.3220 N   0  0  0  0  0  0  0  0  0  0  0  0
  161.7680  204.8050  152.3860 C   0  0  0  0  0  3  0  0  0  0  0  0
  161.0020  211.1210  157.0820 F   0  0  0  0  0  0  0  0  0  0  0  0
  161.7380  206.1900  152.5760 C   0  0  0  0  0  3  0  0  0  0  0  0
  160.8470  211.1180  155.7360 C   0  0  0  0  0  0  0  0  0  0  0  0
  161.5100  207.0530  151.4910 C   0  0  0  0  0  0  0  0  0  0  0  0
  161.3020  210.6940  150.6290 N   0  0  0  0  0  0  0  0  0  0  0  0
  161.5690  204.2680  151.1110 C   0  0  0  0  0  0  0  0  0  0  0  0
  161.3090  206.4990  150.2100 C   0  0  0  0  0  0  0  0  0  0  0  0
  160.5600  211.1240  152.9410 C   0  0  0  0  0  0  0  0  0  0  0  0
  161.4640  208.4500  151.6720 C   0  0  0  0  0  0  0  0  0  0  0  0
  161.4240  210.1060  154.9700 C   0  0  0  0  0  3  0  0  0  0  0  0
  161.0810  207.3440  149.1340 C   0  0  0  0  0  3  0  0  0  0  0  0
  160.0730  212.0950  155.1200 C   0  0  0  0  0  3  0  0  0  0  0  0
  159.9420  212.1010  153.7330 C   0  0  0  0  0  3  0  0  0  0  0  0
  161.2630  210.0640  153.5780 C   0  0  0  0  0  0  0  0  0  0  0  0
  162.9350  212.9200  147.4320 N   0  0  0  0  0  0  0  0  0  0  0  0
  161.8720  211.4650  149.5470 C   0  0  0  0  0  0  0  0  0  0  0  0
  161.2060  212.5950  149.0460 C   0  0  0  0  0  3  0  0  0  0  0  0
  161.7580  213.3160  147.9850 C   0  0  0  0  0  3  0  0  0  0  0  0
  163.6010  211.8250  147.8860 C   0  0  0  0  0  3  0  0  0  0  0  0
  163.0810  211.0790  148.9450 C   0  0  0  0  0  3  0  0  0  0  0  0
  1 15  2  0  0  0  0
  2 12  1  0  0  0  0
  2 16  1  0  0  0  0
  3 21  2  0  0  0  0
  4 14  1  0  0  0  0
  4 13  2  0  0  0  0
  5 13  1  0  0  0  0
  6  2  2  0  0  0  0
  7  9  2  0  0  0  0
 10  8  1  0  0  0  0
 11 16  2  0  0  0  0
 11  9  1  0  0  0  0
 12  1  1  0  0  0  0
 13  7  1  0  0  0  0
 14 11  1  0  0  0  0
 15 21  1  0  0  0  0
 15 20  1  0  0  0  0
 16  3  1  0  0  0  0
 17 10  2  0  0  0  0
 18  6  1  0  0  0  0
 18 14  2  0  0  0  0
 19 10  1  0  0  0  0
 20 19  2  0  0  0  0
 21 17  1  0  0  0  0
 22 26  2  0  0  0  0
 22 25  1  0  0  0  0
 23 12  1  0  0  0  0
 24 23  1  0  0  0  0
 25 24  2  0  0  0  0
 26 27  1  0  0  0  0
 27 23  2  0  0  0  0
M  END
>  <MODEL>
6

>  <REMARK>
 VINA RESULT:      -5.5      1.853      5.470
  Name = 
  1 active torsions:
  status: ('A' for Active; 'I' for Inactive)
    1  A    between atoms: C_9  and  N_15
                            x       y       z     vdW  Elec       q    Type
                         _______ _______ _______ _____ _____    ______ ____

>  <TORSDO>
F 1

$$$$
=
 OpenBabel11052423193D

 27 31  0  0  0  0  0  0  0  0999 V2000
  160.4960  206.8960  151.8820 C   0  0  0  0  0  3  0  0  0  0  0  0
  160.9530  209.3410  151.7570 C   0  0  0  0  0  0  0  0  0  0  0  0
  162.0470  208.3090  149.7540 N   0  0  0  0  0  0  0  0  0  0  0  0
  161.0990  213.0910  149.9040 C   0  0  0  0  0  3  0  0  0  0  0  0
  161.7200  214.4530  148.0510 F   0  0  0  0  0  0  0  0  0  0  0  0
  160.4520  210.4620  152.3540 N   0  0  0  0  0  0  0  0  0  0  0  0
  162.2000  212.1200  147.9790 C   0  0  0  0  0  3  0  0  0  0  0  0
  162.4780  204.2290  147.5380 F   0  0  0  0  0  0  0  0  0  0  0  0
  162.1530  210.8600  148.5840 C   0  0  0  0  0  3  0  0  0  0  0  0
  161.9450  204.9420  148.5600 C   0  0  0  0  0  0  0  0  0  0  0  0
  161.5810  210.7010  149.8570 C   0  0  0  0  0  0  0  0  0  0  0  0
  160.9460  208.1100  152.4880 N   0  0  0  0  0  0  0  0  0  0  0  0
  161.6740  213.2340  148.6390 C   0  0  0  0  0  0  0  0  0  0  0  0
  161.0510  211.8330  150.5110 C   0  0  0  0  0  0  0  0  0  0  0  0
  160.8730  206.4160  150.6990 C   0  0  0  0  0  0  0  0  0  0  0  0
  161.5160  209.4350  150.4700 C   0  0  0  0  0  0  0  0  0  0  0  0
  162.3320  206.2670  148.7620 C   0  0  0  0  0  3  0  0  0  0  0  0
  160.4820  211.6840  151.7680 C   0  0  0  0  0  3  0  0  0  0  0  0
  160.9780  204.3710  149.3790 C   0  0  0  0  0  3  0  0  0  0  0  0
  160.4560  205.1020  150.4460 C   0  0  0  0  0  3  0  0  0  0  0  0
  161.7830  207.0360  149.7980 C   0  0  0  0  0  0  0  0  0  0  0  0
  161.4680  208.1510  156.6800 N   0  0  0  0  0  0  0  0  0  0  0  0
  161.1430  208.1200  153.9210 C   0  0  0  0  0  0  0  0  0  0  0  0
  160.7700  207.0130  154.7010 C   0  0  0  0  0  3  0  0  0  0  0  0
  160.9450  207.0460  156.0850 C   0  0  0  0  0  3  0  0  0  0  0  0
  161.8310  209.2440  155.9560 C   0  0  0  0  0  3  0  0  0  0  0  0
  161.6710  209.2480  154.5680 C   0  0  0  0  0  3  0  0  0  0  0  0
  1 12  1  0  0  0  0
  2  6  1  0  0  0  0
  2 12  1  0  0  0  0
  3 21  2  0  0  0  0
  3 16  1  0  0  0  0
  4 14  1  0  0  0  0
  5 13  1  0  0  0  0
  7  9  2  0  0  0  0
  7 13  1  0  0  0  0
  8 10  1  0  0  0  0
  9 11  1  0  0  0  0
 10 17  2  0  0  0  0
 10 19  1  0  0  0  0
 11 16  1  0  0  0  0
 11 14  2  0  0  0  0
 12 23  1  0  0  0  0
 13  4  2  0  0  0  0
 14 18  1  0  0  0  0
 15  1  2  0  0  0  0
 16  2  2  0  0  0  0
 17 21  1  0  0  0  0
 18  6  2  0  0  0  0
 19 20  2  0  0  0  0
 20 15  1  0  0  0  0
 21 15  1  0  0  0  0
 23 27  2  0  0  0  0
 23 24  1  0  0  0  0
 24 25  2  0  0  0  0
 25 22  1  0  0  0  0
 26 22  2  0  0  0  0
 27 26  1  0  0  0  0
M  END
>  <MODEL>
7

>  <REMARK>
 VINA RESULT:      -5.4      2.545      5.744
  Name = 
  1 active torsions:
  status: ('A' for Active; 'I' for Inactive)
    1  A    between atoms: C_9  and  N_15
                            x       y       z     vdW  Elec       q    Type
                         _______ _______ _______ _____ _____    ______ ____

>  <TORSDO>
F 1

$$$$
=
 OpenBabel11052423193D

 27 31  0  0  0  0  0  0  0  0999 V2000
  161.1700  209.9270  152.5120 C   0  0  0  0  0  3  0  0  0  0  0  0
  159.3810  211.0110  153.8640 C   0  0  0  0  0  0  0  0  0  0  0  0
  159.7650  212.4890  151.8790 N   0  0  0  0  0  0  0  0  0  0  0  0
  155.6630  212.8240  154.4940 C   0  0  0  0  0  3  0  0  0  0  0  0
  154.0260  214.4430  153.8780 F   0  0  0  0  0  0  0  0  0  0  0  0
  158.5520  210.6260  154.8780 N   0  0  0  0  0  0  0  0  0  0  0  0
  156.0360  214.2930  152.6060 C   0  0  0  0  0  3  0  0  0  0  0  0
  162.1740  212.6750  147.8910 F   0  0  0  0  0  0  0  0  0  0  0  0
  157.2790  213.6930  152.3810 C   0  0  0  0  0  3  0  0  0  0  0  0
  161.8420  211.9920  149.0130 C   0  0  0  0  0  0  0  0  0  0  0  0
  157.7290  212.6530  153.2110 C   0  0  0  0  0  0  0  0  0  0  0  0
  160.6750  210.4050  153.7650 N   0  0  0  0  0  0  0  0  0  0  0  0
  155.2300  213.8590  153.6620 C   0  0  0  0  0  0  0  0  0  0  0  0
  156.9050  212.2230  154.2720 C   0  0  0  0  0  0  0  0  0  0  0  0
  161.1810  210.5950  151.3600 C   0  0  0  0  0  0  0  0  0  0  0  0
  158.9730  212.0310  152.9850 C   0  0  0  0  0  0  0  0  0  0  0  0
  161.0530  212.5980  149.9900 C   0  0  0  0  0  3  0  0  0  0  0  0
  157.3410  211.1950  155.0940 C   0  0  0  0  0  3  0  0  0  0  0  0
  162.2470  210.6710  149.1710 C   0  0  0  0  0  3  0  0  0  0  0  0
  161.9260  209.9860  150.3410 C   0  0  0  0  0  3  0  0  0  0  0  0
  160.6760  211.9090  151.1520 C   0  0  0  0  0  0  0  0  0  0  0  0
  162.8060  209.2880  157.2370 N   0  0  0  0  0  0  0  0  0  0  0  0
  161.3900  210.0270  154.9640 C   0  0  0  0  0  0  0  0  0  0  0  0
  162.3200  210.9030  155.5470 C   0  0  0  0  0  3  0  0  0  0  0  0
  163.0190  210.5150  156.6910 C   0  0  0  0  0  3  0  0  0  0  0  0
  161.9210  208.4120  156.6920 C   0  0  0  0  0  3  0  0  0  0  0  0
  161.2020  208.7640  155.5480 C   0  0  0  0  0  3  0  0  0  0  0  0
  1 12  1  0  0  0  0
  2  6  1  0  0  0  0
  3 16  1  0  0  0  0
  6 18  2  0  0  0  0
  7 13  1  0  0  0  0
  8 10  1  0  0  0  0
  9  7  2  0  0  0  0
  9 11  1  0  0  0  0
 10 19  1  0  0  0  0
 10 17  2  0  0  0  0
 11 14  2  0  0  0  0
 12  2  1  0  0  0  0
 12 23  1  0  0  0  0
 13  5  1  0  0  0  0
 13  4  2  0  0  0  0
 14  4  1  0  0  0  0
 14 18  1  0  0  0  0
 15  1  2  0  0  0  0
 16 11  1  0  0  0  0
 16  2  2  0  0  0  0
 17 21  1  0  0  0  0
 19 20  2  0  0  0  0
 20 15  1  0  0  0  0
 21 15  1  0  0  0  0
 21  3  2  0  0  0  0
 23 24  2  0  0  0  0
 23 27  1  0  0  0  0
 24 25  1  0  0  0  0
 25 22  2  0  0  0  0
 26 22  1  0  0  0  0
 27 26  2  0  0  0  0
M  END
>  <MODEL>
8

>  <REMARK>
 VINA RESULT:      -5.3      4.333      6.739
  Name = 
  1 active torsions:
  status: ('A' for Active; 'I' for Inactive)
    1  A    between atoms: C_9  and  N_15
                            x       y       z     vdW  Elec       q    Type
                         _______ _______ _______ _____ _____    ______ ____

>  <TORSDO>
F 1

$$$$
=
 OpenBabel11052423193D

 27 31  0  0  0  0  0  0  0  0999 V2000
  161.9240  203.6930  147.8630 C   0  0  0  0  0  3  0  0  0  0  0  0
  161.8290  206.0890  148.5350 C   0  0  0  0  0  0  0  0  0  0  0  0
  160.5530  204.8130  150.2710 N   0  0  0  0  0  0  0  0  0  0  0  0
  162.1980  209.3130  151.1780 C   0  0  0  0  0  3  0  0  0  0  0  0
  161.7440  210.3070  153.2950 F   0  0  0  0  0  0  0  0  0  0  0  0
  162.5020  207.2280  148.1960 N   0  0  0  0  0  0  0  0  0  0  0  0
  160.9250  208.1130  152.8510 C   0  0  0  0  0  3  0  0  0  0  0  0
  159.4790  200.4520  151.5280 F   0  0  0  0  0  0  0  0  0  0  0  0
  160.7980  207.0260  151.9810 C   0  0  0  0  0  3  0  0  0  0  0  0
  160.1320  201.2870  150.6840 C   0  0  0  0  0  0  0  0  0  0  0  0
  161.3680  207.0710  150.6980 C   0  0  0  0  0  0  0  0  0  0  0  0
  161.6700  205.0640  147.5480 N   0  0  0  0  0  0  0  0  0  0  0  0
  161.6230  209.2550  152.4500 C   0  0  0  0  0  0  0  0  0  0  0  0
  162.0720  208.2280  150.3050 C   0  0  0  0  0  0  0  0  0  0  0  0
  161.4550  203.0230  148.9140 C   0  0  0  0  0  0  0  0  0  0  0  0
  161.2590  205.9770  149.8170 C   0  0  0  0  0  0  0  0  0  0  0  0
  159.9490  202.6660  150.7860 C   0  0  0  0  0  3  0  0  0  0  0  0
  162.6400  208.2800  149.0400 C   0  0  0  0  0  3  0  0  0  0  0  0
  161.0220  200.7750  149.7460 C   0  0  0  0  0  3  0  0  0  0  0  0
  161.6680  201.6390  148.8630 C   0  0  0  0  0  3  0  0  0  0  0  0
  160.6280  203.5560  149.9420 C   0  0  0  0  0  0  0  0  0  0  0  0
  161.1620  206.0640  143.4750 N   0  0  0  0  0  0  0  0  0  0  0  0
  161.5080  205.4210  146.1560 C   0  0  0  0  0  0  0  0  0  0  0  0
  160.3850  206.1490  145.7310 C   0  0  0  0  0  3  0  0  0  0  0  0
  160.2310  206.4660  144.3800 C   0  0  0  0  0  3  0  0  0  0  0  0
  162.2560  205.3490  143.8510 C   0  0  0  0  0  3  0  0  0  0  0  0
  162.4450  205.0130  145.1930 C   0  0  0  0  0  3  0  0  0  0  0  0
  1 15  2  0  0  0  0
  2 16  1  0  0  0  0
  4 13  2  0  0  0  0
  6  2  2  0  0  0  0
  6 18  1  0  0  0  0
  9  7  2  0  0  0  0
 10 17  2  0  0  0  0
 10  8  1  0  0  0  0
 11  9  1  0  0  0  0
 12  1  1  0  0  0  0
 12  2  1  0  0  0  0
 13  7  1  0  0  0  0
 13  5  1  0  0  0  0
 14 11  1  0  0  0  0
 14  4  1  0  0  0  0
 15 21  1  0  0  0  0
 16  3  1  0  0  0  0
 16 11  2  0  0  0  0
 18 14  2  0  0  0  0
 19 10  1  0  0  0  0
 20 15  1  0  0  0  0
 20 19  2  0  0  0  0
 21  3  2  0  0  0  0
 21 17  1  0  0  0  0
 22 26  2  0  0  0  0
 22 25  1  0  0  0  0
 23 12  1  0  0  0  0
 24 23  1  0  0  0  0
 25 24  2  0  0  0  0
 26 27  1  0  0  0  0
 27 23  2  0  0  0  0
M  END
>  <MODEL>
9

>  <REMARK>
 VINA RESULT:      -5.1      3.125      5.365
  Name = 
  1 active torsions:
  status: ('A' for Active; 'I' for Inactive)
    1  A    between atoms: C_9  and  N_15
                            x       y       z     vdW  Elec       q    Type
                         _______ _______ _______ _____ _____    ______ ____

>  <TORSDO>
F 1

$$$$
