=
 OpenBabel11062408233D

 32 37  0  0  1  0  0  0  0  0999 V2000
  161.1620  205.6790  151.0050 C   0  0  0  0  0  0  0  0  0  0  0  0
  161.1000  204.1880  149.0640 C   0  0  0  0  0  0  0  0  0  0  0  0
  161.2140  205.8300  152.4000 C   0  0  0  0  0  3  0  0  0  0  0  0
  161.1030  204.3740  150.4580 C   0  0  0  0  0  0  0  0  0  0  0  0
  161.0110  202.8890  148.5200 C   0  0  0  0  0  0  0  0  0  0  0  0
  161.4480  205.9800  144.5410 C   0  0  0  0  0  3  0  0  0  0  0  0
  161.2110  205.3070  148.2040 C   0  0  0  0  0  0  0  0  0  0  0  0
  161.2570  203.5940  144.9010 C   0  0  0  0  0  3  0  0  0  0  0  0
  161.2000  203.8010  146.2810 C   0  0  0  0  0  0  0  0  0  0  0  0
  161.1060  203.2550  151.3100 C   0  0  0  0  0  0  0  0  0  0  0  0
  161.0640  202.7080  147.1360 C   0  0  0  0  0  3  0  0  0  0  0  0
  161.0910  201.9630  150.7730 O   0  0  0  0  0  0  0  0  0  0  0  0
  161.1580  203.4290  152.6940 C   0  0  0  0  0  3  0  0  0  0  0  0
  161.2620  206.5940  148.7600 C   0  0  0  0  0  3  0  0  0  0  0  0
  161.2160  206.7970  150.1430 C   0  0  0  0  0  0  0  0  0  0  0  0
  161.2660  205.1140  146.8080 C   0  0  0  0  0  0  0  0  0  0  0  0
  160.7580  201.6970  149.4070 C   0  0  1  0  0  3  0  0  0  0  0  0
  161.2080  204.7130  153.2380 C   0  0  0  0  0  3  0  0  0  0  0  0
  161.3810  204.6810  144.0320 C   0  0  0  0  0  3  0  0  0  0  0  0
  161.3900  206.1970  145.9200 C   0  0  0  0  0  3  0  0  0  0  0  0
  161.8680  210.5290  150.4040 C   0  0  0  0  0  0  0  0  0  0  0  0
  162.4100  211.5380  149.6780 F   0  0  0  0  0  0  0  0  0  0  0  0
  161.2660  208.1860  150.6480 C   0  0  0  0  0  0  0  0  0  0  0  0
  161.3490  210.7950  151.6730 C   0  0  0  0  0  3  0  0  0  0  0  0
  160.7600  208.4650  151.9260 C   0  0  0  0  0  3  0  0  0  0  0  0
  161.8380  209.2270  149.8900 C   0  0  0  0  0  0  0  0  0  0  0  0
  162.3940  208.9720  148.6400 O   0  0  0  0  0  1  0  0  0  0  0  0
  160.7950  209.7610  152.4430 C   0  0  0  0  0  0  0  0  0  0  0  0
  160.5610  209.1610  154.8310 C   0  0  0  0  0  1  0  0  0  0  0  0
  160.2740  209.9960  153.7180 O   0  0  0  0  0  0  0  0  0  0  0  0
  159.2960  201.2870  149.3120 C   0  0  0  0  0  2  0  0  0  0  0  0
  158.9660  200.4590  150.3840 O   0  0  0  0  0  1  0  0  0  0  0  0
  1  3  2  0  0  0  0
  2  4  1  0  0  0  0
  3 18  1  0  0  0  0
  4  1  1  0  0  0  0
  4 10  2  0  0  0  0
  5  2  1  0  0  0  0
  5 17  1  0  0  0  0
  6 20  1  0  0  0  0
  7 14  1  0  0  0  0
  7  2  2  0  0  0  0
  8  9  2  0  0  0  0
  9 16  1  0  0  0  0
  9 11  1  0  0  0  0
 10 13  1  0  0  0  0
 11  5  2  0  0  0  0
 12 10  1  0  0  0  0
 13 18  2  0  0  0  0
 14 15  2  0  0  0  0
 15 23  1  0  0  0  0
 15  1  1  0  0  0  0
 16  7  1  0  0  0  0
 17 31  1  1  0  0  0
 17 12  1  0  0  0  0
 19  6  2  0  0  0  0
 19  8  1  0  0  0  0
 20 16  2  0  0  0  0
 21 24  1  0  0  0  0
 22 21  1  0  0  0  0
 23 25  2  0  0  0  0
 24 28  2  0  0  0  0
 25 28  1  0  0  0  0
 26 21  2  0  0  0  0
 26 23  1  0  0  0  0
 27 26  1  0  0  0  0
 28 30  1  0  0  0  0
 30 29  1  0  0  0  0
 31 32  1  0  0  0  0
M  END
>  <MODEL>
1

>  <REMARK>
 VINA RESULT:     -10.0      0.000      0.000
  Name = 
  3 active torsions:
  status: ('A' for Active; 'I' for Inactive)
    1  A    between atoms: C_13  and  C_29
    2  A    between atoms: O_15  and  C_26
    3  A    between atoms: C_16  and  C_27
                            x       y       z     vdW  Elec       q    Type
                         _______ _______ _______ _____ _____    ______ ____

>  <TORSDO>
F 3

$$$$
=
 OpenBabel11062408233D

 32 37  0  0  1  0  0  0  0  0999 V2000
  161.4120  207.1840  150.1290 C   0  0  0  0  0  0  0  0  0  0  0  0
  161.1810  208.6440  152.0830 C   0  0  0  0  0  0  0  0  0  0  0  0
  161.7360  207.0420  148.7710 C   0  0  0  0  0  3  0  0  0  0  0  0
  161.4520  208.4750  150.7130 C   0  0  0  0  0  0  0  0  0  0  0  0
  161.1910  209.9330  152.6560 C   0  0  0  0  0  0  0  0  0  0  0  0
  160.2530  206.7700  156.4890 C   0  0  0  0  0  3  0  0  0  0  0  0
  160.9200  207.5120  152.8930 C   0  0  0  0  0  0  0  0  0  0  0  0
  160.5380  209.1580  156.2090 C   0  0  0  0  0  3  0  0  0  0  0  0
  160.7450  208.9780  154.8400 C   0  0  0  0  0  0  0  0  0  0  0  0
  161.8200  209.5860  149.9340 C   0  0  1  0  0  3  0  0  0  0  0  0
  160.9750  210.0870  154.0270 C   0  0  0  0  0  3  0  0  0  0  0  0
  161.9020  210.8560  150.5150 O   0  0  0  0  0  0  0  0  0  0  0  0
  162.1390  209.4200  148.5840 C   0  0  0  0  0  3  0  0  0  0  0  0
  160.8780  206.2420  152.3010 C   0  0  0  0  0  3  0  0  0  0  0  0
  161.0960  206.0650  150.9310 C   0  0  0  0  0  0  0  0  0  0  0  0
  160.7060  207.6780  154.2770 C   0  0  0  0  0  0  0  0  0  0  0  0
  161.3330  211.1600  151.7920 C   0  0  0  0  0  0  0  0  0  0  0  0
  162.0930  208.1530  148.0030 C   0  0  0  0  0  3  0  0  0  0  0  0
  160.2930  208.0560  157.0330 C   0  0  0  0  0  3  0  0  0  0  0  0
  160.4570  206.5810  155.1200 C   0  0  0  0  0  3  0  0  0  0  0  0
  160.7810  202.2900  150.6620 C   0  0  0  0  0  0  0  0  0  0  0  0
  160.5980  201.2070  151.4570 F   0  0  0  0  0  0  0  0  0  0  0  0
  161.0250  204.6930  150.3830 C   0  0  0  0  0  0  0  0  0  0  0  0
  160.9210  202.1160  149.2820 C   0  0  0  0  0  3  0  0  0  0  0  0
  161.1760  204.5020  149.0020 C   0  0  0  0  0  3  0  0  0  0  0  0
  160.8420  203.5730  151.2180 C   0  0  0  0  0  0  0  0  0  0  0  0
  160.7400  203.7260  152.5970 O   0  0  0  0  0  1  0  0  0  0  0  0
  161.1220  203.2230  148.4450 C   0  0  0  0  0  0  0  0  0  0  0  0
  161.6630  204.1500  146.2170 C   0  0  0  0  0  1  0  0  0  0  0  0
  161.2720  203.0780  147.0630 O   0  0  0  0  0  0  0  0  0  0  0  0
  159.9710  211.8110  151.5980 C   0  0  0  0  0  2  0  0  0  0  0  0
  159.8940  212.9800  152.3560 O   0  0  0  0  0  1  0  0  0  0  0  0
  1  4  1  0  0  0  0
  1 15  1  0  0  0  0
  2  5  1  0  0  0  0
  2  7  1  0  0  0  0
  3  1  2  0  0  0  0
  4  2  2  0  0  0  0
  5 11  1  0  0  0  0
  6 19  1  0  0  0  0
  7 16  2  0  0  0  0
  8 19  2  0  0  0  0
  9  8  1  0  0  0  0
 10 13  1  1  0  0  0
 10 12  1  0  0  0  0
 10  4  1  0  0  0  0
 11  9  2  0  0  0  0
 12 17  1  0  0  0  0
 14  7  1  0  0  0  0
 15 14  2  0  0  0  0
 16  9  1  0  0  0  0
 16 20  1  0  0  0  0
 17  5  2  0  0  0  0
 18 13  2  0  0  0  0
 18  3  1  0  0  0  0
 20  6  2  0  0  0  0
 21 26  1  0  0  0  0
 21 22  1  0  0  0  0
 23 15  1  0  0  0  0
 23 26  2  0  0  0  0
 24 21  2  0  0  0  0
 25 23  1  0  0  0  0
 26 27  1  0  0  0  0
 28 25  2  0  0  0  0
 28 24  1  0  0  0  0
 29 30  1  0  0  0  0
 30 28  1  0  0  0  0
 31 17  1  0  0  0  0
 31 32  1  0  0  0  0
M  END
>  <MODEL>
2

>  <REMARK>
 VINA RESULT:      -9.8      2.471      8.350
  Name = 
  3 active torsions:
  status: ('A' for Active; 'I' for Inactive)
    1  A    between atoms: C_13  and  C_29
    2  A    between atoms: O_15  and  C_26
    3  A    between atoms: C_16  and  C_27
                            x       y       z     vdW  Elec       q    Type
                         _______ _______ _______ _____ _____    ______ ____

>  <TORSDO>
F 3

$$$$
=
 OpenBabel11062408233D

 32 37  0  0  1  0  0  0  0  0999 V2000
  161.5070  207.5860  150.4060 C   0  0  0  0  0  0  0  0  0  0  0  0
  161.3980  205.5180  149.0980 C   0  0  0  0  0  0  0  0  0  0  0  0
  161.6380  208.9830  150.4300 C   0  0  0  0  0  3  0  0  0  0  0  0
  161.5760  206.9120  149.1620 C   0  0  0  0  0  0  0  0  0  0  0  0
  161.4970  204.8440  147.8630 C   0  0  0  0  0  0  0  0  0  0  0  0
  160.3120  201.2740  151.2440 C   0  0  0  0  0  3  0  0  0  0  0  0
  161.0970  204.7920  150.2770 C   0  0  0  0  0  0  0  0  0  0  0  0
  160.7080  201.3740  148.8580 C   0  0  0  0  0  3  0  0  0  0  0  0
  160.9410  202.7480  148.9480 C   0  0  0  0  0  0  0  0  0  0  0  0
  161.7640  207.6440  147.9770 C   0  0  0  0  0  0  0  0  0  0  0  0
  161.2660  203.4680  147.8000 C   0  0  0  0  0  3  0  0  0  0  0  0
  161.7900  206.9880  146.7410 O   0  0  0  0  0  0  0  0  0  0  0  0
  161.8920  209.0340  148.0250 C   0  0  0  0  0  3  0  0  0  0  0  0
  161.0380  205.4720  151.5020 C   0  0  0  0  0  3  0  0  0  0  0  0
  161.2610  206.8500  151.5870 C   0  0  0  0  0  0  0  0  0  0  0  0
  160.8620  203.4040  150.2020 C   0  0  0  0  0  0  0  0  0  0  0  0
  161.9480  205.5700  146.6220 C   0  0  1  0  0  3  0  0  0  0  0  0
  161.8340  209.7010  149.2480 C   0  0  0  0  0  3  0  0  0  0  0  0
  160.3940  200.6380  150.0040 C   0  0  0  0  0  3  0  0  0  0  0  0
  160.5460  202.6490  151.3440 C   0  0  0  0  0  3  0  0  0  0  0  0
  160.9670  207.3720  155.3370 C   0  0  0  0  0  0  0  0  0  0  0  0
  160.8220  206.6490  156.4740 F   0  0  0  0  0  0  0  0  0  0  0  0
  161.1900  207.4900  152.9180 C   0  0  0  0  0  0  0  0  0  0  0  0
  161.0400  208.7660  155.4110 C   0  0  0  0  0  3  0  0  0  0  0  0
  161.2500  208.8880  153.0070 C   0  0  0  0  0  3  0  0  0  0  0  0
  161.0320  206.7300  154.0950 C   0  0  0  0  0  0  0  0  0  0  0  0
  160.9190  205.3450  154.0350 O   0  0  0  0  0  1  0  0  0  0  0  0
  161.1780  209.5310  154.2440 C   0  0  0  0  0  0  0  0  0  0  0  0
  160.3490  211.7620  153.5710 C   0  0  0  0  0  1  0  0  0  0  0  0
  161.2470  210.9260  154.2870 O   0  0  0  0  0  0  0  0  0  0  0  0
  163.4070  205.2450  146.3380 C   0  0  0  0  0  2  0  0  0  0  0  0
  163.4910  204.3030  145.3120 O   0  0  0  0  0  1  0  0  0  0  0  0
  1  3  1  0  0  0  0
  1 15  1  0  0  0  0
  2  4  1  0  0  0  0
  2  7  1  0  0  0  0
  4  1  2  0  0  0  0
  5  2  2  0  0  0  0
  6 20  2  0  0  0  0
  7 14  1  0  0  0  0
  8  9  1  0  0  0  0
  8 19  2  0  0  0  0
  9 16  1  0  0  0  0
 10 13  2  0  0  0  0
 10  4  1  0  0  0  0
 11  5  1  0  0  0  0
 11  9  2  0  0  0  0
 12 10  1  0  0  0  0
 13 18  1  0  0  0  0
 14 15  2  0  0  0  0
 15 23  1  0  0  0  0
 16  7  2  0  0  0  0
 16 20  1  0  0  0  0
 17 31  1  1  0  0  0
 17 12  1  0  0  0  0
 17  5  1  0  0  0  0
 18  3  2  0  0  0  0
 19  6  1  0  0  0  0
 21 24  1  0  0  0  0
 21 22  1  0  0  0  0
 23 25  2  0  0  0  0
 23 26  1  0  0  0  0
 25 28  1  0  0  0  0
 26 21  2  0  0  0  0
 27 26  1  0  0  0  0
 28 30  1  0  0  0  0
 28 24  2  0  0  0  0
 29 30  1  0  0  0  0
 32 31  1  0  0  0  0
M  END
>  <MODEL>
3

>  <REMARK>
 VINA RESULT:      -9.2      2.482      4.898
  Name = 
  3 active torsions:
  status: ('A' for Active; 'I' for Inactive)
    1  A    between atoms: C_13  and  C_29
    2  A    between atoms: O_15  and  C_26
    3  A    between atoms: C_16  and  C_27
                            x       y       z     vdW  Elec       q    Type
                         _______ _______ _______ _____ _____    ______ ____

>  <TORSDO>
F 3

$$$$
=
 OpenBabel11062408233D

 32 37  0  0  0  0  0  0  0  0999 V2000
  160.2440  211.1710  154.2630 C   0  0  0  0  0  0  0  0  0  0  0  0
  160.8720  208.8040  154.2890 C   0  0  0  0  0  0  0  0  0  0  0  0
  160.0960  212.3800  154.9620 C   0  0  0  0  0  3  0  0  0  0  0  0
  160.6670  210.0180  154.9700 C   0  0  0  0  0  0  0  0  0  0  0  0
  161.2630  207.6480  154.9980 C   0  0  0  0  0  0  0  0  0  0  0  0
  161.1040  206.2480  150.1410 C   0  0  0  0  0  3  0  0  0  0  0  0
  160.7070  208.7480  152.8840 C   0  0  0  0  0  0  0  0  0  0  0  0
  161.6530  205.2040  152.2550 C   0  0  0  0  0  3  0  0  0  0  0  0
  161.3860  206.4020  152.9220 C   0  0  0  0  0  0  0  0  0  0  0  0
  160.9380  210.0990  156.3460 C   0  0  0  0  0  0  0  0  0  0  0  0
  161.5180  206.4610  154.3090 C   0  0  0  0  0  3  0  0  0  0  0  0
  161.3960  208.9730  157.0400 O   0  0  0  0  0  0  0  0  0  0  0  0
  160.7840  211.3120  157.0210 C   0  0  0  0  0  3  0  0  0  0  0  0
  160.2830  209.8960  152.1990 C   0  0  0  0  0  2  0  0  0  0  0  0
  160.0270  211.0970  152.8690 C   0  0  0  0  0  0  0  0  0  0  0  0
  160.9700  207.5450  152.1960 C   0  0  0  0  0  0  0  0  0  0  0  0
  161.3140  207.6480  156.5040 C   0  0  0  0  0  0  0  0  0  0  0  0
  160.3600  212.4480  156.3320 C   0  0  0  0  0  3  0  0  0  0  0  0
  161.5130  205.1270  150.8660 C   0  0  0  0  0  3  0  0  0  0  0  0
  160.8330  207.4500  150.8000 C   0  0  0  0  0  3  0  0  0  0  0  0
  157.8950  213.9100  151.4690 C   0  0  0  0  0  0  0  0  0  0  0  0
  156.6620  214.4520  151.6280 F   0  0  0  0  0  0  0  0  0  0  0  0
  159.5740  212.2590  152.0750 C   0  0  0  0  0  0  0  0  0  0  0  0
  158.7680  214.4500  150.5210 C   0  0  0  0  0  3  0  0  0  0  0  0
  160.4350  212.8020  151.1110 C   0  0  0  0  0  3  0  0  0  0  0  0
  158.2880  212.8110  152.2410 C   0  0  0  0  0  0  0  0  0  0  0  0
  157.3930  212.2620  153.1540 O   0  0  0  0  0  1  0  0  0  0  0  0
  160.0430  213.8950  150.3350 C   0  0  0  0  0  0  0  0  0  0  0  0
  161.5290  213.6080  148.3790 C   0  0  0  0  0  1  0  0  0  0  0  0
  160.9340  214.4090  149.3900 O   0  0  0  0  0  0  0  0  0  0  0  0
  160.0800  206.9530  157.0600 C   0  0  0  0  0  2  0  0  0  0  0  0
  159.0400  207.0230  156.1330 O   0  0  0  0  0  1  0  0  0  0  0  0
  1  3  1  0  0  0  0
  1  4  1  0  0  0  0
  2  4  2  0  0  0  0
  2  5  1  0  0  0  0
  3 18  2  0  0  0  0
  4 10  1  0  0  0  0
  5 17  2  0  0  0  0
  6 20  2  0  0  0  0
  6 19  1  0  0  0  0
  7  2  1  0  0  0  0
  8  9  1  0  0  0  0
  9 11  2  0  0  0  0
 10 13  2  0  0  0  0
 10 12  1  0  0  0  0
 11  5  1  0  0  0  0
 14 15  1  0  0  0  0
 14  7  1  0  0  0  0
 15  1  2  0  0  0  0
 16  7  2  0  0  0  0
 16  9  1  0  0  0  0
 17 12  1  0  0  0  0
 17 31  1  0  0  0  0
 18 13  1  0  0  0  0
 19  8  2  0  0  0  0
 20 16  1  0  0  0  0
 21 22  1  0  0  0  0
 21 26  1  0  0  0  0
 23 26  2  0  0  0  0
 23 15  1  0  0  0  0
 24 21  2  0  0  0  0
 25 23  1  0  0  0  0
 26 27  1  0  0  0  0
 28 24  1  0  0  0  0
 28 25  2  0  0  0  0
 29 30  1  0  0  0  0
 30 28  1  0  0  0  0
 32 31  1  0  0  0  0
M  END
>  <MODEL>
4

>  <REMARK>
 VINA RESULT:      -8.9      3.906      7.002
  Name = 
  3 active torsions:
  status: ('A' for Active; 'I' for Inactive)
    1  A    between atoms: C_13  and  C_29
    2  A    between atoms: O_15  and  C_26
    3  A    between atoms: C_16  and  C_27
                            x       y       z     vdW  Elec       q    Type
                         _______ _______ _______ _____ _____    ______ ____

>  <TORSDO>
F 3

$$$$
=
 OpenBabel11062408233D

 32 37  0  0  0  0  0  0  0  0999 V2000
  160.1090  211.1610  154.2540 C   0  0  0  0  0  0  0  0  0  0  0  0
  160.8300  208.8210  154.2930 C   0  0  0  0  0  0  0  0  0  0  0  0
  159.9240  212.3700  154.9440 C   0  0  0  0  0  3  0  0  0  0  0  0
  160.5880  210.0320  154.9650 C   0  0  0  0  0  0  0  0  0  0  0  0
  161.2780  207.6890  155.0060 C   0  0  0  0  0  0  0  0  0  0  0  0
  161.0960  206.2340  150.1660 C   0  0  0  0  0  3  0  0  0  0  0  0
  160.6450  208.7440  152.8910 C   0  0  0  0  0  0  0  0  0  0  0  0
  161.7200  205.2340  152.2800 C   0  0  0  0  0  3  0  0  0  0  0  0
  161.4170  206.4270  152.9410 C   0  0  0  0  0  0  0  0  0  0  0  0
  160.8780  210.1380  156.3360 C   0  0  0  0  0  0  0  0  0  0  0  0
  161.5690  206.5050  154.3240 C   0  0  0  0  0  3  0  0  0  0  0  0
  161.3910  209.0390  157.0330 O   0  0  0  0  0  0  0  0  0  0  0  0
  160.6870  211.3510  157.0010 C   0  0  0  0  0  3  0  0  0  0  0  0
  160.1650  209.8670  152.2020 C   0  0  0  0  0  2  0  0  0  0  0  0
  159.8730  211.0640  152.8650 C   0  0  0  0  0  0  0  0  0  0  0  0
  160.9440  207.5450  152.2110 C   0  0  0  0  0  0  0  0  0  0  0  0
  161.3530  207.7060  156.5110 C   0  0  0  0  0  0  0  0  0  0  0  0
  160.2070  212.4630  156.3080 C   0  0  0  0  0  3  0  0  0  0  0  0
  161.5610  205.1370  150.8950 C   0  0  0  0  0  3  0  0  0  0  0  0
  160.7880  207.4310  150.8180 C   0  0  0  0  0  3  0  0  0  0  0  0
  159.5580  213.7820  150.2310 C   0  0  0  0  0  0  0  0  0  0  0  0
  160.2340  214.2700  149.1630 F   0  0  0  0  0  0  0  0  0  0  0  0
  159.3610  212.1990  152.0670 C   0  0  0  0  0  0  0  0  0  0  0  0
  158.3460  214.3680  150.6070 C   0  0  0  0  0  3  0  0  0  0  0  0
  158.1530  212.8040  152.4400 C   0  0  0  0  0  3  0  0  0  0  0  0
  160.0740  212.7050  150.9620 C   0  0  0  0  0  0  0  0  0  0  0  0
  161.3000  212.1570  150.5970 O   0  0  0  0  0  1  0  0  0  0  0  0
  157.6390  213.8830  151.7170 C   0  0  0  0  0  0  0  0  0  0  0  0
  155.7450  214.0520  153.2990 C   0  0  0  0  0  1  0  0  0  0  0  0
  156.4290  214.4530  152.1210 O   0  0  0  0  0  0  0  0  0  0  0  0
  160.1560  206.9680  157.0940 C   0  0  0  0  0  2  0  0  0  0  0  0
  159.1110  206.9570  156.1690 O   0  0  0  0  0  1  0  0  0  0  0  0
  1  3  1  0  0  0  0
  1  4  1  0  0  0  0
  2  4  2  0  0  0  0
  2  5  1  0  0  0  0
  3 18  2  0  0  0  0
  4 10  1  0  0  0  0
  5 17  2  0  0  0  0
  6 20  2  0  0  0  0
  6 19  1  0  0  0  0
  7  2  1  0  0  0  0
  8  9  1  0  0  0  0
  9 11  2  0  0  0  0
 10 13  2  0  0  0  0
 10 12  1  0  0  0  0
 11  5  1  0  0  0  0
 14 15  1  0  0  0  0
 14  7  1  0  0  0  0
 15  1  2  0  0  0  0
 16  7  2  0  0  0  0
 16  9  1  0  0  0  0
 17 12  1  0  0  0  0
 17 31  1  0  0  0  0
 18 13  1  0  0  0  0
 19  8  2  0  0  0  0
 20 16  1  0  0  0  0
 21 24  2  0  0  0  0
 21 26  1  0  0  0  0
 22 21  1  0  0  0  0
 23 25  1  0  0  0  0
 23 15  1  0  0  0  0
 24 28  1  0  0  0  0
 26 23  2  0  0  0  0
 27 26  1  0  0  0  0
 28 30  1  0  0  0  0
 28 25  2  0  0  0  0
 30 29  1  0  0  0  0
 32 31  1  0  0  0  0
M  END
>  <MODEL>
5

>  <REMARK>
 VINA RESULT:      -8.1      3.713      6.789
  Name = 
  3 active torsions:
  status: ('A' for Active; 'I' for Inactive)
    1  A    between atoms: C_13  and  C_29
    2  A    between atoms: O_15  and  C_26
    3  A    between atoms: C_16  and  C_27
                            x       y       z     vdW  Elec       q    Type
                         _______ _______ _______ _____ _____    ______ ____

>  <TORSDO>
F 3

$$$$
=
 OpenBabel11062408233D

 32 37  0  0  0  0  0  0  0  0999 V2000
  160.8850  207.8570  153.4610 C   0  0  0  0  0  0  0  0  0  0  0  0
  160.1840  210.0620  154.2640 C   0  0  0  0  0  0  0  0  0  0  0  0
  161.2120  206.5240  153.7520 C   0  0  0  0  0  3  0  0  0  0  0  0
  160.5640  208.7340  154.5270 C   0  0  0  0  0  0  0  0  0  0  0  0
  159.8950  210.9430  155.3280 C   0  0  0  0  0  0  0  0  0  0  0  0
  159.0520  213.6110  151.1150 C   0  0  0  0  0  3  0  0  0  0  0  0
  160.0700  210.5100  152.9260 C   0  0  0  0  0  0  0  0  0  0  0  0
  158.8850  213.9910  153.5000 C   0  0  0  0  0  3  0  0  0  0  0  0
  159.3220  212.6870  153.7440 C   0  0  0  0  0  0  0  0  0  0  0  0
  160.5690  208.2590  155.8500 C   0  0  0  0  0  0  0  0  0  0  0  0
  159.4650  212.2440  155.0580 C   0  0  0  0  0  3  0  0  0  0  0  0
  160.2120  209.1090  156.9030 O   0  0  0  0  0  0  0  0  0  0  0  0
  160.8970  206.9280  156.1160 C   0  0  0  0  0  3  0  0  0  0  0  0
  160.3960  209.6340  151.8810 C   0  0  0  0  0  2  0  0  0  0  0  0
  160.8230  208.3250  152.1290 C   0  0  0  0  0  0  0  0  0  0  0  0
  159.6320  211.8250  152.6640 C   0  0  0  0  0  0  0  0  0  0  0  0
  160.1380  210.5310  156.7580 C   0  0  0  0  0  0  0  0  0  0  0  0
  161.2220  206.0640  155.0710 C   0  0  0  0  0  3  0  0  0  0  0  0
  158.7500  214.4530  152.1880 C   0  0  0  0  0  3  0  0  0  0  0  0
  159.4920  212.3060  151.3500 C   0  0  0  0  0  3  0  0  0  0  0  0
  162.0850  207.1440  148.7480 C   0  0  0  0  0  0  0  0  0  0  0  0
  162.6960  207.6350  147.6420 F   0  0  0  0  0  0  0  0  0  0  0  0
  161.1570  207.4670  150.9720 C   0  0  0  0  0  0  0  0  0  0  0  0
  161.7440  205.7900  148.8020 C   0  0  0  0  0  3  0  0  0  0  0  0
  160.8090  206.1090  151.0080 C   0  0  0  0  0  3  0  0  0  0  0  0
  161.7860  207.9880  149.8240 C   0  0  0  0  0  0  0  0  0  0  0  0
  162.0980  209.3410  149.7380 O   0  0  0  0  0  1  0  0  0  0  0  0
  161.1000  205.2670  149.9330 C   0  0  0  0  0  0  0  0  0  0  0  0
  160.8840  203.0190  148.9220 C   0  0  0  0  0  1  0  0  0  0  0  0
  160.7410  203.9180  150.0130 O   0  0  0  0  0  0  0  0  0  0  0  0
  161.4290  211.1600  157.2600 C   0  0  0  0  0  2  0  0  0  0  0  0
  162.4840  210.8150  156.4150 O   0  0  0  0  0  1  0  0  0  0  0  0
  1  3  1  0  0  0  0
  1  4  1  0  0  0  0
  2  4  2  0  0  0  0
  2  5  1  0  0  0  0
  3 18  2  0  0  0  0
  4 10  1  0  0  0  0
  5 17  2  0  0  0  0
  6 20  2  0  0  0  0
  6 19  1  0  0  0  0
  7  2  1  0  0  0  0
  8  9  1  0  0  0  0
  9 11  2  0  0  0  0
 10 13  2  0  0  0  0
 10 12  1  0  0  0  0
 11  5  1  0  0  0  0
 14 15  1  0  0  0  0
 14  7  1  0  0  0  0
 15  1  2  0  0  0  0
 16  7  2  0  0  0  0
 16  9  1  0  0  0  0
 17 12  1  0  0  0  0
 17 31  1  0  0  0  0
 18 13  1  0  0  0  0
 19  8  2  0  0  0  0
 20 16  1  0  0  0  0
 21 24  2  0  0  0  0
 21 26  1  0  0  0  0
 22 21  1  0  0  0  0
 23 25  1  0  0  0  0
 23 15  1  0  0  0  0
 24 28  1  0  0  0  0
 26 23  2  0  0  0  0
 27 26  1  0  0  0  0
 28 30  1  0  0  0  0
 28 25  2  0  0  0  0
 29 30  1  0  0  0  0
 32 31  1  0  0  0  0
M  END
>  <MODEL>
6

>  <REMARK>
 VINA RESULT:      -7.7      2.397      8.018
  Name = 
  3 active torsions:
  status: ('A' for Active; 'I' for Inactive)
    1  A    between atoms: C_13  and  C_29
    2  A    between atoms: O_15  and  C_26
    3  A    between atoms: C_16  and  C_27
                            x       y       z     vdW  Elec       q    Type
                         _______ _______ _______ _____ _____    ______ ____

>  <TORSDO>
F 3

$$$$
=
 OpenBabel11062408233D

 32 37  0  0  1  0  0  0  0  0999 V2000
  161.2810  206.3220  151.1340 C   0  0  0  0  0  0  0  0  0  0  0  0
  161.3170  208.7440  151.4940 C   0  0  0  0  0  0  0  0  0  0  0  0
  161.1250  205.0330  151.6670 C   0  0  0  0  0  3  0  0  0  0  0  0
  161.2140  207.4380  152.0050 C   0  0  0  0  0  0  0  0  0  0  0  0
  161.2800  209.8530  152.3660 C   0  0  0  0  0  0  0  0  0  0  0  0
  161.6170  211.8150  147.7170 C   0  0  0  0  0  3  0  0  0  0  0  0
  161.4340  208.9470  150.0980 C   0  0  0  0  0  0  0  0  0  0  0  0
  161.4550  212.6670  149.9770 C   0  0  0  0  0  3  0  0  0  0  0  0
  161.4150  211.3610  150.4720 C   0  0  0  0  0  0  0  0  0  0  0  0
  160.9860  207.2430  153.3780 C   0  0  0  0  0  0  0  0  0  0  0  0
  161.3280  211.1490  151.8470 C   0  0  0  0  0  3  0  0  0  0  0  0
  160.8760  208.3430  154.2360 O   0  0  0  0  0  0  0  0  0  0  0  0
  160.8330  205.9510  153.8870 C   0  0  0  0  0  3  0  0  0  0  0  0
  161.5050  207.8340  149.2490 C   0  0  0  0  0  3  0  0  0  0  0  0
  161.4540  206.5280  149.7470 C   0  0  0  0  0  0  0  0  0  0  0  0
  161.4780  210.2600  149.5830 C   0  0  0  0  0  0  0  0  0  0  0  0
  161.2920  209.6600  153.8610 C   0  0  1  0  0  3  0  0  0  0  0  0
  160.9070  204.8490  153.0350 C   0  0  0  0  0  3  0  0  0  0  0  0
  161.5560  212.8940  148.6020 C   0  0  0  0  0  3  0  0  0  0  0  0
  161.5800  210.5060  148.2030 C   0  0  0  0  0  3  0  0  0  0  0  0
  162.0550  204.5200  146.5800 C   0  0  0  0  0  0  0  0  0  0  0  0
  162.4830  204.7000  145.3060 F   0  0  0  0  0  0  0  0  0  0  0  0
  161.5440  205.4080  148.7850 C   0  0  0  0  0  0  0  0  0  0  0  0
  161.6730  203.2450  147.0040 C   0  0  0  0  0  3  0  0  0  0  0  0
  161.1530  204.1250  149.1940 C   0  0  0  0  0  3  0  0  0  0  0  0
  161.9840  205.6060  147.4610 C   0  0  0  0  0  0  0  0  0  0  0  0
  162.3320  206.8760  147.0110 O   0  0  0  0  0  1  0  0  0  0  0  0
  161.2160  203.0430  148.3150 C   0  0  0  0  0  0  0  0  0  0  0  0
  160.8310  201.4160  150.1390 C   0  0  0  0  0  1  0  0  0  0  0  0
  160.8210  201.7800  148.7660 O   0  0  0  0  0  0  0  0  0  0  0  0
  162.6890  209.9250  154.4020 C   0  0  0  0  0  2  0  0  0  0  0  0
  162.6090  210.7040  155.5560 O   0  0  0  0  0  1  0  0  0  0  0  0
  1  3  2  0  0  0  0
  1  4  1  0  0  0  0
  2  4  1  0  0  0  0
  2  5  1  0  0  0  0
  3 18  1  0  0  0  0
  4 10  2  0  0  0  0
  5 17  1  0  0  0  0
  6 20  2  0  0  0  0
  6 19  1  0  0  0  0
  7  2  2  0  0  0  0
  8  9  1  0  0  0  0
  9 11  1  0  0  0  0
 10 13  1  0  0  0  0
 10 12  1  0  0  0  0
 11  5  2  0  0  0  0
 14 15  2  0  0  0  0
 14  7  1  0  0  0  0
 15  1  1  0  0  0  0
 16  7  1  0  0  0  0
 16  9  2  0  0  0  0
 17 12  1  0  0  0  0
 17 31  1  6  0  0  0
 18 13  2  0  0  0  0
 19  8  2  0  0  0  0
 20 16  1  0  0  0  0
 21 24  2  0  0  0  0
 21 26  1  0  0  0  0
 22 21  1  0  0  0  0
 23 25  1  0  0  0  0
 23 15  1  0  0  0  0
 24 28  1  0  0  0  0
 26 23  2  0  0  0  0
 27 26  1  0  0  0  0
 28 30  1  0  0  0  0
 28 25  2  0  0  0  0
 30 29  1  0  0  0  0
 31 32  1  0  0  0  0
M  END
>  <MODEL>
7

>  <REMARK>
 VINA RESULT:      -7.7      2.101      6.863
  Name = 
  3 active torsions:
  status: ('A' for Active; 'I' for Inactive)
    1  A    between atoms: C_13  and  C_29
    2  A    between atoms: O_15  and  C_26
    3  A    between atoms: C_16  and  C_27
                            x       y       z     vdW  Elec       q    Type
                         _______ _______ _______ _____ _____    ______ ____

>  <TORSDO>
F 3

$$$$
=
 OpenBabel11062408233D

 32 37  0  0  1  0  0  0  0  0999 V2000
  161.2860  206.3180  151.1520 C   0  0  0  0  0  0  0  0  0  0  0  0
  161.1740  204.5710  149.4380 C   0  0  0  0  0  0  0  0  0  0  0  0
  161.3750  206.6600  152.5100 C   0  0  0  0  0  3  0  0  0  0  0  0
  161.2150  204.9490  150.7920 C   0  0  0  0  0  0  0  0  0  0  0  0
  161.0740  203.2100  149.0820 C   0  0  0  0  0  0  0  0  0  0  0  0
  161.3940  205.7180  144.7020 C   0  0  0  0  0  3  0  0  0  0  0  0
  161.2590  205.5610  148.4280 C   0  0  0  0  0  0  0  0  0  0  0  0
  161.2190  203.4050  145.3950 C   0  0  0  0  0  3  0  0  0  0  0  0
  161.2000  203.8020  146.7340 C   0  0  0  0  0  0  0  0  0  0  0  0
  161.2440  203.9600  151.7910 C   0  0  0  0  0  0  0  0  0  0  0  0
  161.0890  202.8390  147.7360 C   0  0  0  0  0  3  0  0  0  0  0  0
  161.2170  202.6060  151.4390 O   0  0  0  0  0  0  0  0  0  0  0  0
  161.3330  204.3240  153.1360 C   0  0  0  0  0  3  0  0  0  0  0  0
  161.3220  206.9120  148.7990 C   0  0  0  0  0  3  0  0  0  0  0  0
  161.3130  207.3050  150.1410 C   0  0  0  0  0  0  0  0  0  0  0  0
  161.2770  205.1760  147.0720 C   0  0  0  0  0  0  0  0  0  0  0  0
  160.8480  202.1530  150.1330 C   0  0  1  0  0  3  0  0  0  0  0  0
  161.3940  205.6710  153.4950 C   0  0  0  0  0  3  0  0  0  0  0  0
  161.3170  204.3610  144.3800 C   0  0  0  0  0  3  0  0  0  0  0  0
  161.3730  206.1240  146.0390 C   0  0  0  0  0  3  0  0  0  0  0  0
  160.9070  210.6520  151.8900 C   0  0  0  0  0  0  0  0  0  0  0  0
  160.3930  211.1650  153.0340 F   0  0  0  0  0  0  0  0  0  0  0  0
  161.3740  208.7510  150.4470 C   0  0  0  0  0  0  0  0  0  0  0  0
  161.5020  211.5050  150.9580 C   0  0  0  0  0  3  0  0  0  0  0  0
  161.9580  209.6200  149.5150 C   0  0  0  0  0  3  0  0  0  0  0  0
  160.8310  209.2770  151.6360 C   0  0  0  0  0  0  0  0  0  0  0  0
  160.2000  208.4460  152.5570 O   0  0  0  0  0  1  0  0  0  0  0  0
  162.0280  210.9930  149.7630 C   0  0  0  0  0  0  0  0  0  0  0  0
  161.9170  212.3370  147.6890 C   0  0  0  0  0  1  0  0  0  0  0  0
  162.6240  211.8230  148.8100 O   0  0  0  0  0  0  0  0  0  0  0  0
  159.3840  201.7360  150.1350 C   0  0  0  0  0  2  0  0  0  0  0  0
  159.1130  200.9560  149.0110 O   0  0  0  0  0  1  0  0  0  0  0  0
  1  3  2  0  0  0  0
  2  4  1  0  0  0  0
  3 18  1  0  0  0  0
  4  1  1  0  0  0  0
  4 10  2  0  0  0  0
  5  2  1  0  0  0  0
  5 17  1  0  0  0  0
  6 20  1  0  0  0  0
  7 14  1  0  0  0  0
  7  2  2  0  0  0  0
  8  9  2  0  0  0  0
  9 16  1  0  0  0  0
  9 11  1  0  0  0  0
 10 13  1  0  0  0  0
 11  5  2  0  0  0  0
 12 10  1  0  0  0  0
 13 18  2  0  0  0  0
 14 15  2  0  0  0  0
 15 23  1  0  0  0  0
 15  1  1  0  0  0  0
 16  7  1  0  0  0  0
 17 31  1  1  0  0  0
 17 12  1  0  0  0  0
 19  6  2  0  0  0  0
 19  8  1  0  0  0  0
 20 16  2  0  0  0  0
 21 22  1  0  0  0  0
 23 26  2  0  0  0  0
 24 21  2  0  0  0  0
 25 28  2  0  0  0  0
 25 23  1  0  0  0  0
 26 21  1  0  0  0  0
 26 27  1  0  0  0  0
 28 24  1  0  0  0  0
 29 30  1  0  0  0  0
 30 28  1  0  0  0  0
 32 31  1  0  0  0  0
M  END
>  <MODEL>
8

>  <REMARK>
 VINA RESULT:      -7.7      1.277      2.310
  Name = 
  3 active torsions:
  status: ('A' for Active; 'I' for Inactive)
    1  A    between atoms: C_13  and  C_29
    2  A    between atoms: O_15  and  C_26
    3  A    between atoms: C_16  and  C_27
                            x       y       z     vdW  Elec       q    Type
                         _______ _______ _______ _____ _____    ______ ____

>  <TORSDO>
F 3

$$$$
=
 OpenBabel11062408233D

 32 37  0  0  0  0  0  0  0  0999 V2000
  160.8080  210.4660  153.4440 C   0  0  0  0  0  0  0  0  0  0  0  0
  160.9930  208.0350  153.6800 C   0  0  0  0  0  0  0  0  0  0  0  0
  160.8160  211.7330  154.0480 C   0  0  0  0  0  3  0  0  0  0  0  0
  160.9470  209.3160  154.2600 C   0  0  0  0  0  0  0  0  0  0  0  0
  161.1010  206.8890  154.4960 C   0  0  0  0  0  0  0  0  0  0  0  0
  161.1450  205.1590  149.7440 C   0  0  0  0  0  3  0  0  0  0  0  0
  160.9530  207.8980  152.2720 C   0  0  0  0  0  0  0  0  0  0  0  0
  161.2980  204.2050  151.9630 C   0  0  0  0  0  3  0  0  0  0  0  0
  161.1910  205.4800  152.5250 C   0  0  0  0  0  0  0  0  0  0  0  0
  161.1000  209.4570  155.6500 C   0  0  0  0  0  0  0  0  0  0  0  0
  161.2010  205.6240  153.9110 C   0  0  0  0  0  3  0  0  0  0  0  0
  161.2800  208.3270  156.4560 O   0  0  0  0  0  0  0  0  0  0  0  0
  161.1050  210.7280  156.2290 C   0  0  0  0  0  3  0  0  0  0  0  0
  160.8080  209.0440  151.4770 C   0  0  0  0  0  2  0  0  0  0  0  0
  160.7120  210.3200  152.0420 C   0  0  0  0  0  0  0  0  0  0  0  0
  161.0570  206.6170  151.6900 C   0  0  0  0  0  0  0  0  0  0  0  0
  161.0110  206.9980  155.9960 C   0  0  0  0  0  0  0  0  0  0  0  0
  160.9590  211.8620  155.4310 C   0  0  0  0  0  3  0  0  0  0  0  0
  161.2760  204.0440  150.5750 C   0  0  0  0  0  3  0  0  0  0  0  0
  161.0350  206.4380  150.2960 C   0  0  0  0  0  3  0  0  0  0  0  0
  161.2130  212.7730  149.1860 C   0  0  0  0  0  0  0  0  0  0  0  0
  162.0160  212.9570  148.1090 F   0  0  0  0  0  0  0  0  0  0  0  0
  160.5520  211.4770  151.1340 C   0  0  0  0  0  0  0  0  0  0  0  0
  160.2090  213.7040  149.4650 C   0  0  0  0  0  3  0  0  0  0  0  0
  159.5560  212.4250  151.4090 C   0  0  0  0  0  3  0  0  0  0  0  0
  161.3950  211.6640  150.0210 C   0  0  0  0  0  0  0  0  0  0  0  0
  162.4240  210.7670  149.7520 O   0  0  0  0  0  1  0  0  0  0  0  0
  159.3770  213.5350  150.5810 C   0  0  0  0  0  0  0  0  0  0  0  0
  157.0100  214.0750  151.0560 C   0  0  0  0  0  1  0  0  0  0  0  0
  158.3690  214.4530  150.8880 O   0  0  0  0  0  0  0  0  0  0  0  0
  159.6250  206.5740  156.4600 C   0  0  0  0  0  2  0  0  0  0  0  0
  158.6520  207.2820  155.7540 O   0  0  0  0  0  1  0  0  0  0  0  0
  1  3  1  0  0  0  0
  1  4  1  0  0  0  0
  2  4  2  0  0  0  0
  2  5  1  0  0  0  0
  3 18  2  0  0  0  0
  4 10  1  0  0  0  0
  5 17  2  0  0  0  0
  6 20  2  0  0  0  0
  6 19  1  0  0  0  0
  7  2  1  0  0  0  0
  8  9  1  0  0  0  0
  9 11  2  0  0  0  0
 10 13  2  0  0  0  0
 10 12  1  0  0  0  0
 11  5  1  0  0  0  0
 14 15  1  0  0  0  0
 14  7  1  0  0  0  0
 15  1  2  0  0  0  0
 16  7  2  0  0  0  0
 16  9  1  0  0  0  0
 17 12  1  0  0  0  0
 17 31  1  0  0  0  0
 18 13  1  0  0  0  0
 19  8  2  0  0  0  0
 20 16  1  0  0  0  0
 21 24  2  0  0  0  0
 21 26  1  0  0  0  0
 22 21  1  0  0  0  0
 23 25  1  0  0  0  0
 23 15  1  0  0  0  0
 24 28  1  0  0  0  0
 26 23  2  0  0  0  0
 27 26  1  0  0  0  0
 28 30  1  0  0  0  0
 28 25  2  0  0  0  0
 30 29  1  0  0  0  0
 32 31  1  0  0  0  0
M  END
>  <MODEL>
9

>  <REMARK>
 VINA RESULT:      -7.3      3.254      6.010
  Name = 
  3 active torsions:
  status: ('A' for Active; 'I' for Inactive)
    1  A    between atoms: C_13  and  C_29
    2  A    between atoms: O_15  and  C_26
    3  A    between atoms: C_16  and  C_27
                            x       y       z     vdW  Elec       q    Type
                         _______ _______ _______ _____ _____    ______ ____

>  <TORSDO>
F 3

$$$$
