=
 OpenBabel11052422013D

 30 31  0  0  1  0  0  0  0  0999 V2000
  160.7150  208.0380  154.6120 C   0  0  0  0  0  0  0  0  0  0  0  0
  161.0430  210.9300  153.9020 C   0  0  0  0  0  0  0  0  0  0  0  0
  160.4070  211.5940  152.6720 C   0  0  1  0  0  3  0  0  0  0  0  0
  161.9200  208.4620  155.1780 O   0  0  0  0  0  0  0  0  0  0  0  0
  159.6770  207.9800  155.3230 O   0  0  0  0  0  0  0  0  0  0  0  0
  161.3930  210.9070  155.1830 C   0  0  0  0  0  3  0  0  0  0  0  0
  162.0540  209.7270  155.7580 C   0  0  0  0  0  0  0  0  0  0  0  0
  160.6090  207.7860  153.1380 C   0  0  1  0  0  3  0  0  0  0  0  0
  160.9970  210.2900  152.5160 C   0  0  2  0  0  0  0  0  0  0  0  0
  158.8940  211.5980  152.8420 C   0  0  0  0  0  1  0  0  0  0  0  0
  162.7800  209.8660  156.7760 O   0  0  0  0  0  0  0  0  0  0  0  0
  160.0960  209.0410  152.4080 C   0  0  0  0  0  2  0  0  0  0  0  0
  161.8860  207.1910  152.5170 C   0  0  1  0  0  3  0  0  0  0  0  0
  162.2790  205.8660  153.1560 C   0  0  0  0  0  1  0  0  0  0  0  0
  161.8440  207.0940  150.9780 C   0  0  0  0  0  2  0  0  0  0  0  0
  160.9490  206.0100  150.3520 C   0  0  2  0  0  3  0  0  0  0  0  0
  161.6220  204.6440  150.2740 C   0  0  0  0  0  2  0  0  0  0  0  0
  161.1070  202.6820  151.7340 C   0  0  0  0  0  1  0  0  0  0  0  0
  160.4740  202.7340  149.4460 O   0  0  0  0  0  1  0  0  0  0  0  0
  160.6250  203.5370  150.5750 C   0  0  2  0  0  3  0  0  0  0  0  0
  160.3640  206.4350  149.0130 C   0  0  0  0  0  2  0  0  0  0  0  0
  161.1590  205.1070  147.0560 O   0  0  0  0  0  0  0  0  0  0  0  0
  162.2970  206.9820  147.7270 O   0  0  0  0  0  1  0  0  0  0  0  0
  161.3350  206.1900  147.9080 C   0  0  0  0  0  0  0  0  0  0  0  0
  162.3600  210.2840  151.8320 C   0  0  0  0  0  2  0  0  0  0  0  0
  162.2310  210.3000  150.3150 C   0  0  0  0  0  2  0  0  0  0  0  0
  161.7300  211.6480  149.8300 C   0  0  0  0  0  2  0  0  0  0  0  0
  162.0500  211.8130  148.3860 C   0  0  0  0  0  0  0  0  0  0  0  0
  163.3520  212.0850  147.9880 O   0  0  0  0  0  1  0  0  0  0  0  0
  161.1330  211.7400  147.5260 O   0  0  0  0  0  0  0  0  0  0  0  0
  1  4  1  0  0  0  0
  1  5  2  0  0  0  0
  2  6  2  0  0  0  0
  3 10  1  1  0  0  0
  3  2  1  0  0  0  0
  4  7  1  0  0  0  0
  6  7  1  0  0  0  0
  7 11  2  0  0  0  0
  8 13  1  6  0  0  0
  8  1  1  0  0  0  0
  9 25  1  6  0  0  0
  9  3  1  0  0  0  0
  9  2  1  0  0  0  0
 12  9  1  0  0  0  0
 12  8  1  0  0  0  0
 13 14  1  1  0  0  0
 15 13  1  0  0  0  0
 16 21  1  6  0  0  0
 16 15  1  0  0  0  0
 17 16  1  0  0  0  0
 17 20  1  0  0  0  0
 19 20  1  0  0  0  0
 20 18  1  1  0  0  0
 22 24  2  0  0  0  0
 23 24  1  0  0  0  0
 24 21  1  0  0  0  0
 26 25  1  0  0  0  0
 27 26  1  0  0  0  0
 28 27  1  0  0  0  0
 29 28  1  0  0  0  0
 30 28  2  0  0  0  0
M  END
>  <MODEL>
1

>  <REMARK>
 VINA RESULT:      -6.1      0.000      0.000
  Name = 
  11 active torsions:
  status: ('A' for Active; 'I' for Inactive)
    1  A    between atoms: C_1  and  C_4
    2  A    between atoms: C_1  and  C_22
    3  A    between atoms: C_4  and  C_12
    4  A    between atoms: C_7  and  C_23
    5  A    between atoms: C_7  and  C_25
    6  A    between atoms: C_8  and  C_12
    7  A    between atoms: C_8  and  C_30
    8  A    between atoms: C_9  and  C_12
    9  A    between atoms: C_9  and  C_21
   10  A    between atoms: C_10  and  C_15
   11  A    between atoms: C_15  and  C_25
                            x       y       z     vdW  Elec       q    Type
                         _______ _______ _______ _____ _____    ______ ____

>  <TORSDO>
F 11

$$$$
=
 OpenBabel11052422013D

 30 31  0  0  1  0  0  0  0  0999 V2000
  160.0980  211.7800  154.4590 C   0  0  0  0  0  0  0  0  0  0  0  0
  160.0020  209.0750  155.7430 C   0  0  0  0  0  0  0  0  0  0  0  0
  161.2260  208.1660  155.9330 C   0  0  1  0  0  3  0  0  0  0  0  0
  158.7990  211.2940  154.2890 O   0  0  0  0  0  0  0  0  0  0  0  0
  160.3470  212.5880  155.3920 O   0  0  0  0  0  0  0  0  0  0  0  0
  158.8670  209.6280  156.1550 C   0  0  0  0  0  3  0  0  0  0  0  0
  158.1450  210.5790  155.2980 C   0  0  0  0  0  0  0  0  0  0  0  0
  161.2290  211.2430  153.6330 C   0  0  1  0  0  3  0  0  0  0  0  0
  161.0780  208.8580  154.6800 C   0  0  2  0  0  0  0  0  0  0  0  0
  162.1800  208.8250  156.9220 C   0  0  0  0  0  1  0  0  0  0  0  0
  156.9060  210.7290  155.4570 O   0  0  0  0  0  0  0  0  0  0  0  0
  161.9440  210.0970  154.3720 C   0  0  0  0  0  2  0  0  0  0  0  0
  160.8280  210.8900  152.1890 C   0  0  1  0  0  3  0  0  0  0  0  0
  160.0180  211.9940  151.5240 C   0  0  0  0  0  1  0  0  0  0  0  0
  162.0120  210.4380  151.3070 C   0  0  0  0  0  2  0  0  0  0  0  0
  161.6890  209.8060  149.9430 C   0  0  2  0  0  3  0  0  0  0  0  0
  161.8070  208.2860  149.9390 C   0  0  0  0  0  2  0  0  0  0  0  0
  160.5200  206.5900  148.6290 C   0  0  0  0  0  1  0  0  0  0  0  0
  162.7080  207.2580  147.9950 O   0  0  0  0  0  1  0  0  0  0  0  0
  161.5210  207.7280  148.5540 C   0  0  2  0  0  3  0  0  0  0  0  0
  162.4740  210.4400  148.8030 C   0  0  0  0  0  2  0  0  0  0  0  0
  160.6840  211.6210  147.5300 O   0  0  0  0  0  0  0  0  0  0  0  0
  162.2590  212.8130  148.6950 O   0  0  0  0  0  1  0  0  0  0  0  0
  161.8130  211.6920  148.3360 C   0  0  0  0  0  0  0  0  0  0  0  0
  160.5880  207.9890  153.5260 C   0  0  0  0  0  2  0  0  0  0  0  0
  161.0010  206.5340  153.6990 C   0  0  0  0  0  2  0  0  0  0  0  0
  161.9330  206.1000  152.5830 C   0  0  0  0  0  2  0  0  0  0  0  0
  161.4790  204.7960  152.0270 C   0  0  0  0  0  0  0  0  0  0  0  0
  160.6650  203.9630  152.7820 O   0  0  0  0  0  1  0  0  0  0  0  0
  161.8600  204.4330  150.8840 O   0  0  0  0  0  0  0  0  0  0  0  0
  1  5  2  0  0  0  0
  2  3  1  0  0  0  0
  2  6  2  0  0  0  0
  3 10  1  1  0  0  0
  4  1  1  0  0  0  0
  4  7  1  0  0  0  0
  7 11  2  0  0  0  0
  7  6  1  0  0  0  0
  8 13  1  6  0  0  0
  8 12  1  0  0  0  0
  8  1  1  0  0  0  0
  9 25  1  6  0  0  0
  9  2  1  0  0  0  0
  9  3  1  0  0  0  0
 12  9  1  0  0  0  0
 13 14  1  6  0  0  0
 15 13  1  0  0  0  0
 16 21  1  6  0  0  0
 16 15  1  0  0  0  0
 17 16  1  0  0  0  0
 19 20  1  0  0  0  0
 20 18  1  1  0  0  0
 20 17  1  0  0  0  0
 22 24  2  0  0  0  0
 24 23  1  0  0  0  0
 24 21  1  0  0  0  0
 25 26  1  0  0  0  0
 27 26  1  0  0  0  0
 28 27  1  0  0  0  0
 28 29  1  0  0  0  0
 30 28  2  0  0  0  0
M  END
>  <MODEL>
2

>  <REMARK>
 VINA RESULT:      -5.8      1.915      5.215
  Name = 
  11 active torsions:
  status: ('A' for Active; 'I' for Inactive)
    1  A    between atoms: C_1  and  C_4
    2  A    between atoms: C_1  and  C_22
    3  A    between atoms: C_4  and  C_12
    4  A    between atoms: C_7  and  C_23
    5  A    between atoms: C_7  and  C_25
    6  A    between atoms: C_8  and  C_12
    7  A    between atoms: C_8  and  C_30
    8  A    between atoms: C_9  and  C_12
    9  A    between atoms: C_9  and  C_21
   10  A    between atoms: C_10  and  C_15
   11  A    between atoms: C_15  and  C_25
                            x       y       z     vdW  Elec       q    Type
                         _______ _______ _______ _____ _____    ______ ____

>  <TORSDO>
F 11

$$$$
=
 OpenBabel11052422013D

 30 31  0  0  1  0  0  0  0  0999 V2000
  160.5590  208.2230  154.8960 C   0  0  0  0  0  0  0  0  0  0  0  0
  161.0760  211.0680  154.1110 C   0  0  0  0  0  0  0  0  0  0  0  0
  160.3970  211.7730  152.9270 C   0  0  1  0  0  3  0  0  0  0  0  0
  161.8400  208.5450  155.3500 O   0  0  0  0  0  0  0  0  0  0  0  0
  159.5840  208.2650  155.6930 O   0  0  0  0  0  0  0  0  0  0  0  0
  161.5300  211.0270  155.3580 C   0  0  0  0  0  3  0  0  0  0  0  0
  162.1330  209.7990  155.8960 C   0  0  0  0  0  0  0  0  0  0  0  0
  160.3060  207.9680  153.4400 C   0  0  1  0  0  3  0  0  0  0  0  0
  160.8560  210.4210  152.7450 C   0  0  2  0  0  0  0  0  0  0  0  0
  158.9100  211.9130  153.2240 C   0  0  0  0  0  1  0  0  0  0  0  0
  162.9520  209.8830  156.8460 O   0  0  0  0  0  0  0  0  0  0  0  0
  159.8440  209.2560  152.7350 C   0  0  0  0  0  2  0  0  0  0  0  0
  161.4690  207.2560  152.7250 C   0  0  1  0  0  3  0  0  0  0  0  0
  161.9160  205.9960  153.4530 C   0  0  0  0  0  1  0  0  0  0  0  0
  161.2090  206.9890  151.2270 C   0  0  0  0  0  2  0  0  0  0  0  0
  161.4670  205.5690  150.6960 C   0  0  2  0  0  3  0  0  0  0  0  0
  161.8420  205.5350  149.2190 C   0  0  0  0  0  2  0  0  0  0  0  0
  160.6160  206.4910  147.2620 C   0  0  0  0  0  1  0  0  0  0  0  0
  162.5200  207.5660  148.1870 O   0  0  0  0  0  1  0  0  0  0  0  0
  161.3970  206.8120  148.5230 C   0  0  2  0  0  3  0  0  0  0  0  0
  160.3320  204.6070  151.0180 C   0  0  0  0  0  2  0  0  0  0  0  0
  160.3760  202.4010  149.8550 O   0  0  0  0  0  0  0  0  0  0  0  0
  161.5770  202.7220  151.7820 O   0  0  0  0  0  1  0  0  0  0  0  0
  160.7900  203.1920  150.9190 C   0  0  0  0  0  0  0  0  0  0  0  0
  162.1500  210.2880  151.9480 C   0  0  0  0  0  2  0  0  0  0  0  0
  161.8950  210.3120  150.4480 C   0  0  0  0  0  2  0  0  0  0  0  0
  161.9080  211.7350  149.9200 C   0  0  0  0  0  2  0  0  0  0  0  0
  162.1280  211.7240  148.4490 C   0  0  0  0  0  0  0  0  0  0  0  0
  161.1400  211.2430  147.6010 O   0  0  0  0  0  0  0  0  0  0  0  0
  163.2250  212.1180  147.9740 O   0  0  0  0  0  1  0  0  0  0  0  0
  1  4  1  0  0  0  0
  1  5  2  0  0  0  0
  2  6  2  0  0  0  0
  3 10  1  1  0  0  0
  3  2  1  0  0  0  0
  4  7  1  0  0  0  0
  6  7  1  0  0  0  0
  7 11  2  0  0  0  0
  8 13  1  6  0  0  0
  8  1  1  0  0  0  0
  9 25  1  6  0  0  0
  9  3  1  0  0  0  0
  9  2  1  0  0  0  0
 12  9  1  0  0  0  0
 12  8  1  0  0  0  0
 13 14  1  1  0  0  0
 15 13  1  0  0  0  0
 16 17  1  6  0  0  0
 16 21  1  0  0  0  0
 16 15  1  0  0  0  0
 19 20  1  0  0  0  0
 20 18  1  6  0  0  0
 20 17  1  0  0  0  0
 22 24  2  0  0  0  0
 24 21  1  0  0  0  0
 24 23  1  0  0  0  0
 26 25  1  0  0  0  0
 27 26  1  0  0  0  0
 28 27  1  0  0  0  0
 29 28  2  0  0  0  0
 30 28  1  0  0  0  0
M  END
>  <MODEL>
3

>  <REMARK>
 VINA RESULT:      -5.7      0.777      2.392
  Name = 
  11 active torsions:
  status: ('A' for Active; 'I' for Inactive)
    1  A    between atoms: C_1  and  C_4
    2  A    between atoms: C_1  and  C_22
    3  A    between atoms: C_4  and  C_12
    4  A    between atoms: C_7  and  C_23
    5  A    between atoms: C_7  and  C_25
    6  A    between atoms: C_8  and  C_12
    7  A    between atoms: C_8  and  C_30
    8  A    between atoms: C_9  and  C_12
    9  A    between atoms: C_9  and  C_21
   10  A    between atoms: C_10  and  C_15
   11  A    between atoms: C_15  and  C_25
                            x       y       z     vdW  Elec       q    Type
                         _______ _______ _______ _____ _____    ______ ____

>  <TORSDO>
F 11

$$$$
=
 OpenBabel11052422013D

 30 31  0  0  1  0  0  0  0  0999 V2000
  160.4220  211.4480  154.3570 C   0  0  0  0  0  0  0  0  0  0  0  0
  159.9820  208.8070  155.7010 C   0  0  0  0  0  0  0  0  0  0  0  0
  161.0930  207.7800  155.9690 C   0  0  1  0  0  3  0  0  0  0  0  0
  159.0870  211.0980  154.1400 O   0  0  0  0  0  0  0  0  0  0  0  0
  160.7150  212.2530  155.2810 O   0  0  0  0  0  0  0  0  0  0  0  0
  158.8970  209.4890  156.0470 C   0  0  0  0  0  3  0  0  0  0  0  0
  158.3170  210.4860  155.1350 C   0  0  0  0  0  0  0  0  0  0  0  0
  161.5230  210.7710  153.5980 C   0  0  1  0  0  3  0  0  0  0  0  0
  161.0730  208.4470  154.6940 C   0  0  2  0  0  0  0  0  0  0  0  0
  162.0680  208.3630  156.9840 C   0  0  0  0  0  1  0  0  0  0  0  0
  157.0960  210.7710  155.2330 O   0  0  0  0  0  0  0  0  0  0  0  0
  162.0800  209.5780  154.3960 C   0  0  0  0  0  2  0  0  0  0  0  0
  161.1500  210.4210  152.1450 C   0  0  1  0  0  3  0  0  0  0  0  0
  160.0340  211.3020  151.6040 C   0  0  0  0  0  1  0  0  0  0  0  0
  162.3580  210.3730  151.1860 C   0  0  0  0  0  2  0  0  0  0  0  0
  162.1920  209.6090  149.8620 C   0  0  2  0  0  3  0  0  0  0  0  0
  161.6900  210.4840  148.7190 C   0  0  0  0  0  2  0  0  0  0  0  0
  161.2380  212.9300  148.4740 C   0  0  0  0  0  1  0  0  0  0  0  0
  163.3450  211.9890  147.9170 O   0  0  0  0  0  1  0  0  0  0  0  0
  162.2820  211.8810  148.8110 C   0  0  2  0  0  3  0  0  0  0  0  0
  161.3620  208.3420  150.0160 C   0  0  0  0  0  2  0  0  0  0  0  0
  162.7210  207.3410  148.1790 O   0  0  0  0  0  0  0  0  0  0  0  0
  160.4930  206.8340  148.3850 O   0  0  0  0  0  1  0  0  0  0  0  0
  161.4910  207.4730  148.8120 C   0  0  0  0  0  0  0  0  0  0  0  0
  160.5430  207.6010  153.5400 C   0  0  0  0  0  2  0  0  0  0  0  0
  161.5960  206.6340  153.0180 C   0  0  0  0  0  2  0  0  0  0  0  0
  161.2130  205.1990  153.3280 C   0  0  0  0  0  2  0  0  0  0  0  0
  161.0390  204.4400  152.0600 C   0  0  0  0  0  0  0  0  0  0  0  0
  160.6250  205.0950  150.9080 O   0  0  0  0  0  0  0  0  0  0  0  0
  161.2350  203.1970  152.0390 O   0  0  0  0  0  1  0  0  0  0  0  0
  1  5  2  0  0  0  0
  2  3  1  0  0  0  0
  2  6  2  0  0  0  0
  3 10  1  1  0  0  0
  4  1  1  0  0  0  0
  4  7  1  0  0  0  0
  7 11  2  0  0  0  0
  7  6  1  0  0  0  0
  8 13  1  6  0  0  0
  8  1  1  0  0  0  0
  8 12  1  0  0  0  0
  9 25  1  6  0  0  0
  9  2  1  0  0  0  0
  9  3  1  0  0  0  0
 12  9  1  0  0  0  0
 13 14  1  6  0  0  0
 15 13  1  0  0  0  0
 16 17  1  6  0  0  0
 16 21  1  0  0  0  0
 16 15  1  0  0  0  0
 17 20  1  0  0  0  0
 19 20  1  0  0  0  0
 20 18  1  6  0  0  0
 22 24  2  0  0  0  0
 23 24  1  0  0  0  0
 24 21  1  0  0  0  0
 26 27  1  0  0  0  0
 26 25  1  0  0  0  0
 28 27  1  0  0  0  0
 29 28  2  0  0  0  0
 30 28  1  0  0  0  0
M  END
>  <MODEL>
4

>  <REMARK>
 VINA RESULT:      -5.0      1.831      5.596
  Name = 
  11 active torsions:
  status: ('A' for Active; 'I' for Inactive)
    1  A    between atoms: C_1  and  C_4
    2  A    between atoms: C_1  and  C_22
    3  A    between atoms: C_4  and  C_12
    4  A    between atoms: C_7  and  C_23
    5  A    between atoms: C_7  and  C_25
    6  A    between atoms: C_8  and  C_12
    7  A    between atoms: C_8  and  C_30
    8  A    between atoms: C_9  and  C_12
    9  A    between atoms: C_9  and  C_21
   10  A    between atoms: C_10  and  C_15
   11  A    between atoms: C_15  and  C_25
                            x       y       z     vdW  Elec       q    Type
                         _______ _______ _______ _____ _____    ______ ____

>  <TORSDO>
F 11

$$$$
=
 OpenBabel11052422013D

 30 31  0  0  1  0  0  0  0  0999 V2000
  161.2080  208.4870  156.1340 C   0  0  0  0  0  0  0  0  0  0  0  0
  160.4280  211.3630  155.8230 C   0  0  0  0  0  0  0  0  0  0  0  0
  159.0970  211.8360  155.2200 C   0  0  1  0  0  3  0  0  0  0  0  0
  162.3920  209.2240  156.0550 O   0  0  0  0  0  0  0  0  0  0  0  0
  160.7630  208.1360  157.2590 O   0  0  0  0  0  0  0  0  0  0  0  0
  161.4070  211.4270  156.7180 C   0  0  0  0  0  3  0  0  0  0  0  0
  162.5240  210.4710  156.6750 C   0  0  0  0  0  0  0  0  0  0  0  0
  160.3850  208.2300  154.9070 C   0  0  1  0  0  3  0  0  0  0  0  0
  159.7900  210.7490  154.5790 C   0  0  2  0  0  0  0  0  0  0  0  0
  157.9610  211.4170  156.1440 C   0  0  0  0  0  1  0  0  0  0  0  0
  163.6290  210.7970  157.1800 O   0  0  0  0  0  0  0  0  0  0  0  0
  159.2880  209.3000  154.7550 C   0  0  0  0  0  2  0  0  0  0  0  0
  161.2220  208.0200  153.6320 C   0  0  1  0  0  3  0  0  0  0  0  0
  162.0050  206.7150  153.6590 C   0  0  0  0  0  1  0  0  0  0  0  0
  160.4160  208.1770  152.3250 C   0  0  0  0  0  2  0  0  0  0  0  0
  161.1190  207.8270  151.0030 C   0  0  2  0  0  3  0  0  0  0  0  0
  161.6600  206.4020  150.9640 C   0  0  0  0  0  2  0  0  0  0  0  0
  160.6960  204.0960  150.9670 C   0  0  0  0  0  1  0  0  0  0  0  0
  160.9630  205.3330  148.9590 O   0  0  0  0  0  1  0  0  0  0  0  0
  160.6560  205.4650  150.3120 C   0  0  2  0  0  3  0  0  0  0  0  0
  162.1790  208.8490  150.6150 C   0  0  0  0  0  2  0  0  0  0  0  0
  161.6130  208.3780  148.2320 O   0  0  0  0  0  0  0  0  0  0  0  0
  162.1630  210.5030  148.8970 O   0  0  0  0  0  1  0  0  0  0  0  0
  161.9980  209.2930  149.2040 C   0  0  0  0  0  0  0  0  0  0  0  0
  160.5270  211.1290  153.2990 C   0  0  0  0  0  2  0  0  0  0  0  0
  159.9640  212.4000  152.6790 C   0  0  0  0  0  2  0  0  0  0  0  0
  160.3070  212.4790  151.2020 C   0  0  0  0  0  2  0  0  0  0  0  0
  159.3810  213.4240  150.5210 C   0  0  0  0  0  0  0  0  0  0  0  0
  158.2710  213.9170  151.1930 O   0  0  0  0  0  1  0  0  0  0  0  0
  159.5850  213.7500  149.3230 O   0  0  0  0  0  0  0  0  0  0  0  0
  1  5  2  0  0  0  0
  2  6  2  0  0  0  0
  3  2  1  0  0  0  0
  3 10  1  1  0  0  0
  4  1  1  0  0  0  0
  4  7  1  0  0  0  0
  7  6  1  0  0  0  0
  7 11  2  0  0  0  0
  8 13  1  6  0  0  0
  8  1  1  0  0  0  0
  9 25  1  6  0  0  0
  9 12  1  0  0  0  0
  9  3  1  0  0  0  0
  9  2  1  0  0  0  0
 12  8  1  0  0  0  0
 13 14  1  1  0  0  0
 15 13  1  0  0  0  0
 16 21  1  1  0  0  0
 16 15  1  0  0  0  0
 17 16  1  0  0  0  0
 19 20  1  0  0  0  0
 20 17  1  0  0  0  0
 20 18  1  1  0  0  0
 22 24  2  0  0  0  0
 23 24  1  0  0  0  0
 24 21  1  0  0  0  0
 26 25  1  0  0  0  0
 27 26  1  0  0  0  0
 28 29  1  0  0  0  0
 28 27  1  0  0  0  0
 30 28  2  0  0  0  0
M  END
>  <MODEL>
5

>  <REMARK>
 VINA RESULT:      -4.8      1.908      2.730
  Name = 
  11 active torsions:
  status: ('A' for Active; 'I' for Inactive)
    1  A    between atoms: C_1  and  C_4
    2  A    between atoms: C_1  and  C_22
    3  A    between atoms: C_4  and  C_12
    4  A    between atoms: C_7  and  C_23
    5  A    between atoms: C_7  and  C_25
    6  A    between atoms: C_8  and  C_12
    7  A    between atoms: C_8  and  C_30
    8  A    between atoms: C_9  and  C_12
    9  A    between atoms: C_9  and  C_21
   10  A    between atoms: C_10  and  C_15
   11  A    between atoms: C_15  and  C_25
                            x       y       z     vdW  Elec       q    Type
                         _______ _______ _______ _____ _____    ______ ____

>  <TORSDO>
F 11

$$$$
=
 OpenBabel11052422013D

 30 31  0  0  1  0  0  0  0  0999 V2000
  157.4300  213.4590  154.2770 C   0  0  0  0  0  0  0  0  0  0  0  0
  158.8220  210.9320  155.0860 C   0  0  0  0  0  0  0  0  0  0  0  0
  160.3450  210.7940  155.2280 C   0  0  1  0  0  3  0  0  0  0  0  0
  156.5920  212.4000  153.9190 O   0  0  0  0  0  0  0  0  0  0  0  0
  157.2210  214.0870  155.3490 O   0  0  0  0  0  0  0  0  0  0  0  0
  157.5740  210.7120  155.4830 C   0  0  0  0  0  3  0  0  0  0  0  0
  156.4400  211.2750  154.7360 C   0  0  0  0  0  0  0  0  0  0  0  0
  158.6590  213.7660  153.4740 C   0  0  1  0  0  3  0  0  0  0  0  0
  159.8280  211.5190  154.0980 C   0  0  2  0  0  0  0  0  0  0  0  0
  160.8120  211.6620  156.3900 C   0  0  0  0  0  1  0  0  0  0  0  0
  155.3170  210.7130  154.8110 O   0  0  0  0  0  0  0  0  0  0  0  0
  159.8890  213.0610  154.0730 C   0  0  0  0  0  2  0  0  0  0  0  0
  158.4870  213.5290  151.9620 C   0  0  1  0  0  3  0  0  0  0  0  0
  157.1540  214.0460  151.4410 C   0  0  0  0  0  1  0  0  0  0  0  0
  159.6710  214.0410  151.1140 C   0  0  0  0  0  2  0  0  0  0  0  0
  159.7710  213.5560  149.6580 C   0  0  2  0  0  3  0  0  0  0  0  0
  161.1900  213.5990  149.1030 C   0  0  0  0  0  2  0  0  0  0  0  0
  161.9910  211.2490  149.3890 C   0  0  0  0  0  1  0  0  0  0  0  0
  162.5470  212.5310  147.4700 O   0  0  0  0  0  1  0  0  0  0  0  0
  161.5300  212.2980  148.3940 C   0  0  2  0  0  3  0  0  0  0  0  0
  158.7780  214.2540  148.7380 C   0  0  0  0  0  2  0  0  0  0  0  0
  156.9720  212.5980  148.2730 O   0  0  0  0  0  1  0  0  0  0  0  0
  158.5480  213.0760  146.6770 O   0  0  0  0  0  0  0  0  0  0  0  0
  158.1060  213.2720  147.8400 C   0  0  0  0  0  0  0  0  0  0  0  0
  159.8630  210.7540  152.7780 C   0  0  0  0  0  2  0  0  0  0  0  0
  161.1020  209.8780  152.6660 C   0  0  0  0  0  2  0  0  0  0  0  0
  160.7670  208.5460  152.0190 C   0  0  0  0  0  2  0  0  0  0  0  0
  161.1870  207.4330  152.9130 C   0  0  0  0  0  0  0  0  0  0  0  0
  162.0850  206.4770  152.4590 O   0  0  0  0  0  0  0  0  0  0  0  0
  160.7010  207.3380  154.0700 O   0  0  0  0  0  1  0  0  0  0  0  0
  1  5  2  0  0  0  0
  2  3  1  0  0  0  0
  2  6  2  0  0  0  0
  3 10  1  1  0  0  0
  4  1  1  0  0  0  0
  4  7  1  0  0  0  0
  7 11  2  0  0  0  0
  7  6  1  0  0  0  0
  8 13  1  6  0  0  0
  8 12  1  0  0  0  0
  8  1  1  0  0  0  0
  9 25  1  6  0  0  0
  9  2  1  0  0  0  0
  9  3  1  0  0  0  0
 12  9  1  0  0  0  0
 13 14  1  6  0  0  0
 15 13  1  0  0  0  0
 16 21  1  6  0  0  0
 16 15  1  0  0  0  0
 17 16  1  0  0  0  0
 19 20  1  0  0  0  0
 20 17  1  0  0  0  0
 20 18  1  1  0  0  0
 23 24  2  0  0  0  0
 24 22  1  0  0  0  0
 24 21  1  0  0  0  0
 26 25  1  0  0  0  0
 27 26  1  0  0  0  0
 27 28  1  0  0  0  0
 28 30  1  0  0  0  0
 29 28  2  0  0  0  0
M  END
>  <MODEL>
6

>  <REMARK>
 VINA RESULT:      -4.7      2.980      6.777
  Name = 
  11 active torsions:
  status: ('A' for Active; 'I' for Inactive)
    1  A    between atoms: C_1  and  C_4
    2  A    between atoms: C_1  and  C_22
    3  A    between atoms: C_4  and  C_12
    4  A    between atoms: C_7  and  C_23
    5  A    between atoms: C_7  and  C_25
    6  A    between atoms: C_8  and  C_12
    7  A    between atoms: C_8  and  C_30
    8  A    between atoms: C_9  and  C_12
    9  A    between atoms: C_9  and  C_21
   10  A    between atoms: C_10  and  C_15
   11  A    between atoms: C_15  and  C_25
                            x       y       z     vdW  Elec       q    Type
                         _______ _______ _______ _____ _____    ______ ____

>  <TORSDO>
F 11

$$$$
=
 OpenBabel11052422013D

 30 31  0  0  1  0  0  0  0  0999 V2000
  160.9100  209.1850  154.2070 C   0  0  0  0  0  0  0  0  0  0  0  0
  159.6860  211.8190  154.9400 C   0  0  0  0  0  0  0  0  0  0  0  0
  158.3650  212.3480  154.3600 C   0  0  1  0  0  3  0  0  0  0  0  0
  161.9510  210.0150  154.6280 O   0  0  0  0  0  0  0  0  0  0  0  0
  160.4140  208.3480  155.0080 O   0  0  0  0  0  0  0  0  0  0  0  0
  160.5380  211.6120  155.9370 C   0  0  0  0  0  3  0  0  0  0  0  0
  161.8000  210.8940  155.7050 C   0  0  0  0  0  0  0  0  0  0  0  0
  160.2780  209.3740  152.8600 C   0  0  1  0  0  3  0  0  0  0  0  0
  159.2980  211.7150  153.4660 C   0  0  2  0  0  0  0  0  0  0  0  0
  157.2260  211.4570  154.8370 C   0  0  0  0  0  1  0  0  0  0  0  0
  162.7730  211.1010  156.4760 O   0  0  0  0  0  0  0  0  0  0  0  0
  159.0370  210.2790  152.9640 C   0  0  0  0  0  2  0  0  0  0  0  0
  161.2710  209.8120  151.7670 C   0  0  1  0  0  3  0  0  0  0  0  0
  162.6940  209.9380  152.2910 C   0  0  0  0  0  1  0  0  0  0  0  0
  161.2050  208.9530  150.4870 C   0  0  0  0  0  2  0  0  0  0  0  0
  161.8880  207.5750  150.5130 C   0  0  2  0  0  3  0  0  0  0  0  0
  162.3180  207.0870  149.1340 C   0  0  0  0  0  2  0  0  0  0  0  0
  161.3550  204.9960  148.1610 C   0  0  0  0  0  1  0  0  0  0  0  0
  161.0010  207.1170  147.1550 O   0  0  0  0  0  1  0  0  0  0  0  0
  161.1400  206.4820  148.3870 C   0  0  2  0  0  3  0  0  0  0  0  0
  161.0690  206.5290  151.2570 C   0  0  0  0  0  2  0  0  0  0  0  0
  161.2080  205.4630  153.5080 O   0  0  0  0  0  1  0  0  0  0  0  0
  163.1080  205.8290  152.2770 O   0  0  0  0  0  0  0  0  0  0  0  0
  161.8570  205.9340  152.3740 C   0  0  0  0  0  0  0  0  0  0  0  0
  160.0920  212.6760  152.5860 C   0  0  0  0  0  2  0  0  0  0  0  0
  159.3780  212.9600  151.2730 C   0  0  0  0  0  2  0  0  0  0  0  0
  160.1830  213.9200  150.4160 C   0  0  0  0  0  2  0  0  0  0  0  0
  160.4940  213.2860  149.1060 C   0  0  0  0  0  0  0  0  0  0  0  0
  161.5780  212.4280  148.9880 O   0  0  0  0  0  1  0  0  0  0  0  0
  159.7920  213.5540  148.0960 O   0  0  0  0  0  0  0  0  0  0  0  0
  1  4  1  0  0  0  0
  1  5  2  0  0  0  0
  2  6  2  0  0  0  0
  3 10  1  1  0  0  0
  3  2  1  0  0  0  0
  4  7  1  0  0  0  0
  7  6  1  0  0  0  0
  7 11  2  0  0  0  0
  8 13  1  6  0  0  0
  8 12  1  0  0  0  0
  8  1  1  0  0  0  0
  9 25  1  6  0  0  0
  9  3  1  0  0  0  0
  9  2  1  0  0  0  0
 12  9  1  0  0  0  0
 13 14  1  1  0  0  0
 15 16  1  0  0  0  0
 15 13  1  0  0  0  0
 16 17  1  6  0  0  0
 16 21  1  0  0  0  0
 19 20  1  0  0  0  0
 20 18  1  6  0  0  0
 20 17  1  0  0  0  0
 21 24  1  0  0  0  0
 23 24  2  0  0  0  0
 24 22  1  0  0  0  0
 26 25  1  0  0  0  0
 27 26  1  0  0  0  0
 28 27  1  0  0  0  0
 29 28  1  0  0  0  0
 30 28  2  0  0  0  0
M  END
>  <MODEL>
7

>  <REMARK>
 VINA RESULT:      -4.6      1.806      3.039
  Name = 
  11 active torsions:
  status: ('A' for Active; 'I' for Inactive)
    1  A    between atoms: C_1  and  C_4
    2  A    between atoms: C_1  and  C_22
    3  A    between atoms: C_4  and  C_12
    4  A    between atoms: C_7  and  C_23
    5  A    between atoms: C_7  and  C_25
    6  A    between atoms: C_8  and  C_12
    7  A    between atoms: C_8  and  C_30
    8  A    between atoms: C_9  and  C_12
    9  A    between atoms: C_9  and  C_21
   10  A    between atoms: C_10  and  C_15
   11  A    between atoms: C_15  and  C_25
                            x       y       z     vdW  Elec       q    Type
                         _______ _______ _______ _____ _____    ______ ____

>  <TORSDO>
F 11

$$$$
=
 OpenBabel11052422013D

 30 31  0  0  1  0  0  0  0  0999 V2000
  160.9160  206.1520  147.4400 C   0  0  0  0  0  0  0  0  0  0  0  0
  161.5450  203.3720  148.3620 C   0  0  0  0  0  0  0  0  0  0  0  0
  160.7760  202.6350  149.4690 C   0  0  1  0  0  3  0  0  0  0  0  0
  162.2660  205.9270  147.1620 O   0  0  0  0  0  0  0  0  0  0  0  0
  160.0580  206.0190  146.5260 O   0  0  0  0  0  0  0  0  0  0  0  0
  162.1520  203.4270  147.1830 C   0  0  0  0  0  3  0  0  0  0  0  0
  162.7230  204.6910  146.6930 C   0  0  0  0  0  0  0  0  0  0  0  0
  160.4570  206.4120  148.8440 C   0  0  1  0  0  3  0  0  0  0  0  0
  161.1000  204.0230  149.6710 C   0  0  2  0  0  0  0  0  0  0  0  0
  159.3550  202.3710  148.9880 C   0  0  0  0  0  1  0  0  0  0  0  0
  163.6630  204.6560  145.8580 O   0  0  0  0  0  0  0  0  0  0  0  0
  160.0090  205.1030  149.5200 C   0  0  0  0  0  2  0  0  0  0  0  0
  161.4590  207.2270  149.6820 C   0  0  1  0  0  3  0  0  0  0  0  0
  162.6670  207.6740  148.8710 C   0  0  0  0  0  1  0  0  0  0  0  0
  160.8180  208.4030  150.4480 C   0  0  0  0  0  2  0  0  0  0  0  0
  161.5980  208.9980  151.6330 C   0  0  2  0  0  3  0  0  0  0  0  0
  160.7130  209.3520  152.8230 C   0  0  0  0  0  2  0  0  0  0  0  0
  161.5380  209.5650  155.1720 C   0  0  0  0  0  1  0  0  0  0  0  0
  160.8090  211.4520  153.9310 O   0  0  0  0  0  1  0  0  0  0  0  0
  161.4660  210.2300  153.8090 C   0  0  2  0  0  3  0  0  0  0  0  0
  162.4910  210.1600  151.2210 C   0  0  0  0  0  2  0  0  0  0  0  0
  160.8160  211.9170  150.6450 O   0  0  0  0  0  1  0  0  0  0  0  0
  162.1350  210.9900  149.0140 O   0  0  0  0  0  0  0  0  0  0  0  0
  161.8020  211.0320  150.2270 C   0  0  0  0  0  0  0  0  0  0  0  0
  162.2660  204.2730  150.6220 C   0  0  0  0  0  2  0  0  0  0  0  0
  161.9450  203.8250  152.0400 C   0  0  0  0  0  2  0  0  0  0  0  0
  160.8080  204.6460  152.6230 C   0  0  0  0  0  2  0  0  0  0  0  0
  161.3600  205.7630  153.4360 C   0  0  0  0  0  0  0  0  0  0  0  0
  160.5920  206.3390  154.4390 O   0  0  0  0  0  1  0  0  0  0  0  0
  162.5110  206.2090  153.1930 O   0  0  0  0  0  0  0  0  0  0  0  0
  1  8  1  0  0  0  0
  2  3  1  0  0  0  0
  2  9  1  0  0  0  0
  3 10  1  6  0  0  0
  3  9  1  0  0  0  0
  4  1  1  0  0  0  0
  5  1  2  0  0  0  0
  6  2  2  0  0  0  0
  7  4  1  0  0  0  0
  7  6  1  0  0  0  0
  8 12  1  0  0  0  0
  8 13  1  1  0  0  0
  9 25  1  1  0  0  0
 11  7  2  0  0  0  0
 12  9  1  0  0  0  0
 13 14  1  6  0  0  0
 13 15  1  0  0  0  0
 16 15  1  6  0  0  0
 16 17  1  0  0  0  0
 17 20  1  0  0  0  0
 20 19  1  0  0  0  0
 20 18  1  1  0  0  0
 21 16  1  0  0  0  0
 23 24  2  0  0  0  0
 24 22  1  0  0  0  0
 24 21  1  0  0  0  0
 25 26  1  0  0  0  0
 26 27  1  0  0  0  0
 27 28  1  0  0  0  0
 28 29  1  0  0  0  0
 30 28  2  0  0  0  0
M  END
>  <MODEL>
8

>  <REMARK>
 VINA RESULT:      -4.5      1.864      7.567
  Name = 
  11 active torsions:
  status: ('A' for Active; 'I' for Inactive)
    1  A    between atoms: C_1  and  C_4
    2  A    between atoms: C_1  and  C_22
    3  A    between atoms: C_4  and  C_12
    4  A    between atoms: C_7  and  C_23
    5  A    between atoms: C_7  and  C_25
    6  A    between atoms: C_8  and  C_12
    7  A    between atoms: C_8  and  C_30
    8  A    between atoms: C_9  and  C_12
    9  A    between atoms: C_9  and  C_21
   10  A    between atoms: C_10  and  C_15
   11  A    between atoms: C_15  and  C_25
                            x       y       z     vdW  Elec       q    Type
                         _______ _______ _______ _____ _____    ______ ____

>  <TORSDO>
F 11

$$$$
=
 OpenBabel11052422013D

 30 31  0  0  1  0  0  0  0  0999 V2000
  162.3300  209.4070  151.1060 C   0  0  0  0  0  0  0  0  0  0  0  0
  160.7010  207.6650  152.9200 C   0  0  0  0  0  0  0  0  0  0  0  0
  161.0550  206.2120  153.2670 C   0  0  1  0  0  3  0  0  0  0  0  0
  161.0210  209.8910  151.0670 O   0  0  0  0  0  0  0  0  0  0  0  0
  163.1810  209.9650  151.8490 O   0  0  0  0  0  0  0  0  0  0  0  0
  160.2740  208.8840  153.2320 C   0  0  0  0  0  3  0  0  0  0  0  0
  160.2220  209.9420  152.2140 C   0  0  0  0  0  0  0  0  0  0  0  0
  162.7020  208.1450  150.3860 C   0  0  1  0  0  3  0  0  0  0  0  0
  161.2020  206.6430  151.9020 C   0  0  2  0  0  0  0  0  0  0  0  0
  162.3430  206.2000  154.0800 C   0  0  0  0  0  1  0  0  0  0  0  0
  159.4180  210.8980  152.3640 O   0  0  0  0  0  0  0  0  0  0  0  0
  162.6060  206.9320  151.3290 C   0  0  0  0  0  2  0  0  0  0  0  0
  161.9560  207.9510  149.0530 C   0  0  1  0  0  3  0  0  0  0  0  0
  161.8440  209.2420  148.2550 C   0  0  0  0  0  1  0  0  0  0  0  0
  162.5070  206.7930  148.1940 C   0  0  0  0  0  2  0  0  0  0  0  0
  161.5110  205.7350  147.6920 C   0  0  2  0  0  3  0  0  0  0  0  0
  162.1420  204.3630  147.4810 C   0  0  0  0  0  2  0  0  0  0  0  0
  161.2000  202.1840  148.2620 C   0  0  0  0  0  1  0  0  0  0  0  0
  161.2100  202.7880  145.9660 O   0  0  0  0  0  1  0  0  0  0  0  0
  161.0720  203.3090  147.2510 C   0  0  2  0  0  3  0  0  0  0  0  0
  160.7310  206.1970  146.4690 C   0  0  0  0  0  2  0  0  0  0  0  0
  162.8480  205.8280  145.2030 O   0  0  0  0  0  1  0  0  0  0  0  0
  160.8170  205.5560  144.1730 O   0  0  0  0  0  0  0  0  0  0  0  0
  161.4600  205.8530  145.2150 C   0  0  0  0  0  0  0  0  0  0  0  0
  160.0990  206.1690  150.9610 C   0  0  0  0  0  2  0  0  0  0  0  0
  160.2080  204.6800  150.6670 C   0  0  0  0  0  2  0  0  0  0  0  0
  161.5690  204.1460  151.0750 C   0  0  0  0  0  2  0  0  0  0  0  0
  161.4020  202.8970  151.8670 C   0  0  0  0  0  0  0  0  0  0  0  0
  162.2660  201.8280  151.6720 O   0  0  0  0  0  0  0  0  0  0  0  0
  160.4550  202.7970  152.6900 O   0  0  0  0  0  1  0  0  0  0  0  0
  1  5  2  0  0  0  0
  2  6  2  0  0  0  0
  2  3  1  0  0  0  0
  3 10  1  1  0  0  0
  4  1  1  0  0  0  0
  4  7  1  0  0  0  0
  7 11  2  0  0  0  0
  7  6  1  0  0  0  0
  8 13  1  6  0  0  0
  8  1  1  0  0  0  0
  8 12  1  0  0  0  0
  9 25  1  6  0  0  0
  9  2  1  0  0  0  0
  9  3  1  0  0  0  0
 12  9  1  0  0  0  0
 13 14  1  6  0  0  0
 15 13  1  0  0  0  0
 16 21  1  6  0  0  0
 16 15  1  0  0  0  0
 17 16  1  0  0  0  0
 19 20  1  0  0  0  0
 20 17  1  0  0  0  0
 20 18  1  1  0  0  0
 22 24  1  0  0  0  0
 23 24  2  0  0  0  0
 24 21  1  0  0  0  0
 26 25  1  0  0  0  0
 26 27  1  0  0  0  0
 27 28  1  0  0  0  0
 28 30  1  0  0  0  0
 29 28  2  0  0  0  0
M  END
>  <MODEL>
9

>  <REMARK>
 VINA RESULT:      -4.3      2.440      5.245
  Name = 
  11 active torsions:
  status: ('A' for Active; 'I' for Inactive)
    1  A    between atoms: C_1  and  C_4
    2  A    between atoms: C_1  and  C_22
    3  A    between atoms: C_4  and  C_12
    4  A    between atoms: C_7  and  C_23
    5  A    between atoms: C_7  and  C_25
    6  A    between atoms: C_8  and  C_12
    7  A    between atoms: C_8  and  C_30
    8  A    between atoms: C_9  and  C_12
    9  A    between atoms: C_9  and  C_21
   10  A    between atoms: C_10  and  C_15
   11  A    between atoms: C_15  and  C_25
                            x       y       z     vdW  Elec       q    Type
                         _______ _______ _______ _____ _____    ______ ____

>  <TORSDO>
F 11

$$$$
