=
 OpenBabel11062410323D

 43 47  0  0  1  0  0  0  0  0999 V2000
  160.5320  212.7530  147.5220 C   0  0  0  0  0  2  0  0  0  0  0  0
  160.5560  213.8880  144.8730 N   0  0  0  0  0  2  0  0  0  0  0  0
  161.7920  213.1800  146.9060 N   0  0  0  0  0  0  0  0  0  0  0  0
  160.7760  211.9650  148.8110 C   0  0  0  0  0  2  0  0  0  0  0  0
  161.7860  213.7570  145.5930 C   0  0  0  0  0  0  0  0  0  0  0  0
  163.0570  213.0050  147.6200 C   0  0  0  0  0  2  0  0  0  0  0  0
  162.8680  214.1360  145.0650 O   0  0  0  0  0  0  0  0  0  0  0  0
  163.2080  211.5630  148.1120 C   0  0  0  0  0  2  0  0  0  0  0  0
  161.8780  210.9370  148.5680 C   0  0  1  0  0  3  0  0  0  0  0  0
  162.0640  210.0570  149.7230 N   0  0  0  0  0  0  0  0  0  0  0  0
  160.6370  203.8150  150.7980 C   0  0  2  0  0  3  0  0  0  0  0  0
  161.8080  208.6350  149.6770 C   0  0  0  0  0  0  0  0  0  0  0  0
  161.2510  205.8800  149.6060 C   0  0  0  0  0  0  0  0  0  0  0  0
  161.5580  204.2600  151.9340 C   0  0  0  0  0  2  0  0  0  0  0  0
  160.7740  202.3240  150.5740 C   0  0  0  0  0  1  0  0  0  0  0  0
  161.5410  206.5060  150.8230 C   0  0  0  0  0  0  0  0  0  0  0  0
  160.9480  204.5150  149.5920 O   0  0  0  0  0  0  0  0  0  0  0  0
  161.5780  205.7200  152.0160 N   0  0  0  0  0  2  0  0  0  0  0  0
  161.8030  207.8770  150.8630 C   0  0  0  0  0  3  0  0  0  0  0  0
  161.5450  207.9850  148.4560 C   0  0  0  0  0  3  0  0  0  0  0  0
  161.2680  206.6170  148.4190 C   0  0  0  0  0  3  0  0  0  0  0  0
  162.4340  210.7140  150.9740 C   0  0  0  0  0  2  0  0  0  0  0  0
  161.4180  210.8270  154.6040 C   0  0  0  0  0  2  0  0  0  0  0  0
  159.9940  210.4710  154.5250 N   0  0  0  0  0  0  0  0  0  0  0  0
  160.3370  211.3250  152.1640 C   0  0  0  0  0  2  0  0  0  0  0  0
  162.2280  210.2530  153.4330 C   0  0  0  0  0  2  0  0  0  0  0  0
  161.4830  210.3300  152.0970 C   0  0  0  0  0  3  0  0  0  0  0  0
  159.3550  210.9160  153.2700 C   0  0  0  0  0  2  0  0  0  0  0  0
  159.8850  208.8180  155.9470 C   0  0  0  0  0  1  0  0  0  0  0  0
  159.8880  209.1180  154.5840 O   0  0  0  0  0  0  0  0  0  0  0  0
  160.4940  214.3870  143.5070 C   0  0  0  0  0  2  0  0  0  0  0  0
  159.2510  213.3490  141.6440 C   0  0  0  0  0  1  0  0  0  0  0  0
  160.4870  213.2360  142.5150 C   0  0  1  0  0  3  0  0  0  0  0  0
  161.6830  213.2950  141.6830 N   0  0  0  0  0  2  0  0  0  0  0  0
  161.1640  211.1370  140.5740 N   0  0  0  0  0  2  0  0  0  0  0  0
  162.0070  212.2860  140.7280 C   0  0  0  0  0  0  0  0  0  0  0  0
  163.0370  212.4200  140.0190 O   0  0  0  0  0  0  0  0  0  0  0  0
  161.2940  210.1590  139.4990 C   0  0  0  0  0  3  0  0  0  0  0  0
  159.9450  208.6640  137.9560 C   0  0  0  0  0  2  0  0  0  0  0  0
  161.6650  207.6890  139.0190 C   0  0  0  0  0  2  0  0  0  0  0  0
  161.2460  208.1670  137.7640 O   0  0  0  0  0  0  0  0  0  0  0  0
  161.8580  208.8340  140.0280 C   0  0  0  0  0  2  0  0  0  0  0  0
  159.9760  209.9910  138.7280 C   0  0  0  0  0  2  0  0  0  0  0  0
  1  4  1  0  0  0  0
  2  5  1  0  0  0  0
  3  1  1  0  0  0  0
  3  6  1  0  0  0  0
  5  3  1  0  0  0  0
  6  8  1  0  0  0  0
  7  5  2  0  0  0  0
  8  9  1  0  0  0  0
  9  4  1  0  0  0  0
  9 10  1  1  0  0  0
 10 22  1  0  0  0  0
 11 15  1  6  0  0  0
 11 14  1  0  0  0  0
 12 10  1  0  0  0  0
 12 19  1  0  0  0  0
 13 16  1  0  0  0  0
 14 18  1  0  0  0  0
 16 19  2  0  0  0  0
 16 18  1  0  0  0  0
 17 13  1  0  0  0  0
 17 11  1  0  0  0  0
 20 12  2  0  0  0  0
 21 20  1  0  0  0  0
 21 13  2  0  0  0  0
 22 27  1  0  0  0  0
 24 30  1  0  0  0  0
 24 23  1  0  0  0  0
 25 28  1  0  0  0  0
 26 23  1  0  0  0  0
 27 25  1  0  0  0  0
 27 26  1  0  0  0  0
 28 24  1  0  0  0  0
 30 29  1  0  0  0  0
 31  2  1  0  0  0  0
 33 32  1  6  0  0  0
 33 31  1  0  0  0  0
 34 33  1  0  0  0  0
 35 36  1  0  0  0  0
 36 34  1  0  0  0  0
 37 36  2  0  0  0  0
 38 42  1  0  0  0  0
 38 35  1  0  0  0  0
 39 43  1  0  0  0  0
 40 42  1  0  0  0  0
 41 39  1  0  0  0  0
 41 40  1  0  0  0  0
 43 38  1  0  0  0  0
M  END
>  <MODEL>
1

>  <REMARK>
 VINA RESULT:      -7.4      0.000      0.000
  Name = 
  9 active torsions:
  status: ('A' for Active; 'I' for Inactive)
    1  A    between atoms: C_1  and  N_34
    2  A    between atoms: C_1  and  C_35
    3  A    between atoms: N_3  and  C_42
    4  A    between atoms: N_4  and  C_15
    5  A    between atoms: C_8  and  N_34
    6  A    between atoms: C_11  and  N_14
    7  A    between atoms: C_15  and  C_42
    8  A    between atoms: N_19  and  O_37
    9  A    between atoms: N_34  and  C_38
                            x       y       z     vdW  Elec       q    Type
                         _______ _______ _______ _____ _____    ______ ____

>  <TORSDO>
F 9

$$$$
=
 OpenBabel11062410323D

 43 47  0  0  1  0  0  0  0  0999 V2000
  161.7090  206.6690  150.2230 C   0  0  0  0  0  2  0  0  0  0  0  0
  160.6330  204.0050  149.9990 N   0  0  0  0  0  2  0  0  0  0  0  0
  161.4480  205.8670  151.4230 N   0  0  0  0  0  0  0  0  0  0  0  0
  162.0420  208.1190  150.5790 C   0  0  0  0  0  2  0  0  0  0  0  0
  160.9280  204.5380  151.2940 C   0  0  0  0  0  0  0  0  0  0  0  0
  161.7040  206.4250  152.7510 C   0  0  0  0  0  2  0  0  0  0  0  0
  160.7130  203.8410  152.3240 O   0  0  0  0  0  0  0  0  0  0  0  0
  161.0250  207.7890  152.9080 C   0  0  0  0  0  2  0  0  0  0  0  0
  161.0400  208.6240  151.6160 C   0  0  1  0  0  3  0  0  0  0  0  0
  161.2190  210.0490  151.8970 N   0  0  0  0  0  0  0  0  0  0  0  0
  157.0620  212.6440  156.1560 C   0  0  2  0  0  3  0  0  0  0  0  0
  160.5370  210.7290  152.9750 C   0  0  0  0  0  0  0  0  0  0  0  0
  159.1840  211.9980  155.0880 C   0  0  0  0  0  0  0  0  0  0  0  0
  156.5150  212.9490  154.7610 C   0  0  0  0  0  2  0  0  0  0  0  0
  156.5910  213.6950  157.1390 C   0  0  0  0  0  1  0  0  0  0  0  0
  158.5040  211.6900  153.9050 C   0  0  0  0  0  0  0  0  0  0  0  0
  158.4900  212.6030  156.1400 O   0  0  0  0  0  0  0  0  0  0  0  0
  157.1290  212.0570  153.7790 N   0  0  0  0  0  2  0  0  0  0  0  0
  159.1700  211.0460  152.8590 C   0  0  0  0  0  3  0  0  0  0  0  0
  161.2150  211.0730  154.1590 C   0  0  0  0  0  3  0  0  0  0  0  0
  160.5440  211.7040  155.2100 C   0  0  0  0  0  3  0  0  0  0  0  0
  162.0620  210.7850  150.9570 C   0  0  0  0  0  2  0  0  0  0  0  0
  160.9340  213.8910  149.1410 C   0  0  0  0  0  2  0  0  0  0  0  0
  160.4090  213.3290  147.8890 N   0  0  0  0  0  0  0  0  0  0  0  0
  161.9710  211.4500  148.5620 C   0  0  0  0  0  2  0  0  0  0  0  0
  160.8630  212.8920  150.3030 C   0  0  0  0  0  2  0  0  0  0  0  0
  161.2230  211.4630  149.8840 C   0  0  0  0  0  3  0  0  0  0  0  0
  161.1090  212.0980  147.4690 C   0  0  0  0  0  2  0  0  0  0  0  0
  158.6170  212.7280  146.7970 C   0  0  0  0  0  1  0  0  0  0  0  0
  159.1010  213.0180  148.0740 O   0  0  0  0  0  0  0  0  0  0  0  0
  160.0250  202.6960  149.8060 C   0  0  0  0  0  2  0  0  0  0  0  0
  161.0620  200.6210  150.6490 C   0  0  0  0  0  1  0  0  0  0  0  0
  161.0880  201.6460  149.5310 C   0  0  1  0  0  3  0  0  0  0  0  0
  160.8170  200.9920  148.2570 N   0  0  0  0  0  2  0  0  0  0  0  0
  161.3000  203.0520  146.9610 N   0  0  0  0  0  2  0  0  0  0  0  0
  160.9340  201.6670  147.0050 C   0  0  0  0  0  0  0  0  0  0  0  0
  160.7190  201.0290  145.9420 O   0  0  0  0  0  0  0  0  0  0  0  0
  161.6400  203.7750  145.7400 C   0  0  0  0  0  3  0  0  0  0  0  0
  162.8230  205.8490  144.8850 C   0  0  0  0  0  2  0  0  0  0  0  0
  160.7670  205.4760  144.0640 C   0  0  0  0  0  2  0  0  0  0  0  0
  162.1340  205.4240  143.7360 O   0  0  0  0  0  0  0  0  0  0  0  0
  160.3960  204.4240  145.1210 C   0  0  0  0  0  2  0  0  0  0  0  0
  162.7870  204.7680  145.9740 C   0  0  0  0  0  2  0  0  0  0  0  0
  1  4  1  0  0  0  0
  1  3  1  0  0  0  0
  2  5  1  0  0  0  0
  3  6  1  0  0  0  0
  4  9  1  0  0  0  0
  5  3  1  0  0  0  0
  5  7  2  0  0  0  0
  6  8  1  0  0  0  0
  9 10  1  1  0  0  0
  9  8  1  0  0  0  0
 10 12  1  0  0  0  0
 11 15  1  1  0  0  0
 12 20  1  0  0  0  0
 13 21  1  0  0  0  0
 13 17  1  0  0  0  0
 14 11  1  0  0  0  0
 16 13  2  0  0  0  0
 17 11  1  0  0  0  0
 18 16  1  0  0  0  0
 18 14  1  0  0  0  0
 19 12  2  0  0  0  0
 19 16  1  0  0  0  0
 20 21  2  0  0  0  0
 22 10  1  0  0  0  0
 23 26  1  0  0  0  0
 24 30  1  0  0  0  0
 24 23  1  0  0  0  0
 25 27  1  0  0  0  0
 27 26  1  0  0  0  0
 27 22  1  0  0  0  0
 28 24  1  0  0  0  0
 28 25  1  0  0  0  0
 29 30  1  0  0  0  0
 31  2  1  0  0  0  0
 33 31  1  0  0  0  0
 33 32  1  1  0  0  0
 34 33  1  0  0  0  0
 35 36  1  0  0  0  0
 36 34  1  0  0  0  0
 37 36  2  0  0  0  0
 38 43  1  0  0  0  0
 38 35  1  0  0  0  0
 39 43  1  0  0  0  0
 40 42  1  0  0  0  0
 41 40  1  0  0  0  0
 41 39  1  0  0  0  0
 42 38  1  0  0  0  0
M  END
>  <MODEL>
2

>  <REMARK>
 VINA RESULT:      -7.3      3.860      8.971
  Name = 
  9 active torsions:
  status: ('A' for Active; 'I' for Inactive)
    1  A    between atoms: C_1  and  N_34
    2  A    between atoms: C_1  and  C_35
    3  A    between atoms: N_3  and  C_42
    4  A    between atoms: N_4  and  C_15
    5  A    between atoms: C_8  and  N_34
    6  A    between atoms: C_11  and  N_14
    7  A    between atoms: C_15  and  C_42
    8  A    between atoms: N_19  and  O_37
    9  A    between atoms: N_34  and  C_38
                            x       y       z     vdW  Elec       q    Type
                         _______ _______ _______ _____ _____    ______ ____

>  <TORSDO>
F 9

$$$$
=
 OpenBabel11062410323D

 43 47  0  0  1  0  0  0  0  0999 V2000
  160.7310  212.9380  148.2850 C   0  0  0  0  0  2  0  0  0  0  0  0
  160.4050  213.9290  145.5980 N   0  0  0  0  0  2  0  0  0  0  0  0
  161.8600  212.9390  147.3480 N   0  0  0  0  0  0  0  0  0  0  0  0
  161.0580  212.1520  149.5570 C   0  0  0  0  0  2  0  0  0  0  0  0
  161.6850  213.4490  146.0200 C   0  0  0  0  0  0  0  0  0  0  0  0
  163.1590  212.4060  147.7610 C   0  0  0  0  0  2  0  0  0  0  0  0
  162.6580  213.4620  145.2160 O   0  0  0  0  0  0  0  0  0  0  0  0
  163.0080  211.0030  148.3550 C   0  0  0  0  0  2  0  0  0  0  0  0
  161.7170  210.8290  149.1740 C   0  0  1  0  0  3  0  0  0  0  0  0
  161.9290  209.9700  150.3390 N   0  0  0  0  0  0  0  0  0  0  0  0
  161.3270  203.6070  149.1930 C   0  0  2  0  0  3  0  0  0  0  0  0
  161.6420  208.5530  150.3350 C   0  0  0  0  0  0  0  0  0  0  0  0
  161.1440  205.7860  150.3260 C   0  0  0  0  0  0  0  0  0  0  0  0
  161.0190  204.3250  147.8780 C   0  0  0  0  0  2  0  0  0  0  0  0
  160.6130  202.2740  149.2350 C   0  0  0  0  0  1  0  0  0  0  0  0
  161.4820  206.4420  149.1370 C   0  0  0  0  0  0  0  0  0  0  0  0
  160.9280  204.4040  150.3090 O   0  0  0  0  0  0  0  0  0  0  0  0
  161.5390  205.6910  147.9230 N   0  0  0  0  0  2  0  0  0  0  0  0
  161.7440  207.8130  149.1420 C   0  0  0  0  0  3  0  0  0  0  0  0
  161.2700  207.8850  151.5170 C   0  0  0  0  0  3  0  0  0  0  0  0
  161.0230  206.5100  151.5140 C   0  0  0  0  0  3  0  0  0  0  0  0
  162.3610  210.6460  151.5610 C   0  0  0  0  0  2  0  0  0  0  0  0
  161.3550  211.0500  155.1720 C   0  0  0  0  0  2  0  0  0  0  0  0
  159.9400  210.6570  155.1320 N   0  0  0  0  0  0  0  0  0  0  0  0
  160.2550  211.3110  152.7040 C   0  0  0  0  0  2  0  0  0  0  0  0
  162.1740  210.3960  154.0520 C   0  0  0  0  0  2  0  0  0  0  0  0
  161.4220  210.3390  152.7180 C   0  0  0  0  0  3  0  0  0  0  0  0
  159.2860  210.9780  153.8470 C   0  0  0  0  0  2  0  0  0  0  0  0
  160.0620  209.1190  156.6770 C   0  0  0  0  0  1  0  0  0  0  0  0
  159.8640  209.3130  155.3090 O   0  0  0  0  0  0  0  0  0  0  0  0
  160.1420  214.3810  144.2390 C   0  0  0  0  0  2  0  0  0  0  0  0
  158.5100  214.2000  142.3970 C   0  0  0  0  0  1  0  0  0  0  0  0
  159.1600  213.4520  143.5460 C   0  0  1  0  0  3  0  0  0  0  0  0
  159.8640  212.2810  143.0360 N   0  0  0  0  0  2  0  0  0  0  0  0
  160.7600  213.5220  141.0830 N   0  0  0  0  0  2  0  0  0  0  0  0
  160.6550  212.3150  141.8500 C   0  0  0  0  0  0  0  0  0  0  0  0
  161.2640  211.2760  141.4890 O   0  0  0  0  0  0  0  0  0  0  0  0
  161.6940  213.7170  139.9790 C   0  0  0  0  0  3  0  0  0  0  0  0
  162.6410  212.5910  137.9130 C   0  0  0  0  0  2  0  0  0  0  0  0
  164.1380  213.5090  139.3110 C   0  0  0  0  0  2  0  0  0  0  0  0
  163.5130  213.6840  138.0630 O   0  0  0  0  0  0  0  0  0  0  0  0
  163.1450  213.6740  140.4730 C   0  0  0  0  0  2  0  0  0  0  0  0
  161.4170  212.7400  138.8280 C   0  0  0  0  0  2  0  0  0  0  0  0
  1  4  1  0  0  0  0
  2  5  1  0  0  0  0
  3  6  1  0  0  0  0
  3  1  1  0  0  0  0
  5  3  1  0  0  0  0
  6  8  1  0  0  0  0
  7  5  2  0  0  0  0
  8  9  1  0  0  0  0
  9  4  1  0  0  0  0
  9 10  1  1  0  0  0
 10 22  1  0  0  0  0
 11 15  1  6  0  0  0
 11 17  1  0  0  0  0
 12 10  1  0  0  0  0
 12 20  1  0  0  0  0
 13 21  1  0  0  0  0
 14 18  1  0  0  0  0
 14 11  1  0  0  0  0
 16 19  1  0  0  0  0
 16 13  2  0  0  0  0
 17 13  1  0  0  0  0
 18 16  1  0  0  0  0
 19 12  2  0  0  0  0
 21 20  2  0  0  0  0
 22 27  1  0  0  0  0
 24 23  1  0  0  0  0
 24 30  1  0  0  0  0
 25 27  1  0  0  0  0
 25 28  1  0  0  0  0
 26 23  1  0  0  0  0
 27 26  1  0  0  0  0
 28 24  1  0  0  0  0
 30 29  1  0  0  0  0
 31  2  1  0  0  0  0
 33 32  1  6  0  0  0
 33 31  1  0  0  0  0
 34 33  1  0  0  0  0
 35 36  1  0  0  0  0
 36 34  1  0  0  0  0
 37 36  2  0  0  0  0
 38 42  1  0  0  0  0
 38 35  1  0  0  0  0
 39 41  1  0  0  0  0
 39 43  1  0  0  0  0
 40 42  1  0  0  0  0
 41 40  1  0  0  0  0
 43 38  1  0  0  0  0
M  END
>  <MODEL>
3

>  <REMARK>
 VINA RESULT:      -6.2      1.936      2.397
  Name = 
  9 active torsions:
  status: ('A' for Active; 'I' for Inactive)
    1  A    between atoms: C_1  and  N_34
    2  A    between atoms: C_1  and  C_35
    3  A    between atoms: N_3  and  C_42
    4  A    between atoms: N_4  and  C_15
    5  A    between atoms: C_8  and  N_34
    6  A    between atoms: C_11  and  N_14
    7  A    between atoms: C_15  and  C_42
    8  A    between atoms: N_19  and  O_37
    9  A    between atoms: N_34  and  C_38
                            x       y       z     vdW  Elec       q    Type
                         _______ _______ _______ _____ _____    ______ ____

>  <TORSDO>
F 9

$$$$
=
 OpenBabel11062410323D

 43 47  0  0  1  0  0  0  0  0999 V2000
  161.9240  209.4970  152.5220 C   0  0  0  0  0  2  0  0  0  0  0  0
  162.1180  206.6250  152.6540 N   0  0  0  0  0  2  0  0  0  0  0  0
  161.2840  208.7570  153.6130 N   0  0  0  0  0  0  0  0  0  0  0  0
  161.4940  210.9650  152.5120 C   0  0  0  0  0  2  0  0  0  0  0  0
  161.4020  207.3290  153.6740 C   0  0  0  0  0  0  0  0  0  0  0  0
  160.5130  209.4690  154.6330 C   0  0  0  0  0  2  0  0  0  0  0  0
  160.8620  206.6900  154.6190 O   0  0  0  0  0  0  0  0  0  0  0  0
  159.4770  210.3920  153.9850 C   0  0  0  0  0  2  0  0  0  0  0  0
  159.9780  211.0450  152.6850 C   0  0  1  0  0  3  0  0  0  0  0  0
  159.4870  212.4160  152.5460 N   0  0  0  0  0  0  0  0  0  0  0  0
  154.6580  214.2710  156.4720 C   0  0  2  0  0  3  0  0  0  0  0  0
  158.2670  212.8810  153.1700 C   0  0  0  0  0  0  0  0  0  0  0  0
  155.9290  213.8290  154.4100 C   0  0  0  0  0  0  0  0  0  0  0  0
  155.1900  212.9450  157.0190 C   0  0  0  0  0  2  0  0  0  0  0  0
  153.2070  214.4470  156.8620 C   0  0  0  0  0  1  0  0  0  0  0  0
  156.8270  213.0290  155.1240 C   0  0  0  0  0  0  0  0  0  0  0  0
  154.7850  214.3170  155.0500 O   0  0  0  0  0  0  0  0  0  0  0  0
  156.5210  212.6790  156.4760 N   0  0  0  0  0  2  0  0  0  0  0  0
  157.9960  212.5690  154.5150 C   0  0  0  0  0  3  0  0  0  0  0  0
  157.3400  213.6610  152.4540 C   0  0  0  0  0  3  0  0  0  0  0  0
  156.1770  214.1330  153.0690 C   0  0  0  0  0  3  0  0  0  0  0  0
  160.2500  213.2810  151.6500 C   0  0  0  0  0  2  0  0  0  0  0  0
  160.0410  214.4530  148.0720 C   0  0  0  0  0  2  0  0  0  0  0  0
  159.8970  213.1810  147.3500 N   0  0  0  0  0  0  0  0  0  0  0  0
  160.9880  212.3300  149.4730 C   0  0  0  0  0  2  0  0  0  0  0  0
  159.5140  214.3700  149.5110 C   0  0  0  0  0  2  0  0  0  0  0  0
  159.8610  213.0460  150.1980 C   0  0  0  0  0  3  0  0  0  0  0  0
  160.5820  212.0560  148.0190 C   0  0  0  0  0  2  0  0  0  0  0  0
  158.1140  213.5410  146.1420 C   0  0  0  0  0  1  0  0  0  0  0  0
  158.5760  212.8760  147.2800 O   0  0  0  0  0  0  0  0  0  0  0  0
  162.2020  205.1720  152.6130 C   0  0  0  0  0  2  0  0  0  0  0  0
  161.4160  203.2470  151.2830 C   0  0  0  0  0  1  0  0  0  0  0  0
  161.9600  204.6610  151.2020 C   0  0  1  0  0  3  0  0  0  0  0  0
  160.9970  205.5210  150.5250 N   0  0  0  0  0  2  0  0  0  0  0  0
  161.9130  204.9850  148.2830 N   0  0  0  0  0  2  0  0  0  0  0  0
  160.9610  205.6680  149.1070 C   0  0  0  0  0  0  0  0  0  0  0  0
  160.0780  206.4000  148.5880 O   0  0  0  0  0  0  0  0  0  0  0  0
  161.8390  204.9080  146.8280 C   0  0  0  0  0  3  0  0  0  0  0  0
  160.5860  205.8200  144.8190 C   0  0  0  0  0  2  0  0  0  0  0  0
  160.8300  203.5900  144.9010 C   0  0  0  0  0  2  0  0  0  0  0  0
  161.2920  204.7470  144.2480 O   0  0  0  0  0  0  0  0  0  0  0  0
  161.2580  203.5620  146.3780 C   0  0  0  0  0  2  0  0  0  0  0  0
  161.0960  206.1150  146.2370 C   0  0  0  0  0  2  0  0  0  0  0  0
  1  3  1  0  0  0  0
  2  5  1  0  0  0  0
  3  5  1  0  0  0  0
  3  6  1  0  0  0  0
  4  1  1  0  0  0  0
  4  9  1  0  0  0  0
  5  7  2  0  0  0  0
  8  6  1  0  0  0  0
  9 10  1  1  0  0  0
  9  8  1  0  0  0  0
 10 12  1  0  0  0  0
 11 15  1  6  0  0  0
 11 14  1  0  0  0  0
 12 19  1  0  0  0  0
 13 17  1  0  0  0  0
 13 16  1  0  0  0  0
 16 18  1  0  0  0  0
 17 11  1  0  0  0  0
 18 14  1  0  0  0  0
 19 16  2  0  0  0  0
 20 21  1  0  0  0  0
 20 12  2  0  0  0  0
 21 13  2  0  0  0  0
 22 10  1  0  0  0  0
 23 26  1  0  0  0  0
 24 28  1  0  0  0  0
 24 23  1  0  0  0  0
 25 27  1  0  0  0  0
 26 27  1  0  0  0  0
 27 22  1  0  0  0  0
 28 25  1  0  0  0  0
 29 30  1  0  0  0  0
 30 24  1  0  0  0  0
 31  2  1  0  0  0  0
 33 32  1  1  0  0  0
 33 31  1  0  0  0  0
 34 33  1  0  0  0  0
 35 36  1  0  0  0  0
 36 34  1  0  0  0  0
 37 36  2  0  0  0  0
 38 35  1  0  0  0  0
 39 43  1  0  0  0  0
 40 42  1  0  0  0  0
 41 39  1  0  0  0  0
 41 40  1  0  0  0  0
 42 38  1  0  0  0  0
 43 38  1  0  0  0  0
M  END
>  <MODEL>
4

>  <REMARK>
 VINA RESULT:      -6.0      3.994      9.299
  Name = 
  9 active torsions:
  status: ('A' for Active; 'I' for Inactive)
    1  A    between atoms: C_1  and  N_34
    2  A    between atoms: C_1  and  C_35
    3  A    between atoms: N_3  and  C_42
    4  A    between atoms: N_4  and  C_15
    5  A    between atoms: C_8  and  N_34
    6  A    between atoms: C_11  and  N_14
    7  A    between atoms: C_15  and  C_42
    8  A    between atoms: N_19  and  O_37
    9  A    between atoms: N_34  and  C_38
                            x       y       z     vdW  Elec       q    Type
                         _______ _______ _______ _____ _____    ______ ____

>  <TORSDO>
F 9

$$$$
=
 OpenBabel11062410323D

 43 47  0  0  1  0  0  0  0  0999 V2000
  159.3040  210.4480  153.4930 C   0  0  0  0  0  2  0  0  0  0  0  0
  158.6890  211.9260  155.8900 N   0  0  0  0  0  2  0  0  0  0  0  0
  160.2690  210.5170  154.5940 N   0  0  0  0  0  0  0  0  0  0  0  0
  159.9250  209.8280  152.2400 C   0  0  0  0  0  2  0  0  0  0  0  0
  159.9430  211.2430  155.7860 C   0  0  0  0  0  0  0  0  0  0  0  0
  161.5710  209.8590  154.4740 C   0  0  0  0  0  2  0  0  0  0  0  0
  160.7680  211.2940  156.7410 O   0  0  0  0  0  0  0  0  0  0  0  0
  162.2700  210.2700  153.1740 C   0  0  0  0  0  2  0  0  0  0  0  0
  161.2960  210.4550  151.9970 C   0  0  1  0  0  3  0  0  0  0  0  0
  161.8850  210.0030  150.7350 N   0  0  0  0  0  0  0  0  0  0  0  0
  160.7080  203.7030  149.6930 C   0  0  2  0  0  3  0  0  0  0  0  0
  161.7380  208.6530  150.2380 C   0  0  0  0  0  0  0  0  0  0  0  0
  161.3930  206.0320  149.2820 C   0  0  0  0  0  0  0  0  0  0  0  0
  161.3670  203.8090  151.0690 C   0  0  0  0  0  2  0  0  0  0  0  0
  160.9860  202.3440  149.0880 C   0  0  0  0  0  1  0  0  0  0  0  0
  161.4060  206.2800  150.6590 C   0  0  0  0  0  0  0  0  0  0  0  0
  161.1910  204.7270  148.8220 O   0  0  0  0  0  0  0  0  0  0  0  0
  161.2730  205.1820  151.5620 N   0  0  0  0  0  2  0  0  0  0  0  0
  161.5630  207.5830  151.1360 C   0  0  0  0  0  3  0  0  0  0  0  0
  161.7540  208.3840  148.8570 C   0  0  0  0  0  3  0  0  0  0  0  0
  161.5830  207.0820  148.3800 C   0  0  0  0  0  3  0  0  0  0  0  0
  162.7240  210.9740  150.0380 C   0  0  0  0  0  2  0  0  0  0  0  0
  160.8250  213.8630  148.5330 C   0  0  0  0  0  2  0  0  0  0  0  0
  160.9540  213.5870  147.0950 N   0  0  0  0  0  0  0  0  0  0  0  0
  162.9640  212.2980  147.9450 C   0  0  0  0  0  2  0  0  0  0  0  0
  160.9170  212.5880  149.3820 C   0  0  0  0  0  2  0  0  0  0  0  0
  161.9780  211.6080  148.8730 C   0  0  0  0  0  3  0  0  0  0  0  0
  162.2160  212.9030  146.7490 C   0  0  0  0  0  2  0  0  0  0  0  0
  159.6800  213.1100  145.3880 C   0  0  0  0  0  1  0  0  0  0  0  0
  159.9300  212.7780  146.7210 O   0  0  0  0  0  0  0  0  0  0  0  0
  158.3340  212.7480  157.0370 C   0  0  0  0  0  2  0  0  0  0  0  0
  156.3160  214.1610  157.1920 C   0  0  0  0  0  1  0  0  0  0  0  0
  156.8310  212.7360  157.2610 C   0  0  1  0  0  3  0  0  0  0  0  0
  156.1860  211.9290  156.2320 N   0  0  0  0  0  2  0  0  0  0  0  0
  156.6530  213.6010  154.4590 N   0  0  0  0  0  2  0  0  0  0  0  0
  156.1120  212.3380  154.8670 C   0  0  0  0  0  0  0  0  0  0  0  0
  155.5720  211.5740  154.0260 O   0  0  0  0  0  0  0  0  0  0  0  0
  156.8070  214.0210  153.0700 C   0  0  0  0  0  3  0  0  0  0  0  0
  155.6690  213.9580  150.8040 C   0  0  0  0  0  2  0  0  0  0  0  0
  157.8330  213.3590  150.8390 C   0  0  0  0  0  2  0  0  0  0  0  0
  156.9600  214.3950  150.4590 O   0  0  0  0  0  0  0  0  0  0  0  0
  157.8970  213.2020  152.3670 C   0  0  0  0  0  2  0  0  0  0  0  0
  155.4650  214.0060  152.3250 C   0  0  0  0  0  2  0  0  0  0  0  0
  1  3  1  0  0  0  0
  2 31  1  0  0  0  0
  3  5  1  0  0  0  0
  4  1  1  0  0  0  0
  5  2  1  0  0  0  0
  5  7  2  0  0  0  0
  6  3  1  0  0  0  0
  8  6  1  0  0  0  0
  9 10  1  6  0  0  0
  9  4  1  0  0  0  0
  9  8  1  0  0  0  0
 11 15  1  6  0  0  0
 11 14  1  0  0  0  0
 12 10  1  0  0  0  0
 12 19  1  0  0  0  0
 13 16  1  0  0  0  0
 14 18  1  0  0  0  0
 16 19  2  0  0  0  0
 16 18  1  0  0  0  0
 17 13  1  0  0  0  0
 17 11  1  0  0  0  0
 20 12  2  0  0  0  0
 21 20  1  0  0  0  0
 21 13  2  0  0  0  0
 22 10  1  0  0  0  0
 23 26  1  0  0  0  0
 24 23  1  0  0  0  0
 25 27  1  0  0  0  0
 27 26  1  0  0  0  0
 27 22  1  0  0  0  0
 28 24  1  0  0  0  0
 28 25  1  0  0  0  0
 29 30  1  0  0  0  0
 30 24  1  0  0  0  0
 31 33  1  0  0  0  0
 33 32  1  6  0  0  0
 34 33  1  0  0  0  0
 35 36  1  0  0  0  0
 36 34  1  0  0  0  0
 37 36  2  0  0  0  0
 38 35  1  0  0  0  0
 39 43  1  0  0  0  0
 40 42  1  0  0  0  0
 41 39  1  0  0  0  0
 41 40  1  0  0  0  0
 42 38  1  0  0  0  0
 43 38  1  0  0  0  0
M  END
>  <MODEL>
5

>  <REMARK>
 VINA RESULT:      -5.5      3.883      9.558
  Name = 
  9 active torsions:
  status: ('A' for Active; 'I' for Inactive)
    1  A    between atoms: C_1  and  N_34
    2  A    between atoms: C_1  and  C_35
    3  A    between atoms: N_3  and  C_42
    4  A    between atoms: N_4  and  C_15
    5  A    between atoms: C_8  and  N_34
    6  A    between atoms: C_11  and  N_14
    7  A    between atoms: C_15  and  C_42
    8  A    between atoms: N_19  and  O_37
    9  A    between atoms: N_34  and  C_38
                            x       y       z     vdW  Elec       q    Type
                         _______ _______ _______ _____ _____    ______ ____

>  <TORSDO>
F 9

$$$$
=
 OpenBabel11062410323D

 43 47  0  0  1  0  0  0  0  0999 V2000
  160.3500  208.1000  154.2800 C   0  0  0  0  0  2  0  0  0  0  0  0
  159.3040  210.6050  155.2490 N   0  0  0  0  0  2  0  0  0  0  0  0
  160.9380  209.3710  153.8460 N   0  0  0  0  0  0  0  0  0  0  0  0
  160.8910  206.9240  153.4640 C   0  0  0  0  0  2  0  0  0  0  0  0
  160.4170  210.6080  154.3490 C   0  0  0  0  0  0  0  0  0  0  0  0
  162.0470  209.3810  152.8910 C   0  0  0  0  0  2  0  0  0  0  0  0
  160.9300  211.7030  153.9870 O   0  0  0  0  0  0  0  0  0  0  0  0
  161.7060  208.5440  151.6540 C   0  0  0  0  0  2  0  0  0  0  0  0
  160.8750  207.2910  151.9820 C   0  0  1  0  0  3  0  0  0  0  0  0
  161.2520  206.1580  151.1370 N   0  0  0  0  0  0  0  0  0  0  0  0
  161.2550  205.1520  144.7220 C   0  0  2  0  0  3  0  0  0  0  0  0
  161.2710  206.2270  149.6930 C   0  0  0  0  0  0  0  0  0  0  0  0
  161.2530  206.3320  146.8830 C   0  0  0  0  0  0  0  0  0  0  0  0
  162.2480  204.1580  145.3270 C   0  0  0  0  0  2  0  0  0  0  0  0
  161.6390  205.4620  143.2910 C   0  0  0  0  0  1  0  0  0  0  0  0
  161.6130  205.1490  147.5380 C   0  0  0  0  0  0  0  0  0  0  0  0
  161.2220  206.3590  145.4850 O   0  0  0  0  0  0  0  0  0  0  0  0
  161.9980  204.0150  146.7600 N   0  0  0  0  0  2  0  0  0  0  0  0
  161.6090  205.0900  148.9340 C   0  0  0  0  0  3  0  0  0  0  0  0
  160.9410  207.4180  149.0200 C   0  0  0  0  0  3  0  0  0  0  0  0
  160.9320  207.4720  147.6240 C   0  0  0  0  0  3  0  0  0  0  0  0
  161.5170  204.9010  151.8330 C   0  0  0  0  0  2  0  0  0  0  0  0
  161.4660  201.1790  151.2290 C   0  0  0  0  0  2  0  0  0  0  0  0
  160.7140  201.0930  149.9690 N   0  0  0  0  0  0  0  0  0  0  0  0
  159.8830  203.3410  150.7920 C   0  0  0  0  0  2  0  0  0  0  0  0
  162.1890  202.5240  151.3860 C   0  0  0  0  0  2  0  0  0  0  0  0
  161.3520  203.7120  150.8990 C   0  0  0  0  0  3  0  0  0  0  0  0
  159.7110  202.1670  149.8190 C   0  0  0  0  0  2  0  0  0  0  0  0
  160.8720  200.8070  147.8100 C   0  0  0  0  0  1  0  0  0  0  0  0
  161.5920  201.2030  148.9390 O   0  0  0  0  0  0  0  0  0  0  0  0
  158.6760  211.8270  155.7280 C   0  0  0  0  0  2  0  0  0  0  0  0
  156.6150  211.5340  157.0540 C   0  0  0  0  0  1  0  0  0  0  0  0
  157.1620  211.7180  155.6520 C   0  0  1  0  0  3  0  0  0  0  0  0
  156.6100  212.9320  155.0620 N   0  0  0  0  0  2  0  0  0  0  0  0
  157.9000  212.6420  152.9620 N   0  0  0  0  0  2  0  0  0  0  0  0
  156.9540  213.3750  153.7510 C   0  0  0  0  0  0  0  0  0  0  0  0
  156.4100  214.4130  153.2920 O   0  0  0  0  0  0  0  0  0  0  0  0
  158.1660  212.8940  151.5500 C   0  0  0  0  0  3  0  0  0  0  0  0
  159.5810  214.2970  149.9810 C   0  0  0  0  0  2  0  0  0  0  0  0
  157.3830  214.2260  149.5310 C   0  0  0  0  0  2  0  0  0  0  0  0
  158.6340  213.7520  149.0960 O   0  0  0  0  0  0  0  0  0  0  0  0
  156.9920  213.6300  150.8930 C   0  0  0  0  0  2  0  0  0  0  0  0
  159.5140  213.6020  151.3480 C   0  0  0  0  0  2  0  0  0  0  0  0
  2 31  1  0  0  0  0
  3  1  1  0  0  0  0
  3  5  1  0  0  0  0
  4  1  1  0  0  0  0
  5  2  1  0  0  0  0
  6  3  1  0  0  0  0
  7  5  2  0  0  0  0
  8  9  1  0  0  0  0
  8  6  1  0  0  0  0
  9 10  1  6  0  0  0
  9  4  1  0  0  0  0
 10 22  1  0  0  0  0
 11 15  1  6  0  0  0
 11 14  1  0  0  0  0
 11 17  1  0  0  0  0
 12 10  1  0  0  0  0
 13 16  2  0  0  0  0
 13 21  1  0  0  0  0
 14 18  1  0  0  0  0
 16 19  1  0  0  0  0
 17 13  1  0  0  0  0
 18 16  1  0  0  0  0
 19 12  2  0  0  0  0
 20 12  1  0  0  0  0
 21 20  2  0  0  0  0
 23 26  1  0  0  0  0
 24 23  1  0  0  0  0
 25 27  1  0  0  0  0
 27 26  1  0  0  0  0
 27 22  1  0  0  0  0
 28 24  1  0  0  0  0
 28 25  1  0  0  0  0
 29 30  1  0  0  0  0
 30 24  1  0  0  0  0
 33 31  1  0  0  0  0
 33 32  1  1  0  0  0
 34 33  1  0  0  0  0
 35 36  1  0  0  0  0
 36 34  1  0  0  0  0
 37 36  2  0  0  0  0
 38 35  1  0  0  0  0
 39 43  1  0  0  0  0
 40 42  1  0  0  0  0
 41 40  1  0  0  0  0
 41 39  1  0  0  0  0
 42 38  1  0  0  0  0
 43 38  1  0  0  0  0
M  END
>  <MODEL>
6

>  <REMARK>
 VINA RESULT:      -4.7      4.942      9.601
  Name = 
  9 active torsions:
  status: ('A' for Active; 'I' for Inactive)
    1  A    between atoms: C_1  and  N_34
    2  A    between atoms: C_1  and  C_35
    3  A    between atoms: N_3  and  C_42
    4  A    between atoms: N_4  and  C_15
    5  A    between atoms: C_8  and  N_34
    6  A    between atoms: C_11  and  N_14
    7  A    between atoms: C_15  and  C_42
    8  A    between atoms: N_19  and  O_37
    9  A    between atoms: N_34  and  C_38
                            x       y       z     vdW  Elec       q    Type
                         _______ _______ _______ _____ _____    ______ ____

>  <TORSDO>
F 9

$$$$
