=
 OpenBabel11062409403D

 34 39  0  0  1  0  0  0  0  0999 V2000
  161.0170  209.4300  153.8340 C   0  0  2  0  0  3  0  0  0  0  0  0
  158.4730  212.3910  154.1330 C   0  0  0  0  0  2  0  0  0  0  0  0
  157.9990  213.5060  150.7320 C   0  0  0  0  0  0  0  0  0  0  0  0
  159.2410  210.6290  155.7160 N   0  0  0  0  0  2  0  0  0  0  0  0
  162.1200  209.1060  151.7230 O   0  0  0  0  0  0  0  0  0  0  0  0
  161.5280  208.5720  152.6990 C   0  0  0  0  0  0  0  0  0  0  0  0
  160.7910  207.2960  155.1460 C   0  0  0  0  0  0  0  0  0  0  0  0
  160.3330  206.5780  156.2470 O   0  0  0  0  0  1  0  0  0  0  0  0
  158.5350  214.4520  151.8180 C   0  0  0  0  0  2  0  0  0  0  0  0
  161.5830  206.5480  154.1160 C   0  0  0  0  0  2  0  0  0  0  0  0
  161.4340  207.1430  152.7910 N   0  0  0  0  0  0  0  0  0  0  0  0
  159.8230  209.3760  156.0670 C   0  0  0  0  0  0  0  0  0  0  0  0
  160.5450  208.6190  155.0290 C   0  0  0  0  0  0  0  0  0  0  0  0
  159.7150  208.9510  157.2480 O   0  0  0  0  0  0  0  0  0  0  0  0
  157.8240  212.4060  152.8910 O   0  0  0  0  0  0  0  0  0  0  0  0
  157.4380  213.2910  149.6700 O   0  0  0  0  0  0  0  0  0  0  0  0
  158.7030  213.0440  151.9990 C   0  0  1  0  0  0  0  0  0  0  0  0
  160.0660  212.4140  151.7370 C   0  0  0  0  0  2  0  0  0  0  0  0
  159.2470  211.1180  154.3690 C   0  0  0  0  0  0  0  0  0  0  0  0
  159.9570  210.9150  151.9600 C   0  0  0  0  0  2  0  0  0  0  0  0
  160.0150  210.5110  153.4200 C   0  0  0  0  0  0  0  0  0  0  0  0
  161.1860  204.0900  150.6190 C   0  0  0  0  0  3  0  0  0  0  0  0
  161.4790  206.8530  150.3370 C   0  0  0  0  0  3  0  0  0  0  0  0
  161.7260  204.3920  146.8700 C   0  0  2  0  0  3  0  0  0  0  0  0
  161.1900  203.7390  148.1490 C   0  0  0  0  0  2  0  0  0  0  0  0
  161.3050  204.6450  149.3430 C   0  0  0  0  0  0  0  0  0  0  0  0
  161.6270  206.6800  147.8520 C   0  0  0  0  0  2  0  0  0  0  0  0
  161.4300  206.0430  149.1990 C   0  0  0  0  0  0  0  0  0  0  0  0
  161.1380  205.7890  146.7140 C   0  0  0  0  0  2  0  0  0  0  0  0
  161.3640  206.3000  151.6220 C   0  0  0  0  0  0  0  0  0  0  0  0
  161.2230  204.9090  151.7490 C   0  0  0  0  0  3  0  0  0  0  0  0
  161.4330  203.5510  145.6300 C   0  0  2  0  0  3  0  0  0  0  0  0
  160.5730  204.2220  144.7560 O   0  0  0  0  0  1  0  0  0  0  0  0
  160.8320  202.2120  146.0160 C   0  0  0  0  0  1  0  0  0  0  0  0
  1  6  1  6  0  0  0
  1 13  1  0  0  0  0
  2 19  1  0  0  0  0
  3  9  1  0  0  0  0
  3 17  1  0  0  0  0
  4 12  1  0  0  0  0
  5  6  2  0  0  0  0
  6 11  1  0  0  0  0
  7  8  1  0  0  0  0
  9 17  1  0  0  0  0
 10  7  1  0  0  0  0
 11 10  1  0  0  0  0
 12 14  2  0  0  0  0
 13  7  2  0  0  0  0
 13 12  1  0  0  0  0
 15  2  1  0  0  0  0
 16  3  2  0  0  0  0
 17 18  1  6  0  0  0
 17 15  1  0  0  0  0
 18 20  1  0  0  0  0
 19  4  1  0  0  0  0
 20 21  1  0  0  0  0
 21  1  1  0  0  0  0
 21 19  2  0  0  0  0
 22 31  1  0  0  0  0
 23 30  1  0  0  0  0
 24 32  1  6  0  0  0
 24 25  1  0  0  0  0
 25 26  1  0  0  0  0
 26 22  2  0  0  0  0
 27 28  1  0  0  0  0
 28 26  1  0  0  0  0
 28 23  2  0  0  0  0
 29 24  1  0  0  0  0
 29 27  1  0  0  0  0
 30 31  2  0  0  0  0
 30 11  1  0  0  0  0
 32 34  1  1  0  0  0
 33 32  1  0  0  0  0
M  END
>  <MODEL>
1

>  <REMARK>
 VINA RESULT:     -11.0      0.000      0.000
  Name = 
  2 active torsions:
  status: ('A' for Active; 'I' for Inactive)
    1  A    between atoms: C_7  and  C_11
    2  A    between atoms: N_18  and  C_30
                            x       y       z     vdW  Elec       q    Type
                         _______ _______ _______ _____ _____    ______ ____

>  <TORSDO>
F 2

$$$$
=
 OpenBabel11062409403D

 34 39  0  0  1  0  0  0  0  0999 V2000
  161.6020  209.9200  152.6370 C   0  0  2  0  0  3  0  0  0  0  0  0
  160.1430  213.2350  151.1520 C   0  0  0  0  0  2  0  0  0  0  0  0
  160.5020  212.8460  147.5800 C   0  0  0  0  0  0  0  0  0  0  0  0
  160.0840  212.2040  153.4180 N   0  0  0  0  0  2  0  0  0  0  0  0
  162.8030  208.4590  151.1540 O   0  0  0  0  0  0  0  0  0  0  0  0
  161.9490  208.5600  152.0750 C   0  0  0  0  0  0  0  0  0  0  0  0
  160.5260  208.6890  154.5490 C   0  0  0  0  0  0  0  0  0  0  0  0
  159.7200  208.6520  155.6830 O   0  0  0  0  0  1  0  0  0  0  0  0
  161.1710  214.0090  148.3320 C   0  0  0  0  0  2  0  0  0  0  0  0
  161.1580  207.4020  154.1100 C   0  0  0  0  0  2  0  0  0  0  0  0
  161.3840  207.3820  152.6680 N   0  0  0  0  0  0  0  0  0  0  0  0
  160.1760  211.1280  154.3470 C   0  0  0  0  0  0  0  0  0  0  0  0
  160.7410  209.8460  153.8880 C   0  0  0  0  0  0  0  0  0  0  0  0
  159.7830  211.2950  155.5320 O   0  0  0  0  0  0  0  0  0  0  0  0
  159.7000  212.8670  149.8740 O   0  0  0  0  0  0  0  0  0  0  0  0
  160.0450  212.3360  146.5720 O   0  0  0  0  0  0  0  0  0  0  0  0
  160.8470  212.8240  149.0620 C   0  0  1  0  0  0  0  0  0  0  0  0
  161.9530  211.8340  149.4090 C   0  0  0  0  0  2  0  0  0  0  0  0
  160.4230  212.0450  152.0350 C   0  0  0  0  0  0  0  0  0  0  0  0
  161.3340  210.6550  150.1420 C   0  0  0  0  0  2  0  0  0  0  0  0
  161.0680  210.9220  151.6100 C   0  0  0  0  0  0  0  0  0  0  0  0
  160.7540  203.7680  151.8640 C   0  0  0  0  0  3  0  0  0  0  0  0
  161.3430  206.1480  150.5260 C   0  0  0  0  0  3  0  0  0  0  0  0
  161.2410  202.5120  148.3110 C   0  0  2  0  0  3  0  0  0  0  0  0
  160.6650  202.4770  149.7310 C   0  0  0  0  0  2  0  0  0  0  0  0
  160.9050  203.7600  150.4750 C   0  0  0  0  0  0  0  0  0  0  0  0
  161.4150  204.9980  148.3130 C   0  0  0  0  0  2  0  0  0  0  0  0
  161.1790  204.9670  149.7970 C   0  0  0  0  0  0  0  0  0  0  0  0
  160.8070  203.7900  147.6060 C   0  0  0  0  0  2  0  0  0  0  0  0
  161.1960  206.1600  151.9230 C   0  0  0  0  0  0  0  0  0  0  0  0
  160.9060  204.9550  152.5820 C   0  0  0  0  0  3  0  0  0  0  0  0
  160.8290  201.2890  147.4940 C   0  0  2  0  0  3  0  0  0  0  0  0
  161.6730  200.2050  147.7490 O   0  0  0  0  0  1  0  0  0  0  0  0
  160.8310  201.6050  146.0100 C   0  0  0  0  0  1  0  0  0  0  0  0
  1 21  1  6  0  0  0
  1 13  1  0  0  0  0
  2 19  1  0  0  0  0
  3  9  1  0  0  0  0
  3 17  1  0  0  0  0
  4 12  1  0  0  0  0
  5  6  2  0  0  0  0
  6  1  1  0  0  0  0
  6 11  1  0  0  0  0
  7  8  1  0  0  0  0
 10  7  1  0  0  0  0
 11 10  1  0  0  0  0
 12 14  2  0  0  0  0
 13 12  1  0  0  0  0
 13  7  2  0  0  0  0
 15  2  1  0  0  0  0
 16  3  2  0  0  0  0
 17  9  1  1  0  0  0
 17 18  1  0  0  0  0
 17 15  1  0  0  0  0
 18 20  1  0  0  0  0
 19  4  1  0  0  0  0
 20 21  1  0  0  0  0
 21 19  2  0  0  0  0
 22 31  1  0  0  0  0
 23 30  1  0  0  0  0
 24 32  1  6  0  0  0
 24 25  1  0  0  0  0
 25 26  1  0  0  0  0
 26 22  2  0  0  0  0
 27 28  1  0  0  0  0
 28 26  1  0  0  0  0
 28 23  2  0  0  0  0
 29 24  1  0  0  0  0
 29 27  1  0  0  0  0
 30 31  2  0  0  0  0
 30 11  1  0  0  0  0
 32 34  1  6  0  0  0
 32 33  1  0  0  0  0
M  END
>  <MODEL>
2

>  <REMARK>
 VINA RESULT:     -10.2      2.068      2.530
  Name = 
  2 active torsions:
  status: ('A' for Active; 'I' for Inactive)
    1  A    between atoms: C_7  and  C_11
    2  A    between atoms: N_18  and  C_30
                            x       y       z     vdW  Elec       q    Type
                         _______ _______ _______ _____ _____    ______ ____

>  <TORSDO>
F 2

$$$$
