=
 OpenBabel11062410413D

 32 33  0  0  1  0  0  0  0  0999 V2000
  161.8330  206.3200  147.2770 C   0  0  0  0  0  2  0  0  0  0  0  0
  161.0210  201.9940  150.6600 C   0  0  0  0  0  2  0  0  0  0  0  0
  161.3830  203.5440  148.7550 C   0  0  2  0  0  3  0  0  0  0  0  0
  160.4200  205.1220  150.5710 C   0  0  0  0  0  2  0  0  0  0  0  0
  161.8940  206.0210  148.7660 C   0  0  0  0  0  2  0  0  0  0  0  0
  161.2670  204.3450  151.5750 C   0  0  2  0  0  3  0  0  0  0  0  0
  162.8390  203.9550  146.7790 C   0  0  0  0  0  2  0  0  0  0  0  0
  160.8690  204.9500  149.1150 C   0  0  1  0  0  3  0  0  0  0  0  0
  161.5110  203.3730  147.2490 C   0  0  0  0  0  2  0  0  0  0  0  0
  162.7970  205.4580  146.4530 C   0  0  1  0  0  3  0  0  0  0  0  0
  160.4890  202.4440  149.3060 C   0  0  0  0  0  2  0  0  0  0  0  0
  160.6480  202.9630  151.7760 C   0  0  0  0  0  2  0  0  0  0  0  0
  161.3410  205.5860  144.3500 C   0  0  0  0  0  0  0  0  0  0  0  0
  162.6010  205.6740  145.0230 N   0  0  0  0  0  2  0  0  0  0  0  0
  160.2770  205.3780  144.9920 O   0  0  0  0  0  0  0  0  0  0  0  0
  161.2840  205.7470  142.8740 C   0  0  0  0  0  1  0  0  0  0  0  0
  161.2720  205.0640  152.8390 N   0  0  0  0  0  2  0  0  0  0  0  0
  162.1140  206.2410  152.6690 C   0  0  0  0  0  2  0  0  0  0  0  0
  161.4860  207.4370  153.3760 C   0  0  2  0  0  3  0  0  0  0  0  0
  160.4510  206.9700  154.3900 C   0  0  0  0  0  2  0  0  0  0  0  0
  161.6400  208.4880  155.8970 C   0  0  0  0  0  2  0  0  0  0  0  0
  160.7330  207.5270  155.7490 C   0  0  0  0  0  0  0  0  0  0  0  0
  160.0070  207.0060  156.9410 C   0  0  0  0  0  1  0  0  0  0  0  0
  160.8190  208.3440  152.3560 C   0  0  0  0  0  2  0  0  0  0  0  0
  161.3990  209.7530  152.4210 C   0  0  1  0  0  3  0  0  0  0  0  0
  162.3230  210.0360  151.2340 C   0  0  0  0  0  2  0  0  0  0  0  0
  161.9920  209.2090  149.9960 C   0  0  0  0  0  2  0  0  0  0  0  0
  162.0730  210.0020  148.8500 O   0  0  0  0  0  1  0  0  0  0  0  0
  160.2930  210.8000  152.5540 C   0  0  0  0  0  2  0  0  0  0  0  0
  160.3080  211.3880  153.8470 O   0  0  0  0  0  0  0  0  0  0  0  0
  159.3440  211.0940  154.7730 C   0  0  0  0  0  0  0  0  0  0  0  0
  158.4920  210.8380  155.5900 C   0  0  0  0  0  3  0  0  0  0  0  0
  1  5  1  0  0  0  0
  2 12  1  0  0  0  0
  3  9  1  6  0  0  0
  3  8  1  0  0  0  0
  3 11  1  0  0  0  0
  4  6  1  0  0  0  0
  6 12  1  0  0  0  0
  6 17  1  1  0  0  0
  7  9  1  0  0  0  0
  8  5  1  1  0  0  0
  8  4  1  0  0  0  0
 10 14  1  6  0  0  0
 10  7  1  0  0  0  0
 10  1  1  0  0  0  0
 11  2  1  0  0  0  0
 13 15  2  0  0  0  0
 13 14  1  0  0  0  0
 16 13  1  0  0  0  0
 18 17  1  0  0  0  0
 18 19  1  0  0  0  0
 19 24  1  6  0  0  0
 19 20  1  0  0  0  0
 20 22  1  0  0  0  0
 22 21  2  0  0  0  0
 22 23  1  0  0  0  0
 24 25  1  0  0  0  0
 25 26  1  6  0  0  0
 25 29  1  0  0  0  0
 27 26  1  0  0  0  0
 28 27  1  0  0  0  0
 29 30  1  0  0  0  0
 30 31  1  0  0  0  0
 31 32  3  0  0  0  0
M  END
>  <MODEL>
1

>  <REMARK>
 VINA RESULT:      -7.5      0.000      0.000
  Name = 
  13 active torsions:
  status: ('A' for Active; 'I' for Inactive)
    1  A    between atoms: C_5  and  C_25
    2  A    between atoms: O_6  and  C_7
    3  A    between atoms: O_6  and  C_32
    4  A    between atoms: N_10  and  C_24
    5  A    between atoms: C_11  and  C_27
    6  A    between atoms: C_11  and  C_30
    7  A    between atoms: C_11  and  C_32
    8  A    between atoms: C_14  and  N_15
    9  A    between atoms: N_15  and  C_26
   10  A    between atoms: C_16  and  C_25
   11  A    between atoms: C_16  and  C_26
   12  A    between atoms: C_16  and  C_27
   13  A    between atoms: C_18  and  C_30
                            x       y       z     vdW  Elec       q    Type
                         _______ _______ _______ _____ _____    ______ ____

>  <TORSDO>
F 13

$$$$
=
 OpenBabel11062410413D

 32 33  0  0  1  0  0  0  0  0999 V2000
  161.7930  206.3440  147.3260 C   0  0  0  0  0  2  0  0  0  0  0  0
  161.0380  201.9930  150.6900 C   0  0  0  0  0  2  0  0  0  0  0  0
  161.3810  203.5560  148.7920 C   0  0  2  0  0  3  0  0  0  0  0  0
  160.3890  205.1120  150.6110 C   0  0  0  0  0  2  0  0  0  0  0  0
  161.8550  206.0410  148.8140 C   0  0  0  0  0  2  0  0  0  0  0  0
  161.2460  204.3440  151.6150 C   0  0  2  0  0  3  0  0  0  0  0  0
  162.8360  203.9980  146.8210 C   0  0  0  0  0  2  0  0  0  0  0  0
  160.8450  204.9530  149.1560 C   0  0  1  0  0  3  0  0  0  0  0  0
  161.5160  203.3930  147.2850 C   0  0  0  0  0  2  0  0  0  0  0  0
  162.7720  205.5010  146.5010 C   0  0  1  0  0  3  0  0  0  0  0  0
  160.5030  202.4400  149.3360 C   0  0  0  0  0  2  0  0  0  0  0  0
  160.6470  202.9510  151.8090 C   0  0  0  0  0  2  0  0  0  0  0  0
  161.3260  205.5830  144.3890 C   0  0  0  0  0  0  0  0  0  0  0  0
  162.5770  205.7190  145.0710 N   0  0  0  0  0  2  0  0  0  0  0  0
  160.2680  205.3250  145.0220 O   0  0  0  0  0  0  0  0  0  0  0  0
  161.2720  205.7530  142.9140 C   0  0  0  0  0  1  0  0  0  0  0  0
  161.2370  205.0580  152.8820 N   0  0  0  0  0  2  0  0  0  0  0  0
  162.0970  206.2240  152.7320 C   0  0  0  0  0  2  0  0  0  0  0  0
  161.4540  207.4340  153.4000 C   0  0  2  0  0  3  0  0  0  0  0  0
  160.6500  207.0030  154.6180 C   0  0  0  0  0  2  0  0  0  0  0  0
  161.7600  208.0380  156.5380 C   0  0  0  0  0  2  0  0  0  0  0  0
  160.7230  208.0270  155.7060 C   0  0  0  0  0  0  0  0  0  0  0  0
  159.6350  209.0310  155.8670 C   0  0  0  0  0  1  0  0  0  0  0  0
  160.5380  208.1380  152.4130 C   0  0  0  0  0  2  0  0  0  0  0  0
  161.1900  209.4060  151.8730 C   0  0  1  0  0  3  0  0  0  0  0  0
  161.6090  210.3480  153.0040 C   0  0  0  0  0  2  0  0  0  0  0  0
  160.6130  211.4760  153.2550 C   0  0  0  0  0  2  0  0  0  0  0  0
  159.8560  211.7160  152.1070 O   0  0  0  0  0  1  0  0  0  0  0  0
  162.3520  209.0730  150.9370 C   0  0  0  0  0  2  0  0  0  0  0  0
  162.0390  209.4280  149.5980 O   0  0  0  0  0  0  0  0  0  0  0  0
  161.9980  210.7370  149.2010 C   0  0  0  0  0  0  0  0  0  0  0  0
  161.9630  211.8930  148.8520 C   0  0  0  0  0  3  0  0  0  0  0  0
  1  5  1  0  0  0  0
  2 12  1  0  0  0  0
  3  9  1  6  0  0  0
  3  8  1  0  0  0  0
  3 11  1  0  0  0  0
  4  6  1  0  0  0  0
  6 12  1  0  0  0  0
  6 17  1  1  0  0  0
  7  9  1  0  0  0  0
  8  5  1  1  0  0  0
  8  4  1  0  0  0  0
 10 14  1  6  0  0  0
 10  7  1  0  0  0  0
 10  1  1  0  0  0  0
 11  2  1  0  0  0  0
 13 15  2  0  0  0  0
 13 14  1  0  0  0  0
 16 13  1  0  0  0  0
 18 17  1  0  0  0  0
 18 19  1  0  0  0  0
 19 24  1  6  0  0  0
 19 20  1  0  0  0  0
 20 22  1  0  0  0  0
 22 23  1  0  0  0  0
 22 21  2  0  0  0  0
 25 29  1  1  0  0  0
 25 24  1  0  0  0  0
 25 26  1  0  0  0  0
 26 27  1  0  0  0  0
 28 27  1  0  0  0  0
 30 29  1  0  0  0  0
 31 30  1  0  0  0  0
 32 31  3  0  0  0  0
M  END
>  <MODEL>
2

>  <REMARK>
 VINA RESULT:      -7.4      0.859      2.361
  Name = 
  13 active torsions:
  status: ('A' for Active; 'I' for Inactive)
    1  A    between atoms: C_5  and  C_25
    2  A    between atoms: O_6  and  C_7
    3  A    between atoms: O_6  and  C_32
    4  A    between atoms: N_10  and  C_24
    5  A    between atoms: C_11  and  C_27
    6  A    between atoms: C_11  and  C_30
    7  A    between atoms: C_11  and  C_32
    8  A    between atoms: C_14  and  N_15
    9  A    between atoms: N_15  and  C_26
   10  A    between atoms: C_16  and  C_25
   11  A    between atoms: C_16  and  C_26
   12  A    between atoms: C_16  and  C_27
   13  A    between atoms: C_18  and  C_30
                            x       y       z     vdW  Elec       q    Type
                         _______ _______ _______ _____ _____    ______ ____

>  <TORSDO>
F 13

$$$$
=
 OpenBabel11062410413D

 32 33  0  0  1  0  0  0  0  0999 V2000
  159.8220  211.9790  153.6610 C   0  0  0  0  0  2  0  0  0  0  0  0
  161.0880  206.5730  153.6710 C   0  0  0  0  0  2  0  0  0  0  0  0
  160.4200  208.9050  154.1990 C   0  0  2  0  0  3  0  0  0  0  0  0
  161.8290  209.2130  152.0460 C   0  0  0  0  0  2  0  0  0  0  0  0
  160.0590  210.8700  152.6480 C   0  0  0  0  0  2  0  0  0  0  0  0
  161.1710  207.9340  151.5350 C   0  0  2  0  0  3  0  0  0  0  0  0
  158.6060  210.2670  155.2230 C   0  0  0  0  0  2  0  0  0  0  0  0
  161.0750  209.8800  153.2030 C   0  0  1  0  0  3  0  0  0  0  0  0
  159.9690  209.6270  155.4600 C   0  0  0  0  0  2  0  0  0  0  0  0
  158.6610  211.6790  154.6150 C   0  0  1  0  0  3  0  0  0  0  0  0
  161.3480  207.7630  154.5860 C   0  0  0  0  0  2  0  0  0  0  0  0
  161.7410  206.7440  152.3050 C   0  0  0  0  0  2  0  0  0  0  0  0
  157.3550  213.3670  156.0310 C   0  0  0  0  0  0  0  0  0  0  0  0
  158.5630  212.6970  155.6570 N   0  0  0  0  0  2  0  0  0  0  0  0
  156.2520  213.0550  155.5080 O   0  0  0  0  0  0  0  0  0  0  0  0
  157.4000  214.4460  157.0530 C   0  0  0  0  0  1  0  0  0  0  0  0
  161.4710  207.7870  150.1190 N   0  0  0  0  0  2  0  0  0  0  0  0
  162.3730  206.6510  149.9800 C   0  0  0  0  0  2  0  0  0  0  0  0
  162.0470  205.8810  148.7050 C   0  0  2  0  0  3  0  0  0  0  0  0
  161.9020  206.8370  147.5300 C   0  0  0  0  0  2  0  0  0  0  0  0
  160.3610  206.2300  145.7280 C   0  0  0  0  0  2  0  0  0  0  0  0
  161.5680  206.1020  146.2710 C   0  0  0  0  0  0  0  0  0  0  0  0
  162.5800  205.2220  145.6230 C   0  0  0  0  0  1  0  0  0  0  0  0
  160.7510  205.1090  148.8890 C   0  0  0  0  0  2  0  0  0  0  0  0
  161.0110  203.7620  149.5560 C   0  0  1  0  0  3  0  0  0  0  0  0
  160.3800  203.6930  150.9490 C   0  0  0  0  0  2  0  0  0  0  0  0
  161.3310  203.1740  152.0220 C   0  0  0  0  0  2  0  0  0  0  0  0
  162.0000  202.0370  151.5660 O   0  0  0  0  0  1  0  0  0  0  0  0
  160.5630  202.6070  148.6610 C   0  0  0  0  0  2  0  0  0  0  0  0
  161.2160  202.6630  147.4010 O   0  0  0  0  0  0  0  0  0  0  0  0
  160.7300  201.9840  146.3170 C   0  0  0  0  0  0  0  0  0  0  0  0
  160.2990  201.3830  145.3620 C   0  0  0  0  0  3  0  0  0  0  0  0
  1 10  1  0  0  0  0
  2 11  1  0  0  0  0
  3 11  1  1  0  0  0
  3  9  1  0  0  0  0
  5  8  1  0  0  0  0
  5  1  1  0  0  0  0
  6 17  1  6  0  0  0
  6  4  1  0  0  0  0
  6 12  1  0  0  0  0
  7  9  1  0  0  0  0
  8  4  1  6  0  0  0
  8  3  1  0  0  0  0
 10  7  1  0  0  0  0
 10 14  1  1  0  0  0
 12  2  1  0  0  0  0
 13 16  1  0  0  0  0
 14 13  1  0  0  0  0
 15 13  2  0  0  0  0
 18 17  1  0  0  0  0
 19 20  1  6  0  0  0
 19 24  1  0  0  0  0
 19 18  1  0  0  0  0
 21 22  2  0  0  0  0
 22 20  1  0  0  0  0
 23 22  1  0  0  0  0
 24 25  1  0  0  0  0
 25 29  1  6  0  0  0
 25 26  1  0  0  0  0
 26 27  1  0  0  0  0
 28 27  1  0  0  0  0
 30 29  1  0  0  0  0
 31 30  1  0  0  0  0
 32 31  3  0  0  0  0
M  END
>  <MODEL>
3

>  <REMARK>
 VINA RESULT:      -6.7      2.767      9.353
  Name = 
  13 active torsions:
  status: ('A' for Active; 'I' for Inactive)
    1  A    between atoms: C_5  and  C_25
    2  A    between atoms: O_6  and  C_7
    3  A    between atoms: O_6  and  C_32
    4  A    between atoms: N_10  and  C_24
    5  A    between atoms: C_11  and  C_27
    6  A    between atoms: C_11  and  C_30
    7  A    between atoms: C_11  and  C_32
    8  A    between atoms: C_14  and  N_15
    9  A    between atoms: N_15  and  C_26
   10  A    between atoms: C_16  and  C_25
   11  A    between atoms: C_16  and  C_26
   12  A    between atoms: C_16  and  C_27
   13  A    between atoms: C_18  and  C_30
                            x       y       z     vdW  Elec       q    Type
                         _______ _______ _______ _____ _____    ______ ____

>  <TORSDO>
F 13

$$$$
=
 OpenBabel11062410413D

 32 33  0  0  1  0  0  0  0  0999 V2000
  160.9180  205.0370  147.1270 C   0  0  0  0  0  2  0  0  0  0  0  0
  161.2830  204.1700  152.5980 C   0  0  0  0  0  2  0  0  0  0  0  0
  160.9850  204.0250  150.1370 C   0  0  2  0  0  3  0  0  0  0  0  0
  160.6950  206.5630  150.5770 C   0  0  0  0  0  2  0  0  0  0  0  0
  161.4770  205.7460  148.3490 C   0  0  0  0  0  2  0  0  0  0  0  0
  161.8290  206.4310  151.5900 C   0  0  2  0  0  3  0  0  0  0  0  0
  161.6910  202.7440  148.1240 C   0  0  0  0  0  2  0  0  0  0  0  0
  160.6260  205.4100  149.5680 C   0  0  1  0  0  3  0  0  0  0  0  0
  160.5970  202.9150  149.1720 C   0  0  0  0  0  2  0  0  0  0  0  0
  161.5460  203.6580  146.8950 C   0  0  1  0  0  3  0  0  0  0  0  0
  160.3270  203.7660  151.4840 C   0  0  0  0  0  2  0  0  0  0  0  0
  161.3100  205.6780  152.8150 C   0  0  0  0  0  2  0  0  0  0  0  0
  160.6430  201.5440  145.7640 C   0  0  0  0  0  0  0  0  0  0  0  0
  160.8790  202.9560  145.8020 N   0  0  0  0  0  2  0  0  0  0  0  0
  160.9470  200.8100  146.7410 O   0  0  0  0  0  0  0  0  0  0  0  0
  160.0270  200.9370  144.5550 C   0  0  0  0  0  1  0  0  0  0  0  0
  162.2620  207.7620  151.9850 N   0  0  0  0  0  2  0  0  0  0  0  0
  161.0990  208.4610  152.5140 C   0  0  0  0  0  2  0  0  0  0  0  0
  161.1770  209.9420  152.1620 C   0  0  2  0  0  3  0  0  0  0  0  0
  162.4020  210.2190  151.3010 C   0  0  0  0  0  2  0  0  0  0  0  0
  161.6410  211.7730  149.5710 C   0  0  0  0  0  2  0  0  0  0  0  0
  162.0130  210.5380  149.8930 C   0  0  0  0  0  0  0  0  0  0  0  0
  162.0360  209.4770  148.8480 C   0  0  0  0  0  1  0  0  0  0  0  0
  161.2570  210.7680  153.4340 C   0  0  0  0  0  2  0  0  0  0  0  0
  159.9000  211.3760  153.7750 C   0  0  1  0  0  3  0  0  0  0  0  0
  158.9800  211.4190  152.5530 C   0  0  0  0  0  2  0  0  0  0  0  0
  158.4700  212.8180  152.2250 C   0  0  0  0  0  2  0  0  0  0  0  0
  157.6890  213.3050  153.2750 O   0  0  0  0  0  1  0  0  0  0  0  0
  159.2550  210.6570  154.9600 C   0  0  0  0  0  2  0  0  0  0  0  0
  160.2140  209.8750  155.6580 O   0  0  0  0  0  0  0  0  0  0  0  0
  160.0000  208.5470  155.9100 C   0  0  0  0  0  0  0  0  0  0  0  0
  159.8100  207.3750  156.1310 C   0  0  0  0  0  3  0  0  0  0  0  0
  1  5  1  0  0  0  0
  2 12  1  0  0  0  0
  3  9  1  6  0  0  0
  3 11  1  0  0  0  0
  4  6  1  0  0  0  0
  6 17  1  1  0  0  0
  6 12  1  0  0  0  0
  7  9  1  0  0  0  0
  8  5  1  6  0  0  0
  8  3  1  0  0  0  0
  8  4  1  0  0  0  0
 10 14  1  6  0  0  0
 10  1  1  0  0  0  0
 10  7  1  0  0  0  0
 11  2  1  0  0  0  0
 13 14  1  0  0  0  0
 13 15  2  0  0  0  0
 16 13  1  0  0  0  0
 17 18  1  0  0  0  0
 19 20  1  6  0  0  0
 19 18  1  0  0  0  0
 19 24  1  0  0  0  0
 21 22  2  0  0  0  0
 22 20  1  0  0  0  0
 23 22  1  0  0  0  0
 24 25  1  0  0  0  0
 25 26  1  6  0  0  0
 25 29  1  0  0  0  0
 27 26  1  0  0  0  0
 27 28  1  0  0  0  0
 29 30  1  0  0  0  0
 30 31  1  0  0  0  0
 31 32  3  0  0  0  0
M  END
>  <MODEL>
4

>  <REMARK>
 VINA RESULT:      -6.4      2.226      3.930
  Name = 
  13 active torsions:
  status: ('A' for Active; 'I' for Inactive)
    1  A    between atoms: C_5  and  C_25
    2  A    between atoms: O_6  and  C_7
    3  A    between atoms: O_6  and  C_32
    4  A    between atoms: N_10  and  C_24
    5  A    between atoms: C_11  and  C_27
    6  A    between atoms: C_11  and  C_30
    7  A    between atoms: C_11  and  C_32
    8  A    between atoms: C_14  and  N_15
    9  A    between atoms: N_15  and  C_26
   10  A    between atoms: C_16  and  C_25
   11  A    between atoms: C_16  and  C_26
   12  A    between atoms: C_16  and  C_27
   13  A    between atoms: C_18  and  C_30
                            x       y       z     vdW  Elec       q    Type
                         _______ _______ _______ _____ _____    ______ ____

>  <TORSDO>
F 13

$$$$
=
 OpenBabel11062410413D

 32 33  0  0  1  0  0  0  0  0999 V2000
  160.9450  205.3470  147.0640 C   0  0  0  0  0  2  0  0  0  0  0  0
  161.4130  204.7070  152.5590 C   0  0  0  0  0  2  0  0  0  0  0  0
  161.0810  204.4580  150.1110 C   0  0  2  0  0  3  0  0  0  0  0  0
  160.7400  207.0030  150.4550 C   0  0  0  0  0  2  0  0  0  0  0  0
  161.5060  206.1160  148.2490 C   0  0  0  0  0  2  0  0  0  0  0  0
  161.8920  206.9370  151.4540 C   0  0  2  0  0  3  0  0  0  0  0  0
  161.7850  203.1130  148.1390 C   0  0  0  0  0  2  0  0  0  0  0  0
  160.6820  205.8100  149.4930 C   0  0  1  0  0  3  0  0  0  0  0  0
  160.7040  203.3020  149.1970 C   0  0  0  0  0  2  0  0  0  0  0  0
  161.6000  203.9740  146.8770 C   0  0  1  0  0  3  0  0  0  0  0  0
  160.4490  204.2370  151.4770 C   0  0  0  0  0  2  0  0  0  0  0  0
  161.4090  206.2230  152.7160 C   0  0  0  0  0  2  0  0  0  0  0  0
  160.7000  201.8020  145.8610 C   0  0  0  0  0  0  0  0  0  0  0  0
  160.9340  203.2140  145.8240 N   0  0  0  0  0  2  0  0  0  0  0  0
  161.0070  201.1210  146.8740 O   0  0  0  0  0  0  0  0  0  0  0  0
  160.0830  201.1300  144.6870 C   0  0  0  0  0  1  0  0  0  0  0  0
  162.3000  208.2920  151.7890 N   0  0  0  0  0  2  0  0  0  0  0  0
  161.0950  209.0450  152.1100 C   0  0  0  0  0  2  0  0  0  0  0  0
  161.1930  209.6080  153.5230 C   0  0  2  0  0  3  0  0  0  0  0  0
  160.1040  209.0150  154.4060 C   0  0  0  0  0  2  0  0  0  0  0  0
  160.1470  207.2910  156.1420 C   0  0  0  0  0  2  0  0  0  0  0  0
  160.6830  208.3980  155.6410 C   0  0  0  0  0  0  0  0  0  0  0  0
  161.8540  209.0240  156.3150 C   0  0  0  0  0  1  0  0  0  0  0  0
  161.0450  211.1190  153.4860 C   0  0  0  0  0  2  0  0  0  0  0  0
  159.6280  211.5360  153.8670 C   0  0  1  0  0  3  0  0  0  0  0  0
  159.6310  212.5850  154.9820 C   0  0  0  0  0  2  0  0  0  0  0  0
  158.3700  212.5650  155.8390 C   0  0  0  0  0  2  0  0  0  0  0  0
  157.9490  211.2510  156.0480 O   0  0  0  0  0  1  0  0  0  0  0  0
  158.8380  211.9970  152.6420 C   0  0  0  0  0  2  0  0  0  0  0  0
  159.2570  213.2900  152.2300 O   0  0  0  0  0  0  0  0  0  0  0  0
  159.8210  213.4950  151.0000 C   0  0  0  0  0  0  0  0  0  0  0  0
  160.3190  213.6740  149.9140 C   0  0  0  0  0  3  0  0  0  0  0  0
  1  5  1  0  0  0  0
  2 12  1  0  0  0  0
  3  9  1  6  0  0  0
  3 11  1  0  0  0  0
  4  6  1  0  0  0  0
  6 17  1  1  0  0  0
  6 12  1  0  0  0  0
  7  9  1  0  0  0  0
  8  5  1  6  0  0  0
  8  3  1  0  0  0  0
  8  4  1  0  0  0  0
 10 14  1  6  0  0  0
 10  1  1  0  0  0  0
 10  7  1  0  0  0  0
 11  2  1  0  0  0  0
 13 15  2  0  0  0  0
 14 13  1  0  0  0  0
 16 13  1  0  0  0  0
 17 18  1  0  0  0  0
 19 18  1  6  0  0  0
 19 20  1  0  0  0  0
 20 22  1  0  0  0  0
 22 21  2  0  0  0  0
 22 23  1  0  0  0  0
 24 19  1  0  0  0  0
 24 25  1  0  0  0  0
 25 29  1  6  0  0  0
 25 26  1  0  0  0  0
 26 27  1  0  0  0  0
 27 28  1  0  0  0  0
 30 29  1  0  0  0  0
 31 30  1  0  0  0  0
 32 31  3  0  0  0  0
M  END
>  <MODEL>
5

>  <REMARK>
 VINA RESULT:      -6.4      2.147      3.651
  Name = 
  13 active torsions:
  status: ('A' for Active; 'I' for Inactive)
    1  A    between atoms: C_5  and  C_25
    2  A    between atoms: O_6  and  C_7
    3  A    between atoms: O_6  and  C_32
    4  A    between atoms: N_10  and  C_24
    5  A    between atoms: C_11  and  C_27
    6  A    between atoms: C_11  and  C_30
    7  A    between atoms: C_11  and  C_32
    8  A    between atoms: C_14  and  N_15
    9  A    between atoms: N_15  and  C_26
   10  A    between atoms: C_16  and  C_25
   11  A    between atoms: C_16  and  C_26
   12  A    between atoms: C_16  and  C_27
   13  A    between atoms: C_18  and  C_30
                            x       y       z     vdW  Elec       q    Type
                         _______ _______ _______ _____ _____    ______ ____

>  <TORSDO>
F 13

$$$$
=
 OpenBabel11062410413D

 32 33  0  0  1  0  0  0  0  0999 V2000
  161.5220  204.5730  150.3480 C   0  0  0  0  0  2  0  0  0  0  0  0
  161.8350  209.9450  148.9820 C   0  0  0  0  0  2  0  0  0  0  0  0
  161.7820  207.4640  149.0570 C   0  0  2  0  0  3  0  0  0  0  0  0
  162.3380  208.0750  151.5120 C   0  0  0  0  0  2  0  0  0  0  0  0
  161.1960  205.9200  150.9720 C   0  0  0  0  0  2  0  0  0  0  0  0
  161.3460  209.2250  151.3620 C   0  0  2  0  0  3  0  0  0  0  0  0
  160.7060  205.4690  148.0290 C   0  0  0  0  0  2  0  0  0  0  0  0
  162.1730  206.9710  150.4620 C   0  0  1  0  0  3  0  0  0  0  0  0
  161.9420  206.3610  148.0210 C   0  0  0  0  0  2  0  0  0  0  0  0
  160.7570  204.3160  149.0450 C   0  0  1  0  0  3  0  0  0  0  0  0
  162.5940  208.6750  148.6220 C   0  0  0  0  0  2  0  0  0  0  0  0
  161.9620  210.2930  150.4600 C   0  0  0  0  0  2  0  0  0  0  0  0
  160.6740  201.7820  148.6790 C   0  0  0  0  0  0  0  0  0  0  0  0
  161.2080  203.0820  148.4080 N   0  0  0  0  0  2  0  0  0  0  0  0
  159.6990  201.6330  149.4620 O   0  0  0  0  0  0  0  0  0  0  0  0
  161.2750  200.5910  148.0230 C   0  0  0  0  0  1  0  0  0  0  0  0
  161.0820  209.7910  152.6760 N   0  0  0  0  0  2  0  0  0  0  0  0
  159.6970  210.2410  152.6870 C   0  0  0  0  0  2  0  0  0  0  0  0
  159.5480  211.4460  153.6090 C   0  0  2  0  0  3  0  0  0  0  0  0
  159.6300  212.7380  152.8080 C   0  0  0  0  0  2  0  0  0  0  0  0
  157.3190  213.3870  153.2850 C   0  0  0  0  0  2  0  0  0  0  0  0
  158.2720  213.1970  152.3780 C   0  0  0  0  0  0  0  0  0  0  0  0
  157.9810  213.4370  150.9380 C   0  0  0  0  0  1  0  0  0  0  0  0
  160.6490  211.4310  154.6550 C   0  0  0  0  0  2  0  0  0  0  0  0
  160.0850  211.1020  156.0330 C   0  0  1  0  0  3  0  0  0  0  0  0
  158.5570  211.0230  156.0110 C   0  0  0  0  0  2  0  0  0  0  0  0
  157.8850  211.9690  157.0010 C   0  0  0  0  0  2  0  0  0  0  0  0
  158.2870  213.2840  156.7610 O   0  0  0  0  0  1  0  0  0  0  0  0
  160.7210  209.8340  156.6020 C   0  0  0  0  0  2  0  0  0  0  0  0
  159.9140  208.6980  156.3270 O   0  0  0  0  0  0  0  0  0  0  0  0
  160.3160  207.7380  155.4390 C   0  0  0  0  0  0  0  0  0  0  0  0
  160.6730  206.8910  154.6560 C   0  0  0  0  0  3  0  0  0  0  0  0
  1  5  1  0  0  0  0
  2 12  1  0  0  0  0
  3  9  1  6  0  0  0
  3  8  1  0  0  0  0
  6  4  1  0  0  0  0
  6 17  1  1  0  0  0
  7 10  1  0  0  0  0
  8  5  1  1  0  0  0
  8  4  1  0  0  0  0
  9  7  1  0  0  0  0
 10 14  1  6  0  0  0
 10  1  1  0  0  0  0
 11  2  1  0  0  0  0
 11  3  1  0  0  0  0
 12  6  1  0  0  0  0
 13 15  2  0  0  0  0
 14 13  1  0  0  0  0
 16 13  1  0  0  0  0
 17 18  1  0  0  0  0
 19 18  1  6  0  0  0
 19 24  1  0  0  0  0
 20 19  1  0  0  0  0
 22 20  1  0  0  0  0
 22 21  2  0  0  0  0
 23 22  1  0  0  0  0
 25 24  1  6  0  0  0
 25 29  1  0  0  0  0
 26 25  1  0  0  0  0
 26 27  1  0  0  0  0
 28 27  1  0  0  0  0
 30 29  1  0  0  0  0
 31 30  1  0  0  0  0
 32 31  3  0  0  0  0
M  END
>  <MODEL>
6

>  <REMARK>
 VINA RESULT:      -6.4      2.778      5.574
  Name = 
  13 active torsions:
  status: ('A' for Active; 'I' for Inactive)
    1  A    between atoms: C_5  and  C_25
    2  A    between atoms: O_6  and  C_7
    3  A    between atoms: O_6  and  C_32
    4  A    between atoms: N_10  and  C_24
    5  A    between atoms: C_11  and  C_27
    6  A    between atoms: C_11  and  C_30
    7  A    between atoms: C_11  and  C_32
    8  A    between atoms: C_14  and  N_15
    9  A    between atoms: N_15  and  C_26
   10  A    between atoms: C_16  and  C_25
   11  A    between atoms: C_16  and  C_26
   12  A    between atoms: C_16  and  C_27
   13  A    between atoms: C_18  and  C_30
                            x       y       z     vdW  Elec       q    Type
                         _______ _______ _______ _____ _____    ______ ____

>  <TORSDO>
F 13

$$$$
=
 OpenBabel11062410413D

 32 33  0  0  1  0  0  0  0  0999 V2000
  161.9770  206.5770  147.4220 C   0  0  0  0  0  2  0  0  0  0  0  0
  161.0280  202.7000  151.2800 C   0  0  0  0  0  2  0  0  0  0  0  0
  161.3990  204.0130  149.2060 C   0  0  2  0  0  3  0  0  0  0  0  0
  160.6660  205.8420  150.8890 C   0  0  0  0  0  2  0  0  0  0  0  0
  162.1000  206.4270  148.9290 C   0  0  0  0  0  2  0  0  0  0  0  0
  161.5070  205.1040  151.9280 C   0  0  2  0  0  3  0  0  0  0  0  0
  162.7670  204.0990  147.1290 C   0  0  0  0  0  2  0  0  0  0  0  0
  161.0170  205.4860  149.4390 C   0  0  1  0  0  3  0  0  0  0  0  0
  161.4270  203.6790  147.7220 C   0  0  0  0  0  2  0  0  0  0  0  0
  162.8230  205.5590  146.6480 C   0  0  1  0  0  3  0  0  0  0  0  0
  160.4560  203.0520  149.9140 C   0  0  0  0  0  2  0  0  0  0  0  0
  160.7950  203.8050  152.3050 C   0  0  0  0  0  2  0  0  0  0  0  0
  161.2590  205.6750  144.6230 C   0  0  0  0  0  0  0  0  0  0  0  0
  162.5630  205.6430  145.2140 N   0  0  0  0  0  2  0  0  0  0  0  0
  160.2240  205.7020  145.3380 O   0  0  0  0  0  0  0  0  0  0  0  0
  161.1260  205.6790  143.1420 C   0  0  0  0  0  1  0  0  0  0  0  0
  161.6400  205.9450  153.1070 N   0  0  0  0  0  2  0  0  0  0  0  0
  160.8680  207.1570  152.8680 C   0  0  0  0  0  2  0  0  0  0  0  0
  161.2060  208.2060  153.9220 C   0  0  2  0  0  3  0  0  0  0  0  0
  160.1630  208.1990  155.0300 C   0  0  0  0  0  2  0  0  0  0  0  0
  161.8940  208.5200  156.7300 C   0  0  0  0  0  2  0  0  0  0  0  0
  160.7830  207.8930  156.3570 C   0  0  0  0  0  0  0  0  0  0  0  0
  160.1650  206.8840  157.2610 C   0  0  0  0  0  1  0  0  0  0  0  0
  161.2510  209.5820  153.2800 C   0  0  0  0  0  2  0  0  0  0  0  0
  160.1810  210.4930  153.8730 C   0  0  1  0  0  3  0  0  0  0  0  0
  160.7940  211.5720  154.7690 C   0  0  0  0  0  2  0  0  0  0  0  0
  160.0690  211.7420  156.0990 C   0  0  0  0  0  2  0  0  0  0  0  0
  160.3240  213.0070  156.6310 O   0  0  0  0  0  1  0  0  0  0  0  0
  159.2920  211.0860  152.7790 C   0  0  0  0  0  2  0  0  0  0  0  0
  159.1810  212.4940  152.9290 O   0  0  0  0  0  0  0  0  0  0  0  0
  158.3580  213.2320  152.1220 C   0  0  0  0  0  0  0  0  0  0  0  0
  157.6330  213.8830  151.4080 C   0  0  0  0  0  3  0  0  0  0  0  0
  1  5  1  0  0  0  0
  2 12  1  0  0  0  0
  3  9  1  6  0  0  0
  3  8  1  0  0  0  0
  3 11  1  0  0  0  0
  4  6  1  0  0  0  0
  6 12  1  0  0  0  0
  6 17  1  1  0  0  0
  7  9  1  0  0  0  0
  8  5  1  1  0  0  0
  8  4  1  0  0  0  0
 10 14  1  6  0  0  0
 10  7  1  0  0  0  0
 10  1  1  0  0  0  0
 11  2  1  0  0  0  0
 13 14  1  0  0  0  0
 13 15  2  0  0  0  0
 16 13  1  0  0  0  0
 18 17  1  0  0  0  0
 19 18  1  6  0  0  0
 19 20  1  0  0  0  0
 20 22  1  0  0  0  0
 22 21  2  0  0  0  0
 22 23  1  0  0  0  0
 24 25  1  0  0  0  0
 24 19  1  0  0  0  0
 25 29  1  6  0  0  0
 25 26  1  0  0  0  0
 26 27  1  0  0  0  0
 27 28  1  0  0  0  0
 29 30  1  0  0  0  0
 31 30  1  0  0  0  0
 32 31  3  0  0  0  0
M  END
>  <MODEL>
7

>  <REMARK>
 VINA RESULT:      -6.3      1.490      2.515
  Name = 
  13 active torsions:
  status: ('A' for Active; 'I' for Inactive)
    1  A    between atoms: C_5  and  C_25
    2  A    between atoms: O_6  and  C_7
    3  A    between atoms: O_6  and  C_32
    4  A    between atoms: N_10  and  C_24
    5  A    between atoms: C_11  and  C_27
    6  A    between atoms: C_11  and  C_30
    7  A    between atoms: C_11  and  C_32
    8  A    between atoms: C_14  and  N_15
    9  A    between atoms: N_15  and  C_26
   10  A    between atoms: C_16  and  C_25
   11  A    between atoms: C_16  and  C_26
   12  A    between atoms: C_16  and  C_27
   13  A    between atoms: C_18  and  C_30
                            x       y       z     vdW  Elec       q    Type
                         _______ _______ _______ _____ _____    ______ ____

>  <TORSDO>
F 13

$$$$
=
 OpenBabel11062410413D

 32 33  0  0  1  0  0  0  0  0999 V2000
  160.8940  205.0410  147.1080 C   0  0  0  0  0  2  0  0  0  0  0  0
  161.2840  204.1880  152.5800 C   0  0  0  0  0  2  0  0  0  0  0  0
  160.9890  204.0340  150.1200 C   0  0  2  0  0  3  0  0  0  0  0  0
  160.6300  206.5630  150.5580 C   0  0  0  0  0  2  0  0  0  0  0  0
  161.4330  205.7660  148.3310 C   0  0  0  0  0  2  0  0  0  0  0  0
  161.7670  206.4630  151.5710 C   0  0  2  0  0  3  0  0  0  0  0  0
  161.7290  202.7710  148.1070 C   0  0  0  0  0  2  0  0  0  0  0  0
  160.5920  205.4080  149.5490 C   0  0  1  0  0  3  0  0  0  0  0  0
  160.6320  202.9130  149.1550 C   0  0  0  0  0  2  0  0  0  0  0  0
  161.5590  203.6790  146.8780 C   0  0  1  0  0  3  0  0  0  0  0  0
  160.3380  203.7570  151.4670 C   0  0  0  0  0  2  0  0  0  0  0  0
  161.2690  205.6970  152.7960 C   0  0  0  0  0  2  0  0  0  0  0  0
  160.6570  201.5500  145.7770 C   0  0  0  0  0  0  0  0  0  0  0  0
  160.9120  202.9580  145.7860 N   0  0  0  0  0  2  0  0  0  0  0  0
  160.9240  200.8370  146.7800 O   0  0  0  0  0  0  0  0  0  0  0  0
  160.0640  200.9190  144.5680 C   0  0  0  0  0  1  0  0  0  0  0  0
  162.1640  207.8050  151.9640 N   0  0  0  0  0  2  0  0  0  0  0  0
  160.9470  208.5590  152.2340 C   0  0  0  0  0  2  0  0  0  0  0  0
  161.1930  210.0460  152.0030 C   0  0  2  0  0  3  0  0  0  0  0  0
  162.4450  210.2510  151.1620 C   0  0  0  0  0  2  0  0  0  0  0  0
  161.8180  211.7610  149.3420 C   0  0  0  0  0  2  0  0  0  0  0  0
  162.1000  210.5230  149.7320 C   0  0  0  0  0  0  0  0  0  0  0  0
  162.0640  209.4090  148.7440 C   0  0  0  0  0  1  0  0  0  0  0  0
  161.3600  210.7510  153.3380 C   0  0  0  0  0  2  0  0  0  0  0  0
  160.2000  210.4280  154.2730 C   0  0  1  0  0  3  0  0  0  0  0  0
  160.6940  210.0210  155.6630 C   0  0  0  0  0  2  0  0  0  0  0  0
  161.1410  208.5640  155.7460 C   0  0  0  0  0  2  0  0  0  0  0  0
  160.0400  207.7140  155.6290 O   0  0  0  0  0  1  0  0  0  0  0  0
  159.1990  211.5820  154.3310 C   0  0  0  0  0  2  0  0  0  0  0  0
  158.3210  211.5450  153.2150 O   0  0  0  0  0  0  0  0  0  0  0  0
  158.4370  212.4430  152.1900 C   0  0  0  0  0  0  0  0  0  0  0  0
  158.5360  213.2360  151.2840 C   0  0  0  0  0  3  0  0  0  0  0  0
  1  5  1  0  0  0  0
  2 12  1  0  0  0  0
  3  9  1  6  0  0  0
  3 11  1  0  0  0  0
  4  6  1  0  0  0  0
  6 17  1  1  0  0  0
  6 12  1  0  0  0  0
  7  9  1  0  0  0  0
  8  5  1  6  0  0  0
  8  3  1  0  0  0  0
  8  4  1  0  0  0  0
 10 14  1  6  0  0  0
 10  1  1  0  0  0  0
 10  7  1  0  0  0  0
 11  2  1  0  0  0  0
 13 14  1  0  0  0  0
 13 15  2  0  0  0  0
 16 13  1  0  0  0  0
 17 18  1  0  0  0  0
 19 20  1  6  0  0  0
 19 18  1  0  0  0  0
 19 24  1  0  0  0  0
 21 22  2  0  0  0  0
 22 20  1  0  0  0  0
 23 22  1  0  0  0  0
 25 24  1  6  0  0  0
 25 29  1  0  0  0  0
 25 26  1  0  0  0  0
 26 27  1  0  0  0  0
 28 27  1  0  0  0  0
 30 29  1  0  0  0  0
 31 30  1  0  0  0  0
 32 31  3  0  0  0  0
M  END
>  <MODEL>
8

>  <REMARK>
 VINA RESULT:      -6.2      2.160      4.058
  Name = 
  13 active torsions:
  status: ('A' for Active; 'I' for Inactive)
    1  A    between atoms: C_5  and  C_25
    2  A    between atoms: O_6  and  C_7
    3  A    between atoms: O_6  and  C_32
    4  A    between atoms: N_10  and  C_24
    5  A    between atoms: C_11  and  C_27
    6  A    between atoms: C_11  and  C_30
    7  A    between atoms: C_11  and  C_32
    8  A    between atoms: C_14  and  N_15
    9  A    between atoms: N_15  and  C_26
   10  A    between atoms: C_16  and  C_25
   11  A    between atoms: C_16  and  C_26
   12  A    between atoms: C_16  and  C_27
   13  A    between atoms: C_18  and  C_30
                            x       y       z     vdW  Elec       q    Type
                         _______ _______ _______ _____ _____    ______ ____

>  <TORSDO>
F 13

$$$$
=
 OpenBabel11062410413D

 32 33  0  0  1  0  0  0  0  0999 V2000
  161.3180  204.1310  150.4700 C   0  0  0  0  0  2  0  0  0  0  0  0
  161.7680  209.6150  149.7370 C   0  0  0  0  0  2  0  0  0  0  0  0
  161.7140  207.1410  149.5360 C   0  0  2  0  0  3  0  0  0  0  0  0
  161.9860  207.4790  152.0910 C   0  0  0  0  0  2  0  0  0  0  0  0
  160.9190  205.4060  151.1950 C   0  0  0  0  0  2  0  0  0  0  0  0
  161.0140  208.6470  151.9550 C   0  0  2  0  0  3  0  0  0  0  0  0
  160.7670  205.2790  148.1830 C   0  0  0  0  0  2  0  0  0  0  0  0
  161.9450  206.4960  150.9150 C   0  0  1  0  0  3  0  0  0  0  0  0
  161.9940  206.1550  148.4120 C   0  0  0  0  0  2  0  0  0  0  0  0
  160.7070  204.0230  149.0680 C   0  0  1  0  0  3  0  0  0  0  0  0
  162.5670  208.3840  149.3300 C   0  0  0  0  0  2  0  0  0  0  0  0
  161.7260  209.8010  151.2500 C   0  0  0  0  0  2  0  0  0  0  0  0
  160.7850  201.5150  148.5540 C   0  0  0  0  0  0  0  0  0  0  0  0
  161.2300  202.8610  148.3560 N   0  0  0  0  0  2  0  0  0  0  0  0
  159.8310  201.2560  149.3330 O   0  0  0  0  0  0  0  0  0  0  0  0
  161.4560  200.4060  147.8250 C   0  0  0  0  0  1  0  0  0  0  0  0
  160.6010  209.0710  153.2840 N   0  0  0  0  0  2  0  0  0  0  0  0
  160.1890  210.4640  153.1900 C   0  0  0  0  0  2  0  0  0  0  0  0
  160.5770  211.2100  154.4620 C   0  0  2  0  0  3  0  0  0  0  0  0
  160.3980  210.3110  155.6780 C   0  0  0  0  0  2  0  0  0  0  0  0
  161.8240  208.6250  156.7320 C   0  0  0  0  0  2  0  0  0  0  0  0
  161.7170  209.8380  156.2010 C   0  0  0  0  0  0  0  0  0  0  0  0
  162.9120  210.7250  156.1370 C   0  0  0  0  0  1  0  0  0  0  0  0
  159.7090  212.4470  154.6170 C   0  0  0  0  0  2  0  0  0  0  0  0
  158.3220  212.2160  154.0260 C   0  0  1  0  0  3  0  0  0  0  0  0
  157.2320  212.3050  155.0970 C   0  0  0  0  0  2  0  0  0  0  0  0
  156.6400  210.9510  155.4760 C   0  0  0  0  0  2  0  0  0  0  0  0
  155.4940  210.6970  154.7220 O   0  0  0  0  0  1  0  0  0  0  0  0
  158.0580  213.1580  152.8520 C   0  0  0  0  0  2  0  0  0  0  0  0
  159.2630  213.7720  152.4170 O   0  0  0  0  0  0  0  0  0  0  0  0
  159.7430  213.5760  151.1510 C   0  0  0  0  0  0  0  0  0  0  0  0
  160.1690  213.4040  150.0340 C   0  0  0  0  0  3  0  0  0  0  0  0
  1  5  1  0  0  0  0
  2 12  1  0  0  0  0
  3  9  1  6  0  0  0
  3  8  1  0  0  0  0
  6  4  1  0  0  0  0
  6 17  1  1  0  0  0
  7  9  1  0  0  0  0
  7 10  1  0  0  0  0
  8  5  1  1  0  0  0
  8  4  1  0  0  0  0
 10 14  1  6  0  0  0
 10  1  1  0  0  0  0
 11  3  1  0  0  0  0
 11  2  1  0  0  0  0
 12  6  1  0  0  0  0
 13 15  2  0  0  0  0
 14 13  1  0  0  0  0
 16 13  1  0  0  0  0
 18 17  1  0  0  0  0
 19 18  1  6  0  0  0
 19 24  1  0  0  0  0
 19 20  1  0  0  0  0
 20 22  1  0  0  0  0
 22 21  2  0  0  0  0
 23 22  1  0  0  0  0
 25 29  1  6  0  0  0
 25 24  1  0  0  0  0
 25 26  1  0  0  0  0
 26 27  1  0  0  0  0
 28 27  1  0  0  0  0
 30 29  1  0  0  0  0
 31 30  1  0  0  0  0
 32 31  3  0  0  0  0
M  END
>  <MODEL>
9

>  <REMARK>
 VINA RESULT:      -6.2      2.641      4.996
  Name = 
  13 active torsions:
  status: ('A' for Active; 'I' for Inactive)
    1  A    between atoms: C_5  and  C_25
    2  A    between atoms: O_6  and  C_7
    3  A    between atoms: O_6  and  C_32
    4  A    between atoms: N_10  and  C_24
    5  A    between atoms: C_11  and  C_27
    6  A    between atoms: C_11  and  C_30
    7  A    between atoms: C_11  and  C_32
    8  A    between atoms: C_14  and  N_15
    9  A    between atoms: N_15  and  C_26
   10  A    between atoms: C_16  and  C_25
   11  A    between atoms: C_16  and  C_26
   12  A    between atoms: C_16  and  C_27
   13  A    between atoms: C_18  and  C_30
                            x       y       z     vdW  Elec       q    Type
                         _______ _______ _______ _____ _____    ______ ____

>  <TORSDO>
F 13

$$$$
