=
 OpenBabel11062407433D

 34 39  0  0  1  0  0  0  0  0999 V2000
  160.9810  203.3580  150.6320 C   0  0  0  0  0  0  0  0  0  0  0  0
  161.2450  204.0570  148.3110 C   0  0  0  0  0  0  0  0  0  0  0  0
  161.2730  205.7290  150.1080 C   0  0  0  0  0  0  0  0  0  0  0  0
  161.6700  208.0700  149.6370 C   0  0  0  0  0  0  0  0  0  0  0  0
  161.0060  201.7080  148.8600 C   0  0  0  0  0  3  0  0  0  0  0  0
  161.1550  202.7210  147.9090 C   0  0  0  0  0  3  0  0  0  0  0  0
  161.9850  206.3860  147.7750 C   0  0  0  0  0  2  0  0  0  0  0  0
  161.1710  204.3860  149.6800 C   0  0  0  0  0  0  0  0  0  0  0  0
  160.9120  202.0260  150.2170 C   0  0  0  0  0  3  0  0  0  0  0  0
  161.0900  206.0490  151.4760 C   0  0  0  0  0  0  0  0  0  0  0  0
  160.8460  203.6750  151.9820 C   0  0  0  0  0  3  0  0  0  0  0  0
  161.2610  205.1380  147.2720 C   0  0  0  0  0  2  0  0  0  0  0  0
  161.4540  208.3540  150.9480 N   0  0  0  0  0  0  0  0  0  0  0  0
  161.1600  207.4060  151.8800 C   0  0  0  0  0  0  0  0  0  0  0  0
  161.5840  206.7450  149.1850 C   0  0  0  0  0  0  0  0  0  0  0  0
  160.8930  205.0060  152.3980 C   0  0  0  0  0  3  0  0  0  0  0  0
  160.5250  207.4080  155.6360 C   0  0  0  0  0  0  0  0  0  0  0  0
  160.4660  208.7790  155.8950 C   0  0  0  0  0  3  0  0  0  0  0  0
  160.9470  207.8610  153.2810 C   0  0  0  0  0  0  0  0  0  0  0  0
  160.6370  209.6930  154.8540 C   0  0  0  0  0  3  0  0  0  0  0  0
  160.7580  206.9530  154.3350 C   0  0  0  0  0  3  0  0  0  0  0  0
  160.8700  209.2360  153.5540 C   0  0  0  0  0  3  0  0  0  0  0  0
  160.3540  206.5200  156.6440 F   0  0  0  0  0  0  0  0  0  0  0  0
  162.0390  209.1820  148.7120 C   0  0  0  0  0  2  0  0  0  0  0  0
  161.9820  210.5100  149.4480 C   0  0  0  0  0  2  0  0  0  0  0  0
  162.0990  211.6590  148.4650 C   0  0  0  0  0  2  0  0  0  0  0  0
  161.1960  212.8070  148.8890 C   0  0  0  0  0  2  0  0  0  0  0  0
  158.4010  213.5760  149.5840 C   0  0  0  0  0  1  0  0  0  0  0  0
  160.2500  213.1770  147.7560 C   0  0  2  0  0  3  0  0  0  0  0  0
  158.7940  213.2110  148.1920 C   0  0  0  0  0  0  0  0  0  0  0  0
  158.1530  212.7220  145.8830 C   0  0  0  0  0  3  0  0  0  0  0  0
  159.3940  212.3600  145.5450 C   0  0  0  0  0  3  0  0  0  0  0  0
  160.4520  212.1910  146.5990 C   0  0  0  0  0  2  0  0  0  0  0  0
  157.8260  213.0500  147.2830 C   0  0  0  0  0  3  0  0  0  0  0  0
  1 11  1  0  0  0  0
  2  8  1  0  0  0  0
  3 10  1  0  0  0  0
  4 13  2  0  0  0  0
  5  9  2  0  0  0  0
  6  2  2  0  0  0  0
  6  5  1  0  0  0  0
  7 15  1  0  0  0  0
  8  3  1  0  0  0  0
  8  1  2  0  0  0  0
  9  1  1  0  0  0  0
 10 14  2  0  0  0  0
 10 16  1  0  0  0  0
 11 16  2  0  0  0  0
 12  7  1  0  0  0  0
 12  2  1  0  0  0  0
 13 14  1  0  0  0  0
 14 19  1  0  0  0  0
 15  4  1  0  0  0  0
 15  3  2  0  0  0  0
 17 18  1  0  0  0  0
 17 23  1  0  0  0  0
 19 22  2  0  0  0  0
 19 21  1  0  0  0  0
 20 18  2  0  0  0  0
 21 17  2  0  0  0  0
 22 20  1  0  0  0  0
 24 25  1  0  0  0  0
 24  4  1  0  0  0  0
 26 27  1  0  0  0  0
 26 25  1  0  0  0  0
 29 30  1  0  0  0  0
 29 27  1  1  0  0  0
 30 28  1  0  0  0  0
 31 34  1  0  0  0  0
 32 31  2  0  0  0  0
 32 33  1  0  0  0  0
 33 29  1  0  0  0  0
 34 30  2  0  0  0  0
M  END
>  <MODEL>
1

>  <REMARK>
 VINA RESULT:     -11.8      0.000      0.000
  Name = 
  6 active torsions:
  status: ('A' for Active; 'I' for Inactive)
    1  A    between atoms: C_3  and  C_13
    2  A    between atoms: C_3  and  C_17
    3  A    between atoms: C_5  and  C_18
    4  A    between atoms: C_12  and  C_28
    5  A    between atoms: C_17  and  C_29
    6  A    between atoms: C_18  and  C_29
                            x       y       z     vdW  Elec       q    Type
                         _______ _______ _______ _____ _____    ______ ____

>  <TORSDO>
F 6

$$$$
=
 OpenBabel11062407433D

 34 39  0  0  1  0  0  0  0  0999 V2000
  160.8740  209.6800  153.6070 C   0  0  0  0  0  0  0  0  0  0  0  0
  161.1010  207.2800  153.2460 C   0  0  0  0  0  0  0  0  0  0  0  0
  161.5240  208.8440  151.4020 C   0  0  0  0  0  0  0  0  0  0  0  0
  162.2740  208.0590  149.2390 C   0  0  0  0  0  0  0  0  0  0  0  0
  160.5100  208.1370  155.4350 C   0  0  0  0  0  3  0  0  0  0  0  0
  160.7650  207.0580  154.5840 C   0  0  0  0  0  3  0  0  0  0  0  0
  162.1830  206.4170  151.1610 C   0  0  0  0  0  2  0  0  0  0  0  0
  161.1720  208.5970  152.7480 C   0  0  0  0  0  0  0  0  0  0  0  0
  160.5580  209.4440  154.9460 C   0  0  0  0  0  3  0  0  0  0  0  0
  161.4850  210.1660  150.8940 C   0  0  0  0  0  0  0  0  0  0  0  0
  160.8810  210.9830  153.1120 C   0  0  0  0  0  3  0  0  0  0  0  0
  161.2300  206.1110  152.3160 C   0  0  0  0  0  2  0  0  0  0  0  0
  162.1930  209.3300  148.7670 N   0  0  0  0  0  0  0  0  0  0  0  0
  161.8060  210.3890  149.5310 C   0  0  0  0  0  0  0  0  0  0  0  0
  161.9400  207.7850  150.5730 C   0  0  0  0  0  0  0  0  0  0  0  0
  161.1760  211.2220  151.7690 C   0  0  0  0  0  3  0  0  0  0  0  0
  160.5610  213.7270  148.1840 C   0  0  0  0  0  0  0  0  0  0  0  0
  161.7170  214.2150  147.5710 C   0  0  0  0  0  3  0  0  0  0  0  0
  161.7620  211.7270  148.8820 C   0  0  0  0  0  0  0  0  0  0  0  0
  162.8930  213.4630  147.6030 C   0  0  0  0  0  3  0  0  0  0  0  0
  160.5820  212.4880  148.8300 C   0  0  0  0  0  3  0  0  0  0  0  0
  162.9130  212.2240  148.2500 C   0  0  0  0  0  3  0  0  0  0  0  0
  159.4180  214.4530  148.1500 F   0  0  0  0  0  0  0  0  0  0  0  0
  162.7630  206.9840  148.3270 C   0  0  0  0  0  2  0  0  0  0  0  0
  161.7940  206.8050  147.1690 C   0  0  0  0  0  2  0  0  0  0  0  0
  160.7610  205.7470  147.5080 C   0  0  0  0  0  2  0  0  0  0  0  0
  161.1720  204.4050  146.9260 C   0  0  0  0  0  2  0  0  0  0  0  0
  160.8620  201.4970  146.3500 C   0  0  0  0  0  1  0  0  0  0  0  0
  161.4670  203.4150  148.0440 C   0  0  2  0  0  3  0  0  0  0  0  0
  160.9500  202.0170  147.7450 C   0  0  0  0  0  0  0  0  0  0  0  0
  160.8020  201.6210  150.1540 C   0  0  0  0  0  3  0  0  0  0  0  0
  160.9270  202.9190  150.4420 C   0  0  0  0  0  3  0  0  0  0  0  0
  160.8710  203.9520  149.3510 C   0  0  0  0  0  2  0  0  0  0  0  0
  160.6980  201.1740  148.7520 C   0  0  0  0  0  3  0  0  0  0  0  0
  1  9  2  0  0  0  0
  2  6  1  0  0  0  0
  3  8  1  0  0  0  0
  4 15  1  0  0  0  0
  6  5  2  0  0  0  0
  7 12  1  0  0  0  0
  8  2  2  0  0  0  0
  8  1  1  0  0  0  0
  9  5  1  0  0  0  0
 10  3  1  0  0  0  0
 10 16  1  0  0  0  0
 11  1  1  0  0  0  0
 12  2  1  0  0  0  0
 13  4  2  0  0  0  0
 13 14  1  0  0  0  0
 14 10  2  0  0  0  0
 15  7  1  0  0  0  0
 15  3  2  0  0  0  0
 16 11  2  0  0  0  0
 17 21  1  0  0  0  0
 18 20  1  0  0  0  0
 18 17  2  0  0  0  0
 19 14  1  0  0  0  0
 20 22  2  0  0  0  0
 21 19  2  0  0  0  0
 22 19  1  0  0  0  0
 23 17  1  0  0  0  0
 24  4  1  0  0  0  0
 25 26  1  0  0  0  0
 25 24  1  0  0  0  0
 27 26  1  0  0  0  0
 28 30  1  0  0  0  0
 29 27  1  6  0  0  0
 29 33  1  0  0  0  0
 30 29  1  0  0  0  0
 30 34  2  0  0  0  0
 31 32  2  0  0  0  0
 33 32  1  0  0  0  0
 34 31  1  0  0  0  0
M  END
>  <MODEL>
2

>  <REMARK>
 VINA RESULT:     -11.2      2.476      7.821
  Name = 
  6 active torsions:
  status: ('A' for Active; 'I' for Inactive)
    1  A    between atoms: C_3  and  C_13
    2  A    between atoms: C_3  and  C_17
    3  A    between atoms: C_5  and  C_18
    4  A    between atoms: C_12  and  C_28
    5  A    between atoms: C_17  and  C_29
    6  A    between atoms: C_18  and  C_29
                            x       y       z     vdW  Elec       q    Type
                         _______ _______ _______ _____ _____    ______ ____

>  <TORSDO>
F 6

$$$$
=
 OpenBabel11062407433D

 34 39  0  0  1  0  0  0  0  0999 V2000
  161.7750  209.1630  151.3090 C   0  0  0  0  0  0  0  0  0  0  0  0
  161.2190  207.9360  153.3420 C   0  0  0  0  0  0  0  0  0  0  0  0
  161.3660  206.7540  151.1960 C   0  0  0  0  0  0  0  0  0  0  0  0
  161.0760  204.3540  151.0640 C   0  0  0  0  0  0  0  0  0  0  0  0
  161.6790  210.3140  153.4360 C   0  0  0  0  0  3  0  0  0  0  0  0
  161.3250  209.1220  154.0740 C   0  0  0  0  0  3  0  0  0  0  0  0
  161.2330  205.4350  153.3460 C   0  0  0  0  0  2  0  0  0  0  0  0
  161.4560  207.9440  151.9520 C   0  0  0  0  0  0  0  0  0  0  0  0
  161.8970  210.3360  152.0570 C   0  0  0  0  0  3  0  0  0  0  0  0
  161.5030  206.8020  149.7860 C   0  0  0  0  0  0  0  0  0  0  0  0
  161.9520  209.1950  149.9270 C   0  0  0  0  0  3  0  0  0  0  0  0
  160.7000  206.7010  154.0140 C   0  0  0  0  0  2  0  0  0  0  0  0
  161.1750  204.4330  149.7110 N   0  0  0  0  0  0  0  0  0  0  0  0
  161.3740  205.6020  149.0420 C   0  0  0  0  0  0  0  0  0  0  0  0
  161.1700  205.5180  151.8410 C   0  0  0  0  0  0  0  0  0  0  0  0
  161.8110  208.0290  149.1750 C   0  0  0  0  0  3  0  0  0  0  0  0
  162.6100  204.9070  145.5060 C   0  0  0  0  0  0  0  0  0  0  0  0
  161.6120  205.5250  144.7490 C   0  0  0  0  0  3  0  0  0  0  0  0
  161.4600  205.5400  147.5580 C   0  0  0  0  0  0  0  0  0  0  0  0
  160.5440  206.1580  145.3880 C   0  0  0  0  0  3  0  0  0  0  0  0
  162.5370  204.9200  146.9020 C   0  0  0  0  0  3  0  0  0  0  0  0
  160.4730  206.1690  146.7830 C   0  0  0  0  0  3  0  0  0  0  0  0
  163.6490  204.2970  144.8890 F   0  0  0  0  0  0  0  0  0  0  0  0
  160.9120  203.0120  151.6960 C   0  0  0  0  0  2  0  0  0  0  0  0
  161.7240  201.9770  150.9350 C   0  0  0  0  0  2  0  0  0  0  0  0
  160.8170  201.1490  150.0460 C   0  0  0  0  0  2  0  0  0  0  0  0
  161.5570  200.7300  148.7850 C   0  0  0  0  0  2  0  0  0  0  0  0
  161.8150  198.6880  146.6290 C   0  0  0  0  0  1  0  0  0  0  0  0
  160.6390  200.8420  147.5760 C   0  0  2  0  0  3  0  0  0  0  0  0
  161.0900  199.9740  146.4130 C   0  0  0  0  0  0  0  0  0  0  0  0
  159.9650  201.5270  144.8950 C   0  0  0  0  0  3  0  0  0  0  0  0
  159.8450  202.4650  145.8380 C   0  0  0  0  0  3  0  0  0  0  0  0
  160.5490  202.3140  147.1580 C   0  0  0  0  0  2  0  0  0  0  0  0
  160.7140  200.2860  145.1680 C   0  0  0  0  0  3  0  0  0  0  0  0
  1  8  1  0  0  0  0
  1  9  2  0  0  0  0
  2 12  1  0  0  0  0
  2  6  1  0  0  0  0
  3 15  1  0  0  0  0
  3  8  1  0  0  0  0
  4 24  1  0  0  0  0
  4 15  2  0  0  0  0
  5  6  2  0  0  0  0
  7 12  1  0  0  0  0
  8  2  2  0  0  0  0
  9  5  1  0  0  0  0
 10  3  2  0  0  0  0
 11  1  1  0  0  0  0
 13  4  1  0  0  0  0
 14 13  2  0  0  0  0
 14 10  1  0  0  0  0
 15  7  1  0  0  0  0
 16 10  1  0  0  0  0
 16 11  2  0  0  0  0
 17 21  1  0  0  0  0
 18 20  1  0  0  0  0
 18 17  2  0  0  0  0
 19 14  1  0  0  0  0
 20 22  2  0  0  0  0
 21 19  2  0  0  0  0
 22 19  1  0  0  0  0
 23 17  1  0  0  0  0
 25 24  1  0  0  0  0
 26 25  1  0  0  0  0
 27 26  1  0  0  0  0
 29 27  1  1  0  0  0
 30 28  1  0  0  0  0
 30 29  1  0  0  0  0
 31 34  1  0  0  0  0
 31 32  2  0  0  0  0
 32 33  1  0  0  0  0
 33 29  1  0  0  0  0
 34 30  2  0  0  0  0
M  END
>  <MODEL>
3

>  <REMARK>
 VINA RESULT:     -10.5      3.608      8.849
  Name = 
  6 active torsions:
  status: ('A' for Active; 'I' for Inactive)
    1  A    between atoms: C_3  and  C_13
    2  A    between atoms: C_3  and  C_17
    3  A    between atoms: C_5  and  C_18
    4  A    between atoms: C_12  and  C_28
    5  A    between atoms: C_17  and  C_29
    6  A    between atoms: C_18  and  C_29
                            x       y       z     vdW  Elec       q    Type
                         _______ _______ _______ _____ _____    ______ ____

>  <TORSDO>
F 6

$$$$
=
 OpenBabel11062407433D

 34 39  0  0  1  0  0  0  0  0999 V2000
  160.9270  206.3110  152.5420 C   0  0  0  0  0  0  0  0  0  0  0  0
  161.4360  208.5490  153.3660 C   0  0  0  0  0  0  0  0  0  0  0  0
  161.4810  208.0880  150.9560 C   0  0  0  0  0  0  0  0  0  0  0  0
  161.9160  209.8480  149.3510 C   0  0  0  0  0  0  0  0  0  0  0  0
  160.8340  206.7830  154.9140 C   0  0  0  0  0  3  0  0  0  0  0  0
  161.2190  208.1050  154.6740 C   0  0  0  0  0  3  0  0  0  0  0  0
  161.5670  210.4760  151.7760 C   0  0  0  0  0  2  0  0  0  0  0  0
  161.2790  207.6560  152.2860 C   0  0  0  0  0  0  0  0  0  0  0  0
  160.6940  205.8870  153.8520 C   0  0  0  0  0  3  0  0  0  0  0  0
  161.4220  207.1520  149.8940 C   0  0  0  0  0  0  0  0  0  0  0  0
  160.8280  205.4050  151.4880 C   0  0  0  0  0  3  0  0  0  0  0  0
  161.9870  209.9250  153.1380 C   0  0  0  0  0  2  0  0  0  0  0  0
  161.8910  208.9240  148.3550 N   0  0  0  0  0  0  0  0  0  0  0  0
  161.6630  207.5990  148.5690 C   0  0  0  0  0  0  0  0  0  0  0  0
  161.7110  209.4490  150.6800 C   0  0  0  0  0  0  0  0  0  0  0  0
  161.0790  205.8200  150.1800 C   0  0  0  0  0  3  0  0  0  0  0  0
  162.7550  205.0750  145.9330 C   0  0  0  0  0  0  0  0  0  0  0  0
  161.6450  205.0780  145.0860 C   0  0  0  0  0  3  0  0  0  0  0  0
  161.6660  206.6990  147.3840 C   0  0  0  0  0  0  0  0  0  0  0  0
  160.5490  205.8930  145.3760 C   0  0  0  0  0  3  0  0  0  0  0  0
  162.7670  205.8850  147.0720 C   0  0  0  0  0  3  0  0  0  0  0  0
  160.5630  206.7020  146.5150 C   0  0  0  0  0  3  0  0  0  0  0  0
  163.8210  204.2890  145.6510 F   0  0  0  0  0  0  0  0  0  0  0  0
  162.1220  211.2820  148.9950 C   0  0  0  0  0  2  0  0  0  0  0  0
  161.4160  211.6000  147.6870 C   0  0  0  0  0  2  0  0  0  0  0  0
  162.0940  212.7660  146.9940 C   0  0  0  0  0  2  0  0  0  0  0  0
  161.0560  213.6780  146.3630 C   0  0  0  0  0  2  0  0  0  0  0  0
  158.7080  212.3600  145.0840 C   0  0  0  0  0  1  0  0  0  0  0  0
  161.0600  213.5130  144.8500 C   0  0  2  0  0  3  0  0  0  0  0  0
  160.0000  212.5400  144.3600 C   0  0  0  0  0  0  0  0  0  0  0  0
  161.3980  212.0950  142.4040 C   0  0  0  0  0  3  0  0  0  0  0  0
  162.4700  212.6690  142.9560 C   0  0  0  0  0  3  0  0  0  0  0  0
  162.4590  213.0690  144.4050 C   0  0  0  0  0  2  0  0  0  0  0  0
  160.1560  211.9280  143.1820 C   0  0  0  0  0  3  0  0  0  0  0  0
  1  9  2  0  0  0  0
  2  6  1  0  0  0  0
  3  8  1  0  0  0  0
  4 15  2  0  0  0  0
  6  5  2  0  0  0  0
  7 12  1  0  0  0  0
  8  1  1  0  0  0  0
  8  2  2  0  0  0  0
  9  5  1  0  0  0  0
 10 16  1  0  0  0  0
 10  3  2  0  0  0  0
 11  1  1  0  0  0  0
 12  2  1  0  0  0  0
 13 14  2  0  0  0  0
 13  4  1  0  0  0  0
 14 10  1  0  0  0  0
 15  3  1  0  0  0  0
 15  7  1  0  0  0  0
 16 11  2  0  0  0  0
 17 21  1  0  0  0  0
 18 20  1  0  0  0  0
 18 17  2  0  0  0  0
 19 14  1  0  0  0  0
 20 22  2  0  0  0  0
 21 19  2  0  0  0  0
 22 19  1  0  0  0  0
 23 17  1  0  0  0  0
 24  4  1  0  0  0  0
 25 24  1  0  0  0  0
 26 25  1  0  0  0  0
 27 26  1  0  0  0  0
 29 27  1  1  0  0  0
 30 29  1  0  0  0  0
 30 28  1  0  0  0  0
 31 32  2  0  0  0  0
 31 34  1  0  0  0  0
 32 33  1  0  0  0  0
 33 29  1  0  0  0  0
 34 30  2  0  0  0  0
M  END
>  <MODEL>
4

>  <REMARK>
 VINA RESULT:     -10.3      2.785      5.819
  Name = 
  6 active torsions:
  status: ('A' for Active; 'I' for Inactive)
    1  A    between atoms: C_3  and  C_13
    2  A    between atoms: C_3  and  C_17
    3  A    between atoms: C_5  and  C_18
    4  A    between atoms: C_12  and  C_28
    5  A    between atoms: C_17  and  C_29
    6  A    between atoms: C_18  and  C_29
                            x       y       z     vdW  Elec       q    Type
                         _______ _______ _______ _____ _____    ______ ____

>  <TORSDO>
F 6

$$$$
=
 OpenBabel11062407433D

 34 39  0  0  1  0  0  0  0  0999 V2000
  160.9870  206.2560  152.3240 C   0  0  0  0  0  0  0  0  0  0  0  0
  161.5080  208.5140  153.0800 C   0  0  0  0  0  0  0  0  0  0  0  0
  161.5280  207.9870  150.6840 C   0  0  0  0  0  0  0  0  0  0  0  0
  161.9510  209.7000  149.0250 C   0  0  0  0  0  0  0  0  0  0  0  0
  160.9180  206.7940  154.6830 C   0  0  0  0  0  3  0  0  0  0  0  0
  161.3030  208.1080  154.4020 C   0  0  0  0  0  3  0  0  0  0  0  0
  161.6260  210.3960  151.4360 C   0  0  0  0  0  2  0  0  0  0  0  0
  161.3390  207.5930  152.0270 C   0  0  0  0  0  0  0  0  0  0  0  0
  160.7660  205.8690  153.6480 C   0  0  0  0  0  3  0  0  0  0  0  0
  161.4580  207.0210  149.6490 C   0  0  0  0  0  0  0  0  0  0  0  0
  160.8760  205.3210  151.2970 C   0  0  0  0  0  3  0  0  0  0  0  0
  162.0580  209.8820  152.8080 C   0  0  0  0  0  2  0  0  0  0  0  0
  161.9140  208.7480  148.0570 N   0  0  0  0  0  0  0  0  0  0  0  0
  161.6860  207.4300  148.3100 C   0  0  0  0  0  0  0  0  0  0  0  0
  161.7580  209.3390  150.3680 C   0  0  0  0  0  0  0  0  0  0  0  0
  161.1150  205.6980  149.9750 C   0  0  0  0  0  3  0  0  0  0  0  0
  162.7480  204.8310  145.7350 C   0  0  0  0  0  0  0  0  0  0  0  0
  161.6300  204.8130  144.8990 C   0  0  0  0  0  3  0  0  0  0  0  0
  161.6750  206.4980  147.1510 C   0  0  0  0  0  0  0  0  0  0  0  0
  160.5390  205.6380  145.1760 C   0  0  0  0  0  3  0  0  0  0  0  0
  162.7720  205.6730  146.8510 C   0  0  0  0  0  3  0  0  0  0  0  0
  160.5640  206.4790  146.2920 C   0  0  0  0  0  3  0  0  0  0  0  0
  163.8100  204.0350  145.4650 F   0  0  0  0  0  0  0  0  0  0  0  0
  162.1550  211.1240  148.6280 C   0  0  0  0  0  2  0  0  0  0  0  0
  161.1490  211.5140  147.5580 C   0  0  0  0  0  2  0  0  0  0  0  0
  161.4280  212.9200  147.0630 C   0  0  0  0  0  2  0  0  0  0  0  0
  160.1460  213.7360  147.0500 C   0  0  0  0  0  2  0  0  0  0  0  0
  157.4570  212.5860  146.4720 C   0  0  0  0  0  1  0  0  0  0  0  0
  159.2630  213.3470  148.2270 C   0  0  2  0  0  3  0  0  0  0  0  0
  157.8170  213.1050  147.8240 C   0  0  0  0  0  0  0  0  0  0  0  0
  157.1450  213.6970  150.0990 C   0  0  0  0  0  3  0  0  0  0  0  0
  158.3360  214.2300  150.3830 C   0  0  0  0  0  3  0  0  0  0  0  0
  159.3560  214.4400  149.2990 C   0  0  0  0  0  2  0  0  0  0  0  0
  156.8460  213.2220  148.7350 C   0  0  0  0  0  3  0  0  0  0  0  0
  1  9  2  0  0  0  0
  2  6  1  0  0  0  0
  3  8  1  0  0  0  0
  4 15  2  0  0  0  0
  6  5  2  0  0  0  0
  7 12  1  0  0  0  0
  8  1  1  0  0  0  0
  8  2  2  0  0  0  0
  9  5  1  0  0  0  0
 10 16  1  0  0  0  0
 10  3  2  0  0  0  0
 11  1  1  0  0  0  0
 12  2  1  0  0  0  0
 13 14  2  0  0  0  0
 13  4  1  0  0  0  0
 14 10  1  0  0  0  0
 15  3  1  0  0  0  0
 15  7  1  0  0  0  0
 16 11  2  0  0  0  0
 17 21  1  0  0  0  0
 18 20  1  0  0  0  0
 18 17  2  0  0  0  0
 19 14  1  0  0  0  0
 20 22  2  0  0  0  0
 21 19  2  0  0  0  0
 22 19  1  0  0  0  0
 23 17  1  0  0  0  0
 24  4  1  0  0  0  0
 25 24  1  0  0  0  0
 26 25  1  0  0  0  0
 27 26  1  0  0  0  0
 28 30  1  0  0  0  0
 29 27  1  6  0  0  0
 29 33  1  0  0  0  0
 30 29  1  0  0  0  0
 30 34  2  0  0  0  0
 31 32  2  0  0  0  0
 33 32  1  0  0  0  0
 34 31  1  0  0  0  0
M  END
>  <MODEL>
5

>  <REMARK>
 VINA RESULT:     -10.2      2.647      5.747
  Name = 
  6 active torsions:
  status: ('A' for Active; 'I' for Inactive)
    1  A    between atoms: C_3  and  C_13
    2  A    between atoms: C_3  and  C_17
    3  A    between atoms: C_5  and  C_18
    4  A    between atoms: C_12  and  C_28
    5  A    between atoms: C_17  and  C_29
    6  A    between atoms: C_18  and  C_29
                            x       y       z     vdW  Elec       q    Type
                         _______ _______ _______ _____ _____    ______ ____

>  <TORSDO>
F 6

$$$$
=
 OpenBabel11062407433D

 34 39  0  0  1  0  0  0  0  0999 V2000
  160.8340  206.8240  154.0390 C   0  0  0  0  0  0  0  0  0  0  0  0
  161.2210  209.1870  154.4950 C   0  0  0  0  0  0  0  0  0  0  0  0
  161.3730  208.3400  152.1970 C   0  0  0  0  0  0  0  0  0  0  0  0
  161.7960  209.8300  150.3360 C   0  0  0  0  0  0  0  0  0  0  0  0
  160.6340  207.6750  156.2960 C   0  0  0  0  0  3  0  0  0  0  0  0
  160.9750  208.9550  155.8510 C   0  0  0  0  0  3  0  0  0  0  0  0
  161.3320  210.8310  152.6120 C   0  0  0  0  0  2  0  0  0  0  0  0
  161.1400  208.1230  153.5730 C   0  0  0  0  0  0  0  0  0  0  0  0
  160.5710  206.6100  155.3940 C   0  0  0  0  0  3  0  0  0  0  0  0
  161.3910  207.2400  151.3030 C   0  0  0  0  0  0  0  0  0  0  0  0
  160.8100  205.7530  153.1470 C   0  0  0  0  0  3  0  0  0  0  0  0
  161.7230  210.5310  154.0580 C   0  0  0  0  0  2  0  0  0  0  0  0
  161.8440  208.7540  149.5070 N   0  0  0  0  0  0  0  0  0  0  0  0
  161.6630  207.4730  149.9310 C   0  0  0  0  0  0  0  0  0  0  0  0
  161.5580  209.6460  151.7060 C   0  0  0  0  0  0  0  0  0  0  0  0
  161.0920  205.9590  151.7960 C   0  0  0  0  0  3  0  0  0  0  0  0
  162.3270  205.5870  146.6880 C   0  0  0  0  0  0  0  0  0  0  0  0
  161.8000  204.3320  146.9980 C   0  0  0  0  0  3  0  0  0  0  0  0
  161.7450  206.3920  148.9120 C   0  0  0  0  0  0  0  0  0  0  0  0
  161.2370  204.1030  148.2560 C   0  0  0  0  0  3  0  0  0  0  0  0
  162.2940  206.6120  147.6380 C   0  0  0  0  0  3  0  0  0  0  0  0
  161.2060  205.1290  149.2040 C   0  0  0  0  0  3  0  0  0  0  0  0
  162.8680  205.8130  145.4680 F   0  0  0  0  0  0  0  0  0  0  0  0
  161.9560  211.1940  149.7530 C   0  0  0  0  0  2  0  0  0  0  0  0
  162.0120  211.1090  148.2370 C   0  0  0  0  0  2  0  0  0  0  0  0
  161.1700  212.2070  147.6180 C   0  0  0  0  0  2  0  0  0  0  0  0
  160.9780  213.3440  148.6080 C   0  0  0  0  0  2  0  0  0  0  0  0
  159.7010  213.8090  151.2610 C   0  0  0  0  0  1  0  0  0  0  0  0
  159.5190  213.7750  148.6370 C   0  0  2  0  0  3  0  0  0  0  0  0
  158.8940  213.6450  150.0170 C   0  0  0  0  0  0  0  0  0  0  0  0
  156.7130  213.3890  148.9400 C   0  0  0  0  0  3  0  0  0  0  0  0
  157.2580  213.1660  147.7410 C   0  0  0  0  0  3  0  0  0  0  0  0
  158.7390  212.9530  147.6030 C   0  0  0  0  0  2  0  0  0  0  0  0
  157.5680  213.5200  150.1350 C   0  0  0  0  0  3  0  0  0  0  0  0
  1  9  2  0  0  0  0
  2  6  1  0  0  0  0
  3  8  1  0  0  0  0
  4 15  2  0  0  0  0
  6  5  2  0  0  0  0
  7 12  1  0  0  0  0
  8  1  1  0  0  0  0
  8  2  2  0  0  0  0
  9  5  1  0  0  0  0
 10 16  1  0  0  0  0
 10  3  2  0  0  0  0
 11  1  1  0  0  0  0
 12  2  1  0  0  0  0
 13 14  2  0  0  0  0
 13  4  1  0  0  0  0
 14 10  1  0  0  0  0
 15  3  1  0  0  0  0
 15  7  1  0  0  0  0
 16 11  2  0  0  0  0
 17 18  2  0  0  0  0
 17 21  1  0  0  0  0
 18 20  1  0  0  0  0
 19 22  1  0  0  0  0
 19 14  1  0  0  0  0
 20 22  2  0  0  0  0
 21 19  2  0  0  0  0
 23 17  1  0  0  0  0
 24  4  1  0  0  0  0
 25 24  1  0  0  0  0
 26 25  1  0  0  0  0
 26 27  1  0  0  0  0
 29 27  1  1  0  0  0
 29 30  1  0  0  0  0
 30 34  2  0  0  0  0
 30 28  1  0  0  0  0
 31 34  1  0  0  0  0
 32 31  2  0  0  0  0
 33 32  1  0  0  0  0
 33 29  1  0  0  0  0
M  END
>  <MODEL>
6

>  <REMARK>
 VINA RESULT:     -10.1      2.342      5.623
  Name = 
  6 active torsions:
  status: ('A' for Active; 'I' for Inactive)
    1  A    between atoms: C_3  and  C_13
    2  A    between atoms: C_3  and  C_17
    3  A    between atoms: C_5  and  C_18
    4  A    between atoms: C_12  and  C_28
    5  A    between atoms: C_17  and  C_29
    6  A    between atoms: C_18  and  C_29
                            x       y       z     vdW  Elec       q    Type
                         _______ _______ _______ _____ _____    ______ ____

>  <TORSDO>
F 6

$$$$
=
 OpenBabel11062407433D

 34 39  0  0  1  0  0  0  0  0999 V2000
  161.1860  204.1350  148.1640 C   0  0  0  0  0  0  0  0  0  0  0  0
  161.1890  202.6280  150.0810 C   0  0  0  0  0  0  0  0  0  0  0  0
  161.2560  205.0570  150.4280 C   0  0  0  0  0  0  0  0  0  0  0  0
  161.2150  206.0080  152.6540 C   0  0  0  0  0  0  0  0  0  0  0  0
  161.0670  201.7400  147.8280 C   0  0  0  0  0  3  0  0  0  0  0  0
  161.1260  201.5370  149.2100 C   0  0  0  0  0  3  0  0  0  0  0  0
  160.8130  203.5240  152.3860 C   0  0  0  0  0  2  0  0  0  0  0  0
  161.2060  203.9400  149.5640 C   0  0  0  0  0  0  0  0  0  0  0  0
  161.1030  203.0350  147.3060 C   0  0  0  0  0  3  0  0  0  0  0  0
  161.3810  206.3610  149.8870 C   0  0  0  0  0  0  0  0  0  0  0  0
  161.2640  205.4230  147.6390 C   0  0  0  0  0  3  0  0  0  0  0  0
  161.3960  202.3890  151.5460 C   0  0  0  0  0  2  0  0  0  0  0  0
  161.3710  207.2430  152.1120 N   0  0  0  0  0  0  0  0  0  0  0  0
  161.4660  207.4670  150.7720 C   0  0  0  0  0  0  0  0  0  0  0  0
  161.1540  204.8810  151.8210 C   0  0  0  0  0  0  0  0  0  0  0  0
  161.3670  206.5230  148.4920 C   0  0  0  0  0  3  0  0  0  0  0  0
  161.3470  211.2710  150.6280 C   0  0  0  0  0  0  0  0  0  0  0  0
  161.9120  211.5080  149.3730 C   0  0  0  0  0  3  0  0  0  0  0  0
  161.6360  208.8730  150.3180 C   0  0  0  0  0  0  0  0  0  0  0  0
  162.3310  210.4350  148.5840 C   0  0  0  0  0  3  0  0  0  0  0  0
  161.2050  209.9610  151.0940 C   0  0  0  0  0  3  0  0  0  0  0  0
  162.1890  209.1260  149.0520 C   0  0  0  0  0  3  0  0  0  0  0  0
  160.9340  212.3100  151.3920 F   0  0  0  0  0  0  0  0  0  0  0  0
  161.0690  205.8850  154.1340 C   0  0  0  0  0  2  0  0  0  0  0  0
  161.1380  207.2590  154.7780 C   0  0  0  0  0  2  0  0  0  0  0  0
  160.1430  207.3540  155.9200 C   0  0  0  0  0  2  0  0  0  0  0  0
  160.0810  208.7790  156.4460 C   0  0  0  0  0  2  0  0  0  0  0  0
  162.2280  210.6340  155.5300 C   0  0  0  0  0  1  0  0  0  0  0  0
  159.7610  209.7440  155.3140 C   0  0  2  0  0  3  0  0  0  0  0  0
  160.7950  210.8500  155.1730 C   0  0  0  0  0  0  0  0  0  0  0  0
  159.0620  212.2620  154.1810 C   0  0  0  0  0  3  0  0  0  0  0  0
  158.0790  211.4560  154.5890 C   0  0  0  0  0  3  0  0  0  0  0  0
  158.3620  210.3280  155.5420 C   0  0  0  0  0  2  0  0  0  0  0  0
  160.4560  212.0030  154.5870 C   0  0  0  0  0  3  0  0  0  0  0  0
  1  8  1  0  0  0  0
  2 12  1  0  0  0  0
  3 15  1  0  0  0  0
  4 24  1  0  0  0  0
  5  6  1  0  0  0  0
  6  2  2  0  0  0  0
  8  2  1  0  0  0  0
  8  3  2  0  0  0  0
  9  5  2  0  0  0  0
  9  1  1  0  0  0  0
 10  3  1  0  0  0  0
 10 14  1  0  0  0  0
 11  1  2  0  0  0  0
 11 16  1  0  0  0  0
 12  7  1  0  0  0  0
 13  4  1  0  0  0  0
 14 13  2  0  0  0  0
 15  7  1  0  0  0  0
 15  4  2  0  0  0  0
 16 10  2  0  0  0  0
 17 21  1  0  0  0  0
 17 23  1  0  0  0  0
 18 17  2  0  0  0  0
 19 14  1  0  0  0  0
 19 21  2  0  0  0  0
 20 22  2  0  0  0  0
 20 18  1  0  0  0  0
 22 19  1  0  0  0  0
 24 25  1  0  0  0  0
 25 26  1  0  0  0  0
 26 27  1  0  0  0  0
 29 33  1  0  0  0  0
 29 27  1  1  0  0  0
 30 29  1  0  0  0  0
 30 28  1  0  0  0  0
 31 34  1  0  0  0  0
 31 32  2  0  0  0  0
 32 33  1  0  0  0  0
 34 30  2  0  0  0  0
M  END
>  <MODEL>
7

>  <REMARK>
 VINA RESULT:     -10.1      2.467      5.754
  Name = 
  6 active torsions:
  status: ('A' for Active; 'I' for Inactive)
    1  A    between atoms: C_3  and  C_13
    2  A    between atoms: C_3  and  C_17
    3  A    between atoms: C_5  and  C_18
    4  A    between atoms: C_12  and  C_28
    5  A    between atoms: C_17  and  C_29
    6  A    between atoms: C_18  and  C_29
                            x       y       z     vdW  Elec       q    Type
                         _______ _______ _______ _____ _____    ______ ____

>  <TORSDO>
F 6

$$$$
=
 OpenBabel11062407433D

 34 39  0  0  1  0  0  0  0  0999 V2000
  160.8000  206.8210  153.9330 C   0  0  0  0  0  0  0  0  0  0  0  0
  161.2040  209.1740  154.4320 C   0  0  0  0  0  0  0  0  0  0  0  0
  161.3530  208.3660  152.1200 C   0  0  0  0  0  0  0  0  0  0  0  0
  161.7900  209.8850  150.2860 C   0  0  0  0  0  0  0  0  0  0  0  0
  160.6030  207.6330  156.2050 C   0  0  0  0  0  3  0  0  0  0  0  0
  160.9530  208.9190  155.7840 C   0  0  0  0  0  3  0  0  0  0  0  0
  161.3290  210.8500  152.5790 C   0  0  0  0  0  2  0  0  0  0  0  0
  161.1160  208.1270  153.4920 C   0  0  0  0  0  0  0  0  0  0  0  0
  160.5330  206.5860  155.2840 C   0  0  0  0  0  3  0  0  0  0  0  0
  161.3650  207.2820  151.2070 C   0  0  0  0  0  0  0  0  0  0  0  0
  160.7700  205.7670  153.0230 C   0  0  0  0  0  3  0  0  0  0  0  0
  161.7160  210.5210  154.0200 C   0  0  0  0  0  2  0  0  0  0  0  0
  161.8320  208.8250  149.4390 N   0  0  0  0  0  0  0  0  0  0  0  0
  161.6410  207.5380  149.8390 C   0  0  0  0  0  0  0  0  0  0  0  0
  161.5480  209.6790  151.6530 C   0  0  0  0  0  0  0  0  0  0  0  0
  161.0570  205.9940  151.6770 C   0  0  0  0  0  3  0  0  0  0  0  0
  161.4040  204.1720  148.0700 C   0  0  0  0  0  0  0  0  0  0  0  0
  161.9600  204.4850  146.8280 C   0  0  0  0  0  3  0  0  0  0  0  0
  161.7170  206.4740  148.8020 C   0  0  0  0  0  0  0  0  0  0  0  0
  162.4030  205.7840  146.5700 C   0  0  0  0  0  3  0  0  0  0  0  0
  161.2900  205.1600  149.0520 C   0  0  0  0  0  3  0  0  0  0  0  0
  162.2870  206.7700  147.5530 C   0  0  0  0  0  3  0  0  0  0  0  0
  160.9790  202.9120  148.3240 F   0  0  0  0  0  0  0  0  0  0  0  0
  161.9610  211.2590  149.7280 C   0  0  0  0  0  2  0  0  0  0  0  0
  161.9950  211.2030  148.2100 C   0  0  0  0  0  2  0  0  0  0  0  0
  162.6980  212.4270  147.6550 C   0  0  0  0  0  2  0  0  0  0  0  0
  161.6810  213.4940  147.2840 C   0  0  0  0  0  2  0  0  0  0  0  0
  159.1840  212.4890  146.0030 C   0  0  0  0  0  1  0  0  0  0  0  0
  161.5570  213.5980  145.7710 C   0  0  2  0  0  3  0  0  0  0  0  0
  160.4210  212.7570  145.2130 C   0  0  0  0  0  0  0  0  0  0  0  0
  161.6360  212.6250  143.0950 C   0  0  0  0  0  3  0  0  0  0  0  0
  162.7730  213.0620  143.6440 C   0  0  0  0  0  3  0  0  0  0  0  0
  162.8950  213.2010  145.1360 C   0  0  0  0  0  2  0  0  0  0  0  0
  160.4550  212.3590  143.9370 C   0  0  0  0  0  3  0  0  0  0  0  0
  1  9  2  0  0  0  0
  2  6  1  0  0  0  0
  3  8  1  0  0  0  0
  4 15  2  0  0  0  0
  6  5  2  0  0  0  0
  7 12  1  0  0  0  0
  8  1  1  0  0  0  0
  8  2  2  0  0  0  0
  9  5  1  0  0  0  0
 10 16  1  0  0  0  0
 10  3  2  0  0  0  0
 11  1  1  0  0  0  0
 12  2  1  0  0  0  0
 13 14  2  0  0  0  0
 13  4  1  0  0  0  0
 14 10  1  0  0  0  0
 15  3  1  0  0  0  0
 15  7  1  0  0  0  0
 16 11  2  0  0  0  0
 17 23  1  0  0  0  0
 17 21  1  0  0  0  0
 18 17  2  0  0  0  0
 19 21  2  0  0  0  0
 19 14  1  0  0  0  0
 20 18  1  0  0  0  0
 20 22  2  0  0  0  0
 22 19  1  0  0  0  0
 24  4  1  0  0  0  0
 25 24  1  0  0  0  0
 26 25  1  0  0  0  0
 27 26  1  0  0  0  0
 29 27  1  1  0  0  0
 30 29  1  0  0  0  0
 30 28  1  0  0  0  0
 31 32  2  0  0  0  0
 31 34  1  0  0  0  0
 32 33  1  0  0  0  0
 33 29  1  0  0  0  0
 34 30  2  0  0  0  0
M  END
>  <MODEL>
8

>  <REMARK>
 VINA RESULT:     -10.0      2.174      5.587
  Name = 
  6 active torsions:
  status: ('A' for Active; 'I' for Inactive)
    1  A    between atoms: C_3  and  C_13
    2  A    between atoms: C_3  and  C_17
    3  A    between atoms: C_5  and  C_18
    4  A    between atoms: C_12  and  C_28
    5  A    between atoms: C_17  and  C_29
    6  A    between atoms: C_18  and  C_29
                            x       y       z     vdW  Elec       q    Type
                         _______ _______ _______ _____ _____    ______ ____

>  <TORSDO>
F 6

$$$$
=
 OpenBabel11062407433D

 34 39  0  0  1  0  0  0  0  0999 V2000
  161.9340  208.8320  148.8890 C   0  0  0  0  0  0  0  0  0  0  0  0
  161.6730  209.9800  151.0240 C   0  0  0  0  0  0  0  0  0  0  0  0
  161.5300  207.5320  150.9200 C   0  0  0  0  0  0  0  0  0  0  0  0
  161.2400  206.2060  152.9250 C   0  0  0  0  0  0  0  0  0  0  0  0
  162.1270  211.2420  149.0050 C   0  0  0  0  0  3  0  0  0  0  0  0
  161.8720  211.2030  150.3790 C   0  0  0  0  0  3  0  0  0  0  0  0
  161.7040  208.6810  153.1630 C   0  0  0  0  0  2  0  0  0  0  0  0
  161.7150  208.7800  150.2850 C   0  0  0  0  0  0  0  0  0  0  0  0
  162.1510  210.0610  148.2610 C   0  0  0  0  0  3  0  0  0  0  0  0
  161.4700  206.3470  150.1440 C   0  0  0  0  0  0  0  0  0  0  0  0
  161.9180  207.6590  148.1370 C   0  0  0  0  0  3  0  0  0  0  0  0
  161.2600  209.9660  152.4660 C   0  0  0  0  0  2  0  0  0  0  0  0
  161.1490  205.0900  152.1540 N   0  0  0  0  0  0  0  0  0  0  0  0
  161.2460  205.1080  150.7970 C   0  0  0  0  0  0  0  0  0  0  0  0
  161.4330  207.4580  152.3220 C   0  0  0  0  0  0  0  0  0  0  0  0
  161.6820  206.4320  148.7570 C   0  0  0  0  0  3  0  0  0  0  0  0
  161.0360  202.4980  148.0300 C   0  0  0  0  0  0  0  0  0  0  0  0
  160.8150  201.3370  148.7760 C   0  0  0  0  0  3  0  0  0  0  0  0
  161.1270  203.8100  150.0800 C   0  0  0  0  0  0  0  0  0  0  0  0
  160.7400  201.4070  150.1680 C   0  0  0  0  0  3  0  0  0  0  0  0
  161.1850  203.7270  148.6790 C   0  0  0  0  0  3  0  0  0  0  0  0
  160.8900  202.6370  150.8150 C   0  0  0  0  0  3  0  0  0  0  0  0
  161.1030  202.4330  146.6800 F   0  0  0  0  0  0  0  0  0  0  0  0
  161.1730  206.0620  154.4090 C   0  0  0  0  0  2  0  0  0  0  0  0
  160.2330  207.1050  154.9890 C   0  0  0  0  0  2  0  0  0  0  0  0
  160.1000  206.9160  156.4880 C   0  0  0  0  0  2  0  0  0  0  0  0
  160.1000  208.2630  157.1910 C   0  0  0  0  0  2  0  0  0  0  0  0
  162.6450  209.8120  157.1040 C   0  0  0  0  0  1  0  0  0  0  0  0
  160.2220  209.3870  156.1720 C   0  0  2  0  0  3  0  0  0  0  0  0
  161.3990  210.3080  156.4500 C   0  0  0  0  0  0  0  0  0  0  0  0
  160.1970  212.0970  155.2940 C   0  0  0  0  0  3  0  0  0  0  0  0
  159.0390  211.4310  155.3290 C   0  0  0  0  0  3  0  0  0  0  0  0
  158.9060  210.1740  156.1420 C   0  0  0  0  0  2  0  0  0  0  0  0
  161.3870  211.5600  155.9790 C   0  0  0  0  0  3  0  0  0  0  0  0
  1  8  1  0  0  0  0
  2 12  1  0  0  0  0
  3 15  1  0  0  0  0
  4 24  1  0  0  0  0
  5  6  2  0  0  0  0
  6  2  1  0  0  0  0
  8  3  1  0  0  0  0
  8  2  2  0  0  0  0
  9  1  2  0  0  0  0
  9  5  1  0  0  0  0
 10 14  1  0  0  0  0
 10  3  2  0  0  0  0
 11 16  2  0  0  0  0
 11  1  1  0  0  0  0
 12  7  1  0  0  0  0
 13  4  1  0  0  0  0
 14 13  2  0  0  0  0
 15  4  2  0  0  0  0
 15  7  1  0  0  0  0
 16 10  1  0  0  0  0
 17 21  2  0  0  0  0
 17 18  1  0  0  0  0
 18 20  2  0  0  0  0
 19 14  1  0  0  0  0
 19 22  2  0  0  0  0
 20 22  1  0  0  0  0
 21 19  1  0  0  0  0
 23 17  1  0  0  0  0
 24 25  1  0  0  0  0
 25 26  1  0  0  0  0
 26 27  1  0  0  0  0
 29 30  1  0  0  0  0
 29 27  1  1  0  0  0
 30 28  1  0  0  0  0
 31 32  2  0  0  0  0
 31 34  1  0  0  0  0
 32 33  1  0  0  0  0
 33 29  1  0  0  0  0
 34 30  2  0  0  0  0
M  END
>  <MODEL>
9

>  <REMARK>
 VINA RESULT:      -9.8      2.866      7.554
  Name = 
  6 active torsions:
  status: ('A' for Active; 'I' for Inactive)
    1  A    between atoms: C_3  and  C_13
    2  A    between atoms: C_3  and  C_17
    3  A    between atoms: C_5  and  C_18
    4  A    between atoms: C_12  and  C_28
    5  A    between atoms: C_17  and  C_29
    6  A    between atoms: C_18  and  C_29
                            x       y       z     vdW  Elec       q    Type
                         _______ _______ _______ _____ _____    ______ ____

>  <TORSDO>
F 6

$$$$
