=
 OpenBabel11052422333D

 31 34  0  0  1  0  0  0  0  0999 V2000
  160.7890  207.5390  154.3190 C   0  0  0  0  0  0  0  0  0  0  0  0
  161.3240  207.1340  150.6080 C   0  0  0  0  0  0  0  0  0  0  0  0
  161.1430  205.7380  150.3230 C   0  0  0  0  0  0  0  0  0  0  0  0
  160.6480  203.4410  151.0080 C   0  0  0  0  0  3  0  0  0  0  0  0
  161.2070  207.7030  151.9140 C   0  0  0  0  0  0  0  0  0  0  0  0
  161.0010  208.9080  154.4640 C   0  0  0  0  0  3  0  0  0  0  0  0
  160.8170  204.7920  151.3140 C   0  0  0  0  0  3  0  0  0  0  0  0
  161.8360  209.3980  149.7610 C   0  0  0  0  0  0  0  0  0  0  0  0
  160.4720  206.7440  155.4540 N   0  0  0  0  0  1  0  0  0  0  0  0
  161.6160  206.1380  147.9670 C   0  0  0  0  0  3  0  0  0  0  0  0
  160.8030  202.9990  149.6950 C   0  0  0  0  0  0  0  0  0  0  0  0
  161.7180  209.8750  151.0230 N   0  0  0  0  0  0  0  0  0  0  0  0
  161.6480  208.0100  149.5240 C   0  0  0  0  0  0  0  0  0  0  0  0
  160.8930  206.9470  153.0590 C   0  0  0  0  0  3  0  0  0  0  0  0
  160.6350  201.6560  149.3890 O   0  0  0  0  0  1  0  0  0  0  0  0
  161.4160  209.0930  152.0830 C   0  0  0  0  0  0  0  0  0  0  0  0
  161.3120  209.6820  153.3470 C   0  0  0  0  0  3  0  0  0  0  0  0
  161.7890  207.4870  148.2320 C   0  0  0  0  0  3  0  0  0  0  0  0
  161.2950  205.2650  148.9930 C   0  0  0  0  0  0  0  0  0  0  0  0
  161.1250  203.9100  148.6910 C   0  0  0  0  0  3  0  0  0  0  0  0
  162.1850  211.7180  148.9000 C   0  0  0  0  0  3  0  0  0  0  0  0
  162.1720  210.4020  148.7230 C   0  0  0  0  0  3  0  0  0  0  0  0
  163.6980  212.2360  147.1470 O   0  0  0  0  0  1  0  0  0  0  0  0
  162.5220  212.6440  147.7790 C   0  0  1  0  0  3  0  0  0  0  0  0
  161.3760  212.7320  146.7710 C   0  0  0  0  0  2  0  0  0  0  0  0
  160.2250  214.4430  147.9660 O   0  0  0  0  0  0  0  0  0  0  0  0
  160.1430  213.3470  147.3540 C   0  0  0  0  0  0  0  0  0  0  0  0
  158.8890  212.6700  147.2040 N   0  0  0  0  0  2  0  0  0  0  0  0
  157.5860  213.1990  147.4870 C   0  0  0  0  0  0  0  0  0  0  0  0
  156.9860  213.2720  149.0100 S   0  0  0  0  0  0  0  0  0  0  0  0
  156.8390  213.8780  146.3970 C   0  0  0  0  0  1  0  0  0  0  0  0
  1  6  1  0  0  0  0
  1  9  1  0  0  0  0
  2  5  1  0  0  0  0
  3  2  1  0  0  0  0
  3  7  2  0  0  0  0
  4  7  1  0  0  0  0
  5 16  2  0  0  0  0
  5 14  1  0  0  0  0
  8 12  2  0  0  0  0
 10 18  2  0  0  0  0
 10 19  1  0  0  0  0
 11  4  2  0  0  0  0
 12 16  1  0  0  0  0
 13  8  1  0  0  0  0
 13  2  2  0  0  0  0
 14  1  2  0  0  0  0
 15 11  1  0  0  0  0
 16 17  1  0  0  0  0
 17  6  2  0  0  0  0
 18 13  1  0  0  0  0
 19  3  1  0  0  0  0
 20 19  2  0  0  0  0
 20 11  1  0  0  0  0
 22 21  2  0  0  0  0
 22  8  1  0  0  0  0
 24 23  1  6  0  0  0
 24 21  1  0  0  0  0
 25 27  1  0  0  0  0
 25 24  1  0  0  0  0
 27 26  2  0  0  0  0
 28 27  1  0  0  0  0
 28 29  1  0  0  0  0
 29 30  2  0  0  0  0
 31 29  1  0  0  0  0
M  END
>  <MODEL>
1

>  <REMARK>
 VINA RESULT:      -9.8      0.000      0.000
  Name = 
  5 active torsions:
  status: ('A' for Active; 'I' for Inactive)
    1  A    between atoms: C_1  and  N_24
    2  A    between atoms: C_3  and  C_19
    3  A    between atoms: C_3  and  C_22
    4  A    between atoms: C_9  and  C_22
    5  A    between atoms: C_15  and  C_23
                            x       y       z     vdW  Elec       q    Type
                         _______ _______ _______ _____ _____    ______ ____

>  <TORSDO>
F 5

$$$$
=
 OpenBabel11052422333D

 31 34  0  0  1  0  0  0  0  0999 V2000
  160.8010  207.7390  154.3440 C   0  0  0  0  0  0  0  0  0  0  0  0
  161.4020  207.5260  150.6280 C   0  0  0  0  0  0  0  0  0  0  0  0
  161.2100  206.1500  150.2650 C   0  0  0  0  0  0  0  0  0  0  0  0
  160.6760  203.8260  150.8170 C   0  0  0  0  0  3  0  0  0  0  0  0
  161.2660  208.0270  151.9600 C   0  0  0  0  0  0  0  0  0  0  0  0
  161.0250  209.0960  154.5660 C   0  0  0  0  0  3  0  0  0  0  0  0
  160.8550  205.1570  151.1980 C   0  0  0  0  0  3  0  0  0  0  0  0
  161.9550  209.8250  149.9130 C   0  0  0  0  0  0  0  0  0  0  0  0
  160.4530  206.8890  155.4290 N   0  0  0  0  0  1  0  0  0  0  0  0
  161.7330  206.6690  147.9430 C   0  0  0  0  0  3  0  0  0  0  0  0
  160.8510  203.4530  149.4850 C   0  0  0  0  0  0  0  0  0  0  0  0
  161.8190  210.2360  151.1960 N   0  0  0  0  0  0  0  0  0  0  0  0
  161.7560  208.4540  149.5980 C   0  0  0  0  0  0  0  0  0  0  0  0
  160.9220  207.2140  153.0570 C   0  0  0  0  0  3  0  0  0  0  0  0
  160.6740  202.1300  149.1050 O   0  0  0  0  0  1  0  0  0  0  0  0
  161.4880  209.4030  152.2070 C   0  0  0  0  0  0  0  0  0  0  0  0
  161.3670  209.9250  153.4990 C   0  0  0  0  0  3  0  0  0  0  0  0
  161.9160  207.9990  148.2820 C   0  0  0  0  0  3  0  0  0  0  0  0
  161.3820  205.7460  148.9150 C   0  0  0  0  0  0  0  0  0  0  0  0
  161.2030  204.4120  148.5370 C   0  0  0  0  0  3  0  0  0  0  0  0
  161.9300  212.1460  148.9870 C   0  0  0  0  0  3  0  0  0  0  0  0
  162.3220  210.8790  148.9370 C   0  0  0  0  0  3  0  0  0  0  0  0
  163.2350  212.5310  147.0430 O   0  0  0  0  0  1  0  0  0  0  0  0
  162.3440  213.1250  147.9390 C   0  0  1  0  0  3  0  0  0  0  0  0
  161.1330  213.6860  147.1950 C   0  0  0  0  0  2  0  0  0  0  0  0
  160.0540  211.8810  146.0740 O   0  0  0  0  0  0  0  0  0  0  0  0
  160.7920  212.8950  145.9720 C   0  0  0  0  0  0  0  0  0  0  0  0
  161.3170  213.3100  144.7050 N   0  0  0  0  0  2  0  0  0  0  0  0
  160.9270  212.8270  143.4120 C   0  0  0  0  0  0  0  0  0  0  0  0
  159.4450  213.1260  142.7790 S   0  0  0  0  0  0  0  0  0  0  0  0
  161.9580  212.2060  142.5400 C   0  0  0  0  0  1  0  0  0  0  0  0
  1  6  1  0  0  0  0
  1  9  1  0  0  0  0
  2  5  1  0  0  0  0
  3  2  1  0  0  0  0
  3  7  2  0  0  0  0
  4  7  1  0  0  0  0
  5 16  2  0  0  0  0
  5 14  1  0  0  0  0
  8 12  2  0  0  0  0
 10 18  2  0  0  0  0
 10 19  1  0  0  0  0
 11  4  2  0  0  0  0
 12 16  1  0  0  0  0
 13  8  1  0  0  0  0
 13  2  2  0  0  0  0
 14  1  2  0  0  0  0
 15 11  1  0  0  0  0
 16 17  1  0  0  0  0
 17  6  2  0  0  0  0
 18 13  1  0  0  0  0
 19  3  1  0  0  0  0
 20 19  2  0  0  0  0
 20 11  1  0  0  0  0
 22 21  2  0  0  0  0
 22  8  1  0  0  0  0
 24 23  1  6  0  0  0
 24 21  1  0  0  0  0
 25 24  1  0  0  0  0
 27 26  2  0  0  0  0
 27 25  1  0  0  0  0
 28 27  1  0  0  0  0
 29 28  1  0  0  0  0
 30 29  2  0  0  0  0
 31 29  1  0  0  0  0
M  END
>  <MODEL>
2

>  <REMARK>
 VINA RESULT:      -9.5      1.835      2.182
  Name = 
  5 active torsions:
  status: ('A' for Active; 'I' for Inactive)
    1  A    between atoms: C_1  and  N_24
    2  A    between atoms: C_3  and  C_19
    3  A    between atoms: C_3  and  C_22
    4  A    between atoms: C_9  and  C_22
    5  A    between atoms: C_15  and  C_23
                            x       y       z     vdW  Elec       q    Type
                         _______ _______ _______ _____ _____    ______ ____

>  <TORSDO>
F 5

$$$$
=
 OpenBabel11052422333D

 31 34  0  0  1  0  0  0  0  0999 V2000
  160.7600  208.9830  154.9070 C   0  0  0  0  0  0  0  0  0  0  0  0
  161.5150  207.8500  151.3910 C   0  0  0  0  0  0  0  0  0  0  0  0
  161.6920  209.0430  150.6100 C   0  0  0  0  0  0  0  0  0  0  0  0
  161.7700  211.4780  150.3760 C   0  0  0  0  0  3  0  0  0  0  0  0
  161.2110  207.8480  152.7870 C   0  0  0  0  0  0  0  0  0  0  0  0
  160.6020  207.7550  155.5470 C   0  0  0  0  0  3  0  0  0  0  0  0
  161.5930  210.3360  151.1590 C   0  0  0  0  0  3  0  0  0  0  0  0
  161.4770  205.3810  151.4670 C   0  0  0  0  0  0  0  0  0  0  0  0
  160.6130  210.1920  155.6400 N   0  0  0  0  0  1  0  0  0  0  0  0
  162.0900  207.7020  148.6160 C   0  0  0  0  0  3  0  0  0  0  0  0
  162.0490  211.3540  149.0160 C   0  0  0  0  0  0  0  0  0  0  0  0
  161.1820  205.4460  152.7870 N   0  0  0  0  0  0  0  0  0  0  0  0
  161.6440  206.5850  150.7330 C   0  0  0  0  0  0  0  0  0  0  0  0
  161.0600  209.0250  153.5450 C   0  0  0  0  0  3  0  0  0  0  0  0
  162.2250  212.4880  148.2360 O   0  0  0  0  0  1  0  0  0  0  0  0
  161.0480  206.6120  153.4570 C   0  0  0  0  0  0  0  0  0  0  0  0
  160.7460  206.5740  154.8220 C   0  0  0  0  0  3  0  0  0  0  0  0
  161.9250  206.5460  149.3610 C   0  0  0  0  0  3  0  0  0  0  0  0
  161.9790  208.9410  149.2240 C   0  0  0  0  0  0  0  0  0  0  0  0
  162.1540  210.0880  148.4430 C   0  0  0  0  0  3  0  0  0  0  0  0
  160.6080  203.3520  150.2960 C   0  0  0  0  0  3  0  0  0  0  0  0
  161.5860  204.0150  150.9000 C   0  0  0  0  0  3  0  0  0  0  0  0
  160.4190  201.0250  150.7230 O   0  0  0  0  0  1  0  0  0  0  0  0
  160.8200  201.9690  149.7750 C   0  0  1  0  0  3  0  0  0  0  0  0
  160.0750  201.7530  148.4580 C   0  0  0  0  0  2  0  0  0  0  0  0
  161.1070  201.3920  146.3400 O   0  0  0  0  0  0  0  0  0  0  0  0
  160.8640  202.2050  147.2700 C   0  0  0  0  0  0  0  0  0  0  0  0
  161.3300  203.5590  147.2160 N   0  0  0  0  0  2  0  0  0  0  0  0
  161.8940  204.2300  146.0810 C   0  0  0  0  0  0  0  0  0  0  0  0
  160.9790  204.7180  144.8120 S   0  0  0  0  0  0  0  0  0  0  0  0
  163.3120  204.6700  146.1420 C   0  0  0  0  0  1  0  0  0  0  0  0
  1  6  1  0  0  0  0
  1  9  1  0  0  0  0
  2  5  1  0  0  0  0
  3  7  2  0  0  0  0
  3  2  1  0  0  0  0
  4  7  1  0  0  0  0
  5 16  2  0  0  0  0
  5 14  1  0  0  0  0
  8 12  2  0  0  0  0
 10 19  1  0  0  0  0
 10 18  2  0  0  0  0
 11  4  2  0  0  0  0
 12 16  1  0  0  0  0
 13  2  2  0  0  0  0
 13  8  1  0  0  0  0
 14  1  2  0  0  0  0
 15 11  1  0  0  0  0
 16 17  1  0  0  0  0
 17  6  2  0  0  0  0
 18 13  1  0  0  0  0
 19  3  1  0  0  0  0
 20 11  1  0  0  0  0
 20 19  2  0  0  0  0
 21 22  2  0  0  0  0
 22  8  1  0  0  0  0
 24 21  1  0  0  0  0
 24 23  1  1  0  0  0
 25 24  1  0  0  0  0
 26 27  2  0  0  0  0
 27 25  1  0  0  0  0
 28 27  1  0  0  0  0
 29 31  1  0  0  0  0
 29 28  1  0  0  0  0
 30 29  2  0  0  0  0
M  END
>  <MODEL>
3

>  <REMARK>
 VINA RESULT:      -9.2      3.300      7.378
  Name = 
  5 active torsions:
  status: ('A' for Active; 'I' for Inactive)
    1  A    between atoms: C_1  and  N_24
    2  A    between atoms: C_3  and  C_19
    3  A    between atoms: C_3  and  C_22
    4  A    between atoms: C_9  and  C_22
    5  A    between atoms: C_15  and  C_23
                            x       y       z     vdW  Elec       q    Type
                         _______ _______ _______ _____ _____    ______ ____

>  <TORSDO>
F 5

$$$$
=
 OpenBabel11052422333D

 31 34  0  0  1  0  0  0  0  0999 V2000
  161.0090  204.4440  152.3330 C   0  0  0  0  0  0  0  0  0  0  0  0
  161.3790  205.6380  148.7760 C   0  0  0  0  0  0  0  0  0  0  0  0
  161.2480  204.4760  147.9430 C   0  0  0  0  0  0  0  0  0  0  0  0
  160.8930  202.0750  147.6270 C   0  0  0  0  0  3  0  0  0  0  0  0
  161.3000  205.6110  150.2030 C   0  0  0  0  0  0  0  0  0  0  0  0
  161.1640  205.6430  153.0270 C   0  0  0  0  0  3  0  0  0  0  0  0
  161.0150  203.1880  148.4620 C   0  0  0  0  0  3  0  0  0  0  0  0
  161.7440  208.0770  148.9300 C   0  0  0  0  0  0  0  0  0  0  0  0
  160.7850  203.2340  153.0450 N   0  0  0  0  0  1  0  0  0  0  0  0
  161.5860  205.8400  145.9530 C   0  0  0  0  0  3  0  0  0  0  0  0
  161.0030  202.2240  146.2460 C   0  0  0  0  0  0  0  0  0  0  0  0
  161.6670  207.9840  150.2790 N   0  0  0  0  0  0  0  0  0  0  0  0
  161.6090  206.9020  148.1440 C   0  0  0  0  0  0  0  0  0  0  0  0
  161.0780  204.4320  150.9400 C   0  0  0  0  0  3  0  0  0  0  0  0
  160.8820  201.1190  145.4150 O   0  0  0  0  0  1  0  0  0  0  0  0
  161.4530  206.8180  150.9270 C   0  0  0  0  0  0  0  0  0  0  0  0
  161.3850  206.8260  152.3240 C   0  0  0  0  0  3  0  0  0  0  0  0
  161.7100  206.9670  146.7480 C   0  0  0  0  0  3  0  0  0  0  0  0
  161.3560  204.6030  146.5330 C   0  0  0  0  0  0  0  0  0  0  0  0
  161.2340  203.4860  145.7010 C   0  0  0  0  0  3  0  0  0  0  0  0
  161.9530  210.5620  149.1000 C   0  0  0  0  0  3  0  0  0  0  0  0
  161.9820  209.4390  148.3930 C   0  0  0  0  0  3  0  0  0  0  0  0
  163.4870  211.9520  147.9410 O   0  0  0  0  0  1  0  0  0  0  0  0
  162.1900  211.8870  148.4560 C   0  0  1  0  0  3  0  0  0  0  0  0
  161.1640  212.1590  147.3560 C   0  0  0  0  0  2  0  0  0  0  0  0
  160.2790  214.0200  148.5530 O   0  0  0  0  0  0  0  0  0  0  0  0
  160.0370  213.0250  147.8220 C   0  0  0  0  0  0  0  0  0  0  0  0
  158.6980  212.7000  147.4260 N   0  0  0  0  0  2  0  0  0  0  0  0
  157.5330  213.5220  147.5790 C   0  0  0  0  0  0  0  0  0  0  0  0
  156.8910  214.3650  146.3290 S   0  0  0  0  0  0  0  0  0  0  0  0
  156.7720  213.4540  148.8540 C   0  0  0  0  0  1  0  0  0  0  0  0
  1  6  1  0  0  0  0
  1  9  1  0  0  0  0
  2  5  1  0  0  0  0
  3  7  2  0  0  0  0
  3  2  1  0  0  0  0
  4  7  1  0  0  0  0
  5 16  2  0  0  0  0
  5 14  1  0  0  0  0
  8 12  2  0  0  0  0
 10 19  1  0  0  0  0
 10 18  2  0  0  0  0
 11  4  2  0  0  0  0
 12 16  1  0  0  0  0
 13  2  2  0  0  0  0
 13  8  1  0  0  0  0
 14  1  2  0  0  0  0
 15 11  1  0  0  0  0
 16 17  1  0  0  0  0
 17  6  2  0  0  0  0
 18 13  1  0  0  0  0
 19  3  1  0  0  0  0
 20 11  1  0  0  0  0
 20 19  2  0  0  0  0
 22  8  1  0  0  0  0
 22 21  2  0  0  0  0
 24 23  1  6  0  0  0
 24 21  1  0  0  0  0
 25 27  1  0  0  0  0
 25 24  1  0  0  0  0
 27 26  2  0  0  0  0
 28 29  1  0  0  0  0
 28 27  1  0  0  0  0
 29 31  1  0  0  0  0
 30 29  2  0  0  0  0
M  END
>  <MODEL>
4

>  <REMARK>
 VINA RESULT:      -9.1      1.738      2.520
  Name = 
  5 active torsions:
  status: ('A' for Active; 'I' for Inactive)
    1  A    between atoms: C_1  and  N_24
    2  A    between atoms: C_3  and  C_19
    3  A    between atoms: C_3  and  C_22
    4  A    between atoms: C_9  and  C_22
    5  A    between atoms: C_15  and  C_23
                            x       y       z     vdW  Elec       q    Type
                         _______ _______ _______ _____ _____    ______ ____

>  <TORSDO>
F 5

$$$$
=
 OpenBabel11052422333D

 31 34  0  0  1  0  0  0  0  0999 V2000
  161.9540  210.7320  149.5350 C   0  0  0  0  0  0  0  0  0  0  0  0
  161.2850  208.4170  152.4350 C   0  0  0  0  0  0  0  0  0  0  0  0
  161.0400  209.2560  153.5750 C   0  0  0  0  0  0  0  0  0  0  0  0
  160.8180  211.4530  154.6310 C   0  0  0  0  0  3  0  0  0  0  0  0
  161.5820  208.9130  151.1280 C   0  0  0  0  0  0  0  0  0  0  0  0
  162.1830  209.8110  148.5150 C   0  0  0  0  0  3  0  0  0  0  0  0
  161.0590  210.6620  153.5060 C   0  0  0  0  0  3  0  0  0  0  0  0
  161.4710  206.1310  151.5160 C   0  0  0  0  0  0  0  0  0  0  0  0
  162.0240  212.1260  149.2650 N   0  0  0  0  0  1  0  0  0  0  0  0
  160.7330  207.2900  154.9810 C   0  0  0  0  0  3  0  0  0  0  0  0
  160.5520  210.8530  155.8600 C   0  0  0  0  0  0  0  0  0  0  0  0
  161.7550  206.6630  150.3030 N   0  0  0  0  0  0  0  0  0  0  0  0
  161.2350  206.9980  152.6160 C   0  0  0  0  0  0  0  0  0  0  0  0
  161.6590  210.2860  150.8240 C   0  0  0  0  0  3  0  0  0  0  0  0
  160.3130  211.6380  156.9800 O   0  0  0  0  0  1  0  0  0  0  0  0
  161.8160  207.9940  150.0770 C   0  0  0  0  0  0  0  0  0  0  0  0
  162.1130  208.4460  148.7870 C   0  0  0  0  0  3  0  0  0  0  0  0
  160.9640  206.4730  153.8870 C   0  0  0  0  0  3  0  0  0  0  0  0
  160.7660  208.6680  154.8380 C   0  0  0  0  0  0  0  0  0  0  0  0
  160.5270  209.4640  155.9620 C   0  0  0  0  0  3  0  0  0  0  0  0
  161.2150  203.8400  150.5510 C   0  0  0  0  0  3  0  0  0  0  0  0
  161.4460  204.6500  151.5770 C   0  0  0  0  0  3  0  0  0  0  0  0
  160.8470  202.0280  152.0380 O   0  0  0  0  0  1  0  0  0  0  0  0
  161.1950  202.3580  150.7270 C   0  0  1  0  0  3  0  0  0  0  0  0
  160.2370  201.6960  149.7370 C   0  0  0  0  0  2  0  0  0  0  0  0
  161.5660  200.5790  148.1040 O   0  0  0  0  0  0  0  0  0  0  0  0
  160.8260  201.5620  148.3680 C   0  0  0  0  0  0  0  0  0  0  0  0
  160.5360  202.5620  147.3830 N   0  0  0  0  0  2  0  0  0  0  0  0
  160.8140  202.4910  145.9780 C   0  0  0  0  0  0  0  0  0  0  0  0
  160.0810  201.4020  144.9970 S   0  0  0  0  0  0  0  0  0  0  0  0
  161.6420  203.5590  145.3590 C   0  0  0  0  0  1  0  0  0  0  0  0
  1 14  1  0  0  0  0
  2 13  2  0  0  0  0
  2  3  1  0  0  0  0
  3 19  1  0  0  0  0
  4 11  2  0  0  0  0
  5  2  1  0  0  0  0
  6 17  1  0  0  0  0
  6  1  2  0  0  0  0
  7  3  2  0  0  0  0
  7  4  1  0  0  0  0
  8 22  1  0  0  0  0
  8 13  1  0  0  0  0
  9  1  1  0  0  0  0
 11 20  1  0  0  0  0
 11 15  1  0  0  0  0
 12  8  2  0  0  0  0
 13 18  1  0  0  0  0
 14  5  2  0  0  0  0
 16 12  1  0  0  0  0
 16  5  1  0  0  0  0
 17 16  2  0  0  0  0
 18 10  2  0  0  0  0
 19 10  1  0  0  0  0
 19 20  2  0  0  0  0
 21 24  1  0  0  0  0
 21 22  2  0  0  0  0
 24 23  1  1  0  0  0
 25 24  1  0  0  0  0
 26 27  2  0  0  0  0
 27 25  1  0  0  0  0
 28 27  1  0  0  0  0
 29 28  1  0  0  0  0
 30 29  2  0  0  0  0
 31 29  1  0  0  0  0
M  END
>  <MODEL>
5

>  <REMARK>
 VINA RESULT:      -9.0      4.235      8.419
  Name = 
  5 active torsions:
  status: ('A' for Active; 'I' for Inactive)
    1  A    between atoms: C_1  and  N_24
    2  A    between atoms: C_3  and  C_19
    3  A    between atoms: C_3  and  C_22
    4  A    between atoms: C_9  and  C_22
    5  A    between atoms: C_15  and  C_23
                            x       y       z     vdW  Elec       q    Type
                         _______ _______ _______ _____ _____    ______ ____

>  <TORSDO>
F 5

$$$$
=
 OpenBabel11052422333D

 31 34  0  0  1  0  0  0  0  0999 V2000
  161.0810  204.4700  149.4540 C   0  0  0  0  0  0  0  0  0  0  0  0
  161.4610  207.8470  151.0890 C   0  0  0  0  0  0  0  0  0  0  0  0
  161.2070  207.6500  152.4890 C   0  0  0  0  0  0  0  0  0  0  0  0
  160.6530  206.2290  154.4030 C   0  0  0  0  0  3  0  0  0  0  0  0
  161.4150  206.8020  150.1150 C   0  0  0  0  0  0  0  0  0  0  0  0
  161.3380  204.7950  148.1240 C   0  0  0  0  0  3  0  0  0  0  0  0
  160.8960  206.3910  153.0380 C   0  0  0  0  0  3  0  0  0  0  0  0
  162.0330  209.4070  149.2610 C   0  0  0  0  0  0  0  0  0  0  0  0
  160.7780  203.1280  149.8130 N   0  0  0  0  0  1  0  0  0  0  0  0
  161.5600  210.0230  152.9070 C   0  0  0  0  0  3  0  0  0  0  0  0
  160.7120  207.3300  155.2570 C   0  0  0  0  0  0  0  0  0  0  0  0
  161.9660  208.3760  148.3860 N   0  0  0  0  0  0  0  0  0  0  0  0
  161.7740  209.1680  150.6370 C   0  0  0  0  0  0  0  0  0  0  0  0
  161.1190  205.4630  150.4340 C   0  0  0  0  0  3  0  0  0  0  0  0
  160.4700  207.1710  156.6140 O   0  0  0  0  0  1  0  0  0  0  0  0
  161.6740  207.1100  148.7570 C   0  0  0  0  0  0  0  0  0  0  0  0
  161.6340  206.1130  147.7780 C   0  0  0  0  0  3  0  0  0  0  0  0
  161.8110  210.2220  151.5590 C   0  0  0  0  0  3  0  0  0  0  0  0
  161.2620  208.7550  153.3770 C   0  0  0  0  0  0  0  0  0  0  0  0
  161.0170  208.5890  154.7440 C   0  0  0  0  0  3  0  0  0  0  0  0
  161.4910  211.5960  148.1840 C   0  0  0  0  0  3  0  0  0  0  0  0
  162.3670  210.7270  148.6740 C   0  0  0  0  0  3  0  0  0  0  0  0
  163.3200  213.0400  147.7320 O   0  0  0  0  0  1  0  0  0  0  0  0
  161.9370  212.8940  147.5970 C   0  0  1  0  0  3  0  0  0  0  0  0
  161.5280  213.0080  146.1290 C   0  0  0  0  0  2  0  0  0  0  0  0
  159.5600  212.0840  145.1540 O   0  0  0  0  0  0  0  0  0  0  0  0
  160.0460  212.9400  145.9380 C   0  0  0  0  0  0  0  0  0  0  0  0
  159.2080  213.8560  146.6540 N   0  0  0  0  0  2  0  0  0  0  0  0
  157.7800  213.7990  146.7770 C   0  0  0  0  0  0  0  0  0  0  0  0
  156.7800  214.3350  145.5940 S   0  0  0  0  0  0  0  0  0  0  0  0
  157.1910  213.0570  147.9220 C   0  0  0  0  0  1  0  0  0  0  0  0
  1  9  1  0  0  0  0
  1 14  1  0  0  0  0
  2  3  1  0  0  0  0
  3  7  2  0  0  0  0
  3 19  1  0  0  0  0
  4 11  2  0  0  0  0
  5 14  2  0  0  0  0
  5  2  1  0  0  0  0
  6  1  2  0  0  0  0
  7  4  1  0  0  0  0
  8 13  1  0  0  0  0
 10 19  1  0  0  0  0
 11 15  1  0  0  0  0
 12 16  1  0  0  0  0
 12  8  2  0  0  0  0
 13  2  2  0  0  0  0
 13 18  1  0  0  0  0
 16  5  1  0  0  0  0
 17  6  1  0  0  0  0
 17 16  2  0  0  0  0
 18 10  2  0  0  0  0
 19 20  2  0  0  0  0
 20 11  1  0  0  0  0
 21 22  2  0  0  0  0
 22  8  1  0  0  0  0
 24 23  1  6  0  0  0
 24 21  1  0  0  0  0
 25 24  1  0  0  0  0
 26 27  2  0  0  0  0
 27 25  1  0  0  0  0
 27 28  1  0  0  0  0
 28 29  1  0  0  0  0
 29 31  1  0  0  0  0
 30 29  2  0  0  0  0
M  END
>  <MODEL>
6

>  <REMARK>
 VINA RESULT:      -9.0      2.445      4.295
  Name = 
  5 active torsions:
  status: ('A' for Active; 'I' for Inactive)
    1  A    between atoms: C_1  and  N_24
    2  A    between atoms: C_3  and  C_19
    3  A    between atoms: C_3  and  C_22
    4  A    between atoms: C_9  and  C_22
    5  A    between atoms: C_15  and  C_23
                            x       y       z     vdW  Elec       q    Type
                         _______ _______ _______ _____ _____    ______ ____

>  <TORSDO>
F 5

$$$$
=
 OpenBabel11052422333D

 31 34  0  0  1  0  0  0  0  0999 V2000
  161.1910  204.7870  149.1030 C   0  0  0  0  0  0  0  0  0  0  0  0
  161.4310  208.0810  150.9220 C   0  0  0  0  0  0  0  0  0  0  0  0
  161.2090  207.7930  152.3120 C   0  0  0  0  0  0  0  0  0  0  0  0
  160.7550  206.2410  154.1490 C   0  0  0  0  0  3  0  0  0  0  0  0
  161.4220  207.0910  149.8910 C   0  0  0  0  0  0  0  0  0  0  0  0
  161.4110  205.1980  147.7900 C   0  0  0  0  0  3  0  0  0  0  0  0
  160.9690  206.4910  152.7930 C   0  0  0  0  0  3  0  0  0  0  0  0
  161.8970  209.7680  149.1790 C   0  0  0  0  0  0  0  0  0  0  0  0
  160.9600  203.4130  149.3890 N   0  0  0  0  0  1  0  0  0  0  0  0
  161.4530  210.1540  152.8600 C   0  0  0  0  0  3  0  0  0  0  0  0
  160.7740  207.2930  155.0630 C   0  0  0  0  0  0  0  0  0  0  0  0
  161.8670  208.7860  148.2470 N   0  0  0  0  0  0  0  0  0  0  0  0
  161.6720  209.4390  150.5430 C   0  0  0  0  0  0  0  0  0  0  0  0
  161.1960  205.7230  150.1370 C   0  0  0  0  0  3  0  0  0  0  0  0
  160.5620  207.0470  156.4120 O   0  0  0  0  0  1  0  0  0  0  0  0
  161.6430  207.4880  148.5500 C   0  0  0  0  0  0  0  0  0  0  0  0
  161.6360  206.5460  147.5160 C   0  0  0  0  0  3  0  0  0  0  0  0
  161.6730  210.4410  151.5230 C   0  0  0  0  0  3  0  0  0  0  0  0
  161.2250  208.8480  153.2610 C   0  0  0  0  0  0  0  0  0  0  0  0
  161.0090  208.5930  154.6190 C   0  0  0  0  0  3  0  0  0  0  0  0
  161.3240  211.8470  147.9160 C   0  0  0  0  0  3  0  0  0  0  0  0
  162.1580  211.1340  148.6640 C   0  0  0  0  0  3  0  0  0  0  0  0
  162.1690  213.9880  148.4910 O   0  0  0  0  0  1  0  0  0  0  0  0
  161.6930  213.2100  147.4340 C   0  0  1  0  0  3  0  0  0  0  0  0
  162.7300  213.1390  146.3130 C   0  0  0  0  0  2  0  0  0  0  0  0
  160.9730  213.7860  144.8380 O   0  0  0  0  0  0  0  0  0  0  0  0
  162.1200  213.2800  144.9550 C   0  0  0  0  0  0  0  0  0  0  0  0
  162.8560  212.8320  143.8090 N   0  0  0  0  0  2  0  0  0  0  0  0
  162.5430  213.0860  142.4330 C   0  0  0  0  0  0  0  0  0  0  0  0
  161.4200  212.2140  141.6180 S   0  0  0  0  0  0  0  0  0  0  0  0
  163.1110  214.2960  141.7830 C   0  0  0  0  0  1  0  0  0  0  0  0
  1  9  1  0  0  0  0
  1 14  1  0  0  0  0
  2  3  1  0  0  0  0
  3  7  2  0  0  0  0
  3 19  1  0  0  0  0
  4 11  2  0  0  0  0
  5 14  2  0  0  0  0
  5  2  1  0  0  0  0
  6  1  2  0  0  0  0
  7  4  1  0  0  0  0
  8 13  1  0  0  0  0
 10 19  1  0  0  0  0
 11 15  1  0  0  0  0
 12 16  1  0  0  0  0
 12  8  2  0  0  0  0
 13  2  2  0  0  0  0
 13 18  1  0  0  0  0
 16  5  1  0  0  0  0
 17  6  1  0  0  0  0
 17 16  2  0  0  0  0
 18 10  2  0  0  0  0
 19 20  2  0  0  0  0
 20 11  1  0  0  0  0
 21 22  2  0  0  0  0
 22  8  1  0  0  0  0
 24 21  1  0  0  0  0
 24 23  1  1  0  0  0
 25 24  1  0  0  0  0
 26 27  2  0  0  0  0
 27 25  1  0  0  0  0
 28 27  1  0  0  0  0
 29 28  1  0  0  0  0
 30 29  2  0  0  0  0
 31 29  1  0  0  0  0
M  END
>  <MODEL>
7

>  <REMARK>
 VINA RESULT:      -8.9      3.216      5.016
  Name = 
  5 active torsions:
  status: ('A' for Active; 'I' for Inactive)
    1  A    between atoms: C_1  and  N_24
    2  A    between atoms: C_3  and  C_19
    3  A    between atoms: C_3  and  C_22
    4  A    between atoms: C_9  and  C_22
    5  A    between atoms: C_15  and  C_23
                            x       y       z     vdW  Elec       q    Type
                         _______ _______ _______ _____ _____    ______ ____

>  <TORSDO>
F 5

$$$$
=
 OpenBabel11052422333D

 31 34  0  0  1  0  0  0  0  0999 V2000
  161.2100  201.1820  149.5000 C   0  0  0  0  0  0  0  0  0  0  0  0
  161.1930  204.9020  148.8840 C   0  0  0  0  0  0  0  0  0  0  0  0
  161.2080  205.0760  147.4580 C   0  0  0  0  0  0  0  0  0  0  0  0
  161.2280  204.1940  145.1760 C   0  0  0  0  0  3  0  0  0  0  0  0
  161.1950  203.6280  149.5320 C   0  0  0  0  0  0  0  0  0  0  0  0
  161.2060  201.1500  150.8930 C   0  0  0  0  0  3  0  0  0  0  0  0
  161.2130  203.9940  146.5570 C   0  0  0  0  0  3  0  0  0  0  0  0
  161.1680  205.9450  151.1240 C   0  0  0  0  0  0  0  0  0  0  0  0
  161.2210  199.9680  148.7600 N   0  0  0  0  0  1  0  0  0  0  0  0
  161.2150  207.4970  147.7350 C   0  0  0  0  0  3  0  0  0  0  0  0
  161.2400  205.4880  144.6580 C   0  0  0  0  0  0  0  0  0  0  0  0
  161.1780  204.7090  151.6780 N   0  0  0  0  0  0  0  0  0  0  0  0
  161.1830  206.0710  149.7090 C   0  0  0  0  0  0  0  0  0  0  0  0
  161.2060  202.4070  148.8320 C   0  0  0  0  0  3  0  0  0  0  0  0
  161.2540  205.6880  143.2850 O   0  0  0  0  0  1  0  0  0  0  0  0
  161.1900  203.5730  150.9470 C   0  0  0  0  0  0  0  0  0  0  0  0
  161.1960  202.3430  151.6130 C   0  0  0  0  0  3  0  0  0  0  0  0
  161.1970  207.3390  149.1110 C   0  0  0  0  0  3  0  0  0  0  0  0
  161.2190  206.3850  146.9090 C   0  0  0  0  0  0  0  0  0  0  0  0
  161.2350  206.5800  145.5240 C   0  0  0  0  0  3  0  0  0  0  0  0
  160.8310  206.9970  153.3650 C   0  0  0  0  0  3  0  0  0  0  0  0
  161.1550  207.0780  152.0800 C   0  0  0  0  0  3  0  0  0  0  0  0
  161.5960  207.9760  155.3870 O   0  0  0  0  0  1  0  0  0  0  0  0
  160.8330  208.2060  154.2390 C   0  0  1  0  0  3  0  0  0  0  0  0
  161.3540  209.4320  153.4880 C   0  0  0  0  0  2  0  0  0  0  0  0
  160.8410  211.4520  154.6430 O   0  0  0  0  0  0  0  0  0  0  0  0
  160.5200  210.6500  153.7280 C   0  0  0  0  0  0  0  0  0  0  0  0
  159.3680  210.8790  152.9070 N   0  0  0  0  0  2  0  0  0  0  0  0
  158.5900  212.0810  152.8320 C   0  0  0  0  0  0  0  0  0  0  0  0
  158.6330  213.0690  151.5250 S   0  0  0  0  0  0  0  0  0  0  0  0
  157.5700  212.3390  153.8820 C   0  0  0  0  0  1  0  0  0  0  0  0
  1  6  1  0  0  0  0
  2  5  2  0  0  0  0
  2 13  1  0  0  0  0
  3  2  1  0  0  0  0
  4  7  1  0  0  0  0
  5 16  1  0  0  0  0
  6 17  2  0  0  0  0
  7  3  2  0  0  0  0
  8 12  1  0  0  0  0
  8 22  1  0  0  0  0
  9  1  1  0  0  0  0
 10 18  2  0  0  0  0
 11  4  2  0  0  0  0
 11 20  1  0  0  0  0
 13  8  2  0  0  0  0
 14  1  2  0  0  0  0
 14  5  1  0  0  0  0
 15 11  1  0  0  0  0
 16 17  1  0  0  0  0
 16 12  2  0  0  0  0
 18 13  1  0  0  0  0
 19  3  1  0  0  0  0
 19 10  1  0  0  0  0
 20 19  2  0  0  0  0
 21 24  1  0  0  0  0
 22 21  2  0  0  0  0
 24 23  1  1  0  0  0
 25 27  1  0  0  0  0
 25 24  1  0  0  0  0
 27 26  2  0  0  0  0
 28 27  1  0  0  0  0
 29 28  1  0  0  0  0
 29 31  1  0  0  0  0
 30 29  2  0  0  0  0
M  END
>  <MODEL>
8

>  <REMARK>
 VINA RESULT:      -8.8      3.861      6.023
  Name = 
  5 active torsions:
  status: ('A' for Active; 'I' for Inactive)
    1  A    between atoms: C_1  and  N_24
    2  A    between atoms: C_3  and  C_19
    3  A    between atoms: C_3  and  C_22
    4  A    between atoms: C_9  and  C_22
    5  A    between atoms: C_15  and  C_23
                            x       y       z     vdW  Elec       q    Type
                         _______ _______ _______ _____ _____    ______ ____

>  <TORSDO>
F 5

$$$$
=
 OpenBabel11052422333D

 31 34  0  0  1  0  0  0  0  0999 V2000
  161.9000  207.9510  148.2980 C   0  0  0  0  0  0  0  0  0  0  0  0
  161.2520  205.3520  150.9520 C   0  0  0  0  0  0  0  0  0  0  0  0
  161.1600  204.0910  150.2700 C   0  0  0  0  0  0  0  0  0  0  0  0
  161.2160  202.7260  148.2390 C   0  0  0  0  0  3  0  0  0  0  0  0
  161.4930  206.5990  150.2960 C   0  0  0  0  0  0  0  0  0  0  0  0
  161.9570  209.1070  149.0750 C   0  0  0  0  0  3  0  0  0  0  0  0
  161.3110  203.9650  148.8750 C   0  0  0  0  0  3  0  0  0  0  0  0
  161.1730  206.5910  153.0880 C   0  0  0  0  0  0  0  0  0  0  0  0
  162.0740  208.0310  146.8890 N   0  0  0  0  0  1  0  0  0  0  0  0
  160.7430  202.9560  152.3850 C   0  0  0  0  0  3  0  0  0  0  0  0
  160.9630  201.5770  148.9860 C   0  0  0  0  0  0  0  0  0  0  0  0
  161.3950  207.7400  152.4070 N   0  0  0  0  0  0  0  0  0  0  0  0
  161.0890  205.3660  152.3740 C   0  0  0  0  0  0  0  0  0  0  0  0
  161.6700  206.7150  148.9040 C   0  0  0  0  0  3  0  0  0  0  0  0
  160.8670  200.3440  148.3550 O   0  0  0  0  0  1  0  0  0  0  0  0
  161.5550  207.7850  151.0660 C   0  0  0  0  0  0  0  0  0  0  0  0
  161.7850  209.0220  150.4550 C   0  0  0  0  0  3  0  0  0  0  0  0
  160.8350  204.1660  153.0510 C   0  0  0  0  0  3  0  0  0  0  0  0
  160.9040  202.9070  151.0100 C   0  0  0  0  0  0  0  0  0  0  0  0
  160.8080  201.6680  150.3680 C   0  0  0  0  0  3  0  0  0  0  0  0
  160.5570  207.8080  155.1820 C   0  0  0  0  0  3  0  0  0  0  0  0
  161.0220  206.7330  154.5560 C   0  0  0  0  0  3  0  0  0  0  0  0
  160.6620  206.5810  157.2100 O   0  0  0  0  0  1  0  0  0  0  0  0
  160.4630  207.8540  156.6710 C   0  0  1  0  0  3  0  0  0  0  0  0
  161.4650  208.8470  157.2590 C   0  0  0  0  0  2  0  0  0  0  0  0
  162.6130  210.5630  156.0680 O   0  0  0  0  0  0  0  0  0  0  0  0
  161.5110  210.1350  156.5000 C   0  0  0  0  0  0  0  0  0  0  0  0
  160.2940  210.8600  156.2820 N   0  0  0  0  0  2  0  0  0  0  0  0
  160.1030  211.9740  155.4000 C   0  0  0  0  0  0  0  0  0  0  0  0
  160.0770  211.8020  153.7700 S   0  0  0  0  0  0  0  0  0  0  0  0
  159.7230  213.2880  155.9810 C   0  0  0  0  0  1  0  0  0  0  0  0
  1 14  2  0  0  0  0
  1  6  1  0  0  0  0
  2 13  1  0  0  0  0
  3  2  2  0  0  0  0
  3 19  1  0  0  0  0
  4  7  2  0  0  0  0
  4 11  1  0  0  0  0
  5  2  1  0  0  0  0
  5 16  2  0  0  0  0
  6 17  2  0  0  0  0
  7  3  1  0  0  0  0
  8 22  1  0  0  0  0
  9  1  1  0  0  0  0
 10 18  1  0  0  0  0
 11 20  2  0  0  0  0
 12  8  2  0  0  0  0
 13 18  2  0  0  0  0
 13  8  1  0  0  0  0
 14  5  1  0  0  0  0
 15 11  1  0  0  0  0
 16 12  1  0  0  0  0
 17 16  1  0  0  0  0
 19 10  2  0  0  0  0
 20 19  1  0  0  0  0
 21 24  1  0  0  0  0
 22 21  2  0  0  0  0
 24 23  1  1  0  0  0
 24 25  1  0  0  0  0
 26 27  2  0  0  0  0
 27 25  1  0  0  0  0
 28 27  1  0  0  0  0
 29 31  1  0  0  0  0
 29 28  1  0  0  0  0
 30 29  2  0  0  0  0
M  END
>  <MODEL>
9

>  <REMARK>
 VINA RESULT:      -8.0      3.769      6.440
  Name = 
  5 active torsions:
  status: ('A' for Active; 'I' for Inactive)
    1  A    between atoms: C_1  and  N_24
    2  A    between atoms: C_3  and  C_19
    3  A    between atoms: C_3  and  C_22
    4  A    between atoms: C_9  and  C_22
    5  A    between atoms: C_15  and  C_23
                            x       y       z     vdW  Elec       q    Type
                         _______ _______ _______ _____ _____    ______ ____

>  <TORSDO>
F 5

$$$$
