=
 OpenBabel11052421523D

 30 31  0  0  1  0  0  0  0  0999 V2000
  161.5380  209.4100  153.6690 N   0  0  0  0  0  0  0  0  0  0  0  0
  160.7310  208.3790  153.0450 C   0  0  1  0  0  3  0  0  0  0  0  0
  160.8460  208.6390  151.5500 C   0  0  0  0  0  2  0  0  0  0  0  0
  162.3120  210.1830  152.7180 C   0  0  0  0  0  2  0  0  0  0  0  0
  162.0520  209.5480  151.3660 C   0  0  0  0  0  2  0  0  0  0  0  0
  162.2680  210.6100  155.5340 O   0  0  0  0  0  0  0  0  0  0  0  0
  161.4660  209.7590  155.0590 C   0  0  0  0  0  0  0  0  0  0  0  0
  160.4150  209.1540  155.9490 C   0  0  2  0  0  3  0  0  0  0  0  0
  161.2420  207.4210  157.2610 N   0  0  0  0  0  1  0  0  0  0  0  0
  160.5940  207.7010  156.0480 N   0  0  0  0  0  0  0  0  0  0  0  0
  159.3670  207.1340  156.1400 O   0  0  0  0  0  1  0  0  0  0  0  0
  159.0380  209.4880  155.3750 C   0  0  0  0  0  2  0  0  0  0  0  0
  158.3390  211.2480  156.8380 O   0  0  0  0  0  1  0  0  0  0  0  0
  158.7230  210.9690  155.5250 C   0  0  2  0  0  3  0  0  0  0  0  0
  157.6520  211.4320  154.5360 C   0  0  0  0  0  2  0  0  0  0  0  0
  158.9110  211.7450  152.3910 C   0  0  0  0  0  1  0  0  0  0  0  0
  159.1020  213.4100  154.2000 C   0  0  0  0  0  1  0  0  0  0  0  0
  158.1640  212.4400  153.5130 C   0  0  0  0  0  3  0  0  0  0  0  0
  161.3070  207.0070  153.3880 C   0  0  0  0  0  2  0  0  0  0  0  0
  161.6730  206.1980  152.1480 C   0  0  1  0  0  3  0  0  0  0  0  0
  163.0600  206.1820  152.0120 O   0  0  0  0  0  1  0  0  0  0  0  0
  161.1710  204.7620  152.2490 C   0  0  0  0  0  2  0  0  0  0  0  0
  160.8970  202.3660  148.3600 C   0  0  0  0  0  0  0  0  0  0  0  0
  161.6460  203.6140  148.0310 C   0  0  0  0  0  2  0  0  0  0  0  0
  160.5780  201.5170  147.3550 F   0  0  0  0  0  0  0  0  0  0  0  0
  160.9670  204.1490  150.9040 C   0  0  0  0  0  0  0  0  0  0  0  0
  160.9200  204.8280  148.5020 C   0  0  0  0  0  3  0  0  0  0  0  0
  160.6390  202.0010  149.6170 C   0  0  0  0  0  3  0  0  0  0  0  0
  160.6620  205.0660  149.7870 C   0  0  0  0  0  3  0  0  0  0  0  0
  160.9030  202.8110  150.8230 C   0  0  0  0  0  3  0  0  0  0  0  0
  1  7  1  0  0  0  0
  2 19  1  6  0  0  0
  2  1  1  0  0  0  0
  3  2  1  0  0  0  0
  4  1  1  0  0  0  0
  5  3  1  0  0  0  0
  5  4  1  0  0  0  0
  7  6  2  0  0  0  0
  7  8  1  0  0  0  0
  8 12  1  6  0  0  0
  8 10  1  0  0  0  0
 10 11  1  0  0  0  0
 10  9  1  0  0  0  0
 12 14  1  0  0  0  0
 14 13  1  1  0  0  0
 15 14  1  0  0  0  0
 16 18  1  0  0  0  0
 18 17  1  0  0  0  0
 18 15  1  0  0  0  0
 20 21  1  1  0  0  0
 20 22  1  0  0  0  0
 20 19  1  0  0  0  0
 23 28  2  0  0  0  0
 24 23  1  0  0  0  0
 24 27  1  0  0  0  0
 25 23  1  0  0  0  0
 26 22  1  0  0  0  0
 27 29  2  0  0  0  0
 28 30  1  0  0  0  0
 29 26  1  0  0  0  0
 30 26  2  0  0  0  0
M  END
>  <MODEL>
1

>  <REMARK>
 VINA RESULT:      -7.4      0.000      0.000
  Name = 
  10 active torsions:
  status: ('A' for Active; 'I' for Inactive)
    1  A    between atoms: C_3  and  C_11
    2  A    between atoms: C_3  and  C_19
    3  A    between atoms: N_4  and  C_13
    4  A    between atoms: C_8  and  C_12
    5  A    between atoms: C_8  and  C_13
    6  A    between atoms: C_9  and  C_12
    7  A    between atoms: C_9  and  C_21
    8  A    between atoms: C_10  and  C_25
    9  A    between atoms: C_11  and  C_25
   10  A    between atoms: C_13  and  C_30
                            x       y       z     vdW  Elec       q    Type
                         _______ _______ _______ _____ _____    ______ ____

>  <TORSDO>
F 10

$$$$
=
 OpenBabel11052421523D

 30 31  0  0  1  0  0  0  0  0999 V2000
  161.6850  208.7580  151.0960 N   0  0  0  0  0  0  0  0  0  0  0  0
  160.6750  207.7300  151.2600 C   0  0  1  0  0  3  0  0  0  0  0  0
  160.5220  207.1030  149.8820 C   0  0  0  0  0  2  0  0  0  0  0  0
  162.3320  208.7210  149.7990 C   0  0  0  0  0  2  0  0  0  0  0  0
  161.7540  207.5140  149.0870 C   0  0  0  0  0  2  0  0  0  0  0  0
  162.8770  210.6170  151.8540 O   0  0  0  0  0  0  0  0  0  0  0  0
  161.9190  209.8160  152.0360 C   0  0  0  0  0  0  0  0  0  0  0  0
  161.0070  210.0100  153.2160 C   0  0  2  0  0  3  0  0  0  0  0  0
  159.0760  211.0740  153.9570 N   0  0  0  0  0  1  0  0  0  0  0  0
  159.7550  210.6550  152.8020 N   0  0  0  0  0  0  0  0  0  0  0  0
  160.0720  211.7850  152.1250 O   0  0  0  0  0  1  0  0  0  0  0  0
  161.7310  210.8600  154.2600 C   0  0  0  0  0  2  0  0  0  0  0  0
  163.0320  210.3960  156.2140 O   0  0  0  0  0  1  0  0  0  0  0  0
  161.8030  210.1440  155.6000 C   0  0  2  0  0  3  0  0  0  0  0  0
  161.5650  208.6400  155.4610 C   0  0  0  0  0  2  0  0  0  0  0  0
  159.6940  207.0660  156.0160 C   0  0  0  0  0  1  0  0  0  0  0  0
  159.9530  209.1790  157.2610 C   0  0  0  0  0  1  0  0  0  0  0  0
  160.6990  208.0550  156.5730 C   0  0  0  0  0  3  0  0  0  0  0  0
  161.1690  206.6890  152.2620 C   0  0  0  0  0  2  0  0  0  0  0  0
  161.8690  205.5130  151.5890 C   0  0  1  0  0  3  0  0  0  0  0  0
  163.1450  205.3750  152.1320 O   0  0  0  0  0  1  0  0  0  0  0  0
  161.1020  204.2130  151.7970 C   0  0  0  0  0  2  0  0  0  0  0  0
  160.8730  202.0930  147.7480 C   0  0  0  0  0  0  0  0  0  0  0  0
  160.0380  201.2900  148.6880 C   0  0  0  0  0  2  0  0  0  0  0  0
  161.0670  201.6250  146.4920 F   0  0  0  0  0  0  0  0  0  0  0  0
  161.1220  203.3540  150.5770 C   0  0  0  0  0  0  0  0  0  0  0  0
  160.7820  200.9650  149.9390 C   0  0  0  0  0  3  0  0  0  0  0  0
  161.3300  203.3060  148.0600 C   0  0  0  0  0  3  0  0  0  0  0  0
  161.2220  201.8950  150.7840 C   0  0  0  0  0  3  0  0  0  0  0  0
  161.2220  203.9560  149.3820 C   0  0  0  0  0  3  0  0  0  0  0  0
  1  2  1  0  0  0  0
  1  7  1  0  0  0  0
  2 19  1  1  0  0  0
  3  2  1  0  0  0  0
  4  1  1  0  0  0  0
  5  4  1  0  0  0  0
  5  3  1  0  0  0  0
  6  7  2  0  0  0  0
  7  8  1  0  0  0  0
  8 12  1  1  0  0  0
 10  8  1  0  0  0  0
 10  9  1  0  0  0  0
 11 10  1  0  0  0  0
 12 14  1  0  0  0  0
 14 13  1  6  0  0  0
 15 14  1  0  0  0  0
 15 18  1  0  0  0  0
 16 18  1  0  0  0  0
 18 17  1  0  0  0  0
 20 22  1  0  0  0  0
 20 21  1  1  0  0  0
 20 19  1  0  0  0  0
 23 28  2  0  0  0  0
 23 24  1  0  0  0  0
 24 27  1  0  0  0  0
 25 23  1  0  0  0  0
 26 29  1  0  0  0  0
 26 22  1  0  0  0  0
 27 29  2  0  0  0  0
 28 30  1  0  0  0  0
 30 26  2  0  0  0  0
M  END
>  <MODEL>
2

>  <REMARK>
 VINA RESULT:      -7.3      2.458      3.520
  Name = 
  10 active torsions:
  status: ('A' for Active; 'I' for Inactive)
    1  A    between atoms: C_3  and  C_11
    2  A    between atoms: C_3  and  C_19
    3  A    between atoms: N_4  and  C_13
    4  A    between atoms: C_8  and  C_12
    5  A    between atoms: C_8  and  C_13
    6  A    between atoms: C_9  and  C_12
    7  A    between atoms: C_9  and  C_21
    8  A    between atoms: C_10  and  C_25
    9  A    between atoms: C_11  and  C_25
   10  A    between atoms: C_13  and  C_30
                            x       y       z     vdW  Elec       q    Type
                         _______ _______ _______ _____ _____    ______ ____

>  <TORSDO>
F 10

$$$$
=
 OpenBabel11052421523D

 30 31  0  0  1  0  0  0  0  0999 V2000
  161.1810  206.8190  152.6060 N   0  0  0  0  0  0  0  0  0  0  0  0
  161.7980  206.9380  151.2980 C   0  0  1  0  0  3  0  0  0  0  0  0
  162.4910  205.6030  151.0660 C   0  0  0  0  0  2  0  0  0  0  0  0
  161.2460  205.4760  153.1480 C   0  0  0  0  0  2  0  0  0  0  0  0
  161.8860  204.6280  152.0660 C   0  0  0  0  0  2  0  0  0  0  0  0
  160.1000  207.7260  154.4660 O   0  0  0  0  0  0  0  0  0  0  0  0
  160.7020  207.9310  153.3760 C   0  0  0  0  0  0  0  0  0  0  0  0
  160.9480  209.3430  152.9200 C   0  0  2  0  0  3  0  0  0  0  0  0
  162.8130  210.2910  151.9050 N   0  0  0  0  0  1  0  0  0  0  0  0
  162.3600  209.7050  153.0970 N   0  0  0  0  0  0  0  0  0  0  0  0
  162.4260  210.6760  154.0390 O   0  0  0  0  0  1  0  0  0  0  0  0
  160.0480  210.2800  153.7240 C   0  0  0  0  0  2  0  0  0  0  0  0
  159.9490  211.9220  151.9870 O   0  0  0  0  0  1  0  0  0  0  0  0
  159.1630  211.1130  152.8090 C   0  0  2  0  0  3  0  0  0  0  0  0
  158.1550  211.9530  153.5940 C   0  0  0  0  0  2  0  0  0  0  0  0
  156.1880  211.0990  154.8930 C   0  0  0  0  0  1  0  0  0  0  0  0
  158.0740  212.1790  156.0580 C   0  0  0  0  0  1  0  0  0  0  0  0
  157.6910  211.2950  154.8900 C   0  0  0  0  0  3  0  0  0  0  0  0
  160.7160  207.1610  150.2450 C   0  0  0  0  0  2  0  0  0  0  0  0
  161.2730  207.7270  148.9430 C   0  0  1  0  0  3  0  0  0  0  0  0
  161.8590  208.9650  149.2030 O   0  0  0  0  0  1  0  0  0  0  0  0
  162.3200  206.8030  148.3350 C   0  0  0  0  0  2  0  0  0  0  0  0
  161.0290  203.5220  145.4170 C   0  0  0  0  0  0  0  0  0  0  0  0
  161.1560  204.7720  144.6120 C   0  0  0  0  0  2  0  0  0  0  0  0
  160.5510  202.4090  144.8140 F   0  0  0  0  0  0  0  0  0  0  0  0
  161.7200  205.8520  147.3540 C   0  0  0  0  0  0  0  0  0  0  0  0
  160.4060  205.9010  145.2320 C   0  0  0  0  0  3  0  0  0  0  0  0
  161.4800  203.4330  146.6690 C   0  0  0  0  0  3  0  0  0  0  0  0
  160.6960  206.3920  146.4360 C   0  0  0  0  0  3  0  0  0  0  0  0
  162.0130  204.5480  147.4770 C   0  0  0  0  0  3  0  0  0  0  0  0
  1  4  1  0  0  0  0
  1  7  1  0  0  0  0
  2 19  1  6  0  0  0
  2  1  1  0  0  0  0
  3  2  1  0  0  0  0
  3  5  1  0  0  0  0
  5  4  1  0  0  0  0
  7  6  2  0  0  0  0
  8 10  1  0  0  0  0
  8  7  1  0  0  0  0
  8 12  1  1  0  0  0
  9 10  1  0  0  0  0
 10 11  1  0  0  0  0
 14 13  1  1  0  0  0
 14 15  1  0  0  0  0
 14 12  1  0  0  0  0
 15 18  1  0  0  0  0
 18 16  1  0  0  0  0
 18 17  1  0  0  0  0
 20 21  1  1  0  0  0
 20 19  1  0  0  0  0
 22 20  1  0  0  0  0
 23 28  2  0  0  0  0
 24 27  1  0  0  0  0
 24 23  1  0  0  0  0
 25 23  1  0  0  0  0
 26 30  2  0  0  0  0
 26 22  1  0  0  0  0
 27 29  2  0  0  0  0
 28 30  1  0  0  0  0
 29 26  1  0  0  0  0
M  END
>  <MODEL>
3

>  <REMARK>
 VINA RESULT:      -7.1      2.255      3.695
  Name = 
  10 active torsions:
  status: ('A' for Active; 'I' for Inactive)
    1  A    between atoms: C_3  and  C_11
    2  A    between atoms: C_3  and  C_19
    3  A    between atoms: N_4  and  C_13
    4  A    between atoms: C_8  and  C_12
    5  A    between atoms: C_8  and  C_13
    6  A    between atoms: C_9  and  C_12
    7  A    between atoms: C_9  and  C_21
    8  A    between atoms: C_10  and  C_25
    9  A    between atoms: C_11  and  C_25
   10  A    between atoms: C_13  and  C_30
                            x       y       z     vdW  Elec       q    Type
                         _______ _______ _______ _____ _____    ______ ____

>  <TORSDO>
F 10

$$$$
=
 OpenBabel11052421523D

 30 31  0  0  1  0  0  0  0  0999 V2000
  161.2450  203.3650  148.1740 N   0  0  0  0  0  0  0  0  0  0  0  0
  160.6250  203.7170  149.4380 C   0  0  1  0  0  3  0  0  0  0  0  0
  160.0150  202.4220  149.9530 C   0  0  0  0  0  2  0  0  0  0  0  0
  161.2610  201.9370  147.9250 C   0  0  0  0  0  2  0  0  0  0  0  0
  160.6770  201.2970  149.1690 C   0  0  0  0  0  2  0  0  0  0  0  0
  162.2650  203.9260  146.1500 O   0  0  0  0  0  0  0  0  0  0  0  0
  161.6540  204.3180  147.1830 C   0  0  0  0  0  0  0  0  0  0  0  0
  161.3230  205.7770  147.3390 C   0  0  2  0  0  3  0  0  0  0  0  0
  161.8870  205.9490  145.0890 N   0  0  0  0  0  1  0  0  0  0  0  0
  160.9490  206.3640  146.0470 N   0  0  0  0  0  0  0  0  0  0  0  0
  159.7650  205.8230  145.6700 O   0  0  0  0  0  1  0  0  0  0  0  0
  162.5400  206.4940  147.9230 C   0  0  0  0  0  2  0  0  0  0  0  0
  160.7690  207.4840  149.1910 O   0  0  0  0  0  1  0  0  0  0  0  0
  162.1210  207.6110  148.8670 C   0  0  2  0  0  3  0  0  0  0  0  0
  162.4120  208.9950  148.2850 C   0  0  0  0  0  2  0  0  0  0  0  0
  161.8420  211.4360  148.2940 C   0  0  0  0  0  1  0  0  0  0  0  0
  162.4670  210.2970  150.3900 C   0  0  0  0  0  1  0  0  0  0  0  0
  161.7570  210.1320  149.0630 C   0  0  0  0  0  3  0  0  0  0  0  0
  161.6940  204.2190  150.4050 C   0  0  0  0  0  2  0  0  0  0  0  0
  161.1010  204.9220  151.6220 C   0  0  1  0  0  3  0  0  0  0  0  0
  160.8200  203.9710  152.6010 O   0  0  0  0  0  1  0  0  0  0  0  0
  162.0660  205.9520  152.1970 C   0  0  0  0  0  2  0  0  0  0  0  0
  160.2590  209.5380  154.3910 C   0  0  0  0  0  0  0  0  0  0  0  0
  160.9640  208.7270  155.4260 C   0  0  0  0  0  2  0  0  0  0  0  0
  159.5390  210.6130  154.7900 F   0  0  0  0  0  0  0  0  0  0  0  0
  161.3600  206.9750  153.0220 C   0  0  0  0  0  0  0  0  0  0  0  0
  160.5600  207.2930  155.3650 C   0  0  0  0  0  3  0  0  0  0  0  0
  160.4120  209.3150  153.0850 C   0  0  0  0  0  3  0  0  0  0  0  0
  160.7790  206.5210  154.3020 C   0  0  0  0  0  3  0  0  0  0  0  0
  161.1470  208.1850  152.4820 C   0  0  0  0  0  3  0  0  0  0  0  0
  1  2  1  0  0  0  0
  2  3  1  0  0  0  0
  2 19  1  1  0  0  0
  4  1  1  0  0  0  0
  4  5  1  0  0  0  0
  5  3  1  0  0  0  0
  6  7  2  0  0  0  0
  7  8  1  0  0  0  0
  7  1  1  0  0  0  0
  8 12  1  6  0  0  0
  9 10  1  0  0  0  0
 10  8  1  0  0  0  0
 11 10  1  0  0  0  0
 12 14  1  0  0  0  0
 14 13  1  6  0  0  0
 15 14  1  0  0  0  0
 15 18  1  0  0  0  0
 16 18  1  0  0  0  0
 18 17  1  0  0  0  0
 19 20  1  0  0  0  0
 20 22  1  0  0  0  0
 20 21  1  1  0  0  0
 22 26  1  0  0  0  0
 23 25  1  0  0  0  0
 23 24  1  0  0  0  0
 26 29  1  0  0  0  0
 27 24  1  0  0  0  0
 28 23  2  0  0  0  0
 29 27  2  0  0  0  0
 30 26  2  0  0  0  0
 30 28  1  0  0  0  0
M  END
>  <MODEL>
4

>  <REMARK>
 VINA RESULT:      -7.0      4.573      7.959
  Name = 
  10 active torsions:
  status: ('A' for Active; 'I' for Inactive)
    1  A    between atoms: C_3  and  C_11
    2  A    between atoms: C_3  and  C_19
    3  A    between atoms: N_4  and  C_13
    4  A    between atoms: C_8  and  C_12
    5  A    between atoms: C_8  and  C_13
    6  A    between atoms: C_9  and  C_12
    7  A    between atoms: C_9  and  C_21
    8  A    between atoms: C_10  and  C_25
    9  A    between atoms: C_11  and  C_25
   10  A    between atoms: C_13  and  C_30
                            x       y       z     vdW  Elec       q    Type
                         _______ _______ _______ _____ _____    ______ ____

>  <TORSDO>
F 10

$$$$
=
 OpenBabel11052421523D

 30 31  0  0  1  0  0  0  0  0999 V2000
  160.8260  207.9310  154.2270 N   0  0  0  0  0  0  0  0  0  0  0  0
  161.6500  207.8050  153.0390 C   0  0  1  0  0  3  0  0  0  0  0  0
  161.9620  206.3190  152.9320 C   0  0  0  0  0  2  0  0  0  0  0  0
  160.4200  206.6530  154.7780 C   0  0  0  0  0  2  0  0  0  0  0  0
  160.9540  205.6060  153.8210 C   0  0  0  0  0  2  0  0  0  0  0  0
  159.7690  209.1990  155.8780 O   0  0  0  0  0  0  0  0  0  0  0  0
  160.5680  209.1710  154.9010 C   0  0  0  0  0  0  0  0  0  0  0  0
  161.2740  210.4320  154.4860 C   0  0  2  0  0  3  0  0  0  0  0  0
  161.7050  211.6750  156.4030 N   0  0  0  0  0  1  0  0  0  0  0  0
  162.2940  210.8040  155.4740 N   0  0  0  0  0  0  0  0  0  0  0  0
  162.6310  209.6890  156.1660 O   0  0  0  0  0  1  0  0  0  0  0  0
  160.2390  211.5460  154.3370 C   0  0  0  0  0  2  0  0  0  0  0  0
  160.0390  211.9800  151.9920 O   0  0  0  0  0  1  0  0  0  0  0  0
  159.4100  211.3620  153.0740 C   0  0  2  0  0  3  0  0  0  0  0  0
  157.9820  211.8840  153.2430 C   0  0  0  0  0  2  0  0  0  0  0  0
  156.2640  211.1130  154.8980 C   0  0  0  0  0  1  0  0  0  0  0  0
  157.2330  213.3740  155.0720 C   0  0  0  0  0  1  0  0  0  0  0  0
  157.5210  211.9360  154.6960 C   0  0  0  0  0  3  0  0  0  0  0  0
  160.8560  208.2670  151.8200 C   0  0  0  0  0  2  0  0  0  0  0  0
  161.3080  207.5870  150.5320 C   0  0  1  0  0  3  0  0  0  0  0  0
  162.7010  207.5990  150.4810 O   0  0  0  0  0  1  0  0  0  0  0  0
  160.8250  206.1430  150.4630 C   0  0  0  0  0  2  0  0  0  0  0  0
  161.7210  203.9740  146.5350 C   0  0  0  0  0  0  0  0  0  0  0  0
  162.1500  205.3900  146.3390 C   0  0  0  0  0  2  0  0  0  0  0  0
  161.7780  203.1280  145.4800 F   0  0  0  0  0  0  0  0  0  0  0  0
  160.9740  205.5730  149.0930 C   0  0  0  0  0  0  0  0  0  0  0  0
  161.0720  206.3460  146.7210 C   0  0  0  0  0  3  0  0  0  0  0  0
  161.4030  203.4870  147.7350 C   0  0  0  0  0  3  0  0  0  0  0  0
  160.5900  206.4380  147.9600 C   0  0  0  0  0  3  0  0  0  0  0  0
  161.2780  204.2710  148.9800 C   0  0  0  0  0  3  0  0  0  0  0  0
  1  4  1  0  0  0  0
  1  7  1  0  0  0  0
  2 19  1  6  0  0  0
  2  1  1  0  0  0  0
  3  2  1  0  0  0  0
  3  5  1  0  0  0  0
  5  4  1  0  0  0  0
  7  6  2  0  0  0  0
  8 12  1  1  0  0  0
  8  7  1  0  0  0  0
  8 10  1  0  0  0  0
 10 11  1  0  0  0  0
 10  9  1  0  0  0  0
 14 13  1  6  0  0  0
 14 15  1  0  0  0  0
 14 12  1  0  0  0  0
 15 18  1  0  0  0  0
 18 16  1  0  0  0  0
 18 17  1  0  0  0  0
 20 21  1  1  0  0  0
 20 19  1  0  0  0  0
 22 20  1  0  0  0  0
 23 28  2  0  0  0  0
 24 23  1  0  0  0  0
 24 27  1  0  0  0  0
 25 23  1  0  0  0  0
 26 22  1  0  0  0  0
 27 29  2  0  0  0  0
 28 30  1  0  0  0  0
 29 26  1  0  0  0  0
 30 26  2  0  0  0  0
M  END
>  <MODEL>
5

>  <REMARK>
 VINA RESULT:      -6.9      1.847      2.877
  Name = 
  10 active torsions:
  status: ('A' for Active; 'I' for Inactive)
    1  A    between atoms: C_3  and  C_11
    2  A    between atoms: C_3  and  C_19
    3  A    between atoms: N_4  and  C_13
    4  A    between atoms: C_8  and  C_12
    5  A    between atoms: C_8  and  C_13
    6  A    between atoms: C_9  and  C_12
    7  A    between atoms: C_9  and  C_21
    8  A    between atoms: C_10  and  C_25
    9  A    between atoms: C_11  and  C_25
   10  A    between atoms: C_13  and  C_30
                            x       y       z     vdW  Elec       q    Type
                         _______ _______ _______ _____ _____    ______ ____

>  <TORSDO>
F 10

$$$$
=
 OpenBabel11052421523D

 30 31  0  0  1  0  0  0  0  0999 V2000
  160.6290  208.6200  153.6570 N   0  0  0  0  0  0  0  0  0  0  0  0
  161.2900  207.3690  153.9810 C   0  0  1  0  0  3  0  0  0  0  0  0
  161.2060  207.2600  155.4960 C   0  0  0  0  0  2  0  0  0  0  0  0
  159.9620  209.2230  154.7930 C   0  0  0  0  0  2  0  0  0  0  0  0
  160.1300  208.2420  155.9360 C   0  0  0  0  0  2  0  0  0  0  0  0
  160.0720  210.3320  152.1710 O   0  0  0  0  0  0  0  0  0  0  0  0
  160.7520  209.2930  152.3960 C   0  0  0  0  0  0  0  0  0  0  0  0
  161.7160  208.7990  151.3530 C   0  0  2  0  0  3  0  0  0  0  0  0
  162.0130  210.8720  150.3420 N   0  0  0  0  0  1  0  0  0  0  0  0
  162.6910  209.8430  151.0130 N   0  0  0  0  0  0  0  0  0  0  0  0
  163.1430  210.3840  152.1690 O   0  0  0  0  0  1  0  0  0  0  0  0
  160.9240  208.3790  150.1150 C   0  0  0  0  0  2  0  0  0  0  0  0
  162.5710  208.5000  148.3830 O   0  0  0  0  0  1  0  0  0  0  0  0
  161.8000  207.6120  149.1350 C   0  0  2  0  0  3  0  0  0  0  0  0
  160.9780  206.7000  148.2230 C   0  0  0  0  0  2  0  0  0  0  0  0
  160.4170  206.2880  145.8150 C   0  0  0  0  0  1  0  0  0  0  0  0
  162.5690  205.5170  146.7400 C   0  0  0  0  0  1  0  0  0  0  0  0
  161.5220  206.6100  146.8010 C   0  0  0  0  0  3  0  0  0  0  0  0
  160.5380  206.2130  153.3260 C   0  0  0  0  0  2  0  0  0  0  0  0
  161.4000  205.4410  152.3320 C   0  0  1  0  0  3  0  0  0  0  0  0
  162.7380  205.7680  152.5460 O   0  0  0  0  0  1  0  0  0  0  0  0
  161.2270  203.9360  152.4940 C   0  0  0  0  0  2  0  0  0  0  0  0
  160.6730  202.3150  148.2510 C   0  0  0  0  0  0  0  0  0  0  0  0
  160.0260  201.3280  149.1640 C   0  0  0  0  0  2  0  0  0  0  0  0
  160.7480  202.0250  146.9310 F   0  0  0  0  0  0  0  0  0  0  0  0
  161.1670  203.2390  151.1770 C   0  0  0  0  0  0  0  0  0  0  0  0
  160.9420  200.9240  150.2690 C   0  0  0  0  0  3  0  0  0  0  0  0
  161.0670  203.5190  148.6680 C   0  0  0  0  0  3  0  0  0  0  0  0
  161.4070  201.7820  151.1760 C   0  0  0  0  0  3  0  0  0  0  0  0
  161.0700  203.9890  150.0680 C   0  0  0  0  0  3  0  0  0  0  0  0
  1  2  1  0  0  0  0
  1  4  1  0  0  0  0
  2 19  1  6  0  0  0
  2  3  1  0  0  0  0
  3  5  1  0  0  0  0
  4  5  1  0  0  0  0
  6  7  2  0  0  0  0
  7  1  1  0  0  0  0
  8 12  1  6  0  0  0
  8  7  1  0  0  0  0
  9 10  1  0  0  0  0
 10  8  1  0  0  0  0
 10 11  1  0  0  0  0
 14 13  1  6  0  0  0
 14 12  1  0  0  0  0
 15 14  1  0  0  0  0
 16 18  1  0  0  0  0
 17 18  1  0  0  0  0
 18 15  1  0  0  0  0
 20 22  1  0  0  0  0
 20 21  1  1  0  0  0
 20 19  1  0  0  0  0
 23 28  2  0  0  0  0
 23 24  1  0  0  0  0
 24 27  1  0  0  0  0
 25 23  1  0  0  0  0
 26 22  1  0  0  0  0
 27 29  2  0  0  0  0
 28 30  1  0  0  0  0
 29 26  1  0  0  0  0
 30 26  2  0  0  0  0
M  END
>  <MODEL>
6

>  <REMARK>
 VINA RESULT:      -6.8      2.346      5.327
  Name = 
  10 active torsions:
  status: ('A' for Active; 'I' for Inactive)
    1  A    between atoms: C_3  and  C_11
    2  A    between atoms: C_3  and  C_19
    3  A    between atoms: N_4  and  C_13
    4  A    between atoms: C_8  and  C_12
    5  A    between atoms: C_8  and  C_13
    6  A    between atoms: C_9  and  C_12
    7  A    between atoms: C_9  and  C_21
    8  A    between atoms: C_10  and  C_25
    9  A    between atoms: C_11  and  C_25
   10  A    between atoms: C_13  and  C_30
                            x       y       z     vdW  Elec       q    Type
                         _______ _______ _______ _____ _____    ______ ____

>  <TORSDO>
F 10

$$$$
=
 OpenBabel11052421523D

 30 31  0  0  1  0  0  0  0  0999 V2000
  159.6950  209.2430  154.9140 N   0  0  0  0  0  0  0  0  0  0  0  0
  160.8560  208.9900  154.0800 C   0  0  1  0  0  3  0  0  0  0  0  0
  161.5010  207.7440  154.6680 C   0  0  0  0  0  2  0  0  0  0  0  0
  159.4260  208.1730  155.8550 C   0  0  0  0  0  2  0  0  0  0  0  0
  160.4470  207.0940  155.5520 C   0  0  0  0  0  2  0  0  0  0  0  0
  157.9270  210.5850  155.6340 O   0  0  0  0  0  0  0  0  0  0  0  0
  158.9770  210.4840  154.9420 C   0  0  0  0  0  0  0  0  0  0  0  0
  159.4860  211.6820  154.1880 C   0  0  2  0  0  3  0  0  0  0  0  0
  159.2470  213.6430  155.4160 N   0  0  0  0  0  1  0  0  0  0  0  0
  160.1540  212.6210  155.0980 N   0  0  0  0  0  0  0  0  0  0  0  0
  160.4050  211.9690  156.2590 O   0  0  0  0  0  1  0  0  0  0  0  0
  158.3050  212.3580  153.4910 C   0  0  0  0  0  2  0  0  0  0  0  0
  159.9030  213.1380  151.8900 O   0  0  0  0  0  1  0  0  0  0  0  0
  158.6120  212.6260  152.0250 C   0  0  2  0  0  3  0  0  0  0  0  0
  157.5860  213.5620  151.3850 C   0  0  0  0  0  2  0  0  0  0  0  0
  158.5040  213.7280  149.0580 C   0  0  0  0  0  1  0  0  0  0  0  0
  156.0880  214.0090  149.4660 C   0  0  0  0  0  1  0  0  0  0  0  0
  157.3340  213.2720  149.9090 C   0  0  0  0  0  3  0  0  0  0  0  0
  160.4010  208.7240  152.6470 C   0  0  0  0  0  2  0  0  0  0  0  0
  161.4040  209.2220  151.6120 C   0  0  1  0  0  3  0  0  0  0  0  0
  162.0850  210.3210  152.1340 O   0  0  0  0  0  1  0  0  0  0  0  0
  162.4160  208.1420  151.2490 C   0  0  0  0  0  2  0  0  0  0  0  0
  160.8810  204.0180  149.9950 C   0  0  0  0  0  0  0  0  0  0  0  0
  161.1770  204.7560  148.7320 C   0  0  0  0  0  2  0  0  0  0  0  0
  160.3060  202.7950  149.9110 F   0  0  0  0  0  0  0  0  0  0  0  0
  161.7520  206.9050  150.7460 C   0  0  0  0  0  0  0  0  0  0  0  0
  160.5330  206.1010  148.7210 C   0  0  0  0  0  3  0  0  0  0  0  0
  161.2720  204.4650  151.1890 C   0  0  0  0  0  3  0  0  0  0  0  0
  160.8300  207.0550  149.6020 C   0  0  0  0  0  3  0  0  0  0  0  0
  161.8940  205.7770  151.4590 C   0  0  0  0  0  3  0  0  0  0  0  0
  1  7  1  0  0  0  0
  1  4  1  0  0  0  0
  2 19  1  6  0  0  0
  2  3  1  0  0  0  0
  2  1  1  0  0  0  0
  3  5  1  0  0  0  0
  5  4  1  0  0  0  0
  7  6  2  0  0  0  0
  8 12  1  1  0  0  0
  8  7  1  0  0  0  0
  8 10  1  0  0  0  0
 10  9  1  0  0  0  0
 10 11  1  0  0  0  0
 14 13  1  1  0  0  0
 14 12  1  0  0  0  0
 15 14  1  0  0  0  0
 16 18  1  0  0  0  0
 17 18  1  0  0  0  0
 18 15  1  0  0  0  0
 20 21  1  1  0  0  0
 20 19  1  0  0  0  0
 22 20  1  0  0  0  0
 23 28  2  0  0  0  0
 24 23  1  0  0  0  0
 25 23  1  0  0  0  0
 26 22  1  0  0  0  0
 26 30  2  0  0  0  0
 27 24  1  0  0  0  0
 27 29  2  0  0  0  0
 28 30  1  0  0  0  0
 29 26  1  0  0  0  0
M  END
>  <MODEL>
7

>  <REMARK>
 VINA RESULT:      -6.7      2.443      3.768
  Name = 
  10 active torsions:
  status: ('A' for Active; 'I' for Inactive)
    1  A    between atoms: C_3  and  C_11
    2  A    between atoms: C_3  and  C_19
    3  A    between atoms: N_4  and  C_13
    4  A    between atoms: C_8  and  C_12
    5  A    between atoms: C_8  and  C_13
    6  A    between atoms: C_9  and  C_12
    7  A    between atoms: C_9  and  C_21
    8  A    between atoms: C_10  and  C_25
    9  A    between atoms: C_11  and  C_25
   10  A    between atoms: C_13  and  C_30
                            x       y       z     vdW  Elec       q    Type
                         _______ _______ _______ _____ _____    ______ ____

>  <TORSDO>
F 10

$$$$
=
 OpenBabel11052421523D

 30 31  0  0  1  0  0  0  0  0999 V2000
  160.9950  207.1180  153.7070 N   0  0  0  0  0  0  0  0  0  0  0  0
  161.7740  207.4660  152.5340 C   0  0  1  0  0  3  0  0  0  0  0  0
  162.3210  206.1430  152.0170 C   0  0  0  0  0  2  0  0  0  0  0  0
  160.8300  205.6880  153.8790 C   0  0  0  0  0  2  0  0  0  0  0  0
  161.4860  205.0510  152.6700 C   0  0  0  0  0  2  0  0  0  0  0  0
  159.8190  207.6840  155.6430 O   0  0  0  0  0  0  0  0  0  0  0  0
  160.5670  208.0620  154.7000 C   0  0  0  0  0  0  0  0  0  0  0  0
  161.0370  209.4900  154.6540 C   0  0  2  0  0  3  0  0  0  0  0  0
  162.8940  210.7040  155.3510 N   0  0  0  0  0  1  0  0  0  0  0  0
  161.9330  209.7770  155.7810 N   0  0  0  0  0  0  0  0  0  0  0  0
  161.2100  210.4040  156.7390 O   0  0  0  0  0  1  0  0  0  0  0  0
  159.8150  210.4080  154.6910 C   0  0  0  0  0  2  0  0  0  0  0  0
  160.4930  211.8190  152.8820 O   0  0  0  0  0  1  0  0  0  0  0  0
  159.4890  210.9470  153.3070 C   0  0  2  0  0  3  0  0  0  0  0  0
  158.1220  211.6310  153.2640 C   0  0  0  0  0  2  0  0  0  0  0  0
  156.2500  212.1870  154.8360 C   0  0  0  0  0  1  0  0  0  0  0  0
  158.1080  213.7740  154.5040 C   0  0  0  0  0  1  0  0  0  0  0  0
  157.7390  212.3070  154.5770 C   0  0  0  0  0  3  0  0  0  0  0  0
  160.8610  208.1040  151.4900 C   0  0  0  0  0  2  0  0  0  0  0  0
  161.2400  207.7160  150.0640 C   0  0  1  0  0  3  0  0  0  0  0  0
  162.5770  207.3250  150.0420 O   0  0  0  0  0  1  0  0  0  0  0  0
  160.3810  206.5670  149.5500 C   0  0  0  0  0  2  0  0  0  0  0  0
  162.3160  204.5560  145.9230 C   0  0  0  0  0  0  0  0  0  0  0  0
  161.3550  203.5640  146.4890 C   0  0  0  0  0  2  0  0  0  0  0  0
  163.1100  204.1760  144.8950 F   0  0  0  0  0  0  0  0  0  0  0  0
  161.0900  205.7660  148.5100 C   0  0  0  0  0  0  0  0  0  0  0  0
  161.5600  203.3790  147.9540 C   0  0  0  0  0  3  0  0  0  0  0  0
  162.3330  205.8320  146.3120 C   0  0  0  0  0  3  0  0  0  0  0  0
  161.4000  204.3610  148.8400 C   0  0  0  0  0  3  0  0  0  0  0  0
  161.5490  206.4070  147.4230 C   0  0  0  0  0  3  0  0  0  0  0  0
  1  4  1  0  0  0  0
  1  7  1  0  0  0  0
  2 19  1  6  0  0  0
  2  1  1  0  0  0  0
  3  2  1  0  0  0  0
  3  5  1  0  0  0  0
  5  4  1  0  0  0  0
  7  6  2  0  0  0  0
  8 12  1  1  0  0  0
  8  7  1  0  0  0  0
  8 10  1  0  0  0  0
  9 10  1  0  0  0  0
 10 11  1  0  0  0  0
 14 13  1  1  0  0  0
 14 12  1  0  0  0  0
 15 14  1  0  0  0  0
 15 18  1  0  0  0  0
 17 18  1  0  0  0  0
 18 16  1  0  0  0  0
 20 21  1  1  0  0  0
 20 19  1  0  0  0  0
 22 20  1  0  0  0  0
 23 28  2  0  0  0  0
 23 24  1  0  0  0  0
 24 27  1  0  0  0  0
 25 23  1  0  0  0  0
 26 29  1  0  0  0  0
 26 22  1  0  0  0  0
 27 29  2  0  0  0  0
 28 30  1  0  0  0  0
 30 26  2  0  0  0  0
M  END
>  <MODEL>
8

>  <REMARK>
 VINA RESULT:      -6.7      1.838      3.141
  Name = 
  10 active torsions:
  status: ('A' for Active; 'I' for Inactive)
    1  A    between atoms: C_3  and  C_11
    2  A    between atoms: C_3  and  C_19
    3  A    between atoms: N_4  and  C_13
    4  A    between atoms: C_8  and  C_12
    5  A    between atoms: C_8  and  C_13
    6  A    between atoms: C_9  and  C_12
    7  A    between atoms: C_9  and  C_21
    8  A    between atoms: C_10  and  C_25
    9  A    between atoms: C_11  and  C_25
   10  A    between atoms: C_13  and  C_30
                            x       y       z     vdW  Elec       q    Type
                         _______ _______ _______ _____ _____    ______ ____

>  <TORSDO>
F 10

$$$$
=
 OpenBabel11052421523D

 30 31  0  0  1  0  0  0  0  0999 V2000
  161.5860  208.4250  150.2940 N   0  0  0  0  0  0  0  0  0  0  0  0
  161.7720  208.9740  151.6250 C   0  0  1  0  0  3  0  0  0  0  0  0
  162.5050  210.2900  151.4100 C   0  0  0  0  0  2  0  0  0  0  0  0
  161.9530  209.3490  149.2400 C   0  0  0  0  0  2  0  0  0  0  0  0
  162.3310  210.6400  149.9390 C   0  0  0  0  0  2  0  0  0  0  0  0
  161.0130  206.6900  148.8420 O   0  0  0  0  0  0  0  0  0  0  0  0
  161.2400  207.0590  150.0270 C   0  0  0  0  0  0  0  0  0  0  0  0
  161.1860  206.0490  151.1400 C   0  0  2  0  0  3  0  0  0  0  0  0
  161.5890  205.8980  153.4250 N   0  0  0  0  0  1  0  0  0  0  0  0
  162.0940  206.4300  152.2290 N   0  0  0  0  0  0  0  0  0  0  0  0
  163.2810  205.8130  152.0170 O   0  0  0  0  0  1  0  0  0  0  0  0
  161.5680  204.6800  150.5770 C   0  0  0  0  0  2  0  0  0  0  0  0
  161.0420  202.8120  151.9760 O   0  0  0  0  0  1  0  0  0  0  0  0
  160.5410  203.6230  150.9560 C   0  0  2  0  0  3  0  0  0  0  0  0
  160.1130  202.7810  149.7530 C   0  0  0  0  0  2  0  0  0  0  0  0
  161.2070  203.0710  147.5170 C   0  0  0  0  0  1  0  0  0  0  0  0
  161.2120  200.8700  148.6270 C   0  0  0  0  0  1  0  0  0  0  0  0
  161.2750  202.3650  148.8570 C   0  0  0  0  0  3  0  0  0  0  0  0
  160.4090  209.2270  152.2640 C   0  0  0  0  0  2  0  0  0  0  0  0
  160.5140  209.6200  153.7340 C   0  0  1  0  0  3  0  0  0  0  0  0
  161.6360  209.0060  154.2870 O   0  0  0  0  0  1  0  0  0  0  0  0
  160.6460  211.1290  153.9000 C   0  0  0  0  0  2  0  0  0  0  0  0
  157.5120  213.7830  151.8800 C   0  0  0  0  0  0  0  0  0  0  0  0
  157.2350  213.8490  153.3450 C   0  0  0  0  0  2  0  0  0  0  0  0
  156.6570  214.4000  151.0310 F   0  0  0  0  0  0  0  0  0  0  0  0
  159.4780  211.8560  153.3220 C   0  0  0  0  0  0  0  0  0  0  0  0
  157.1450  212.4880  153.9460 C   0  0  0  0  0  3  0  0  0  0  0  0
  158.6300  213.2460  151.3910 C   0  0  0  0  0  3  0  0  0  0  0  0
  158.1650  211.6310  153.9600 C   0  0  0  0  0  3  0  0  0  0  0  0
  159.6550  212.5230  152.1710 C   0  0  0  0  0  3  0  0  0  0  0  0
  1  2  1  0  0  0  0
  2 19  1  6  0  0  0
  3  2  1  0  0  0  0
  4  5  1  0  0  0  0
  4  1  1  0  0  0  0
  5  3  1  0  0  0  0
  6  7  2  0  0  0  0
  7  1  1  0  0  0  0
  7  8  1  0  0  0  0
  8 12  1  6  0  0  0
  8 10  1  0  0  0  0
 10  9  1  0  0  0  0
 11 10  1  0  0  0  0
 12 14  1  0  0  0  0
 14 13  1  1  0  0  0
 15 14  1  0  0  0  0
 16 18  1  0  0  0  0
 17 18  1  0  0  0  0
 18 15  1  0  0  0  0
 19 20  1  0  0  0  0
 20 22  1  0  0  0  0
 20 21  1  6  0  0  0
 23 24  1  0  0  0  0
 24 27  1  0  0  0  0
 25 23  1  0  0  0  0
 26 22  1  0  0  0  0
 26 29  1  0  0  0  0
 27 29  2  0  0  0  0
 28 23  2  0  0  0  0
 28 30  1  0  0  0  0
 30 26  2  0  0  0  0
M  END
>  <MODEL>
9

>  <REMARK>
 VINA RESULT:      -6.2      3.263      8.271
  Name = 
  10 active torsions:
  status: ('A' for Active; 'I' for Inactive)
    1  A    between atoms: C_3  and  C_11
    2  A    between atoms: C_3  and  C_19
    3  A    between atoms: N_4  and  C_13
    4  A    between atoms: C_8  and  C_12
    5  A    between atoms: C_8  and  C_13
    6  A    between atoms: C_9  and  C_12
    7  A    between atoms: C_9  and  C_21
    8  A    between atoms: C_10  and  C_25
    9  A    between atoms: C_11  and  C_25
   10  A    between atoms: C_13  and  C_30
                            x       y       z     vdW  Elec       q    Type
                         _______ _______ _______ _____ _____    ______ ____

>  <TORSDO>
F 10

$$$$
