=
 OpenBabel11052422063D

 25 29  0  0  1  0  0  0  0  0999 V2000
  161.4590  206.2520  151.1600 C   0  0  0  0  0  0  0  0  0  0  0  0
  161.4980  207.7360  151.2470 C   0  0  0  0  0  0  0  0  0  0  0  0
  160.9870  206.1730  153.6170 C   0  0  0  0  0  3  0  0  0  0  0  0
  161.3200  205.5640  150.0150 C   0  0  0  0  0  0  0  0  0  0  0  0
  160.9420  203.7210  148.7640 C   0  0  0  0  0  3  0  0  0  0  0  0
  160.8170  207.4990  153.6040 C   0  0  0  0  0  3  0  0  0  0  0  0
  161.0520  203.3630  151.2370 C   0  0  0  0  0  3  0  0  0  0  0  0
  161.1520  204.1360  149.9990 C   0  0  2  0  0  3  0  0  0  0  0  0
  161.2300  209.8380  152.5750 C   0  0  2  0  0  3  0  0  0  0  0  0
  160.1150  210.3610  153.4650 C   0  0  0  0  0  1  0  0  0  0  0  0
  161.8440  208.5670  150.0360 C   0  0  0  0  0  2  0  0  0  0  0  0
  160.9890  204.9160  147.9020 C   0  0  0  0  0  3  0  0  0  0  0  0
  161.6280  205.4700  152.4590 C   0  0  0  0  0  0  0  0  0  0  0  0
  161.2380  204.0040  152.3980 C   0  0  0  0  0  3  0  0  0  0  0  0
  161.1640  210.5270  151.2870 N   0  0  0  0  0  2  0  0  0  0  0  0
  161.1970  206.0110  148.6360 C   0  0  0  0  0  3  0  0  0  0  0  0
  162.2090  209.9930  150.4240 C   0  0  2  0  0  3  0  0  0  0  0  0
  161.1610  208.3280  152.4200 C   0  0  0  0  0  0  0  0  0  0  0  0
  162.3340  210.8410  149.1700 C   0  0  0  0  0  2  0  0  0  0  0  0
  161.5800  212.0780  149.3170 N   0  0  0  0  0  2  0  0  0  0  0  0
  160.9700  212.7470  148.2090 C   0  0  0  0  0  0  0  0  0  0  0  0
  161.0130  212.2400  147.0550 O   0  0  0  0  0  0  0  0  0  0  0  0
  160.2420  214.0320  148.4300 C   0  0  2  0  0  3  0  0  0  0  0  0
  158.8280  213.7510  148.7330 N   0  0  0  0  0  2  0  0  0  0  0  0
  159.2250  214.2190  147.3980 C   0  0  0  0  0  2  0  0  0  0  0  0
  1  2  2  0  0  0  0
  1 13  1  0  0  0  0
  2 18  1  0  0  0  0
  4  1  1  0  0  0  0
  6  3  1  0  0  0  0
  7 14  2  0  0  0  0
  8  5  1  6  0  0  0
  8  4  1  0  0  0  0
  8  7  1  0  0  0  0
  9 10  1  1  0  0  0
 11 17  1  0  0  0  0
 11  2  1  0  0  0  0
 12 16  1  0  0  0  0
 12  5  2  0  0  0  0
 13  3  2  0  0  0  0
 14 13  1  0  0  0  0
 15  9  1  0  0  0  0
 16  4  2  0  0  0  0
 17 19  1  6  0  0  0
 17 15  1  0  0  0  0
 18  9  1  0  0  0  0
 18  6  2  0  0  0  0
 19 20  1  0  0  0  0
 21 20  1  0  0  0  0
 22 21  2  0  0  0  0
 23 21  1  6  0  0  0
 23 24  1  0  0  0  0
 25 23  1  0  0  0  0
 25 24  1  0  0  0  0
M  END
>  <MODEL>
1

>  <REMARK>
 VINA RESULT:      -9.3      0.000      0.000
  Name = 
  3 active torsions:
  status: ('A' for Active; 'I' for Inactive)
    1  A    between atoms: C_2  and  C_21
    2  A    between atoms: C_6  and  N_15
    3  A    between atoms: C_6  and  C_23
                            x       y       z     vdW  Elec       q    Type
                         _______ _______ _______ _____ _____    ______ ____

>  <TORSDO>
F 3

$$$$
=
 OpenBabel11052422063D

 25 29  0  0  1  0  0  0  0  0999 V2000
  161.2690  203.9380  147.8020 C   0  0  0  0  0  0  0  0  0  0  0  0
  161.3970  204.6130  149.1220 C   0  0  0  0  0  0  0  0  0  0  0  0
  160.8910  201.7760  149.0040 C   0  0  0  0  0  3  0  0  0  0  0  0
  161.0450  204.5790  146.6440 C   0  0  0  0  0  0  0  0  0  0  0  0
  160.5120  204.7260  144.4530 C   0  0  0  0  0  3  0  0  0  0  0  0
  160.7970  202.4550  150.1510 C   0  0  0  0  0  3  0  0  0  0  0  0
  160.7000  202.4120  145.3820 C   0  0  0  0  0  3  0  0  0  0  0  0
  160.7940  203.8710  145.4170 C   0  0  0  0  0  0  0  0  0  0  0  0
  161.3040  204.5260  151.6200 C   0  0  2  0  0  3  0  0  0  0  0  0
  160.2560  204.0160  152.5960 C   0  0  0  0  0  1  0  0  0  0  0  0
  161.7420  206.0790  149.2040 C   0  0  0  0  0  2  0  0  0  0  0  0
  160.5940  206.0740  145.0440 C   0  0  0  0  0  3  0  0  0  0  0  0
  161.4440  202.4240  147.7720 C   0  0  0  0  0  0  0  0  0  0  0  0
  160.9680  201.7330  146.5050 C   0  0  0  0  0  3  0  0  0  0  0  0
  161.2260  205.9860  151.5690 N   0  0  0  0  0  2  0  0  0  0  0  0
  160.8930  205.9940  146.3420 C   0  0  0  0  0  2  0  0  0  0  0  0
  162.2030  206.4660  150.6020 C   0  0  2  0  0  3  0  0  0  0  0  0
  161.1410  203.8980  150.2450 C   0  0  0  0  0  0  0  0  0  0  0  0
  162.3270  207.9770  150.6920 C   0  0  0  0  0  2  0  0  0  0  0  0
  161.6280  208.4750  151.8700 N   0  0  0  0  0  2  0  0  0  0  0  0
  161.2820  209.8520  152.0380 C   0  0  0  0  0  0  0  0  0  0  0  0
  161.5180  210.6860  151.1220 O   0  0  0  0  0  0  0  0  0  0  0  0
  160.5970  210.2950  153.2890 C   0  0  2  0  0  3  0  0  0  0  0  0
  161.6040  210.6750  154.2940 N   0  0  0  0  0  2  0  0  0  0  0  0
  160.9100  209.3840  154.3860 C   0  0  0  0  0  2  0  0  0  0  0  0
  1  2  2  0  0  0  0
  2 11  1  0  0  0  0
  2 18  1  0  0  0  0
  3  6  1  0  0  0  0
  4  1  1  0  0  0  0
  5 12  2  0  0  0  0
  5  8  1  0  0  0  0
  6 18  2  0  0  0  0
  7  8  1  0  0  0  0
  7 14  2  0  0  0  0
  8  4  2  0  0  0  0
  9 10  1  1  0  0  0
 11 17  1  0  0  0  0
 12 16  1  0  0  0  0
 13  1  1  0  0  0  0
 13  3  2  0  0  0  0
 14 13  1  0  0  0  0
 15  9  1  0  0  0  0
 16  4  1  0  0  0  0
 17 19  1  6  0  0  0
 17 15  1  0  0  0  0
 18  9  1  0  0  0  0
 19 20  1  0  0  0  0
 20 21  1  0  0  0  0
 22 21  2  0  0  0  0
 23 21  1  6  0  0  0
 23 24  1  0  0  0  0
 23 25  1  0  0  0  0
 24 25  1  0  0  0  0
M  END
>  <MODEL>
2

>  <REMARK>
 VINA RESULT:      -9.2      3.011      5.106
  Name = 
  3 active torsions:
  status: ('A' for Active; 'I' for Inactive)
    1  A    between atoms: C_2  and  C_21
    2  A    between atoms: C_6  and  N_15
    3  A    between atoms: C_6  and  C_23
                            x       y       z     vdW  Elec       q    Type
                         _______ _______ _______ _____ _____    ______ ____

>  <TORSDO>
F 3

$$$$
=
 OpenBabel11052422063D

 25 29  0  0  1  0  0  0  0  0999 V2000
  160.9510  205.6000  150.2760 C   0  0  0  0  0  0  0  0  0  0  0  0
  161.0500  206.6560  151.3190 C   0  0  0  0  0  0  0  0  0  0  0  0
  161.3940  207.3490  148.5410 C   0  0  0  0  0  3  0  0  0  0  0  0
  161.0350  204.2830  150.5220 C   0  0  0  0  0  0  0  0  0  0  0  0
  161.2510  202.1030  149.9650 C   0  0  0  0  0  3  0  0  0  0  0  0
  161.6860  208.2120  149.5180 C   0  0  0  0  0  3  0  0  0  0  0  0
  161.0870  203.7100  148.0560 C   0  0  0  0  0  3  0  0  0  0  0  0
  161.0700  203.3100  149.4630 C   0  0  0  0  0  0  0  0  0  0  0  0
  161.5010  209.0290  151.9680 C   0  0  2  0  0  3  0  0  0  0  0  0
  162.6520  209.9770  151.6760 C   0  0  0  0  0  1  0  0  0  0  0  0
  160.7930  206.3280  152.7690 C   0  0  0  0  0  2  0  0  0  0  0  0
  161.3220  202.2600  151.4290 C   0  0  0  0  0  3  0  0  0  0  0  0
  160.7000  206.0550  148.8420 C   0  0  0  0  0  0  0  0  0  0  0  0
  160.9520  205.0120  147.7680 C   0  0  0  0  0  3  0  0  0  0  0  0
  161.6420  208.5250  153.3330 N   0  0  0  0  0  2  0  0  0  0  0  0
  161.2110  203.5470  151.7650 C   0  0  0  0  0  2  0  0  0  0  0  0
  160.5590  207.5860  153.5920 C   0  0  2  0  0  3  0  0  0  0  0  0
  161.4310  207.9030  150.9480 C   0  0  0  0  0  0  0  0  0  0  0  0
  160.5230  207.2250  155.0680 C   0  0  0  0  0  2  0  0  0  0  0  0
  161.2700  208.2030  155.8470 N   0  0  0  0  0  2  0  0  0  0  0  0
  160.6720  209.3910  156.3740 C   0  0  0  0  0  0  0  0  0  0  0  0
  159.4360  209.5990  156.2330 O   0  0  0  0  0  0  0  0  0  0  0  0
  161.5080  210.3660  157.1350 C   0  0  2  0  0  3  0  0  0  0  0  0
  162.4850  210.9900  156.2270 N   0  0  0  0  0  2  0  0  0  0  0  0
  162.9020  209.9290  157.1530 C   0  0  0  0  0  2  0  0  0  0  0  0
  1  4  1  0  0  0  0
  1  2  2  0  0  0  0
  2 11  1  0  0  0  0
  3 13  2  0  0  0  0
  3  6  1  0  0  0  0
  4 16  1  0  0  0  0
  5 12  2  0  0  0  0
  6 18  2  0  0  0  0
  7  8  1  0  0  0  0
  8  5  1  0  0  0  0
  8  4  2  0  0  0  0
  9 10  1  6  0  0  0
  9 15  1  0  0  0  0
 11 17  1  0  0  0  0
 12 16  1  0  0  0  0
 13  1  1  0  0  0  0
 14  7  2  0  0  0  0
 14 13  1  0  0  0  0
 15 17  1  0  0  0  0
 17 19  1  1  0  0  0
 18  2  1  0  0  0  0
 18  9  1  0  0  0  0
 19 20  1  0  0  0  0
 20 21  1  0  0  0  0
 22 21  2  0  0  0  0
 23 21  1  6  0  0  0
 23 25  1  0  0  0  0
 24 23  1  0  0  0  0
 24 25  1  0  0  0  0
M  END
>  <MODEL>
3

>  <REMARK>
 VINA RESULT:      -9.1      3.530      5.540
  Name = 
  3 active torsions:
  status: ('A' for Active; 'I' for Inactive)
    1  A    between atoms: C_2  and  C_21
    2  A    between atoms: C_6  and  N_15
    3  A    between atoms: C_6  and  C_23
                            x       y       z     vdW  Elec       q    Type
                         _______ _______ _______ _____ _____    ______ ____

>  <TORSDO>
F 3

$$$$
=
 OpenBabel11052422063D

 25 29  0  0  1  0  0  0  0  0999 V2000
  161.3480  205.5400  150.5330 C   0  0  0  0  0  0  0  0  0  0  0  0
  161.3350  206.6560  151.5180 C   0  0  0  0  0  0  0  0  0  0  0  0
  161.0550  203.9340  152.4300 C   0  0  0  0  0  3  0  0  0  0  0  0
  161.1560  205.6940  149.2140 C   0  0  0  0  0  0  0  0  0  0  0  0
  160.7620  204.9860  147.1040 C   0  0  0  0  0  3  0  0  0  0  0  0
  160.8330  204.9700  153.2440 C   0  0  0  0  0  3  0  0  0  0  0  0
  161.0630  203.1940  148.8220 C   0  0  0  0  0  3  0  0  0  0  0  0
  161.0430  204.5690  148.3240 C   0  0  0  0  0  0  0  0  0  0  0  0
  161.0790  207.4710  153.8680 C   0  0  2  0  0  3  0  0  0  0  0  0
  160.0100  207.2510  154.9260 C   0  0  0  0  0  1  0  0  0  0  0  0
  161.5600  208.0780  151.0690 C   0  0  0  0  0  2  0  0  0  0  0  0
  160.7010  206.4580  147.1630 C   0  0  0  0  0  3  0  0  0  0  0  0
  161.6400  204.1410  151.0660 C   0  0  0  0  0  0  0  0  0  0  0  0
  161.3050  202.9980  150.1250 C   0  0  0  0  0  3  0  0  0  0  0  0
  160.8930  208.7980  153.2830 N   0  0  0  0  0  2  0  0  0  0  0  0
  160.9170  206.8820  148.4090 C   0  0  0  0  0  2  0  0  0  0  0  0
  161.8950  208.9870  152.2420 C   0  0  2  0  0  3  0  0  0  0  0  0
  161.0580  206.3750  152.8150 C   0  0  0  0  0  0  0  0  0  0  0  0
  161.8970  210.4330  151.7770 C   0  0  0  0  0  2  0  0  0  0  0  0
  162.1840  210.5070  150.3510 N   0  0  0  0  0  2  0  0  0  0  0  0
  161.6690  211.5450  149.5120 C   0  0  0  0  0  0  0  0  0  0  0  0
  160.9890  212.4850  150.0050 O   0  0  0  0  0  0  0  0  0  0  0  0
  161.9770  211.5360  148.0500 C   0  0  2  0  0  3  0  0  0  0  0  0
  163.1200  212.4240  147.7820 N   0  0  0  0  0  2  0  0  0  0  0  0
  161.7510  212.8610  147.4790 C   0  0  0  0  0  2  0  0  0  0  0  0
  1 13  1  0  0  0  0
  1  2  2  0  0  0  0
  2 18  1  0  0  0  0
  3  6  1  0  0  0  0
  4  1  1  0  0  0  0
  5 12  2  0  0  0  0
  5  8  1  0  0  0  0
  7 14  2  0  0  0  0
  8  7  1  0  0  0  0
  8  4  2  0  0  0  0
  9 10  1  1  0  0  0
 11  2  1  0  0  0  0
 11 17  1  0  0  0  0
 12 16  1  0  0  0  0
 13  3  2  0  0  0  0
 14 13  1  0  0  0  0
 15  9  1  0  0  0  0
 16  4  1  0  0  0  0
 17 19  1  6  0  0  0
 17 15  1  0  0  0  0
 18  6  2  0  0  0  0
 18  9  1  0  0  0  0
 20 19  1  0  0  0  0
 21 22  2  0  0  0  0
 21 20  1  0  0  0  0
 23 21  1  1  0  0  0
 24 23  1  0  0  0  0
 25 24  1  0  0  0  0
 25 23  1  0  0  0  0
M  END
>  <MODEL>
4

>  <REMARK>
 VINA RESULT:      -9.0      1.658      2.374
  Name = 
  3 active torsions:
  status: ('A' for Active; 'I' for Inactive)
    1  A    between atoms: C_2  and  C_21
    2  A    between atoms: C_6  and  N_15
    3  A    between atoms: C_6  and  C_23
                            x       y       z     vdW  Elec       q    Type
                         _______ _______ _______ _____ _____    ______ ____

>  <TORSDO>
F 3

$$$$
=
 OpenBabel11052422063D

 25 29  0  0  1  0  0  0  0  0999 V2000
  161.2740  204.0540  147.8990 C   0  0  0  0  0  0  0  0  0  0  0  0
  161.3890  204.6050  149.2760 C   0  0  0  0  0  0  0  0  0  0  0  0
  160.9430  201.7810  148.8930 C   0  0  0  0  0  3  0  0  0  0  0  0
  161.0340  204.7950  146.8050 C   0  0  0  0  0  0  0  0  0  0  0  0
  160.4940  205.1350  144.6370 C   0  0  0  0  0  3  0  0  0  0  0  0
  160.8370  202.3490  150.0990 C   0  0  0  0  0  3  0  0  0  0  0  0
  160.7330  202.7490  145.3460 C   0  0  0  0  0  3  0  0  0  0  0  0
  160.7960  204.2000  145.5180 C   0  0  0  0  0  0  0  0  0  0  0  0
  161.3020  204.2840  151.7550 C   0  0  2  0  0  3  0  0  0  0  0  0
  160.2670  203.6630  152.6790 C   0  0  0  0  0  1  0  0  0  0  0  0
  161.7030  206.0650  149.4950 C   0  0  0  0  0  2  0  0  0  0  0  0
  160.5490  206.4230  145.3520 C   0  0  0  0  0  3  0  0  0  0  0  0
  161.4800  202.5530  147.7270 C   0  0  0  0  0  0  0  0  0  0  0  0
  161.0180  201.9740  146.4010 C   0  0  0  0  0  3  0  0  0  0  0  0
  161.1920  205.7400  151.8400 N   0  0  0  0  0  2  0  0  0  0  0  0
  160.8520  206.2290  146.6370 C   0  0  0  0  0  2  0  0  0  0  0  0
  162.1580  206.3290  150.9220 C   0  0  2  0  0  3  0  0  0  0  0  0
  161.1500  203.7830  150.3270 C   0  0  0  0  0  0  0  0  0  0  0  0
  162.2500  207.8270  151.1540 C   0  0  0  0  0  2  0  0  0  0  0  0
  162.1850  208.5420  149.8860 N   0  0  0  0  0  2  0  0  0  0  0  0
  161.9100  209.9430  149.8020 C   0  0  0  0  0  0  0  0  0  0  0  0
  161.7780  210.6310  150.8510 O   0  0  0  0  0  0  0  0  0  0  0  0
  161.8220  210.6020  148.4650 C   0  0  2  0  0  3  0  0  0  0  0  0
  162.9900  211.4770  148.2690 N   0  0  0  0  0  2  0  0  0  0  0  0
  161.6830  212.0470  148.6220 C   0  0  0  0  0  2  0  0  0  0  0  0
  1  2  2  0  0  0  0
  2 11  1  0  0  0  0
  2 18  1  0  0  0  0
  3  6  1  0  0  0  0
  4  1  1  0  0  0  0
  5 12  2  0  0  0  0
  5  8  1  0  0  0  0
  6 18  2  0  0  0  0
  7  8  1  0  0  0  0
  7 14  2  0  0  0  0
  8  4  2  0  0  0  0
  9 15  1  0  0  0  0
  9 10  1  1  0  0  0
 11 17  1  0  0  0  0
 12 16  1  0  0  0  0
 13  1  1  0  0  0  0
 13  3  2  0  0  0  0
 14 13  1  0  0  0  0
 16  4  1  0  0  0  0
 17 19  1  1  0  0  0
 17 15  1  0  0  0  0
 18  9  1  0  0  0  0
 20 19  1  0  0  0  0
 21 20  1  0  0  0  0
 21 22  2  0  0  0  0
 23 25  1  0  0  0  0
 23 21  1  1  0  0  0
 24 23  1  0  0  0  0
 24 25  1  0  0  0  0
M  END
>  <MODEL>
5

>  <REMARK>
 VINA RESULT:      -8.9      2.223      4.601
  Name = 
  3 active torsions:
  status: ('A' for Active; 'I' for Inactive)
    1  A    between atoms: C_2  and  C_21
    2  A    between atoms: C_6  and  N_15
    3  A    between atoms: C_6  and  C_23
                            x       y       z     vdW  Elec       q    Type
                         _______ _______ _______ _____ _____    ______ ____

>  <TORSDO>
F 3

$$$$
=
 OpenBabel11052422063D

 25 29  0  0  1  0  0  0  0  0999 V2000
  161.3920  205.4920  150.6020 C   0  0  0  0  0  0  0  0  0  0  0  0
  161.4010  206.5290  151.6690 C   0  0  0  0  0  0  0  0  0  0  0  0
  160.9660  203.7630  152.3610 C   0  0  0  0  0  3  0  0  0  0  0  0
  161.2460  205.7540  149.2940 C   0  0  0  0  0  0  0  0  0  0  0  0
  160.8830  205.2290  147.1260 C   0  0  0  0  0  3  0  0  0  0  0  0
  160.7690  204.7440  153.2470 C   0  0  0  0  0  3  0  0  0  0  0  0
  161.0470  203.2990  148.7090 C   0  0  0  0  0  3  0  0  0  0  0  0
  161.1070  204.7070  148.3170 C   0  0  0  0  0  0  0  0  0  0  0  0
  161.1140  207.1750  154.0680 C   0  0  2  0  0  3  0  0  0  0  0  0
  160.0040  206.9290  155.0770 C   0  0  0  0  0  1  0  0  0  0  0  0
  161.7070  207.9680  151.3370 C   0  0  0  0  0  2  0  0  0  0  0  0
  160.8900  206.6930  147.2960 C   0  0  0  0  0  3  0  0  0  0  0  0
  161.6010  204.0440  151.0330 C   0  0  0  0  0  0  0  0  0  0  0  0
  161.2410  202.9920  149.9980 C   0  0  0  0  0  3  0  0  0  0  0  0
  161.0090  208.5510  153.5820 N   0  0  0  0  0  2  0  0  0  0  0  0
  161.0880  207.0100  148.5770 C   0  0  0  0  0  2  0  0  0  0  0  0
  162.0490  208.7680  152.5860 C   0  0  2  0  0  3  0  0  0  0  0  0
  161.0730  206.1640  152.9330 C   0  0  0  0  0  0  0  0  0  0  0  0
  162.1330  210.2430  152.2330 C   0  0  0  0  0  2  0  0  0  0  0  0
  160.8140  210.7600  151.8940 N   0  0  0  0  0  2  0  0  0  0  0  0
  160.0570  211.5880  152.7820 C   0  0  0  0  0  0  0  0  0  0  0  0
  160.5470  211.9570  153.8830 O   0  0  0  0  0  0  0  0  0  0  0  0
  158.6960  212.0520  152.3810 C   0  0  2  0  0  3  0  0  0  0  0  0
  158.7920  213.3830  151.7590 N   0  0  0  0  0  2  0  0  0  0  0  0
  158.3220  213.2400  153.1430 C   0  0  0  0  0  2  0  0  0  0  0  0
  1 13  1  0  0  0  0
  1  2  2  0  0  0  0
  2 18  1  0  0  0  0
  3  6  1  0  0  0  0
  4  1  1  0  0  0  0
  5 12  2  0  0  0  0
  5  8  1  0  0  0  0
  7 14  2  0  0  0  0
  8  7  1  0  0  0  0
  8  4  2  0  0  0  0
  9 10  1  1  0  0  0
 11  2  1  0  0  0  0
 11 17  1  0  0  0  0
 12 16  1  0  0  0  0
 13  3  2  0  0  0  0
 14 13  1  0  0  0  0
 15  9  1  0  0  0  0
 16  4  1  0  0  0  0
 17 19  1  6  0  0  0
 17 15  1  0  0  0  0
 18  6  2  0  0  0  0
 18  9  1  0  0  0  0
 20 19  1  0  0  0  0
 20 21  1  0  0  0  0
 21 22  2  0  0  0  0
 23 21  1  1  0  0  0
 23 25  1  0  0  0  0
 24 23  1  0  0  0  0
 24 25  1  0  0  0  0
M  END
>  <MODEL>
6

>  <REMARK>
 VINA RESULT:      -8.6      2.574      3.156
  Name = 
  3 active torsions:
  status: ('A' for Active; 'I' for Inactive)
    1  A    between atoms: C_2  and  C_21
    2  A    between atoms: C_6  and  N_15
    3  A    between atoms: C_6  and  C_23
                            x       y       z     vdW  Elec       q    Type
                         _______ _______ _______ _____ _____    ______ ____

>  <TORSDO>
F 3

$$$$
=
 OpenBabel11052422063D

 25 29  0  0  1  0  0  0  0  0999 V2000
  161.0670  205.9730  150.1440 C   0  0  0  0  0  0  0  0  0  0  0  0
  161.1830  207.2140  150.9560 C   0  0  0  0  0  0  0  0  0  0  0  0
  161.6160  207.3190  148.1060 C   0  0  0  0  0  3  0  0  0  0  0  0
  161.0950  204.7300  150.6520 C   0  0  0  0  0  0  0  0  0  0  0  0
  161.2390  202.4770  150.5520 C   0  0  0  0  0  3  0  0  0  0  0  0
  161.9190  208.3520  148.8980 C   0  0  0  0  0  3  0  0  0  0  0  0
  161.1800  203.6700  148.3550 C   0  0  0  0  0  3  0  0  0  0  0  0
  161.1160  203.5630  149.8120 C   0  0  0  0  0  0  0  0  0  0  0  0
  161.7110  209.6520  151.1270 C   0  0  2  0  0  3  0  0  0  0  0  0
  162.9050  210.4830  150.6860 C   0  0  0  0  0  1  0  0  0  0  0  0
  160.8810  207.1940  152.4340 C   0  0  0  0  0  2  0  0  0  0  0  0
  161.2830  202.9240  151.9560 C   0  0  0  0  0  3  0  0  0  0  0  0
  160.8660  206.1370  148.6410 C   0  0  0  0  0  0  0  0  0  0  0  0
  161.1010  204.8900  147.8070 C   0  0  0  0  0  3  0  0  0  0  0  0
  161.8020  209.4310  152.5700 N   0  0  0  0  0  2  0  0  0  0  0  0
  161.2140  204.2550  152.0220 C   0  0  0  0  0  2  0  0  0  0  0  0
  160.6780  208.6000  152.9800 C   0  0  2  0  0  3  0  0  0  0  0  0
  161.6210  208.3460  150.3540 C   0  0  0  0  0  0  0  0  0  0  0  0
  160.5960  208.5460  154.4960 C   0  0  0  0  0  2  0  0  0  0  0  0
  160.1700  209.8330  155.0280 N   0  0  0  0  0  2  0  0  0  0  0  0
  159.9430  210.0570  156.4220 C   0  0  0  0  0  0  0  0  0  0  0  0
  160.1730  209.1430  157.2600 O   0  0  0  0  0  0  0  0  0  0  0  0
  159.4720  211.3940  156.8910 C   0  0  2  0  0  3  0  0  0  0  0  0
  158.0440  211.5540  156.5730 N   0  0  0  0  0  2  0  0  0  0  0  0
  159.0670  212.2140  155.7520 C   0  0  0  0  0  2  0  0  0  0  0  0
  1  4  1  0  0  0  0
  1  2  2  0  0  0  0
  2 11  1  0  0  0  0
  3 13  2  0  0  0  0
  3  6  1  0  0  0  0
  4 16  1  0  0  0  0
  5 12  2  0  0  0  0
  6 18  2  0  0  0  0
  7  8  1  0  0  0  0
  8  5  1  0  0  0  0
  8  4  2  0  0  0  0
  9 10  1  6  0  0  0
  9 15  1  0  0  0  0
 11 17  1  0  0  0  0
 12 16  1  0  0  0  0
 13  1  1  0  0  0  0
 14  7  2  0  0  0  0
 14 13  1  0  0  0  0
 15 17  1  0  0  0  0
 17 19  1  1  0  0  0
 18  2  1  0  0  0  0
 18  9  1  0  0  0  0
 19 20  1  0  0  0  0
 20 21  1  0  0  0  0
 21 22  2  0  0  0  0
 23 21  1  6  0  0  0
 24 23  1  0  0  0  0
 25 24  1  0  0  0  0
 25 23  1  0  0  0  0
M  END
>  <MODEL>
7

>  <REMARK>
 VINA RESULT:      -8.6      3.316      5.202
  Name = 
  3 active torsions:
  status: ('A' for Active; 'I' for Inactive)
    1  A    between atoms: C_2  and  C_21
    2  A    between atoms: C_6  and  N_15
    3  A    between atoms: C_6  and  C_23
                            x       y       z     vdW  Elec       q    Type
                         _______ _______ _______ _____ _____    ______ ____

>  <TORSDO>
F 3

$$$$
=
 OpenBabel11052422063D

 25 29  0  0  1  0  0  0  0  0999 V2000
  161.0400  204.0520  147.9730 C   0  0  0  0  0  0  0  0  0  0  0  0
  161.2230  205.2810  148.7910 C   0  0  0  0  0  0  0  0  0  0  0  0
  161.5630  205.3990  145.9290 C   0  0  0  0  0  3  0  0  0  0  0  0
  161.0460  202.8050  148.4690 C   0  0  0  0  0  0  0  0  0  0  0  0
  161.1160  200.5490  148.3460 C   0  0  0  0  0  3  0  0  0  0  0  0
  161.9250  206.4150  146.7190 C   0  0  0  0  0  3  0  0  0  0  0  0
  161.0210  201.7640  146.1620 C   0  0  0  0  0  3  0  0  0  0  0  0
  161.0020  201.6450  147.6200 C   0  0  0  0  0  0  0  0  0  0  0  0
  161.8320  207.7000  148.9640 C   0  0  2  0  0  3  0  0  0  0  0  0
  163.0360  208.4970  148.4900 C   0  0  0  0  0  1  0  0  0  0  0  0
  160.9700  205.2570  150.2780 C   0  0  0  0  0  2  0  0  0  0  0  0
  161.2200  200.9820  149.7510 C   0  0  0  0  0  3  0  0  0  0  0  0
  160.7940  204.2370  146.4790 C   0  0  0  0  0  0  0  0  0  0  0  0
  160.9620  202.9910  145.6270 C   0  0  0  0  0  3  0  0  0  0  0  0
  161.9640  207.4620  150.4010 N   0  0  0  0  0  2  0  0  0  0  0  0
  161.1960  202.3130  149.8310 C   0  0  0  0  0  2  0  0  0  0  0  0
  160.8290  206.6630  150.8420 C   0  0  2  0  0  3  0  0  0  0  0  0
  161.6750  206.4050  148.1830 C   0  0  0  0  0  0  0  0  0  0  0  0
  160.7960  206.5970  152.3600 C   0  0  0  0  0  2  0  0  0  0  0  0
  160.9770  207.9260  152.9290 N   0  0  0  0  0  2  0  0  0  0  0  0
  160.8630  208.1870  154.3310 C   0  0  0  0  0  0  0  0  0  0  0  0
  160.6640  207.2430  155.1420 O   0  0  0  0  0  0  0  0  0  0  0  0
  161.0260  209.5820  154.8390 C   0  0  2  0  0  3  0  0  0  0  0  0
  159.7050  210.1460  155.1640 N   0  0  0  0  0  2  0  0  0  0  0  0
  160.3950  210.5290  153.9250 C   0  0  0  0  0  2  0  0  0  0  0  0
  1  4  1  0  0  0  0
  1  2  2  0  0  0  0
  2 11  1  0  0  0  0
  3 13  2  0  0  0  0
  3  6  1  0  0  0  0
  4 16  1  0  0  0  0
  5 12  2  0  0  0  0
  6 18  2  0  0  0  0
  7  8  1  0  0  0  0
  8  5  1  0  0  0  0
  8  4  2  0  0  0  0
  9 10  1  6  0  0  0
  9 15  1  0  0  0  0
 11 17  1  0  0  0  0
 12 16  1  0  0  0  0
 13  1  1  0  0  0  0
 14  7  2  0  0  0  0
 14 13  1  0  0  0  0
 15 17  1  0  0  0  0
 17 19  1  1  0  0  0
 18  2  1  0  0  0  0
 18  9  1  0  0  0  0
 19 20  1  0  0  0  0
 20 21  1  0  0  0  0
 21 22  2  0  0  0  0
 23 21  1  6  0  0  0
 23 24  1  0  0  0  0
 25 23  1  0  0  0  0
 25 24  1  0  0  0  0
M  END
>  <MODEL>
8

>  <REMARK>
 VINA RESULT:      -8.6      3.609      5.704
  Name = 
  3 active torsions:
  status: ('A' for Active; 'I' for Inactive)
    1  A    between atoms: C_2  and  C_21
    2  A    between atoms: C_6  and  N_15
    3  A    between atoms: C_6  and  C_23
                            x       y       z     vdW  Elec       q    Type
                         _______ _______ _______ _____ _____    ______ ____

>  <TORSDO>
F 3

$$$$
=
 OpenBabel11052422063D

 25 29  0  0  1  0  0  0  0  0999 V2000
  160.9440  203.5200  148.8780 C   0  0  0  0  0  0  0  0  0  0  0  0
  161.2890  204.7250  148.0760 C   0  0  0  0  0  0  0  0  0  0  0  0
  161.0580  202.1580  146.7810 C   0  0  0  0  0  3  0  0  0  0  0  0
  161.0420  203.4480  150.2150 C   0  0  0  0  0  0  0  0  0  0  0  0
  161.0760  202.3940  152.2130 C   0  0  0  0  0  3  0  0  0  0  0  0
  161.5730  203.2160  146.1480 C   0  0  0  0  0  3  0  0  0  0  0  0
  160.5570  200.9630  150.2290 C   0  0  0  0  0  3  0  0  0  0  0  0
  160.8270  202.2190  150.9300 C   0  0  0  0  0  0  0  0  0  0  0  0
  161.9310  205.7680  145.8950 C   0  0  2  0  0  3  0  0  0  0  0  0
  163.0210  205.4550  144.8830 C   0  0  0  0  0  1  0  0  0  0  0  0
  161.3350  206.0890  148.7200 C   0  0  0  0  0  2  0  0  0  0  0  0
  161.4590  203.8070  152.3810 C   0  0  0  0  0  3  0  0  0  0  0  0
  160.4080  202.3080  148.1230 C   0  0  0  0  0  0  0  0  0  0  0  0
  160.3990  201.0030  148.8990 C   0  0  0  0  0  3  0  0  0  0  0  0
  162.3440  206.9280  146.6850 N   0  0  0  0  0  2  0  0  0  0  0  0
  161.4560  204.4330  151.2030 C   0  0  0  0  0  2  0  0  0  0  0  0
  161.3150  207.1980  147.6800 C   0  0  2  0  0  3  0  0  0  0  0  0
  161.6170  204.5650  146.7700 C   0  0  0  0  0  0  0  0  0  0  0  0
  161.5820  208.5310  148.3570 C   0  0  0  0  0  2  0  0  0  0  0  0
  161.6460  208.3620  149.8030 N   0  0  0  0  0  2  0  0  0  0  0  0
  161.8700  209.4540  150.6990 C   0  0  0  0  0  0  0  0  0  0  0  0
  161.9560  210.6330  150.2600 O   0  0  0  0  0  0  0  0  0  0  0  0
  161.9590  209.2000  152.1680 C   0  0  2  0  0  3  0  0  0  0  0  0
  160.6050  209.1610  152.7450 N   0  0  0  0  0  2  0  0  0  0  0  0
  161.4520  210.3500  152.9110 C   0  0  0  0  0  2  0  0  0  0  0  0
  1  4  1  0  0  0  0
  2 11  1  0  0  0  0
  2  1  1  0  0  0  0
  3 13  1  0  0  0  0
  4  8  2  0  0  0  0
  4 16  1  0  0  0  0
  5 12  2  0  0  0  0
  6 18  1  0  0  0  0
  6  3  2  0  0  0  0
  7  8  1  0  0  0  0
  8  5  1  0  0  0  0
  9 10  1  6  0  0  0
  9 15  1  0  0  0  0
  9 18  1  0  0  0  0
 13  1  2  0  0  0  0
 13 14  1  0  0  0  0
 14  7  2  0  0  0  0
 15 17  1  0  0  0  0
 16 12  1  0  0  0  0
 17 19  1  1  0  0  0
 17 11  1  0  0  0  0
 18  2  2  0  0  0  0
 19 20  1  0  0  0  0
 20 21  1  0  0  0  0
 22 21  2  0  0  0  0
 23 21  1  6  0  0  0
 23 24  1  0  0  0  0
 23 25  1  0  0  0  0
 24 25  1  0  0  0  0
M  END
>  <MODEL>
9

>  <REMARK>
 VINA RESULT:      -8.6      2.775      5.438
  Name = 
  3 active torsions:
  status: ('A' for Active; 'I' for Inactive)
    1  A    between atoms: C_2  and  C_21
    2  A    between atoms: C_6  and  N_15
    3  A    between atoms: C_6  and  C_23
                            x       y       z     vdW  Elec       q    Type
                         _______ _______ _______ _____ _____    ______ ____

>  <TORSDO>
F 3

$$$$
