=
 OpenBabel11052422023D

 30 33  0  0  1  0  0  0  0  0999 V2000
  159.4480  211.7160  152.5800 C   0  0  2  0  0  3  0  0  0  0  0  0
  160.3460  208.8470  154.6310 C   0  0  0  0  0  2  0  0  0  0  0  0
  159.4930  213.3340  155.4240 C   0  0  0  0  0  2  0  0  0  0  0  0
  159.5050  213.2620  152.5010 C   0  0  1  0  0  3  0  0  0  0  0  0
  156.9700  213.4190  148.2200 C   0  0  0  0  0  2  0  0  0  0  0  0
  156.9870  213.6390  152.4450 C   0  0  0  0  0  2  0  0  0  0  0  0
  157.4090  214.4460  155.3540 O   0  0  0  0  0  1  0  0  0  0  0  0
  159.5880  213.9320  151.1180 C   0  0  2  0  0  3  0  0  0  0  0  0
  161.1360  209.0460  155.9210 C   0  0  0  0  0  2  0  0  0  0  0  0
  157.1190  213.7880  150.9490 C   0  0  0  0  0  0  0  0  0  0  0  0
  155.9750  214.1760  148.8600 O   0  0  0  0  0  0  0  0  0  0  0  0
  159.3160  209.9440  154.4130 C   0  0  0  0  0  2  0  0  0  0  0  0
  160.4550  212.1970  155.0020 C   0  0  2  0  0  3  0  0  0  0  0  0
  161.9770  210.3250  155.9160 C   0  0  0  0  0  2  0  0  0  0  0  0
  160.0200  211.1920  153.9040 C   0  0  2  0  0  3  0  0  0  0  0  0
  157.4440  212.2490  154.8230 O   0  0  0  0  0  1  0  0  0  0  0  0
  158.1440  213.4530  154.7070 C   0  0  0  0  0  0  0  0  0  0  0  0
  158.2960  213.8680  153.2270 C   0  0  1  0  0  3  0  0  0  0  0  0
  155.9400  213.7210  150.1420 N   0  0  0  0  0  2  0  0  0  0  0  0
  158.3370  213.8020  148.8040 C   0  0  0  0  0  2  0  0  0  0  0  0
  161.1450  211.5730  156.2290 C   0  0  2  0  0  3  0  0  0  0  0  0
  160.2330  211.3230  157.2610 O   0  0  0  0  0  1  0  0  0  0  0  0
  158.3120  213.7870  150.3190 C   0  0  0  0  0  0  0  0  0  0  0  0
  160.8550  213.6280  150.3810 C   0  0  0  0  0  3  0  0  0  0  0  0
  160.8310  213.1350  149.1500 C   0  0  0  0  0  3  0  0  0  0  0  0
  162.0630  212.8440  148.4740 C   0  0  0  0  0  0  0  0  0  0  0  0
  163.0970  212.5990  147.9070 C   0  0  0  0  0  3  0  0  0  0  0  0
  160.1490  210.9850  151.4410 C   0  0  0  0  0  2  0  0  0  0  0  0
  161.9800  209.3800  151.0190 C   0  0  0  0  0  1  0  0  0  0  0  0
  161.5350  210.5490  151.8730 C   0  0  0  0  0  2  0  0  0  0  0  0
  1 28  1  6  0  0  0
  1 15  1  0  0  0  0
  2  9  1  0  0  0  0
  4  1  1  0  0  0  0
  4 18  1  0  0  0  0
  5 20  1  0  0  0  0
  5 11  1  0  0  0  0
  6 18  1  0  0  0  0
  8  4  1  0  0  0  0
 10  6  1  0  0  0  0
 11 19  1  0  0  0  0
 12  2  1  0  0  0  0
 13  3  1  0  0  0  0
 13 21  1  0  0  0  0
 14  9  1  0  0  0  0
 14 21  1  0  0  0  0
 15 12  1  0  0  0  0
 15 13  1  0  0  0  0
 17 16  1  0  0  0  0
 17  7  1  0  0  0  0
 17  3  1  0  0  0  0
 18 17  1  0  0  0  0
 19 10  1  0  0  0  0
 20 23  1  0  0  0  0
 21 22  1  0  0  0  0
 23 10  2  0  0  0  0
 23  8  1  0  0  0  0
 24  8  1  0  0  0  0
 25 24  2  0  0  0  0
 26 25  1  0  0  0  0
 27 26  3  0  0  0  0
 28 30  1  0  0  0  0
 29 30  1  0  0  0  0
M  END
>  <MODEL>
1

>  <REMARK>
 VINA RESULT:      -3.9      0.000      0.000
  Name = 
  4 active torsions:
  status: ('A' for Active; 'I' for Inactive)
    1  A    between atoms: C_1  and  C_5
    2  A    between atoms: C_5  and  C_12
    3  A    between atoms: C_6  and  C_13
    4  A    between atoms: C_9  and  C_21
                            x       y       z     vdW  Elec       q    Type
                         _______ _______ _______ _____ _____    ______ ____

>  <TORSDO>
F 4

$$$$
=
 OpenBabel11052422023D

 30 33  0  0  1  0  0  0  0  0999 V2000
  160.4160  212.0880  151.8690 C   0  0  2  0  0  3  0  0  0  0  0  0
  160.7980  214.1180  148.8730 C   0  0  0  0  0  2  0  0  0  0  0  0
  157.2530  212.8730  151.5860 C   0  0  0  0  0  2  0  0  0  0  0  0
  159.4110  211.2300  152.6760 C   0  0  1  0  0  3  0  0  0  0  0  0
  162.6700  210.3470  156.3340 C   0  0  0  0  0  2  0  0  0  0  0  0
  159.4660  212.6410  154.7950 C   0  0  0  0  0  2  0  0  0  0  0  0
  156.7680  213.6270  153.7730 O   0  0  0  0  0  1  0  0  0  0  0  0
  159.9430  210.0480  153.5070 C   0  0  2  0  0  3  0  0  0  0  0  0
  159.6450  214.2450  147.8810 C   0  0  0  0  0  2  0  0  0  0  0  0
  160.4300  211.6260  155.3560 C   0  0  0  0  0  0  0  0  0  0  0  0
  161.7980  210.9780  157.2360 O   0  0  0  0  0  0  0  0  0  0  0  0
  160.3170  214.1120  150.3150 C   0  0  0  0  0  2  0  0  0  0  0  0
  158.2290  212.5780  150.4230 C   0  0  2  0  0  3  0  0  0  0  0  0
  158.6840  213.0540  147.9290 C   0  0  0  0  0  2  0  0  0  0  0  0
  159.7560  212.7370  150.6440 C   0  0  2  0  0  3  0  0  0  0  0  0
  158.6490  214.4030  152.7880 O   0  0  0  0  0  1  0  0  0  0  0  0
  157.8350  213.2780  152.9450 C   0  0  0  0  0  0  0  0  0  0  0  0
  158.6040  212.1250  153.6260 C   0  0  1  0  0  3  0  0  0  0  0  0
  161.1870  211.9630  156.5230 N   0  0  0  0  0  2  0  0  0  0  0  0
  161.8390  209.6020  155.2800 C   0  0  0  0  0  2  0  0  0  0  0  0
  157.6950  213.1460  149.0950 C   0  0  2  0  0  3  0  0  0  0  0  0
  157.2200  214.4530  149.2480 O   0  0  0  0  0  1  0  0  0  0  0  0
  160.7570  210.4920  154.7020 C   0  0  0  0  0  0  0  0  0  0  0  0
  160.5470  208.9580  152.6780 C   0  0  0  0  0  3  0  0  0  0  0  0
  160.7870  207.7590  153.1910 C   0  0  0  0  0  3  0  0  0  0  0  0
  161.3760  206.7380  152.3730 C   0  0  0  0  0  0  0  0  0  0  0  0
  161.8710  205.8810  151.6860 C   0  0  0  0  0  3  0  0  0  0  0  0
  161.6620  211.3490  151.3960 C   0  0  0  0  0  2  0  0  0  0  0  0
  161.9570  209.6300  149.6440 C   0  0  0  0  0  1  0  0  0  0  0  0
  161.5740  211.0720  149.9080 C   0  0  0  0  0  2  0  0  0  0  0  0
  1 28  1  6  0  0  0
  1  4  1  0  0  0  0
  2 12  1  0  0  0  0
  3 17  1  0  0  0  0
  4  8  1  0  0  0  0
  4 18  1  0  0  0  0
  5 11  1  0  0  0  0
  6 10  1  0  0  0  0
  8 23  1  0  0  0  0
  9 14  1  0  0  0  0
  9  2  1  0  0  0  0
 10 19  1  0  0  0  0
 12 15  1  0  0  0  0
 13 15  1  0  0  0  0
 13  3  1  0  0  0  0
 14 21  1  0  0  0  0
 15  1  1  0  0  0  0
 16 17  1  0  0  0  0
 17 18  1  0  0  0  0
 17  7  1  0  0  0  0
 18  6  1  0  0  0  0
 19 11  1  0  0  0  0
 20  5  1  0  0  0  0
 21 22  1  0  0  0  0
 21 13  1  0  0  0  0
 23 20  1  0  0  0  0
 23 10  2  0  0  0  0
 24 25  2  0  0  0  0
 24  8  1  0  0  0  0
 26 25  1  0  0  0  0
 27 26  3  0  0  0  0
 29 30  1  0  0  0  0
 30 28  1  0  0  0  0
M  END
>  <MODEL>
2

>  <REMARK>
 VINA RESULT:      -3.8      2.196      6.247
  Name = 
  4 active torsions:
  status: ('A' for Active; 'I' for Inactive)
    1  A    between atoms: C_1  and  C_5
    2  A    between atoms: C_5  and  C_12
    3  A    between atoms: C_6  and  C_13
    4  A    between atoms: C_9  and  C_21
                            x       y       z     vdW  Elec       q    Type
                         _______ _______ _______ _____ _____    ______ ____

>  <TORSDO>
F 4

$$$$
=
 OpenBabel11052422023D

 30 33  0  0  1  0  0  0  0  0999 V2000
  158.6280  211.7930  153.4650 C   0  0  2  0  0  3  0  0  0  0  0  0
  160.3450  208.7720  154.5480 C   0  0  0  0  0  2  0  0  0  0  0  0
  159.8960  213.0820  156.1930 C   0  0  0  0  0  2  0  0  0  0  0  0
  158.6370  213.3380  153.5670 C   0  0  1  0  0  3  0  0  0  0  0  0
  154.4920  213.8210  150.8520 C   0  0  0  0  0  2  0  0  0  0  0  0
  156.3430  213.5670  154.6480 C   0  0  0  0  0  2  0  0  0  0  0  0
  157.9830  214.0680  157.1690 O   0  0  0  0  0  1  0  0  0  0  0  0
  158.1070  214.1630  152.3800 C   0  0  2  0  0  3  0  0  0  0  0  0
  161.6160  208.8720  155.3860 C   0  0  0  0  0  2  0  0  0  0  0  0
  155.8110  213.8900  153.2740 C   0  0  0  0  0  0  0  0  0  0  0  0
  153.8700  214.4400  151.9480 O   0  0  0  0  0  0  0  0  0  0  0  0
  159.3160  209.8230  154.9360 C   0  0  0  0  0  2  0  0  0  0  0  0
  160.5850  212.0600  155.2580 C   0  0  2  0  0  3  0  0  0  0  0  0
  162.3630  210.1920  155.1820 C   0  0  0  0  0  2  0  0  0  0  0  0
  159.7220  211.1590  154.3360 C   0  0  2  0  0  3  0  0  0  0  0  0
  157.7960  211.9500  156.4000 O   0  0  0  0  0  1  0  0  0  0  0  0
  158.3680  213.2000  156.1480 C   0  0  0  0  0  0  0  0  0  0  0  0
  157.8590  213.7860  154.8130 C   0  0  1  0  0  3  0  0  0  0  0  0
  154.3980  213.8430  153.0510 N   0  0  0  0  0  2  0  0  0  0  0  0
  155.9750  214.2170  150.8340 C   0  0  0  0  0  2  0  0  0  0  0  0
  161.7440  211.3460  155.9780 C   0  0  2  0  0  3  0  0  0  0  0  0
  161.3720  210.9260  157.2610 O   0  0  0  0  0  1  0  0  0  0  0  0
  156.6110  214.0320  152.1970 C   0  0  0  0  0  0  0  0  0  0  0  0
  158.9290  214.0200  151.1370 C   0  0  0  0  0  3  0  0  0  0  0  0
  160.1820  214.4520  151.0900 C   0  0  0  0  0  3  0  0  0  0  0  0
  160.9410  214.3100  149.8810 C   0  0  0  0  0  0  0  0  0  0  0  0
  161.5770  214.1890  148.8650 C   0  0  0  0  0  3  0  0  0  0  0  0
  158.7690  211.2380  152.0540 C   0  0  0  0  0  2  0  0  0  0  0  0
  160.5720  209.6580  151.4520 C   0  0  0  0  0  1  0  0  0  0  0  0
  160.2330  211.1170  151.6820 C   0  0  0  0  0  2  0  0  0  0  0  0
  1 28  1  6  0  0  0
  1  4  1  0  0  0  0
  1 15  1  0  0  0  0
  2 12  1  0  0  0  0
  2  9  1  0  0  0  0
  4 18  1  0  0  0  0
  5 11  1  0  0  0  0
  6 18  1  0  0  0  0
  8  4  1  0  0  0  0
 10  6  1  0  0  0  0
 11 19  1  0  0  0  0
 13 21  1  0  0  0  0
 13  3  1  0  0  0  0
 14  9  1  0  0  0  0
 14 21  1  0  0  0  0
 15 12  1  0  0  0  0
 15 13  1  0  0  0  0
 17  3  1  0  0  0  0
 17 16  1  0  0  0  0
 17  7  1  0  0  0  0
 18 17  1  0  0  0  0
 19 10  1  0  0  0  0
 20  5  1  0  0  0  0
 20 23  1  0  0  0  0
 21 22  1  0  0  0  0
 23  8  1  0  0  0  0
 23 10  2  0  0  0  0
 24  8  1  0  0  0  0
 25 24  2  0  0  0  0
 26 25  1  0  0  0  0
 27 26  3  0  0  0  0
 29 30  1  0  0  0  0
 30 28  1  0  0  0  0
M  END
>  <MODEL>
3

>  <REMARK>
 VINA RESULT:      -2.3      1.549      1.985
  Name = 
  4 active torsions:
  status: ('A' for Active; 'I' for Inactive)
    1  A    between atoms: C_1  and  C_5
    2  A    between atoms: C_5  and  C_12
    3  A    between atoms: C_6  and  C_13
    4  A    between atoms: C_9  and  C_21
                            x       y       z     vdW  Elec       q    Type
                         _______ _______ _______ _____ _____    ______ ____

>  <TORSDO>
F 4

$$$$
=
 OpenBabel11052422023D

 30 33  0  0  1  0  0  0  0  0999 V2000
  160.8660  207.7380  153.2310 C   0  0  2  0  0  3  0  0  0  0  0  0
  161.1590  204.3020  152.0680 C   0  0  0  0  0  2  0  0  0  0  0  0
  161.4020  208.4880  150.0920 C   0  0  0  0  0  2  0  0  0  0  0  0
  160.5140  209.1800  152.7900 C   0  0  1  0  0  3  0  0  0  0  0  0
  161.5570  211.1050  157.2610 C   0  0  0  0  0  2  0  0  0  0  0  0
  162.7860  210.2030  153.3150 C   0  0  0  0  0  2  0  0  0  0  0  0
  163.1330  210.0840  150.2880 O   0  0  0  0  0  1  0  0  0  0  0  0
  159.8960  210.1420  153.8200 C   0  0  2  0  0  3  0  0  0  0  0  0
  160.7770  203.9440  150.6340 C   0  0  0  0  0  2  0  0  0  0  0  0
  162.1810  210.6970  154.6060 C   0  0  0  0  0  0  0  0  0  0  0  0
  162.5480  211.9020  156.6650 O   0  0  0  0  0  0  0  0  0  0  0  0
  161.8620  205.6480  152.1560 C   0  0  0  0  0  2  0  0  0  0  0  0
  160.5750  207.2910  150.6180 C   0  0  2  0  0  3  0  0  0  0  0  0
  159.7620  204.9150  150.0270 C   0  0  0  0  0  2  0  0  0  0  0  0
  160.8260  206.7560  152.0520 C   0  0  2  0  0  3  0  0  0  0  0  0
  163.3290  208.1710  151.4780 O   0  0  0  0  0  1  0  0  0  0  0  0
  162.4250  209.1380  151.0290 C   0  0  0  0  0  0  0  0  0  0  0  0
  161.7590  209.8700  152.2150 C   0  0  1  0  0  3  0  0  0  0  0  0
  163.0520  211.1530  155.6460 N   0  0  0  0  0  2  0  0  0  0  0  0
  160.3870  210.9510  156.2790 C   0  0  0  0  0  2  0  0  0  0  0  0
  160.4130  206.2110  149.5330 C   0  0  2  0  0  3  0  0  0  0  0  0
  161.6250  205.9470  148.8840 O   0  0  0  0  0  1  0  0  0  0  0  0
  160.8740  210.5490  154.9010 C   0  0  0  0  0  0  0  0  0  0  0  0
  158.5410  209.7210  154.2950 C   0  0  0  0  0  3  0  0  0  0  0  0
  157.5700  210.6070  154.4720 C   0  0  0  0  0  3  0  0  0  0  0  0
  156.2840  210.1730  154.9380 C   0  0  0  0  0  0  0  0  0  0  0  0
  155.2040  209.8080  155.3280 C   0  0  0  0  0  3  0  0  0  0  0  0
  159.9940  207.1730  154.3450 C   0  0  0  0  0  2  0  0  0  0  0  0
  160.0000  207.3690  156.8090 C   0  0  0  0  0  1  0  0  0  0  0  0
  160.8170  206.9630  155.6000 C   0  0  0  0  0  2  0  0  0  0  0  0
  1 28  1  1  0  0  0
  2 12  1  0  0  0  0
  3 13  1  0  0  0  0
  3 17  1  0  0  0  0
  4  1  1  0  0  0  0
  4  8  1  0  0  0  0
  6 10  1  0  0  0  0
  7 17  1  0  0  0  0
  8 24  1  0  0  0  0
  8 23  1  0  0  0  0
  9  2  1  0  0  0  0
 10 23  2  0  0  0  0
 10 19  1  0  0  0  0
 11  5  1  0  0  0  0
 13 15  1  0  0  0  0
 14  9  1  0  0  0  0
 15 12  1  0  0  0  0
 15  1  1  0  0  0  0
 17 16  1  0  0  0  0
 17 18  1  0  0  0  0
 18  4  1  0  0  0  0
 18  6  1  0  0  0  0
 19 11  1  0  0  0  0
 20  5  1  0  0  0  0
 21 14  1  0  0  0  0
 21 13  1  0  0  0  0
 22 21  1  0  0  0  0
 23 20  1  0  0  0  0
 24 25  2  0  0  0  0
 25 26  1  0  0  0  0
 26 27  3  0  0  0  0
 28 30  1  0  0  0  0
 30 29  1  0  0  0  0
M  END
>  <MODEL>
4

>  <REMARK>
 VINA RESULT:      -1.9      4.261      7.398
  Name = 
  4 active torsions:
  status: ('A' for Active; 'I' for Inactive)
    1  A    between atoms: C_1  and  C_5
    2  A    between atoms: C_5  and  C_12
    3  A    between atoms: C_6  and  C_13
    4  A    between atoms: C_9  and  C_21
                            x       y       z     vdW  Elec       q    Type
                         _______ _______ _______ _____ _____    ______ ____

>  <TORSDO>
F 4

$$$$
=
 OpenBabel11052422023D

 30 33  0  0  1  0  0  0  0  0999 V2000
  161.0540  210.8750  153.4260 C   0  0  2  0  0  3  0  0  0  0  0  0
  162.5080  209.7700  156.5740 C   0  0  0  0  0  2  0  0  0  0  0  0
  160.4310  207.6930  152.9880 C   0  0  0  0  0  2  0  0  0  0  0  0
  160.0180  210.5120  152.3340 C   0  0  1  0  0  3  0  0  0  0  0  0
  161.1810  214.4530  149.5230 C   0  0  0  0  0  2  0  0  0  0  0  0
  161.6780  210.3460  150.4090 C   0  0  0  0  0  2  0  0  0  0  0  0
  161.2940  207.3490  150.8160 O   0  0  0  0  0  1  0  0  0  0  0  0
  159.3170  211.6490  151.5680 C   0  0  2  0  0  3  0  0  0  0  0  0
  161.9820  208.5130  157.2610 C   0  0  0  0  0  2  0  0  0  0  0  0
  161.2530  211.7410  150.0230 C   0  0  0  0  0  0  0  0  0  0  0  0
  161.5530  213.5810  148.4880 O   0  0  0  0  0  0  0  0  0  0  0  0
  162.5590  209.6190  155.0620 C   0  0  0  0  0  2  0  0  0  0  0  0
  160.3580  208.4640  154.3280 C   0  0  2  0  0  3  0  0  0  0  0  0
  160.5330  208.1910  156.8870 C   0  0  0  0  0  2  0  0  0  0  0  0
  161.1560  209.7820  154.4990 C   0  0  2  0  0  3  0  0  0  0  0  0
  162.5790  208.4860  152.2870 O   0  0  0  0  0  1  0  0  0  0  0  0
  161.2670  208.2850  151.8490 C   0  0  0  0  0  0  0  0  0  0  0  0
  160.6620  209.5910  151.2880 C   0  0  1  0  0  3  0  0  0  0  0  0
  162.0650  212.4810  149.1060 N   0  0  0  0  0  2  0  0  0  0  0  0
  159.9920  213.8460  150.2810 C   0  0  0  0  0  2  0  0  0  0  0  0
  160.4190  207.4980  155.5260 C   0  0  2  0  0  3  0  0  0  0  0  0
  161.4280  206.5410  155.3640 O   0  0  0  0  0  1  0  0  0  0  0  0
  160.2530  212.3980  150.6460 C   0  0  0  0  0  0  0  0  0  0  0  0
  158.4370  212.4980  152.4310 C   0  0  0  0  0  3  0  0  0  0  0  0
  157.5070  211.9550  153.2050 C   0  0  0  0  0  3  0  0  0  0  0  0
  156.6720  212.7970  154.0130 C   0  0  0  0  0  0  0  0  0  0  0  0
  155.9710  213.5040  154.6920 C   0  0  0  0  0  3  0  0  0  0  0  0
  160.8110  212.2050  154.1290 C   0  0  0  0  0  2  0  0  0  0  0  0
  159.6600  213.2770  156.0360 C   0  0  0  0  0  1  0  0  0  0  0  0
  160.2080  211.9700  155.5000 C   0  0  0  0  0  2  0  0  0  0  0  0
  1 28  1  1  0  0  0
  1 15  1  0  0  0  0
  2  9  1  0  0  0  0
  3 13  1  0  0  0  0
  4  1  1  0  0  0  0
  5 20  1  0  0  0  0
  6 18  1  0  0  0  0
  7 17  1  0  0  0  0
  8  4  1  0  0  0  0
  8 24  1  0  0  0  0
 10  6  1  0  0  0  0
 10 23  2  0  0  0  0
 11 19  1  0  0  0  0
 11  5  1  0  0  0  0
 12  2  1  0  0  0  0
 13 15  1  0  0  0  0
 13 21  1  0  0  0  0
 14  9  1  0  0  0  0
 15 12  1  0  0  0  0
 17 16  1  0  0  0  0
 17  3  1  0  0  0  0
 18 17  1  0  0  0  0
 18  4  1  0  0  0  0
 19 10  1  0  0  0  0
 20 23  1  0  0  0  0
 21 14  1  0  0  0  0
 22 21  1  0  0  0  0
 23  8  1  0  0  0  0
 24 25  2  0  0  0  0
 25 26  1  0  0  0  0
 26 27  3  0  0  0  0
 28 30  1  0  0  0  0
 30 29  1  0  0  0  0
M  END
>  <MODEL>
5

>  <REMARK>
 VINA RESULT:      -1.7      3.063      5.122
  Name = 
  4 active torsions:
  status: ('A' for Active; 'I' for Inactive)
    1  A    between atoms: C_1  and  C_5
    2  A    between atoms: C_5  and  C_12
    3  A    between atoms: C_6  and  C_13
    4  A    between atoms: C_9  and  C_21
                            x       y       z     vdW  Elec       q    Type
                         _______ _______ _______ _____ _____    ______ ____

>  <TORSDO>
F 4

$$$$
