=
 OpenBabel11062409413D

 34 37  0  0  1  0  0  0  0  0999 V2000
  160.8260  204.5110  150.2610 C   0  0  0  0  0  0  0  0  0  0  0  0
  161.3700  203.6830  147.5910 C   0  0  0  0  0  3  0  0  0  0  0  0
  160.8120  202.0080  150.6400 C   0  0  0  0  0  3  0  0  0  0  0  0
  161.0150  200.9800  149.7760 N   0  0  0  0  0  0  0  0  0  0  0  0
  161.1870  202.7750  148.6270 C   0  0  0  0  0  0  0  0  0  0  0  0
  160.9190  203.1680  149.9020 C   0  0  0  0  0  0  0  0  0  0  0  0
  161.2360  201.4710  148.5870 O   0  0  0  0  0  0  0  0  0  0  0  0
  161.2530  205.0520  147.8980 C   0  0  0  0  0  0  0  0  0  0  0  0
  160.7890  206.8250  149.4930 O   0  0  0  0  0  1  0  0  0  0  0  0
  160.9660  205.4720  149.2240 C   0  0  0  0  0  0  0  0  0  0  0  0
  161.4490  206.0570  146.8100 C   0  0  0  0  0  2  0  0  0  0  0  0
  161.9600  205.3840  145.5410 C   0  0  2  0  0  3  0  0  0  0  0  0
  163.0790  206.0490  145.0700 F   0  0  0  0  0  0  0  0  0  0  0  0
  160.8810  205.3560  144.4640 C   0  0  0  0  0  0  0  0  0  0  0  0
  161.3900  205.8430  143.2740 F   0  0  0  0  0  0  0  0  0  0  0  0
  159.8220  206.1530  144.8570 F   0  0  0  0  0  0  0  0  0  0  0  0
  160.4270  204.0630  144.2750 F   0  0  0  0  0  0  0  0  0  0  0  0
  160.5460  204.8730  151.6200 N   0  0  0  0  0  2  0  0  0  0  0  0
  161.4840  205.4700  152.5180 C   0  0  0  0  0  0  0  0  0  0  0  0
  163.0280  205.6600  152.0070 S   0  0  0  0  0  0  0  0  0  0  0  0
  161.0550  205.8810  153.8290 N   0  0  0  0  0  2  0  0  0  0  0  0
  159.8840  208.5740  156.1250 C   0  0  0  0  0  3  0  0  0  0  0  0
  160.8300  208.3330  153.4990 C   0  0  0  0  0  3  0  0  0  0  0  0
  159.7510  212.1070  155.0110 C   0  0  0  0  0  0  0  0  0  0  0  0
  159.6420  210.9650  155.8200 C   0  0  0  0  0  3  0  0  0  0  0  0
  159.9980  209.7090  155.3210 C   0  0  0  0  0  0  0  0  0  0  0  0
  160.5820  210.7220  153.1910 C   0  0  0  0  0  3  0  0  0  0  0  0
  160.4730  209.5880  153.9980 C   0  0  0  0  0  0  0  0  0  0  0  0
  160.2230  211.9760  153.6960 C   0  0  0  0  0  3  0  0  0  0  0  0
  160.7290  207.1920  154.3100 C   0  0  0  0  0  0  0  0  0  0  0  0
  160.2450  207.3210  155.6180 C   0  0  0  0  0  3  0  0  0  0  0  0
  159.3750  213.4300  155.5380 C   0  0  0  0  0  0  0  0  0  0  0  0
  160.0360  213.9670  156.6800 N   0  0  0  0  0  1  0  0  0  0  0  0
  158.4640  214.1000  154.9820 O   0  0  0  0  0  0  0  0  0  0  0  0
  1 18  1  0  0  0  0
  2  8  2  0  0  0  0
  2  5  1  0  0  0  0
  4  3  2  0  0  0  0
  5  6  2  0  0  0  0
  6  1  1  0  0  0  0
  6  3  1  0  0  0  0
  7  5  1  0  0  0  0
  7  4  1  0  0  0  0
  8 10  1  0  0  0  0
 10  9  1  0  0  0  0
 10  1  2  0  0  0  0
 11  8  1  0  0  0  0
 12 13  1  6  0  0  0
 12 11  1  0  0  0  0
 14 16  1  0  0  0  0
 14 12  1  0  0  0  0
 15 14  1  0  0  0  0
 17 14  1  0  0  0  0
 18 19  1  0  0  0  0
 19 21  1  0  0  0  0
 20 19  2  0  0  0  0
 21 30  1  0  0  0  0
 23 28  2  0  0  0  0
 23 30  1  0  0  0  0
 24 32  1  0  0  0  0
 24 25  2  0  0  0  0
 26 25  1  0  0  0  0
 26 22  2  0  0  0  0
 27 29  2  0  0  0  0
 27 28  1  0  0  0  0
 28 26  1  0  0  0  0
 29 24  1  0  0  0  0
 30 31  2  0  0  0  0
 31 22  1  0  0  0  0
 32 33  1  0  0  0  0
 34 32  2  0  0  0  0
M  END
>  <MODEL>
1

>  <REMARK>
 VINA RESULT:      -8.9      0.000      0.000
  Name = 
  8 active torsions:
  status: ('A' for Active; 'I' for Inactive)
    1  A    between atoms: C_1  and  N_9
    2  A    between atoms: C_2  and  C_23
    3  A    between atoms: C_2  and  C_32
    4  A    between atoms: C_3  and  C_23
    5  A    between atoms: C_7  and  C_11
    6  A    between atoms: C_8  and  N_9
    7  A    between atoms: C_8  and  N_18
    8  A    between atoms: N_18  and  C_30
                            x       y       z     vdW  Elec       q    Type
                         _______ _______ _______ _____ _____    ______ ____

>  <TORSDO>
F 8

$$$$
=
 OpenBabel11062409413D

 34 37  0  0  1  0  0  0  0  0999 V2000
  160.8730  205.3120  149.4120 C   0  0  0  0  0  0  0  0  0  0  0  0
  161.3070  202.5100  149.1470 C   0  0  0  0  0  3  0  0  0  0  0  0
  160.6750  204.6740  151.8540 C   0  0  0  0  0  3  0  0  0  0  0  0
  160.7840  203.4680  152.4660 N   0  0  0  0  0  0  0  0  0  0  0  0
  161.0730  203.1120  150.3770 C   0  0  0  0  0  0  0  0  0  0  0  0
  160.8570  204.4500  150.5060 C   0  0  0  0  0  0  0  0  0  0  0  0
  161.0220  202.5590  151.5590 O   0  0  0  0  0  0  0  0  0  0  0  0
  161.3000  203.3370  148.0070 C   0  0  0  0  0  0  0  0  0  0  0  0
  160.9990  205.5210  146.9860 O   0  0  0  0  0  1  0  0  0  0  0  0
  161.0680  204.7330  148.1300 C   0  0  0  0  0  0  0  0  0  0  0  0
  161.5530  202.7250  146.6680 C   0  0  0  0  0  2  0  0  0  0  0  0
  160.6700  201.4990  146.4600 C   0  0  2  0  0  3  0  0  0  0  0  0
  161.4470  200.3540  146.4400 F   0  0  0  0  0  0  0  0  0  0  0  0
  159.8750  201.6110  145.1640 C   0  0  0  0  0  0  0  0  0  0  0  0
  160.1940  202.7910  144.5170 F   0  0  0  0  0  0  0  0  0  0  0  0
  158.5240  201.6120  145.4550 F   0  0  0  0  0  0  0  0  0  0  0  0
  160.1580  200.5410  144.3340 F   0  0  0  0  0  0  0  0  0  0  0  0
  160.6440  206.7150  149.6010 N   0  0  0  0  0  2  0  0  0  0  0  0
  161.6660  207.6870  149.8340 C   0  0  0  0  0  0  0  0  0  0  0  0
  162.2400  208.5250  148.5490 S   0  0  0  0  0  0  0  0  0  0  0  0
  162.1580  207.8990  151.1700 N   0  0  0  0  0  2  0  0  0  0  0  0
  160.6780  208.4580  154.5450 C   0  0  0  0  0  3  0  0  0  0  0  0
  161.1030  209.9070  152.1860 C   0  0  0  0  0  3  0  0  0  0  0  0
  159.2060  211.7330  155.4650 C   0  0  0  0  0  0  0  0  0  0  0  0
  159.6310  210.3980  155.5490 C   0  0  0  0  0  3  0  0  0  0  0  0
  160.2600  209.7870  154.4620 C   0  0  0  0  0  0  0  0  0  0  0  0
  160.0510  211.8450  153.1860 C   0  0  0  0  0  3  0  0  0  0  0  0
  160.4730  210.5170  153.2720 C   0  0  0  0  0  0  0  0  0  0  0  0
  159.4210  212.4500  154.2780 C   0  0  0  0  0  3  0  0  0  0  0  0
  161.5350  208.5740  152.2720 C   0  0  0  0  0  0  0  0  0  0  0  0
  161.3080  207.8550  153.4520 C   0  0  0  0  0  3  0  0  0  0  0  0
  158.5420  212.3760  156.6120 C   0  0  0  0  0  0  0  0  0  0  0  0
  157.2310  211.9780  157.0030 N   0  0  0  0  0  1  0  0  0  0  0  0
  159.1280  213.2850  157.2590 O   0  0  0  0  0  0  0  0  0  0  0  0
  1 18  1  0  0  0  0
  1  6  1  0  0  0  0
  2  5  1  0  0  0  0
  3  4  2  0  0  0  0
  5  6  2  0  0  0  0
  5  7  1  0  0  0  0
  6  3  1  0  0  0  0
  7  4  1  0  0  0  0
  8 10  1  0  0  0  0
  8  2  2  0  0  0  0
  9 10  1  0  0  0  0
 10  1  2  0  0  0  0
 11  8  1  0  0  0  0
 12 13  1  6  0  0  0
 12 11  1  0  0  0  0
 14 16  1  0  0  0  0
 14 12  1  0  0  0  0
 15 14  1  0  0  0  0
 17 14  1  0  0  0  0
 18 19  1  0  0  0  0
 19 21  1  0  0  0  0
 20 19  2  0  0  0  0
 21 30  1  0  0  0  0
 23 30  2  0  0  0  0
 23 28  1  0  0  0  0
 24 25  1  0  0  0  0
 24 32  1  0  0  0  0
 26 22  1  0  0  0  0
 26 25  2  0  0  0  0
 27 28  2  0  0  0  0
 27 29  1  0  0  0  0
 28 26  1  0  0  0  0
 29 24  2  0  0  0  0
 30 31  1  0  0  0  0
 31 22  2  0  0  0  0
 32 33  1  0  0  0  0
 32 34  2  0  0  0  0
M  END
>  <MODEL>
2

>  <REMARK>
 VINA RESULT:      -8.8      2.214      2.891
  Name = 
  8 active torsions:
  status: ('A' for Active; 'I' for Inactive)
    1  A    between atoms: C_1  and  N_9
    2  A    between atoms: C_2  and  C_23
    3  A    between atoms: C_2  and  C_32
    4  A    between atoms: C_3  and  C_23
    5  A    between atoms: C_7  and  C_11
    6  A    between atoms: C_8  and  N_9
    7  A    between atoms: C_8  and  N_18
    8  A    between atoms: N_18  and  C_30
                            x       y       z     vdW  Elec       q    Type
                         _______ _______ _______ _____ _____    ______ ____

>  <TORSDO>
F 8

$$$$
=
 OpenBabel11062409413D

 34 37  0  0  1  0  0  0  0  0999 V2000
  161.1020  205.7380  149.6350 C   0  0  0  0  0  0  0  0  0  0  0  0
  162.4130  206.4790  147.2180 C   0  0  0  0  0  3  0  0  0  0  0  0
  161.4710  208.1900  150.1500 C   0  0  0  0  0  3  0  0  0  0  0  0
  162.0480  209.1730  149.4140 N   0  0  0  0  0  0  0  0  0  0  0  0
  162.1660  207.3910  148.2370 C   0  0  0  0  0  0  0  0  0  0  0  0
  161.5470  207.0370  149.3970 C   0  0  0  0  0  0  0  0  0  0  0  0
  162.4510  208.6640  148.2800 O   0  0  0  0  0  0  0  0  0  0  0  0
  162.0110  205.1460  147.4260 C   0  0  0  0  0  0  0  0  0  0  0  0
  161.0430  203.4310  148.8490 O   0  0  0  0  0  1  0  0  0  0  0  0
  161.3720  204.7660  148.6360 C   0  0  0  0  0  0  0  0  0  0  0  0
  162.2570  204.1410  146.3490 C   0  0  0  0  0  2  0  0  0  0  0  0
  160.9400  203.6680  145.7420 C   0  0  2  0  0  3  0  0  0  0  0  0
  161.0730  202.3730  145.2710 F   0  0  0  0  0  0  0  0  0  0  0  0
  160.4990  204.5900  144.6100 C   0  0  0  0  0  0  0  0  0  0  0  0
  159.9180  205.7320  145.1310 F   0  0  0  0  0  0  0  0  0  0  0  0
  159.5710  203.9340  143.8230 F   0  0  0  0  0  0  0  0  0  0  0  0
  161.5850  204.9420  143.8280 F   0  0  0  0  0  0  0  0  0  0  0  0
  160.4520  205.4180  150.8720 N   0  0  0  0  0  2  0  0  0  0  0  0
  161.1010  204.8570  152.0160 C   0  0  0  0  0  0  0  0  0  0  0  0
  161.0540  203.2310  152.2080 S   0  0  0  0  0  0  0  0  0  0  0  0
  161.7640  205.7210  152.9570 N   0  0  0  0  0  2  0  0  0  0  0  0
  160.0570  207.7000  155.6140 C   0  0  0  0  0  3  0  0  0  0  0  0
  161.3270  208.1580  153.1600 C   0  0  0  0  0  3  0  0  0  0  0  0
  159.6920  211.3770  155.3170 C   0  0  0  0  0  0  0  0  0  0  0  0
  159.6060  210.0710  155.8250 C   0  0  0  0  0  3  0  0  0  0  0  0
  160.1470  208.9990  155.1100 C   0  0  0  0  0  0  0  0  0  0  0  0
  160.8720  210.5280  153.3660 C   0  0  0  0  0  3  0  0  0  0  0  0
  160.7860  209.2290  153.8730 C   0  0  0  0  0  0  0  0  0  0  0  0
  160.3270  211.5960  154.0860 C   0  0  0  0  0  3  0  0  0  0  0  0
  161.2490  206.8530  153.6700 C   0  0  0  0  0  0  0  0  0  0  0  0
  160.6030  206.6330  154.8930 C   0  0  0  0  0  3  0  0  0  0  0  0
  159.1210  212.5060  156.0700 C   0  0  0  0  0  0  0  0  0  0  0  0
  159.8530  213.7190  156.2190 N   0  0  0  0  0  1  0  0  0  0  0  0
  157.9770  212.4110  156.5910 O   0  0  0  0  0  0  0  0  0  0  0  0
  1 18  1  0  0  0  0
  2  8  2  0  0  0  0
  2  5  1  0  0  0  0
  4  3  2  0  0  0  0
  5  7  1  0  0  0  0
  5  6  2  0  0  0  0
  6  1  1  0  0  0  0
  6  3  1  0  0  0  0
  7  4  1  0  0  0  0
  8 10  1  0  0  0  0
 10  9  1  0  0  0  0
 10  1  2  0  0  0  0
 11  8  1  0  0  0  0
 12 13  1  6  0  0  0
 12 11  1  0  0  0  0
 14 15  1  0  0  0  0
 14 12  1  0  0  0  0
 16 14  1  0  0  0  0
 17 14  1  0  0  0  0
 18 19  1  0  0  0  0
 19 20  2  0  0  0  0
 19 21  1  0  0  0  0
 21 30  1  0  0  0  0
 23 30  2  0  0  0  0
 23 28  1  0  0  0  0
 24 25  1  0  0  0  0
 24 32  1  0  0  0  0
 26 22  1  0  0  0  0
 26 25  2  0  0  0  0
 27 28  2  0  0  0  0
 27 29  1  0  0  0  0
 28 26  1  0  0  0  0
 29 24  2  0  0  0  0
 30 31  1  0  0  0  0
 31 22  2  0  0  0  0
 32 33  1  0  0  0  0
 32 34  2  0  0  0  0
M  END
>  <MODEL>
3

>  <REMARK>
 VINA RESULT:      -8.7      1.657      2.922
  Name = 
  8 active torsions:
  status: ('A' for Active; 'I' for Inactive)
    1  A    between atoms: C_1  and  N_9
    2  A    between atoms: C_2  and  C_23
    3  A    between atoms: C_2  and  C_32
    4  A    between atoms: C_3  and  C_23
    5  A    between atoms: C_7  and  C_11
    6  A    between atoms: C_8  and  N_9
    7  A    between atoms: C_8  and  N_18
    8  A    between atoms: N_18  and  C_30
                            x       y       z     vdW  Elec       q    Type
                         _______ _______ _______ _____ _____    ______ ____

>  <TORSDO>
F 8

$$$$
=
 OpenBabel11062409413D

 34 37  0  0  1  0  0  0  0  0999 V2000
  161.0300  210.1150  154.1290 C   0  0  0  0  0  0  0  0  0  0  0  0
  159.1730  210.7450  156.1940 C   0  0  0  0  0  3  0  0  0  0  0  0
  161.5180  208.1690  155.6730 C   0  0  0  0  0  3  0  0  0  0  0  0
  160.9760  207.8300  156.8710 N   0  0  0  0  0  0  0  0  0  0  0  0
  160.0000  209.6310  156.2560 C   0  0  0  0  0  0  0  0  0  0  0  0
  160.8940  209.3310  155.2740 C   0  0  0  0  0  0  0  0  0  0  0  0
  160.0750  208.7200  157.1890 O   0  0  0  0  0  0  0  0  0  0  0  0
  159.2960  211.5860  155.0720 C   0  0  0  0  0  0  0  0  0  0  0  0
  160.3850  212.1650  152.9780 O   0  0  0  0  0  1  0  0  0  0  0  0
  160.2320  211.2870  154.0460 C   0  0  0  0  0  0  0  0  0  0  0  0
  158.4190  212.7900  154.9710 C   0  0  0  0  0  2  0  0  0  0  0  0
  157.2860  212.5510  153.9780 C   0  0  2  0  0  3  0  0  0  0  0  0
  157.2220  213.5950  153.0720 F   0  0  0  0  0  0  0  0  0  0  0  0
  155.9500  212.4050  154.6990 C   0  0  0  0  0  0  0  0  0  0  0  0
  154.9990  213.2060  154.0930 F   0  0  0  0  0  0  0  0  0  0  0  0
  156.0950  212.8000  156.0150 F   0  0  0  0  0  0  0  0  0  0  0  0
  155.5300  211.0870  154.6660 F   0  0  0  0  0  0  0  0  0  0  0  0
  161.9840  209.7540  153.1230 N   0  0  0  0  0  2  0  0  0  0  0  0
  161.6660  209.1120  151.8850 C   0  0  0  0  0  0  0  0  0  0  0  0
  162.1130  209.8530  150.4950 S   0  0  0  0  0  0  0  0  0  0  0  0
  160.9700  207.8520  151.8930 N   0  0  0  0  0  2  0  0  0  0  0  0
  161.1790  206.0740  148.6240 C   0  0  0  0  0  3  0  0  0  0  0  0
  160.9250  205.4300  151.3390 C   0  0  0  0  0  3  0  0  0  0  0  0
  161.0240  202.3740  148.4520 C   0  0  0  0  0  0  0  0  0  0  0  0
  161.1210  203.7190  148.0600 C   0  0  0  0  0  3  0  0  0  0  0  0
  161.0880  204.7370  149.0160 C   0  0  0  0  0  0  0  0  0  0  0  0
  160.8610  203.0760  150.7760 C   0  0  0  0  0  3  0  0  0  0  0  0
  160.9580  204.4130  150.3830 C   0  0  0  0  0  0  0  0  0  0  0  0
  160.8950  202.0620  149.8130 C   0  0  0  0  0  3  0  0  0  0  0  0
  161.0310  206.7750  150.9490 C   0  0  0  0  0  0  0  0  0  0  0  0
  161.1470  207.0860  149.5880 C   0  0  0  0  0  3  0  0  0  0  0  0
  161.0590  201.3010  147.4430 C   0  0  0  0  0  0  0  0  0  0  0  0
  160.6520  201.5580  146.1020 N   0  0  0  0  0  1  0  0  0  0  0  0
  161.4500  200.1450  147.7570 O   0  0  0  0  0  0  0  0  0  0  0  0
  1  6  1  0  0  0  0
  2  5  1  0  0  0  0
  3  4  2  0  0  0  0
  4  7  1  0  0  0  0
  5  7  1  0  0  0  0
  6  3  1  0  0  0  0
  6  5  2  0  0  0  0
  8  2  2  0  0  0  0
  9 10  1  0  0  0  0
 10  1  2  0  0  0  0
 10  8  1  0  0  0  0
 11  8  1  0  0  0  0
 12 13  1  6  0  0  0
 12 14  1  0  0  0  0
 12 11  1  0  0  0  0
 14 16  1  0  0  0  0
 15 14  1  0  0  0  0
 17 14  1  0  0  0  0
 18  1  1  0  0  0  0
 19 21  1  0  0  0  0
 19 18  1  0  0  0  0
 20 19  2  0  0  0  0
 22 26  2  0  0  0  0
 22 31  1  0  0  0  0
 24 29  1  0  0  0  0
 25 24  2  0  0  0  0
 25 26  1  0  0  0  0
 26 28  1  0  0  0  0
 28 27  1  0  0  0  0
 28 23  2  0  0  0  0
 29 27  2  0  0  0  0
 30 23  1  0  0  0  0
 30 21  1  0  0  0  0
 31 30  2  0  0  0  0
 32 34  2  0  0  0  0
 32 24  1  0  0  0  0
 33 32  1  0  0  0  0
M  END
>  <MODEL>
4

>  <REMARK>
 VINA RESULT:      -8.7      4.935     10.119
  Name = 
  8 active torsions:
  status: ('A' for Active; 'I' for Inactive)
    1  A    between atoms: C_1  and  N_9
    2  A    between atoms: C_2  and  C_23
    3  A    between atoms: C_2  and  C_32
    4  A    between atoms: C_3  and  C_23
    5  A    between atoms: C_7  and  C_11
    6  A    between atoms: C_8  and  N_9
    7  A    between atoms: C_8  and  N_18
    8  A    between atoms: N_18  and  C_30
                            x       y       z     vdW  Elec       q    Type
                         _______ _______ _______ _____ _____    ______ ____

>  <TORSDO>
F 8

$$$$
=
 OpenBabel11062409413D

 34 37  0  0  1  0  0  0  0  0999 V2000
  159.3680  211.3630  152.6350 C   0  0  0  0  0  0  0  0  0  0  0  0
  158.6310  214.0190  151.9200 C   0  0  0  0  0  3  0  0  0  0  0  0
  157.4590  211.6700  154.2690 C   0  0  0  0  0  3  0  0  0  0  0  0
  156.6310  212.7250  154.4770 N   0  0  0  0  0  0  0  0  0  0  0  0
  157.9740  213.3100  152.9180 C   0  0  0  0  0  0  0  0  0  0  0  0
  158.3290  212.0430  153.2670 C   0  0  0  0  0  0  0  0  0  0  0  0
  156.9640  213.6850  153.6560 O   0  0  0  0  0  0  0  0  0  0  0  0
  159.7090  213.3860  151.2740 C   0  0  0  0  0  0  0  0  0  0  0  0
  161.2030  211.4850  151.0340 O   0  0  0  0  0  1  0  0  0  0  0  0
  160.0930  212.0670  151.6370 C   0  0  0  0  0  0  0  0  0  0  0  0
  160.4360  214.1170  150.1940 C   0  0  0  0  0  2  0  0  0  0  0  0
  159.8350  213.7980  148.8290 C   0  0  2  0  0  3  0  0  0  0  0  0
  158.7480  212.9540  148.9750 F   0  0  0  0  0  0  0  0  0  0  0  0
  160.8710  213.1580  147.9120 C   0  0  0  0  0  0  0  0  0  0  0  0
  162.1090  213.1560  148.5290 F   0  0  0  0  0  0  0  0  0  0  0  0
  160.9560  213.8860  146.7400 F   0  0  0  0  0  0  0  0  0  0  0  0
  160.5050  211.8580  147.6100 F   0  0  0  0  0  0  0  0  0  0  0  0
  159.7010  210.0280  153.0380 N   0  0  0  0  0  2  0  0  0  0  0  0
  160.7310  209.6870  153.9690 C   0  0  0  0  0  0  0  0  0  0  0  0
  161.3560  210.8810  154.9000 S   0  0  0  0  0  0  0  0  0  0  0  0
  161.1880  208.3250  154.0610 N   0  0  0  0  0  2  0  0  0  0  0  0
  161.2170  204.9110  152.5640 C   0  0  0  0  0  3  0  0  0  0  0  0
  161.1670  207.5730  151.6920 C   0  0  0  0  0  3  0  0  0  0  0  0
  161.2040  204.4400  148.8870 C   0  0  0  0  0  0  0  0  0  0  0  0
  161.2130  204.1560  150.2620 C   0  0  0  0  0  3  0  0  0  0  0  0
  161.2030  205.1940  151.1970 C   0  0  0  0  0  0  0  0  0  0  0  0
  161.1700  206.8200  149.3910 C   0  0  0  0  0  3  0  0  0  0  0  0
  161.1790  206.5360  150.7580 C   0  0  0  0  0  0  0  0  0  0  0  0
  161.1820  205.7760  148.4600 C   0  0  0  0  0  3  0  0  0  0  0  0
  161.1680  207.2910  153.0670 C   0  0  0  0  0  0  0  0  0  0  0  0
  161.2040  205.9570  153.4930 C   0  0  0  0  0  3  0  0  0  0  0  0
  161.2160  203.3450  147.9020 C   0  0  0  0  0  0  0  0  0  0  0  0
  160.8270  202.0280  148.2820 N   0  0  0  0  0  1  0  0  0  0  0  0
  161.5710  203.5630  146.7130 O   0  0  0  0  0  0  0  0  0  0  0  0
  1 18  1  0  0  0  0
  1  6  1  0  0  0  0
  2  5  1  0  0  0  0
  3  4  2  0  0  0  0
  5  6  2  0  0  0  0
  5  7  1  0  0  0  0
  6  3  1  0  0  0  0
  7  4  1  0  0  0  0
  8 10  1  0  0  0  0
  8  2  2  0  0  0  0
  9 10  1  0  0  0  0
 10  1  2  0  0  0  0
 11  8  1  0  0  0  0
 12 13  1  1  0  0  0
 12 11  1  0  0  0  0
 14 15  1  0  0  0  0
 14 12  1  0  0  0  0
 16 14  1  0  0  0  0
 17 14  1  0  0  0  0
 18 19  1  0  0  0  0
 19 21  1  0  0  0  0
 19 20  2  0  0  0  0
 22 31  1  0  0  0  0
 23 30  1  0  0  0  0
 24 25  2  0  0  0  0
 25 26  1  0  0  0  0
 26 22  2  0  0  0  0
 27 28  1  0  0  0  0
 28 26  1  0  0  0  0
 28 23  2  0  0  0  0
 29 24  1  0  0  0  0
 29 27  2  0  0  0  0
 30 31  2  0  0  0  0
 30 21  1  0  0  0  0
 32 33  1  0  0  0  0
 32 24  1  0  0  0  0
 34 32  2  0  0  0  0
M  END
>  <MODEL>
5

>  <REMARK>
 VINA RESULT:      -8.3      3.800      8.818
  Name = 
  8 active torsions:
  status: ('A' for Active; 'I' for Inactive)
    1  A    between atoms: C_1  and  N_9
    2  A    between atoms: C_2  and  C_23
    3  A    between atoms: C_2  and  C_32
    4  A    between atoms: C_3  and  C_23
    5  A    between atoms: C_7  and  C_11
    6  A    between atoms: C_8  and  N_9
    7  A    between atoms: C_8  and  N_18
    8  A    between atoms: N_18  and  C_30
                            x       y       z     vdW  Elec       q    Type
                         _______ _______ _______ _____ _____    ______ ____

>  <TORSDO>
F 8

$$$$
=
 OpenBabel11062409413D

 34 37  0  0  1  0  0  0  0  0999 V2000
  161.9020  205.7960  150.8220 C   0  0  0  0  0  0  0  0  0  0  0  0
  160.9150  204.3280  148.5910 C   0  0  0  0  0  3  0  0  0  0  0  0
  161.3620  203.6290  152.0140 C   0  0  0  0  0  3  0  0  0  0  0  0
  160.8530  202.4610  151.5440 N   0  0  0  0  0  0  0  0  0  0  0  0
  160.9770  203.7840  149.8680 C   0  0  0  0  0  0  0  0  0  0  0  0
  161.4420  204.4860  150.9370 C   0  0  0  0  0  0  0  0  0  0  0  0
  160.6360  202.5870  150.2620 O   0  0  0  0  0  0  0  0  0  0  0  0
  161.3400  205.6600  148.4300 C   0  0  0  0  0  0  0  0  0  0  0  0
  162.1690  207.7400  149.3740 O   0  0  0  0  0  1  0  0  0  0  0  0
  161.8180  206.4040  149.5420 C   0  0  0  0  0  0  0  0  0  0  0  0
  161.2910  206.2760  147.0700 C   0  0  0  0  0  2  0  0  0  0  0  0
  161.7680  205.2860  146.0120 C   0  0  2  0  0  3  0  0  0  0  0  0
  163.0600  205.5940  145.6240 F   0  0  0  0  0  0  0  0  0  0  0  0
  160.8450  205.2950  144.7990 C   0  0  0  0  0  0  0  0  0  0  0  0
  159.7200  206.0540  145.0690 F   0  0  0  0  0  0  0  0  0  0  0  0
  160.4530  204.0000  144.5130 F   0  0  0  0  0  0  0  0  0  0  0  0
  161.5020  205.8210  143.7010 F   0  0  0  0  0  0  0  0  0  0  0  0
  162.3850  206.4910  151.9790 N   0  0  0  0  0  2  0  0  0  0  0  0
  161.5930  207.3420  152.8120 C   0  0  0  0  0  0  0  0  0  0  0  0
  160.8320  206.6730  154.0980 S   0  0  0  0  0  0  0  0  0  0  0  0
  161.4840  208.7440  152.5010 N   0  0  0  0  0  2  0  0  0  0  0  0
  159.1500  211.6490  152.5670 C   0  0  0  0  0  3  0  0  0  0  0  0
  160.2210  209.7890  154.3680 C   0  0  0  0  0  3  0  0  0  0  0  0
  157.5750  212.7590  155.7340 C   0  0  0  0  0  0  0  0  0  0  0  0
  157.9230  212.6940  154.3750 C   0  0  0  0  0  3  0  0  0  0  0  0
  158.8020  211.7100  153.9180 C   0  0  0  0  0  0  0  0  0  0  0  0
  158.9990  210.8370  156.1770 C   0  0  0  0  0  3  0  0  0  0  0  0
  159.3430  210.7740  154.8250 C   0  0  0  0  0  0  0  0  0  0  0  0
  158.1190  211.8250  156.6290 C   0  0  0  0  0  3  0  0  0  0  0  0
  160.5620  209.7180  153.0080 C   0  0  0  0  0  0  0  0  0  0  0  0
  160.0300  210.6590  152.1180 C   0  0  0  0  0  3  0  0  0  0  0  0
  156.6490  213.7980  156.2150 C   0  0  0  0  0  0  0  0  0  0  0  0
  155.4450  214.0770  155.5060 N   0  0  0  0  0  1  0  0  0  0  0  0
  156.9120  214.4500  157.2610 O   0  0  0  0  0  0  0  0  0  0  0  0
  1  6  1  0  0  0  0
  1 18  1  0  0  0  0
  2  5  1  0  0  0  0
  4  3  2  0  0  0  0
  5  7  1  0  0  0  0
  5  6  2  0  0  0  0
  6  3  1  0  0  0  0
  7  4  1  0  0  0  0
  8  2  2  0  0  0  0
  8 10  1  0  0  0  0
  9 10  1  0  0  0  0
 10  1  2  0  0  0  0
 11  8  1  0  0  0  0
 12 13  1  6  0  0  0
 12 11  1  0  0  0  0
 14 15  1  0  0  0  0
 14 12  1  0  0  0  0
 16 14  1  0  0  0  0
 17 14  1  0  0  0  0
 18 19  1  0  0  0  0
 19 20  2  0  0  0  0
 21 19  1  0  0  0  0
 21 30  1  0  0  0  0
 22 26  1  0  0  0  0
 23 28  1  0  0  0  0
 24 32  1  0  0  0  0
 24 29  1  0  0  0  0
 25 24  2  0  0  0  0
 26 25  1  0  0  0  0
 26 28  2  0  0  0  0
 27 29  2  0  0  0  0
 28 27  1  0  0  0  0
 30 23  2  0  0  0  0
 31 22  2  0  0  0  0
 31 30  1  0  0  0  0
 32 34  2  0  0  0  0
 33 32  1  0  0  0  0
M  END
>  <MODEL>
6

>  <REMARK>
 VINA RESULT:      -8.2      1.815      2.553
  Name = 
  8 active torsions:
  status: ('A' for Active; 'I' for Inactive)
    1  A    between atoms: C_1  and  N_9
    2  A    between atoms: C_2  and  C_23
    3  A    between atoms: C_2  and  C_32
    4  A    between atoms: C_3  and  C_23
    5  A    between atoms: C_7  and  C_11
    6  A    between atoms: C_8  and  N_9
    7  A    between atoms: C_8  and  N_18
    8  A    between atoms: N_18  and  C_30
                            x       y       z     vdW  Elec       q    Type
                         _______ _______ _______ _____ _____    ______ ____

>  <TORSDO>
F 8

$$$$
=
 OpenBabel11062409413D

 34 37  0  0  1  0  0  0  0  0999 V2000
  160.0710  211.6170  153.5300 C   0  0  0  0  0  0  0  0  0  0  0  0
  157.5510  212.8820  153.9330 C   0  0  0  0  0  3  0  0  0  0  0  0
  159.9050  212.8260  151.3120 C   0  0  0  0  0  3  0  0  0  0  0  0
  158.9410  213.6450  150.8190 N   0  0  0  0  0  0  0  0  0  0  0  0
  158.2820  213.0410  152.7620 C   0  0  0  0  0  0  0  0  0  0  0  0
  159.4830  212.4310  152.5640 C   0  0  0  0  0  0  0  0  0  0  0  0
  157.9890  213.7520  151.7070 O   0  0  0  0  0  0  0  0  0  0  0  0
  158.0890  212.0420  154.9270 C   0  0  0  0  0  0  0  0  0  0  0  0
  159.8190  210.5170  155.6920 O   0  0  0  0  0  1  0  0  0  0  0  0
  159.3370  211.3950  154.7260 C   0  0  0  0  0  0  0  0  0  0  0  0
  157.3320  211.8510  156.2000 C   0  0  0  0  0  2  0  0  0  0  0  0
  155.8300  211.8330  155.9370 C   0  0  2  0  0  3  0  0  0  0  0  0
  155.1460  212.2490  157.0660 F   0  0  0  0  0  0  0  0  0  0  0  0
  155.3630  210.4400  155.5300 C   0  0  0  0  0  0  0  0  0  0  0  0
  156.4340  209.5650  155.5320 F   0  0  0  0  0  0  0  0  0  0  0  0
  154.8280  210.4910  154.2570 F   0  0  0  0  0  0  0  0  0  0  0  0
  154.3960  209.9840  156.4090 F   0  0  0  0  0  0  0  0  0  0  0  0
  161.3390  211.0010  153.2740 N   0  0  0  0  0  2  0  0  0  0  0  0
  161.5290  209.8030  152.5160 C   0  0  0  0  0  0  0  0  0  0  0  0
  162.1560  209.9350  151.0090 S   0  0  0  0  0  0  0  0  0  0  0  0
  161.1680  208.5320  153.0870 N   0  0  0  0  0  2  0  0  0  0  0  0
  161.2010  204.8230  152.7200 C   0  0  0  0  0  3  0  0  0  0  0  0
  160.9920  207.0820  151.0770 C   0  0  0  0  0  3  0  0  0  0  0  0
  160.9230  203.2340  149.3830 C   0  0  0  0  0  0  0  0  0  0  0  0
  161.0480  203.3910  150.7720 C   0  0  0  0  0  3  0  0  0  0  0  0
  161.0720  204.6680  151.3390 C   0  0  0  0  0  0  0  0  0  0  0  0
  160.8450  205.6520  149.1280 C   0  0  0  0  0  3  0  0  0  0  0  0
  160.9690  205.8060  150.5110 C   0  0  0  0  0  0  0  0  0  0  0  0
  160.8220  204.3710  148.5680 C   0  0  0  0  0  3  0  0  0  0  0  0
  161.1080  207.2410  152.4670 C   0  0  0  0  0  0  0  0  0  0  0  0
  161.2230  206.1050  153.2790 C   0  0  0  0  0  3  0  0  0  0  0  0
  160.8980  201.8870  148.7860 C   0  0  0  0  0  0  0  0  0  0  0  0
  160.5490  201.7110  147.4160 N   0  0  0  0  0  1  0  0  0  0  0  0
  161.1850  200.8770  149.4830 O   0  0  0  0  0  0  0  0  0  0  0  0
  1 10  1  0  0  0  0
  2  8  1  0  0  0  0
  3  6  1  0  0  0  0
  4  3  2  0  0  0  0
  4  7  1  0  0  0  0
  5  2  2  0  0  0  0
  6  5  1  0  0  0  0
  6  1  2  0  0  0  0
  7  5  1  0  0  0  0
  8 11  1  0  0  0  0
 10  8  2  0  0  0  0
 10  9  1  0  0  0  0
 12 11  1  0  0  0  0
 12 13  1  1  0  0  0
 14 15  1  0  0  0  0
 14 12  1  0  0  0  0
 14 17  1  0  0  0  0
 16 14  1  0  0  0  0
 18  1  1  0  0  0  0
 19 21  1  0  0  0  0
 19 18  1  0  0  0  0
 20 19  2  0  0  0  0
 22 31  1  0  0  0  0
 23 30  1  0  0  0  0
 24 25  2  0  0  0  0
 25 26  1  0  0  0  0
 26 22  2  0  0  0  0
 27 28  1  0  0  0  0
 28 23  2  0  0  0  0
 28 26  1  0  0  0  0
 29 27  2  0  0  0  0
 29 24  1  0  0  0  0
 30 21  1  0  0  0  0
 30 31  2  0  0  0  0
 32 24  1  0  0  0  0
 32 34  2  0  0  0  0
 33 32  1  0  0  0  0
M  END
>  <MODEL>
7

>  <REMARK>
 VINA RESULT:      -8.2      5.017     10.228
  Name = 
  8 active torsions:
  status: ('A' for Active; 'I' for Inactive)
    1  A    between atoms: C_1  and  N_9
    2  A    between atoms: C_2  and  C_23
    3  A    between atoms: C_2  and  C_32
    4  A    between atoms: C_3  and  C_23
    5  A    between atoms: C_7  and  C_11
    6  A    between atoms: C_8  and  N_9
    7  A    between atoms: C_8  and  N_18
    8  A    between atoms: N_18  and  C_30
                            x       y       z     vdW  Elec       q    Type
                         _______ _______ _______ _____ _____    ______ ____

>  <TORSDO>
F 8

$$$$
=
 OpenBabel11062409413D

 34 37  0  0  1  0  0  0  0  0999 V2000
  160.3810  211.4980  152.7550 C   0  0  0  0  0  0  0  0  0  0  0  0
  158.2210  213.3530  152.7610 C   0  0  0  0  0  3  0  0  0  0  0  0
  160.6990  212.4440  150.4280 C   0  0  0  0  0  3  0  0  0  0  0  0
  160.0080  213.4020  149.7580 N   0  0  0  0  0  0  0  0  0  0  0  0
  159.0630  213.1990  151.6660 C   0  0  0  0  0  0  0  0  0  0  0  0
  160.0920  212.3080  151.6580 C   0  0  0  0  0  0  0  0  0  0  0  0
  159.0410  213.8310  150.5240 O   0  0  0  0  0  0  0  0  0  0  0  0
  158.4540  212.5340  153.8810 C   0  0  0  0  0  0  0  0  0  0  0  0
  159.6910  210.7480  154.9690 O   0  0  0  0  0  1  0  0  0  0  0  0
  159.5190  211.5940  153.8790 C   0  0  0  0  0  0  0  0  0  0  0  0
  157.5700  212.6750  155.0770 C   0  0  0  0  0  2  0  0  0  0  0  0
  156.1430  212.2540  154.7460 C   0  0  2  0  0  3  0  0  0  0  0  0
  155.2570  213.2510  155.1160 F   0  0  0  0  0  0  0  0  0  0  0  0
  155.7810  210.9500  155.4480 C   0  0  0  0  0  0  0  0  0  0  0  0
  155.1090  211.2200  156.6270 F   0  0  0  0  0  0  0  0  0  0  0  0
  156.9380  210.2530  155.7430 F   0  0  0  0  0  0  0  0  0  0  0  0
  154.9810  210.1710  154.6310 F   0  0  0  0  0  0  0  0  0  0  0  0
  161.4790  210.5770  152.6960 N   0  0  0  0  0  2  0  0  0  0  0  0
  161.3960  209.2350  152.2110 C   0  0  0  0  0  0  0  0  0  0  0  0
  161.2040  208.0310  153.3040 S   0  0  0  0  0  0  0  0  0  0  0  0
  161.4850  208.9800  150.7970 N   0  0  0  0  0  2  0  0  0  0  0  0
  161.7600  206.5410  147.9920 C   0  0  0  0  0  3  0  0  0  0  0  0
  161.1610  206.5170  150.7280 C   0  0  0  0  0  3  0  0  0  0  0  0
  161.1160  202.9310  148.5330 C   0  0  0  0  0  0  0  0  0  0  0  0
  161.4340  204.1420  147.8990 C   0  0  0  0  0  3  0  0  0  0  0  0
  161.4490  205.3360  148.6240 C   0  0  0  0  0  0  0  0  0  0  0  0
  160.8290  204.1200  150.6360 C   0  0  0  0  0  3  0  0  0  0  0  0
  161.1450  205.3250  150.0030 C   0  0  0  0  0  0  0  0  0  0  0  0
  160.8150  202.9290  149.9030 C   0  0  0  0  0  3  0  0  0  0  0  0
  161.4870  207.7280  150.0970 C   0  0  0  0  0  0  0  0  0  0  0  0
  161.7740  207.7310  148.7260 C   0  0  0  0  0  3  0  0  0  0  0  0
  161.1000  201.6730  147.7670 C   0  0  0  0  0  0  0  0  0  0  0  0
  160.8310  201.6820  146.3680 N   0  0  0  0  0  1  0  0  0  0  0  0
  161.3250  200.5740  148.3430 O   0  0  0  0  0  0  0  0  0  0  0  0
  1 10  1  0  0  0  0
  2  8  1  0  0  0  0
  3  6  1  0  0  0  0
  4  3  2  0  0  0  0
  4  7  1  0  0  0  0
  5  2  2  0  0  0  0
  6  5  1  0  0  0  0
  6  1  2  0  0  0  0
  7  5  1  0  0  0  0
  8 11  1  0  0  0  0
 10  8  2  0  0  0  0
 10  9  1  0  0  0  0
 12 11  1  0  0  0  0
 12 13  1  1  0  0  0
 12 14  1  0  0  0  0
 14 16  1  0  0  0  0
 14 15  1  0  0  0  0
 17 14  1  0  0  0  0
 18  1  1  0  0  0  0
 19 18  1  0  0  0  0
 19 20  2  0  0  0  0
 21 19  1  0  0  0  0
 22 26  2  0  0  0  0
 22 31  1  0  0  0  0
 24 29  1  0  0  0  0
 25 24  2  0  0  0  0
 25 26  1  0  0  0  0
 26 28  1  0  0  0  0
 28 27  1  0  0  0  0
 28 23  2  0  0  0  0
 29 27  2  0  0  0  0
 30 23  1  0  0  0  0
 30 21  1  0  0  0  0
 31 30  2  0  0  0  0
 32 34  2  0  0  0  0
 32 24  1  0  0  0  0
 33 32  1  0  0  0  0
M  END
>  <MODEL>
8

>  <REMARK>
 VINA RESULT:      -8.0      5.162     10.421
  Name = 
  8 active torsions:
  status: ('A' for Active; 'I' for Inactive)
    1  A    between atoms: C_1  and  N_9
    2  A    between atoms: C_2  and  C_23
    3  A    between atoms: C_2  and  C_32
    4  A    between atoms: C_3  and  C_23
    5  A    between atoms: C_7  and  C_11
    6  A    between atoms: C_8  and  N_9
    7  A    between atoms: C_8  and  N_18
    8  A    between atoms: N_18  and  C_30
                            x       y       z     vdW  Elec       q    Type
                         _______ _______ _______ _____ _____    ______ ____

>  <TORSDO>
F 8

$$$$
=
 OpenBabel11062409413D

 34 37  0  0  1  0  0  0  0  0999 V2000
  160.7480  209.8420  154.5380 C   0  0  0  0  0  0  0  0  0  0  0  0
  159.3860  212.1540  153.5870 C   0  0  0  0  0  3  0  0  0  0  0  0
  161.6550  209.8600  152.1740 C   0  0  0  0  0  3  0  0  0  0  0  0
  161.4270  210.7140  151.1440 N   0  0  0  0  0  0  0  0  0  0  0  0
  160.2470  211.4180  152.7830 C   0  0  0  0  0  0  0  0  0  0  0  0
  160.8940  210.3080  153.2330 C   0  0  0  0  0  0  0  0  0  0  0  0
  160.5850  211.6310  151.5400 O   0  0  0  0  0  0  0  0  0  0  0  0
  159.1800  211.7040  154.9050 C   0  0  0  0  0  0  0  0  0  0  0  0
  159.5760  210.0740  156.6640 O   0  0  0  0  0  1  0  0  0  0  0  0
  159.8440  210.5410  155.3810 C   0  0  0  0  0  0  0  0  0  0  0  0
  158.2640  212.4730  155.7980 C   0  0  0  0  0  2  0  0  0  0  0  0
  156.8110  212.0860  155.5430 C   0  0  2  0  0  3  0  0  0  0  0  0
  156.7530  211.0100  154.6740 F   0  0  0  0  0  0  0  0  0  0  0  0
  156.0260  213.2600  154.9690 C   0  0  0  0  0  0  0  0  0  0  0  0
  155.2790  212.8410  153.8820 F   0  0  0  0  0  0  0  0  0  0  0  0
  156.9070  214.2410  154.5550 F   0  0  0  0  0  0  0  0  0  0  0  0
  155.1820  213.7870  155.9300 F   0  0  0  0  0  0  0  0  0  0  0  0
  161.4540  208.6690  154.9630 N   0  0  0  0  0  2  0  0  0  0  0  0
  160.9390  207.3360  154.9020 C   0  0  0  0  0  0  0  0  0  0  0  0
  159.5690  207.0000  155.7350 S   0  0  0  0  0  0  0  0  0  0  0  0
  161.6280  206.3390  154.1260 N   0  0  0  0  0  2  0  0  0  0  0  0
  161.0060  204.2940  151.0720 C   0  0  0  0  0  3  0  0  0  0  0  0
  161.7060  206.9300  151.7140 C   0  0  0  0  0  3  0  0  0  0  0  0
  161.3130  205.7760  147.6880 C   0  0  0  0  0  0  0  0  0  0  0  0
  161.0920  204.8440  148.7150 C   0  0  0  0  0  3  0  0  0  0  0  0
  161.2220  205.2230  150.0530 C   0  0  0  0  0  0  0  0  0  0  0  0
  161.7980  207.4790  149.3570 C   0  0  0  0  0  3  0  0  0  0  0  0
  161.5770  206.5510  150.3760 C   0  0  0  0  0  0  0  0  0  0  0  0
  161.6660  207.0930  148.0190 C   0  0  0  0  0  3  0  0  0  0  0  0
  161.4760  206.0010  152.7410 C   0  0  0  0  0  0  0  0  0  0  0  0
  161.1370  204.6830  152.4090 C   0  0  0  0  0  3  0  0  0  0  0  0
  161.1760  205.3750  146.2780 C   0  0  0  0  0  0  0  0  0  0  0  0
  160.4520  206.1920  145.3620 N   0  0  0  0  0  1  0  0  0  0  0  0
  161.6990  204.3040  145.8670 O   0  0  0  0  0  0  0  0  0  0  0  0
  1 18  1  0  0  0  0
  1 10  1  0  0  0  0
  2  8  1  0  0  0  0
  3  6  1  0  0  0  0
  4  7  1  0  0  0  0
  4  3  2  0  0  0  0
  5  6  1  0  0  0  0
  5  2  2  0  0  0  0
  6  1  2  0  0  0  0
  7  5  1  0  0  0  0
  8 10  2  0  0  0  0
  8 11  1  0  0  0  0
 10  9  1  0  0  0  0
 12 13  1  6  0  0  0
 12 11  1  0  0  0  0
 14 12  1  0  0  0  0
 14 17  1  0  0  0  0
 15 14  1  0  0  0  0
 16 14  1  0  0  0  0
 19 18  1  0  0  0  0
 19 20  2  0  0  0  0
 21 19  1  0  0  0  0
 22 31  1  0  0  0  0
 23 30  1  0  0  0  0
 24 29  1  0  0  0  0
 24 25  2  0  0  0  0
 25 26  1  0  0  0  0
 26 28  1  0  0  0  0
 26 22  2  0  0  0  0
 27 28  1  0  0  0  0
 28 23  2  0  0  0  0
 29 27  2  0  0  0  0
 30 21  1  0  0  0  0
 31 30  2  0  0  0  0
 32 24  1  0  0  0  0
 33 32  1  0  0  0  0
 34 32  2  0  0  0  0
M  END
>  <MODEL>
9

>  <REMARK>
 VINA RESULT:      -7.9      5.030      9.562
  Name = 
  8 active torsions:
  status: ('A' for Active; 'I' for Inactive)
    1  A    between atoms: C_1  and  N_9
    2  A    between atoms: C_2  and  C_23
    3  A    between atoms: C_2  and  C_32
    4  A    between atoms: C_3  and  C_23
    5  A    between atoms: C_7  and  C_11
    6  A    between atoms: C_8  and  N_9
    7  A    between atoms: C_8  and  N_18
    8  A    between atoms: N_18  and  C_30
                            x       y       z     vdW  Elec       q    Type
                         _______ _______ _______ _____ _____    ______ ____

>  <TORSDO>
F 8

$$$$
