=
 OpenBabel11062407503D

 34 37  0  0  1  0  0  0  0  0999 V2000
  160.6770  207.9930  155.0170 C   0  0  0  0  0  0  0  0  0  0  0  0
  158.9240  209.7870  155.3850 C   0  0  0  0  0  0  0  0  0  0  0  0
  158.9960  213.9390  154.7840 O   0  0  0  0  0  0  0  0  0  0  0  0
  160.0290  209.5010  153.2120 C   0  0  0  0  0  0  0  0  0  0  0  0
  160.7860  212.1410  154.0020 O   0  0  0  0  0  1  0  0  0  0  0  0
  162.3280  206.2770  154.5970 O   0  0  0  0  0  1  0  0  0  0  0  0
  158.8390  209.5790  156.6260 O   0  0  0  0  0  0  0  0  0  0  0  0
  157.9380  210.7340  153.3820 O   0  0  0  0  0  0  0  0  0  0  0  0
  156.6630  214.4040  154.7110 C   0  0  0  0  0  2  0  0  0  0  0  0
  157.6870  213.7120  155.2030 C   0  0  0  0  0  0  0  0  0  0  0  0
  159.9050  209.0730  154.5470 C   0  0  0  0  0  0  0  0  0  0  0  0
  159.3340  214.4530  153.5020 C   0  0  0  0  0  2  0  0  0  0  0  0
  160.0160  212.0300  152.8380 C   0  0  2  0  0  3  0  0  0  0  0  0
  160.5720  207.5550  156.3330 O   0  0  0  0  0  1  0  0  0  0  0  0
  156.9920  211.3680  155.5070 C   0  0  0  0  0  2  0  0  0  0  0  0
  160.9120  208.8260  152.3360 C   0  0  0  0  0  0  0  0  0  0  0  0
  161.5590  207.3410  154.1470 C   0  0  0  0  0  0  0  0  0  0  0  0
  158.0730  210.7530  154.7430 N   0  0  0  0  0  0  0  0  0  0  0  0
  159.3040  213.3510  152.4270 C   0  0  1  0  0  3  0  0  0  0  0  0
  159.2220  210.7060  152.7760 C   0  0  1  0  0  3  0  0  0  0  0  0
  161.6670  207.7540  152.8190 C   0  0  0  0  0  3  0  0  0  0  0  0
  157.4460  212.6400  156.2060 C   0  0  0  0  0  2  0  0  0  0  0  0
  157.9430  213.2010  151.7210 C   0  0  0  0  0  3  0  0  0  0  0  0
  158.1340  212.9560  150.2350 C   0  0  0  0  0  1  0  0  0  0  0  0
  157.0930  214.4530  151.8730 C   0  0  0  0  0  1  0  0  0  0  0  0
  162.1630  210.2570  150.6970 C   0  0  0  0  0  1  0  0  0  0  0  0
  161.0910  209.1890  150.8860 C   0  0  1  0  0  3  0  0  0  0  0  0
  160.8180  205.6290  149.5670 C   0  0  0  0  0  0  0  0  0  0  0  0
  161.4200  205.7360  148.3120 C   0  0  0  0  0  3  0  0  0  0  0  0
  161.2240  207.9910  149.9760 C   0  0  0  0  0  0  0  0  0  0  0  0
  161.9160  206.9690  147.8790 C   0  0  0  0  0  3  0  0  0  0  0  0
  160.7140  206.7520  150.3930 C   0  0  0  0  0  3  0  0  0  0  0  0
  161.8140  208.0910  148.7050 C   0  0  0  0  0  3  0  0  0  0  0  0
  160.3310  204.4360  149.9850 F   0  0  0  0  0  0  0  0  0  0  0  0
  1 14  1  0  0  0  0
  2  7  2  0  0  0  0
  3 10  1  0  0  0  0
  4 11  2  0  0  0  0
  8 18  1  0  0  0  0
  9 10  2  0  0  0  0
 10 22  1  0  0  0  0
 11  1  1  0  0  0  0
 11  2  1  0  0  0  0
 12  3  1  0  0  0  0
 13  5  1  1  0  0  0
 15 22  1  0  0  0  0
 16 21  2  0  0  0  0
 16  4  1  0  0  0  0
 17  6  1  0  0  0  0
 17  1  2  0  0  0  0
 18  2  1  0  0  0  0
 18 15  1  0  0  0  0
 19 23  1  1  0  0  0
 19 13  1  0  0  0  0
 19 12  1  0  0  0  0
 20 13  1  0  0  0  0
 20  4  1  1  0  0  0
 20  8  1  0  0  0  0
 21 17  1  0  0  0  0
 23 25  1  0  0  0  0
 24 23  1  0  0  0  0
 27 26  1  1  0  0  0
 27 16  1  0  0  0  0
 28 34  1  0  0  0  0
 28 32  1  0  0  0  0
 29 28  2  0  0  0  0
 30 32  2  0  0  0  0
 30 27  1  0  0  0  0
 31 29  1  0  0  0  0
 31 33  2  0  0  0  0
 33 30  1  0  0  0  0
M  END
>  <MODEL>
1

>  <REMARK>
 VINA RESULT:      -3.9      0.000      0.000
  Name = 
  3 active torsions:
  status: ('A' for Active; 'I' for Inactive)
    1  A    between atoms: C_12  and  C_28
    2  A    between atoms: C_13  and  C_29
    3  A    between atoms: C_21  and  C_28
                            x       y       z     vdW  Elec       q    Type
                         _______ _______ _______ _____ _____    ______ ____

>  <TORSDO>
F 3

$$$$
=
 OpenBabel11062407503D

 34 37  0  0  1  0  0  0  0  0999 V2000
  161.9860  209.5830  149.9410 C   0  0  0  0  0  0  0  0  0  0  0  0
  161.2850  208.4880  152.1180 C   0  0  0  0  0  0  0  0  0  0  0  0
  161.9050  209.5700  156.1240 O   0  0  0  0  0  0  0  0  0  0  0  0
  160.7280  210.8270  151.6210 C   0  0  0  0  0  0  0  0  0  0  0  0
  162.3790  211.0140  153.9460 O   0  0  0  0  0  1  0  0  0  0  0  0
  162.5950  210.6670  147.8670 O   0  0  0  0  0  1  0  0  0  0  0  0
  161.9330  207.4280  151.9000 O   0  0  0  0  0  0  0  0  0  0  0  0
  159.5240  209.6110  153.3510 O   0  0  0  0  0  0  0  0  0  0  0  0
  160.1960  208.2970  157.1830 C   0  0  0  0  0  2  0  0  0  0  0  0
  161.1180  208.4260  156.2330 C   0  0  0  0  0  0  0  0  0  0  0  0
  161.3560  209.6390  151.1990 C   0  0  0  0  0  0  0  0  0  0  0  0
  161.4920  210.8560  156.5720 C   0  0  0  0  0  2  0  0  0  0  0  0
  161.0590  211.4580  154.0760 C   0  0  2  0  0  3  0  0  0  0  0  0
  162.6130  208.4200  149.5050 O   0  0  0  0  0  1  0  0  0  0  0  0
  160.2500  207.4520  154.1430 C   0  0  0  0  0  2  0  0  0  0  0  0
  160.7100  211.9550  150.7670 C   0  0  0  0  0  0  0  0  0  0  0  0
  161.9760  210.7090  149.1090 C   0  0  0  0  0  0  0  0  0  0  0  0
  160.4640  208.6190  153.2920 N   0  0  0  0  0  0  0  0  0  0  0  0
  160.5640  211.5370  155.5490 C   0  0  1  0  0  3  0  0  0  0  0  0
  160.1210  210.8530  153.0080 C   0  0  1  0  0  3  0  0  0  0  0  0
  161.3380  211.8790  149.5200 C   0  0  0  0  0  3  0  0  0  0  0  0
  161.3080  207.3450  155.2310 C   0  0  0  0  0  2  0  0  0  0  0  0
  159.0660  211.2610  155.7820 C   0  0  0  0  0  3  0  0  0  0  0  0
  158.2140  212.3060  155.0840 C   0  0  0  0  0  1  0  0  0  0  0  0
  158.7140  211.2970  157.2610 C   0  0  0  0  0  1  0  0  0  0  0  0
  160.9430  214.4530  150.8320 C   0  0  0  0  0  1  0  0  0  0  0  0
  160.0400  213.2570  151.1160 C   0  0  1  0  0  3  0  0  0  0  0  0
  156.2800  213.8280  150.9590 C   0  0  0  0  0  0  0  0  0  0  0  0
  156.0140  213.6420  149.6010 C   0  0  0  0  0  3  0  0  0  0  0  0
  158.6370  213.3780  150.5700 C   0  0  0  0  0  0  0  0  0  0  0  0
  157.0550  213.3350  148.7210 C   0  0  0  0  0  3  0  0  0  0  0  0
  157.5860  213.7030  151.4410 C   0  0  0  0  0  3  0  0  0  0  0  0
  158.3610  213.2090  149.2030 C   0  0  0  0  0  3  0  0  0  0  0  0
  155.2720  214.1320  151.8110 F   0  0  0  0  0  0  0  0  0  0  0  0
  1 11  1  0  0  0  0
  2 18  1  0  0  0  0
  3 10  1  0  0  0  0
  3 12  1  0  0  0  0
  6 17  1  0  0  0  0
  7  2  2  0  0  0  0
 10  9  2  0  0  0  0
 11  4  2  0  0  0  0
 11  2  1  0  0  0  0
 13  5  1  1  0  0  0
 13 19  1  0  0  0  0
 14  1  1  0  0  0  0
 15 22  1  0  0  0  0
 16 27  1  0  0  0  0
 16  4  1  0  0  0  0
 17 21  1  0  0  0  0
 17  1  2  0  0  0  0
 18  8  1  0  0  0  0
 18 15  1  0  0  0  0
 19 23  1  6  0  0  0
 19 12  1  0  0  0  0
 20  4  1  6  0  0  0
 20  8  1  0  0  0  0
 20 13  1  0  0  0  0
 21 16  2  0  0  0  0
 22 10  1  0  0  0  0
 23 25  1  0  0  0  0
 24 23  1  0  0  0  0
 27 26  1  6  0  0  0
 28 32  1  0  0  0  0
 28 34  1  0  0  0  0
 29 28  2  0  0  0  0
 30 27  1  0  0  0  0
 30 32  2  0  0  0  0
 31 33  2  0  0  0  0
 31 29  1  0  0  0  0
 33 30  1  0  0  0  0
M  END
>  <MODEL>
2

>  <REMARK>
 VINA RESULT:      -3.9      3.004      5.911
  Name = 
  3 active torsions:
  status: ('A' for Active; 'I' for Inactive)
    1  A    between atoms: C_12  and  C_28
    2  A    between atoms: C_13  and  C_29
    3  A    between atoms: C_21  and  C_28
                            x       y       z     vdW  Elec       q    Type
                         _______ _______ _______ _____ _____    ______ ____

>  <TORSDO>
F 3

$$$$
=
 OpenBabel11062407503D

 34 37  0  0  1  0  0  0  0  0999 V2000
  162.1970  207.3510  150.1940 C   0  0  0  0  0  0  0  0  0  0  0  0
  161.3020  207.2770  152.5650 C   0  0  0  0  0  0  0  0  0  0  0  0
  162.0930  209.6500  155.9330 O   0  0  0  0  0  0  0  0  0  0  0  0
  161.1800  209.3210  151.2110 C   0  0  0  0  0  0  0  0  0  0  0  0
  162.8290  210.0810  153.4180 O   0  0  0  0  0  1  0  0  0  0  0  0
  163.0000  207.4700  147.9160 O   0  0  0  0  0  1  0  0  0  0  0  0
  161.7480  206.1200  152.7950 O   0  0  0  0  0  0  0  0  0  0  0  0
  159.7690  209.0540  153.1760 O   0  0  0  0  0  0  0  0  0  0  0  0
  160.1790  209.1660  157.2600 C   0  0  0  0  0  2  0  0  0  0  0  0
  161.1110  208.7770  156.3960 C   0  0  0  0  0  0  0  0  0  0  0  0
  161.5830  207.9750  151.2970 C   0  0  0  0  0  0  0  0  0  0  0  0
  161.9180  211.0600  155.8510 C   0  0  0  0  0  2  0  0  0  0  0  0
  161.6100  210.7550  153.2840 C   0  0  2  0  0  3  0  0  0  0  0  0
  162.6050  206.0230  150.2570 O   0  0  0  0  0  1  0  0  0  0  0  0
  160.0900  207.2560  154.7500 C   0  0  0  0  0  2  0  0  0  0  0  0
  161.3690  210.0370  150.0050 C   0  0  0  0  0  0  0  0  0  0  0  0
  162.3940  208.0720  149.0100 C   0  0  0  0  0  0  0  0  0  0  0  0
  160.5140  207.9690  153.5490 N   0  0  0  0  0  0  0  0  0  0  0  0
  161.1330  211.4560  154.5880 C   0  0  1  0  0  3  0  0  0  0  0  0
  160.5820  209.9610  152.4470 C   0  0  1  0  0  3  0  0  0  0  0  0
  161.9770  209.4000  148.9200 C   0  0  0  0  0  3  0  0  0  0  0  0
  161.1060  207.3850  155.8730 C   0  0  0  0  0  2  0  0  0  0  0  0
  159.6090  211.5410  154.7980 C   0  0  0  0  0  3  0  0  0  0  0  0
  158.9740  212.4590  153.7690 C   0  0  0  0  0  1  0  0  0  0  0  0
  159.2640  212.0900  156.1740 C   0  0  0  0  0  1  0  0  0  0  0  0
  161.2740  212.3300  151.0210 C   0  0  0  0  0  1  0  0  0  0  0  0
  160.9440  211.4680  149.8070 C   0  0  1  0  0  3  0  0  0  0  0  0
  160.8170  212.7110  146.2120 C   0  0  0  0  0  0  0  0  0  0  0  0
  162.1290  213.1420  146.0060 C   0  0  0  0  0  3  0  0  0  0  0  0
  161.3790  212.0470  148.4820 C   0  0  0  0  0  0  0  0  0  0  0  0
  163.0670  213.0380  147.0360 C   0  0  0  0  0  3  0  0  0  0  0  0
  160.4420  212.1720  147.4460 C   0  0  0  0  0  3  0  0  0  0  0  0
  162.6930  212.4980  148.2690 C   0  0  0  0  0  3  0  0  0  0  0  0
  159.9050  212.8180  145.2150 F   0  0  0  0  0  0  0  0  0  0  0  0
  1 14  1  0  0  0  0
  1 11  1  0  0  0  0
  2  7  2  0  0  0  0
  2 18  1  0  0  0  0
  3 10  1  0  0  0  0
  4 11  2  0  0  0  0
  6 17  1  0  0  0  0
  8 18  1  0  0  0  0
 10  9  2  0  0  0  0
 11  2  1  0  0  0  0
 12  3  1  0  0  0  0
 13  5  1  1  0  0  0
 13 19  1  0  0  0  0
 15 22  1  0  0  0  0
 16  4  1  0  0  0  0
 17  1  2  0  0  0  0
 18 15  1  0  0  0  0
 19 23  1  1  0  0  0
 19 12  1  0  0  0  0
 20  4  1  6  0  0  0
 20  8  1  0  0  0  0
 20 13  1  0  0  0  0
 21 17  1  0  0  0  0
 21 16  2  0  0  0  0
 22 10  1  0  0  0  0
 23 25  1  0  0  0  0
 24 23  1  0  0  0  0
 27 16  1  0  0  0  0
 27 26  1  1  0  0  0
 28 32  1  0  0  0  0
 29 28  2  0  0  0  0
 29 31  1  0  0  0  0
 30 27  1  0  0  0  0
 31 33  2  0  0  0  0
 32 30  2  0  0  0  0
 33 30  1  0  0  0  0
 34 28  1  0  0  0  0
M  END
>  <MODEL>
3

>  <REMARK>
 VINA RESULT:      -2.8      3.273      5.137
  Name = 
  3 active torsions:
  status: ('A' for Active; 'I' for Inactive)
    1  A    between atoms: C_12  and  C_28
    2  A    between atoms: C_13  and  C_29
    3  A    between atoms: C_21  and  C_28
                            x       y       z     vdW  Elec       q    Type
                         _______ _______ _______ _____ _____    ______ ____

>  <TORSDO>
F 3

$$$$
=
 OpenBabel11062407503D

 34 37  0  0  1  0  0  0  0  0999 V2000
  161.1410  204.2750  151.6750 C   0  0  0  0  0  0  0  0  0  0  0  0
  160.7900  206.1730  153.3190 C   0  0  0  0  0  0  0  0  0  0  0  0
  162.8690  209.7650  153.9340 O   0  0  0  0  0  0  0  0  0  0  0  0
  160.9030  206.5760  150.9000 C   0  0  0  0  0  0  0  0  0  0  0  0
  163.1290  208.0480  151.9260 O   0  0  0  0  0  1  0  0  0  0  0  0
  161.4360  202.5010  150.0580 O   0  0  0  0  0  1  0  0  0  0  0  0
  160.9660  205.4470  154.3350 O   0  0  0  0  0  0  0  0  0  0  0  0
  159.9310  208.2400  152.3860 O   0  0  0  0  0  0  0  0  0  0  0  0
  161.2280  211.0140  155.1210 C   0  0  0  0  0  2  0  0  0  0  0  0
  161.8220  209.8560  154.8480 C   0  0  0  0  0  0  0  0  0  0  0  0
  160.9600  205.6430  151.9530 C   0  0  0  0  0  0  0  0  0  0  0  0
  163.0450  210.6650  152.8460 C   0  0  0  0  0  2  0  0  0  0  0  0
  162.1220  208.7880  151.2960 C   0  0  2  0  0  3  0  0  0  0  0  0
  161.2010  203.3370  152.7000 O   0  0  0  0  0  1  0  0  0  0  0  0
  160.1150  208.0810  154.7850 C   0  0  0  0  0  2  0  0  0  0  0  0
  161.0030  206.1320  149.5610 C   0  0  0  0  0  0  0  0  0  0  0  0
  161.2540  203.8470  150.3470 C   0  0  0  0  0  0  0  0  0  0  0  0
  160.4370  207.5600  153.4600 N   0  0  0  0  0  0  0  0  0  0  0  0
  162.1330  210.3010  151.6610 C   0  0  1  0  0  3  0  0  0  0  0  0
  160.7700  208.0420  151.2580 C   0  0  1  0  0  3  0  0  0  0  0  0
  161.1800  204.7690  149.3040 C   0  0  0  0  0  3  0  0  0  0  0  0
  161.3490  208.6070  155.5010 C   0  0  0  0  0  2  0  0  0  0  0  0
  160.7640  211.0060  151.6840 C   0  0  0  0  0  3  0  0  0  0  0  0
  160.6180  211.9350  150.4920 C   0  0  0  0  0  1  0  0  0  0  0  0
  160.5880  211.8460  152.9410 C   0  0  0  0  0  1  0  0  0  0  0  0
  161.7380  208.3210  148.5760 C   0  0  0  0  0  1  0  0  0  0  0  0
  160.9250  207.0470  148.3680 C   0  0  1  0  0  3  0  0  0  0  0  0
  162.6350  205.0080  145.6470 C   0  0  0  0  0  0  0  0  0  0  0  0
  161.6700  205.0030  144.6370 C   0  0  0  0  0  3  0  0  0  0  0  0
  161.1720  206.3460  147.0530 C   0  0  0  0  0  0  0  0  0  0  0  0
  160.4520  205.6580  144.8330 C   0  0  0  0  0  3  0  0  0  0  0  0
  162.3850  205.6710  146.8510 C   0  0  0  0  0  3  0  0  0  0  0  0
  160.2020  206.3220  146.0360 C   0  0  0  0  0  3  0  0  0  0  0  0
  163.8140  204.3670  145.4590 F   0  0  0  0  0  0  0  0  0  0  0  0
  1 11  1  0  0  0  0
  1 14  1  0  0  0  0
  2 18  1  0  0  0  0
  2  7  2  0  0  0  0
  3 10  1  0  0  0  0
  4 11  2  0  0  0  0
  6 17  1  0  0  0  0
  8 18  1  0  0  0  0
 10  9  2  0  0  0  0
 10 22  1  0  0  0  0
 11  2  1  0  0  0  0
 12  3  1  0  0  0  0
 13 19  1  0  0  0  0
 13  5  1  1  0  0  0
 15 22  1  0  0  0  0
 16  4  1  0  0  0  0
 17  1  2  0  0  0  0
 18 15  1  0  0  0  0
 19 23  1  1  0  0  0
 19 12  1  0  0  0  0
 20  4  1  1  0  0  0
 20 13  1  0  0  0  0
 20  8  1  0  0  0  0
 21 16  2  0  0  0  0
 21 17  1  0  0  0  0
 23 25  1  0  0  0  0
 24 23  1  0  0  0  0
 27 26  1  1  0  0  0
 27 16  1  0  0  0  0
 28 32  1  0  0  0  0
 29 31  1  0  0  0  0
 29 28  2  0  0  0  0
 30 27  1  0  0  0  0
 31 33  2  0  0  0  0
 32 30  2  0  0  0  0
 33 30  1  0  0  0  0
 34 28  1  0  0  0  0
M  END
>  <MODEL>
4

>  <REMARK>
 VINA RESULT:      -2.4      2.948      4.531
  Name = 
  3 active torsions:
  status: ('A' for Active; 'I' for Inactive)
    1  A    between atoms: C_12  and  C_28
    2  A    between atoms: C_13  and  C_29
    3  A    between atoms: C_21  and  C_28
                            x       y       z     vdW  Elec       q    Type
                         _______ _______ _______ _____ _____    ______ ____

>  <TORSDO>
F 3

$$$$
=
 OpenBabel11062407503D

 34 37  0  0  1  0  0  0  0  0999 V2000
  161.3270  208.9610  153.0330 C   0  0  0  0  0  0  0  0  0  0  0  0
  161.6570  206.4850  152.5990 C   0  0  0  0  0  0  0  0  0  0  0  0
  159.8720  203.8610  149.8550 O   0  0  0  0  0  0  0  0  0  0  0  0
  161.8750  208.1420  150.8010 C   0  0  0  0  0  0  0  0  0  0  0  0
  159.6930  206.5080  149.9410 O   0  0  0  0  0  1  0  0  0  0  0  0
  161.0610  211.3370  153.3970 O   0  0  0  0  0  1  0  0  0  0  0  0
  161.2930  206.1390  153.7560 O   0  0  0  0  0  0  0  0  0  0  0  0
  162.8160  205.9130  150.5460 O   0  0  0  0  0  0  0  0  0  0  0  0
  161.4700  202.0980  149.8420 C   0  0  0  0  0  2  0  0  0  0  0  0
  160.8060  203.0480  150.4930 C   0  0  0  0  0  0  0  0  0  0  0  0
  161.6040  207.8910  152.1600 C   0  0  0  0  0  0  0  0  0  0  0  0
  159.9150  204.1680  148.4660 C   0  0  0  0  0  2  0  0  0  0  0  0
  160.8340  206.5110  149.1310 C   0  0  2  0  0  3  0  0  0  0  0  0
  161.0560  208.7350  154.3790 O   0  0  0  0  0  1  0  0  0  0  0  0
  162.3310  204.1310  152.0970 C   0  0  0  0  0  2  0  0  0  0  0  0
  161.8940  209.4730  150.3220 C   0  0  0  0  0  0  0  0  0  0  0  0
  161.3340  210.2730  152.5470 C   0  0  0  0  0  0  0  0  0  0  0  0
  162.1220  205.5060  151.6530 N   0  0  0  0  0  0  0  0  0  0  0  0
  160.9240  205.2920  148.1690 C   0  0  1  0  0  3  0  0  0  0  0  0
  162.1030  206.9520  149.8930 C   0  0  1  0  0  3  0  0  0  0  0  0
  161.6210  210.5220  151.2050 C   0  0  0  0  0  3  0  0  0  0  0  0
  161.0760  203.2880  151.9360 C   0  0  0  0  0  2  0  0  0  0  0  0
  162.3410  204.7890  147.8350 C   0  0  0  0  0  3  0  0  0  0  0  0
  163.0360  205.7380  146.8760 C   0  0  0  0  0  1  0  0  0  0  0  0
  162.3080  203.4170  147.1780 C   0  0  0  0  0  1  0  0  0  0  0  0
  161.4570  208.9550  147.9050 C   0  0  0  0  0  1  0  0  0  0  0  0
  162.2020  209.8440  148.8950 C   0  0  1  0  0  3  0  0  0  0  0  0
  160.7440  213.3450  148.5760 C   0  0  0  0  0  0  0  0  0  0  0  0
  161.8510  214.0840  148.1530 C   0  0  0  0  0  3  0  0  0  0  0  0
  162.0960  211.3260  148.6220 C   0  0  0  0  0  0  0  0  0  0  0  0
  163.0840  213.4530  147.9740 C   0  0  0  0  0  3  0  0  0  0  0  0
  160.8670  211.9740  148.8150 C   0  0  0  0  0  3  0  0  0  0  0  0
  163.2070  212.0810  148.2110 C   0  0  0  0  0  3  0  0  0  0  0  0
  159.5490  213.9590  148.7570 F   0  0  0  0  0  0  0  0  0  0  0  0
  1 14  1  0  0  0  0
  2  7  2  0  0  0  0
  3 10  1  0  0  0  0
  4 11  1  0  0  0  0
  8 18  1  0  0  0  0
  9 10  2  0  0  0  0
 10 22  1  0  0  0  0
 11  2  1  0  0  0  0
 11  1  2  0  0  0  0
 12  3  1  0  0  0  0
 13 20  1  0  0  0  0
 13  5  1  1  0  0  0
 16  4  2  0  0  0  0
 16 21  1  0  0  0  0
 17  1  1  0  0  0  0
 17  6  1  0  0  0  0
 18 15  1  0  0  0  0
 18  2  1  0  0  0  0
 19 23  1  1  0  0  0
 19 12  1  0  0  0  0
 19 13  1  0  0  0  0
 20  8  1  1  0  0  0
 20  4  1  0  0  0  0
 21 17  2  0  0  0  0
 22 15  1  0  0  0  0
 24 23  1  0  0  0  0
 25 23  1  0  0  0  0
 27 26  1  6  0  0  0
 27 16  1  0  0  0  0
 28 34  1  0  0  0  0
 28 32  1  0  0  0  0
 29 28  2  0  0  0  0
 30 32  2  0  0  0  0
 30 27  1  0  0  0  0
 31 29  1  0  0  0  0
 31 33  2  0  0  0  0
 33 30  1  0  0  0  0
M  END
>  <MODEL>
5

>  <REMARK>
 VINA RESULT:      -2.0      3.693      7.631
  Name = 
  3 active torsions:
  status: ('A' for Active; 'I' for Inactive)
    1  A    between atoms: C_12  and  C_28
    2  A    between atoms: C_13  and  C_29
    3  A    between atoms: C_21  and  C_28
                            x       y       z     vdW  Elec       q    Type
                         _______ _______ _______ _____ _____    ______ ____

>  <TORSDO>
F 3

$$$$
=
 OpenBabel11062407503D

 34 37  0  0  1  0  0  0  0  0999 V2000
  160.7560  207.5460  154.9970 C   0  0  0  0  0  0  0  0  0  0  0  0
  161.4070  205.7860  153.2930 C   0  0  0  0  0  0  0  0  0  0  0  0
  160.0700  205.0410  149.3860 O   0  0  0  0  0  0  0  0  0  0  0  0
  161.4880  208.1810  152.7580 C   0  0  0  0  0  0  0  0  0  0  0  0
  159.5610  207.1520  150.9150 O   0  0  0  0  0  1  0  0  0  0  0  0
  160.1830  209.2700  156.5940 O   0  0  0  0  0  1  0  0  0  0  0  0
  161.0420  204.8190  154.0160 O   0  0  0  0  0  0  0  0  0  0  0  0
  162.7080  206.5700  151.4020 O   0  0  0  0  0  0  0  0  0  0  0  0
  161.8740  203.7290  148.5560 C   0  0  0  0  0  2  0  0  0  0  0  0
  161.0720  204.0880  149.5550 C   0  0  0  0  0  0  0  0  0  0  0  0
  161.1970  207.1840  153.7100 C   0  0  0  0  0  0  0  0  0  0  0  0
  160.1290  206.0820  148.4170 C   0  0  0  0  0  2  0  0  0  0  0  0
  160.7240  207.7030  150.3660 C   0  0  2  0  0  3  0  0  0  0  0  0
  160.4610  206.5790  155.9520 O   0  0  0  0  0  1  0  0  0  0  0  0
  162.3860  204.1920  151.6360 C   0  0  0  0  0  2  0  0  0  0  0  0
  161.3620  209.5460  153.1080 C   0  0  0  0  0  0  0  0  0  0  0  0
  160.6190  208.8990  155.3290 C   0  0  0  0  0  0  0  0  0  0  0  0
  162.0260  205.5540  152.0150 N   0  0  0  0  0  0  0  0  0  0  0  0
  161.0020  207.2540  148.9030 C   0  0  1  0  0  3  0  0  0  0  0  0
  161.8980  207.7360  151.3700 C   0  0  1  0  0  3  0  0  0  0  0  0
  160.9260  209.8850  154.3920 C   0  0  0  0  0  3  0  0  0  0  0  0
  161.2520  203.4900  150.9040 C   0  0  0  0  0  2  0  0  0  0  0  0
  162.4830  207.1420  148.4930 C   0  0  0  0  0  3  0  0  0  0  0  0
  163.0810  208.5190  148.2610 C   0  0  0  0  0  1  0  0  0  0  0  0
  162.6500  206.3490  147.2060 C   0  0  0  0  0  1  0  0  0  0  0  0
  162.4300  210.2030  150.9340 C   0  0  0  0  0  1  0  0  0  0  0  0
  161.6780  210.6810  152.1710 C   0  0  1  0  0  3  0  0  0  0  0  0
  159.4950  213.3570  150.5700 C   0  0  0  0  0  0  0  0  0  0  0  0
  158.3100  213.2410  151.2990 C   0  0  0  0  0  3  0  0  0  0  0  0
  160.4930  211.5740  151.8860 C   0  0  0  0  0  0  0  0  0  0  0  0
  158.2060  212.2870  152.3140 C   0  0  0  0  0  3  0  0  0  0  0  0
  160.5790  212.5240  150.8580 C   0  0  0  0  0  3  0  0  0  0  0  0
  159.2900  211.4550  152.6030 C   0  0  0  0  0  3  0  0  0  0  0  0
  159.5930  214.2780  149.5800 F   0  0  0  0  0  0  0  0  0  0  0  0
  1 17  1  0  0  0  0
  1 14  1  0  0  0  0
  2 11  1  0  0  0  0
  2  7  2  0  0  0  0
  3 10  1  0  0  0  0
  4 16  2  0  0  0  0
  4 11  1  0  0  0  0
  8 18  1  0  0  0  0
  9 10  2  0  0  0  0
 10 22  1  0  0  0  0
 11  1  2  0  0  0  0
 12 19  1  0  0  0  0
 12  3  1  0  0  0  0
 13  5  1  1  0  0  0
 13 20  1  0  0  0  0
 15 18  1  0  0  0  0
 16 21  1  0  0  0  0
 17  6  1  0  0  0  0
 18  2  1  0  0  0  0
 19 23  1  1  0  0  0
 19 13  1  0  0  0  0
 20  8  1  1  0  0  0
 20  4  1  0  0  0  0
 21 17  2  0  0  0  0
 22 15  1  0  0  0  0
 24 23  1  0  0  0  0
 25 23  1  0  0  0  0
 27 26  1  6  0  0  0
 27 16  1  0  0  0  0
 28 32  2  0  0  0  0
 28 29  1  0  0  0  0
 29 31  2  0  0  0  0
 30 27  1  0  0  0  0
 30 33  2  0  0  0  0
 31 33  1  0  0  0  0
 32 30  1  0  0  0  0
 34 28  1  0  0  0  0
M  END
>  <MODEL>
6

>  <REMARK>
 VINA RESULT:      -1.8      2.971      7.052
  Name = 
  3 active torsions:
  status: ('A' for Active; 'I' for Inactive)
    1  A    between atoms: C_12  and  C_28
    2  A    between atoms: C_13  and  C_29
    3  A    between atoms: C_21  and  C_28
                            x       y       z     vdW  Elec       q    Type
                         _______ _______ _______ _____ _____    ______ ____

>  <TORSDO>
F 3

$$$$
=
 OpenBabel11062407503D

 34 37  0  0  1  0  0  0  0  0999 V2000
  161.5300  210.2950  150.1070 C   0  0  0  0  0  0  0  0  0  0  0  0
  160.5010  212.2190  151.3990 C   0  0  0  0  0  0  0  0  0  0  0  0
  156.8260  212.6120  153.3840 O   0  0  0  0  0  0  0  0  0  0  0  0
  160.7500  209.9910  152.3980 C   0  0  0  0  0  0  0  0  0  0  0  0
  157.9220  210.4060  152.3910 O   0  0  0  0  0  1  0  0  0  0  0  0
  162.5370  208.4340  148.9360 O   0  0  0  0  0  1  0  0  0  0  0  0
  160.4890  212.9990  150.4070 O   0  0  0  0  0  0  0  0  0  0  0  0
  160.3940  211.9440  153.8060 O   0  0  0  0  0  0  0  0  0  0  0  0
  157.3030  214.4520  154.8140 C   0  0  0  0  0  2  0  0  0  0  0  0
  157.4490  213.8290  153.6490 C   0  0  0  0  0  0  0  0  0  0  0  0
  160.9330  210.8150  151.2710 C   0  0  0  0  0  0  0  0  0  0  0  0
  156.4720  211.6720  154.3920 C   0  0  0  0  0  2  0  0  0  0  0  0
  158.5340  210.2690  153.6420 C   0  0  2  0  0  3  0  0  0  0  0  0
  161.7190  211.0920  148.9820 O   0  0  0  0  0  1  0  0  0  0  0  0
  159.7790  214.0890  152.8920 C   0  0  0  0  0  2  0  0  0  0  0  0
  161.1910  208.6470  152.3660 C   0  0  0  0  0  0  0  0  0  0  0  0
  161.9490  208.9600  150.0790 C   0  0  0  0  0  0  0  0  0  0  0  0
  160.0690  212.6720  152.6940 N   0  0  0  0  0  0  0  0  0  0  0  0
  157.6850  210.8250  154.8210 C   0  0  1  0  0  3  0  0  0  0  0  0
  160.0460  210.5820  153.6010 C   0  0  1  0  0  3  0  0  0  0  0  0
  161.7840  208.1500  151.2020 C   0  0  0  0  0  3  0  0  0  0  0  0
  158.3230  214.4140  152.5980 C   0  0  0  0  0  2  0  0  0  0  0  0
  158.4690  211.4130  156.0090 C   0  0  0  0  0  3  0  0  0  0  0  0
  159.0330  210.3050  156.8810 C   0  0  0  0  0  1  0  0  0  0  0  0
  157.5840  212.2820  156.8900 C   0  0  0  0  0  1  0  0  0  0  0  0
  161.6030  206.3120  153.1890 C   0  0  0  0  0  1  0  0  0  0  0  0
  161.0660  207.6980  153.5280 C   0  0  1  0  0  3  0  0  0  0  0  0
  162.8310  209.9880  156.0030 C   0  0  0  0  0  0  0  0  0  0  0  0
  162.5140  209.3940  157.2270 C   0  0  0  0  0  3  0  0  0  0  0  0
  161.5710  208.2710  154.8310 C   0  0  0  0  0  0  0  0  0  0  0  0
  161.7180  208.2470  157.2600 C   0  0  0  0  0  3  0  0  0  0  0  0
  162.3570  209.4330  154.8120 C   0  0  0  0  0  3  0  0  0  0  0  0
  161.2450  207.6900  156.0680 C   0  0  0  0  0  3  0  0  0  0  0  0
  163.5970  211.1050  155.9720 F   0  0  0  0  0  0  0  0  0  0  0  0
  1 11  1  0  0  0  0
  2 18  1  0  0  0  0
  3 10  1  0  0  0  0
  3 12  1  0  0  0  0
  6 17  1  0  0  0  0
  7  2  2  0  0  0  0
 10  9  2  0  0  0  0
 11  2  1  0  0  0  0
 11  4  2  0  0  0  0
 12 19  1  0  0  0  0
 13  5  1  6  0  0  0
 13 19  1  0  0  0  0
 14  1  1  0  0  0  0
 16  4  1  0  0  0  0
 16 27  1  0  0  0  0
 17  1  2  0  0  0  0
 17 21  1  0  0  0  0
 18 15  1  0  0  0  0
 18  8  1  0  0  0  0
 19 23  1  1  0  0  0
 20  4  1  6  0  0  0
 20 13  1  0  0  0  0
 20  8  1  0  0  0  0
 21 16  2  0  0  0  0
 22 15  1  0  0  0  0
 22 10  1  0  0  0  0
 23 24  1  0  0  0  0
 23 25  1  0  0  0  0
 27 26  1  6  0  0  0
 27 30  1  0  0  0  0
 28 29  1  0  0  0  0
 29 31  2  0  0  0  0
 30 33  2  0  0  0  0
 32 30  1  0  0  0  0
 32 28  2  0  0  0  0
 33 31  1  0  0  0  0
 34 28  1  0  0  0  0
M  END
>  <MODEL>
7

>  <REMARK>
 VINA RESULT:      -1.1      2.776      5.301
  Name = 
  3 active torsions:
  status: ('A' for Active; 'I' for Inactive)
    1  A    between atoms: C_12  and  C_28
    2  A    between atoms: C_13  and  C_29
    3  A    between atoms: C_21  and  C_28
                            x       y       z     vdW  Elec       q    Type
                         _______ _______ _______ _____ _____    ______ ____

>  <TORSDO>
F 3

$$$$
