=
 OpenBabel11052422003D

 30 36  0  0  1  0  0  0  0  0999 V2000
  160.8380  204.5680  149.3700 C   0  0  0  0  0  0  0  0  0  0  0  0
  161.9650  205.5470  152.7770 C   0  0  0  0  0  3  0  0  0  0  0  0
  162.3050  209.3830  148.6880 C   0  0  0  0  0  2  0  0  0  0  0  0
  160.1280  205.2700  148.2490 C   0  0  0  0  0  2  0  0  0  0  0  0
  160.9480  203.1560  149.4320 C   0  0  0  0  0  0  0  0  0  0  0  0
  160.7520  200.9150  148.4930 C   0  0  0  0  0  3  0  0  0  0  0  0
  160.7390  204.9430  145.8040 C   0  0  1  0  0  3  0  0  0  0  0  0
  160.8310  202.2980  148.2970 C   0  0  0  0  0  0  0  0  0  0  0  0
  161.1780  202.5630  150.7080 C   0  0  0  0  0  0  0  0  0  0  0  0
  162.3580  207.2910  147.1640 C   0  0  1  0  0  3  0  0  0  0  0  0
  162.8070  207.9580  148.4700 C   0  0  0  0  0  2  0  0  0  0  0  0
  161.5080  203.3520  151.8180 C   0  0  0  0  0  3  0  0  0  0  0  0
  161.2300  202.7060  146.9040 C   0  0  0  0  0  2  0  0  0  0  0  0
  162.0050  206.9470  152.6330 C   0  0  0  0  0  3  0  0  0  0  0  0
  162.4400  205.8360  147.3200 N   0  0  1  0  0  0  0  0  0  0  0  0
  164.0470  204.2030  146.4780 C   0  0  0  0  0  1  0  0  0  0  0  0
  161.0910  201.1800  150.8680 C   0  0  0  0  0  3  0  0  0  0  0  0
  161.5560  204.7400  151.7020 C   0  0  0  0  0  0  0  0  0  0  0  0
  161.2490  209.4780  149.8020 C   0  0  0  0  0  2  0  0  0  0  0  0
  161.7460  209.0230  151.1920 C   0  0  0  0  0  2  0  0  0  0  0  0
  160.8440  200.3620  149.7690 C   0  0  0  0  0  3  0  0  0  0  0  0
  161.1630  205.3400  150.4950 C   0  0  0  0  0  0  0  0  0  0  0  0
  160.2150  203.5190  146.1040 C   0  0  0  0  0  2  0  0  0  0  0  0
  160.8520  207.2570  146.9270 C   0  0  0  0  0  2  0  0  0  0  0  0
  160.9940  205.7500  147.0770 C   0  0  2  0  0  0  0  0  0  0  0  0
  163.1140  205.3420  146.1160 C   0  0  1  0  0  3  0  0  0  0  0  0
  162.0750  205.8220  143.9110 C   0  0  0  0  0  1  0  0  0  0  0  0
  161.5920  207.5420  151.4320 C   0  0  0  0  0  0  0  0  0  0  0  0
  161.1380  206.7240  150.4070 C   0  0  0  0  0  3  0  0  0  0  0  0
  162.0780  204.8790  145.0980 C   0  0  2  0  0  3  0  0  0  0  0  0
  1  5  2  0  0  0  0
  1 22  1  0  0  0  0
  3 19  1  0  0  0  0
  4  1  1  0  0  0  0
  5  9  1  0  0  0  0
  6 21  1  0  0  0  0
  7 23  1  1  0  0  0
  7 25  1  0  0  0  0
  8  6  2  0  0  0  0
  8  5  1  0  0  0  0
  9 17  1  0  0  0  0
  9 12  2  0  0  0  0
 10 24  1  1  0  0  0
 10 15  1  0  0  0  0
 10 11  1  0  0  0  0
 11  3  1  0  0  0  0
 13  8  1  0  0  0  0
 14  2  1  0  0  0  0
 18 12  1  0  0  0  0
 18  2  2  0  0  0  0
 19 20  1  0  0  0  0
 20 28  1  0  0  0  0
 21 17  2  0  0  0  0
 22 18  1  0  0  0  0
 23 13  1  0  0  0  0
 24 25  1  0  0  0  0
 25 15  1  0  0  0  0
 25  4  1  0  0  0  0
 26 16  1  0  0  0  0
 26 15  1  0  0  0  0
 27 30  1  0  0  0  0
 28 14  2  0  0  0  0
 29 22  2  0  0  0  0
 29 28  1  0  0  0  0
 30  7  1  0  0  0  0
 30 26  1  0  0  0  0
M  END
>  <MODEL>
1

>  <REMARK>
 VINA RESULT:      -6.3      0.000      0.000
  Name = 
  0 active torsions:
  status: ('A' for Active; 'I' for Inactive)
                            x       y       z     vdW  Elec       q    Type
                         _______ _______ _______ _____ _____    ______ ____

>  <TORSDO>
F 0

$$$$
=
 OpenBabel11052422003D

 30 36  0  0  1  0  0  0  0  0999 V2000
  160.2540  211.1000  154.1870 C   0  0  0  0  0  0  0  0  0  0  0  0
  161.5290  209.7390  150.9690 C   0  0  0  0  0  3  0  0  0  0  0  0
  158.4570  214.4360  150.8050 C   0  0  0  0  0  2  0  0  0  0  0  0
  160.0430  212.4790  154.7410 C   0  0  0  0  0  2  0  0  0  0  0  0
  160.2780  209.9460  155.0100 C   0  0  0  0  0  0  0  0  0  0  0  0
  159.9370  208.7700  157.1170 C   0  0  0  0  0  3  0  0  0  0  0  0
  158.0220  213.1120  156.1470 C   0  0  1  0  0  3  0  0  0  0  0  0
  159.6820  209.8810  156.3060 C   0  0  0  0  0  0  0  0  0  0  0  0
  160.9510  208.7910  154.5150 C   0  0  0  0  0  0  0  0  0  0  0  0
  157.5410  213.5390  153.0530 C   0  0  1  0  0  3  0  0  0  0  0  0
  158.0020  213.2310  151.6230 C   0  0  0  0  0  2  0  0  0  0  0  0
  161.3720  208.7220  153.1800 C   0  0  0  0  0  3  0  0  0  0  0  0
  158.4630  210.6710  156.6980 C   0  0  0  0  0  2  0  0  0  0  0  0
  161.3370  210.8540  150.1330 C   0  0  0  0  0  3  0  0  0  0  0  0
  157.6500  212.3210  153.8610 N   0  0  1  0  0  0  0  0  0  0  0  0
  155.9600  210.7610  154.6770 C   0  0  0  0  0  1  0  0  0  0  0  0
  161.1880  207.7010  155.3520 C   0  0  0  0  0  3  0  0  0  0  0  0
  161.1930  209.8120  152.3310 C   0  0  0  0  0  0  0  0  0  0  0  0
  159.9750  214.4530  150.5610 C   0  0  0  0  0  2  0  0  0  0  0  0
  160.5090  213.2300  149.7830 C   0  0  0  0  0  2  0  0  0  0  0  0
  160.7120  207.7050  156.6600 C   0  0  0  0  0  3  0  0  0  0  0  0
  160.6890  211.0130  152.8560 C   0  0  0  0  0  0  0  0  0  0  0  0
  158.6860  212.1190  157.1300 C   0  0  0  0  0  2  0  0  0  0  0  0
  158.5430  214.2940  153.9200 C   0  0  0  0  0  2  0  0  0  0  0  0
  158.6050  213.0130  154.7360 C   0  0  2  0  0  0  0  0  0  0  0  0
  156.3850  212.2130  154.5940 C   0  0  1  0  0  3  0  0  0  0  0  0
  155.7410  214.0800  156.1010 C   0  0  0  0  0  1  0  0  0  0  0  0
  160.8540  212.0570  150.6670 C   0  0  0  0  0  0  0  0  0  0  0  0
  160.5840  212.1200  152.0260 C   0  0  0  0  0  3  0  0  0  0  0  0
  156.5480  212.8010  155.9910 C   0  0  2  0  0  3  0  0  0  0  0  0
  1  4  1  0  0  0  0
  1  5  1  0  0  0  0
  2 18  1  0  0  0  0
  3 11  1  0  0  0  0
  5  8  1  0  0  0  0
  7 23  1  1  0  0  0
  8 13  1  0  0  0  0
  8  6  2  0  0  0  0
  9  5  2  0  0  0  0
  9 17  1  0  0  0  0
 10 11  1  6  0  0  0
 10 15  1  0  0  0  0
 10 24  1  0  0  0  0
 12  9  1  0  0  0  0
 13 23  1  0  0  0  0
 14 28  1  0  0  0  0
 14  2  2  0  0  0  0
 15 26  1  0  0  0  0
 15 25  1  0  0  0  0
 17 21  2  0  0  0  0
 18 22  1  0  0  0  0
 18 12  2  0  0  0  0
 19  3  1  0  0  0  0
 20 19  1  0  0  0  0
 20 28  1  0  0  0  0
 21  6  1  0  0  0  0
 22  1  2  0  0  0  0
 24 25  1  0  0  0  0
 25  4  1  0  0  0  0
 25  7  1  0  0  0  0
 26 16  1  0  0  0  0
 26 30  1  0  0  0  0
 28 29  2  0  0  0  0
 29 22  1  0  0  0  0
 30 27  1  0  0  0  0
 30  7  1  0  0  0  0
M  END
>  <MODEL>
2

>  <REMARK>
 VINA RESULT:      -4.8      6.171      9.731
  Name = 
  0 active torsions:
  status: ('A' for Active; 'I' for Inactive)
                            x       y       z     vdW  Elec       q    Type
                         _______ _______ _______ _____ _____    ______ ____

>  <TORSDO>
F 0

$$$$
=
 OpenBabel11052422003D

 30 36  0  0  1  0  0  0  0  0999 V2000
  160.8640  210.0190  154.0230 C   0  0  0  0  0  0  0  0  0  0  0  0
  161.6690  207.9300  151.0530 C   0  0  0  0  0  3  0  0  0  0  0  0
  159.8940  213.1850  150.1720 C   0  0  0  0  0  2  0  0  0  0  0  0
  161.0260  211.4700  154.3700 C   0  0  0  0  0  2  0  0  0  0  0  0
  160.6140  209.0270  155.0050 C   0  0  0  0  0  0  0  0  0  0  0  0
  160.0360  208.2920  157.2560 C   0  0  0  0  0  3  0  0  0  0  0  0
  159.2700  212.7940  155.6440 C   0  0  1  0  0  3  0  0  0  0  0  0
  160.0530  209.3030  156.2890 C   0  0  0  0  0  0  0  0  0  0  0  0
  160.9560  207.6790  154.6910 C   0  0  0  0  0  0  0  0  0  0  0  0
  158.8360  212.8840  152.5150 C   0  0  1  0  0  3  0  0  0  0  0  0
  159.1680  212.2660  151.1510 C   0  0  0  0  0  2  0  0  0  0  0  0
  161.3120  207.3140  153.3860 C   0  0  0  0  0  3  0  0  0  0  0  0
  159.0860  210.4260  156.5480 C   0  0  0  0  0  2  0  0  0  0  0  0
  161.7470  208.9260  150.0620 C   0  0  0  0  0  3  0  0  0  0  0  0
  158.6510  211.8070  153.4920 N   0  0  1  0  0  0  0  0  0  0  0  0
  156.6390  210.8640  154.5040 C   0  0  0  0  0  1  0  0  0  0  0  0
  160.9280  206.6970  155.6800 C   0  0  0  0  0  3  0  0  0  0  0  0
  161.3960  208.2810  152.3850 C   0  0  0  0  0  0  0  0  0  0  0  0
  161.3590  212.7770  149.9480 C   0  0  0  0  0  2  0  0  0  0  0  0
  161.5440  211.3600  149.3610 C   0  0  0  0  0  2  0  0  0  0  0  0
  160.5020  207.0100  156.9680 C   0  0  0  0  0  3  0  0  0  0  0  0
  161.2290  209.6340  152.7250 C   0  0  0  0  0  0  0  0  0  0  0  0
  159.6830  211.8150  156.7680 C   0  0  0  0  0  2  0  0  0  0  0  0
  160.0190  213.4720  153.2760 C   0  0  0  0  0  2  0  0  0  0  0  0
  159.7720  212.3480  154.2700 C   0  0  2  0  0  0  0  0  0  0  0  0
  157.4190  212.1320  154.2170 C   0  0  1  0  0  3  0  0  0  0  0  0
  157.3120  214.2970  155.4300 C   0  0  0  0  0  1  0  0  0  0  0  0
  161.6000  210.2760  150.4100 C   0  0  0  0  0  0  0  0  0  0  0  0
  161.3890  210.6000  151.7420 C   0  0  0  0  0  3  0  0  0  0  0  0
  157.7620  212.8520  155.5160 C   0  0  2  0  0  3  0  0  0  0  0  0
  1  4  1  0  0  0  0
  1  5  1  0  0  0  0
  2 18  1  0  0  0  0
  3 11  1  0  0  0  0
  5  8  1  0  0  0  0
  7 23  1  1  0  0  0
  8 13  1  0  0  0  0
  8  6  2  0  0  0  0
  9  5  2  0  0  0  0
  9 17  1  0  0  0  0
 10 11  1  6  0  0  0
 10 24  1  0  0  0  0
 10 15  1  0  0  0  0
 12  9  1  0  0  0  0
 13 23  1  0  0  0  0
 14 28  1  0  0  0  0
 14  2  2  0  0  0  0
 15 26  1  0  0  0  0
 15 25  1  0  0  0  0
 17 21  2  0  0  0  0
 18 22  1  0  0  0  0
 18 12  2  0  0  0  0
 19  3  1  0  0  0  0
 20 19  1  0  0  0  0
 20 28  1  0  0  0  0
 21  6  1  0  0  0  0
 22  1  2  0  0  0  0
 24 25  1  0  0  0  0
 25  4  1  0  0  0  0
 25  7  1  0  0  0  0
 26 16  1  0  0  0  0
 26 30  1  0  0  0  0
 27 30  1  0  0  0  0
 28 29  2  0  0  0  0
 29 22  1  0  0  0  0
 30  7  1  0  0  0  0
M  END
>  <MODEL>
3

>  <REMARK>
 VINA RESULT:      -4.2      5.022      8.897
  Name = 
  0 active torsions:
  status: ('A' for Active; 'I' for Inactive)
                            x       y       z     vdW  Elec       q    Type
                         _______ _______ _______ _____ _____    ______ ____

>  <TORSDO>
F 0

$$$$
=
 OpenBabel11052422003D

 30 36  0  0  1  0  0  0  0  0999 V2000
  159.1470  211.3280  152.6500 C   0  0  0  0  0  0  0  0  0  0  0  0
  162.2520  209.4520  151.8270 C   0  0  0  0  0  3  0  0  0  0  0  0
  159.9990  208.7070  156.9170 C   0  0  0  0  0  2  0  0  0  0  0  0
  157.9070  211.0240  153.4380 C   0  0  0  0  0  2  0  0  0  0  0  0
  159.2190  212.4070  151.7330 C   0  0  0  0  0  0  0  0  0  0  0  0
  158.3770  214.4530  150.7120 C   0  0  0  0  0  3  0  0  0  0  0  0
  156.7710  212.7280  154.9430 C   0  0  1  0  0  3  0  0  0  0  0  0
  158.3610  213.5460  151.7780 C   0  0  0  0  0  0  0  0  0  0  0  0
  160.2000  212.3380  150.7010 C   0  0  0  0  0  0  0  0  0  0  0  0
  158.9710  211.0380  156.4550 C   0  0  1  0  0  3  0  0  0  0  0  0
  160.1860  210.1080  156.3400 C   0  0  0  0  0  2  0  0  0  0  0  0
  161.2010  211.3570  150.7260 C   0  0  0  0  0  3  0  0  0  0  0  0
  157.7750  214.0940  153.0510 C   0  0  0  0  0  2  0  0  0  0  0  0
  162.2420  208.4900  152.8540 C   0  0  0  0  0  3  0  0  0  0  0  0
  159.0800  212.0900  155.4420 N   0  0  1  0  0  0  0  0  0  0  0  0
  159.6930  214.4470  155.6110 C   0  0  0  0  0  1  0  0  0  0  0  0
  160.1860  213.2580  149.6540 C   0  0  0  0  0  3  0  0  0  0  0  0
  161.2140  210.3940  151.7320 C   0  0  0  0  0  0  0  0  0  0  0  0
  159.9240  207.6210  155.8320 C   0  0  0  0  0  2  0  0  0  0  0  0
  161.1870  207.5130  154.9490 C   0  0  0  0  0  2  0  0  0  0  0  0
  159.2550  214.2930  149.6420 C   0  0  0  0  0  3  0  0  0  0  0  0
  160.1540  210.3510  152.6530 C   0  0  0  0  0  0  0  0  0  0  0  0
  156.5140  213.4150  153.5810 C   0  0  0  0  0  2  0  0  0  0  0  0
  157.6720  210.5000  155.8650 C   0  0  0  0  0  2  0  0  0  0  0  0
  157.8220  211.6210  154.8490 C   0  0  2  0  0  0  0  0  0  0  0  0
  158.7920  213.3480  156.1380 C   0  0  1  0  0  3  0  0  0  0  0  0
  156.5890  213.5870  157.2610 C   0  0  0  0  0  1  0  0  0  0  0  0
  161.1710  208.4390  153.7580 C   0  0  0  0  0  0  0  0  0  0  0  0
  160.1290  209.3430  153.6060 C   0  0  0  0  0  3  0  0  0  0  0  0
  157.3270  213.7210  155.9430 C   0  0  2  0  0  3  0  0  0  0  0  0
  1 22  1  0  0  0  0
  1  4  1  0  0  0  0
  2 14  1  0  0  0  0
  4 25  1  0  0  0  0
  5  8  1  0  0  0  0
  5  1  2  0  0  0  0
  6  8  2  0  0  0  0
  7 23  1  6  0  0  0
  7 30  1  0  0  0  0
  8 13  1  0  0  0  0
  9 12  2  0  0  0  0
  9  5  1  0  0  0  0
 10 24  1  6  0  0  0
 11 10  1  0  0  0  0
 11  3  1  0  0  0  0
 12 18  1  0  0  0  0
 13 23  1  0  0  0  0
 14 28  2  0  0  0  0
 15 26  1  0  0  0  0
 15 10  1  0  0  0  0
 16 26  1  0  0  0  0
 17  9  1  0  0  0  0
 18  2  2  0  0  0  0
 18 22  1  0  0  0  0
 19  3  1  0  0  0  0
 20 19  1  0  0  0  0
 21 17  2  0  0  0  0
 21  6  1  0  0  0  0
 22 29  2  0  0  0  0
 25  7  1  0  0  0  0
 25 15  1  0  0  0  0
 25 24  1  0  0  0  0
 28 20  1  0  0  0  0
 29 28  1  0  0  0  0
 30 26  1  0  0  0  0
 30 27  1  0  0  0  0
M  END
>  <MODEL>
4

>  <REMARK>
 VINA RESULT:      -3.9      6.320     10.316
  Name = 
  0 active torsions:
  status: ('A' for Active; 'I' for Inactive)
                            x       y       z     vdW  Elec       q    Type
                         _______ _______ _______ _____ _____    ______ ____

>  <TORSDO>
F 0

$$$$
=
 OpenBabel11052422003D

 30 36  0  0  1  0  0  0  0  0999 V2000
  161.1390  209.8400  152.7960 C   0  0  0  0  0  0  0  0  0  0  0  0
  161.7340  208.9280  149.2400 C   0  0  0  0  0  3  0  0  0  0  0  0
  159.6620  214.0310  150.3360 C   0  0  0  0  0  2  0  0  0  0  0  0
  161.2730  211.1000  153.6010 C   0  0  0  0  0  2  0  0  0  0  0  0
  161.0290  208.5620  153.4000 C   0  0  0  0  0  0  0  0  0  0  0  0
  160.7080  207.0770  155.3060 C   0  0  0  0  0  3  0  0  0  0  0  0
  159.5970  211.7910  155.3820 C   0  0  1  0  0  3  0  0  0  0  0  0
  160.5870  208.3520  154.7410 C   0  0  0  0  0  0  0  0  0  0  0  0
  161.3950  207.4260  152.6210 C   0  0  0  0  0  0  0  0  0  0  0  0
  158.8540  212.8880  152.5140 C   0  0  1  0  0  3  0  0  0  0  0  0
  159.0750  212.7880  150.9990 C   0  0  0  0  0  2  0  0  0  0  0  0
  161.6360  207.5440  151.2460 C   0  0  0  0  0  3  0  0  0  0  0  0
  159.6030  209.2510  155.4410 C   0  0  0  0  0  2  0  0  0  0  0  0
  161.6730  210.2010  148.6420 C   0  0  0  0  0  3  0  0  0  0  0  0
  158.8110  211.5370  153.0780 N   0  0  1  0  0  0  0  0  0  0  0  0
  156.9510  210.1660  153.8660 C   0  0  0  0  0  1  0  0  0  0  0  0
  161.5060  206.1700  153.2170 C   0  0  0  0  0  3  0  0  0  0  0  0
  161.5800  208.7930  150.6300 C   0  0  0  0  0  0  0  0  0  0  0  0
  161.1140  213.8300  149.8720 C   0  0  0  0  0  2  0  0  0  0  0  0
  161.2990  212.7070  148.8270 C   0  0  0  0  0  2  0  0  0  0  0  0
  161.1970  206.0030  154.5640 C   0  0  0  0  0  3  0  0  0  0  0  0
  161.3900  209.9390  151.4200 C   0  0  0  0  0  0  0  0  0  0  0  0
  160.1600  210.5250  156.0710 C   0  0  0  0  0  2  0  0  0  0  0  0
  160.0800  213.2740  153.3340 C   0  0  0  0  0  2  0  0  0  0  0  0
  159.9800  211.8670  153.9030 C   0  0  2  0  0  0  0  0  0  0  0  0
  157.6440  211.5100  153.9660 C   0  0  1  0  0  3  0  0  0  0  0  0
  157.5660  213.1320  155.8450 C   0  0  0  0  0  1  0  0  0  0  0  0
  161.5040  211.3430  149.4390 C   0  0  0  0  0  0  0  0  0  0  0  0
  161.4120  211.1870  150.8140 C   0  0  0  0  0  3  0  0  0  0  0  0
  158.0830  211.7780  155.4010 C   0  0  2  0  0  3  0  0  0  0  0  0
  1  5  1  0  0  0  0
  1  4  1  0  0  0  0
  2 18  1  0  0  0  0
  3 11  1  0  0  0  0
  4 25  1  0  0  0  0
  5  8  1  0  0  0  0
  7 30  1  0  0  0  0
  7 23  1  6  0  0  0
  8  6  2  0  0  0  0
  8 13  1  0  0  0  0
  9 17  1  0  0  0  0
  9  5  2  0  0  0  0
 10 11  1  6  0  0  0
 10 15  1  0  0  0  0
 10 24  1  0  0  0  0
 12  9  1  0  0  0  0
 13 23  1  0  0  0  0
 14  2  2  0  0  0  0
 14 28  1  0  0  0  0
 15 25  1  0  0  0  0
 15 26  1  0  0  0  0
 16 26  1  0  0  0  0
 17 21  2  0  0  0  0
 18 12  2  0  0  0  0
 18 22  1  0  0  0  0
 19  3  1  0  0  0  0
 20 28  1  0  0  0  0
 20 19  1  0  0  0  0
 21  6  1  0  0  0  0
 22  1  2  0  0  0  0
 24 25  1  0  0  0  0
 25  7  1  0  0  0  0
 26 30  1  0  0  0  0
 28 29  2  0  0  0  0
 29 22  1  0  0  0  0
 30 27  1  0  0  0  0
M  END
>  <MODEL>
5

>  <REMARK>
 VINA RESULT:      -3.6      4.539      8.288
  Name = 
  0 active torsions:
  status: ('A' for Active; 'I' for Inactive)
                            x       y       z     vdW  Elec       q    Type
                         _______ _______ _______ _____ _____    ______ ____

>  <TORSDO>
F 0

$$$$
