=
 OpenBabel11062408283D

 32 36  0  0  1  0  0  0  0  0999 V2000
  161.4660  204.0240  149.7180 C   0  0  1  0  0  3  0  0  0  0  0  0
  161.6040  202.9110  147.4450 C   0  0  1  0  0  3  0  0  0  0  0  0
  160.8600  203.9990  150.9810 O   0  0  0  0  0  0  0  0  0  0  0  0
  160.9770  202.8370  148.8580 C   0  0  1  0  0  3  0  0  0  0  0  0
  161.1390  201.7380  146.5730 C   0  0  1  0  0  3  0  0  0  0  0  0
  161.3240  204.2660  146.7710 C   0  0  1  0  0  3  0  0  0  0  0  0
  161.5190  200.4200  147.2390 C   0  0  1  0  0  3  0  0  0  0  0  0
  161.3080  201.4710  149.5130 C   0  0  1  0  0  3  0  0  0  0  0  0
  159.7590  201.8020  146.3480 O   0  0  0  0  0  1  0  0  0  0  0  0
  160.5800  201.2990  150.8440 C   0  0  0  0  0  2  0  0  0  0  0  0
  161.3570  201.8880  152.0220 C   0  0  0  0  0  2  0  0  0  0  0  0
  161.8220  205.4130  147.6520 C   0  0  0  0  0  2  0  0  0  0  0  0
  160.8730  200.3150  148.6140 C   0  0  0  0  0  2  0  0  0  0  0  0
  161.1670  205.3670  149.0240 C   0  0  2  0  0  3  0  0  0  0  0  0
  161.1180  199.3460  146.4460 O   0  0  0  0  0  1  0  0  0  0  0  0
  161.7790  203.3380  151.7990 C   0  0  0  0  0  2  0  0  0  0  0  0
  161.9700  209.1090  149.3230 C   0  0  0  0  0  0  0  0  0  0  0  0
  162.3650  210.0870  148.4710 F   0  0  0  0  0  0  0  0  0  0  0  0
  161.6140  206.5950  149.8340 C   0  0  2  0  0  3  0  0  0  0  0  0
  161.3580  209.4400  150.4610 C   0  0  0  0  0  3  0  0  0  0  0  0
  160.5070  207.1130  150.7690 C   0  0  0  0  0  2  0  0  0  0  0  0
  162.1780  207.6940  148.9620 C   0  0  0  0  0  0  0  0  0  0  0  0
  162.8740  207.4050  147.9520 O   0  0  0  0  0  0  0  0  0  0  0  0
  160.9330  208.4060  151.4690 C   0  0  1  0  0  3  0  0  0  0  0  0
  161.4020  207.4380  153.4050 C   0  0  0  0  0  1  0  0  0  0  0  0
  161.9850  208.1470  152.3530 O   0  0  0  0  0  0  0  0  0  0  0  0
  162.4250  206.3050  144.2270 N   0  0  0  0  0  0  0  0  0  0  0  0
  159.8610  203.9910  144.0670 O   0  0  0  0  0  0  0  0  0  0  0  0
  160.8860  204.6720  144.3320 C   0  0  0  0  0  0  0  0  0  0  0  0
  161.9120  204.3270  145.3470 C   0  0  1  0  0  3  0  0  0  0  0  0
  161.2190  205.8740  143.6700 N   0  0  0  0  0  2  0  0  0  0  0  0
  162.8440  205.4920  145.1470 C   0  0  0  0  0  3  0  0  0  0  0  0
  1  3  1  1  0  0  0
  2  4  1  0  0  0  0
  3 16  1  0  0  0  0
  4  8  1  0  0  0  0
  4  1  1  0  0  0  0
  5  7  1  0  0  0  0
  5  2  1  0  0  0  0
  6  2  1  0  0  0  0
  6 12  1  0  0  0  0
  7 13  1  0  0  0  0
  8 10  1  0  0  0  0
  9  5  1  0  0  0  0
 10 11  1  0  0  0  0
 12 14  1  0  0  0  0
 13  8  1  0  0  0  0
 14  1  1  0  0  0  0
 14 19  1  0  0  0  0
 15  7  1  0  0  0  0
 16 11  1  0  0  0  0
 17 20  2  0  0  0  0
 18 17  1  0  0  0  0
 19 21  1  0  0  0  0
 20 24  1  0  0  0  0
 21 24  1  0  0  0  0
 22 17  1  0  0  0  0
 22 19  1  0  0  0  0
 23 22  2  0  0  0  0
 24 26  1  0  0  0  0
 26 25  1  0  0  0  0
 27 32  2  0  0  0  0
 28 29  2  0  0  0  0
 29 30  1  0  0  0  0
 30  6  1  0  0  0  0
 31 27  1  0  0  0  0
 31 29  1  0  0  0  0
 32 30  1  0  0  0  0
M  END
>  <MODEL>
1

>  <REMARK>
 VINA RESULT:      -6.4      0.000      0.000
  Name = 
  3 active torsions:
  status: ('A' for Active; 'I' for Inactive)
    1  A    between atoms: C_10  and  C_28
    2  A    between atoms: O_15  and  C_26
    3  A    between atoms: C_16  and  C_27
                            x       y       z     vdW  Elec       q    Type
                         _______ _______ _______ _____ _____    ______ ____

>  <TORSDO>
F 3

$$$$
=
 OpenBabel11062408283D

 32 36  0  0  1  0  0  0  0  0999 V2000
  161.4380  207.1010  149.5680 C   0  0  1  0  0  3  0  0  0  0  0  0
  161.4800  209.4200  150.5890 C   0  0  1  0  0  3  0  0  0  0  0  0
  161.7530  205.7490  149.7610 O   0  0  0  0  0  0  0  0  0  0  0  0
  161.7710  207.9200  150.8360 C   0  0  1  0  0  3  0  0  0  0  0  0
  161.7970  210.2560  151.8360 C   0  0  1  0  0  3  0  0  0  0  0  0
  162.2250  209.9460  149.3500 C   0  0  1  0  0  3  0  0  0  0  0  0
  160.9690  209.7540  153.0150 C   0  0  1  0  0  3  0  0  0  0  0  0
  160.9800  207.4230  152.0730 C   0  0  1  0  0  3  0  0  0  0  0  0
  163.1640  210.2080  152.1330 O   0  0  0  0  0  1  0  0  0  0  0  0
  161.3580  205.9910  152.4380 C   0  0  0  0  0  2  0  0  0  0  0  0
  160.5370  204.9500  151.6770 C   0  0  0  0  0  2  0  0  0  0  0  0
  161.8690  209.1100  148.1190 C   0  0  0  0  0  2  0  0  0  0  0  0
  161.2780  208.2890  153.2950 C   0  0  0  0  0  2  0  0  0  0  0  0
  162.2020  207.6430  148.3450 C   0  0  2  0  0  3  0  0  0  0  0  0
  161.2350  210.5180  154.1500 O   0  0  0  0  0  1  0  0  0  0  0  0
  160.5510  205.1620  150.1650 C   0  0  0  0  0  2  0  0  0  0  0  0
  162.0190  204.3720  146.3440 C   0  0  0  0  0  0  0  0  0  0  0  0
  162.6050  203.1520  146.4240 F   0  0  0  0  0  0  0  0  0  0  0  0
  161.9290  206.8620  147.0490 C   0  0  2  0  0  3  0  0  0  0  0  0
  160.8600  204.5000  145.6960 C   0  0  0  0  0  3  0  0  0  0  0  0
  160.4250  206.7170  146.7590 C   0  0  0  0  0  2  0  0  0  0  0  0
  162.6440  205.5310  147.0090 C   0  0  0  0  0  0  0  0  0  0  0  0
  163.8000  205.4190  147.4980 O   0  0  0  0  0  0  0  0  0  0  0  0
  160.1800  205.8330  145.5340 C   0  0  1  0  0  3  0  0  0  0  0  0
  161.1950  205.4440  143.6040 C   0  0  0  0  0  1  0  0  0  0  0  0
  160.6540  206.4690  144.3830 O   0  0  0  0  0  0  0  0  0  0  0  0
  160.7810  212.3210  147.3190 N   0  0  0  0  0  0  0  0  0  0  0  0
  164.1250  212.0710  148.1650 O   0  0  0  0  0  0  0  0  0  0  0  0
  162.8690  212.0240  148.0950 C   0  0  0  0  0  0  0  0  0  0  0  0
  161.9680  211.4500  149.1260 C   0  0  1  0  0  3  0  0  0  0  0  0
  162.1260  212.5420  147.0110 N   0  0  0  0  0  2  0  0  0  0  0  0
  160.6450  211.7280  148.4640 C   0  0  0  0  0  3  0  0  0  0  0  0
  1  3  1  1  0  0  0
  1  4  1  0  0  0  0
  2  4  1  0  0  0  0
  2  5  1  0  0  0  0
  3 16  1  0  0  0  0
  4  8  1  0  0  0  0
  5  9  1  0  0  0  0
  5  7  1  0  0  0  0
  6  2  1  0  0  0  0
  7 13  1  0  0  0  0
  7 15  1  0  0  0  0
  8 10  1  0  0  0  0
  8 13  1  0  0  0  0
 11 10  1  0  0  0  0
 12 14  1  0  0  0  0
 12  6  1  0  0  0  0
 14  1  1  0  0  0  0
 16 11  1  0  0  0  0
 17 18  1  0  0  0  0
 17 22  1  0  0  0  0
 19 14  1  0  0  0  0
 20 17  2  0  0  0  0
 21 19  1  0  0  0  0
 22 19  1  0  0  0  0
 22 23  2  0  0  0  0
 24 20  1  0  0  0  0
 24 21  1  0  0  0  0
 25 26  1  0  0  0  0
 26 24  1  0  0  0  0
 27 32  2  0  0  0  0
 29 28  2  0  0  0  0
 29 30  1  0  0  0  0
 30  6  1  0  0  0  0
 31 27  1  0  0  0  0
 31 29  1  0  0  0  0
 32 30  1  0  0  0  0
M  END
>  <MODEL>
2

>  <REMARK>
 VINA RESULT:      -6.1      3.386      7.129
  Name = 
  3 active torsions:
  status: ('A' for Active; 'I' for Inactive)
    1  A    between atoms: C_10  and  C_28
    2  A    between atoms: O_15  and  C_26
    3  A    between atoms: C_16  and  C_27
                            x       y       z     vdW  Elec       q    Type
                         _______ _______ _______ _____ _____    ______ ____

>  <TORSDO>
F 3

$$$$
=
 OpenBabel11062408283D

 32 36  0  0  1  0  0  0  0  0999 V2000
  161.3860  207.9930  151.6890 C   0  0  1  0  0  3  0  0  0  0  0  0
  161.9960  208.2910  149.2480 C   0  0  1  0  0  3  0  0  0  0  0  0
  160.6530  207.2350  152.6120 O   0  0  0  0  0  0  0  0  0  0  0  0
  161.2350  207.4090  150.2660 C   0  0  1  0  0  3  0  0  0  0  0  0
  161.8660  207.7290  147.8260 C   0  0  1  0  0  3  0  0  0  0  0  0
  161.5440  209.7600  149.3200 C   0  0  1  0  0  3  0  0  0  0  0  0
  162.4090  206.3030  147.7860 C   0  0  1  0  0  3  0  0  0  0  0  0
  161.7400  205.9460  150.1820 C   0  0  1  0  0  3  0  0  0  0  0  0
  160.5350  207.7650  147.3960 O   0  0  0  0  0  1  0  0  0  0  0  0
  160.9080  205.0170  151.0630 C   0  0  0  0  0  2  0  0  0  0  0  0
  161.4170  204.9560  152.5040 C   0  0  0  0  0  2  0  0  0  0  0  0
  161.7100  210.3000  150.7420 C   0  0  0  0  0  2  0  0  0  0  0  0
  161.6390  205.4150  148.7540 C   0  0  0  0  0  2  0  0  0  0  0  0
  160.9210  209.4610  151.7360 C   0  0  2  0  0  3  0  0  0  0  0  0
  162.3130  205.7880  146.4940 O   0  0  0  0  0  1  0  0  0  0  0  0
  161.5800  206.3340  153.1420 C   0  0  0  0  0  2  0  0  0  0  0  0
  159.3850  210.5760  155.0720 C   0  0  0  0  0  0  0  0  0  0  0  0
  158.1480  210.9280  155.5020 F   0  0  0  0  0  0  0  0  0  0  0  0
  161.0290  210.1020  153.1290 C   0  0  2  0  0  3  0  0  0  0  0  0
  160.2860  210.1460  155.9570 C   0  0  0  0  0  3  0  0  0  0  0  0
  161.7050  209.1700  154.1500 C   0  0  0  0  0  2  0  0  0  0  0  0
  159.7050  210.6270  153.6330 C   0  0  0  0  0  0  0  0  0  0  0  0
  158.8900  211.1600  152.8330 O   0  0  0  0  0  0  0  0  0  0  0  0
  161.6890  209.7810  155.5530 C   0  0  1  0  0  3  0  0  0  0  0  0
  163.2050  210.8180  156.7910 C   0  0  0  0  0  1  0  0  0  0  0  0
  162.5030  210.9180  155.5890 O   0  0  0  0  0  0  0  0  0  0  0  0
  162.8890  212.8520  148.6300 N   0  0  0  0  0  0  0  0  0  0  0  0
  160.3590  211.2570  146.8940 O   0  0  0  0  0  0  0  0  0  0  0  0
  161.3510  211.5790  147.6000 C   0  0  0  0  0  0  0  0  0  0  0  0
  162.2720  210.6320  148.2770 C   0  0  1  0  0  3  0  0  0  0  0  0
  161.7450  212.9150  147.8300 N   0  0  0  0  0  2  0  0  0  0  0  0
  163.2160  211.6260  148.8990 C   0  0  0  0  0  3  0  0  0  0  0  0
  1 14  1  0  0  0  0
  1  3  1  1  0  0  0
  2  6  1  0  0  0  0
  2  4  1  0  0  0  0
  3 16  1  0  0  0  0
  4  1  1  0  0  0  0
  5  2  1  0  0  0  0
  6 12  1  0  0  0  0
  7  5  1  0  0  0  0
  7 13  1  0  0  0  0
  8  4  1  0  0  0  0
  8 10  1  0  0  0  0
  9  5  1  0  0  0  0
 10 11  1  0  0  0  0
 11 16  1  0  0  0  0
 12 14  1  0  0  0  0
 13  8  1  0  0  0  0
 14 19  1  0  0  0  0
 15  7  1  0  0  0  0
 17 18  1  0  0  0  0
 17 20  2  0  0  0  0
 19 22  1  0  0  0  0
 19 21  1  0  0  0  0
 21 24  1  0  0  0  0
 22 17  1  0  0  0  0
 23 22  2  0  0  0  0
 24 26  1  0  0  0  0
 24 20  1  0  0  0  0
 26 25  1  0  0  0  0
 27 32  2  0  0  0  0
 28 29  2  0  0  0  0
 29 31  1  0  0  0  0
 29 30  1  0  0  0  0
 30 32  1  0  0  0  0
 30  6  1  0  0  0  0
 31 27  1  0  0  0  0
M  END
>  <MODEL>
3

>  <REMARK>
 VINA RESULT:      -6.0      3.844      5.874
  Name = 
  3 active torsions:
  status: ('A' for Active; 'I' for Inactive)
    1  A    between atoms: C_10  and  C_28
    2  A    between atoms: O_15  and  C_26
    3  A    between atoms: C_16  and  C_27
                            x       y       z     vdW  Elec       q    Type
                         _______ _______ _______ _____ _____    ______ ____

>  <TORSDO>
F 3

$$$$
=
 OpenBabel11062408283D

 32 36  0  0  1  0  0  0  0  0999 V2000
  160.9030  208.9680  152.0850 C   0  0  1  0  0  3  0  0  0  0  0  0
  160.2870  209.1320  154.5380 C   0  0  1  0  0  3  0  0  0  0  0  0
  161.7390  208.3530  151.1430 O   0  0  0  0  0  0  0  0  0  0  0  0
  161.1690  208.4010  153.4980 C   0  0  1  0  0  3  0  0  0  0  0  0
  160.5280  208.5820  155.9500 C   0  0  1  0  0  3  0  0  0  0  0  0
  160.4880  210.6560  154.4810 C   0  0  1  0  0  3  0  0  0  0  0  0
  160.2300  207.0860  155.9770 C   0  0  1  0  0  3  0  0  0  0  0  0
  160.9150  206.8730  153.5680 C   0  0  1  0  0  3  0  0  0  0  0  0
  161.8410  208.8340  156.3650 O   0  0  0  0  0  1  0  0  0  0  0  0
  161.8760  206.1050  152.6640 C   0  0  0  0  0  2  0  0  0  0  0  0
  161.3650  205.9780  151.2290 C   0  0  0  0  0  2  0  0  0  0  0  0
  160.2150  211.1780  153.0690 C   0  0  0  0  0  2  0  0  0  0  0  0
  161.1220  206.3490  154.9870 C   0  0  0  0  0  2  0  0  0  0  0  0
  161.1180  210.4930  152.0540 C   0  0  2  0  0  3  0  0  0  0  0  0
  160.4280  206.5780  157.2610 O   0  0  0  0  0  1  0  0  0  0  0  0
  160.9670  207.3170  150.6120 C   0  0  0  0  0  2  0  0  0  0  0  0
  160.0050  213.4010  149.8090 C   0  0  0  0  0  0  0  0  0  0  0  0
  159.1590  214.4530  149.9330 F   0  0  0  0  0  0  0  0  0  0  0  0
  160.8850  211.1230  150.6710 C   0  0  2  0  0  3  0  0  0  0  0  0
  160.9830  213.4510  148.9040 C   0  0  0  0  0  3  0  0  0  0  0  0
  162.1970  211.5660  150.0020 C   0  0  0  0  0  2  0  0  0  0  0  0
  159.8630  212.2360  150.7030 C   0  0  0  0  0  0  0  0  0  0  0  0
  158.8560  212.1490  151.4560 O   0  0  0  0  0  0  0  0  0  0  0  0
  161.9280  212.3000  148.6860 C   0  0  1  0  0  3  0  0  0  0  0  0
  160.8730  212.2330  146.7400 C   0  0  0  0  0  1  0  0  0  0  0  0
  161.3890  211.4160  147.7470 O   0  0  0  0  0  0  0  0  0  0  0  0
  158.9570  213.6050  155.3780 N   0  0  0  0  0  0  0  0  0  0  0  0
  161.4060  211.9190  157.1440 O   0  0  0  0  0  0  0  0  0  0  0  0
  160.4610  212.2820  156.3950 C   0  0  0  0  0  0  0  0  0  0  0  0
  159.6410  211.3830  155.5450 C   0  0  1  0  0  3  0  0  0  0  0  0
  160.0290  213.6210  156.2740 N   0  0  0  0  0  2  0  0  0  0  0  0
  158.7080  212.4060  154.9530 C   0  0  0  0  0  3  0  0  0  0  0  0
  1  3  1  6  0  0  0
  1  4  1  0  0  0  0
  2  5  1  0  0  0  0
  4  8  1  0  0  0  0
  4  2  1  0  0  0  0
  5  7  1  0  0  0  0
  5  9  1  0  0  0  0
  6  2  1  0  0  0  0
  6 30  1  0  0  0  0
  7 15  1  0  0  0  0
  8 13  1  0  0  0  0
 10  8  1  0  0  0  0
 11 10  1  0  0  0  0
 12  6  1  0  0  0  0
 13  7  1  0  0  0  0
 14  1  1  0  0  0  0
 14 12  1  0  0  0  0
 16  3  1  0  0  0  0
 16 11  1  0  0  0  0
 17 18  1  0  0  0  0
 17 22  1  0  0  0  0
 19 22  1  0  0  0  0
 19 14  1  0  0  0  0
 20 17  2  0  0  0  0
 21 19  1  0  0  0  0
 22 23  2  0  0  0  0
 24 20  1  0  0  0  0
 24 21  1  0  0  0  0
 25 26  1  0  0  0  0
 26 24  1  0  0  0  0
 27 31  1  0  0  0  0
 29 28  2  0  0  0  0
 30 29  1  0  0  0  0
 31 29  1  0  0  0  0
 32 27  2  0  0  0  0
 32 30  1  0  0  0  0
M  END
>  <MODEL>
4

>  <REMARK>
 VINA RESULT:      -5.7      5.920      9.107
  Name = 
  3 active torsions:
  status: ('A' for Active; 'I' for Inactive)
    1  A    between atoms: C_10  and  C_28
    2  A    between atoms: O_15  and  C_26
    3  A    between atoms: C_16  and  C_27
                            x       y       z     vdW  Elec       q    Type
                         _______ _______ _______ _____ _____    ______ ____

>  <TORSDO>
F 3

$$$$
=
 OpenBabel11062408283D

 32 36  0  0  1  0  0  0  0  0999 V2000
  160.3760  209.4080  154.1510 C   0  0  1  0  0  3  0  0  0  0  0  0
  161.6580  208.2970  152.2680 C   0  0  1  0  0  3  0  0  0  0  0  0
  159.3980  209.2380  155.1400 O   0  0  0  0  0  0  0  0  0  0  0  0
  160.6240  208.0810  153.3990 C   0  0  1  0  0  3  0  0  0  0  0  0
  161.9270  206.9910  151.5100 C   0  0  1  0  0  3  0  0  0  0  0  0
  161.2300  209.4280  151.3170 C   0  0  1  0  0  3  0  0  0  0  0  0
  162.4340  205.9280  152.4800 C   0  0  1  0  0  3  0  0  0  0  0  0
  161.1070  206.9560  154.3510 C   0  0  1  0  0  3  0  0  0  0  0  0
  160.7730  206.5510  150.8510 O   0  0  0  0  0  1  0  0  0  0  0  0
  160.0440  206.6100  155.3900 C   0  0  0  0  0  2  0  0  0  0  0  0
  160.1220  207.4960  156.6330 C   0  0  0  0  0  2  0  0  0  0  0  0
  160.9950  210.7220  152.0980 C   0  0  0  0  0  2  0  0  0  0  0  0
  161.4060  205.6760  153.5750 C   0  0  0  0  0  2  0  0  0  0  0  0
  159.9420  210.5210  153.1770 C   0  0  2  0  0  3  0  0  0  0  0  0
  162.7000  204.7410  151.7980 O   0  0  0  0  0  1  0  0  0  0  0  0
  160.1210  208.9880  156.3090 C   0  0  0  0  0  2  0  0  0  0  0  0
  157.8570  213.7110  153.6330 C   0  0  0  0  0  0  0  0  0  0  0  0
  157.0220  214.4440  152.8560 F   0  0  0  0  0  0  0  0  0  0  0  0
  159.6620  211.8690  153.8610 C   0  0  2  0  0  3  0  0  0  0  0  0
  157.7620  213.8010  154.9610 C   0  0  0  0  0  3  0  0  0  0  0  0
  159.0710  211.6970  155.2710 C   0  0  0  0  0  2  0  0  0  0  0  0
  158.8270  212.7940  153.0060 C   0  0  0  0  0  0  0  0  0  0  0  0
  158.9940  212.8230  151.7570 O   0  0  0  0  0  0  0  0  0  0  0  0
  158.6870  213.0480  155.8790 C   0  0  1  0  0  3  0  0  0  0  0  0
  160.4240  213.2230  157.2420 C   0  0  0  0  0  1  0  0  0  0  0  0
  159.8360  213.8080  156.1190 O   0  0  0  0  0  0  0  0  0  0  0  0
  162.2480  211.4460  148.7220 N   0  0  0  0  0  0  0  0  0  0  0  0
  161.2060  208.1560  148.5040 O   0  0  0  0  0  0  0  0  0  0  0  0
  161.6480  209.2850  148.8450 C   0  0  0  0  0  0  0  0  0  0  0  0
  162.2380  209.6170  150.1660 C   0  0  1  0  0  3  0  0  0  0  0  0
  161.6640  210.4090  147.9900 N   0  0  0  0  0  2  0  0  0  0  0  0
  162.5790  211.0620  149.9150 C   0  0  0  0  0  3  0  0  0  0  0  0
  1  3  1  1  0  0  0
  2  4  1  0  0  0  0
  3 16  1  0  0  0  0
  4  1  1  0  0  0  0
  4  8  1  0  0  0  0
  5  2  1  0  0  0  0
  5  7  1  0  0  0  0
  6 12  1  0  0  0  0
  6  2  1  0  0  0  0
  7 13  1  0  0  0  0
  8 10  1  0  0  0  0
  9  5  1  0  0  0  0
 10 11  1  0  0  0  0
 12 14  1  0  0  0  0
 13  8  1  0  0  0  0
 14 19  1  0  0  0  0
 14  1  1  0  0  0  0
 15  7  1  0  0  0  0
 16 11  1  0  0  0  0
 17 20  2  0  0  0  0
 18 17  1  0  0  0  0
 19 21  1  0  0  0  0
 20 24  1  0  0  0  0
 21 24  1  0  0  0  0
 22 17  1  0  0  0  0
 22 19  1  0  0  0  0
 23 22  2  0  0  0  0
 24 26  1  0  0  0  0
 26 25  1  0  0  0  0
 27 32  2  0  0  0  0
 28 29  2  0  0  0  0
 29 30  1  0  0  0  0
 30  6  1  0  0  0  0
 31 27  1  0  0  0  0
 31 29  1  0  0  0  0
 32 30  1  0  0  0  0
M  END
>  <MODEL>
5

>  <REMARK>
 VINA RESULT:      -5.5      4.947      7.109
  Name = 
  3 active torsions:
  status: ('A' for Active; 'I' for Inactive)
    1  A    between atoms: C_10  and  C_28
    2  A    between atoms: O_15  and  C_26
    3  A    between atoms: C_16  and  C_27
                            x       y       z     vdW  Elec       q    Type
                         _______ _______ _______ _____ _____    ______ ____

>  <TORSDO>
F 3

$$$$
=
 OpenBabel11062408283D

 32 36  0  0  1  0  0  0  0  0999 V2000
  161.2760  210.4230  149.9980 C   0  0  1  0  0  3  0  0  0  0  0  0
  160.4180  209.9840  152.3420 C   0  0  1  0  0  3  0  0  0  0  0  0
  162.2950  210.1590  149.0730 O   0  0  0  0  0  0  0  0  0  0  0  0
  161.5140  209.6350  151.3060 C   0  0  1  0  0  3  0  0  0  0  0  0
  160.6280  209.2090  153.6490 C   0  0  1  0  0  3  0  0  0  0  0  0
  160.3320  211.5000  152.5890 C   0  0  1  0  0  3  0  0  0  0  0  0
  160.6150  207.7100  153.3660 C   0  0  1  0  0  3  0  0  0  0  0  0
  161.5460  208.1040  151.0640 C   0  0  1  0  0  3  0  0  0  0  0  0
  161.8260  209.5880  154.2650 O   0  0  0  0  0  1  0  0  0  0  0  0
  162.7140  207.7060  150.1650 C   0  0  0  0  0  2  0  0  0  0  0  0
  162.3690  207.7870  148.6780 C   0  0  0  0  0  2  0  0  0  0  0  0
  160.0960  212.2430  151.2710 C   0  0  0  0  0  2  0  0  0  0  0  0
  161.7180  207.3480  152.3800 C   0  0  0  0  0  2  0  0  0  0  0  0
  161.2020  211.9370  150.2720 C   0  0  2  0  0  3  0  0  0  0  0  0
  160.7870  206.9950  154.5500 O   0  0  0  0  0  1  0  0  0  0  0  0
  161.7850  209.1370  148.2690 C   0  0  0  0  0  2  0  0  0  0  0  0
  162.1070  212.9510  146.6820 C   0  0  0  0  0  0  0  0  0  0  0  0
  163.2240  212.9110  145.9140 F   0  0  0  0  0  0  0  0  0  0  0  0
  160.9820  212.7850  149.0080 C   0  0  2  0  0  3  0  0  0  0  0  0
  160.9110  213.0090  146.0930 C   0  0  0  0  0  3  0  0  0  0  0  0
  159.7590  212.3220  148.1990 C   0  0  0  0  0  2  0  0  0  0  0  0
  162.2220  212.8860  148.1510 C   0  0  0  0  0  0  0  0  0  0  0  0
  163.3590  212.9670  148.6900 O   0  0  0  0  0  0  0  0  0  0  0  0
  159.6350  213.1000  146.8870 C   0  0  1  0  0  3  0  0  0  0  0  0
  157.9970  214.4400  147.5400 C   0  0  0  0  0  1  0  0  0  0  0  0
  159.3380  214.4400  147.1520 O   0  0  0  0  0  0  0  0  0  0  0  0
  158.3220  213.9590  153.9140 N   0  0  0  0  0  0  0  0  0  0  0  0
  160.7320  212.1270  155.5850 O   0  0  0  0  0  0  0  0  0  0  0  0
  159.8490  212.5740  154.8060 C   0  0  0  0  0  0  0  0  0  0  0  0
  159.2690  211.8460  153.6500 C   0  0  1  0  0  3  0  0  0  0  0  0
  159.2610  213.8510  154.9430 N   0  0  0  0  0  2  0  0  0  0  0  0
  158.2900  212.8890  153.1820 C   0  0  0  0  0  3  0  0  0  0  0  0
  1  3  1  6  0  0  0
  1 14  1  0  0  0  0
  1  4  1  0  0  0  0
  2  6  1  0  0  0  0
  2  5  1  0  0  0  0
  4  2  1  0  0  0  0
  5  9  1  0  0  0  0
  6 30  1  0  0  0  0
  7  5  1  0  0  0  0
  7 15  1  0  0  0  0
  8  4  1  0  0  0  0
  8 13  1  0  0  0  0
 10  8  1  0  0  0  0
 11 10  1  0  0  0  0
 12  6  1  0  0  0  0
 13  7  1  0  0  0  0
 14 12  1  0  0  0  0
 16 11  1  0  0  0  0
 16  3  1  0  0  0  0
 17 22  1  0  0  0  0
 18 17  1  0  0  0  0
 19 14  1  0  0  0  0
 20 17  2  0  0  0  0
 20 24  1  0  0  0  0
 21 19  1  0  0  0  0
 22 23  2  0  0  0  0
 22 19  1  0  0  0  0
 24 26  1  0  0  0  0
 24 21  1  0  0  0  0
 26 25  1  0  0  0  0
 27 31  1  0  0  0  0
 29 31  1  0  0  0  0
 29 28  2  0  0  0  0
 30 29  1  0  0  0  0
 32 30  1  0  0  0  0
 32 27  2  0  0  0  0
M  END
>  <MODEL>
6

>  <REMARK>
 VINA RESULT:      -5.4      5.974      8.894
  Name = 
  3 active torsions:
  status: ('A' for Active; 'I' for Inactive)
    1  A    between atoms: C_10  and  C_28
    2  A    between atoms: O_15  and  C_26
    3  A    between atoms: C_16  and  C_27
                            x       y       z     vdW  Elec       q    Type
                         _______ _______ _______ _____ _____    ______ ____

>  <TORSDO>
F 3

$$$$
=
 OpenBabel11062408283D

 32 36  0  0  1  0  0  0  0  0999 V2000
  161.5810  208.4240  149.1460 C   0  0  1  0  0  3  0  0  0  0  0  0
  161.2050  207.5520  151.4960 C   0  0  1  0  0  3  0  0  0  0  0  0
  162.1790  208.1740  147.9040 O   0  0  0  0  0  0  0  0  0  0  0  0
  161.8140  207.2370  150.1090 C   0  0  1  0  0  3  0  0  0  0  0  0
  161.4180  206.3850  152.4690 C   0  0  1  0  0  3  0  0  0  0  0  0
  161.7470  208.8740  152.0680 C   0  0  1  0  0  3  0  0  0  0  0  0
  160.7840  205.1200  151.9000 C   0  0  1  0  0  3  0  0  0  0  0  0
  161.2190  205.9170  149.5560 C   0  0  1  0  0  3  0  0  0  0  0  0
  162.7810  206.1890  152.7210 O   0  0  0  0  0  1  0  0  0  0  0  0
  161.9070  205.4940  148.2610 C   0  0  0  0  0  2  0  0  0  0  0  0
  161.2740  206.1270  147.0210 C   0  0  0  0  0  2  0  0  0  0  0  0
  161.4970  210.0210  151.0870 C   0  0  0  0  0  2  0  0  0  0  0  0
  161.4060  204.7750  150.5530 C   0  0  0  0  0  2  0  0  0  0  0  0
  162.1390  209.7320  149.7380 C   0  0  2  0  0  3  0  0  0  0  0  0
  160.9550  204.0560  152.7850 O   0  0  0  0  0  1  0  0  0  0  0  0
  161.1510  207.6460  147.1190 C   0  0  0  0  0  2  0  0  0  0  0  0
  161.4620  213.4700  149.1880 C   0  0  0  0  0  0  0  0  0  0  0  0
  160.8290  214.4530  149.8760 F   0  0  0  0  0  0  0  0  0  0  0  0
  161.9550  210.9540  148.8240 C   0  0  2  0  0  3  0  0  0  0  0  0
  162.3870  213.7960  148.2830 C   0  0  0  0  0  3  0  0  0  0  0  0
  163.2910  211.4690  148.2600 C   0  0  0  0  0  2  0  0  0  0  0  0
  161.1560  212.0570  149.4790 C   0  0  0  0  0  0  0  0  0  0  0  0
  160.1890  211.7730  150.2370 O   0  0  0  0  0  0  0  0  0  0  0  0
  163.0940  212.7560  147.4560 C   0  0  1  0  0  3  0  0  0  0  0  0
  162.5030  213.6290  145.5080 C   0  0  0  0  0  1  0  0  0  0  0  0
  162.3550  212.4890  146.2990 O   0  0  0  0  0  0  0  0  0  0  0  0
  159.6090  210.8370  153.9160 N   0  0  0  0  0  0  0  0  0  0  0  0
  163.0190  210.4850  154.3730 O   0  0  0  0  0  0  0  0  0  0  0  0
  161.7980  210.3630  154.0890 C   0  0  0  0  0  0  0  0  0  0  0  0
  161.1730  209.1680  153.4680 C   0  0  1  0  0  3  0  0  0  0  0  0
  160.8310  211.3580  154.3480 N   0  0  0  0  0  2  0  0  0  0  0  0
  159.7450  209.6430  153.4280 C   0  0  0  0  0  3  0  0  0  0  0  0
  1  3  1  6  0  0  0
  1 14  1  0  0  0  0
  1  4  1  0  0  0  0
  2  6  1  0  0  0  0
  2  5  1  0  0  0  0
  4  2  1  0  0  0  0
  5  9  1  0  0  0  0
  6 30  1  0  0  0  0
  7  5  1  0  0  0  0
  7 15  1  0  0  0  0
  8  4  1  0  0  0  0
  8 13  1  0  0  0  0
 10  8  1  0  0  0  0
 11 16  1  0  0  0  0
 11 10  1  0  0  0  0
 12  6  1  0  0  0  0
 13  7  1  0  0  0  0
 14 12  1  0  0  0  0
 16  3  1  0  0  0  0
 17 22  1  0  0  0  0
 17 18  1  0  0  0  0
 19 22  1  0  0  0  0
 19 14  1  0  0  0  0
 20 17  2  0  0  0  0
 21 19  1  0  0  0  0
 22 23  2  0  0  0  0
 24 21  1  0  0  0  0
 24 20  1  0  0  0  0
 25 26  1  0  0  0  0
 26 24  1  0  0  0  0
 27 31  1  0  0  0  0
 29 31  1  0  0  0  0
 29 28  2  0  0  0  0
 30 29  1  0  0  0  0
 32 30  1  0  0  0  0
 32 27  2  0  0  0  0
M  END
>  <MODEL>
7

>  <REMARK>
 VINA RESULT:      -5.3      4.299      7.300
  Name = 
  3 active torsions:
  status: ('A' for Active; 'I' for Inactive)
    1  A    between atoms: C_10  and  C_28
    2  A    between atoms: O_15  and  C_26
    3  A    between atoms: C_16  and  C_27
                            x       y       z     vdW  Elec       q    Type
                         _______ _______ _______ _____ _____    ______ ____

>  <TORSDO>
F 3

$$$$
=
 OpenBabel11062408283D

 32 36  0  0  1  0  0  0  0  0999 V2000
  161.5660  206.9490  150.3150 C   0  0  1  0  0  3  0  0  0  0  0  0
  161.4760  209.4000  150.9520 C   0  0  1  0  0  3  0  0  0  0  0  0
  161.9750  205.6680  150.7090 O   0  0  0  0  0  0  0  0  0  0  0  0
  161.8720  207.9800  151.4240 C   0  0  1  0  0  3  0  0  0  0  0  0
  161.7640  210.4430  152.0390 C   0  0  1  0  0  3  0  0  0  0  0  0
  162.1550  209.7650  149.6200 C   0  0  1  0  0  3  0  0  0  0  0  0
  160.9990  210.0870  153.3090 C   0  0  1  0  0  3  0  0  0  0  0  0
  161.1450  207.6400  152.7500 C   0  0  1  0  0  3  0  0  0  0  0  0
  163.1380  210.5290  152.2940 O   0  0  0  0  0  1  0  0  0  0  0  0
  161.6260  206.3110  153.3260 C   0  0  0  0  0  2  0  0  0  0  0  0
  160.8600  205.1120  152.7670 C   0  0  0  0  0  2  0  0  0  0  0  0
  161.8270  208.7210  148.5500 C   0  0  0  0  0  2  0  0  0  0  0  0
  161.4120  208.7080  153.8080 C   0  0  0  0  0  2  0  0  0  0  0  0
  162.2630  207.3340  148.9960 C   0  0  2  0  0  3  0  0  0  0  0  0
  161.2390  211.0390  154.3000 O   0  0  0  0  0  1  0  0  0  0  0  0
  160.8240  205.0800  151.2410 C   0  0  0  0  0  2  0  0  0  0  0  0
  160.2450  206.0950  145.9750 C   0  0  0  0  0  0  0  0  0  0  0  0
  158.9620  206.2120  145.5510 F   0  0  0  0  0  0  0  0  0  0  0  0
  162.0130  206.3390  147.8500 C   0  0  2  0  0  3  0  0  0  0  0  0
  161.2030  205.8130  145.0900 C   0  0  0  0  0  3  0  0  0  0  0  0
  162.9860  206.5440  146.6760 C   0  0  0  0  0  2  0  0  0  0  0  0
  160.5730  206.3250  147.3940 C   0  0  0  0  0  0  0  0  0  0  0  0
  159.6420  206.4580  148.2340 O   0  0  0  0  0  0  0  0  0  0  0  0
  162.6380  205.6270  145.5010 C   0  0  1  0  0  3  0  0  0  0  0  0
  161.8070  203.5870  145.2710 C   0  0  0  0  0  1  0  0  0  0  0  0
  162.8600  204.2920  145.8550 O   0  0  0  0  0  0  0  0  0  0  0  0
  161.0070  211.7370  147.0440 N   0  0  0  0  0  0  0  0  0  0  0  0
  164.0370  212.0250  148.6840 O   0  0  0  0  0  0  0  0  0  0  0  0
  162.8530  211.7980  148.3220 C   0  0  0  0  0  0  0  0  0  0  0  0
  161.7940  211.1950  149.1700 C   0  0  1  0  0  3  0  0  0  0  0  0
  162.3520  212.1160  147.0410 N   0  0  0  0  0  2  0  0  0  0  0  0
  160.6560  211.2300  148.1840 C   0  0  0  0  0  3  0  0  0  0  0  0
  1  3  1  1  0  0  0
  1  4  1  0  0  0  0
  2  4  1  0  0  0  0
  2  5  1  0  0  0  0
  3 16  1  0  0  0  0
  4  8  1  0  0  0  0
  5  9  1  0  0  0  0
  5  7  1  0  0  0  0
  6  2  1  0  0  0  0
  7 13  1  0  0  0  0
  7 15  1  0  0  0  0
  8 10  1  0  0  0  0
  8 13  1  0  0  0  0
 11 10  1  0  0  0  0
 12 14  1  0  0  0  0
 12  6  1  0  0  0  0
 14  1  1  0  0  0  0
 16 11  1  0  0  0  0
 17 22  1  0  0  0  0
 18 17  1  0  0  0  0
 19 14  1  0  0  0  0
 20 24  1  0  0  0  0
 20 17  2  0  0  0  0
 21 19  1  0  0  0  0
 22 19  1  0  0  0  0
 22 23  2  0  0  0  0
 24 26  1  0  0  0  0
 24 21  1  0  0  0  0
 25 26  1  0  0  0  0
 27 32  2  0  0  0  0
 29 28  2  0  0  0  0
 29 30  1  0  0  0  0
 30  6  1  0  0  0  0
 31 27  1  0  0  0  0
 31 29  1  0  0  0  0
 32 30  1  0  0  0  0
M  END
>  <MODEL>
8

>  <REMARK>
 VINA RESULT:      -5.2      3.168      7.103
  Name = 
  3 active torsions:
  status: ('A' for Active; 'I' for Inactive)
    1  A    between atoms: C_10  and  C_28
    2  A    between atoms: O_15  and  C_26
    3  A    between atoms: C_16  and  C_27
                            x       y       z     vdW  Elec       q    Type
                         _______ _______ _______ _____ _____    ______ ____

>  <TORSDO>
F 3

$$$$
=
 OpenBabel11062408283D

 32 36  0  0  1  0  0  0  0  0999 V2000
  161.4570  205.9940  150.5830 C   0  0  1  0  0  3  0  0  0  0  0  0
  161.6630  204.7760  148.3700 C   0  0  1  0  0  3  0  0  0  0  0  0
  160.7990  206.0400  151.8190 O   0  0  0  0  0  0  0  0  0  0  0  0
  160.9770  204.7790  149.7570 C   0  0  1  0  0  3  0  0  0  0  0  0
  161.2080  203.5740  147.5330 C   0  0  1  0  0  3  0  0  0  0  0  0
  161.4420  206.1030  147.6240 C   0  0  1  0  0  3  0  0  0  0  0  0
  161.5300  202.2800  148.2730 C   0  0  1  0  0  3  0  0  0  0  0  0
  161.2500  203.4380  150.4860 C   0  0  1  0  0  3  0  0  0  0  0  0
  159.8400  203.6560  147.2470 O   0  0  0  0  0  1  0  0  0  0  0  0
  160.4640  203.3430  151.7920 C   0  0  0  0  0  2  0  0  0  0  0  0
  161.2050  203.9690  152.9740 C   0  0  0  0  0  2  0  0  0  0  0  0
  161.9290  207.2790  148.4730 C   0  0  0  0  0  2  0  0  0  0  0  0
  160.8260  202.2520  149.6230 C   0  0  0  0  0  2  0  0  0  0  0  0
  161.2180  207.3100  149.8170 C   0  0  2  0  0  3  0  0  0  0  0  0
  161.1370  201.1790  147.5130 O   0  0  0  0  0  1  0  0  0  0  0  0
  161.6690  205.3980  152.7040 C   0  0  0  0  0  2  0  0  0  0  0  0
  161.5810  211.1160  150.1550 C   0  0  0  0  0  0  0  0  0  0  0  0
  161.6680  212.1630  149.2970 F   0  0  0  0  0  0  0  0  0  0  0  0
  161.6590  208.5650  150.5890 C   0  0  2  0  0  3  0  0  0  0  0  0
  161.1750  211.3300  151.4080 C   0  0  0  0  0  3  0  0  0  0  0  0
  160.7080  208.9020  151.7500 C   0  0  0  0  0  2  0  0  0  0  0  0
  161.8900  209.7530  149.6840 C   0  0  0  0  0  0  0  0  0  0  0  0
  162.3980  209.5900  148.5420 O   0  0  0  0  0  0  0  0  0  0  0  0
  161.0980  210.2200  152.4210 C   0  0  1  0  0  3  0  0  0  0  0  0
  162.0620  210.3290  154.4130 C   0  0  0  0  0  1  0  0  0  0  0  0
  162.3310  210.0810  153.0650 O   0  0  0  0  0  0  0  0  0  0  0  0
  161.3940  204.7090  144.4780 N   0  0  0  0  0  0  0  0  0  0  0  0
  164.0310  204.6890  146.7150 O   0  0  0  0  0  0  0  0  0  0  0  0
  162.9930  204.9230  146.0410 C   0  0  0  0  0  0  0  0  0  0  0  0
  162.0890  206.0860  146.2250 C   0  0  1  0  0  3  0  0  0  0  0  0
  162.5490  204.1050  144.9790 N   0  0  0  0  0  2  0  0  0  0  0  0
  161.1030  205.7940  145.1260 C   0  0  0  0  0  3  0  0  0  0  0  0
  1  3  1  1  0  0  0
  2  4  1  0  0  0  0
  3 16  1  0  0  0  0
  4  8  1  0  0  0  0
  4  1  1  0  0  0  0
  5  7  1  0  0  0  0
  5  2  1  0  0  0  0
  6  2  1  0  0  0  0
  6 12  1  0  0  0  0
  7 13  1  0  0  0  0
  8 10  1  0  0  0  0
  9  5  1  0  0  0  0
 10 11  1  0  0  0  0
 12 14  1  0  0  0  0
 13  8  1  0  0  0  0
 14  1  1  0  0  0  0
 14 19  1  0  0  0  0
 15  7  1  0  0  0  0
 16 11  1  0  0  0  0
 17 20  2  0  0  0  0
 18 17  1  0  0  0  0
 19 21  1  0  0  0  0
 20 24  1  0  0  0  0
 21 24  1  0  0  0  0
 22 17  1  0  0  0  0
 22 19  1  0  0  0  0
 23 22  2  0  0  0  0
 24 26  1  0  0  0  0
 26 25  1  0  0  0  0
 27 31  1  0  0  0  0
 27 32  2  0  0  0  0
 29 30  1  0  0  0  0
 29 28  2  0  0  0  0
 30  6  1  0  0  0  0
 31 29  1  0  0  0  0
 32 30  1  0  0  0  0
M  END
>  <MODEL>
9

>  <REMARK>
 VINA RESULT:      -5.1      1.682      2.341
  Name = 
  3 active torsions:
  status: ('A' for Active; 'I' for Inactive)
    1  A    between atoms: C_10  and  C_28
    2  A    between atoms: O_15  and  C_26
    3  A    between atoms: C_16  and  C_27
                            x       y       z     vdW  Elec       q    Type
                         _______ _______ _______ _____ _____    ______ ____

>  <TORSDO>
F 3

$$$$
