=
 OpenBabel11052422153D

 25 29  0  0  0  0  0  0  0  0999 V2000
  161.4120  205.1160  148.9200 C   0  0  0  0  0  0  0  0  0  0  0  0
  161.4600  206.3630  149.5450 C   0  0  0  0  0  0  0  0  0  0  0  0
  161.9420  206.0540  146.7580 C   0  0  0  0  0  3  0  0  0  0  0  0
  161.1560  203.9060  149.4330 N   0  0  0  0  0  0  0  0  0  0  0  0
  160.7260  201.2420  149.8480 C   0  0  0  0  0  3  0  0  0  0  0  0
  161.9980  207.3270  147.3560 C   0  0  0  0  0  3  0  0  0  0  0  0
  161.2410  203.0590  148.3820 C   0  0  0  0  0  0  0  0  0  0  0  0
  161.0290  201.6930  148.5530 C   0  0  0  0  0  3  0  0  0  0  0  0
  161.8090  208.7710  149.3800 N   0  0  0  0  0  0  0  0  0  0  0  0
  162.1090  209.9830  148.6340 C   0  0  0  0  0  1  0  0  0  0  0  0
  161.2180  206.5210  150.9480 N   0  0  0  0  0  0  0  0  0  0  0  0
  160.6440  202.1460  150.9240 C   0  0  0  0  0  3  0  0  0  0  0  0
  161.6440  204.9660  147.5760 C   0  0  0  0  0  0  0  0  0  0  0  0
  161.5420  203.6680  147.2070 N   0  0  0  0  0  0  0  0  0  0  0  0
  161.5620  208.8610  150.7590 N   0  0  0  0  0  2  0  0  0  0  0  0
  160.8670  203.5110  150.6980 C   0  0  0  0  0  3  0  0  0  0  0  0
  161.2630  207.6860  151.5310 C   0  0  0  0  0  0  0  0  0  0  0  0
  161.7590  207.4860  148.7440 C   0  0  0  0  0  0  0  0  0  0  0  0
  160.6460  209.1790  154.9480 C   0  0  0  0  0  0  0  0  0  0  0  0
  161.0060  207.8010  152.9780 C   0  0  0  0  0  0  0  0  0  0  0  0
  160.8890  209.0630  153.5760 C   0  0  0  0  0  3  0  0  0  0  0  0
  160.5300  210.4640  155.5440 N   0  0  0  0  0  1  0  0  0  0  0  0
  160.8750  206.6520  153.7750 C   0  0  0  0  0  3  0  0  0  0  0  0
  160.5170  208.0300  155.7340 C   0  0  0  0  0  3  0  0  0  0  0  0
  160.6310  206.7660  155.1470 C   0  0  0  0  0  3  0  0  0  0  0  0
  1  4  1  0  0  0  0
  1  2  1  0  0  0  0
  2 11  1  0  0  0  0
  3  6  2  0  0  0  0
  3 13  1  0  0  0  0
  4 16  1  0  0  0  0
  5 12  1  0  0  0  0
  6 18  1  0  0  0  0
  7  8  1  0  0  0  0
  7  4  1  0  0  0  0
  8  5  2  0  0  0  0
  9 15  1  0  0  0  0
 10  9  1  0  0  0  0
 11 17  2  0  0  0  0
 13  1  2  0  0  0  0
 14 13  1  0  0  0  0
 14  7  2  0  0  0  0
 15 17  1  0  0  0  0
 16 12  2  0  0  0  0
 17 20  1  0  0  0  0
 18  9  1  0  0  0  0
 18  2  2  0  0  0  0
 19 22  1  0  0  0  0
 19 24  1  0  0  0  0
 20 21  1  0  0  0  0
 20 23  2  0  0  0  0
 21 19  2  0  0  0  0
 23 25  1  0  0  0  0
 25 24  2  0  0  0  0
M  END
>  <MODEL>
1

>  <REMARK>
 VINA RESULT:     -10.4      0.000      0.000
  Name = 
  1 active torsions:
  status: ('A' for Active; 'I' for Inactive)
    1  A    between atoms: C_6  and  C_23
                            x       y       z     vdW  Elec       q    Type
                         _______ _______ _______ _____ _____    ______ ____

>  <TORSDO>
F 1

$$$$
=
 OpenBabel11052422153D

 25 29  0  0  0  0  0  0  0  0999 V2000
  161.3940  205.6960  149.4530 C   0  0  0  0  0  0  0  0  0  0  0  0
  161.5010  206.9960  149.9490 C   0  0  0  0  0  0  0  0  0  0  0  0
  161.7750  206.4120  147.1780 C   0  0  0  0  0  3  0  0  0  0  0  0
  161.1630  204.5450  150.0980 N   0  0  0  0  0  0  0  0  0  0  0  0
  160.7350  201.9410  150.7980 C   0  0  0  0  0  3  0  0  0  0  0  0
  161.8880  207.7360  147.6450 C   0  0  0  0  0  3  0  0  0  0  0  0
  161.1620  203.6000  149.1310 C   0  0  0  0  0  0  0  0  0  0  0  0
  160.9480  202.2610  149.4480 C   0  0  0  0  0  3  0  0  0  0  0  0
  161.8640  209.3700  149.5270 N   0  0  0  0  0  0  0  0  0  0  0  0
  162.1210  210.4990  148.6470 C   0  0  0  0  0  1  0  0  0  0  0  0
  161.3640  207.2920  151.3440 N   0  0  0  0  0  0  0  0  0  0  0  0
  160.7420  202.9460  151.7850 C   0  0  0  0  0  3  0  0  0  0  0  0
  161.5260  205.4140  148.1170 C   0  0  0  0  0  0  0  0  0  0  0  0
  161.3830  204.0880  147.8840 N   0  0  0  0  0  0  0  0  0  0  0  0
  161.7190  209.5960  150.9050 N   0  0  0  0  0  2  0  0  0  0  0  0
  160.9630  204.2790  151.4130 C   0  0  0  0  0  3  0  0  0  0  0  0
  161.4640  208.5060  151.8070 C   0  0  0  0  0  0  0  0  0  0  0  0
  161.7530  208.0310  149.0240 C   0  0  0  0  0  0  0  0  0  0  0  0
  160.7110  207.9900  155.4750 C   0  0  0  0  0  0  0  0  0  0  0  0
  161.3150  208.7640  153.2510 C   0  0  0  0  0  0  0  0  0  0  0  0
  160.8550  207.7510  154.1050 C   0  0  0  0  0  3  0  0  0  0  0  0
  160.2440  206.9560  156.3310 N   0  0  0  0  0  1  0  0  0  0  0  0
  161.6310  210.0210  153.7900 C   0  0  0  0  0  3  0  0  0  0  0  0
  161.0280  209.2450  156.0020 C   0  0  0  0  0  3  0  0  0  0  0  0
  161.4880  210.2600  155.1590 C   0  0  0  0  0  3  0  0  0  0  0  0
  1  2  1  0  0  0  0
  1  4  1  0  0  0  0
  2 11  1  0  0  0  0
  3  6  2  0  0  0  0
  3 13  1  0  0  0  0
  4 16  1  0  0  0  0
  5 12  1  0  0  0  0
  6 18  1  0  0  0  0
  7  8  1  0  0  0  0
  7  4  1  0  0  0  0
  8  5  2  0  0  0  0
  9 15  1  0  0  0  0
 10  9  1  0  0  0  0
 11 17  2  0  0  0  0
 13  1  2  0  0  0  0
 14 13  1  0  0  0  0
 14  7  2  0  0  0  0
 15 17  1  0  0  0  0
 16 12  2  0  0  0  0
 17 20  1  0  0  0  0
 18  9  1  0  0  0  0
 18  2  2  0  0  0  0
 19 24  1  0  0  0  0
 19 22  1  0  0  0  0
 20 23  2  0  0  0  0
 20 21  1  0  0  0  0
 21 19  2  0  0  0  0
 23 25  1  0  0  0  0
 25 24  2  0  0  0  0
M  END
>  <MODEL>
2

>  <REMARK>
 VINA RESULT:      -9.4      1.111      1.514
  Name = 
  1 active torsions:
  status: ('A' for Active; 'I' for Inactive)
    1  A    between atoms: C_6  and  C_23
                            x       y       z     vdW  Elec       q    Type
                         _______ _______ _______ _____ _____    ______ ____

>  <TORSDO>
F 1

$$$$
=
 OpenBabel11052422153D

 25 29  0  0  0  0  0  0  0  0999 V2000
  161.0900  208.7490  153.2040 C   0  0  0  0  0  0  0  0  0  0  0  0
  161.2780  208.0900  151.9880 C   0  0  0  0  0  0  0  0  0  0  0  0
  161.5460  210.9120  152.2320 C   0  0  0  0  0  3  0  0  0  0  0  0
  160.7730  208.2580  154.4090 N   0  0  0  0  0  0  0  0  0  0  0  0
  160.1620  207.8970  157.0460 C   0  0  0  0  0  3  0  0  0  0  0  0
  161.7430  210.2790  150.9900 C   0  0  0  0  0  3  0  0  0  0  0  0
  160.7200  209.3370  155.2210 C   0  0  0  0  0  0  0  0  0  0  0  0
  160.4110  209.1950  156.5720 C   0  0  0  0  0  3  0  0  0  0  0  0
  161.8060  208.2040  149.6100 N   0  0  0  0  0  0  0  0  0  0  0  0
  162.1510  208.9300  148.3990 C   0  0  0  0  0  1  0  0  0  0  0  0
  161.1430  206.6690  151.8630 N   0  0  0  0  0  0  0  0  0  0  0  0
  160.2230  206.7900  156.1780 C   0  0  0  0  0  3  0  0  0  0  0  0
  161.2190  210.1100  153.3230 C   0  0  0  0  0  0  0  0  0  0  0  0
  160.9900  210.5110  154.5940 N   0  0  0  0  0  0  0  0  0  0  0  0
  161.6600  206.8080  149.5530 N   0  0  0  0  0  2  0  0  0  0  0  0
  160.5380  206.9880  154.8260 C   0  0  0  0  0  3  0  0  0  0  0  0
  161.3190  206.0550  150.7280 C   0  0  0  0  0  0  0  0  0  0  0  0
  161.6110  208.8740  150.8640 C   0  0  0  0  0  0  0  0  0  0  0  0
  160.7600  202.5870  149.3320 C   0  0  0  0  0  0  0  0  0  0  0  0
  161.1700  204.5900  150.6470 C   0  0  0  0  0  0  0  0  0  0  0  0
  160.9020  203.9750  149.4160 C   0  0  0  0  0  3  0  0  0  0  0  0
  160.4880  201.9740  148.0790 N   0  0  0  0  0  1  0  0  0  0  0  0
  161.2940  203.7930  151.7970 C   0  0  0  0  0  3  0  0  0  0  0  0
  160.8850  201.8020  150.4820 C   0  0  0  0  0  3  0  0  0  0  0  0
  161.1520  202.4050  151.7140 C   0  0  0  0  0  3  0  0  0  0  0  0
  1 13  1  0  0  0  0
  1  4  1  0  0  0  0
  2  1  2  0  0  0  0
  3 13  2  0  0  0  0
  4 16  1  0  0  0  0
  4  7  1  0  0  0  0
  6  3  1  0  0  0  0
  7  8  1  0  0  0  0
  8  5  2  0  0  0  0
  9 18  1  0  0  0  0
 10  9  1  0  0  0  0
 11  2  1  0  0  0  0
 12  5  1  0  0  0  0
 13 14  1  0  0  0  0
 14  7  2  0  0  0  0
 15  9  1  0  0  0  0
 15 17  1  0  0  0  0
 16 12  2  0  0  0  0
 17 11  2  0  0  0  0
 18  6  2  0  0  0  0
 18  2  1  0  0  0  0
 19 21  2  0  0  0  0
 19 24  1  0  0  0  0
 20 17  1  0  0  0  0
 20 23  2  0  0  0  0
 21 20  1  0  0  0  0
 22 19  1  0  0  0  0
 24 25  2  0  0  0  0
 25 23  1  0  0  0  0
M  END
>  <MODEL>
3

>  <REMARK>
 VINA RESULT:      -9.3      1.437      6.613
  Name = 
  1 active torsions:
  status: ('A' for Active; 'I' for Inactive)
    1  A    between atoms: C_6  and  C_23
                            x       y       z     vdW  Elec       q    Type
                         _______ _______ _______ _____ _____    ______ ____

>  <TORSDO>
F 1

$$$$
=
 OpenBabel11052422153D

 25 29  0  0  0  0  0  0  0  0999 V2000
  161.5490  207.5620  151.1300 C   0  0  0  0  0  0  0  0  0  0  0  0
  161.3730  206.2200  150.7940 C   0  0  0  0  0  0  0  0  0  0  0  0
  161.3960  207.1060  153.4970 C   0  0  0  0  0  3  0  0  0  0  0  0
  161.7290  208.6310  150.3430 N   0  0  0  0  0  0  0  0  0  0  0  0
  162.1190  211.1320  149.3200 C   0  0  0  0  0  3  0  0  0  0  0  0
  161.2160  205.7430  153.1920 C   0  0  0  0  0  3  0  0  0  0  0  0
  161.8440  209.6740  151.1940 C   0  0  0  0  0  0  0  0  0  0  0  0
  162.0440  210.9650  150.7120 C   0  0  0  0  0  3  0  0  0  0  0  0
  161.0220  203.9150  151.5090 N   0  0  0  0  0  0  0  0  0  0  0  0
  160.8400  202.8940  152.5280 C   0  0  0  0  0  1  0  0  0  0  0  0
  161.3620  205.7710  149.4320 N   0  0  0  0  0  0  0  0  0  0  0  0
  161.9970  210.0270  148.4560 C   0  0  0  0  0  3  0  0  0  0  0  0
  161.5600  207.9910  152.4340 C   0  0  0  0  0  0  0  0  0  0  0  0
  161.7460  209.3290  152.5040 N   0  0  0  0  0  0  0  0  0  0  0  0
  161.0200  203.5380  150.1560 N   0  0  0  0  0  2  0  0  0  0  0  0
  161.7970  208.7480  148.9930 C   0  0  0  0  0  3  0  0  0  0  0  0
  161.1970  204.5170  149.1190 C   0  0  0  0  0  0  0  0  0  0  0  0
  161.2040  205.2970  151.8470 C   0  0  0  0  0  0  0  0  0  0  0  0
  161.2940  204.6720  145.3430 C   0  0  0  0  0  0  0  0  0  0  0  0
  161.1920  204.1020  147.7040 C   0  0  0  0  0  0  0  0  0  0  0  0
  161.2990  205.0600  146.6860 C   0  0  0  0  0  3  0  0  0  0  0  0
  161.4030  205.6530  144.3200 N   0  0  0  0  0  1  0  0  0  0  0  0
  161.0810  202.7460  147.3570 C   0  0  0  0  0  3  0  0  0  0  0  0
  161.1830  203.3200  145.0070 C   0  0  0  0  0  3  0  0  0  0  0  0
  161.0770  202.3570  146.0150 C   0  0  0  0  0  3  0  0  0  0  0  0
  1 13  1  0  0  0  0
  2  1  2  0  0  0  0
  2 18  1  0  0  0  0
  4  1  1  0  0  0  0
  4  7  1  0  0  0  0
  5  8  2  0  0  0  0
  6  3  1  0  0  0  0
  7 14  2  0  0  0  0
  8  7  1  0  0  0  0
  9 18  1  0  0  0  0
  9 10  1  0  0  0  0
 11  2  1  0  0  0  0
 12 16  2  0  0  0  0
 12  5  1  0  0  0  0
 13 14  1  0  0  0  0
 13  3  2  0  0  0  0
 15  9  1  0  0  0  0
 16  4  1  0  0  0  0
 17 11  2  0  0  0  0
 17 15  1  0  0  0  0
 18  6  2  0  0  0  0
 19 21  1  0  0  0  0
 20 17  1  0  0  0  0
 21 20  2  0  0  0  0
 22 19  1  0  0  0  0
 23 20  1  0  0  0  0
 24 19  2  0  0  0  0
 24 25  1  0  0  0  0
 25 23  2  0  0  0  0
M  END
>  <MODEL>
4

>  <REMARK>
 VINA RESULT:      -9.2      1.755      7.433
  Name = 
  1 active torsions:
  status: ('A' for Active; 'I' for Inactive)
    1  A    between atoms: C_6  and  C_23
                            x       y       z     vdW  Elec       q    Type
                         _______ _______ _______ _____ _____    ______ ____

>  <TORSDO>
F 1

$$$$
=
 OpenBabel11052422153D

 25 29  0  0  0  0  0  0  0  0999 V2000
  161.5350  206.5660  149.6070 C   0  0  0  0  0  0  0  0  0  0  0  0
  161.6280  207.9000  150.0070 C   0  0  0  0  0  0  0  0  0  0  0  0
  161.2960  205.7840  151.8790 C   0  0  0  0  0  3  0  0  0  0  0  0
  161.5750  206.0300  148.3800 N   0  0  0  0  0  0  0  0  0  0  0  0
  161.5810  204.3670  146.2150 C   0  0  0  0  0  3  0  0  0  0  0  0
  161.3870  207.1190  152.3170 C   0  0  0  0  0  3  0  0  0  0  0  0
  161.4380  204.7000  148.5780 C   0  0  0  0  0  0  0  0  0  0  0  0
  161.4360  203.8190  147.4990 C   0  0  0  0  0  3  0  0  0  0  0  0
  161.6470  209.5450  151.8060 N   0  0  0  0  0  0  0  0  0  0  0  0
  161.5800  209.9240  153.2090 C   0  0  0  0  0  1  0  0  0  0  0  0
  161.7950  208.9670  149.0650 N   0  0  0  0  0  0  0  0  0  0  0  0
  161.7220  205.7570  146.0370 C   0  0  0  0  0  3  0  0  0  0  0  0
  161.3750  205.5450  150.5090 C   0  0  0  0  0  0  0  0  0  0  0  0
  161.3100  204.3480  149.8820 N   0  0  0  0  0  0  0  0  0  0  0  0
  161.8110  210.5460  150.8350 N   0  0  0  0  0  2  0  0  0  0  0  0
  161.7170  206.6000  147.1570 C   0  0  0  0  0  3  0  0  0  0  0  0
  161.8820  210.2120  149.4380 C   0  0  0  0  0  0  0  0  0  0  0  0
  161.5520  208.1760  151.3880 C   0  0  0  0  0  0  0  0  0  0  0  0
  161.1280  212.6880  146.6840 C   0  0  0  0  0  0  0  0  0  0  0  0
  162.0540  211.2770  148.4340 C   0  0  0  0  0  0  0  0  0  0  0  0
  160.9710  211.6780  147.6380 C   0  0  0  0  0  3  0  0  0  0  0  0
  160.0240  213.0860  145.8820 N   0  0  0  0  0  1  0  0  0  0  0  0
  163.2980  211.9040  148.2610 C   0  0  0  0  0  3  0  0  0  0  0  0
  162.3710  213.3050  146.5180 C   0  0  0  0  0  3  0  0  0  0  0  0
  163.4560  212.9130  147.3070 C   0  0  0  0  0  3  0  0  0  0  0  0
  1  2  2  0  0  0  0
  1 13  1  0  0  0  0
  2 18  1  0  0  0  0
  3  6  1  0  0  0  0
  4  7  1  0  0  0  0
  4  1  1  0  0  0  0
  5  8  2  0  0  0  0
  7 14  2  0  0  0  0
  8  7  1  0  0  0  0
  9 10  1  0  0  0  0
 11 17  2  0  0  0  0
 11  2  1  0  0  0  0
 12  5  1  0  0  0  0
 12 16  2  0  0  0  0
 13  3  2  0  0  0  0
 14 13  1  0  0  0  0
 15  9  1  0  0  0  0
 16  4  1  0  0  0  0
 17 15  1  0  0  0  0
 18  9  1  0  0  0  0
 18  6  2  0  0  0  0
 19 21  1  0  0  0  0
 20 17  1  0  0  0  0
 21 20  2  0  0  0  0
 22 19  1  0  0  0  0
 23 20  1  0  0  0  0
 24 19  2  0  0  0  0
 24 25  1  0  0  0  0
 25 23  2  0  0  0  0
M  END
>  <MODEL>
5

>  <REMARK>
 VINA RESULT:      -8.7      2.121      5.572
  Name = 
  1 active torsions:
  status: ('A' for Active; 'I' for Inactive)
    1  A    between atoms: C_6  and  C_23
                            x       y       z     vdW  Elec       q    Type
                         _______ _______ _______ _____ _____    ______ ____

>  <TORSDO>
F 1

$$$$
=
 OpenBabel11052422153D

 25 29  0  0  0  0  0  0  0  0999 V2000
  161.0990  203.7920  147.9670 C   0  0  0  0  0  0  0  0  0  0  0  0
  161.0940  204.2530  149.2840 C   0  0  0  0  0  0  0  0  0  0  0  0
  160.8530  201.4900  148.6540 C   0  0  0  0  0  3  0  0  0  0  0  0
  161.2060  204.4710  146.8170 N   0  0  0  0  0  0  0  0  0  0  0  0
  161.3770  205.2460  144.2050 C   0  0  0  0  0  3  0  0  0  0  0  0
  160.8450  201.9210  149.9940 C   0  0  0  0  0  3  0  0  0  0  0  0
  161.1510  203.5270  145.8510 C   0  0  0  0  0  0  0  0  0  0  0  0
  161.2340  203.8820  144.5070 C   0  0  0  0  0  3  0  0  0  0  0  0
  160.9590  203.7640  151.6690 N   0  0  0  0  0  0  0  0  0  0  0  0
  160.8310  202.8510  152.7930 C   0  0  0  0  0  1  0  0  0  0  0  0
  161.2150  205.6450  149.6030 N   0  0  0  0  0  0  0  0  0  0  0  0
  161.4310  206.2080  145.2310 C   0  0  0  0  0  3  0  0  0  0  0  0
  160.9830  202.4590  147.6620 C   0  0  0  0  0  0  0  0  0  0  0  0
  161.0130  202.2620  146.3240 N   0  0  0  0  0  0  0  0  0  0  0  0
  161.0820  205.1410  151.9170 N   0  0  0  0  0  2  0  0  0  0  0  0
  161.3420  205.7980  146.5690 C   0  0  0  0  0  3  0  0  0  0  0  0
  161.2110  206.0760  150.8330 C   0  0  0  0  0  0  0  0  0  0  0  0
  160.9650  203.2970  150.3120 C   0  0  0  0  0  0  0  0  0  0  0  0
  160.9620  209.4150  152.5850 C   0  0  0  0  0  0  0  0  0  0  0  0
  161.3390  207.5180  151.1140 C   0  0  0  0  0  0  0  0  0  0  0  0
  160.8440  208.0490  152.3130 C   0  0  0  0  0  3  0  0  0  0  0  0
  160.4560  209.9440  153.8040 N   0  0  0  0  0  1  0  0  0  0  0  0
  161.9560  208.3750  150.1890 C   0  0  0  0  0  3  0  0  0  0  0  0
  161.5780  210.2620  151.6590 C   0  0  0  0  0  3  0  0  0  0  0  0
  162.0750  209.7410  150.4600 C   0  0  0  0  0  3  0  0  0  0  0  0
  1  2  1  0  0  0  0
  2 11  1  0  0  0  0
  2 18  2  0  0  0  0
  3  6  2  0  0  0  0
  4  1  1  0  0  0  0
  5  8  2  0  0  0  0
  5 12  1  0  0  0  0
  6 18  1  0  0  0  0
  7 14  2  0  0  0  0
  7  4  1  0  0  0  0
  8  7  1  0  0  0  0
  9 15  1  0  0  0  0
  9 10  1  0  0  0  0
 11 17  2  0  0  0  0
 12 16  2  0  0  0  0
 13  1  2  0  0  0  0
 13  3  1  0  0  0  0
 14 13  1  0  0  0  0
 16  4  1  0  0  0  0
 17 20  1  0  0  0  0
 17 15  1  0  0  0  0
 18  9  1  0  0  0  0
 19 22  1  0  0  0  0
 20 21  2  0  0  0  0
 21 19  1  0  0  0  0
 23 25  2  0  0  0  0
 23 20  1  0  0  0  0
 24 19  2  0  0  0  0
 25 24  1  0  0  0  0
M  END
>  <MODEL>
6

>  <REMARK>
 VINA RESULT:      -8.5      1.812      4.318
  Name = 
  1 active torsions:
  status: ('A' for Active; 'I' for Inactive)
    1  A    between atoms: C_6  and  C_23
                            x       y       z     vdW  Elec       q    Type
                         _______ _______ _______ _____ _____    ______ ____

>  <TORSDO>
F 1

$$$$
=
 OpenBabel11052422153D

 25 29  0  0  0  0  0  0  0  0999 V2000
  161.2670  206.0400  150.9040 C   0  0  0  0  0  0  0  0  0  0  0  0
  161.2960  207.3270  151.4430 C   0  0  0  0  0  0  0  0  0  0  0  0
  161.1260  205.0100  153.0840 C   0  0  0  0  0  3  0  0  0  0  0  0
  161.3080  205.6400  149.6270 N   0  0  0  0  0  0  0  0  0  0  0  0
  161.3530  204.2170  147.2960 C   0  0  0  0  0  3  0  0  0  0  0  0
  161.1540  206.2940  153.6600 C   0  0  0  0  0  3  0  0  0  0  0  0
  161.2490  204.2900  149.6830 C   0  0  0  0  0  0  0  0  0  0  0  0
  161.2690  203.5290  148.5170 C   0  0  0  0  0  3  0  0  0  0  0  0
  161.2690  208.7710  153.4070 N   0  0  0  0  0  0  0  0  0  0  0  0
  161.2140  208.9950  154.8430 C   0  0  0  0  0  1  0  0  0  0  0  0
  161.3820  208.4950  150.6170 N   0  0  0  0  0  0  0  0  0  0  0  0
  161.4130  205.6240  147.2660 C   0  0  0  0  0  3  0  0  0  0  0  0
  161.1850  204.9210  151.6950 C   0  0  0  0  0  0  0  0  0  0  0  0
  161.1720  203.7950  150.9450 N   0  0  0  0  0  0  0  0  0  0  0  0
  161.3540  209.8770  152.5450 N   0  0  0  0  0  2  0  0  0  0  0  0
  161.3890  206.3430  148.4690 C   0  0  0  0  0  3  0  0  0  0  0  0
  161.4100  209.6970  151.1200 C   0  0  0  0  0  0  0  0  0  0  0  0
  161.2390  207.4510  152.8460 C   0  0  0  0  0  0  0  0  0  0  0  0
  160.9680  213.1950  149.7580 C   0  0  0  0  0  0  0  0  0  0  0  0
  161.4990  210.8700  150.2320 C   0  0  0  0  0  0  0  0  0  0  0  0
  160.8870  212.0790  150.5960 C   0  0  0  0  0  3  0  0  0  0  0  0
  160.3440  214.4140  150.1360 N   0  0  0  0  0  1  0  0  0  0  0  0
  162.1950  210.7950  149.0150 C   0  0  0  0  0  3  0  0  0  0  0  0
  161.6630  213.1110  148.5480 C   0  0  0  0  0  3  0  0  0  0  0  0
  162.2760  211.9110  148.1770 C   0  0  0  0  0  3  0  0  0  0  0  0
  1  2  2  0  0  0  0
  1 13  1  0  0  0  0
  2 18  1  0  0  0  0
  3  6  1  0  0  0  0
  4  7  1  0  0  0  0
  4  1  1  0  0  0  0
  5  8  2  0  0  0  0
  7 14  2  0  0  0  0
  8  7  1  0  0  0  0
  9 10  1  0  0  0  0
 11 17  2  0  0  0  0
 11  2  1  0  0  0  0
 12  5  1  0  0  0  0
 12 16  2  0  0  0  0
 13  3  2  0  0  0  0
 14 13  1  0  0  0  0
 15  9  1  0  0  0  0
 16  4  1  0  0  0  0
 17 15  1  0  0  0  0
 18  9  1  0  0  0  0
 18  6  2  0  0  0  0
 19 22  1  0  0  0  0
 19 21  1  0  0  0  0
 20 21  2  0  0  0  0
 20 17  1  0  0  0  0
 23 20  1  0  0  0  0
 24 19  2  0  0  0  0
 25 24  1  0  0  0  0
 25 23  2  0  0  0  0
M  END
>  <MODEL>
7

>  <REMARK>
 VINA RESULT:      -8.2      2.075      4.885
  Name = 
  1 active torsions:
  status: ('A' for Active; 'I' for Inactive)
    1  A    between atoms: C_6  and  C_23
                            x       y       z     vdW  Elec       q    Type
                         _______ _______ _______ _____ _____    ______ ____

>  <TORSDO>
F 1

$$$$
=
 OpenBabel11052422153D

 25 29  0  0  0  0  0  0  0  0999 V2000
  161.2060  206.2260  151.0120 C   0  0  0  0  0  0  0  0  0  0  0  0
  161.2060  207.4830  151.6180 C   0  0  0  0  0  0  0  0  0  0  0  0
  161.2060  205.0780  153.1370 C   0  0  0  0  0  3  0  0  0  0  0  0
  161.2070  205.8960  149.7140 N   0  0  0  0  0  0  0  0  0  0  0  0
  161.2070  204.6010  147.3100 C   0  0  0  0  0  3  0  0  0  0  0  0
  161.2060  206.3300  153.7810 C   0  0  0  0  0  3  0  0  0  0  0  0
  161.2060  204.5440  149.7000 C   0  0  0  0  0  0  0  0  0  0  0  0
  161.2060  203.8470  148.4950 C   0  0  0  0  0  3  0  0  0  0  0  0
  161.2060  208.8200  153.6580 N   0  0  0  0  0  0  0  0  0  0  0  0
  161.2060  208.9650  155.1050 C   0  0  0  0  0  1  0  0  0  0  0  0
  161.2060  208.6960  150.8550 N   0  0  0  0  0  0  0  0  0  0  0  0
  161.2070  206.0090  147.3540 C   0  0  0  0  0  3  0  0  0  0  0  0
  161.2060  205.0650  151.7440 C   0  0  0  0  0  0  0  0  0  0  0  0
  161.2070  203.9800  150.9350 N   0  0  0  0  0  0  0  0  0  0  0  0
  161.2070  209.9720  152.8540 N   0  0  0  0  0  2  0  0  0  0  0  0
  161.2060  206.6610  148.5950 C   0  0  0  0  0  3  0  0  0  0  0  0
  161.2060  209.8690  151.4210 C   0  0  0  0  0  0  0  0  0  0  0  0
  161.2060  207.5300  153.0280 C   0  0  0  0  0  0  0  0  0  0  0  0
  161.9780  212.3050  148.6360 C   0  0  0  0  0  0  0  0  0  0  0  0
  161.2060  211.0910  150.5950 C   0  0  0  0  0  0  0  0  0  0  0  0
  161.9740  211.1500  149.4230 C   0  0  0  0  0  3  0  0  0  0  0  0
  162.7600  212.3550  147.4500 N   0  0  0  0  0  1  0  0  0  0  0  0
  160.4400  212.2070  150.9680 C   0  0  0  0  0  3  0  0  0  0  0  0
  161.2130  213.4120  149.0150 C   0  0  0  0  0  3  0  0  0  0  0  0
  160.4440  213.3620  150.1810 C   0  0  0  0  0  3  0  0  0  0  0  0
  1  2  2  0  0  0  0
  1 13  1  0  0  0  0
  2 18  1  0  0  0  0
  3  6  1  0  0  0  0
  4  1  1  0  0  0  0
  5 12  1  0  0  0  0
  5  8  2  0  0  0  0
  7  4  1  0  0  0  0
  7 14  2  0  0  0  0
  8  7  1  0  0  0  0
  9 10  1  0  0  0  0
 11 17  2  0  0  0  0
 11  2  1  0  0  0  0
 12 16  2  0  0  0  0
 13  3  2  0  0  0  0
 14 13  1  0  0  0  0
 15  9  1  0  0  0  0
 16  4  1  0  0  0  0
 17 15  1  0  0  0  0
 18  9  1  0  0  0  0
 18  6  2  0  0  0  0
 19 24  2  0  0  0  0
 19 21  1  0  0  0  0
 20 23  1  0  0  0  0
 20 17  1  0  0  0  0
 21 20  2  0  0  0  0
 22 19  1  0  0  0  0
 24 25  1  0  0  0  0
 25 23  2  0  0  0  0
M  END
>  <MODEL>
8

>  <REMARK>
 VINA RESULT:      -8.1      2.082      5.075
  Name = 
  1 active torsions:
  status: ('A' for Active; 'I' for Inactive)
    1  A    between atoms: C_6  and  C_23
                            x       y       z     vdW  Elec       q    Type
                         _______ _______ _______ _____ _____    ______ ____

>  <TORSDO>
F 1

$$$$
=
 OpenBabel11052422153D

 25 29  0  0  0  0  0  0  0  0999 V2000
  161.3350  207.7160  152.2200 C   0  0  0  0  0  0  0  0  0  0  0  0
  161.5750  208.0950  150.8990 C   0  0  0  0  0  0  0  0  0  0  0  0
  161.3360  205.3660  151.6640 C   0  0  0  0  0  3  0  0  0  0  0  0
  161.1770  208.4690  153.3170 N   0  0  0  0  0  0  0  0  0  0  0  0
  160.7830  209.4100  155.8490 C   0  0  0  0  0  3  0  0  0  0  0  0
  161.5780  205.7140  150.3210 C   0  0  0  0  0  3  0  0  0  0  0  0
  160.9720  207.5840  154.3180 C   0  0  0  0  0  0  0  0  0  0  0  0
  160.7670  208.0240  155.6240 C   0  0  0  0  0  3  0  0  0  0  0  0
  161.9460  207.4550  148.5750 N   0  0  0  0  0  0  0  0  0  0  0  0
  162.0860  206.4690  147.5160 C   0  0  0  0  0  1  0  0  0  0  0  0
  161.6960  209.4700  150.5120 N   0  0  0  0  0  0  0  0  0  0  0  0
  161.0000  210.3090  154.7880 C   0  0  0  0  0  3  0  0  0  0  0  0
  161.2190  206.4000  152.5900 C   0  0  0  0  0  0  0  0  0  0  0  0
  160.9880  206.2860  153.9180 N   0  0  0  0  0  0  0  0  0  0  0  0
  162.0540  208.8190  148.2590 N   0  0  0  0  0  2  0  0  0  0  0  0
  161.2020  209.8140  153.4930 C   0  0  0  0  0  3  0  0  0  0  0  0
  161.9210  209.8240  149.2780 C   0  0  0  0  0  0  0  0  0  0  0  0
  161.6980  207.0720  149.9360 C   0  0  0  0  0  0  0  0  0  0  0  0
  161.1960  213.5270  149.0620 C   0  0  0  0  0  0  0  0  0  0  0  0
  162.0380  211.2510  148.9260 C   0  0  0  0  0  0  0  0  0  0  0  0
  161.0900  212.1730  149.3930 C   0  0  0  0  0  3  0  0  0  0  0  0
  160.2290  214.4530  149.5410 N   0  0  0  0  0  1  0  0  0  0  0  0
  163.0960  211.7050  148.1220 C   0  0  0  0  0  3  0  0  0  0  0  0
  162.2520  213.9700  148.2610 C   0  0  0  0  0  3  0  0  0  0  0  0
  163.2020  213.0590  147.7910 C   0  0  0  0  0  3  0  0  0  0  0  0
  1 13  1  0  0  0  0
  1  4  1  0  0  0  0
  2  1  2  0  0  0  0
  3 13  2  0  0  0  0
  4 16  1  0  0  0  0
  4  7  1  0  0  0  0
  6  3  1  0  0  0  0
  7  8  1  0  0  0  0
  8  5  2  0  0  0  0
  9 18  1  0  0  0  0
 10  9  1  0  0  0  0
 11  2  1  0  0  0  0
 12  5  1  0  0  0  0
 13 14  1  0  0  0  0
 14  7  2  0  0  0  0
 15  9  1  0  0  0  0
 15 17  1  0  0  0  0
 16 12  2  0  0  0  0
 17 11  2  0  0  0  0
 18  6  2  0  0  0  0
 18  2  1  0  0  0  0
 19 21  1  0  0  0  0
 19 22  1  0  0  0  0
 20 17  1  0  0  0  0
 20 21  2  0  0  0  0
 23 20  1  0  0  0  0
 24 19  2  0  0  0  0
 25 23  2  0  0  0  0
 25 24  1  0  0  0  0
M  END
>  <MODEL>
9

>  <REMARK>
 VINA RESULT:      -7.8      2.282      6.372
  Name = 
  1 active torsions:
  status: ('A' for Active; 'I' for Inactive)
    1  A    between atoms: C_6  and  C_23
                            x       y       z     vdW  Elec       q    Type
                         _______ _______ _______ _____ _____    ______ ____

>  <TORSDO>
F 1

$$$$
