=
 OpenBabel11062409093D

 37 40  0  0  1  0  0  0  0  0999 V2000
  161.2140  208.3750  152.7150 C   0  0  1  0  0  0  0  0  0  0  0  0
  161.4050  209.7310  153.4510 C   0  0  2  0  0  3  0  0  0  0  0  0
  161.8740  207.9910  156.7510 N   0  0  0  0  0  1  0  0  0  0  0  0
  161.9810  209.5210  154.8580 C   0  0  2  0  0  3  0  0  0  0  0  0
  161.0500  208.6920  155.7790 C   0  0  1  0  0  0  0  0  0  0  0  0
  160.9820  207.2100  153.7110 C   0  0  0  0  0  2  0  0  0  0  0  0
  160.2460  207.6580  154.9720 C   0  0  0  0  0  2  0  0  0  0  0  0
  162.4960  210.8180  155.4720 C   0  0  0  0  0  1  0  0  0  0  0  0
  160.1060  208.4660  151.8670 O   0  0  0  0  0  1  0  0  0  0  0  0
  162.4860  208.1790  151.8460 C   0  0  2  0  0  3  0  0  0  0  0  0
  162.3880  207.4060  150.5610 C   0  0  1  0  0  3  0  0  0  0  0  0
  162.8700  206.8240  151.7510 O   0  0  0  0  0  0  0  0  0  0  0  0
  161.0170  206.8280  150.2160 C   0  0  1  0  0  3  0  0  0  0  0  0
  160.5670  207.3650  149.0090 O   0  0  0  0  0  1  0  0  0  0  0  0
  161.4840  203.3290  148.6050 C   0  0  0  0  0  2  0  0  0  0  0  0
  160.6920  204.5240  151.3500 C   0  0  0  0  0  2  0  0  0  0  0  0
  161.3350  204.7940  148.9200 C   0  0  0  0  0  3  0  0  0  0  0  0
  161.5360  203.2670  151.5050 C   0  0  0  0  0  2  0  0  0  0  0  0
  160.2020  201.2070  148.5270 C   0  0  0  0  0  1  0  0  0  0  0  0
  160.9300  202.0950  150.7270 C   0  0  0  0  0  2  0  0  0  0  0  0
  160.4530  202.4700  149.3220 C   0  0  1  0  0  3  0  0  0  0  0  0
  161.0650  205.3330  150.1260 C   0  0  0  0  0  0  0  0  0  0  0  0
  160.4470  211.6130  152.7710 C   0  0  0  0  0  1  0  0  0  0  0  0
  160.2080  210.4570  153.5180 O   0  0  0  0  0  0  0  0  0  0  0  0
  160.0580  209.5980  156.5160 C   0  0  0  0  0  2  0  0  0  0  0  0
  158.9330  209.8640  155.7280 O   0  0  0  0  0  0  0  0  0  0  0  0
  158.1760  210.7590  156.4870 C   0  0  0  0  0  2  0  0  0  0  0  0
  158.3910  212.1200  156.0040 N   0  0  0  0  0  0  0  0  0  0  0  0
  156.2800  211.8290  154.6090 C   0  0  0  0  0  2  0  0  0  0  0  0
  157.1390  212.7040  155.5050 C   0  0  2  0  0  0  0  0  0  0  0  0
  156.3180  214.0410  153.6080 N   0  0  0  0  0  1  0  0  0  0  0  0
  157.1550  212.9160  153.9950 C   0  0  2  0  0  3  0  0  0  0  0  0
  156.5300  213.7440  156.2410 O   0  0  0  0  0  0  0  0  0  0  0  0
  154.3080  214.1330  156.9980 C   0  0  0  0  0  1  0  0  0  0  0  0
  155.4810  213.1760  156.9740 C   0  0  0  0  0  2  0  0  0  0  0  0
  159.0210  212.9610  157.0330 C   0  0  0  0  0  2  0  0  0  0  0  0
  160.0330  213.9610  156.4750 C   0  0  0  0  0  1  0  0  0  0  0  0
  1  9  1  6  0  0  0
  1  2  1  0  0  0  0
  1  6  1  0  0  0  0
  2 24  1  1  0  0  0
  2  4  1  0  0  0  0
  4  8  1  1  0  0  0
  4  5  1  0  0  0  0
  5 25  1  0  0  0  0
  5  3  1  1  0  0  0
  6  7  1  0  0  0  0
  7  5  1  0  0  0  0
 10 12  1  1  0  0  0
 10  1  1  0  0  0  0
 11 13  1  1  0  0  0
 11 12  1  0  0  0  0
 11 10  1  0  0  0  0
 13 14  1  6  0  0  0
 15 17  1  0  0  0  0
 15 21  1  0  0  0  0
 16 18  1  0  0  0  0
 17 22  2  0  0  0  0
 20 18  1  0  0  0  0
 21 19  1  6  0  0  0
 21 20  1  0  0  0  0
 22 13  1  0  0  0  0
 22 16  1  0  0  0  0
 23 24  1  0  0  0  0
 26 27  1  0  0  0  0
 26 25  1  0  0  0  0
 28 27  1  0  0  0  0
 28 36  1  0  0  0  0
 29 30  1  0  0  0  0
 30 28  1  0  0  0  0
 30 33  1  1  0  0  0
 32 31  1  1  0  0  0
 32 29  1  0  0  0  0
 32 30  1  0  0  0  0
 33 35  1  0  0  0  0
 35 34  1  0  0  0  0
 37 36  1  0  0  0  0
M  END
>  <MODEL>
1

>  <REMARK>
 VINA RESULT:      -6.3      0.000      0.000
  Name = 
  12 active torsions:
  status: ('A' for Active; 'I' for Inactive)
    1  A    between atoms: C_1  and  C_20
    2  A    between atoms: C_3  and  C_21
    3  A    between atoms: C_3  and  C_30
    4  A    between atoms: C_5  and  O_23
    5  A    between atoms: C_6  and  O_8
    6  A    between atoms: C_6  and  N_31
    7  A    between atoms: C_7  and  O_27
    8  A    between atoms: C_7  and  N_31
    9  A    between atoms: O_8  and  C_19
   10  A    between atoms: C_10  and  C_26
   11  A    between atoms: C_10  and  O_27
   12  A    between atoms: C_14  and  N_31
                            x       y       z     vdW  Elec       q    Type
                         _______ _______ _______ _____ _____    ______ ____

>  <TORSDO>
F 12

$$$$
=
 OpenBabel11062409093D

 37 40  0  0  1  0  0  0  0  0999 V2000
  161.1740  208.3680  152.7670 C   0  0  1  0  0  0  0  0  0  0  0  0
  161.4140  209.7060  153.5210 C   0  0  2  0  0  3  0  0  0  0  0  0
  161.7550  207.9110  156.8080 N   0  0  0  0  0  1  0  0  0  0  0  0
  161.9590  209.4550  154.9340 C   0  0  2  0  0  3  0  0  0  0  0  0
  160.9770  208.6590  155.8320 C   0  0  1  0  0  0  0  0  0  0  0  0
  160.8740  207.2040  153.7460 C   0  0  0  0  0  2  0  0  0  0  0  0
  160.1400  207.6710  155.0010 C   0  0  0  0  0  2  0  0  0  0  0  0
  162.5210  210.7220  155.5700 C   0  0  0  0  0  1  0  0  0  0  0  0
  160.0840  208.5180  151.9040 O   0  0  0  0  0  1  0  0  0  0  0  0
  162.4490  208.1250  151.9140 C   0  0  2  0  0  3  0  0  0  0  0  0
  162.3530  207.2890  150.6700 C   0  0  1  0  0  3  0  0  0  0  0  0
  162.8280  206.7660  151.8890 O   0  0  0  0  0  0  0  0  0  0  0  0
  160.9820  206.6990  150.3480 C   0  0  1  0  0  3  0  0  0  0  0  0
  160.4730  207.2880  149.1890 O   0  0  0  0  0  1  0  0  0  0  0  0
  161.5650  203.3020  148.5650 C   0  0  0  0  0  2  0  0  0  0  0  0
  160.6500  204.3310  151.3390 C   0  0  0  0  0  2  0  0  0  0  0  0
  161.3810  204.7450  148.9550 C   0  0  0  0  0  3  0  0  0  0  0  0
  161.5070  203.0790  151.4580 C   0  0  0  0  0  2  0  0  0  0  0  0
  160.3210  201.1700  148.3200 C   0  0  0  0  0  1  0  0  0  0  0  0
  160.9500  201.9440  150.5930 C   0  0  0  0  0  2  0  0  0  0  0  0
  160.5200  202.3910  149.1930 C   0  0  1  0  0  3  0  0  0  0  0  0
  161.0570  205.2120  150.1780 C   0  0  0  0  0  0  0  0  0  0  0  0
  160.4240  211.4640  152.5990 C   0  0  0  0  0  1  0  0  0  0  0  0
  160.2500  210.4850  153.5790 O   0  0  0  0  0  0  0  0  0  0  0  0
  160.0160  209.6010  156.5640 C   0  0  0  0  0  2  0  0  0  0  0  0
  158.9370  209.9580  155.7490 O   0  0  0  0  0  0  0  0  0  0  0  0
  158.6320  211.2690  156.1210 C   0  0  0  0  0  2  0  0  0  0  0  0
  157.1870  211.4720  156.0720 N   0  0  0  0  0  0  0  0  0  0  0  0
  157.4590  213.7710  157.1350 C   0  0  0  0  0  2  0  0  0  0  0  0
  156.8590  212.9040  156.0420 C   0  0  2  0  0  0  0  0  0  0  0  0
  155.1420  214.4530  156.8840 N   0  0  0  0  0  1  0  0  0  0  0  0
  156.0020  213.3320  157.2280 C   0  0  2  0  0  3  0  0  0  0  0  0
  156.5010  213.4960  154.8100 O   0  0  0  0  0  0  0  0  0  0  0  0
  157.6390  214.0710  152.8010 C   0  0  0  0  0  1  0  0  0  0  0  0
  157.6400  214.1430  154.3140 C   0  0  0  0  0  2  0  0  0  0  0  0
  156.5800  210.7430  154.9480 C   0  0  0  0  0  2  0  0  0  0  0  0
  155.1780  210.2140  155.2440 C   0  0  0  0  0  1  0  0  0  0  0  0
  1  9  1  6  0  0  0
  1  2  1  0  0  0  0
  1  6  1  0  0  0  0
  2 24  1  1  0  0  0
  2  4  1  0  0  0  0
  4  8  1  1  0  0  0
  4  5  1  0  0  0  0
  5 25  1  0  0  0  0
  5  3  1  1  0  0  0
  6  7  1  0  0  0  0
  7  5  1  0  0  0  0
 10 12  1  1  0  0  0
 10  1  1  0  0  0  0
 11 13  1  1  0  0  0
 11 12  1  0  0  0  0
 11 10  1  0  0  0  0
 13 14  1  6  0  0  0
 15 17  1  0  0  0  0
 15 21  1  0  0  0  0
 16 18  1  0  0  0  0
 17 22  2  0  0  0  0
 20 18  1  0  0  0  0
 21 19  1  6  0  0  0
 21 20  1  0  0  0  0
 22 13  1  0  0  0  0
 22 16  1  0  0  0  0
 23 24  1  0  0  0  0
 26 27  1  0  0  0  0
 26 25  1  0  0  0  0
 28 27  1  0  0  0  0
 29 32  1  0  0  0  0
 30 33  1  6  0  0  0
 30 28  1  0  0  0  0
 30 29  1  0  0  0  0
 30 32  1  0  0  0  0
 32 31  1  6  0  0  0
 34 35  1  0  0  0  0
 35 33  1  0  0  0  0
 36 37  1  0  0  0  0
 36 28  1  0  0  0  0
M  END
>  <MODEL>
2

>  <REMARK>
 VINA RESULT:      -6.3      0.975      1.925
  Name = 
  12 active torsions:
  status: ('A' for Active; 'I' for Inactive)
    1  A    between atoms: C_1  and  C_20
    2  A    between atoms: C_3  and  C_21
    3  A    between atoms: C_3  and  C_30
    4  A    between atoms: C_5  and  O_23
    5  A    between atoms: C_6  and  O_8
    6  A    between atoms: C_6  and  N_31
    7  A    between atoms: C_7  and  O_27
    8  A    between atoms: C_7  and  N_31
    9  A    between atoms: O_8  and  C_19
   10  A    between atoms: C_10  and  C_26
   11  A    between atoms: C_10  and  O_27
   12  A    between atoms: C_14  and  N_31
                            x       y       z     vdW  Elec       q    Type
                         _______ _______ _______ _____ _____    ______ ____

>  <TORSDO>
F 12

$$$$
=
 OpenBabel11062409093D

 37 40  0  0  1  0  0  0  0  0999 V2000
  160.9800  207.8780  153.7330 C   0  0  1  0  0  0  0  0  0  0  0  0
  161.8790  209.1440  153.7910 C   0  0  2  0  0  3  0  0  0  0  0  0
  160.6780  209.9610  157.2600 N   0  0  0  0  0  1  0  0  0  0  0  0
  161.9900  209.6780  155.2260 C   0  0  2  0  0  3  0  0  0  0  0  0
  160.6290  210.1260  155.8160 C   0  0  1  0  0  0  0  0  0  0  0  0
  159.9270  207.8690  154.8710 C   0  0  0  0  0  2  0  0  0  0  0  0
  159.4740  209.2750  155.2590 C   0  0  0  0  0  2  0  0  0  0  0  0
  163.1170  210.6940  155.3800 C   0  0  0  0  0  1  0  0  0  0  0  0
  160.3100  207.8490  152.5050 O   0  0  0  0  0  1  0  0  0  0  0  0
  161.9460  206.6650  153.7960 C   0  0  2  0  0  3  0  0  0  0  0  0
  162.2940  205.9330  152.5320 C   0  0  1  0  0  3  0  0  0  0  0  0
  161.3180  205.4560  153.4290 O   0  0  0  0  0  0  0  0  0  0  0  0
  161.6260  206.4290  151.2510 C   0  0  1  0  0  3  0  0  0  0  0  0
  162.4440  207.3710  150.6240 O   0  0  0  0  0  1  0  0  0  0  0  0
  160.2250  203.0160  150.0500 C   0  0  0  0  0  2  0  0  0  0  0  0
  161.9110  205.3520  148.9150 C   0  0  0  0  0  2  0  0  0  0  0  0
  160.6670  204.2370  150.8120 C   0  0  0  0  0  3  0  0  0  0  0  0
  160.9690  204.7770  147.8670 C   0  0  0  0  0  2  0  0  0  0  0  0
  161.1090  201.0430  148.8340 C   0  0  0  0  0  1  0  0  0  0  0  0
  161.1570  203.2640  147.7250 C   0  0  0  0  0  2  0  0  0  0  0  0
  161.2770  202.5300  149.0630 C   0  0  1  0  0  3  0  0  0  0  0  0
  161.3370  205.2960  150.3140 C   0  0  0  0  0  0  0  0  0  0  0  0
  162.3850  210.2410  151.9310 C   0  0  0  0  0  1  0  0  0  0  0  0
  161.4170  210.1500  152.9320 O   0  0  0  0  0  0  0  0  0  0  0  0
  160.3420  211.5940  155.4830 C   0  0  0  0  0  2  0  0  0  0  0  0
  159.0170  211.9310  155.7770 O   0  0  0  0  0  0  0  0  0  0  0  0
  158.7180  212.9780  154.9030 C   0  0  0  0  0  2  0  0  0  0  0  0
  157.7380  212.5320  153.9150 N   0  0  0  0  0  0  0  0  0  0  0  0
  156.0660  214.4530  153.9270 C   0  0  0  0  0  2  0  0  0  0  0  0
  156.3920  213.0080  154.2600 C   0  0  2  0  0  0  0  0  0  0  0  0
  155.1900  214.0270  156.1510 N   0  0  0  0  0  1  0  0  0  0  0  0
  156.4100  214.0640  155.3600 C   0  0  2  0  0  3  0  0  0  0  0  0
  155.3410  212.0700  154.3600 O   0  0  0  0  0  0  0  0  0  0  0  0
  154.9760  210.1070  155.6560 C   0  0  0  0  0  1  0  0  0  0  0  0
  155.9110  210.8420  154.7180 C   0  0  0  0  0  2  0  0  0  0  0  0
  158.1310  212.9260  152.5530 C   0  0  0  0  0  2  0  0  0  0  0  0
  159.6430  212.9970  152.3470 C   0  0  0  0  0  1  0  0  0  0  0  0
  1  9  1  6  0  0  0
  1  2  1  0  0  0  0
  1 10  1  0  0  0  0
  1  6  1  0  0  0  0
  2 24  1  6  0  0  0
  2  4  1  0  0  0  0
  4  8  1  6  0  0  0
  4  5  1  0  0  0  0
  5  3  1  1  0  0  0
  6  7  1  0  0  0  0
  7  5  1  0  0  0  0
 10 12  1  1  0  0  0
 11 13  1  6  0  0  0
 11 12  1  0  0  0  0
 11 10  1  0  0  0  0
 13 14  1  6  0  0  0
 15 17  1  0  0  0  0
 16 22  1  0  0  0  0
 18 16  1  0  0  0  0
 20 18  1  0  0  0  0
 20 21  1  0  0  0  0
 21 19  1  6  0  0  0
 21 15  1  0  0  0  0
 22 17  2  0  0  0  0
 22 13  1  0  0  0  0
 23 24  1  0  0  0  0
 25 26  1  0  0  0  0
 25  5  1  0  0  0  0
 27 26  1  0  0  0  0
 28 30  1  0  0  0  0
 28 27  1  0  0  0  0
 29 30  1  0  0  0  0
 29 32  1  0  0  0  0
 30 33  1  6  0  0  0
 30 32  1  0  0  0  0
 32 31  1  1  0  0  0
 33 35  1  0  0  0  0
 35 34  1  0  0  0  0
 36 28  1  0  0  0  0
 37 36  1  0  0  0  0
M  END
>  <MODEL>
3

>  <REMARK>
 VINA RESULT:      -4.4      1.583      2.418
  Name = 
  12 active torsions:
  status: ('A' for Active; 'I' for Inactive)
    1  A    between atoms: C_1  and  C_20
    2  A    between atoms: C_3  and  C_21
    3  A    between atoms: C_3  and  C_30
    4  A    between atoms: C_5  and  O_23
    5  A    between atoms: C_6  and  O_8
    6  A    between atoms: C_6  and  N_31
    7  A    between atoms: C_7  and  O_27
    8  A    between atoms: C_7  and  N_31
    9  A    between atoms: O_8  and  C_19
   10  A    between atoms: C_10  and  C_26
   11  A    between atoms: C_10  and  O_27
   12  A    between atoms: C_14  and  N_31
                            x       y       z     vdW  Elec       q    Type
                         _______ _______ _______ _____ _____    ______ ____

>  <TORSDO>
F 12

$$$$
=
 OpenBabel11062409093D

 37 40  0  0  1  0  0  0  0  0999 V2000
  161.0510  207.5350  153.4650 C   0  0  1  0  0  0  0  0  0  0  0  0
  161.5080  209.0170  153.5660 C   0  0  2  0  0  3  0  0  0  0  0  0
  160.7930  209.0940  157.2570 N   0  0  0  0  0  1  0  0  0  0  0  0
  161.7180  209.4330  155.0280 C   0  0  2  0  0  3  0  0  0  0  0  0
  160.4220  209.3550  155.8740 C   0  0  1  0  0  0  0  0  0  0  0  0
  160.2880  207.0820  154.7370 C   0  0  0  0  0  2  0  0  0  0  0  0
  159.5040  208.2220  155.3840 C   0  0  0  0  0  2  0  0  0  0  0  0
  162.4820  210.7460  155.1510 C   0  0  0  0  0  1  0  0  0  0  0  0
  160.2030  207.3910  152.3620 O   0  0  0  0  0  1  0  0  0  0  0  0
  162.3390  206.7070  153.2090 C   0  0  2  0  0  3  0  0  0  0  0  0
  162.6170  206.1850  151.8290 C   0  0  1  0  0  3  0  0  0  0  0  0
  162.0580  205.3740  152.8380 O   0  0  0  0  0  0  0  0  0  0  0  0
  161.5660  206.4860  150.7620 C   0  0  1  0  0  3  0  0  0  0  0  0
  161.9800  207.5680  149.9830 O   0  0  0  0  0  1  0  0  0  0  0  0
  160.3120  202.9510  149.7660 C   0  0  0  0  0  2  0  0  0  0  0  0
  161.8680  205.3000  148.4800 C   0  0  0  0  0  2  0  0  0  0  0  0
  160.7080  204.2310  150.4550 C   0  0  0  0  0  3  0  0  0  0  0  0
  160.9380  204.6270  147.4810 C   0  0  0  0  0  2  0  0  0  0  0  0
  161.2720  200.9610  148.6400 C   0  0  0  0  0  1  0  0  0  0  0  0
  161.1970  203.1190  147.4150 C   0  0  0  0  0  2  0  0  0  0  0  0
  161.3710  202.4640  148.7880 C   0  0  1  0  0  3  0  0  0  0  0  0
  161.3180  205.2920  149.8910 C   0  0  0  0  0  0  0  0  0  0  0  0
  161.3000  210.3980  151.8430 C   0  0  0  0  0  1  0  0  0  0  0  0
  160.6030  209.8820  152.9370 O   0  0  0  0  0  0  0  0  0  0  0  0
  159.6380  210.6700  155.8000 C   0  0  0  0  0  2  0  0  0  0  0  0
  158.6820  210.7470  156.8190 O   0  0  0  0  0  0  0  0  0  0  0  0
  158.4980  212.1160  157.0250 C   0  0  0  0  0  2  0  0  0  0  0  0
  157.7900  212.6960  155.8860 N   0  0  0  0  0  0  0  0  0  0  0  0
  155.4950  213.4740  155.1020 C   0  0  0  0  0  2  0  0  0  0  0  0
  156.3500  212.7950  156.1580 C   0  0  2  0  0  0  0  0  0  0  0  0
  154.7490  214.3060  157.2570 N   0  0  0  0  0  1  0  0  0  0  0  0
  155.8920  214.2350  156.3620 C   0  0  2  0  0  3  0  0  0  0  0  0
  155.7540  211.8570  157.0290 O   0  0  0  0  0  0  0  0  0  0  0  0
  154.0390  210.2090  156.9370 C   0  0  0  0  0  1  0  0  0  0  0  0
  155.2320  210.8260  156.2380 C   0  0  0  0  0  2  0  0  0  0  0  0
  158.3690  213.9910  155.4970 C   0  0  0  0  0  2  0  0  0  0  0  0
  159.6580  214.3360  156.2410 C   0  0  0  0  0  1  0  0  0  0  0  0
  1  9  1  6  0  0  0
  1  2  1  0  0  0  0
  1  6  1  0  0  0  0
  2 24  1  1  0  0  0
  2  4  1  0  0  0  0
  4  8  1  6  0  0  0
  4  5  1  0  0  0  0
  5  3  1  1  0  0  0
  6  7  1  0  0  0  0
  7  5  1  0  0  0  0
 10 12  1  1  0  0  0
 10  1  1  0  0  0  0
 11 13  1  6  0  0  0
 11 12  1  0  0  0  0
 11 10  1  0  0  0  0
 13 14  1  6  0  0  0
 15 17  1  0  0  0  0
 16 22  1  0  0  0  0
 18 16  1  0  0  0  0
 20 18  1  0  0  0  0
 20 21  1  0  0  0  0
 21 19  1  6  0  0  0
 21 15  1  0  0  0  0
 22 17  2  0  0  0  0
 22 13  1  0  0  0  0
 23 24  1  0  0  0  0
 25  5  1  0  0  0  0
 25 26  1  0  0  0  0
 26 27  1  0  0  0  0
 28 30  1  0  0  0  0
 28 27  1  0  0  0  0
 29 30  1  0  0  0  0
 29 32  1  0  0  0  0
 30 32  1  0  0  0  0
 30 33  1  1  0  0  0
 32 31  1  1  0  0  0
 35 34  1  0  0  0  0
 35 33  1  0  0  0  0
 36 28  1  0  0  0  0
 36 37  1  0  0  0  0
M  END
>  <MODEL>
4

>  <REMARK>
 VINA RESULT:      -4.3      1.503      1.974
  Name = 
  12 active torsions:
  status: ('A' for Active; 'I' for Inactive)
    1  A    between atoms: C_1  and  C_20
    2  A    between atoms: C_3  and  C_21
    3  A    between atoms: C_3  and  C_30
    4  A    between atoms: C_5  and  O_23
    5  A    between atoms: C_6  and  O_8
    6  A    between atoms: C_6  and  N_31
    7  A    between atoms: C_7  and  O_27
    8  A    between atoms: C_7  and  N_31
    9  A    between atoms: O_8  and  C_19
   10  A    between atoms: C_10  and  C_26
   11  A    between atoms: C_10  and  O_27
   12  A    between atoms: C_14  and  N_31
                            x       y       z     vdW  Elec       q    Type
                         _______ _______ _______ _____ _____    ______ ____

>  <TORSDO>
F 12

$$$$
=
 OpenBabel11062409093D

 37 40  0  0  1  0  0  0  0  0999 V2000
  158.9540  211.7650  154.1720 C   0  0  1  0  0  0  0  0  0  0  0  0
  160.0170  211.2480  155.1810 C   0  0  2  0  0  3  0  0  0  0  0  0
  162.2060  210.0000  152.3890 N   0  0  0  0  0  1  0  0  0  0  0  0
  161.3390  210.9200  154.4720 C   0  0  2  0  0  3  0  0  0  0  0  0
  161.2020  209.7910  153.4190 C   0  0  1  0  0  0  0  0  0  0  0  0
  159.1950  211.2040  152.7460 C   0  0  0  0  0  2  0  0  0  0  0  0
  159.8090  209.8060  152.7650 C   0  0  0  0  0  2  0  0  0  0  0  0
  162.4920  210.7420  155.4520 C   0  0  0  0  0  1  0  0  0  0  0  0
  157.6840  211.3650  154.6010 O   0  0  0  0  0  1  0  0  0  0  0  0
  159.0290  213.3140  154.2300 C   0  0  2  0  0  3  0  0  0  0  0  0
  158.0990  214.1290  153.3760 C   0  0  1  0  0  3  0  0  0  0  0  0
  159.4350  213.8800  153.0030 O   0  0  0  0  0  0  0  0  0  0  0  0
  157.1500  213.3510  152.4670 C   0  0  1  0  0  3  0  0  0  0  0  0
  155.8270  213.6530  152.7940 O   0  0  0  0  0  1  0  0  0  0  0  0
  156.3780  214.4530  148.8280 C   0  0  0  0  0  2  0  0  0  0  0  0
  158.7890  213.4070  150.4640 C   0  0  0  0  0  2  0  0  0  0  0  0
  156.3510  214.0450  150.2770 C   0  0  0  0  0  3  0  0  0  0  0  0
  159.2130  214.4530  149.4440 C   0  0  0  0  0  2  0  0  0  0  0  0
  156.8140  213.5620  146.5550 C   0  0  0  0  0  1  0  0  0  0  0  0
  158.7370  214.0770  148.0370 C   0  0  0  0  0  2  0  0  0  0  0  0
  157.2930  213.5720  147.9910 C   0  0  1  0  0  3  0  0  0  0  0  0
  157.4050  213.6600  151.0230 C   0  0  0  0  0  0  0  0  0  0  0  0
  159.1720  210.6340  157.1370 C   0  0  0  0  0  1  0  0  0  0  0  0
  159.5580  210.1320  155.8930 O   0  0  0  0  0  0  0  0  0  0  0  0
  161.4130  208.4150  154.0600 C   0  0  0  0  0  2  0  0  0  0  0  0
  160.5830  207.4520  153.4760 O   0  0  0  0  0  0  0  0  0  0  0  0
  161.4320  206.7090  152.6520 C   0  0  0  0  0  2  0  0  0  0  0  0
  160.6560  206.0690  151.5930 N   0  0  0  0  0  0  0  0  0  0  0  0
  162.6820  206.7610  150.2140 C   0  0  0  0  0  2  0  0  0  0  0  0
  161.2120  206.3850  150.2710 C   0  0  2  0  0  0  0  0  0  0  0  0
  161.4990  208.3150  148.7710 N   0  0  0  0  0  1  0  0  0  0  0  0
  161.6170  207.8500  150.1430 C   0  0  2  0  0  3  0  0  0  0  0  0
  160.5950  205.8410  149.1230 O   0  0  0  0  0  0  0  0  0  0  0  0
  161.7120  204.7490  147.3280 C   0  0  0  0  0  1  0  0  0  0  0  0
  161.2990  204.6790  148.7830 C   0  0  0  0  0  2  0  0  0  0  0  0
  160.5450  204.6180  151.8130 C   0  0  0  0  0  2  0  0  0  0  0  0
  161.8930  203.9050  151.9020 C   0  0  0  0  0  1  0  0  0  0  0  0
  1 10  1  0  0  0  0
  1  9  1  1  0  0  0
  1  2  1  0  0  0  0
  2 24  1  6  0  0  0
  4  2  1  0  0  0  0
  4  8  1  1  0  0  0
  5  3  1  6  0  0  0
  5 25  1  0  0  0  0
  5  4  1  0  0  0  0
  6  7  1  0  0  0  0
  6  1  1  0  0  0  0
  7  5  1  0  0  0  0
 10 12  1  6  0  0  0
 11 13  1  6  0  0  0
 11 10  1  0  0  0  0
 12 11  1  0  0  0  0
 13 14  1  1  0  0  0
 15 17  1  0  0  0  0
 16 22  1  0  0  0  0
 17 22  2  0  0  0  0
 18 16  1  0  0  0  0
 20 18  1  0  0  0  0
 21 19  1  6  0  0  0
 21 20  1  0  0  0  0
 21 15  1  0  0  0  0
 22 13  1  0  0  0  0
 24 23  1  0  0  0  0
 26 25  1  0  0  0  0
 27 26  1  0  0  0  0
 28 36  1  0  0  0  0
 28 27  1  0  0  0  0
 29 30  1  0  0  0  0
 30 33  1  6  0  0  0
 30 28  1  0  0  0  0
 32 31  1  6  0  0  0
 32 29  1  0  0  0  0
 32 30  1  0  0  0  0
 34 35  1  0  0  0  0
 35 33  1  0  0  0  0
 36 37  1  0  0  0  0
M  END
>  <MODEL>
5

>  <REMARK>
 VINA RESULT:      -4.2      3.292      8.512
  Name = 
  12 active torsions:
  status: ('A' for Active; 'I' for Inactive)
    1  A    between atoms: C_1  and  C_20
    2  A    between atoms: C_3  and  C_21
    3  A    between atoms: C_3  and  C_30
    4  A    between atoms: C_5  and  O_23
    5  A    between atoms: C_6  and  O_8
    6  A    between atoms: C_6  and  N_31
    7  A    between atoms: C_7  and  O_27
    8  A    between atoms: C_7  and  N_31
    9  A    between atoms: O_8  and  C_19
   10  A    between atoms: C_10  and  C_26
   11  A    between atoms: C_10  and  O_27
   12  A    between atoms: C_14  and  N_31
                            x       y       z     vdW  Elec       q    Type
                         _______ _______ _______ _____ _____    ______ ____

>  <TORSDO>
F 12

$$$$
=
 OpenBabel11062409093D

 37 40  0  0  1  0  0  0  0  0999 V2000
  161.2740  208.8380  153.5210 C   0  0  1  0  0  0  0  0  0  0  0  0
  161.0040  209.9270  154.5960 C   0  0  2  0  0  3  0  0  0  0  0  0
  157.9210  211.0950  152.7870 N   0  0  0  0  0  1  0  0  0  0  0  0
  159.5840  210.4950  154.4640 C   0  0  2  0  0  3  0  0  0  0  0  0
  159.3360  211.2020  153.1070 C   0  0  1  0  0  0  0  0  0  0  0  0
  160.4180  209.0640  152.2480 C   0  0  0  0  0  2  0  0  0  0  0  0
  160.1510  210.5440  151.9800 C   0  0  0  0  0  2  0  0  0  0  0  0
  159.1680  211.3020  155.6890 C   0  0  0  0  0  1  0  0  0  0  0  0
  162.6260  208.8730  153.1630 O   0  0  0  0  0  1  0  0  0  0  0  0
  160.9810  207.4770  154.2080 C   0  0  2  0  0  3  0  0  0  0  0  0
  161.5550  206.2180  153.6230 C   0  0  1  0  0  3  0  0  0  0  0  0
  160.2220  206.6130  153.3900 O   0  0  0  0  0  0  0  0  0  0  0  0
  162.3750  206.3720  152.3440 C   0  0  1  0  0  3  0  0  0  0  0  0
  163.6710  205.8990  152.5520 O   0  0  0  0  0  1  0  0  0  0  0  0
  160.6470  203.4660  150.4400 C   0  0  0  0  0  2  0  0  0  0  0  0
  161.6870  206.3220  149.8490 C   0  0  0  0  0  2  0  0  0  0  0  0
  161.3490  204.3700  151.4180 C   0  0  0  0  0  3  0  0  0  0  0  0
  160.4040  206.0220  149.0880 C   0  0  0  0  0  2  0  0  0  0  0  0
  160.9780  202.2920  148.2800 C   0  0  0  0  0  1  0  0  0  0  0  0
  160.5370  204.7340  148.2680 C   0  0  0  0  0  2  0  0  0  0  0  0
  161.2060  203.5870  149.0290 C   0  0  1  0  0  3  0  0  0  0  0  0
  161.7400  205.6420  151.2000 C   0  0  0  0  0  0  0  0  0  0  0  0
  162.8550  210.6750  155.5620 C   0  0  0  0  0  1  0  0  0  0  0  0
  161.9500  210.9590  154.5380 O   0  0  0  0  0  0  0  0  0  0  0  0
  159.7280  212.6820  153.1790 C   0  0  0  0  0  2  0  0  0  0  0  0
  158.8170  213.4820  152.4820 O   0  0  0  0  0  0  0  0  0  0  0  0
  159.5960  214.1780  151.5550 C   0  0  0  0  0  2  0  0  0  0  0  0
  158.9090  214.2210  150.2670 N   0  0  0  0  0  0  0  0  0  0  0  0
  160.7820  212.7100  149.4330 C   0  0  0  0  0  2  0  0  0  0  0  0
  159.8200  213.8570  149.1740 C   0  0  2  0  0  0  0  0  0  0  0  0
  162.0470  214.4530  148.3110 N   0  0  0  0  0  1  0  0  0  0  0  0
  161.2790  214.1490  149.5080 C   0  0  2  0  0  3  0  0  0  0  0  0
  159.4480  214.1580  147.8450 O   0  0  0  0  0  0  0  0  0  0  0  0
  158.9650  213.2100  145.7160 C   0  0  0  0  0  1  0  0  0  0  0  0
  159.3890  212.9460  147.1450 C   0  0  0  0  0  2  0  0  0  0  0  0
  157.6970  213.3870  150.2760 C   0  0  0  0  0  2  0  0  0  0  0  0
  156.4680  214.0840  149.6950 C   0  0  0  0  0  1  0  0  0  0  0  0
  1  9  1  6  0  0  0
  1 10  1  0  0  0  0
  1  2  1  0  0  0  0
  2 24  1  6  0  0  0
  4  2  1  0  0  0  0
  4  8  1  1  0  0  0
  5  3  1  6  0  0  0
  5 25  1  0  0  0  0
  5  4  1  0  0  0  0
  6  1  1  0  0  0  0
  7  6  1  0  0  0  0
  7  5  1  0  0  0  0
 10 12  1  6  0  0  0
 11 13  1  6  0  0  0
 11 10  1  0  0  0  0
 12 11  1  0  0  0  0
 13 14  1  1  0  0  0
 15 17  1  0  0  0  0
 16 22  1  0  0  0  0
 18 16  1  0  0  0  0
 20 21  1  0  0  0  0
 20 18  1  0  0  0  0
 21 19  1  6  0  0  0
 21 15  1  0  0  0  0
 22 17  2  0  0  0  0
 22 13  1  0  0  0  0
 24 23  1  0  0  0  0
 26 25  1  0  0  0  0
 27 26  1  0  0  0  0
 28 36  1  0  0  0  0
 28 27  1  0  0  0  0
 29 32  1  0  0  0  0
 30 33  1  6  0  0  0
 30 29  1  0  0  0  0
 30 32  1  0  0  0  0
 30 28  1  0  0  0  0
 32 31  1  6  0  0  0
 34 35  1  0  0  0  0
 35 33  1  0  0  0  0
 37 36  1  0  0  0  0
M  END
>  <MODEL>
6

>  <REMARK>
 VINA RESULT:      -4.0      3.201      5.205
  Name = 
  12 active torsions:
  status: ('A' for Active; 'I' for Inactive)
    1  A    between atoms: C_1  and  C_20
    2  A    between atoms: C_3  and  C_21
    3  A    between atoms: C_3  and  C_30
    4  A    between atoms: C_5  and  O_23
    5  A    between atoms: C_6  and  O_8
    6  A    between atoms: C_6  and  N_31
    7  A    between atoms: C_7  and  O_27
    8  A    between atoms: C_7  and  N_31
    9  A    between atoms: O_8  and  C_19
   10  A    between atoms: C_10  and  C_26
   11  A    between atoms: C_10  and  O_27
   12  A    between atoms: C_14  and  N_31
                            x       y       z     vdW  Elec       q    Type
                         _______ _______ _______ _____ _____    ______ ____

>  <TORSDO>
F 12

$$$$
=
 OpenBabel11062409093D

 37 40  0  0  1  0  0  0  0  0999 V2000
  161.1540  207.5380  153.1540 C   0  0  1  0  0  0  0  0  0  0  0  0
  161.5550  209.0280  153.3460 C   0  0  2  0  0  3  0  0  0  0  0  0
  161.1650  208.7560  157.0770 N   0  0  0  0  0  1  0  0  0  0  0  0
  161.8750  209.3290  154.8170 C   0  0  2  0  0  3  0  0  0  0  0  0
  160.6630  209.1150  155.7600 C   0  0  1  0  0  0  0  0  0  0  0  0
  160.5270  206.9420  154.4410 C   0  0  0  0  0  2  0  0  0  0  0  0
  159.7550  207.9820  155.2490 C   0  0  0  0  0  2  0  0  0  0  0  0
  162.5900  210.6640  154.9910 C   0  0  0  0  0  1  0  0  0  0  0  0
  160.2200  207.4460  152.1180 O   0  0  0  0  0  1  0  0  0  0  0  0
  162.4490  206.8010  152.7180 C   0  0  2  0  0  3  0  0  0  0  0  0
  162.7150  206.5810  151.2560 C   0  0  1  0  0  3  0  0  0  0  0  0
  162.1800  205.5710  152.0810 O   0  0  0  0  0  0  0  0  0  0  0  0
  161.6470  207.0820  150.2860 C   0  0  1  0  0  3  0  0  0  0  0  0
  161.8770  208.4250  149.9810 O   0  0  0  0  0  1  0  0  0  0  0  0
  162.3160  206.1680  146.5750 C   0  0  0  0  0  2  0  0  0  0  0  0
  160.8980  204.9410  149.0390 C   0  0  0  0  0  2  0  0  0  0  0  0
  162.1760  206.8170  147.9270 C   0  0  0  0  0  3  0  0  0  0  0  0
  161.5950  203.8770  148.2040 C   0  0  0  0  0  2  0  0  0  0  0  0
  160.9780  205.3070  144.6720 C   0  0  0  0  0  1  0  0  0  0  0  0
  161.1480  203.9440  146.7400 C   0  0  0  0  0  2  0  0  0  0  0  0
  161.0830  205.3680  146.1810 C   0  0  1  0  0  3  0  0  0  0  0  0
  161.6280  206.2670  149.0290 C   0  0  0  0  0  0  0  0  0  0  0  0
  161.2130  210.7240  151.9590 C   0  0  0  0  0  1  0  0  0  0  0  0
  160.5620  209.8970  152.8760 O   0  0  0  0  0  0  0  0  0  0  0  0
  159.8200  210.3900  155.8690 C   0  0  0  0  0  2  0  0  0  0  0  0
  158.4580  210.1110  155.7140 O   0  0  0  0  0  0  0  0  0  0  0  0
  157.8220  210.9410  156.6390 C   0  0  0  0  0  2  0  0  0  0  0  0
  156.6890  211.6110  156.0040 N   0  0  0  0  0  0  0  0  0  0  0  0
  156.3180  213.1670  154.0230 C   0  0  0  0  0  2  0  0  0  0  0  0
  157.1340  212.7880  155.2460 C   0  0  2  0  0  0  0  0  0  0  0  0
  158.6560  213.3650  153.4010 N   0  0  0  0  0  1  0  0  0  0  0  0
  157.6400  212.4290  153.8540 C   0  0  2  0  0  3  0  0  0  0  0  0
  157.8850  213.7830  155.9090 O   0  0  0  0  0  0  0  0  0  0  0  0
  155.7490  214.4520  156.7170 C   0  0  0  0  0  1  0  0  0  0  0  0
  157.1850  214.1280  157.0720 C   0  0  0  0  0  2  0  0  0  0  0  0
  155.9130  210.6790  155.1710 C   0  0  0  0  0  2  0  0  0  0  0  0
  154.6510  210.1530  155.8510 C   0  0  0  0  0  1  0  0  0  0  0  0
  1  9  1  6  0  0  0
  1  2  1  0  0  0  0
  1  6  1  0  0  0  0
  2 24  1  1  0  0  0
  2  4  1  0  0  0  0
  4  8  1  6  0  0  0
  4  5  1  0  0  0  0
  5 25  1  0  0  0  0
  5  3  1  1  0  0  0
  6  7  1  0  0  0  0
  7  5  1  0  0  0  0
 10 12  1  1  0  0  0
 10  1  1  0  0  0  0
 11 13  1  6  0  0  0
 11 12  1  0  0  0  0
 11 10  1  0  0  0  0
 13 14  1  6  0  0  0
 15 17  1  0  0  0  0
 17 22  2  0  0  0  0
 18 16  1  0  0  0  0
 20 18  1  0  0  0  0
 21 19  1  6  0  0  0
 21 15  1  0  0  0  0
 21 20  1  0  0  0  0
 22 16  1  0  0  0  0
 22 13  1  0  0  0  0
 23 24  1  0  0  0  0
 26 25  1  0  0  0  0
 26 27  1  0  0  0  0
 28 27  1  0  0  0  0
 29 30  1  0  0  0  0
 30 33  1  1  0  0  0
 30 28  1  0  0  0  0
 32 31  1  6  0  0  0
 32 29  1  0  0  0  0
 32 30  1  0  0  0  0
 33 35  1  0  0  0  0
 34 35  1  0  0  0  0
 36 37  1  0  0  0  0
 36 28  1  0  0  0  0
M  END
>  <MODEL>
7

>  <REMARK>
 VINA RESULT:      -3.9      1.594      2.386
  Name = 
  12 active torsions:
  status: ('A' for Active; 'I' for Inactive)
    1  A    between atoms: C_1  and  C_20
    2  A    between atoms: C_3  and  C_21
    3  A    between atoms: C_3  and  C_30
    4  A    between atoms: C_5  and  O_23
    5  A    between atoms: C_6  and  O_8
    6  A    between atoms: C_6  and  N_31
    7  A    between atoms: C_7  and  O_27
    8  A    between atoms: C_7  and  N_31
    9  A    between atoms: O_8  and  C_19
   10  A    between atoms: C_10  and  C_26
   11  A    between atoms: C_10  and  O_27
   12  A    between atoms: C_14  and  N_31
                            x       y       z     vdW  Elec       q    Type
                         _______ _______ _______ _____ _____    ______ ____

>  <TORSDO>
F 12

$$$$
=
 OpenBabel11062409093D

 37 40  0  0  1  0  0  0  0  0999 V2000
  161.3570  208.9870  151.9650 C   0  0  1  0  0  0  0  0  0  0  0  0
  161.8000  207.5240  152.2430 C   0  0  2  0  0  3  0  0  0  0  0  0
  163.3020  207.2200  148.8090 N   0  0  0  0  0  1  0  0  0  0  0  0
  162.8040  207.0400  151.1870 C   0  0  2  0  0  3  0  0  0  0  0  0
  162.2150  207.0150  149.7540 C   0  0  1  0  0  0  0  0  0  0  0  0
  161.4460  209.3380  150.4580 C   0  0  0  0  0  2  0  0  0  0  0  0
  161.1730  208.1320  149.5610 C   0  0  0  0  0  2  0  0  0  0  0  0
  163.5130  205.7570  151.6080 C   0  0  0  0  0  1  0  0  0  0  0  0
  160.0330  209.1510  152.3850 O   0  0  0  0  0  1  0  0  0  0  0  0
  162.2680  209.8840  152.8470 C   0  0  2  0  0  3  0  0  0  0  0  0
  161.8350  210.2260  154.2440 C   0  0  1  0  0  3  0  0  0  0  0  0
  161.6620  211.1180  153.1660 O   0  0  0  0  0  0  0  0  0  0  0  0
  160.4800  209.6810  154.6910 C   0  0  1  0  0  3  0  0  0  0  0  0
  160.6670  208.6460  155.6090 O   0  0  0  0  0  1  0  0  0  0  0  0
  157.2640  211.6550  155.5940 C   0  0  0  0  0  2  0  0  0  0  0  0
  160.3200  211.8840  156.0390 C   0  0  0  0  0  2  0  0  0  0  0  0
  158.3090  210.7150  155.0510 C   0  0  0  0  0  3  0  0  0  0  0  0
  159.5370  212.3510  157.2580 C   0  0  0  0  0  2  0  0  0  0  0  0
  156.5320  214.0230  155.5070 C   0  0  0  0  0  1  0  0  0  0  0  0
  158.5120  213.4240  156.8780 C   0  0  0  0  0  2  0  0  0  0  0  0
  157.7310  213.1040  155.6010 C   0  0  1  0  0  3  0  0  0  0  0  0
  159.6340  210.7580  155.2970 C   0  0  0  0  0  0  0  0  0  0  0  0
  160.8110  206.0340  153.5550 C   0  0  0  0  0  1  0  0  0  0  0  0
  160.7040  206.6530  152.3080 O   0  0  0  0  0  0  0  0  0  0  0  0
  161.5360  205.6730  149.4630 C   0  0  0  0  0  2  0  0  0  0  0  0
  160.3710  205.8480  148.7070 O   0  0  0  0  0  0  0  0  0  0  0  0
  160.6220  205.1710  147.5120 C   0  0  0  0  0  2  0  0  0  0  0  0
  161.6960  204.2010  147.7110 N   0  0  0  0  0  0  0  0  0  0  0  0
  160.0100  202.4570  148.4870 C   0  0  0  0  0  2  0  0  0  0  0  0
  161.1890  202.8260  147.6040 C   0  0  2  0  0  0  0  0  0  0  0  0
  161.5740  200.6030  148.5870 N   0  0  0  0  0  1  0  0  0  0  0  0
  161.4170  202.0190  148.8780 C   0  0  2  0  0  3  0  0  0  0  0  0
  161.4030  202.1110  146.4060 O   0  0  0  0  0  0  0  0  0  0  0  0
  159.7190  201.3610  144.9010 C   0  0  0  0  0  1  0  0  0  0  0  0
  160.4490  202.5540  145.4810 C   0  0  0  0  0  2  0  0  0  0  0  0
  162.8190  204.4480  146.7940 C   0  0  0  0  0  2  0  0  0  0  0  0
  162.5450  205.5480  145.7700 C   0  0  0  0  0  1  0  0  0  0  0  0
  1  2  1  0  0  0  0
  1  9  1  1  0  0  0
  1 10  1  0  0  0  0
  2 24  1  6  0  0  0
  4  8  1  1  0  0  0
  4  2  1  0  0  0  0
  5  3  1  6  0  0  0
  5  4  1  0  0  0  0
  6  1  1  0  0  0  0
  7  5  1  0  0  0  0
  7  6  1  0  0  0  0
 10 12  1  6  0  0  0
 10 11  1  0  0  0  0
 11 13  1  6  0  0  0
 12 11  1  0  0  0  0
 13 22  1  0  0  0  0
 13 14  1  1  0  0  0
 15 21  1  0  0  0  0
 16 18  1  0  0  0  0
 17 22  2  0  0  0  0
 17 15  1  0  0  0  0
 20 18  1  0  0  0  0
 21 19  1  1  0  0  0
 21 20  1  0  0  0  0
 22 16  1  0  0  0  0
 24 23  1  0  0  0  0
 25  5  1  0  0  0  0
 26 25  1  0  0  0  0
 27 28  1  0  0  0  0
 27 26  1  0  0  0  0
 29 32  1  0  0  0  0
 30 33  1  6  0  0  0
 30 28  1  0  0  0  0
 30 29  1  0  0  0  0
 30 32  1  0  0  0  0
 32 31  1  6  0  0  0
 34 35  1  0  0  0  0
 35 33  1  0  0  0  0
 36 28  1  0  0  0  0
 37 36  1  0  0  0  0
M  END
>  <MODEL>
8

>  <REMARK>
 VINA RESULT:      -3.6      3.357     10.103
  Name = 
  12 active torsions:
  status: ('A' for Active; 'I' for Inactive)
    1  A    between atoms: C_1  and  C_20
    2  A    between atoms: C_3  and  C_21
    3  A    between atoms: C_3  and  C_30
    4  A    between atoms: C_5  and  O_23
    5  A    between atoms: C_6  and  O_8
    6  A    between atoms: C_6  and  N_31
    7  A    between atoms: C_7  and  O_27
    8  A    between atoms: C_7  and  N_31
    9  A    between atoms: O_8  and  C_19
   10  A    between atoms: C_10  and  C_26
   11  A    between atoms: C_10  and  O_27
   12  A    between atoms: C_14  and  N_31
                            x       y       z     vdW  Elec       q    Type
                         _______ _______ _______ _____ _____    ______ ____

>  <TORSDO>
F 12

$$$$
=
 OpenBabel11062409093D

 37 40  0  0  1  0  0  0  0  0999 V2000
  161.6090  207.8120  150.0880 C   0  0  1  0  0  0  0  0  0  0  0  0
  161.0720  207.6210  151.5350 C   0  0  2  0  0  3  0  0  0  0  0  0
  161.0320  211.3360  152.1170 N   0  0  0  0  0  1  0  0  0  0  0  0
  160.5560  208.9470  152.1120 C   0  0  2  0  0  3  0  0  0  0  0  0
  161.6590  210.0290  152.2330 C   0  0  1  0  0  0  0  0  0  0  0  0
  162.1220  209.2560  149.8520 C   0  0  0  0  0  2  0  0  0  0  0  0
  162.7070  209.8810  151.1160 C   0  0  0  0  0  2  0  0  0  0  0  0
  159.7220  208.7420  153.3720 C   0  0  0  0  0  1  0  0  0  0  0  0
  162.6650  206.9210  149.8710 O   0  0  0  0  0  1  0  0  0  0  0  0
  160.4370  207.4270  149.1450 C   0  0  2  0  0  3  0  0  0  0  0  0
  160.1370  205.9770  148.8970 C   0  0  1  0  0  3  0  0  0  0  0  0
  160.8780  206.7540  147.9850 O   0  0  0  0  0  0  0  0  0  0  0  0
  161.0510  204.9640  149.5830 C   0  0  1  0  0  3  0  0  0  0  0  0
  160.5640  204.6740  150.8590 O   0  0  0  0  0  1  0  0  0  0  0  0
  161.6500  202.7120  146.4810 C   0  0  0  0  0  2  0  0  0  0  0  0
  160.8550  202.3860  149.4560 C   0  0  0  0  0  2  0  0  0  0  0  0
  161.4390  203.8310  147.4660 C   0  0  0  0  0  3  0  0  0  0  0  0
  161.7590  201.2550  148.9880 C   0  0  0  0  0  2  0  0  0  0  0  0
  160.4680  200.8320  145.3760 C   0  0  0  0  0  1  0  0  0  0  0  0
  161.1940  200.5780  147.7360 C   0  0  0  0  0  2  0  0  0  0  0  0
  160.6740  201.5630  146.6860 C   0  0  1  0  0  3  0  0  0  0  0  0
  161.1670  203.7040  148.7800 C   0  0  0  0  0  0  0  0  0  0  0  0
  161.3290  206.2660  153.2710 C   0  0  0  0  0  1  0  0  0  0  0  0
  162.0430  207.0670  152.3790 O   0  0  0  0  0  0  0  0  0  0  0  0
  162.3800  209.9300  153.5810 C   0  0  0  0  0  2  0  0  0  0  0  0
  161.4680  209.8230  154.6370 O   0  0  0  0  0  0  0  0  0  0  0  0
  161.9430  210.7110  155.6030 C   0  0  0  0  0  2  0  0  0  0  0  0
  161.0390  210.7210  156.7510 N   0  0  0  0  0  0  0  0  0  0  0  0
  160.0050  212.6020  155.3790 C   0  0  0  0  0  2  0  0  0  0  0  0
  159.8740  211.5780  156.4930 C   0  0  2  0  0  0  0  0  0  0  0  0
  158.9180  213.7190  157.2410 N   0  0  0  0  0  1  0  0  0  0  0  0
  160.1380  213.0410  156.8330 C   0  0  2  0  0  3  0  0  0  0  0  0
  158.5900  211.1110  156.8530 O   0  0  0  0  0  0  0  0  0  0  0  0
  156.4620  211.4780  155.8510 C   0  0  0  0  0  1  0  0  0  0  0  0
  157.8640  210.9360  155.6680 C   0  0  0  0  0  2  0  0  0  0  0  0
  160.6460  209.3570  157.1360 C   0  0  0  0  0  2  0  0  0  0  0  0
  161.7850  208.3420  157.0460 C   0  0  0  0  0  1  0  0  0  0  0  0
  1  9  1  6  0  0  0
  1  2  1  0  0  0  0
  2  4  1  0  0  0  0
  2 24  1  1  0  0  0
  4  5  1  0  0  0  0
  4  8  1  1  0  0  0
  5  3  1  6  0  0  0
  5 25  1  0  0  0  0
  6  1  1  0  0  0  0
  6  7  1  0  0  0  0
  7  5  1  0  0  0  0
 10 12  1  6  0  0  0
 10  1  1  0  0  0  0
 11 10  1  0  0  0  0
 11 13  1  1  0  0  0
 12 11  1  0  0  0  0
 13 14  1  1  0  0  0
 15 21  1  0  0  0  0
 15 17  1  0  0  0  0
 17 22  2  0  0  0  0
 18 16  1  0  0  0  0
 20 18  1  0  0  0  0
 21 19  1  6  0  0  0
 21 20  1  0  0  0  0
 22 16  1  0  0  0  0
 22 13  1  0  0  0  0
 24 23  1  0  0  0  0
 25 26  1  0  0  0  0
 26 27  1  0  0  0  0
 27 28  1  0  0  0  0
 28 36  1  0  0  0  0
 29 30  1  0  0  0  0
 29 32  1  0  0  0  0
 30 28  1  0  0  0  0
 30 32  1  0  0  0  0
 30 33  1  1  0  0  0
 32 31  1  1  0  0  0
 35 34  1  0  0  0  0
 35 33  1  0  0  0  0
 37 36  1  0  0  0  0
M  END
>  <MODEL>
9

>  <REMARK>
 VINA RESULT:      -3.5      1.843      3.696
  Name = 
  12 active torsions:
  status: ('A' for Active; 'I' for Inactive)
    1  A    between atoms: C_1  and  C_20
    2  A    between atoms: C_3  and  C_21
    3  A    between atoms: C_3  and  C_30
    4  A    between atoms: C_5  and  O_23
    5  A    between atoms: C_6  and  O_8
    6  A    between atoms: C_6  and  N_31
    7  A    between atoms: C_7  and  O_27
    8  A    between atoms: C_7  and  N_31
    9  A    between atoms: O_8  and  C_19
   10  A    between atoms: C_10  and  C_26
   11  A    between atoms: C_10  and  O_27
   12  A    between atoms: C_14  and  N_31
                            x       y       z     vdW  Elec       q    Type
                         _______ _______ _______ _____ _____    ______ ____

>  <TORSDO>
F 12

$$$$
