=
 OpenBabel11062410313D

 43 47  0  0  1  0  0  0  0  0999 V2000
  161.2240  207.3830  150.7610 N   0  0  0  0  0  0  0  0  0  0  0  0
  161.7820  207.6750  149.4640 C   0  0  0  0  0  0  0  0  0  0  0  0
  161.5950  208.8090  148.9420 O   0  0  0  0  0  0  0  0  0  0  0  0
  160.8150  202.1860  150.1370 C   0  0  0  0  0  0  0  0  0  0  0  0
  161.2590  203.9280  151.7190 C   0  0  0  0  0  0  0  0  0  0  0  0
  160.6560  203.1620  149.1280 C   0  0  0  0  0  3  0  0  0  0  0  0
  160.6510  200.7480  149.8030 C   0  0  0  0  0  1  0  0  0  0  0  0
  161.1270  204.8700  150.7370 C   0  0  0  0  0  0  0  0  0  0  0  0
  161.1140  202.5670  151.4580 C   0  0  0  0  0  3  0  0  0  0  0  0
  160.8060  204.5280  149.4240 C   0  0  0  0  0  3  0  0  0  0  0  0
  161.3040  206.0830  151.3610 C   0  0  0  0  0  0  0  0  0  0  0  0
  161.5150  205.8820  152.6480 O   0  0  0  0  0  0  0  0  0  0  0  0
  161.5020  204.5830  152.9090 C   0  0  0  0  0  3  0  0  0  0  0  0
  162.6810  206.6930  148.7700 C   0  0  0  0  0  2  0  0  0  0  0  0
  160.5440  206.3180  145.7460 C   0  0  0  0  0  2  0  0  0  0  0  0
  161.3040  205.1930  145.0380 C   0  0  0  0  0  0  0  0  0  0  0  0
  161.1050  205.3390  143.5440 C   0  0  0  0  0  1  0  0  0  0  0  0
  163.0530  205.4220  146.8450 C   0  0  0  0  0  2  0  0  0  0  0  0
  160.9330  206.4010  147.2220 C   0  0  0  0  0  2  0  0  0  0  0  0
  162.3750  206.6120  147.3490 N   0  0  0  0  0  0  0  0  0  0  0  0
  160.7540  203.8410  145.4640 C   0  0  0  0  0  1  0  0  0  0  0  0
  162.8030  205.2730  145.3420 C   0  0  0  0  0  2  0  0  0  0  0  0
  160.6770  208.4660  151.5740 C   0  0  0  0  0  2  0  0  0  0  0  0
  161.6900  209.3900  151.8950 O   0  0  0  0  0  0  0  0  0  0  0  0
  161.6290  209.7000  153.2740 C   0  0  2  0  0  3  0  0  0  0  0  0
  160.9260  208.6260  154.0960 C   0  0  0  0  0  1  0  0  0  0  0  0
  161.0650  211.0930  153.5590 C   0  0  0  0  0  2  0  0  0  0  0  0
  159.2230  211.6520  155.2240 N   0  0  0  0  0  2  0  0  0  0  0  0
  160.5650  211.2340  154.9670 C   0  0  0  0  0  0  0  0  0  0  0  0
  161.3410  211.0410  155.9400 O   0  0  0  0  0  0  0  0  0  0  0  0
  158.2920  212.0310  154.1690 C   0  0  1  0  0  3  0  0  0  0  0  0
  156.6000  213.9430  154.5440 C   0  0  0  0  0  2  0  0  0  0  0  0
  157.0000  211.2200  154.2920 C   0  0  0  0  0  2  0  0  0  0  0  0
  156.1750  211.6280  155.5200 C   0  0  0  0  0  2  0  0  0  0  0  0
  158.0410  213.5530  154.2040 C   0  0  2  0  0  3  0  0  0  0  0  0
  156.1160  213.1450  155.7510 C   0  0  0  0  0  2  0  0  0  0  0  0
  158.5350  214.2530  152.9370 C   0  0  0  0  0  2  0  0  0  0  0  0
  157.6300  214.0510  151.7630 C   0  0  0  0  0  0  0  0  0  0  0  0
  155.9360  213.6950  149.5640 C   0  0  0  0  0  3  0  0  0  0  0  0
  155.4450  214.2750  150.7370 C   0  0  0  0  0  3  0  0  0  0  0  0
  157.2730  213.2920  149.4890 C   0  0  0  0  0  3  0  0  0  0  0  0
  156.2900  214.4530  151.8360 C   0  0  0  0  0  3  0  0  0  0  0  0
  158.1190  213.4690  150.5880 C   0  0  0  0  0  3  0  0  0  0  0  0
  1 11  1  0  0  0  0
  1 23  1  0  0  0  0
  2  1  1  0  0  0  0
  3  2  2  0  0  0  0
  4  9  2  0  0  0  0
  5 13  2  0  0  0  0
  6 10  2  0  0  0  0
  6  4  1  0  0  0  0
  7  4  1  0  0  0  0
  8 11  2  0  0  0  0
  8  5  1  0  0  0  0
  9  5  1  0  0  0  0
 10  8  1  0  0  0  0
 11 12  1  0  0  0  0
 12 13  1  0  0  0  0
 14  2  1  0  0  0  0
 15 19  1  0  0  0  0
 16 22  1  0  0  0  0
 16 21  1  0  0  0  0
 16 15  1  0  0  0  0
 17 16  1  0  0  0  0
 18 20  1  0  0  0  0
 19 20  1  0  0  0  0
 20 14  1  0  0  0  0
 22 18  1  0  0  0  0
 23 24  1  0  0  0  0
 24 25  1  0  0  0  0
 25 27  1  0  0  0  0
 25 26  1  1  0  0  0
 27 29  1  0  0  0  0
 29 28  1  0  0  0  0
 29 30  2  0  0  0  0
 31 35  1  0  0  0  0
 31 33  1  0  0  0  0
 31 28  1  1  0  0  0
 32 36  1  0  0  0  0
 33 34  1  0  0  0  0
 34 36  1  0  0  0  0
 35 37  1  6  0  0  0
 35 32  1  0  0  0  0
 38 42  1  0  0  0  0
 38 37  1  0  0  0  0
 39 40  1  0  0  0  0
 40 42  2  0  0  0  0
 41 39  2  0  0  0  0
 41 43  1  0  0  0  0
 43 38  2  0  0  0  0
M  END
>  <MODEL>
1

>  <REMARK>
 VINA RESULT:      -8.6      0.000      0.000
  Name = 
  11 active torsions:
  status: ('A' for Active; 'I' for Inactive)
    1  A    between atoms: C_1  and  C_34
    2  A    between atoms: C_1  and  N_35
    3  A    between atoms: C_2  and  C_6
    4  A    between atoms: C_2  and  O_13
    5  A    between atoms: N_3  and  C_4
    6  A    between atoms: C_6  and  C_12
    7  A    between atoms: N_8  and  C_27
    8  A    between atoms: N_8  and  C_30
    9  A    between atoms: C_11  and  C_14
   10  A    between atoms: O_13  and  C_27
   11  A    between atoms: C_14  and  C_41
                            x       y       z     vdW  Elec       q    Type
                         _______ _______ _______ _____ _____    ______ ____

>  <TORSDO>
F 11

$$$$
=
 OpenBabel11062410313D

 43 47  0  0  1  0  0  0  0  0999 V2000
  161.6530  207.9810  151.5800 N   0  0  0  0  0  0  0  0  0  0  0  0
  161.5580  206.7510  150.8340 C   0  0  0  0  0  0  0  0  0  0  0  0
  161.8460  206.7400  149.6050 O   0  0  0  0  0  0  0  0  0  0  0  0
  159.2610  210.8520  155.2680 C   0  0  0  0  0  0  0  0  0  0  0  0
  160.4110  208.7950  154.8440 C   0  0  0  0  0  0  0  0  0  0  0  0
  159.4130  211.2010  153.9080 C   0  0  0  0  0  3  0  0  0  0  0  0
  158.5700  211.7850  156.1950 C   0  0  0  0  0  1  0  0  0  0  0  0
  160.5370  209.1250  153.5230 C   0  0  0  0  0  0  0  0  0  0  0  0
  159.7730  209.6340  155.7540 C   0  0  0  0  0  3  0  0  0  0  0  0
  160.0650  210.3330  153.0150 C   0  0  0  0  0  3  0  0  0  0  0  0
  161.2360  208.0880  152.9480 C   0  0  0  0  0  0  0  0  0  0  0  0
  161.5270  207.1950  153.8750 O   0  0  0  0  0  0  0  0  0  0  0  0
  161.0380  207.5820  155.0440 C   0  0  0  0  0  3  0  0  0  0  0  0
  161.2320  205.4550  151.5170 C   0  0  0  0  0  2  0  0  0  0  0  0
  161.0870  203.2430  148.5280 C   0  0  0  0  0  2  0  0  0  0  0  0
  160.8410  201.8990  149.2190 C   0  0  0  0  0  0  0  0  0  0  0  0
  161.4410  200.7990  148.3690 C   0  0  0  0  0  1  0  0  0  0  0  0
  161.1580  203.1210  151.4060 C   0  0  0  0  0  2  0  0  0  0  0  0
  160.7650  204.4100  149.4620 C   0  0  0  0  0  2  0  0  0  0  0  0
  161.5740  204.3160  150.6770 N   0  0  0  0  0  0  0  0  0  0  0  0
  159.3480  201.6420  149.3510 C   0  0  0  0  0  1  0  0  0  0  0  0
  161.5050  201.8680  150.5990 C   0  0  0  0  0  2  0  0  0  0  0  0
  162.3240  209.1350  150.9900 C   0  0  0  0  0  2  0  0  0  0  0  0
  161.5650  209.6400  149.9160 O   0  0  0  0  0  0  0  0  0  0  0  0
  161.9930  210.9520  149.6090 C   0  0  2  0  0  3  0  0  0  0  0  0
  161.1100  212.0290  150.2310 C   0  0  0  0  0  1  0  0  0  0  0  0
  162.2040  211.1880  148.1120 C   0  0  0  0  0  2  0  0  0  0  0  0
  161.1720  213.1980  146.9410 N   0  0  0  0  0  2  0  0  0  0  0  0
  162.2100  212.6450  147.7530 C   0  0  0  0  0  0  0  0  0  0  0  0
  163.1600  213.3870  148.1190 O   0  0  0  0  0  0  0  0  0  0  0  0
  160.1060  212.3950  146.3560 C   0  0  1  0  0  3  0  0  0  0  0  0
  158.3920  213.4660  144.7520 C   0  0  0  0  0  2  0  0  0  0  0  0
  158.8740  212.4180  147.2630 C   0  0  0  0  0  2  0  0  0  0  0  0
  158.1850  213.7900  147.2710 C   0  0  0  0  0  2  0  0  0  0  0  0
  159.7970  212.8830  144.9250 C   0  0  2  0  0  3  0  0  0  0  0  0
  158.0910  214.4430  145.8850 C   0  0  0  0  0  2  0  0  0  0  0  0
  160.1050  211.8190  143.8700 C   0  0  0  0  0  2  0  0  0  0  0  0
  161.0300  212.3040  142.8000 C   0  0  0  0  0  0  0  0  0  0  0  0
  162.7800  213.2090  140.8110 C   0  0  0  0  0  3  0  0  0  0  0  0
  162.5330  213.9990  141.9370 C   0  0  0  0  0  3  0  0  0  0  0  0
  162.1530  211.9660  140.6780 C   0  0  0  0  0  3  0  0  0  0  0  0
  161.6590  213.5490  142.9310 C   0  0  0  0  0  3  0  0  0  0  0  0
  161.2790  211.5140  141.6710 C   0  0  0  0  0  3  0  0  0  0  0  0
  1 11  1  0  0  0  0
  2 14  1  0  0  0  0
  2  1  1  0  0  0  0
  3  2  2  0  0  0  0
  4  9  2  0  0  0  0
  4  7  1  0  0  0  0
  5 13  2  0  0  0  0
  5  9  1  0  0  0  0
  6  4  1  0  0  0  0
  8  5  1  0  0  0  0
 10  8  1  0  0  0  0
 10  6  2  0  0  0  0
 11  8  2  0  0  0  0
 11 12  1  0  0  0  0
 12 13  1  0  0  0  0
 15 16  1  0  0  0  0
 15 19  1  0  0  0  0
 16 21  1  0  0  0  0
 16 22  1  0  0  0  0
 17 16  1  0  0  0  0
 19 20  1  0  0  0  0
 20 18  1  0  0  0  0
 20 14  1  0  0  0  0
 22 18  1  0  0  0  0
 23  1  1  0  0  0  0
 24 23  1  0  0  0  0
 25 24  1  0  0  0  0
 25 26  1  6  0  0  0
 27 25  1  0  0  0  0
 28 29  1  0  0  0  0
 29 27  1  0  0  0  0
 29 30  2  0  0  0  0
 31 28  1  1  0  0  0
 31 33  1  0  0  0  0
 32 35  1  0  0  0  0
 32 36  1  0  0  0  0
 33 34  1  0  0  0  0
 35 37  1  6  0  0  0
 35 31  1  0  0  0  0
 36 34  1  0  0  0  0
 38 42  1  0  0  0  0
 38 37  1  0  0  0  0
 39 40  1  0  0  0  0
 40 42  2  0  0  0  0
 41 39  2  0  0  0  0
 41 43  1  0  0  0  0
 43 38  2  0  0  0  0
M  END
>  <MODEL>
2

>  <REMARK>
 VINA RESULT:      -8.3      3.938      7.316
  Name = 
  11 active torsions:
  status: ('A' for Active; 'I' for Inactive)
    1  A    between atoms: C_1  and  C_34
    2  A    between atoms: C_1  and  N_35
    3  A    between atoms: C_2  and  C_6
    4  A    between atoms: C_2  and  O_13
    5  A    between atoms: N_3  and  C_4
    6  A    between atoms: C_6  and  C_12
    7  A    between atoms: N_8  and  C_27
    8  A    between atoms: N_8  and  C_30
    9  A    between atoms: C_11  and  C_14
   10  A    between atoms: O_13  and  C_27
   11  A    between atoms: C_14  and  C_41
                            x       y       z     vdW  Elec       q    Type
                         _______ _______ _______ _____ _____    ______ ____

>  <TORSDO>
F 11

$$$$
=
 OpenBabel11062410313D

 43 47  0  0  1  0  0  0  0  0999 V2000
  161.4450  207.9340  150.4450 N   0  0  0  0  0  0  0  0  0  0  0  0
  161.7840  208.2340  149.0770 C   0  0  0  0  0  0  0  0  0  0  0  0
  161.3890  209.3120  148.5550 O   0  0  0  0  0  0  0  0  0  0  0  0
  160.8060  202.7220  150.4840 C   0  0  0  0  0  0  0  0  0  0  0  0
  161.8720  204.5610  151.5860 C   0  0  0  0  0  0  0  0  0  0  0  0
  160.2410  203.6250  149.5560 C   0  0  0  0  0  3  0  0  0  0  0  0
  160.5150  201.2700  150.3700 C   0  0  0  0  0  1  0  0  0  0  0  0
  161.3430  205.4300  150.6740 C   0  0  0  0  0  0  0  0  0  0  0  0
  161.6300  203.1910  151.5240 C   0  0  0  0  0  3  0  0  0  0  0  0
  160.5030  205.0030  149.6480 C   0  0  0  0  0  3  0  0  0  0  0  0
  161.7670  206.6800  151.0640 C   0  0  0  0  0  0  0  0  0  0  0  0
  162.4960  206.5690  152.1580 O   0  0  0  0  0  0  0  0  0  0  0  0
  162.5920  205.2950  152.5080 C   0  0  0  0  0  3  0  0  0  0  0  0
  162.7000  207.3380  148.2930 C   0  0  0  0  0  2  0  0  0  0  0  0
  162.1920  204.3700  146.1070 C   0  0  0  0  0  2  0  0  0  0  0  0
  161.0860  204.9120  145.1980 C   0  0  0  0  0  0  0  0  0  0  0  0
  160.2290  203.7530  144.7350 C   0  0  0  0  0  1  0  0  0  0  0  0
  161.0440  206.9470  146.6910 C   0  0  0  0  0  2  0  0  0  0  0  0
  162.9130  205.5050  146.8350 C   0  0  0  0  0  2  0  0  0  0  0  0
  161.9560  206.2840  147.6190 N   0  0  0  0  0  0  0  0  0  0  0  0
  161.6940  205.5770  143.9730 C   0  0  0  0  0  1  0  0  0  0  0  0
  160.2000  205.9060  145.9540 C   0  0  0  0  0  2  0  0  0  0  0  0
  160.8780  208.9760  151.2960 C   0  0  0  0  0  2  0  0  0  0  0  0
  161.6740  210.1370  151.2350 O   0  0  0  0  0  0  0  0  0  0  0  0
  160.8430  211.2800  151.1980 C   0  0  2  0  0  3  0  0  0  0  0  0
  161.3500  212.3560  150.2440 C   0  0  0  0  0  1  0  0  0  0  0  0
  160.5330  211.8520  152.5830 C   0  0  0  0  0  2  0  0  0  0  0  0
  158.6960  213.0450  153.8770 N   0  0  0  0  0  2  0  0  0  0  0  0
  159.1430  212.4080  152.6790 C   0  0  0  0  0  0  0  0  0  0  0  0
  158.3350  212.2710  151.7220 O   0  0  0  0  0  0  0  0  0  0  0  0
  159.5080  213.1300  155.0840 C   0  0  1  0  0  3  0  0  0  0  0  0
  158.7510  211.9600  157.2550 C   0  0  0  0  0  2  0  0  0  0  0  0
  159.0930  214.3490  155.9110 C   0  0  0  0  0  2  0  0  0  0  0  0
  157.7080  214.1740  156.5470 C   0  0  0  0  0  2  0  0  0  0  0  0
  159.4130  211.8130  155.8830 C   0  0  2  0  0  3  0  0  0  0  0  0
  157.4670  212.7740  157.1300 C   0  0  0  0  0  2  0  0  0  0  0  0
  160.7580  211.0920  155.9750 C   0  0  0  0  0  2  0  0  0  0  0  0
  160.6250  209.6020  156.0070 C   0  0  0  0  0  0  0  0  0  0  0  0
  160.3980  206.8130  156.0590 C   0  0  0  0  0  3  0  0  0  0  0  0
  160.4390  207.4880  154.8360 C   0  0  0  0  0  3  0  0  0  0  0  0
  160.4700  207.5310  157.2570 C   0  0  0  0  0  3  0  0  0  0  0  0
  160.5530  208.8810  154.8090 C   0  0  0  0  0  3  0  0  0  0  0  0
  160.5830  208.9240  157.2310 C   0  0  0  0  0  3  0  0  0  0  0  0
  1 11  1  0  0  0  0
  1 23  1  0  0  0  0
  2  1  1  0  0  0  0
  3  2  2  0  0  0  0
  4  9  2  0  0  0  0
  5 13  2  0  0  0  0
  6 10  2  0  0  0  0
  6  4  1  0  0  0  0
  7  4  1  0  0  0  0
  8 11  2  0  0  0  0
  8  5  1  0  0  0  0
  9  5  1  0  0  0  0
 10  8  1  0  0  0  0
 11 12  1  0  0  0  0
 12 13  1  0  0  0  0
 14  2  1  0  0  0  0
 15 19  1  0  0  0  0
 16 22  1  0  0  0  0
 16 15  1  0  0  0  0
 17 16  1  0  0  0  0
 18 20  1  0  0  0  0
 19 20  1  0  0  0  0
 20 14  1  0  0  0  0
 21 16  1  0  0  0  0
 22 18  1  0  0  0  0
 24 23  1  0  0  0  0
 25 26  1  6  0  0  0
 25 24  1  0  0  0  0
 25 27  1  0  0  0  0
 27 29  1  0  0  0  0
 29 28  1  0  0  0  0
 30 29  2  0  0  0  0
 31 28  1  6  0  0  0
 31 35  1  0  0  0  0
 31 33  1  0  0  0  0
 33 34  1  0  0  0  0
 34 36  1  0  0  0  0
 35 37  1  1  0  0  0
 35 32  1  0  0  0  0
 36 32  1  0  0  0  0
 37 38  1  0  0  0  0
 38 43  1  0  0  0  0
 39 41  1  0  0  0  0
 40 39  2  0  0  0  0
 42 40  1  0  0  0  0
 42 38  2  0  0  0  0
 43 41  2  0  0  0  0
M  END
>  <MODEL>
3

>  <REMARK>
 VINA RESULT:      -8.0      1.968      3.994
  Name = 
  11 active torsions:
  status: ('A' for Active; 'I' for Inactive)
    1  A    between atoms: C_1  and  C_34
    2  A    between atoms: C_1  and  N_35
    3  A    between atoms: C_2  and  C_6
    4  A    between atoms: C_2  and  O_13
    5  A    between atoms: N_3  and  C_4
    6  A    between atoms: C_6  and  C_12
    7  A    between atoms: N_8  and  C_27
    8  A    between atoms: N_8  and  C_30
    9  A    between atoms: C_11  and  C_14
   10  A    between atoms: O_13  and  C_27
   11  A    between atoms: C_14  and  C_41
                            x       y       z     vdW  Elec       q    Type
                         _______ _______ _______ _____ _____    ______ ____

>  <TORSDO>
F 11

$$$$
=
 OpenBabel11062410313D

 43 47  0  0  1  0  0  0  0  0999 V2000
  161.7600  208.6570  149.9800 N   0  0  0  0  0  0  0  0  0  0  0  0
  162.1540  209.1970  151.2570 C   0  0  0  0  0  0  0  0  0  0  0  0
  162.5150  210.4030  151.3430 O   0  0  0  0  0  0  0  0  0  0  0  0
  161.6420  204.5470  146.7150 C   0  0  0  0  0  0  0  0  0  0  0  0
  161.1440  205.2810  148.9380 C   0  0  0  0  0  0  0  0  0  0  0  0
  162.1180  205.8420  146.4090 C   0  0  0  0  0  3  0  0  0  0  0  0
  161.6610  203.4900  145.6710 C   0  0  0  0  0  1  0  0  0  0  0  0
  161.6250  206.5270  148.6480 C   0  0  0  0  0  0  0  0  0  0  0  0
  161.1380  204.2560  147.9960 C   0  0  0  0  0  3  0  0  0  0  0  0
  162.1080  206.8560  147.3830 C   0  0  0  0  0  3  0  0  0  0  0  0
  161.4450  207.2710  149.7920 C   0  0  0  0  0  0  0  0  0  0  0  0
  160.8730  206.5180  150.7120 O   0  0  0  0  0  0  0  0  0  0  0  0
  160.6770  205.2960  150.2370 C   0  0  0  0  0  3  0  0  0  0  0  0
  162.0320  208.3820  152.5120 C   0  0  0  0  0  2  0  0  0  0  0  0
  161.1300  210.8720  155.1270 C   0  0  0  0  0  2  0  0  0  0  0  0
  160.6230  209.9220  156.2160 C   0  0  0  0  0  0  0  0  0  0  0  0
  159.5740  210.6430  157.0370 C   0  0  0  0  0  1  0  0  0  0  0  0
  160.8990  208.0620  154.5310 C   0  0  0  0  0  2  0  0  0  0  0  0
  161.9710  210.1240  154.0920 C   0  0  0  0  0  2  0  0  0  0  0  0
  161.1850  209.0470  153.4920 N   0  0  0  0  0  0  0  0  0  0  0  0
  161.7640  209.5250  157.1390 C   0  0  0  0  0  1  0  0  0  0  0  0
  159.9860  208.6740  155.5960 C   0  0  0  0  0  2  0  0  0  0  0  0
  161.5290  209.5570  148.8540 C   0  0  0  0  0  2  0  0  0  0  0  0
  162.4820  210.5940  148.8590 O   0  0  0  0  0  0  0  0  0  0  0  0
  161.8580  211.8140  148.5090 C   0  0  2  0  0  3  0  0  0  0  0  0
  160.8380  212.2800  149.5420 C   0  0  0  0  0  1  0  0  0  0  0  0
  161.2740  211.8140  147.0950 C   0  0  0  0  0  2  0  0  0  0  0  0
  161.1410  213.2760  145.0170 N   0  0  0  0  0  2  0  0  0  0  0  0
  161.7450  212.9810  146.2780 C   0  0  0  0  0  0  0  0  0  0  0  0
  162.7170  213.6810  146.6680 O   0  0  0  0  0  0  0  0  0  0  0  0
  160.1060  212.4450  144.4160 C   0  0  1  0  0  3  0  0  0  0  0  0
  158.9640  213.1640  142.2170 C   0  0  0  0  0  2  0  0  0  0  0  0
  158.7310  212.8500  144.9520 C   0  0  0  0  0  2  0  0  0  0  0  0
  158.2880  214.2240  144.4330 C   0  0  0  0  0  2  0  0  0  0  0  0
  160.1880  212.5230  142.8770 C   0  0  2  0  0  3  0  0  0  0  0  0
  158.5940  214.4520  142.9450 C   0  0  0  0  0  2  0  0  0  0  0  0
  160.5340  211.1740  142.2450 C   0  0  0  0  0  2  0  0  0  0  0  0
  161.1590  211.3030  140.8920 C   0  0  0  0  0  0  0  0  0  0  0  0
  162.3430  211.5280  138.3660 C   0  0  0  0  0  3  0  0  0  0  0  0
  162.9920  212.0450  139.4910 C   0  0  0  0  0  3  0  0  0  0  0  0
  161.1020  210.8990  138.5020 C   0  0  0  0  0  3  0  0  0  0  0  0
  162.4020  211.9330  140.7530 C   0  0  0  0  0  3  0  0  0  0  0  0
  160.5100  210.7870  139.7640 C   0  0  0  0  0  3  0  0  0  0  0  0
  1  2  1  0  0  0  0
  2  3  2  0  0  0  0
  2 14  1  0  0  0  0
  4  9  2  0  0  0  0
  5 13  2  0  0  0  0
  6  4  1  0  0  0  0
  6 10  2  0  0  0  0
  7  4  1  0  0  0  0
  8  5  1  0  0  0  0
  8 11  2  0  0  0  0
  9  5  1  0  0  0  0
 10  8  1  0  0  0  0
 11  1  1  0  0  0  0
 11 12  1  0  0  0  0
 13 12  1  0  0  0  0
 14 20  1  0  0  0  0
 15 16  1  0  0  0  0
 16 17  1  0  0  0  0
 16 21  1  0  0  0  0
 18 22  1  0  0  0  0
 19 15  1  0  0  0  0
 20 19  1  0  0  0  0
 20 18  1  0  0  0  0
 22 16  1  0  0  0  0
 23 24  1  0  0  0  0
 23  1  1  0  0  0  0
 25 24  1  0  0  0  0
 25 26  1  1  0  0  0
 27 25  1  0  0  0  0
 28 29  1  0  0  0  0
 29 30  2  0  0  0  0
 29 27  1  0  0  0  0
 31 33  1  0  0  0  0
 31 28  1  1  0  0  0
 32 35  1  0  0  0  0
 32 36  1  0  0  0  0
 34 33  1  0  0  0  0
 35 37  1  6  0  0  0
 35 31  1  0  0  0  0
 36 34  1  0  0  0  0
 38 37  1  0  0  0  0
 39 41  2  0  0  0  0
 39 40  1  0  0  0  0
 40 42  2  0  0  0  0
 41 43  1  0  0  0  0
 42 38  1  0  0  0  0
 43 38  2  0  0  0  0
M  END
>  <MODEL>
4

>  <REMARK>
 VINA RESULT:      -7.7      4.387      8.838
  Name = 
  11 active torsions:
  status: ('A' for Active; 'I' for Inactive)
    1  A    between atoms: C_1  and  C_34
    2  A    between atoms: C_1  and  N_35
    3  A    between atoms: C_2  and  C_6
    4  A    between atoms: C_2  and  O_13
    5  A    between atoms: N_3  and  C_4
    6  A    between atoms: C_6  and  C_12
    7  A    between atoms: N_8  and  C_27
    8  A    between atoms: N_8  and  C_30
    9  A    between atoms: C_11  and  C_14
   10  A    between atoms: O_13  and  C_27
   11  A    between atoms: C_14  and  C_41
                            x       y       z     vdW  Elec       q    Type
                         _______ _______ _______ _____ _____    ______ ____

>  <TORSDO>
F 11

$$$$
=
 OpenBabel11062410313D

 43 47  0  0  1  0  0  0  0  0999 V2000
  161.5590  209.5910  151.1000 N   0  0  0  0  0  0  0  0  0  0  0  0
  161.9240  210.3340  149.9200 C   0  0  0  0  0  0  0  0  0  0  0  0
  162.1280  209.7250  148.8340 O   0  0  0  0  0  0  0  0  0  0  0  0
  158.5850  212.4520  154.3460 C   0  0  0  0  0  0  0  0  0  0  0  0
  160.6880  211.3310  154.1120 C   0  0  0  0  0  0  0  0  0  0  0  0
  158.2330  212.0340  153.0430 C   0  0  0  0  0  3  0  0  0  0  0  0
  157.6350  213.2750  155.1370 C   0  0  0  0  0  1  0  0  0  0  0  0
  160.3360  210.9090  152.8600 C   0  0  0  0  0  0  0  0  0  0  0  0
  159.8340  212.1050  154.8940 C   0  0  0  0  0  3  0  0  0  0  0  0
  159.1190  211.2550  152.2780 C   0  0  0  0  0  3  0  0  0  0  0  0
  161.4220  210.2050  152.3880 C   0  0  0  0  0  0  0  0  0  0  0  0
  162.3760  210.2190  153.2990 O   0  0  0  0  0  0  0  0  0  0  0  0
  161.9700  210.8880  154.3680 C   0  0  0  0  0  3  0  0  0  0  0  0
  161.9540  211.8350  149.9310 C   0  0  0  0  0  2  0  0  0  0  0  0
  161.7940  214.4530  147.2900 C   0  0  0  0  0  2  0  0  0  0  0  0
  160.6490  213.8900  146.4450 C   0  0  0  0  0  0  0  0  0  0  0  0
  160.8510  214.3190  145.0070 C   0  0  0  0  0  1  0  0  0  0  0  0
  160.7220  211.8600  147.9450 C   0  0  0  0  0  2  0  0  0  0  0  0
  161.8110  213.8250  148.6840 C   0  0  0  0  0  2  0  0  0  0  0  0
  161.9340  212.3720  148.5780 N   0  0  0  0  0  0  0  0  0  0  0  0
  159.3180  214.4460  146.9280 C   0  0  0  0  0  1  0  0  0  0  0  0
  160.6330  212.3590  146.5010 C   0  0  0  0  0  2  0  0  0  0  0  0
  161.1730  208.1880  150.9800 C   0  0  0  0  0  2  0  0  0  0  0  0
  162.0880  207.3730  151.6740 O   0  0  0  0  0  0  0  0  0  0  0  0
  161.3840  206.4320  152.4610 C   0  0  2  0  0  3  0  0  0  0  0  0
  161.1640  206.9000  153.8950 C   0  0  0  0  0  1  0  0  0  0  0  0
  161.9850  205.0260  152.4100 C   0  0  0  0  0  2  0  0  0  0  0  0
  160.8070  202.9750  151.4720 N   0  0  0  0  0  2  0  0  0  0  0  0
  160.9430  203.9500  152.5070 C   0  0  0  0  0  0  0  0  0  0  0  0
  160.1380  203.9300  153.4750 O   0  0  0  0  0  0  0  0  0  0  0  0
  161.5970  202.9970  150.2480 C   0  0  1  0  0  3  0  0  0  0  0  0
  160.4580  202.7110  147.9510 C   0  0  0  0  0  2  0  0  0  0  0  0
  162.0610  201.5810  149.8970 C   0  0  0  0  0  2  0  0  0  0  0  0
  160.9010  200.6890  149.4360 C   0  0  0  0  0  2  0  0  0  0  0  0
  160.7930  203.6560  149.1080 C   0  0  2  0  0  3  0  0  0  0  0  0
  159.9140  201.3940  148.4940 C   0  0  0  0  0  2  0  0  0  0  0  0
  161.4390  204.9520  148.6150 C   0  0  0  0  0  2  0  0  0  0  0  0
  161.3500  205.1250  147.1320 C   0  0  0  0  0  0  0  0  0  0  0  0
  161.1700  205.4320  144.3560 C   0  0  0  0  0  3  0  0  0  0  0  0
  161.9220  204.3850  144.8960 C   0  0  0  0  0  3  0  0  0  0  0  0
  160.5070  206.3260  145.2020 C   0  0  0  0  0  3  0  0  0  0  0  0
  162.0130  204.2310  146.2820 C   0  0  0  0  0  3  0  0  0  0  0  0
  160.5980  206.1740  146.5890 C   0  0  0  0  0  3  0  0  0  0  0  0
  1 11  1  0  0  0  0
  2 14  1  0  0  0  0
  2  1  1  0  0  0  0
  3  2  2  0  0  0  0
  4  9  2  0  0  0  0
  4  7  1  0  0  0  0
  5 13  2  0  0  0  0
  5  9  1  0  0  0  0
  6  4  1  0  0  0  0
  8  5  1  0  0  0  0
 10  8  1  0  0  0  0
 10  6  2  0  0  0  0
 11  8  2  0  0  0  0
 11 12  1  0  0  0  0
 12 13  1  0  0  0  0
 15 19  1  0  0  0  0
 16 22  1  0  0  0  0
 16 21  1  0  0  0  0
 16 15  1  0  0  0  0
 17 16  1  0  0  0  0
 18 20  1  0  0  0  0
 20 19  1  0  0  0  0
 20 14  1  0  0  0  0
 22 18  1  0  0  0  0
 23  1  1  0  0  0  0
 23 24  1  0  0  0  0
 24 25  1  0  0  0  0
 25 26  1  1  0  0  0
 27 25  1  0  0  0  0
 27 29  1  0  0  0  0
 28 29  1  0  0  0  0
 29 30  2  0  0  0  0
 31 28  1  1  0  0  0
 32 36  1  0  0  0  0
 32 35  1  0  0  0  0
 33 31  1  0  0  0  0
 34 33  1  0  0  0  0
 35 37  1  6  0  0  0
 35 31  1  0  0  0  0
 36 34  1  0  0  0  0
 38 37  1  0  0  0  0
 39 40  2  0  0  0  0
 39 41  1  0  0  0  0
 40 42  1  0  0  0  0
 41 43  2  0  0  0  0
 42 38  2  0  0  0  0
 43 38  1  0  0  0  0
M  END
>  <MODEL>
5

>  <REMARK>
 VINA RESULT:      -7.7      2.524      8.908
  Name = 
  11 active torsions:
  status: ('A' for Active; 'I' for Inactive)
    1  A    between atoms: C_1  and  C_34
    2  A    between atoms: C_1  and  N_35
    3  A    between atoms: C_2  and  C_6
    4  A    between atoms: C_2  and  O_13
    5  A    between atoms: N_3  and  C_4
    6  A    between atoms: C_6  and  C_12
    7  A    between atoms: N_8  and  C_27
    8  A    between atoms: N_8  and  C_30
    9  A    between atoms: C_11  and  C_14
   10  A    between atoms: O_13  and  C_27
   11  A    between atoms: C_14  and  C_41
                            x       y       z     vdW  Elec       q    Type
                         _______ _______ _______ _____ _____    ______ ____

>  <TORSDO>
F 11

$$$$
=
 OpenBabel11062410313D

 43 47  0  0  1  0  0  0  0  0999 V2000
  161.9730  209.8450  149.0520 N   0  0  0  0  0  0  0  0  0  0  0  0
  161.5840  209.6840  150.4310 C   0  0  0  0  0  0  0  0  0  0  0  0
  161.3280  208.5330  150.8800 O   0  0  0  0  0  0  0  0  0  0  0  0
  160.1630  213.5200  145.7680 C   0  0  0  0  0  0  0  0  0  0  0  0
  161.9550  212.9440  147.2480 C   0  0  0  0  0  0  0  0  0  0  0  0
  159.5260  212.3000  146.0870 C   0  0  0  0  0  3  0  0  0  0  0  0
  159.5270  214.4530  144.8030 C   0  0  0  0  0  1  0  0  0  0  0  0
  161.3270  211.7740  147.5720 C   0  0  0  0  0  0  0  0  0  0  0  0
  161.4020  213.8510  146.3480 C   0  0  0  0  0  3  0  0  0  0  0  0
  160.1130  211.4040  146.9970 C   0  0  0  0  0  3  0  0  0  0  0  0
  162.1690  211.1320  148.4510 C   0  0  0  0  0  0  0  0  0  0  0  0
  163.2500  211.8670  148.6310 O   0  0  0  0  0  0  0  0  0  0  0  0
  163.1590  212.9830  147.9220 C   0  0  0  0  0  3  0  0  0  0  0  0
  161.5900  210.8500  151.3770 C   0  0  0  0  0  2  0  0  0  0  0  0
  158.7510  212.1600  153.3960 C   0  0  0  0  0  2  0  0  0  0  0  0
  159.1190  211.5740  154.7610 C   0  0  0  0  0  0  0  0  0  0  0  0
  157.8470  211.3370  155.5460 C   0  0  0  0  0  1  0  0  0  0  0  0
  160.9850  210.3500  153.5790 C   0  0  0  0  0  2  0  0  0  0  0  0
  159.9530  212.1550  152.4510 C   0  0  0  0  0  2  0  0  0  0  0  0
  160.4580  210.7920  152.2910 N   0  0  0  0  0  0  0  0  0  0  0  0
  159.9850  212.5540  155.5370 C   0  0  0  0  0  1  0  0  0  0  0  0
  159.8500  210.2370  154.5990 C   0  0  0  0  0  2  0  0  0  0  0  0
  162.3210  208.6710  148.2570 C   0  0  0  0  0  2  0  0  0  0  0  0
  161.1570  207.9580  147.9100 O   0  0  0  0  0  0  0  0  0  0  0  0
  161.4980  206.8730  147.0700 C   0  0  2  0  0  3  0  0  0  0  0  0
  160.4670  206.6190  145.9760 C   0  0  0  0  0  1  0  0  0  0  0  0
  161.8360  205.5930  147.8380 C   0  0  0  0  0  2  0  0  0  0  0  0
  161.9730  203.2670  146.8160 N   0  0  0  0  0  2  0  0  0  0  0  0
  162.5270  204.5730  146.9800 C   0  0  0  0  0  0  0  0  0  0  0  0
  163.6330  204.8400  146.4400 O   0  0  0  0  0  0  0  0  0  0  0  0
  160.7720  202.8180  147.5100 C   0  0  1  0  0  3  0  0  0  0  0  0
  160.9550  201.3490  149.6230 C   0  0  0  0  0  2  0  0  0  0  0  0
  160.3070  201.4760  146.9400 C   0  0  0  0  0  2  0  0  0  0  0  0
  161.2580  200.3290  147.3080 C   0  0  0  0  0  2  0  0  0  0  0  0
  161.0280  202.7590  149.0300 C   0  0  2  0  0  3  0  0  0  0  0  0
  161.7550  200.3790  148.7600 C   0  0  0  0  0  2  0  0  0  0  0  0
  160.1550  203.7470  149.8050 C   0  0  0  0  0  2  0  0  0  0  0  0
  160.8860  204.4320  150.9160 C   0  0  0  0  0  0  0  0  0  0  0  0
  162.2450  205.7340  152.9870 C   0  0  0  0  0  3  0  0  0  0  0  0
  162.6340  205.9360  151.6600 C   0  0  0  0  0  3  0  0  0  0  0  0
  161.1760  204.8810  153.2800 C   0  0  0  0  0  3  0  0  0  0  0  0
  161.9570  205.2860  150.6250 C   0  0  0  0  0  3  0  0  0  0  0  0
  160.4980  204.2300  152.2450 C   0  0  0  0  0  3  0  0  0  0  0  0
  1  2  1  0  0  0  0
  2  3  2  0  0  0  0
  2 14  1  0  0  0  0
  4  6  1  0  0  0  0
  4  9  2  0  0  0  0
  5  8  1  0  0  0  0
  5 13  2  0  0  0  0
  6 10  2  0  0  0  0
  7  4  1  0  0  0  0
  8 11  2  0  0  0  0
  9  5  1  0  0  0  0
 10  8  1  0  0  0  0
 11 12  1  0  0  0  0
 11  1  1  0  0  0  0
 13 12  1  0  0  0  0
 14 20  1  0  0  0  0
 15 16  1  0  0  0  0
 16 21  1  0  0  0  0
 16 17  1  0  0  0  0
 18 22  1  0  0  0  0
 19 15  1  0  0  0  0
 20 19  1  0  0  0  0
 20 18  1  0  0  0  0
 22 16  1  0  0  0  0
 23  1  1  0  0  0  0
 24 23  1  0  0  0  0
 25 26  1  6  0  0  0
 25 27  1  0  0  0  0
 25 24  1  0  0  0  0
 28 29  1  0  0  0  0
 29 27  1  0  0  0  0
 30 29  2  0  0  0  0
 31 28  1  6  0  0  0
 31 35  1  0  0  0  0
 33 34  1  0  0  0  0
 33 31  1  0  0  0  0
 34 36  1  0  0  0  0
 35 32  1  0  0  0  0
 35 37  1  1  0  0  0
 36 32  1  0  0  0  0
 37 38  1  0  0  0  0
 38 43  1  0  0  0  0
 39 41  1  0  0  0  0
 40 39  2  0  0  0  0
 42 38  2  0  0  0  0
 42 40  1  0  0  0  0
 43 41  2  0  0  0  0
M  END
>  <MODEL>
6

>  <REMARK>
 VINA RESULT:      -7.5      2.792     10.178
  Name = 
  11 active torsions:
  status: ('A' for Active; 'I' for Inactive)
    1  A    between atoms: C_1  and  C_34
    2  A    between atoms: C_1  and  N_35
    3  A    between atoms: C_2  and  C_6
    4  A    between atoms: C_2  and  O_13
    5  A    between atoms: N_3  and  C_4
    6  A    between atoms: C_6  and  C_12
    7  A    between atoms: N_8  and  C_27
    8  A    between atoms: N_8  and  C_30
    9  A    between atoms: C_11  and  C_14
   10  A    between atoms: O_13  and  C_27
   11  A    between atoms: C_14  and  C_41
                            x       y       z     vdW  Elec       q    Type
                         _______ _______ _______ _____ _____    ______ ____

>  <TORSDO>
F 11

$$$$
=
 OpenBabel11062410313D

 43 47  0  0  1  0  0  0  0  0999 V2000
  161.4470  211.8910  150.0930 N   0  0  0  0  0  0  0  0  0  0  0  0
  161.7720  212.5060  148.8310 C   0  0  0  0  0  0  0  0  0  0  0  0
  162.8580  212.2200  148.2560 O   0  0  0  0  0  0  0  0  0  0  0  0
  158.7190  211.3450  154.5460 C   0  0  0  0  0  0  0  0  0  0  0  0
  158.7540  212.4120  152.4040 C   0  0  0  0  0  0  0  0  0  0  0  0
  159.9580  210.7350  154.2480 C   0  0  0  0  0  3  0  0  0  0  0  0
  158.0620  211.0760  155.8510 C   0  0  0  0  0  1  0  0  0  0  0  0
  159.9640  211.8400  152.1250 C   0  0  0  0  0  0  0  0  0  0  0  0
  158.0960  212.1920  153.6110 C   0  0  0  0  0  3  0  0  0  0  0  0
  160.5950  210.9760  153.0170 C   0  0  0  0  0  3  0  0  0  0  0  0
  160.2850  212.2540  150.8520 C   0  0  0  0  0  0  0  0  0  0  0  0
  159.3150  213.0180  150.3880 O   0  0  0  0  0  0  0  0  0  0  0  0
  158.3650  213.1470  151.3020 C   0  0  0  0  0  3  0  0  0  0  0  0
  160.7880  213.3960  148.1280 C   0  0  0  0  0  2  0  0  0  0  0  0
  160.8360  214.0740  144.4690 C   0  0  0  0  0  2  0  0  0  0  0  0
  159.5130  213.4130  144.0720 C   0  0  0  0  0  0  0  0  0  0  0  0
  159.6280  212.9170  142.6460 C   0  0  0  0  0  1  0  0  0  0  0  0
  159.3630  212.5970  146.4570 C   0  0  0  0  0  2  0  0  0  0  0  0
  160.8910  214.3370  145.9740 C   0  0  0  0  0  2  0  0  0  0  0  0
  160.7160  213.0840  146.7080 N   0  0  0  0  0  0  0  0  0  0  0  0
  158.3810  214.4250  144.1370 C   0  0  0  0  0  1  0  0  0  0  0  0
  159.2080  212.2190  144.9820 C   0  0  0  0  0  2  0  0  0  0  0  0
  162.2350  210.7590  150.5710 C   0  0  0  0  0  2  0  0  0  0  0  0
  162.2600  209.7420  149.5970 O   0  0  0  0  0  0  0  0  0  0  0  0
  161.4470  208.6630  150.0180 C   0  0  2  0  0  3  0  0  0  0  0  0
  161.9420  208.0090  151.3030 C   0  0  0  0  0  1  0  0  0  0  0  0
  161.1920  207.6300  148.9180 C   0  0  0  0  0  2  0  0  0  0  0  0
  162.4250  205.8210  147.6200 N   0  0  0  0  0  2  0  0  0  0  0  0
  162.4610  207.0200  148.3960 C   0  0  0  0  0  0  0  0  0  0  0  0
  163.5760  207.5290  148.6830 O   0  0  0  0  0  0  0  0  0  0  0  0
  161.1970  205.0840  147.3500 C   0  0  1  0  0  3  0  0  0  0  0  0
  161.1140  203.3280  145.4620 C   0  0  0  0  0  2  0  0  0  0  0  0
  160.3460  205.8370  146.3260 C   0  0  0  0  0  2  0  0  0  0  0  0
  160.9700  205.8140  144.9240 C   0  0  0  0  0  2  0  0  0  0  0  0
  161.5290  203.6460  146.9010 C   0  0  2  0  0  3  0  0  0  0  0  0
  161.5600  204.4510  144.5310 C   0  0  0  0  0  2  0  0  0  0  0  0
  161.0130  202.5950  147.8860 C   0  0  0  0  0  2  0  0  0  0  0  0
  161.0160  203.0690  149.3050 C   0  0  0  0  0  0  0  0  0  0  0  0
  160.9980  203.9540  151.9600 C   0  0  0  0  0  3  0  0  0  0  0  0
  160.4540  204.7550  150.9530 C   0  0  0  0  0  3  0  0  0  0  0  0
  161.5510  202.7090  151.6420 C   0  0  0  0  0  3  0  0  0  0  0  0
  160.4620  204.3150  149.6270 C   0  0  0  0  0  3  0  0  0  0  0  0
  161.5600  202.2680  150.3150 C   0  0  0  0  0  3  0  0  0  0  0  0
  1 23  1  0  0  0  0
  1 11  1  0  0  0  0
  2  1  1  0  0  0  0
  3  2  2  0  0  0  0
  4  7  1  0  0  0  0
  5  9  1  0  0  0  0
  6  4  1  0  0  0  0
  8  5  1  0  0  0  0
  8 10  1  0  0  0  0
  9  4  2  0  0  0  0
 10  6  2  0  0  0  0
 11  8  2  0  0  0  0
 12 11  1  0  0  0  0
 12 13  1  0  0  0  0
 13  5  2  0  0  0  0
 14  2  1  0  0  0  0
 15 19  1  0  0  0  0
 16 21  1  0  0  0  0
 16 15  1  0  0  0  0
 16 22  1  0  0  0  0
 17 16  1  0  0  0  0
 18 20  1  0  0  0  0
 19 20  1  0  0  0  0
 20 14  1  0  0  0  0
 22 18  1  0  0  0  0
 24 25  1  0  0  0  0
 24 23  1  0  0  0  0
 25 26  1  1  0  0  0
 27 25  1  0  0  0  0
 28 29  1  0  0  0  0
 29 30  2  0  0  0  0
 29 27  1  0  0  0  0
 31 28  1  6  0  0  0
 32 35  1  0  0  0  0
 33 31  1  0  0  0  0
 34 33  1  0  0  0  0
 35 31  1  0  0  0  0
 35 37  1  1  0  0  0
 36 34  1  0  0  0  0
 36 32  1  0  0  0  0
 37 38  1  0  0  0  0
 38 42  2  0  0  0  0
 38 43  1  0  0  0  0
 40 39  2  0  0  0  0
 41 39  1  0  0  0  0
 42 40  1  0  0  0  0
 43 41  2  0  0  0  0
M  END
>  <MODEL>
7

>  <REMARK>
 VINA RESULT:      -7.2      3.072      9.292
  Name = 
  11 active torsions:
  status: ('A' for Active; 'I' for Inactive)
    1  A    between atoms: C_1  and  C_34
    2  A    between atoms: C_1  and  N_35
    3  A    between atoms: C_2  and  C_6
    4  A    between atoms: C_2  and  O_13
    5  A    between atoms: N_3  and  C_4
    6  A    between atoms: C_6  and  C_12
    7  A    between atoms: N_8  and  C_27
    8  A    between atoms: N_8  and  C_30
    9  A    between atoms: C_11  and  C_14
   10  A    between atoms: O_13  and  C_27
   11  A    between atoms: C_14  and  C_41
                            x       y       z     vdW  Elec       q    Type
                         _______ _______ _______ _____ _____    ______ ____

>  <TORSDO>
F 11

$$$$
=
 OpenBabel11062410313D

 43 47  0  0  1  0  0  0  0  0999 V2000
  161.2540  209.0520  152.2600 N   0  0  0  0  0  0  0  0  0  0  0  0
  161.2380  209.8750  153.4440 C   0  0  0  0  0  0  0  0  0  0  0  0
  161.2550  211.1310  153.3340 O   0  0  0  0  0  0  0  0  0  0  0  0
  161.0430  204.4990  149.6540 C   0  0  0  0  0  0  0  0  0  0  0  0
  161.3550  205.4960  151.8080 C   0  0  0  0  0  0  0  0  0  0  0  0
  160.9000  205.7880  149.0930 C   0  0  0  0  0  3  0  0  0  0  0  0
  160.9410  203.3010  148.7810 C   0  0  0  0  0  1  0  0  0  0  0  0
  161.2390  206.7440  151.2600 C   0  0  0  0  0  0  0  0  0  0  0  0
  161.2660  204.3420  151.0340 C   0  0  0  0  0  3  0  0  0  0  0  0
  160.9920  206.9340  149.9020 C   0  0  0  0  0  3  0  0  0  0  0  0
  161.3480  207.6220  152.3140 C   0  0  0  0  0  0  0  0  0  0  0  0
  161.5040  206.9400  153.4330 O   0  0  0  0  0  0  0  0  0  0  0  0
  161.5200  205.6420  153.1700 C   0  0  0  0  0  3  0  0  0  0  0  0
  161.0820  209.2640  154.8070 C   0  0  0  0  0  2  0  0  0  0  0  0
  158.0830  211.3070  155.6320 C   0  0  0  0  0  2  0  0  0  0  0  0
  158.7710  212.5340  156.2350 C   0  0  0  0  0  0  0  0  0  0  0  0
  157.8450  213.1530  157.2610 C   0  0  0  0  0  1  0  0  0  0  0  0
  160.9370  211.2540  156.0240 C   0  0  0  0  0  2  0  0  0  0  0  0
  159.0650  210.4740  154.8070 C   0  0  0  0  0  2  0  0  0  0  0  0
  160.1920  210.0580  155.6410 N   0  0  0  0  0  0  0  0  0  0  0  0
  159.0450  213.5660  155.1520 C   0  0  0  0  0  1  0  0  0  0  0  0
  160.0770  212.1390  156.9300 C   0  0  0  0  0  2  0  0  0  0  0  0
  161.0290  209.6610  150.9520 C   0  0  0  0  0  2  0  0  0  0  0  0
  162.2370  210.1730  150.4410 O   0  0  0  0  0  0  0  0  0  0  0  0
  162.0040  211.4340  149.8440 C   0  0  2  0  0  3  0  0  0  0  0  0
  160.7510  212.1210  150.3730 C   0  0  0  0  0  1  0  0  0  0  0  0
  162.0280  211.3960  148.3150 C   0  0  0  0  0  2  0  0  0  0  0  0
  161.2330  213.2250  146.7350 N   0  0  0  0  0  2  0  0  0  0  0  0
  162.1700  212.7620  147.7080 C   0  0  0  0  0  0  0  0  0  0  0  0
  163.1510  213.4930  148.0090 O   0  0  0  0  0  0  0  0  0  0  0  0
  160.1460  212.4020  146.2210 C   0  0  1  0  0  3  0  0  0  0  0  0
  158.4630  213.3700  144.5210 C   0  0  0  0  0  2  0  0  0  0  0  0
  158.9130  212.5400  147.1180 C   0  0  0  0  0  2  0  0  0  0  0  0
  158.2630  213.9240  146.9990 C   0  0  0  0  0  2  0  0  0  0  0  0
  159.8520  212.7680  144.7510 C   0  0  2  0  0  3  0  0  0  0  0  0
  158.1870  214.4530  145.5600 C   0  0  0  0  0  2  0  0  0  0  0  0
  160.1320  211.6060  143.7960 C   0  0  0  0  0  2  0  0  0  0  0  0
  160.7130  212.0450  142.4900 C   0  0  0  0  0  0  0  0  0  0  0  0
  161.8110  212.8490  140.0440 C   0  0  0  0  0  3  0  0  0  0  0  0
  162.6060  212.8260  141.1940 C   0  0  0  0  0  3  0  0  0  0  0  0
  160.4670  212.4700  140.1160 C   0  0  0  0  0  3  0  0  0  0  0  0
  162.0590  212.4250  142.4160 C   0  0  0  0  0  3  0  0  0  0  0  0
  159.9180  212.0690  141.3380 C   0  0  0  0  0  3  0  0  0  0  0  0
  1 11  1  0  0  0  0
  1  2  1  0  0  0  0
  2 14  1  0  0  0  0
  3  2  2  0  0  0  0
  4  9  2  0  0  0  0
  5 13  2  0  0  0  0
  6  4  1  0  0  0  0
  6 10  2  0  0  0  0
  7  4  1  0  0  0  0
  8  5  1  0  0  0  0
  8 11  2  0  0  0  0
  9  5  1  0  0  0  0
 10  8  1  0  0  0  0
 11 12  1  0  0  0  0
 13 12  1  0  0  0  0
 14 20  1  0  0  0  0
 15 16  1  0  0  0  0
 16 22  1  0  0  0  0
 16 17  1  0  0  0  0
 18 22  1  0  0  0  0
 19 15  1  0  0  0  0
 19 20  1  0  0  0  0
 20 18  1  0  0  0  0
 21 16  1  0  0  0  0
 23  1  1  0  0  0  0
 24 23  1  0  0  0  0
 25 26  1  6  0  0  0
 25 24  1  0  0  0  0
 27 25  1  0  0  0  0
 28 29  1  0  0  0  0
 29 30  2  0  0  0  0
 29 27  1  0  0  0  0
 31 28  1  1  0  0  0
 31 33  1  0  0  0  0
 32 35  1  0  0  0  0
 32 36  1  0  0  0  0
 34 33  1  0  0  0  0
 35 37  1  6  0  0  0
 35 31  1  0  0  0  0
 36 34  1  0  0  0  0
 38 37  1  0  0  0  0
 39 41  2  0  0  0  0
 39 40  1  0  0  0  0
 40 42  2  0  0  0  0
 41 43  1  0  0  0  0
 42 38  1  0  0  0  0
 43 38  2  0  0  0  0
M  END
>  <MODEL>
8

>  <REMARK>
 VINA RESULT:      -7.2      3.946      8.288
  Name = 
  11 active torsions:
  status: ('A' for Active; 'I' for Inactive)
    1  A    between atoms: C_1  and  C_34
    2  A    between atoms: C_1  and  N_35
    3  A    between atoms: C_2  and  C_6
    4  A    between atoms: C_2  and  O_13
    5  A    between atoms: N_3  and  C_4
    6  A    between atoms: C_6  and  C_12
    7  A    between atoms: N_8  and  C_27
    8  A    between atoms: N_8  and  C_30
    9  A    between atoms: C_11  and  C_14
   10  A    between atoms: O_13  and  C_27
   11  A    between atoms: C_14  and  C_41
                            x       y       z     vdW  Elec       q    Type
                         _______ _______ _______ _____ _____    ______ ____

>  <TORSDO>
F 11

$$$$
=
 OpenBabel11062410313D

 43 47  0  0  1  0  0  0  0  0999 V2000
  161.5150  208.8560  150.2590 N   0  0  0  0  0  0  0  0  0  0  0  0
  161.9100  208.5840  148.9000 C   0  0  0  0  0  0  0  0  0  0  0  0
  161.6980  209.4440  148.0020 O   0  0  0  0  0  0  0  0  0  0  0  0
  160.8780  203.8600  151.7420 C   0  0  0  0  0  0  0  0  0  0  0  0
  161.5580  206.0350  152.4740 C   0  0  0  0  0  0  0  0  0  0  0  0
  160.6300  204.3850  150.4550 C   0  0  0  0  0  3  0  0  0  0  0  0
  160.6330  202.4190  152.0100 C   0  0  0  0  0  1  0  0  0  0  0  0
  161.3390  206.5380  151.2210 C   0  0  0  0  0  0  0  0  0  0  0  0
  161.3430  204.6940  152.7770 C   0  0  0  0  0  3  0  0  0  0  0  0
  160.8550  205.7460  150.1820 C   0  0  0  0  0  3  0  0  0  0  0  0
  161.6260  207.8810  151.3060 C   0  0  0  0  0  0  0  0  0  0  0  0
  161.9820  208.1720  152.5430 O   0  0  0  0  0  0  0  0  0  0  0  0
  161.9610  207.0760  153.2870 C   0  0  0  0  0  3  0  0  0  0  0  0
  162.6780  207.3410  148.5520 C   0  0  0  0  0  2  0  0  0  0  0  0
  160.4060  205.9610  145.9480 C   0  0  0  0  0  2  0  0  0  0  0  0
  161.2240  204.7390  145.5210 C   0  0  0  0  0  0  0  0  0  0  0  0
  160.9210  204.4380  144.0680 C   0  0  0  0  0  1  0  0  0  0  0  0
  163.0500  205.6030  147.0350 C   0  0  0  0  0  2  0  0  0  0  0  0
  160.8750  206.4920  147.3030 C   0  0  0  0  0  2  0  0  0  0  0  0
  162.2950  206.8350  147.2420 N   0  0  0  0  0  0  0  0  0  0  0  0
  160.8310  203.5290  146.3530 C   0  0  0  0  0  1  0  0  0  0  0  0
  162.7240  205.0130  145.6610 C   0  0  0  0  0  2  0  0  0  0  0  0
  161.1140  210.2070  150.6400 C   0  0  0  0  0  2  0  0  0  0  0  0
  161.9930  211.1500  150.0720 O   0  0  0  0  0  0  0  0  0  0  0  0
  161.2480  212.2170  149.5160 C   0  0  2  0  0  3  0  0  0  0  0  0
  161.9610  212.8990  148.3540 C   0  0  0  0  0  1  0  0  0  0  0  0
  160.7650  213.2280  150.5570 C   0  0  0  0  0  2  0  0  0  0  0  0
  158.4880  213.2490  151.6930 N   0  0  0  0  0  2  0  0  0  0  0  0
  159.2780  213.4300  150.5170 C   0  0  0  0  0  0  0  0  0  0  0  0
  158.7020  213.7060  149.4310 O   0  0  0  0  0  0  0  0  0  0  0  0
  159.0430  212.7960  152.9630 C   0  0  1  0  0  3  0  0  0  0  0  0
  157.5860  211.4670  154.6260 C   0  0  0  0  0  2  0  0  0  0  0  0
  158.8290  213.8630  154.0390 C   0  0  0  0  0  2  0  0  0  0  0  0
  157.3540  213.9970  154.4380 C   0  0  0  0  0  2  0  0  0  0  0  0
  158.4350  211.4330  153.3520 C   0  0  2  0  0  3  0  0  0  0  0  0
  156.6270  212.6520  154.5810 C   0  0  0  0  0  2  0  0  0  0  0  0
  159.4840  210.3210  153.3980 C   0  0  0  0  0  2  0  0  0  0  0  0
  160.1270  210.1740  154.7400 C   0  0  0  0  0  0  0  0  0  0  0  0
  161.3170  209.9180  157.2600 C   0  0  0  0  0  3  0  0  0  0  0  0
  161.6450  211.0000  156.4390 C   0  0  0  0  0  3  0  0  0  0  0  0
  160.3940  208.9620  156.8220 C   0  0  0  0  0  3  0  0  0  0  0  0
  161.0510  211.1300  155.1810 C   0  0  0  0  0  3  0  0  0  0  0  0
  159.8000  209.0900  155.5630 C   0  0  0  0  0  3  0  0  0  0  0  0
  1 23  1  0  0  0  0
  1 11  1  0  0  0  0
  2  1  1  0  0  0  0
  3  2  2  0  0  0  0
  4  7  1  0  0  0  0
  4  9  2  0  0  0  0
  5  9  1  0  0  0  0
  5 13  2  0  0  0  0
  6  4  1  0  0  0  0
  8 11  2  0  0  0  0
  8  5  1  0  0  0  0
 10  6  2  0  0  0  0
 10  8  1  0  0  0  0
 11 12  1  0  0  0  0
 12 13  1  0  0  0  0
 14  2  1  0  0  0  0
 15 19  1  0  0  0  0
 16 22  1  0  0  0  0
 16 15  1  0  0  0  0
 16 21  1  0  0  0  0
 17 16  1  0  0  0  0
 18 20  1  0  0  0  0
 20 19  1  0  0  0  0
 20 14  1  0  0  0  0
 22 18  1  0  0  0  0
 24 23  1  0  0  0  0
 25 26  1  6  0  0  0
 25 24  1  0  0  0  0
 25 27  1  0  0  0  0
 29 27  1  0  0  0  0
 29 28  1  0  0  0  0
 30 29  2  0  0  0  0
 31 28  1  6  0  0  0
 31 35  1  0  0  0  0
 31 33  1  0  0  0  0
 33 34  1  0  0  0  0
 34 36  1  0  0  0  0
 35 37  1  1  0  0  0
 35 32  1  0  0  0  0
 36 32  1  0  0  0  0
 37 38  1  0  0  0  0
 38 42  2  0  0  0  0
 38 43  1  0  0  0  0
 40 39  2  0  0  0  0
 41 39  1  0  0  0  0
 42 40  1  0  0  0  0
 43 41  2  0  0  0  0
M  END
>  <MODEL>
9

>  <REMARK>
 VINA RESULT:      -7.2      1.891      4.013
  Name = 
  11 active torsions:
  status: ('A' for Active; 'I' for Inactive)
    1  A    between atoms: C_1  and  C_34
    2  A    between atoms: C_1  and  N_35
    3  A    between atoms: C_2  and  C_6
    4  A    between atoms: C_2  and  O_13
    5  A    between atoms: N_3  and  C_4
    6  A    between atoms: C_6  and  C_12
    7  A    between atoms: N_8  and  C_27
    8  A    between atoms: N_8  and  C_30
    9  A    between atoms: C_11  and  C_14
   10  A    between atoms: O_13  and  C_27
   11  A    between atoms: C_14  and  C_41
                            x       y       z     vdW  Elec       q    Type
                         _______ _______ _______ _____ _____    ______ ____

>  <TORSDO>
F 11

$$$$
