=
 OpenBabel11052422343D

 31 36  0  0  1  0  0  0  0  0999 V2000
  161.0850  205.1140  149.5220 C   0  0  0  0  0  0  0  0  0  0  0  0
  161.0450  208.6480  150.9450 C   0  0  2  0  0  3  0  0  0  0  0  0
  161.2780  207.4820  150.0180 C   0  0  0  0  0  0  0  0  0  0  0  0
  161.5730  205.3420  148.2320 C   0  0  0  0  0  3  0  0  0  0  0  0
  162.0430  210.0540  149.0820 C   0  0  0  0  0  0  0  0  0  0  0  0
  160.7280  203.7360  149.9490 C   0  0  0  0  0  1  0  0  0  0  0  0
  162.0930  209.0330  148.2810 N   0  0  0  0  0  0  0  0  0  0  0  0
  161.6280  209.8920  150.4420 N   0  0  0  0  0  2  0  0  0  0  0  0
  160.9280  206.1820  150.4090 C   0  0  0  0  0  3  0  0  0  0  0  0
  161.7490  207.7100  148.7110 C   0  0  0  0  0  0  0  0  0  0  0  0
  161.9010  206.6380  147.8270 C   0  0  0  0  0  3  0  0  0  0  0  0
  161.4580  208.3800  152.3990 C   0  0  2  0  0  3  0  0  0  0  0  0
  161.3900  206.4490  153.9180 C   0  0  0  0  0  3  0  0  0  0  0  0
  161.4350  206.9080  152.6750 C   0  0  0  0  0  3  0  0  0  0  0  0
  161.2480  207.3210  154.9990 O   0  0  0  0  0  0  0  0  0  0  0  0
  160.6350  208.6090  154.8910 C   0  0  2  0  0  3  0  0  0  0  0  0
  160.7620  209.2270  153.4960 C   0  0  1  0  0  0  0  0  0  0  0  0
  161.6930  209.6620  154.6120 C   0  0  0  0  0  2  0  0  0  0  0  0
  160.1490  211.9310  153.2380 S   0  0  0  0  0  1  0  0  0  0  0  0
  159.6160  210.1890  153.1850 C   0  0  0  0  0  2  0  0  0  0  0  0
  162.4270  211.4030  148.5820 C   0  0  0  0  0  2  0  0  0  0  0  0
  158.4740  213.7120  145.9200 C   0  0  0  0  0  0  0  0  0  0  0  0
  160.3900  212.2090  146.2170 C   0  0  0  0  0  3  0  0  0  0  0  0
  159.8280  213.7570  149.3120 O   0  0  0  0  0  0  0  0  0  0  0  0
  160.8540  213.0350  149.6800 N   0  0  0  0  0  0  0  0  0  0  0  0
  157.4260  214.2870  145.0370 C   0  0  0  0  0  1  0  0  0  0  0  0
  161.2460  212.3130  148.6030 C   0  0  0  0  0  0  0  0  0  0  0  0
  159.3900  212.7680  145.3990 C   0  0  0  0  0  3  0  0  0  0  0  0
  159.5490  213.5420  148.0490 C   0  0  0  0  0  0  0  0  0  0  0  0
  160.4280  212.6280  147.5440 C   0  0  0  0  0  0  0  0  0  0  0  0
  158.5490  214.1120  147.2690 C   0  0  0  0  0  3  0  0  0  0  0  0
  1  6  1  0  0  0  0
  1  9  1  0  0  0  0
  2  3  1  6  0  0  0
  2 12  1  0  0  0  0
  3  9  2  0  0  0  0
  4  1  2  0  0  0  0
  5  8  1  0  0  0  0
  7 10  1  0  0  0  0
  7  5  2  0  0  0  0
  8  2  1  0  0  0  0
 10  3  1  0  0  0  0
 11  4  1  0  0  0  0
 11 10  2  0  0  0  0
 12 14  1  1  0  0  0
 12 17  1  0  0  0  0
 13 15  1  0  0  0  0
 14 13  2  0  0  0  0
 16 18  1  1  0  0  0
 16 15  1  0  0  0  0
 17 20  1  6  0  0  0
 17 18  1  0  0  0  0
 17 16  1  0  0  0  0
 20 19  1  0  0  0  0
 21 27  1  0  0  0  0
 21  5  1  0  0  0  0
 22 31  1  0  0  0  0
 23 30  2  0  0  0  0
 24 25  1  0  0  0  0
 26 22  1  0  0  0  0
 27 25  2  0  0  0  0
 28 22  2  0  0  0  0
 28 23  1  0  0  0  0
 29 24  1  0  0  0  0
 30 29  1  0  0  0  0
 30 27  1  0  0  0  0
 31 29  2  0  0  0  0
M  END
>  <MODEL>
1

>  <REMARK>
 VINA RESULT:      -8.3      0.000      0.000
  Name = 
  4 active torsions:
  status: ('A' for Active; 'I' for Inactive)
    1  A    between atoms: C_4  and  C_5
    2  A    between atoms: C_9  and  C_23
    3  A    between atoms: C_15  and  C_23
    4  A    between atoms: C_29  and  C_30
                            x       y       z     vdW  Elec       q    Type
                         _______ _______ _______ _____ _____    ______ ____

>  <TORSDO>
F 4

$$$$
=
 OpenBabel11052422343D

 31 36  0  0  1  0  0  0  0  0999 V2000
  161.4480  213.0580  149.0470 C   0  0  0  0  0  0  0  0  0  0  0  0
  160.5340  211.0020  152.1220 C   0  0  2  0  0  3  0  0  0  0  0  0
  161.0410  211.3810  150.7540 C   0  0  0  0  0  0  0  0  0  0  0  0
  162.1210  212.1100  148.2720 C   0  0  0  0  0  3  0  0  0  0  0  0
  161.3570  208.6700  151.5470 C   0  0  0  0  0  0  0  0  0  0  0  0
  161.3020  214.4530  148.5550 C   0  0  0  0  0  1  0  0  0  0  0  0
  161.8930  209.0860  150.4400 N   0  0  0  0  0  0  0  0  0  0  0  0
  160.5870  209.5600  152.3630 N   0  0  0  0  0  2  0  0  0  0  0  0
  160.9200  212.6980  150.2900 C   0  0  0  0  0  3  0  0  0  0  0  0
  161.7360  210.4330  149.9780 C   0  0  0  0  0  0  0  0  0  0  0  0
  162.2660  210.8010  148.7380 C   0  0  0  0  0  3  0  0  0  0  0  0
  159.1520  211.5790  152.4560 C   0  0  2  0  0  3  0  0  0  0  0  0
  157.8610  213.5570  151.7770 C   0  0  0  0  0  3  0  0  0  0  0  0
  158.8060  212.6710  151.4920 C   0  0  0  0  0  3  0  0  0  0  0  0
  157.2420  213.5670  153.0290 O   0  0  0  0  0  0  0  0  0  0  0  0
  157.8630  213.0590  154.2130 C   0  0  2  0  0  3  0  0  0  0  0  0
  158.8830  211.9520  153.9370 C   0  0  1  0  0  0  0  0  0  0  0  0
  157.4850  211.6010  154.4100 C   0  0  0  0  0  2  0  0  0  0  0  0
  159.9090  210.3400  155.9630 S   0  0  0  0  0  1  0  0  0  0  0  0
  159.9720  211.8900  155.0080 C   0  0  0  0  0  2  0  0  0  0  0  0
  161.5410  207.2540  151.9700 C   0  0  0  0  0  2  0  0  0  0  0  0
  160.9540  202.2880  150.2270 C   0  0  0  0  0  0  0  0  0  0  0  0
  161.3410  204.0360  151.9030 C   0  0  0  0  0  3  0  0  0  0  0  0
  160.8250  205.6630  148.8410 O   0  0  0  0  0  0  0  0  0  0  0  0
  161.0110  206.7380  149.5620 N   0  0  0  0  0  0  0  0  0  0  0  0
  160.8370  200.8450  149.8900 C   0  0  0  0  0  1  0  0  0  0  0  0
  161.2230  206.3360  150.8380 C   0  0  0  0  0  0  0  0  0  0  0  0
  161.2270  202.6760  151.5610 C   0  0  0  0  0  3  0  0  0  0  0  0
  160.9170  204.5910  149.5900 C   0  0  0  0  0  0  0  0  0  0  0  0
  161.1750  204.9630  150.8770 C   0  0  0  0  0  0  0  0  0  0  0  0
  160.7960  203.2570  149.2170 C   0  0  0  0  0  3  0  0  0  0  0  0
  1  9  1  0  0  0  0
  2  3  1  6  0  0  0
  2  8  1  0  0  0  0
  2 12  1  0  0  0  0
  4 11  1  0  0  0  0
  4  1  2  0  0  0  0
  5 21  1  0  0  0  0
  5  8  1  0  0  0  0
  6  1  1  0  0  0  0
  7  5  2  0  0  0  0
  9  3  2  0  0  0  0
 10  7  1  0  0  0  0
 10  3  1  0  0  0  0
 11 10  2  0  0  0  0
 12 14  1  6  0  0  0
 12 17  1  0  0  0  0
 13 15  1  0  0  0  0
 14 13  2  0  0  0  0
 15 16  1  0  0  0  0
 16 18  1  1  0  0  0
 17 16  1  0  0  0  0
 17 18  1  0  0  0  0
 17 20  1  1  0  0  0
 20 19  1  0  0  0  0
 22 28  1  0  0  0  0
 24 25  1  0  0  0  0
 24 29  1  0  0  0  0
 25 27  2  0  0  0  0
 26 22  1  0  0  0  0
 27 30  1  0  0  0  0
 27 21  1  0  0  0  0
 28 23  2  0  0  0  0
 29 30  2  0  0  0  0
 30 23  1  0  0  0  0
 31 29  1  0  0  0  0
 31 22  2  0  0  0  0
M  END
>  <MODEL>
2

>  <REMARK>
 VINA RESULT:      -7.8      2.743      7.341
  Name = 
  4 active torsions:
  status: ('A' for Active; 'I' for Inactive)
    1  A    between atoms: C_4  and  C_5
    2  A    between atoms: C_9  and  C_23
    3  A    between atoms: C_15  and  C_23
    4  A    between atoms: C_29  and  C_30
                            x       y       z     vdW  Elec       q    Type
                         _______ _______ _______ _____ _____    ______ ____

>  <TORSDO>
F 4

$$$$
=
 OpenBabel11052422343D

 31 36  0  0  1  0  0  0  0  0999 V2000
  162.0530  210.3890  156.3760 C   0  0  0  0  0  0  0  0  0  0  0  0
  160.7170  210.1110  152.8190 C   0  0  2  0  0  3  0  0  0  0  0  0
  160.9090  210.5670  154.2430 C   0  0  0  0  0  0  0  0  0  0  0  0
  161.3690  211.5160  156.8400 C   0  0  0  0  0  3  0  0  0  0  0  0
  158.9980  211.9740  152.6790 C   0  0  0  0  0  0  0  0  0  0  0  0
  163.0210  209.6910  157.2610 C   0  0  0  0  0  1  0  0  0  0  0  0
  159.3050  212.4030  153.8650 N   0  0  0  0  0  0  0  0  0  0  0  0
  159.5970  210.7820  152.1590 N   0  0  0  0  0  2  0  0  0  0  0  0
  161.8320  209.9220  155.0780 C   0  0  0  0  0  3  0  0  0  0  0  0
  160.2370  211.7140  154.7070 C   0  0  0  0  0  0  0  0  0  0  0  0
  160.4650  212.1790  156.0050 C   0  0  0  0  0  3  0  0  0  0  0  0
  160.6340  208.5860  152.6580 C   0  0  2  0  0  3  0  0  0  0  0  0
  161.1350  206.6400  154.0730 C   0  0  0  0  0  3  0  0  0  0  0  0
  160.8040  207.9220  153.9890 C   0  0  0  0  0  3  0  0  0  0  0  0
  161.4460  205.9040  152.9280 O   0  0  0  0  0  0  0  0  0  0  0  0
  161.9420  206.4990  151.7250 C   0  0  2  0  0  3  0  0  0  0  0  0
  161.4890  207.9490  151.5330 C   0  0  1  0  0  0  0  0  0  0  0  0
  160.7860  206.8250  150.7950 C   0  0  0  0  0  2  0  0  0  0  0  0
  161.9570  208.9170  148.9640 S   0  0  0  0  0  1  0  0  0  0  0  0
  162.4840  208.7590  150.7010 C   0  0  0  0  0  2  0  0  0  0  0  0
  158.0100  212.7240  151.8550 C   0  0  0  0  0  2  0  0  0  0  0  0
  158.1100  213.9080  146.6940 C   0  0  0  0  0  0  0  0  0  0  0  0
  157.1640  212.9690  148.7530 C   0  0  0  0  0  3  0  0  0  0  0  0
  160.2180  214.4530  149.6260 O   0  0  0  0  0  0  0  0  0  0  0  0
  159.9020  214.0270  150.8210 N   0  0  0  0  0  0  0  0  0  0  0  0
  158.0020  214.1470  145.2310 C   0  0  0  0  0  1  0  0  0  0  0  0
  158.7010  213.4080  150.7240 C   0  0  0  0  0  0  0  0  0  0  0  0
  157.0830  213.2060  147.3680 C   0  0  0  0  0  3  0  0  0  0  0  0
  159.2840  214.1290  148.7650 C   0  0  0  0  0  0  0  0  0  0  0  0
  158.2890  213.4560  149.4130 C   0  0  0  0  0  0  0  0  0  0  0  0
  159.2350  214.3820  147.3980 C   0  0  0  0  0  3  0  0  0  0  0  0
  1  4  1  0  0  0  0
  1  6  1  0  0  0  0
  2  8  1  1  0  0  0
  2  3  1  0  0  0  0
  3 10  2  0  0  0  0
  3  9  1  0  0  0  0
  5  7  2  0  0  0  0
  7 10  1  0  0  0  0
  8  5  1  0  0  0  0
  9  1  2  0  0  0  0
 10 11  1  0  0  0  0
 11  4  2  0  0  0  0
 12  2  1  0  0  0  0
 12 14  1  1  0  0  0
 14 13  2  0  0  0  0
 15 13  1  0  0  0  0
 16 18  1  6  0  0  0
 16 15  1  0  0  0  0
 17 20  1  6  0  0  0
 17 16  1  0  0  0  0
 17 12  1  0  0  0  0
 18 17  1  0  0  0  0
 19 20  1  0  0  0  0
 21  5  1  0  0  0  0
 22 28  2  0  0  0  0
 22 31  1  0  0  0  0
 23 30  2  0  0  0  0
 24 25  1  0  0  0  0
 26 22  1  0  0  0  0
 27 25  2  0  0  0  0
 27 21  1  0  0  0  0
 28 23  1  0  0  0  0
 29 30  1  0  0  0  0
 29 24  1  0  0  0  0
 30 27  1  0  0  0  0
 31 29  2  0  0  0  0
M  END
>  <MODEL>
3

>  <REMARK>
 VINA RESULT:      -6.8      2.299      5.014
  Name = 
  4 active torsions:
  status: ('A' for Active; 'I' for Inactive)
    1  A    between atoms: C_4  and  C_5
    2  A    between atoms: C_9  and  C_23
    3  A    between atoms: C_15  and  C_23
    4  A    between atoms: C_29  and  C_30
                            x       y       z     vdW  Elec       q    Type
                         _______ _______ _______ _____ _____    ______ ____

>  <TORSDO>
F 4

$$$$
=
 OpenBabel11052422343D

 31 36  0  0  1  0  0  0  0  0999 V2000
  161.2010  206.7990  153.1140 C   0  0  0  0  0  0  0  0  0  0  0  0
  160.7490  210.5150  152.4060 C   0  0  2  0  0  3  0  0  0  0  0  0
  161.1540  209.0700  152.2600 C   0  0  0  0  0  0  0  0  0  0  0  0
  161.7720  206.3580  151.9170 C   0  0  0  0  0  3  0  0  0  0  0  0
  161.7760  210.8130  150.1030 C   0  0  0  0  0  0  0  0  0  0  0  0
  160.9270  205.8310  154.2080 C   0  0  0  0  0  1  0  0  0  0  0  0
  161.9750  209.5360  149.9800 N   0  0  0  0  0  0  0  0  0  0  0  0
  161.2650  211.3560  151.3250 N   0  0  0  0  0  2  0  0  0  0  0  0
  160.8830  208.1490  153.2810 C   0  0  0  0  0  3  0  0  0  0  0  0
  161.7100  208.6180  151.0480 C   0  0  0  0  0  0  0  0  0  0  0  0
  162.0230  207.2650  150.8850 C   0  0  0  0  0  3  0  0  0  0  0  0
  161.0620  211.1140  153.7840 C   0  0  2  0  0  3  0  0  0  0  0  0
  162.3480  210.4080  155.7560 C   0  0  0  0  0  3  0  0  0  0  0  0
  162.1530  210.3300  154.4470 C   0  0  0  0  0  3  0  0  0  0  0  0
  161.4730  211.1310  156.5690 O   0  0  0  0  0  0  0  0  0  0  0  0
  160.1070  211.3780  156.2250 C   0  0  2  0  0  3  0  0  0  0  0  0
  159.8570  211.4080  154.7150 C   0  0  1  0  0  0  0  0  0  0  0  0
  159.9900  212.7030  155.4930 C   0  0  0  0  0  2  0  0  0  0  0  0
  157.4460  212.4070  153.7440 S   0  0  0  0  0  1  0  0  0  0  0  0
  158.4280  211.0000  154.3570 C   0  0  0  0  0  2  0  0  0  0  0  0
  162.0850  211.7210  148.9640 C   0  0  0  0  0  2  0  0  0  0  0  0
  158.3040  213.7890  145.8860 C   0  0  0  0  0  0  0  0  0  0  0  0
  160.0790  212.2070  146.4860 C   0  0  0  0  0  3  0  0  0  0  0  0
  159.7300  214.4120  149.1900 O   0  0  0  0  0  0  0  0  0  0  0  0
  160.6930  213.6880  149.6990 N   0  0  0  0  0  0  0  0  0  0  0  0
  157.2950  214.2650  144.9040 C   0  0  0  0  0  1  0  0  0  0  0  0
  160.9930  212.7230  148.7960 C   0  0  0  0  0  0  0  0  0  0  0  0
  159.1170  212.6750  145.5720 C   0  0  0  0  0  3  0  0  0  0  0  0
  159.4060  213.9650  148.0010 C   0  0  0  0  0  0  0  0  0  0  0  0
  160.1850  212.8870  147.6970 C   0  0  0  0  0  0  0  0  0  0  0  0
  158.4450  214.4530  147.1210 C   0  0  0  0  0  3  0  0  0  0  0  0
  1  9  1  0  0  0  0
  1  6  1  0  0  0  0
  2  8  1  6  0  0  0
  2 12  1  0  0  0  0
  3  2  1  0  0  0  0
  3  9  2  0  0  0  0
  4  1  2  0  0  0  0
  5  8  1  0  0  0  0
  7  5  2  0  0  0  0
  7 10  1  0  0  0  0
 10  3  1  0  0  0  0
 11 10  2  0  0  0  0
 11  4  1  0  0  0  0
 12 14  1  1  0  0  0
 12 17  1  0  0  0  0
 13 15  1  0  0  0  0
 14 13  2  0  0  0  0
 16 18  1  6  0  0  0
 16 15  1  0  0  0  0
 17 20  1  6  0  0  0
 17 18  1  0  0  0  0
 17 16  1  0  0  0  0
 19 20  1  0  0  0  0
 21  5  1  0  0  0  0
 22 31  1  0  0  0  0
 23 30  2  0  0  0  0
 24 25  1  0  0  0  0
 26 22  1  0  0  0  0
 27 21  1  0  0  0  0
 27 25  2  0  0  0  0
 28 22  2  0  0  0  0
 28 23  1  0  0  0  0
 29 24  1  0  0  0  0
 30 29  1  0  0  0  0
 30 27  1  0  0  0  0
 31 29  2  0  0  0  0
M  END
>  <MODEL>
4

>  <REMARK>
 VINA RESULT:      -6.7      1.705      2.588
  Name = 
  4 active torsions:
  status: ('A' for Active; 'I' for Inactive)
    1  A    between atoms: C_4  and  C_5
    2  A    between atoms: C_9  and  C_23
    3  A    between atoms: C_15  and  C_23
    4  A    between atoms: C_29  and  C_30
                            x       y       z     vdW  Elec       q    Type
                         _______ _______ _______ _____ _____    ______ ____

>  <TORSDO>
F 4

$$$$
=
 OpenBabel11052422343D

 31 36  0  0  1  0  0  0  0  0999 V2000
  160.3570  207.9700  155.2950 C   0  0  0  0  0  0  0  0  0  0  0  0
  161.8770  207.7140  151.8110 C   0  0  2  0  0  3  0  0  0  0  0  0
  161.2380  208.2780  153.0550 C   0  0  0  0  0  0  0  0  0  0  0  0
  160.1920  209.3520  155.4230 C   0  0  0  0  0  3  0  0  0  0  0  0
  161.8840  210.1140  150.9840 C   0  0  0  0  0  0  0  0  0  0  0  0
  159.9740  207.0700  156.4140 C   0  0  0  0  0  1  0  0  0  0  0  0
  161.4590  210.5540  152.1290 N   0  0  0  0  0  0  0  0  0  0  0  0
  162.0090  208.7080  150.7460 N   0  0  0  0  0  2  0  0  0  0  0  0
  160.8890  207.4350  154.1190 C   0  0  0  0  0  3  0  0  0  0  0  0
  161.0890  209.6710  153.1950 C   0  0  0  0  0  0  0  0  0  0  0  0
  160.5600  210.2000  154.3750 C   0  0  0  0  0  3  0  0  0  0  0  0
  161.2160  206.4260  151.3000 C   0  0  2  0  0  3  0  0  0  0  0  0
  161.4230  204.0280  151.7970 C   0  0  0  0  0  3  0  0  0  0  0  0
  161.5560  205.2820  152.2050 C   0  0  0  0  0  3  0  0  0  0  0  0
  161.0730  203.7370  150.4770 O   0  0  0  0  0  0  0  0  0  0  0  0
  161.3350  204.6220  149.3840 C   0  0  2  0  0  3  0  0  0  0  0  0
  161.3860  206.0960  149.7950 C   0  0  1  0  0  0  0  0  0  0  0  0
  160.1360  205.5250  149.1510 C   0  0  0  0  0  2  0  0  0  0  0  0
  161.7690  206.7960  147.1260 S   0  0  0  0  0  1  0  0  0  0  0  0
  162.2800  206.9220  148.8710 C   0  0  0  0  0  2  0  0  0  0  0  0
  162.2390  211.0800  149.9080 C   0  0  0  0  0  2  0  0  0  0  0  0
  159.2590  213.7610  146.4470 C   0  0  0  0  0  0  0  0  0  0  0  0
  160.9950  212.1730  147.1410 C   0  0  0  0  0  3  0  0  0  0  0  0
  159.5510  213.4420  150.0730 O   0  0  0  0  0  0  0  0  0  0  0  0
  160.4190  212.6540  150.6520 N   0  0  0  0  0  0  0  0  0  0  0  0
  158.5210  214.4520  145.3570 C   0  0  0  0  0  1  0  0  0  0  0  0
  161.1080  212.0230  149.6720 C   0  0  0  0  0  0  0  0  0  0  0  0
  160.2830  212.8400  146.1260 C   0  0  0  0  0  3  0  0  0  0  0  0
  159.6570  213.3560  148.7700 C   0  0  0  0  0  0  0  0  0  0  0  0
  160.6410  212.4640  148.4560 C   0  0  0  0  0  0  0  0  0  0  0  0
  158.9340  214.0310  147.7910 C   0  0  0  0  0  3  0  0  0  0  0  0
  1  4  1  0  0  0  0
  1  6  1  0  0  0  0
  2  8  1  6  0  0  0
  2  3  1  0  0  0  0
  3 10  2  0  0  0  0
  3  9  1  0  0  0  0
  5  7  2  0  0  0  0
  7 10  1  0  0  0  0
  8  5  1  0  0  0  0
  9  1  2  0  0  0  0
 10 11  1  0  0  0  0
 11  4  2  0  0  0  0
 12  2  1  0  0  0  0
 12 14  1  1  0  0  0
 13 14  2  0  0  0  0
 15 13  1  0  0  0  0
 16 18  1  6  0  0  0
 16 17  1  0  0  0  0
 16 15  1  0  0  0  0
 17 20  1  6  0  0  0
 17 12  1  0  0  0  0
 18 17  1  0  0  0  0
 19 20  1  0  0  0  0
 21  5  1  0  0  0  0
 22 31  1  0  0  0  0
 23 30  2  0  0  0  0
 24 25  1  0  0  0  0
 26 22  1  0  0  0  0
 27 21  1  0  0  0  0
 27 25  2  0  0  0  0
 28 22  2  0  0  0  0
 28 23  1  0  0  0  0
 29 24  1  0  0  0  0
 30 29  1  0  0  0  0
 30 27  1  0  0  0  0
 31 29  2  0  0  0  0
M  END
>  <MODEL>
5

>  <REMARK>
 VINA RESULT:      -6.7      2.119      4.338
  Name = 
  4 active torsions:
  status: ('A' for Active; 'I' for Inactive)
    1  A    between atoms: C_4  and  C_5
    2  A    between atoms: C_9  and  C_23
    3  A    between atoms: C_15  and  C_23
    4  A    between atoms: C_29  and  C_30
                            x       y       z     vdW  Elec       q    Type
                         _______ _______ _______ _____ _____    ______ ____

>  <TORSDO>
F 4

$$$$
=
 OpenBabel11052422343D

 31 36  0  0  1  0  0  0  0  0999 V2000
  161.5970  207.4270  152.0220 C   0  0  0  0  0  0  0  0  0  0  0  0
  160.4990  211.0750  152.0600 C   0  0  2  0  0  3  0  0  0  0  0  0
  161.1480  209.7810  151.6380 C   0  0  0  0  0  0  0  0  0  0  0  0
  162.2260  207.3420  150.7770 C   0  0  0  0  0  3  0  0  0  0  0  0
  161.4410  212.0040  149.8930 C   0  0  0  0  0  0  0  0  0  0  0  0
  161.5030  206.2250  152.8910 C   0  0  0  0  0  1  0  0  0  0  0  0
  161.8590  210.8320  149.5230 N   0  0  0  0  0  0  0  0  0  0  0  0
  160.8530  212.1930  151.1850 N   0  0  0  0  0  2  0  0  0  0  0  0
  161.0490  208.6400  152.4470 C   0  0  0  0  0  3  0  0  0  0  0  0
  161.7650  209.6860  150.3770 C   0  0  0  0  0  0  0  0  0  0  0  0
  162.3080  208.4690  149.9550 C   0  0  0  0  0  3  0  0  0  0  0  0
  160.7130  211.4280  153.5380 C   0  0  2  0  0  3  0  0  0  0  0  0
  161.6130  210.2670  155.5090 C   0  0  0  0  0  3  0  0  0  0  0  0
  161.5810  210.3960  154.1900 C   0  0  0  0  0  3  0  0  0  0  0  0
  160.7540  211.0100  156.3220 O   0  0  0  0  0  0  0  0  0  0  0  0
  159.4960  211.5200  155.8720 C   0  0  2  0  0  3  0  0  0  0  0  0
  159.4530  211.7890  154.3660 C   0  0  1  0  0  0  0  0  0  0  0  0
  159.6700  212.9310  155.3400 C   0  0  0  0  0  2  0  0  0  0  0  0
  157.4320  213.2550  153.1330 S   0  0  0  0  0  1  0  0  0  0  0  0
  158.0380  211.6710  153.7980 C   0  0  0  0  0  2  0  0  0  0  0  0
  161.5780  213.1640  148.9680 C   0  0  0  0  0  2  0  0  0  0  0  0
  161.8230  212.9580  143.6820 C   0  0  0  0  0  0  0  0  0  0  0  0
  162.7070  213.2670  145.9490 C   0  0  0  0  0  3  0  0  0  0  0  0
  159.3180  212.4350  146.2870 O   0  0  0  0  0  0  0  0  0  0  0  0
  159.5790  212.5570  147.5620 N   0  0  0  0  0  0  0  0  0  0  0  0
  162.0460  212.9600  142.2130 C   0  0  0  0  0  1  0  0  0  0  0  0
  160.8900  212.8740  147.6770 C   0  0  0  0  0  0  0  0  0  0  0  0
  162.8950  213.2640  144.5540 C   0  0  0  0  0  3  0  0  0  0  0  0
  160.3950  212.6690  145.5780 C   0  0  0  0  0  0  0  0  0  0  0  0
  161.4320  212.9580  146.4170 C   0  0  0  0  0  0  0  0  0  0  0  0
  160.5460  212.6550  144.1950 C   0  0  0  0  0  3  0  0  0  0  0  0
  1  9  1  0  0  0  0
  1  6  1  0  0  0  0
  2  8  1  6  0  0  0
  2 12  1  0  0  0  0
  3  2  1  0  0  0  0
  3  9  2  0  0  0  0
  4  1  2  0  0  0  0
  5  8  1  0  0  0  0
  7  5  2  0  0  0  0
  7 10  1  0  0  0  0
 10  3  1  0  0  0  0
 11 10  2  0  0  0  0
 11  4  1  0  0  0  0
 12 14  1  1  0  0  0
 12 17  1  0  0  0  0
 13 15  1  0  0  0  0
 14 13  2  0  0  0  0
 16 18  1  1  0  0  0
 16 15  1  0  0  0  0
 17 20  1  6  0  0  0
 17 18  1  0  0  0  0
 17 16  1  0  0  0  0
 19 20  1  0  0  0  0
 21  5  1  0  0  0  0
 22 31  2  0  0  0  0
 22 28  1  0  0  0  0
 23 30  1  0  0  0  0
 24 25  1  0  0  0  0
 25 27  2  0  0  0  0
 26 22  1  0  0  0  0
 27 21  1  0  0  0  0
 28 23  2  0  0  0  0
 29 24  1  0  0  0  0
 29 30  2  0  0  0  0
 30 27  1  0  0  0  0
 31 29  1  0  0  0  0
M  END
>  <MODEL>
6

>  <REMARK>
 VINA RESULT:      -6.6      2.159      3.204
  Name = 
  4 active torsions:
  status: ('A' for Active; 'I' for Inactive)
    1  A    between atoms: C_4  and  C_5
    2  A    between atoms: C_9  and  C_23
    3  A    between atoms: C_15  and  C_23
    4  A    between atoms: C_29  and  C_30
                            x       y       z     vdW  Elec       q    Type
                         _______ _______ _______ _____ _____    ______ ____

>  <TORSDO>
F 4

$$$$
=
 OpenBabel11052422343D

 31 36  0  0  1  0  0  0  0  0999 V2000
  162.1430  211.6010  149.2370 C   0  0  0  0  0  0  0  0  0  0  0  0
  161.3920  209.2430  152.1340 C   0  0  2  0  0  3  0  0  0  0  0  0
  161.6270  209.7660  150.7390 C   0  0  0  0  0  0  0  0  0  0  0  0
  162.2120  210.7070  148.1650 C   0  0  0  0  0  3  0  0  0  0  0  0
  161.1600  206.9760  151.0130 C   0  0  0  0  0  0  0  0  0  0  0  0
  162.3750  213.0510  149.0120 C   0  0  0  0  0  1  0  0  0  0  0  0
  161.5020  207.4640  149.8600 N   0  0  0  0  0  0  0  0  0  0  0  0
  160.9930  207.8350  152.1470 N   0  0  0  0  0  2  0  0  0  0  0  0
  161.8620  211.1310  150.5220 C   0  0  0  0  0  3  0  0  0  0  0  0
  161.7170  208.8660  149.6600 C   0  0  0  0  0  0  0  0  0  0  0  0
  162.0020  209.3420  148.3770 C   0  0  0  0  0  3  0  0  0  0  0  0
  160.4380  210.1060  152.9710 C   0  0  2  0  0  3  0  0  0  0  0  0
  159.7610  212.4690  152.9860 C   0  0  0  0  0  3  0  0  0  0  0  0
  160.2300  211.4310  152.3060 C   0  0  0  0  0  3  0  0  0  0  0  0
  159.5570  212.3880  154.3650 O   0  0  0  0  0  0  0  0  0  0  0  0
  160.2720  211.4830  155.2110 C   0  0  2  0  0  3  0  0  0  0  0  0
  160.7360  210.2150  154.4890 C   0  0  1  0  0  0  0  0  0  0  0  0
  159.4920  210.1870  155.3570 C   0  0  0  0  0  2  0  0  0  0  0  0
  161.6010  208.5460  156.5440 S   0  0  0  0  0  1  0  0  0  0  0  0
  161.9920  209.6160  155.1230 C   0  0  0  0  0  2  0  0  0  0  0  0
  160.9350  205.5110  151.1580 C   0  0  0  0  0  2  0  0  0  0  0  0
  161.3220  201.0690  148.3010 C   0  0  0  0  0  0  0  0  0  0  0  0
  161.2140  202.3990  150.3590 C   0  0  0  0  0  3  0  0  0  0  0  0
  160.9030  204.6440  147.6830 O   0  0  0  0  0  0  0  0  0  0  0  0
  160.8300  205.5290  148.6420 N   0  0  0  0  0  0  0  0  0  0  0  0
  161.4620  199.7440  147.6430 C   0  0  0  0  0  1  0  0  0  0  0  0
  160.9160  204.8600  149.8160 C   0  0  0  0  0  0  0  0  0  0  0  0
  161.3450  201.1560  149.7130 C   0  0  0  0  0  3  0  0  0  0  0  0
  161.0430  203.4400  148.1840 C   0  0  0  0  0  0  0  0  0  0  0  0
  161.0610  203.5200  149.5470 C   0  0  0  0  0  0  0  0  0  0  0  0
  161.1700  202.2280  147.5150 C   0  0  0  0  0  3  0  0  0  0  0  0
  1  9  1  0  0  0  0
  2  3  1  6  0  0  0
  2  8  1  0  0  0  0
  2 12  1  0  0  0  0
  4 11  1  0  0  0  0
  4  1  2  0  0  0  0
  5 21  1  0  0  0  0
  5  8  1  0  0  0  0
  6  1  1  0  0  0  0
  7  5  2  0  0  0  0
  9  3  2  0  0  0  0
 10  7  1  0  0  0  0
 10  3  1  0  0  0  0
 11 10  2  0  0  0  0
 12 14  1  6  0  0  0
 12 17  1  0  0  0  0
 13 15  1  0  0  0  0
 14 13  2  0  0  0  0
 15 16  1  0  0  0  0
 16 18  1  1  0  0  0
 17 20  1  1  0  0  0
 17 16  1  0  0  0  0
 17 18  1  0  0  0  0
 20 19  1  0  0  0  0
 22 28  1  0  0  0  0
 24 29  1  0  0  0  0
 24 25  1  0  0  0  0
 25 27  2  0  0  0  0
 26 22  1  0  0  0  0
 27 21  1  0  0  0  0
 28 23  2  0  0  0  0
 29 30  2  0  0  0  0
 30 27  1  0  0  0  0
 30 23  1  0  0  0  0
 31 29  1  0  0  0  0
 31 22  2  0  0  0  0
M  END
>  <MODEL>
7

>  <REMARK>
 VINA RESULT:      -6.5      3.071      7.279
  Name = 
  4 active torsions:
  status: ('A' for Active; 'I' for Inactive)
    1  A    between atoms: C_4  and  C_5
    2  A    between atoms: C_9  and  C_23
    3  A    between atoms: C_15  and  C_23
    4  A    between atoms: C_29  and  C_30
                            x       y       z     vdW  Elec       q    Type
                         _______ _______ _______ _____ _____    ______ ____

>  <TORSDO>
F 4

$$$$
=
 OpenBabel11052422343D

 31 36  0  0  1  0  0  0  0  0999 V2000
  160.9150  213.0710  149.6190 C   0  0  0  0  0  0  0  0  0  0  0  0
  160.8910  210.6840  152.5890 C   0  0  2  0  0  3  0  0  0  0  0  0
  161.0780  211.2350  151.1980 C   0  0  0  0  0  0  0  0  0  0  0  0
  161.5680  212.3010  148.6520 C   0  0  0  0  0  3  0  0  0  0  0  0
  161.9320  208.5630  151.6590 C   0  0  0  0  0  0  0  0  0  0  0  0
  160.4760  214.4530  149.2970 C   0  0  0  0  0  1  0  0  0  0  0  0
  162.1890  209.1370  150.5230 N   0  0  0  0  0  0  0  0  0  0  0  0
  161.2000  209.2570  152.6760 N   0  0  0  0  0  2  0  0  0  0  0  0
  160.6810  212.5440  150.8920 C   0  0  0  0  0  3  0  0  0  0  0  0
  161.7530  210.4690  150.2280 C   0  0  0  0  0  0  0  0  0  0  0  0
  161.9880  211.0040  148.9580 C   0  0  0  0  0  3  0  0  0  0  0  0
  159.5230  211.0030  153.2070 C   0  0  2  0  0  3  0  0  0  0  0  0
  157.7890  212.7080  152.8520 C   0  0  0  0  0  3  0  0  0  0  0  0
  158.8010  212.0060  152.3620 C   0  0  0  0  0  3  0  0  0  0  0  0
  157.4410  212.6170  154.2020 O   0  0  0  0  0  0  0  0  0  0  0  0
  158.3670  212.2400  155.2250 C   0  0  2  0  0  3  0  0  0  0  0  0
  159.4930  211.3330  154.7210 C   0  0  1  0  0  0  0  0  0  0  0  0
  158.3040  210.7390  155.4520 C   0  0  0  0  0  2  0  0  0  0  0  0
  161.1650  209.9580  156.4730 S   0  0  0  0  0  1  0  0  0  0  0  0
  160.7670  211.4800  155.5530 C   0  0  0  0  0  2  0  0  0  0  0  0
  162.3970  207.1700  151.9050 C   0  0  0  0  0  2  0  0  0  0  0  0
  161.4260  205.5810  146.9470 C   0  0  0  0  0  0  0  0  0  0  0  0
  162.5130  206.9190  148.6920 C   0  0  0  0  0  3  0  0  0  0  0  0
  160.3370  204.7050  150.3210 O   0  0  0  0  0  0  0  0  0  0  0  0
  160.7870  205.3010  151.3930 N   0  0  0  0  0  0  0  0  0  0  0  0
  161.2490  205.2630  145.5060 C   0  0  0  0  0  1  0  0  0  0  0  0
  161.6920  206.2260  150.9910 C   0  0  0  0  0  0  0  0  0  0  0  0
  162.3280  206.6010  147.3340 C   0  0  0  0  0  3  0  0  0  0  0  0
  160.9000  205.2080  149.2490 C   0  0  0  0  0  0  0  0  0  0  0  0
  161.7740  206.1880  149.6190 C   0  0  0  0  0  0  0  0  0  0  0  0
  160.6940  204.8680  147.9160 C   0  0  0  0  0  3  0  0  0  0  0  0
  1  9  1  0  0  0  0
  2  3  1  6  0  0  0
  2  8  1  0  0  0  0
  2 12  1  0  0  0  0
  4 11  1  0  0  0  0
  4  1  2  0  0  0  0
  5 21  1  0  0  0  0
  5  8  1  0  0  0  0
  6  1  1  0  0  0  0
  7  5  2  0  0  0  0
  9  3  2  0  0  0  0
 10  7  1  0  0  0  0
 10  3  1  0  0  0  0
 11 10  2  0  0  0  0
 12 14  1  6  0  0  0
 12 17  1  0  0  0  0
 13 15  1  0  0  0  0
 14 13  2  0  0  0  0
 15 16  1  0  0  0  0
 16 18  1  1  0  0  0
 17 16  1  0  0  0  0
 17 18  1  0  0  0  0
 17 20  1  1  0  0  0
 20 19  1  0  0  0  0
 22 28  2  0  0  0  0
 22 31  1  0  0  0  0
 23 30  2  0  0  0  0
 24 25  1  0  0  0  0
 26 22  1  0  0  0  0
 27 25  2  0  0  0  0
 27 21  1  0  0  0  0
 28 23  1  0  0  0  0
 29 30  1  0  0  0  0
 29 24  1  0  0  0  0
 30 27  1  0  0  0  0
 31 29  2  0  0  0  0
M  END
>  <MODEL>
8

>  <REMARK>
 VINA RESULT:      -6.1      2.642      6.310
  Name = 
  4 active torsions:
  status: ('A' for Active; 'I' for Inactive)
    1  A    between atoms: C_4  and  C_5
    2  A    between atoms: C_9  and  C_23
    3  A    between atoms: C_15  and  C_23
    4  A    between atoms: C_29  and  C_30
                            x       y       z     vdW  Elec       q    Type
                         _______ _______ _______ _____ _____    ______ ____

>  <TORSDO>
F 4

$$$$
=
 OpenBabel11052422343D

 31 36  0  0  1  0  0  0  0  0999 V2000
  161.3900  205.7090  151.3540 C   0  0  0  0  0  0  0  0  0  0  0  0
  160.8970  209.3410  152.3960 C   0  0  2  0  0  3  0  0  0  0  0  0
  161.3080  208.1210  151.6100 C   0  0  0  0  0  0  0  0  0  0  0  0
  161.9360  205.8610  150.0760 C   0  0  0  0  0  3  0  0  0  0  0  0
  161.8700  210.6560  150.4550 C   0  0  0  0  0  0  0  0  0  0  0  0
  161.1460  204.3490  151.9010 C   0  0  0  0  0  1  0  0  0  0  0  0
  162.0750  209.5730  149.7690 N   0  0  0  0  0  0  0  0  0  0  0  0
  161.3830  210.5850  151.8000 N   0  0  0  0  0  2  0  0  0  0  0  0
  161.0660  206.8360  152.1140 C   0  0  0  0  0  3  0  0  0  0  0  0
  161.8400  208.2700  150.3150 C   0  0  0  0  0  0  0  0  0  0  0  0
  162.1580  207.1390  149.5580 C   0  0  0  0  0  3  0  0  0  0  0  0
  161.2370  209.2620  153.8910 C   0  0  2  0  0  3  0  0  0  0  0  0
  160.7480  207.7010  155.7250 C   0  0  0  0  0  3  0  0  0  0  0  0
  160.8950  207.9050  154.4230 C   0  0  0  0  0  3  0  0  0  0  0  0
  160.7940  208.7660  156.6270 O   0  0  0  0  0  0  0  0  0  0  0  0
  160.4760  210.1130  156.2650 C   0  0  2  0  0  3  0  0  0  0  0  0
  160.7380  210.4230  154.7890 C   0  0  1  0  0  0  0  0  0  0  0  0
  161.7370  210.8480  155.8480 C   0  0  0  0  0  2  0  0  0  0  0  0
  158.1450  211.4270  154.9500 S   0  0  0  0  0  1  0  0  0  0  0  0
  159.8280  211.5340  154.2620 C   0  0  0  0  0  2  0  0  0  0  0  0
  162.1470  211.9840  149.8400 C   0  0  0  0  0  2  0  0  0  0  0  0
  157.5270  213.8840  148.0840 C   0  0  0  0  0  0  0  0  0  0  0  0
  159.2750  213.4460  149.7480 C   0  0  0  0  0  3  0  0  0  0  0  0
  160.4080  212.1090  146.7110 O   0  0  0  0  0  0  0  0  0  0  0  0
  161.4460  211.7720  147.4300 N   0  0  0  0  0  0  0  0  0  0  0  0
  156.1950  214.4530  147.7500 C   0  0  0  0  0  1  0  0  0  0  0  0
  161.2270  212.2190  148.6900 C   0  0  0  0  0  0  0  0  0  0  0  0
  158.0160  213.9770  149.4090 C   0  0  0  0  0  3  0  0  0  0  0  0
  159.5280  212.7410  147.4500 C   0  0  0  0  0  0  0  0  0  0  0  0
  160.0000  212.8370  148.7270 C   0  0  0  0  0  0  0  0  0  0  0  0
  158.2900  213.2560  147.0810 C   0  0  0  0  0  3  0  0  0  0  0  0
  1  6  1  0  0  0  0
  1  9  1  0  0  0  0
  2  3  1  6  0  0  0
  2 12  1  0  0  0  0
  3  9  2  0  0  0  0
  4  1  2  0  0  0  0
  5  8  1  0  0  0  0
  7 10  1  0  0  0  0
  7  5  2  0  0  0  0
  8  2  1  0  0  0  0
 10  3  1  0  0  0  0
 11  4  1  0  0  0  0
 11 10  2  0  0  0  0
 12 14  1  1  0  0  0
 12 17  1  0  0  0  0
 13 15  1  0  0  0  0
 14 13  2  0  0  0  0
 16 18  1  1  0  0  0
 16 15  1  0  0  0  0
 17 20  1  6  0  0  0
 17 18  1  0  0  0  0
 17 16  1  0  0  0  0
 20 19  1  0  0  0  0
 21  5  1  0  0  0  0
 22 28  1  0  0  0  0
 24 25  1  0  0  0  0
 24 29  1  0  0  0  0
 25 27  2  0  0  0  0
 26 22  1  0  0  0  0
 27 30  1  0  0  0  0
 27 21  1  0  0  0  0
 28 23  2  0  0  0  0
 29 30  2  0  0  0  0
 30 23  1  0  0  0  0
 31 29  1  0  0  0  0
 31 22  2  0  0  0  0
M  END
>  <MODEL>
9

>  <REMARK>
 VINA RESULT:      -5.8      1.607      2.153
  Name = 
  4 active torsions:
  status: ('A' for Active; 'I' for Inactive)
    1  A    between atoms: C_4  and  C_5
    2  A    between atoms: C_9  and  C_23
    3  A    between atoms: C_15  and  C_23
    4  A    between atoms: C_29  and  C_30
                            x       y       z     vdW  Elec       q    Type
                         _______ _______ _______ _____ _____    ______ ____

>  <TORSDO>
F 4

$$$$
