=
 OpenBabel11052422553D

 28 32  0  0  0  0  0  0  0  0999 V2000
  161.1640  207.2300  151.9860 N   0  0  0  0  0  0  0  0  0  0  0  0
  161.2620  206.3510  147.0500 C   0  0  0  0  0  3  0  0  0  0  0  0
  161.1790  202.4310  151.8080 C   0  0  0  0  0  1  0  0  0  0  0  0
  161.2700  203.9220  146.9390 C   0  0  0  0  0  0  0  0  0  0  0  0
  161.2300  205.0300  149.1100 C   0  0  0  0  0  0  0  0  0  0  0  0
  161.3020  205.2310  144.9020 C   0  0  0  0  0  0  0  0  0  0  0  0
  161.2550  205.1120  147.7060 C   0  0  0  0  0  0  0  0  0  0  0  0
  161.2350  202.6030  148.9670 C   0  0  0  0  0  3  0  0  0  0  0  0
  161.2940  203.9890  145.5430 C   0  0  0  0  0  3  0  0  0  0  0  0
  161.1720  204.8780  151.8550 C   0  0  0  0  0  0  0  0  0  0  0  0
  161.2150  206.1510  149.8750 N   0  0  0  0  0  0  0  0  0  0  0  0
  161.2620  202.6790  147.5740 C   0  0  0  0  0  3  0  0  0  0  0  0
  161.1160  205.9680  153.9520 C   0  0  0  0  0  3  0  0  0  0  0  0
  161.1920  203.7210  151.1180 N   0  0  0  0  0  0  0  0  0  0  0  0
  161.1390  204.8310  153.2160 N   0  0  0  0  0  0  0  0  0  0  0  0
  161.3240  205.2930  143.5480 F   0  0  0  0  0  0  0  0  0  0  0  0
  161.2850  206.4100  145.6530 C   0  0  0  0  0  3  0  0  0  0  0  0
  161.2200  203.7710  149.7490 C   0  0  0  0  0  0  0  0  0  0  0  0
  161.1260  207.1660  153.3180 N   0  0  0  0  0  0  0  0  0  0  0  0
  161.1850  206.0860  151.2340 C   0  0  0  0  0  0  0  0  0  0  0  0
  161.1560  208.5450  151.3530 C   0  0  0  0  0  2  0  0  0  0  0  0
  160.8930  209.6070  152.3670 C   0  0  0  0  0  0  0  0  0  0  0  0
  160.3810  211.5610  154.3030 C   0  0  0  0  0  0  0  0  0  0  0  0
  161.8980  209.9820  153.2660 C   0  0  0  0  0  3  0  0  0  0  0  0
  159.6300  210.2040  152.4430 C   0  0  0  0  0  3  0  0  0  0  0  0
  159.3740  211.1820  153.4090 C   0  0  0  0  0  3  0  0  0  0  0  0
  160.0620  212.7850  155.5120 Cl  0  0  0  0  0  0  0  0  0  0  0  0
  161.6430  210.9610  154.2320 C   0  0  0  0  0  3  0  0  0  0  0  0
  1 19  1  0  0  0  0
  2  7  1  0  0  0  0
  4 12  2  0  0  0  0
  4  7  1  0  0  0  0
  5 18  1  0  0  0  0
  5 11  1  0  0  0  0
  6  9  2  0  0  0  0
  6 17  1  0  0  0  0
  7  5  2  0  0  0  0
  8 18  2  0  0  0  0
  9  4  1  0  0  0  0
 10 15  2  0  0  0  0
 11 20  2  0  0  0  0
 12  8  1  0  0  0  0
 14  3  1  0  0  0  0
 14 10  1  0  0  0  0
 15 13  1  0  0  0  0
 16  6  1  0  0  0  0
 17  2  2  0  0  0  0
 18 14  1  0  0  0  0
 19 13  2  0  0  0  0
 20 10  1  0  0  0  0
 20  1  1  0  0  0  0
 21  1  1  0  0  0  0
 21 22  1  0  0  0  0
 22 25  2  0  0  0  0
 22 24  1  0  0  0  0
 23 27  1  0  0  0  0
 24 28  2  0  0  0  0
 25 26  1  0  0  0  0
 26 23  2  0  0  0  0
 28 23  1  0  0  0  0
M  END
>  <MODEL>
1

>  <REMARK>
 VINA RESULT:      -9.6      0.000      0.000
  Name = 
  2 active torsions:
  status: ('A' for Active; 'I' for Inactive)
    1  A    between atoms: N_1  and  C_2
    2  A    between atoms: C_2  and  C_3
                            x       y       z     vdW  Elec       q    Type
                         _______ _______ _______ _____ _____    ______ ____

>  <TORSDO>
F 2

$$$$
=
 OpenBabel11052422553D

 28 32  0  0  0  0  0  0  0  0999 V2000
  161.3620  205.1100  148.8250 N   0  0  0  0  0  0  0  0  0  0  0  0
  160.6850  206.5030  153.5940 C   0  0  0  0  0  3  0  0  0  0  0  0
  162.2680  209.8220  148.6450 C   0  0  0  0  0  1  0  0  0  0  0  0
  161.1400  208.8910  153.5240 C   0  0  0  0  0  0  0  0  0  0  0  0
  161.3020  207.5720  151.4800 C   0  0  0  0  0  0  0  0  0  0  0  0
  160.5290  207.8330  155.6140 C   0  0  0  0  0  0  0  0  0  0  0  0
  161.0420  207.6440  152.8610 C   0  0  0  0  0  0  0  0  0  0  0  0
  161.7480  209.9610  151.4400 C   0  0  0  0  0  3  0  0  0  0  0  0
  160.8840  208.9770  154.8940 C   0  0  0  0  0  3  0  0  0  0  0  0
  161.7990  207.4240  148.7790 C   0  0  0  0  0  0  0  0  0  0  0  0
  161.2170  206.3930  150.8140 N   0  0  0  0  0  0  0  0  0  0  0  0
  161.4930  210.0380  152.8100 C   0  0  0  0  0  3  0  0  0  0  0  0
  161.9340  206.1330  146.8030 C   0  0  0  0  0  3  0  0  0  0  0  0
  161.9000  208.6350  149.4160 N   0  0  0  0  0  0  0  0  0  0  0  0
  162.0360  207.3240  147.4410 N   0  0  0  0  0  0  0  0  0  0  0  0
  160.2800  207.9190  156.9430 F   0  0  0  0  0  0  0  0  0  0  0  0
  160.4300  206.5980  154.9660 C   0  0  0  0  0  3  0  0  0  0  0  0
  161.6560  208.7340  150.7610 C   0  0  0  0  0  0  0  0  0  0  0  0
  161.5920  205.0310  147.5130 N   0  0  0  0  0  0  0  0  0  0  0  0
  161.4600  206.3090  149.4770 C   0  0  0  0  0  0  0  0  0  0  0  0
  160.9800  203.8950  149.5380 C   0  0  0  0  0  2  0  0  0  0  0  0
  161.0770  202.7110  148.6350 C   0  0  0  0  0  0  0  0  0  0  0  0
  161.2060  200.4780  146.9560 C   0  0  0  0  0  0  0  0  0  0  0  0
  160.7590  202.8360  147.2780 C   0  0  0  0  0  3  0  0  0  0  0  0
  161.4510  201.4670  149.1530 C   0  0  0  0  0  3  0  0  0  0  0  0
  161.5180  200.3510  148.3140 C   0  0  0  0  0  3  0  0  0  0  0  0
  161.2900  199.0800  145.9050 Cl  0  0  0  0  0  0  0  0  0  0  0  0
  160.8260  201.7200  146.4380 C   0  0  0  0  0  3  0  0  0  0  0  0
  1 20  1  0  0  0  0
  1 21  1  0  0  0  0
  2 17  1  0  0  0  0
  3 14  1  0  0  0  0
  4  9  2  0  0  0  0
  5  7  1  0  0  0  0
  6 16  1  0  0  0  0
  7  4  1  0  0  0  0
  7  2  2  0  0  0  0
  8 12  2  0  0  0  0
  9  6  1  0  0  0  0
 10 14  1  0  0  0  0
 10 20  1  0  0  0  0
 11  5  1  0  0  0  0
 12  4  1  0  0  0  0
 13 15  1  0  0  0  0
 13 19  2  0  0  0  0
 14 18  1  0  0  0  0
 15 10  2  0  0  0  0
 17  6  2  0  0  0  0
 18  8  1  0  0  0  0
 18  5  2  0  0  0  0
 19  1  1  0  0  0  0
 20 11  2  0  0  0  0
 22 25  1  0  0  0  0
 22 21  1  0  0  0  0
 23 26  1  0  0  0  0
 24 22  2  0  0  0  0
 26 25  2  0  0  0  0
 27 23  1  0  0  0  0
 28 23  2  0  0  0  0
 28 24  1  0  0  0  0
M  END
>  <MODEL>
2

>  <REMARK>
 VINA RESULT:      -9.4      4.426      8.685
  Name = 
  2 active torsions:
  status: ('A' for Active; 'I' for Inactive)
    1  A    between atoms: N_1  and  C_2
    2  A    between atoms: C_2  and  C_3
                            x       y       z     vdW  Elec       q    Type
                         _______ _______ _______ _____ _____    ______ ____

>  <TORSDO>
F 2

$$$$
=
 OpenBabel11052422553D

 28 32  0  0  0  0  0  0  0  0999 V2000
  161.6690  207.3580  152.7090 N   0  0  0  0  0  0  0  0  0  0  0  0
  161.9740  210.9880  149.2610 C   0  0  0  0  0  3  0  0  0  0  0  0
  159.1810  210.9170  154.7580 C   0  0  0  0  0  1  0  0  0  0  0  0
  160.7180  212.8020  150.2820 C   0  0  0  0  0  0  0  0  0  0  0  0
  160.9570  210.6850  151.4680 C   0  0  0  0  0  0  0  0  0  0  0  0
  161.7240  213.0990  148.1010 C   0  0  0  0  0  0  0  0  0  0  0  0
  161.2200  211.4800  150.3370 C   0  0  0  0  0  0  0  0  0  0  0  0
  159.7100  212.5180  152.4640 C   0  0  0  0  0  3  0  0  0  0  0  0
  160.9720  213.6020  149.1660 C   0  0  0  0  0  3  0  0  0  0  0  0
  160.4560  209.1290  153.6790 C   0  0  0  0  0  0  0  0  0  0  0  0
  161.4240  209.4140  151.5520 N   0  0  0  0  0  0  0  0  0  0  0  0
  159.9660  213.3100  151.3440 C   0  0  0  0  0  3  0  0  0  0  0  0
  160.7140  207.0750  154.8220 C   0  0  0  0  0  3  0  0  0  0  0  0
  159.9620  210.4080  153.6310 N   0  0  0  0  0  0  0  0  0  0  0  0
  160.2260  208.3380  154.7650 N   0  0  0  0  0  0  0  0  0  0  0  0
  161.9700  213.8780  147.0190 F   0  0  0  0  0  0  0  0  0  0  0  0
  162.2240  211.7950  148.1480 C   0  0  0  0  0  3  0  0  0  0  0  0
  160.1990  211.2020  152.5400 C   0  0  0  0  0  0  0  0  0  0  0  0
  161.4390  206.5990  153.7810 N   0  0  0  0  0  0  0  0  0  0  0  0
  161.1830  208.6360  152.6430 C   0  0  0  0  0  0  0  0  0  0  0  0
  162.4710  206.8020  151.6240 C   0  0  0  0  0  2  0  0  0  0  0  0
  161.8210  205.5780  151.0710 C   0  0  0  0  0  0  0  0  0  0  0  0
  160.6500  203.2690  150.0140 C   0  0  0  0  0  0  0  0  0  0  0  0
  161.7710  204.4060  151.8340 C   0  0  0  0  0  3  0  0  0  0  0  0
  161.2930  205.5910  149.7760 C   0  0  0  0  0  3  0  0  0  0  0  0
  160.7050  204.4380  149.2480 C   0  0  0  0  0  3  0  0  0  0  0  0
  159.9140  201.8240  149.3520 Cl  0  0  0  0  0  0  0  0  0  0  0  0
  161.1830  203.2520  151.3060 C   0  0  0  0  0  3  0  0  0  0  0  0
  1 19  1  0  0  0  0
  2  7  1  0  0  0  0
  4  7  2  0  0  0  0
  4 12  1  0  0  0  0
  5 11  1  0  0  0  0
  5 18  2  0  0  0  0
  6 17  1  0  0  0  0
  6  9  2  0  0  0  0
  7  5  1  0  0  0  0
  8 18  1  0  0  0  0
  9  4  1  0  0  0  0
 10 15  2  0  0  0  0
 11 20  2  0  0  0  0
 12  8  2  0  0  0  0
 14 10  1  0  0  0  0
 14  3  1  0  0  0  0
 15 13  1  0  0  0  0
 16  6  1  0  0  0  0
 17  2  2  0  0  0  0
 18 14  1  0  0  0  0
 19 13  2  0  0  0  0
 20  1  1  0  0  0  0
 20 10  1  0  0  0  0
 21  1  1  0  0  0  0
 22 21  1  0  0  0  0
 22 24  1  0  0  0  0
 23 28  1  0  0  0  0
 25 22  2  0  0  0  0
 26 25  1  0  0  0  0
 26 23  2  0  0  0  0
 27 23  1  0  0  0  0
 28 24  2  0  0  0  0
M  END
>  <MODEL>
3

>  <REMARK>
 VINA RESULT:      -8.3      3.801      7.257
  Name = 
  2 active torsions:
  status: ('A' for Active; 'I' for Inactive)
    1  A    between atoms: N_1  and  C_2
    2  A    between atoms: C_2  and  C_3
                            x       y       z     vdW  Elec       q    Type
                         _______ _______ _______ _____ _____    ______ ____

>  <TORSDO>
F 2

$$$$
=
 OpenBabel11052422553D

 28 32  0  0  0  0  0  0  0  0999 V2000
  161.1050  203.9660  149.6940 N   0  0  0  0  0  0  0  0  0  0  0  0
  161.8470  208.8440  148.7960 C   0  0  0  0  0  3  0  0  0  0  0  0
  161.0560  205.8330  154.1180 C   0  0  0  0  0  1  0  0  0  0  0  0
  161.8250  209.8080  151.0280 C   0  0  0  0  0  0  0  0  0  0  0  0
  161.5050  207.4080  150.7490 C   0  0  0  0  0  0  0  0  0  0  0  0
  162.1640  211.2270  149.0950 C   0  0  0  0  0  0  0  0  0  0  0  0
  161.7240  208.6770  150.1830 C   0  0  0  0  0  0  0  0  0  0  0  0
  161.4920  208.4000  152.9680 C   0  0  0  0  0  3  0  0  0  0  0  0
  162.0440  211.0740  150.4800 C   0  0  0  0  0  3  0  0  0  0  0  0
  161.0870  204.9210  151.8470 C   0  0  0  0  0  0  0  0  0  0  0  0
  161.4030  206.3030  149.9670 N   0  0  0  0  0  0  0  0  0  0  0  0
  161.7070  209.6620  152.4120 C   0  0  0  0  0  3  0  0  0  0  0  0
  160.7960  202.5930  151.5590 C   0  0  0  0  0  3  0  0  0  0  0  0
  161.1790  206.0140  152.6720 N   0  0  0  0  0  0  0  0  0  0  0  0
  160.8840  203.6780  152.3660 N   0  0  0  0  0  0  0  0  0  0  0  0
  162.3760  212.4560  148.5660 F   0  0  0  0  0  0  0  0  0  0  0  0
  162.0660  210.1150  148.2550 C   0  0  0  0  0  3  0  0  0  0  0  0
  161.3880  207.2630  152.1480 C   0  0  0  0  0  0  0  0  0  0  0  0
  160.9110  202.7550  150.2190 N   0  0  0  0  0  0  0  0  0  0  0  0
  161.1980  205.0680  150.5010 C   0  0  0  0  0  0  0  0  0  0  0  0
  161.2400  204.0820  148.2460 C   0  0  0  0  0  2  0  0  0  0  0  0
  161.1910  202.7330  147.6100 C   0  0  0  0  0  0  0  0  0  0  0  0
  161.1520  200.2110  146.4010 C   0  0  0  0  0  0  0  0  0  0  0  0
  161.5430  201.5970  148.3480 C   0  0  0  0  0  3  0  0  0  0  0  0
  160.8290  202.6070  146.2640 C   0  0  0  0  0  3  0  0  0  0  0  0
  160.8070  201.3470  145.6600 C   0  0  0  0  0  3  0  0  0  0  0  0
  161.1250  198.6330  145.6440 Cl  0  0  0  0  0  0  0  0  0  0  0  0
  161.5210  200.3360  147.7440 C   0  0  0  0  0  3  0  0  0  0  0  0
  1 19  1  0  0  0  0
  1 20  1  0  0  0  0
  2  7  1  0  0  0  0
  4 12  1  0  0  0  0
  5 18  2  0  0  0  0
  6  9  2  0  0  0  0
  7  5  1  0  0  0  0
  7  4  2  0  0  0  0
  9  4  1  0  0  0  0
 10 15  2  0  0  0  0
 10 14  1  0  0  0  0
 11 20  2  0  0  0  0
 11  5  1  0  0  0  0
 12  8  2  0  0  0  0
 13 15  1  0  0  0  0
 14  3  1  0  0  0  0
 16  6  1  0  0  0  0
 17  2  2  0  0  0  0
 17  6  1  0  0  0  0
 18 14  1  0  0  0  0
 18  8  1  0  0  0  0
 19 13  2  0  0  0  0
 20 10  1  0  0  0  0
 21  1  1  0  0  0  0
 22 21  1  0  0  0  0
 22 24  1  0  0  0  0
 23 28  1  0  0  0  0
 25 22  2  0  0  0  0
 26 25  1  0  0  0  0
 26 23  2  0  0  0  0
 27 23  1  0  0  0  0
 28 24  2  0  0  0  0
M  END
>  <MODEL>
4

>  <REMARK>
 VINA RESULT:      -8.0      4.054      7.661
  Name = 
  2 active torsions:
  status: ('A' for Active; 'I' for Inactive)
    1  A    between atoms: N_1  and  C_2
    2  A    between atoms: C_2  and  C_3
                            x       y       z     vdW  Elec       q    Type
                         _______ _______ _______ _____ _____    ______ ____

>  <TORSDO>
F 2

$$$$
=
 OpenBabel11052422553D

 28 32  0  0  0  0  0  0  0  0999 V2000
  161.6020  208.6900  152.3700 N   0  0  0  0  0  0  0  0  0  0  0  0
  161.0010  203.7820  151.5340 C   0  0  0  0  0  3  0  0  0  0  0  0
  161.9770  208.4210  147.5900 C   0  0  0  0  0  1  0  0  0  0  0  0
  161.1890  203.6250  149.1150 C   0  0  0  0  0  0  0  0  0  0  0  0
  161.3880  205.7980  150.2000 C   0  0  0  0  0  0  0  0  0  0  0  0
  160.8070  201.6320  150.4350 C   0  0  0  0  0  0  0  0  0  0  0  0
  161.1920  204.4080  150.2930 C   0  0  0  0  0  0  0  0  0  0  0  0
  161.5740  205.6090  147.7840 C   0  0  0  0  0  3  0  0  0  0  0  0
  160.9960  202.2430  149.1930 C   0  0  0  0  0  3  0  0  0  0  0  0
  161.7790  208.5150  150.0280 C   0  0  0  0  0  0  0  0  0  0  0  0
  161.3960  206.5780  151.3110 N   0  0  0  0  0  0  0  0  0  0  0  0
  161.3780  204.2300  147.8700 C   0  0  0  0  0  3  0  0  0  0  0  0
  161.9880  210.6120  151.0980 C   0  0  0  0  0  3  0  0  0  0  0  0
  161.7730  207.7620  148.8800 N   0  0  0  0  0  0  0  0  0  0  0  0
  161.9760  209.8620  149.9700 N   0  0  0  0  0  0  0  0  0  0  0  0
  160.6220  200.2910  150.5080 F   0  0  0  0  0  0  0  0  0  0  0  0
  160.8100  202.3990  151.6030 C   0  0  0  0  0  3  0  0  0  0  0  0
  161.5810  206.4070  148.9420 C   0  0  0  0  0  0  0  0  0  0  0  0
  161.8000  210.0070  152.2960 N   0  0  0  0  0  0  0  0  0  0  0  0
  161.5910  207.9240  151.2360 C   0  0  0  0  0  0  0  0  0  0  0  0
  161.4230  208.0870  153.6870 C   0  0  0  0  0  2  0  0  0  0  0  0
  160.6330  208.9930  154.5700 C   0  0  0  0  0  0  0  0  0  0  0  0
  159.1930  210.7280  156.2250 C   0  0  0  0  0  0  0  0  0  0  0  0
  159.7390  209.9120  154.0110 C   0  0  0  0  0  3  0  0  0  0  0  0
  160.8130  208.9490  155.9570 C   0  0  0  0  0  3  0  0  0  0  0  0
  160.0910  209.8140  156.7840 C   0  0  0  0  0  3  0  0  0  0  0  0
  158.2890  211.8120  157.2610 Cl  0  0  0  0  0  0  0  0  0  0  0  0
  159.0160  210.7780  154.8390 C   0  0  0  0  0  3  0  0  0  0  0  0
  1 21  1  0  0  0  0
  2 17  1  0  0  0  0
  3 14  1  0  0  0  0
  4  9  2  0  0  0  0
  4  7  1  0  0  0  0
  5  7  1  0  0  0  0
  5 11  1  0  0  0  0
  6 16  1  0  0  0  0
  6 17  2  0  0  0  0
  7  2  2  0  0  0  0
  8 12  2  0  0  0  0
  8 18  1  0  0  0  0
  9  6  1  0  0  0  0
 10 20  1  0  0  0  0
 12  4  1  0  0  0  0
 13 19  2  0  0  0  0
 14 18  1  0  0  0  0
 14 10  1  0  0  0  0
 15 10  2  0  0  0  0
 15 13  1  0  0  0  0
 18  5  2  0  0  0  0
 19  1  1  0  0  0  0
 20 11  2  0  0  0  0
 20  1  1  0  0  0  0
 21 22  1  0  0  0  0
 22 25  1  0  0  0  0
 23 26  1  0  0  0  0
 23 27  1  0  0  0  0
 24 22  2  0  0  0  0
 24 28  1  0  0  0  0
 25 26  2  0  0  0  0
 28 23  2  0  0  0  0
M  END
>  <MODEL>
5

>  <REMARK>
 VINA RESULT:      -8.0      2.430      4.186
  Name = 
  2 active torsions:
  status: ('A' for Active; 'I' for Inactive)
    1  A    between atoms: N_1  and  C_2
    2  A    between atoms: C_2  and  C_3
                            x       y       z     vdW  Elec       q    Type
                         _______ _______ _______ _____ _____    ______ ____

>  <TORSDO>
F 2

$$$$
=
 OpenBabel11052422553D

 28 32  0  0  0  0  0  0  0  0999 V2000
  162.1970  208.9650  150.0410 N   0  0  0  0  0  0  0  0  0  0  0  0
  161.6380  204.9120  147.1410 C   0  0  0  0  0  3  0  0  0  0  0  0
  160.8850  205.6140  153.2200 C   0  0  0  0  0  1  0  0  0  0  0  0
  160.9720  203.2010  148.7350 C   0  0  0  0  0  0  0  0  0  0  0  0
  161.4190  205.4670  149.5140 C   0  0  0  0  0  0  0  0  0  0  0  0
  161.1890  202.6540  146.3860 C   0  0  0  0  0  0  0  0  0  0  0  0
  161.3470  204.5380  148.4610 C   0  0  0  0  0  0  0  0  0  0  0  0
  160.7480  203.7370  151.0840 C   0  0  0  0  0  3  0  0  0  0  0  0
  160.8960  202.2690  147.6970 C   0  0  0  0  0  3  0  0  0  0  0  0
  161.5520  207.2920  151.5680 C   0  0  0  0  0  0  0  0  0  0  0  0
  161.7750  206.7570  149.2860 N   0  0  0  0  0  0  0  0  0  0  0  0
  160.6770  202.8110  150.0430 C   0  0  0  0  0  3  0  0  0  0  0  0
  161.9710  209.4990  152.3040 C   0  0  0  0  0  3  0  0  0  0  0  0
  161.1920  205.9970  151.8420 N   0  0  0  0  0  0  0  0  0  0  0  0
  161.6210  208.2170  152.5660 N   0  0  0  0  0  0  0  0  0  0  0  0
  161.1140  201.7480  145.3820 F   0  0  0  0  0  0  0  0  0  0  0  0
  161.5590  203.9730  146.1080 C   0  0  0  0  0  3  0  0  0  0  0  0
  161.1180  205.0700  150.8350 C   0  0  0  0  0  0  0  0  0  0  0  0
  162.2560  209.8590  151.0290 N   0  0  0  0  0  0  0  0  0  0  0  0
  161.8420  207.6680  150.2950 C   0  0  0  0  0  0  0  0  0  0  0  0
  162.4960  209.4100  148.6830 C   0  0  0  0  0  2  0  0  0  0  0  0
  161.7400  210.6570  148.3670 C   0  0  0  0  0  0  0  0  0  0  0  0
  160.2820  212.9760  147.8060 C   0  0  0  0  0  0  0  0  0  0  0  0
  161.9310  211.8070  149.1400 C   0  0  0  0  0  3  0  0  0  0  0  0
  160.8130  210.6650  147.3190 C   0  0  0  0  0  3  0  0  0  0  0  0
  160.0860  211.8250  147.0380 C   0  0  0  0  0  3  0  0  0  0  0  0
  159.3710  214.4290  147.4530 Cl  0  0  0  0  0  0  0  0  0  0  0  0
  161.2040  212.9680  148.8580 C   0  0  0  0  0  3  0  0  0  0  0  0
  1 20  1  0  0  0  0
  1 19  1  0  0  0  0
  2  7  1  0  0  0  0
  4 12  1  0  0  0  0
  5 18  2  0  0  0  0
  6  9  2  0  0  0  0
  7  4  2  0  0  0  0
  7  5  1  0  0  0  0
  9  4  1  0  0  0  0
 10 14  1  0  0  0  0
 10 15  2  0  0  0  0
 11  5  1  0  0  0  0
 11 20  2  0  0  0  0
 12  8  2  0  0  0  0
 13 15  1  0  0  0  0
 14  3  1  0  0  0  0
 16  6  1  0  0  0  0
 17  6  1  0  0  0  0
 17  2  2  0  0  0  0
 18  8  1  0  0  0  0
 18 14  1  0  0  0  0
 19 13  2  0  0  0  0
 20 10  1  0  0  0  0
 21  1  1  0  0  0  0
 22 21  1  0  0  0  0
 22 24  1  0  0  0  0
 23 28  1  0  0  0  0
 25 22  2  0  0  0  0
 26 25  1  0  0  0  0
 26 23  2  0  0  0  0
 27 23  1  0  0  0  0
 28 24  2  0  0  0  0
M  END
>  <MODEL>
6

>  <REMARK>
 VINA RESULT:      -7.9      3.054      3.792
  Name = 
  2 active torsions:
  status: ('A' for Active; 'I' for Inactive)
    1  A    between atoms: N_1  and  C_2
    2  A    between atoms: C_2  and  C_3
                            x       y       z     vdW  Elec       q    Type
                         _______ _______ _______ _____ _____    ______ ____

>  <TORSDO>
F 2

$$$$
=
 OpenBabel11052422553D

 28 32  0  0  0  0  0  0  0  0999 V2000
  161.5600  207.2360  151.4880 N   0  0  0  0  0  0  0  0  0  0  0  0
  159.0170  211.4670  152.3730 C   0  0  0  0  0  3  0  0  0  0  0  0
  161.1110  207.1710  156.2680 C   0  0  0  0  0  1  0  0  0  0  0  0
  158.7800  211.4520  154.7930 C   0  0  0  0  0  0  0  0  0  0  0  0
  159.9470  209.6220  153.6850 C   0  0  0  0  0  0  0  0  0  0  0  0
  157.8600  213.2770  153.4940 C   0  0  0  0  0  0  0  0  0  0  0  0
  159.2520  210.8420  153.6060 C   0  0  0  0  0  0  0  0  0  0  0  0
  159.6970  209.6360  156.1030 C   0  0  0  0  0  3  0  0  0  0  0  0
  158.0880  212.6640  154.7290 C   0  0  0  0  0  3  0  0  0  0  0  0
  161.3180  207.2420  153.8310 C   0  0  0  0  0  0  0  0  0  0  0  0
  160.4130  209.0100  152.5670 N   0  0  0  0  0  0  0  0  0  0  0  0
  159.0040  210.8450  156.0300 C   0  0  0  0  0  3  0  0  0  0  0  0
  162.4630  205.4830  152.7420 C   0  0  0  0  0  3  0  0  0  0  0  0
  160.8590  207.8250  154.9850 N   0  0  0  0  0  0  0  0  0  0  0  0
  162.0030  206.0650  153.8760 N   0  0  0  0  0  0  0  0  0  0  0  0
  157.1900  214.4530  153.4350 F   0  0  0  0  0  0  0  0  0  0  0  0
  158.3250  212.6810  152.3180 C   0  0  0  0  0  3  0  0  0  0  0  0
  160.1750  209.0120  154.9370 C   0  0  0  0  0  0  0  0  0  0  0  0
  162.2330  206.0870  151.5510 N   0  0  0  0  0  0  0  0  0  0  0  0
  161.0940  207.8330  152.6290 C   0  0  0  0  0  0  0  0  0  0  0  0
  161.3560  207.8520  150.1810 C   0  0  0  0  0  2  0  0  0  0  0  0
  161.4230  206.8210  149.1050 C   0  0  0  0  0  0  0  0  0  0  0  0
  161.5940  204.8660  147.1120 C   0  0  0  0  0  0  0  0  0  0  0  0
  160.7240  205.6170  149.2440 C   0  0  0  0  0  3  0  0  0  0  0  0
  162.2150  207.0430  147.9730 C   0  0  0  0  0  3  0  0  0  0  0  0
  162.2980  206.0660  146.9750 C   0  0  0  0  0  3  0  0  0  0  0  0
  161.6990  203.6440  145.8630 Cl  0  0  0  0  0  0  0  0  0  0  0  0
  160.8080  204.6400  148.2450 C   0  0  0  0  0  3  0  0  0  0  0  0
  1 19  1  0  0  0  0
  1 20  1  0  0  0  0
  2  7  1  0  0  0  0
  4 12  1  0  0  0  0
  5 18  2  0  0  0  0
  6  9  2  0  0  0  0
  7  5  1  0  0  0  0
  7  4  2  0  0  0  0
  9  4  1  0  0  0  0
 10 15  2  0  0  0  0
 10 14  1  0  0  0  0
 11 20  2  0  0  0  0
 11  5  1  0  0  0  0
 12  8  2  0  0  0  0
 13 15  1  0  0  0  0
 14  3  1  0  0  0  0
 16  6  1  0  0  0  0
 17  2  2  0  0  0  0
 17  6  1  0  0  0  0
 18 14  1  0  0  0  0
 18  8  1  0  0  0  0
 19 13  2  0  0  0  0
 20 10  1  0  0  0  0
 21  1  1  0  0  0  0
 22 24  1  0  0  0  0
 22 21  1  0  0  0  0
 23 28  1  0  0  0  0
 25 22  2  0  0  0  0
 26 23  2  0  0  0  0
 26 25  1  0  0  0  0
 27 23  1  0  0  0  0
 28 24  2  0  0  0  0
M  END
>  <MODEL>
7

>  <REMARK>
 VINA RESULT:      -7.5      4.053      8.136
  Name = 
  2 active torsions:
  status: ('A' for Active; 'I' for Inactive)
    1  A    between atoms: N_1  and  C_2
    2  A    between atoms: C_2  and  C_3
                            x       y       z     vdW  Elec       q    Type
                         _______ _______ _______ _____ _____    ______ ____

>  <TORSDO>
F 2

$$$$
=
 OpenBabel11052422553D

 28 32  0  0  0  0  0  0  0  0999 V2000
  161.5890  208.8640  152.5790 N   0  0  0  0  0  0  0  0  0  0  0  0
  162.0040  211.9370  148.6390 C   0  0  0  0  0  3  0  0  0  0  0  0
  158.8200  212.5640  153.8810 C   0  0  0  0  0  1  0  0  0  0  0  0
  160.6070  213.8200  149.2790 C   0  0  0  0  0  0  0  0  0  0  0  0
  160.8410  211.9240  150.7920 C   0  0  0  0  0  0  0  0  0  0  0  0
  161.7580  213.8320  147.1500 C   0  0  0  0  0  0  0  0  0  0  0  0
  161.1550  212.5490  149.5720 C   0  0  0  0  0  0  0  0  0  0  0  0
  159.4540  213.8220  151.4070 C   0  0  0  0  0  3  0  0  0  0  0  0
  160.9110  214.4530  148.0720 C   0  0  0  0  0  3  0  0  0  0  0  0
  160.2400  210.6980  153.1800 C   0  0  0  0  0  0  0  0  0  0  0  0
  161.3500  210.7040  151.1040 N   0  0  0  0  0  0  0  0  0  0  0  0
  159.7600  214.4460  150.1970 C   0  0  0  0  0  3  0  0  0  0  0  0
  160.4930  208.8580  154.6430 C   0  0  0  0  0  3  0  0  0  0  0  0
  159.7010  211.9290  152.9010 N   0  0  0  0  0  0  0  0  0  0  0  0
  159.9620  210.0720  154.3570 N   0  0  0  0  0  0  0  0  0  0  0  0
  162.0530  214.4490  145.9790 F   0  0  0  0  0  0  0  0  0  0  0  0
  162.3050  212.5770  147.4320 C   0  0  0  0  0  3  0  0  0  0  0  0
  159.9870  212.5590  151.7190 C   0  0  0  0  0  0  0  0  0  0  0  0
  161.3100  208.2660  153.7390 N   0  0  0  0  0  0  0  0  0  0  0  0
  161.0600  210.0900  152.2840 C   0  0  0  0  0  0  0  0  0  0  0  0
  162.4900  208.1890  151.6500 C   0  0  0  0  0  2  0  0  0  0  0  0
  161.9420  206.8540  151.2720 C   0  0  0  0  0  0  0  0  0  0  0  0
  160.8740  204.3590  150.5990 C   0  0  0  0  0  0  0  0  0  0  0  0
  161.0950  206.7310  150.1660 C   0  0  0  0  0  3  0  0  0  0  0  0
  162.2480  205.7290  152.0470 C   0  0  0  0  0  3  0  0  0  0  0  0
  161.7160  204.4810  151.7090 C   0  0  0  0  0  3  0  0  0  0  0  0
  160.2070  202.7960  150.1760 Cl  0  0  0  0  0  0  0  0  0  0  0  0
  160.5620  205.4820  149.8280 C   0  0  0  0  0  3  0  0  0  0  0  0
  1 19  1  0  0  0  0
  2  7  1  0  0  0  0
  4  7  2  0  0  0  0
  4 12  1  0  0  0  0
  5 11  1  0  0  0  0
  5 18  2  0  0  0  0
  6 17  1  0  0  0  0
  6  9  2  0  0  0  0
  7  5  1  0  0  0  0
  8 18  1  0  0  0  0
  9  4  1  0  0  0  0
 10 15  2  0  0  0  0
 11 20  2  0  0  0  0
 12  8  2  0  0  0  0
 14 10  1  0  0  0  0
 14  3  1  0  0  0  0
 15 13  1  0  0  0  0
 16  6  1  0  0  0  0
 17  2  2  0  0  0  0
 18 14  1  0  0  0  0
 19 13  2  0  0  0  0
 20  1  1  0  0  0  0
 20 10  1  0  0  0  0
 21  1  1  0  0  0  0
 22 21  1  0  0  0  0
 22 25  1  0  0  0  0
 23 26  1  0  0  0  0
 24 22  2  0  0  0  0
 26 25  2  0  0  0  0
 27 23  1  0  0  0  0
 28 24  1  0  0  0  0
 28 23  2  0  0  0  0
M  END
>  <MODEL>
8

>  <REMARK>
 VINA RESULT:      -7.4      4.275      7.567
  Name = 
  2 active torsions:
  status: ('A' for Active; 'I' for Inactive)
    1  A    between atoms: N_1  and  C_2
    2  A    between atoms: C_2  and  C_3
                            x       y       z     vdW  Elec       q    Type
                         _______ _______ _______ _____ _____    ______ ____

>  <TORSDO>
F 2

$$$$
=
 OpenBabel11052422553D

 28 32  0  0  0  0  0  0  0  0999 V2000
  161.9480  207.8230  152.1120 N   0  0  0  0  0  0  0  0  0  0  0  0
  162.3270  211.5180  148.7430 C   0  0  0  0  0  3  0  0  0  0  0  0
  159.0760  211.1920  153.9720 C   0  0  0  0  0  1  0  0  0  0  0  0
  160.8770  213.2370  149.6680 C   0  0  0  0  0  0  0  0  0  0  0  0
  161.1430  211.1200  150.8480 C   0  0  0  0  0  0  0  0  0  0  0  0
  162.0490  213.6290  147.5860 C   0  0  0  0  0  0  0  0  0  0  0  0
  161.4530  211.9470  149.7530 C   0  0  0  0  0  0  0  0  0  0  0  0
  159.7030  212.8590  151.7500 C   0  0  0  0  0  3  0  0  0  0  0  0
  161.1770  214.0680  148.5860 C   0  0  0  0  0  3  0  0  0  0  0  0
  160.5480  209.5020  152.9900 C   0  0  0  0  0  0  0  0  0  0  0  0
  161.6780  209.8780  150.9600 N   0  0  0  0  0  0  0  0  0  0  0  0
  160.0060  213.6820  150.6650 C   0  0  0  0  0  3  0  0  0  0  0  0
  160.8310  207.4500  154.1310 C   0  0  0  0  0  3  0  0  0  0  0  0
  159.9820  210.7490  152.9130 N   0  0  0  0  0  0  0  0  0  0  0  0
  160.2740  208.6820  154.0440 N   0  0  0  0  0  0  0  0  0  0  0  0
  162.3390  214.4380  146.5380 F   0  0  0  0  0  0  0  0  0  0  0  0
  162.6230  212.3570  147.6640 C   0  0  0  0  0  3  0  0  0  0  0  0
  160.2640  211.5740  151.8550 C   0  0  0  0  0  0  0  0  0  0  0  0
  161.6720  207.0350  153.1530 N   0  0  0  0  0  0  0  0  0  0  0  0
  161.3910  209.0700  152.0170 C   0  0  0  0  0  0  0  0  0  0  0  0
  162.8740  207.3340  151.0960 C   0  0  0  0  0  2  0  0  0  0  0  0
  162.1480  207.0550  149.8230 C   0  0  0  0  0  0  0  0  0  0  0  0
  160.8210  206.4900  147.4270 C   0  0  0  0  0  0  0  0  0  0  0  0
  161.0090  206.2430  149.8290 C   0  0  0  0  0  3  0  0  0  0  0  0
  162.6280  207.5770  148.6170 C   0  0  0  0  0  3  0  0  0  0  0  0
  161.9630  207.2960  147.4190 C   0  0  0  0  0  3  0  0  0  0  0  0
  159.9880  206.1380  145.9270 Cl  0  0  0  0  0  0  0  0  0  0  0  0
  160.3440  205.9620  148.6310 C   0  0  0  0  0  3  0  0  0  0  0  0
  1 19  1  0  0  0  0
  2  7  1  0  0  0  0
  4  7  2  0  0  0  0
  4 12  1  0  0  0  0
  5 11  1  0  0  0  0
  5 18  2  0  0  0  0
  6 17  1  0  0  0  0
  6  9  2  0  0  0  0
  7  5  1  0  0  0  0
  8 18  1  0  0  0  0
  9  4  1  0  0  0  0
 10 15  2  0  0  0  0
 11 20  2  0  0  0  0
 12  8  2  0  0  0  0
 14 10  1  0  0  0  0
 14  3  1  0  0  0  0
 15 13  1  0  0  0  0
 16  6  1  0  0  0  0
 17  2  2  0  0  0  0
 18 14  1  0  0  0  0
 19 13  2  0  0  0  0
 20  1  1  0  0  0  0
 20 10  1  0  0  0  0
 21  1  1  0  0  0  0
 22 24  1  0  0  0  0
 22 21  1  0  0  0  0
 23 28  1  0  0  0  0
 25 22  2  0  0  0  0
 26 23  2  0  0  0  0
 26 25  1  0  0  0  0
 27 23  1  0  0  0  0
 28 24  2  0  0  0  0
M  END
>  <MODEL>
9

>  <REMARK>
 VINA RESULT:      -7.2      4.049      7.228
  Name = 
  2 active torsions:
  status: ('A' for Active; 'I' for Inactive)
    1  A    between atoms: N_1  and  C_2
    2  A    between atoms: C_2  and  C_3
                            x       y       z     vdW  Elec       q    Type
                         _______ _______ _______ _____ _____    ______ ____

>  <TORSDO>
F 2

$$$$
