=
 OpenBabel11062407483D

 34 37  0  0  1  0  0  0  0  0999 V2000
  162.2490  209.8610  156.4950 C   0  0  2  0  0  3  0  0  0  0  0  0
  160.7590  208.3930  155.2290 C   0  0  0  0  0  0  0  0  0  0  0  0
  160.0030  210.5350  155.6100 N   0  0  1  0  0  0  0  0  0  0  0  0
  163.4770  211.8910  156.7430 O   0  0  0  0  0  1  0  0  0  0  0  0
  161.0270  207.1810  155.4470 O   0  0  0  0  0  0  0  0  0  0  0  0
  160.3570  208.8880  153.9700 N   0  0  0  0  0  0  0  0  0  0  0  0
  160.7880  209.4560  156.2520 C   0  0  2  0  0  3  0  0  0  0  0  0
  162.9220  208.8490  157.1800 O   0  0  0  0  0  1  0  0  0  0  0  0
  160.3570  211.8440  156.0300 N   0  0  0  0  0  0  0  0  0  0  0  0
  162.4000  211.1710  157.2610 C   0  0  1  0  0  3  0  0  0  0  0  0
  159.6990  208.0620  152.9730 C   0  0  0  0  0  1  0  0  0  0  0  0
  160.0520  214.1300  155.6920 O   0  0  0  0  0  0  0  0  0  0  0  0
  159.5480  212.9730  155.6450 C   0  0  0  0  0  0  0  0  0  0  0  0
  160.0580  210.2990  154.1370 C   0  0  2  0  0  3  0  0  0  0  0  0
  161.1470  212.0350  157.2470 C   0  0  0  0  0  2  0  0  0  0  0  0
  155.8620  211.6970  155.3230 C   0  0  2  0  0  3  0  0  0  0  0  0
  155.3360  212.9320  154.6010 C   0  0  0  0  0  2  0  0  0  0  0  0
  158.1480  212.8140  155.1900 C   0  0  0  0  0  0  0  0  0  0  0  0
  156.3430  213.3860  153.5480 C   0  0  0  0  0  2  0  0  0  0  0  0
  157.1700  212.0330  156.0400 C   0  0  0  0  0  2  0  0  0  0  0  0
  157.7320  213.4960  154.1120 C   0  0  0  0  0  3  0  0  0  0  0  0
  156.0610  210.6600  154.4280 F   0  0  0  0  0  0  0  0  0  0  0  0
  160.4820  212.1380  152.5710 O   0  0  0  0  0  1  0  0  0  0  0  0
  161.0780  211.1270  153.3240 C   0  0  2  0  0  3  0  0  0  0  0  0
  161.9800  210.2720  152.4500 C   0  0  0  0  0  2  0  0  0  0  0  0
  161.6260  210.4160  150.9760 C   0  0  0  0  0  2  0  0  0  0  0  0
  162.4090  209.4200  150.1350 C   0  0  0  0  0  2  0  0  0  0  0  0
  162.6730  207.3370  148.0250 O   0  0  0  0  0  1  0  0  0  0  0  0
  161.7480  208.0490  150.1400 C   0  0  1  0  0  3  0  0  0  0  0  0
  161.4760  207.5550  148.7130 C   0  0  2  0  0  3  0  0  0  0  0  0
  160.5390  205.3490  150.2530 S   0  0  0  0  0  0  0  0  0  0  0  0
  162.3000  205.6020  150.6390 C   0  0  0  0  0  2  0  0  0  0  0  0
  162.5940  207.0680  150.9600 C   0  0  0  0  0  2  0  0  0  0  0  0
  160.6150  206.2840  148.6740 C   0  0  0  0  0  2  0  0  0  0  0  0
  1  8  1  1  0  0  0
  1 10  1  0  0  0  0
  2  5  2  0  0  0  0
  3  9  1  6  0  0  0
  3  7  1  0  0  0  0
  6 14  1  0  0  0  0
  6  2  1  0  0  0  0
  7  2  1  6  0  0  0
  7  1  1  0  0  0  0
  9 15  1  0  0  0  0
 10  4  1  6  0  0  0
 11  6  1  0  0  0  0
 13 12  2  0  0  0  0
 13  9  1  0  0  0  0
 14 24  1  1  0  0  0
 14  3  1  0  0  0  0
 15 10  1  0  0  0  0
 16 22  1  6  0  0  0
 16 20  1  0  0  0  0
 17 16  1  0  0  0  0
 18 13  1  0  0  0  0
 18 20  1  0  0  0  0
 19 21  1  0  0  0  0
 19 17  1  0  0  0  0
 21 18  2  0  0  0  0
 24 23  1  6  0  0  0
 25 24  1  0  0  0  0
 26 25  1  0  0  0  0
 27 26  1  0  0  0  0
 29 27  1  6  0  0  0
 29 33  1  0  0  0  0
 30 28  1  1  0  0  0
 30 29  1  0  0  0  0
 31 32  1  0  0  0  0
 32 33  1  0  0  0  0
 34 30  1  0  0  0  0
 34 31  1  0  0  0  0
M  END
>  <MODEL>
1

>  <REMARK>
 VINA RESULT:      -2.7      0.000      0.000
  Name = 
  6 active torsions:
  status: ('A' for Active; 'I' for Inactive)
    1  A    between atoms: C_3  and  C_13
    2  A    between atoms: C_3  and  C_17
    3  A    between atoms: C_12  and  C_28
    4  A    between atoms: C_17  and  C_29
    5  A    between atoms: C_18  and  C_29
    6  A    between atoms: C_18  and  C_31
                            x       y       z     vdW  Elec       q    Type
                         _______ _______ _______ _____ _____    ______ ____

>  <TORSDO>
F 6

$$$$
=
 OpenBabel11062407483D

 34 37  0  0  1  0  0  0  0  0999 V2000
  162.1080  210.0510  152.5870 C   0  0  2  0  0  3  0  0  0  0  0  0
  162.9440  210.6610  154.8030 C   0  0  0  0  0  0  0  0  0  0  0  0
  160.7800  211.2840  154.3180 N   0  0  1  0  0  0  0  0  0  0  0  0
  160.5000  209.0050  151.1690 O   0  0  0  0  0  1  0  0  0  0  0  0
  164.2030  210.6900  154.8180 O   0  0  0  0  0  0  0  0  0  0  0  0
  162.1620  210.2050  155.8850 N   0  0  0  0  0  0  0  0  0  0  0  0
  162.1070  211.1280  153.6810 C   0  0  2  0  0  3  0  0  0  0  0  0
  163.3520  210.0050  151.9570 O   0  0  0  0  0  1  0  0  0  0  0  0
  159.6830  211.1140  153.4340 N   0  0  0  0  0  0  0  0  0  0  0  0
  161.0210  210.2460  151.5370 C   0  0  1  0  0  3  0  0  0  0  0  0
  162.6270  210.2370  157.2610 C   0  0  0  0  0  1  0  0  0  0  0  0
  157.3670  210.9400  153.2390 O   0  0  0  0  0  0  0  0  0  0  0  0
  158.3460  211.4330  153.8660 C   0  0  0  0  0  0  0  0  0  0  0  0
  160.7690  210.4060  155.5260 C   0  0  2  0  0  3  0  0  0  0  0  0
  159.8940  211.1650  151.9860 C   0  0  0  0  0  2  0  0  0  0  0  0
  158.4950  214.4530  156.3520 C   0  0  2  0  0  3  0  0  0  0  0  0
  157.1550  214.1670  157.0190 C   0  0  0  0  0  2  0  0  0  0  0  0
  158.0880  212.3150  155.0280 C   0  0  0  0  0  0  0  0  0  0  0  0
  157.0040  212.6680  157.2600 C   0  0  0  0  0  2  0  0  0  0  0  0
  158.5590  213.7520  154.9950 C   0  0  0  0  0  2  0  0  0  0  0  0
  157.3060  211.8680  156.0240 C   0  0  0  0  0  3  0  0  0  0  0  0
  159.5380  214.0290  157.1570 F   0  0  0  0  0  0  0  0  0  0  0  0
  159.1230  208.8020  156.3810 O   0  0  0  0  0  1  0  0  0  0  0  0
  160.0830  209.0280  155.3950 C   0  0  2  0  0  3  0  0  0  0  0  0
  161.0680  207.8720  155.3340 C   0  0  0  0  0  2  0  0  0  0  0  0
  161.2380  207.3620  153.9090 C   0  0  0  0  0  2  0  0  0  0  0  0
  161.1380  205.8460  153.8670 C   0  0  0  0  0  2  0  0  0  0  0  0
  163.1880  205.8090  151.7080 O   0  0  0  0  0  1  0  0  0  0  0  0
  160.9350  205.3430  152.4450 C   0  0  1  0  0  3  0  0  0  0  0  0
  161.8420  206.0860  151.4550 C   0  0  2  0  0  3  0  0  0  0  0  0
  160.5260  204.2420  149.7260 S   0  0  0  0  0  0  0  0  0  0  0  0
  161.4190  203.2900  150.9970 C   0  0  0  0  0  2  0  0  0  0  0  0
  161.1230  203.8230  152.4000 C   0  0  0  0  0  2  0  0  0  0  0  0
  161.5130  205.7680  149.9890 C   0  0  0  0  0  2  0  0  0  0  0  0
  1  8  1  6  0  0  0
  1  7  1  0  0  0  0
  2  5  2  0  0  0  0
  2  6  1  0  0  0  0
  3  9  1  6  0  0  0
  3 14  1  0  0  0  0
  6 11  1  0  0  0  0
  7  3  1  0  0  0  0
  7  2  1  1  0  0  0
  9 13  1  0  0  0  0
 10  4  1  1  0  0  0
 10 15  1  0  0  0  0
 10  1  1  0  0  0  0
 12 13  2  0  0  0  0
 13 18  1  0  0  0  0
 14 24  1  6  0  0  0
 14  6  1  0  0  0  0
 15  9  1  0  0  0  0
 16 17  1  0  0  0  0
 16 22  1  1  0  0  0
 17 19  1  0  0  0  0
 18 21  2  0  0  0  0
 20 18  1  0  0  0  0
 20 16  1  0  0  0  0
 21 19  1  0  0  0  0
 24 23  1  1  0  0  0
 25 24  1  0  0  0  0
 26 25  1  0  0  0  0
 27 26  1  0  0  0  0
 29 27  1  1  0  0  0
 30 28  1  1  0  0  0
 30 29  1  0  0  0  0
 31 34  1  0  0  0  0
 31 32  1  0  0  0  0
 32 33  1  0  0  0  0
 33 29  1  0  0  0  0
 34 30  1  0  0  0  0
M  END
>  <MODEL>
2

>  <REMARK>
 VINA RESULT:      -2.3      2.277      3.961
  Name = 
  6 active torsions:
  status: ('A' for Active; 'I' for Inactive)
    1  A    between atoms: C_3  and  C_13
    2  A    between atoms: C_3  and  C_17
    3  A    between atoms: C_12  and  C_28
    4  A    between atoms: C_17  and  C_29
    5  A    between atoms: C_18  and  C_29
    6  A    between atoms: C_18  and  C_31
                            x       y       z     vdW  Elec       q    Type
                         _______ _______ _______ _____ _____    ______ ____

>  <TORSDO>
F 6

$$$$
=
 OpenBabel11062407483D

 34 37  0  0  1  0  0  0  0  0999 V2000
  162.1790  209.7600  156.6610 C   0  0  2  0  0  3  0  0  0  0  0  0
  160.2320  208.2840  156.5670 C   0  0  0  0  0  0  0  0  0  0  0  0
  159.8000  210.5460  156.6200 N   0  0  1  0  0  0  0  0  0  0  0  0
  163.4710  211.5810  155.8200 O   0  0  0  0  0  1  0  0  0  0  0  0
  160.5210  207.1290  156.9800 O   0  0  0  0  0  0  0  0  0  0  0  0
  159.3440  208.5300  155.4990 N   0  0  0  0  0  0  0  0  0  0  0  0
  160.7430  209.5380  157.1550 C   0  0  2  0  0  3  0  0  0  0  0  0
  163.0430  208.8430  157.2610 O   0  0  0  0  0  1  0  0  0  0  0  0
  160.3510  211.8470  156.4830 N   0  0  0  0  0  0  0  0  0  0  0  0
  162.6980  211.1720  156.9070 C   0  0  1  0  0  3  0  0  0  0  0  0
  158.2880  207.6070  155.1240 C   0  0  0  0  0  1  0  0  0  0  0  0
  160.0190  214.0120  155.6860 O   0  0  0  0  0  0  0  0  0  0  0  0
  159.5000  212.9660  156.1680 C   0  0  0  0  0  0  0  0  0  0  0  0
  159.2020  209.9710  155.3790 C   0  0  2  0  0  3  0  0  0  0  0  0
  161.5980  212.1910  157.1690 C   0  0  0  0  0  2  0  0  0  0  0  0
  155.9200  211.7310  157.1590 C   0  0  2  0  0  3  0  0  0  0  0  0
  155.2970  213.1200  157.2380 C   0  0  0  0  0  2  0  0  0  0  0  0
  158.0360  212.9220  156.3860 C   0  0  0  0  0  0  0  0  0  0  0  0
  155.7830  213.9740  156.0720 C   0  0  0  0  0  2  0  0  0  0  0  0
  157.4420  211.8390  157.2590 C   0  0  0  0  0  2  0  0  0  0  0  0
  157.2790  213.9330  155.9310 C   0  0  0  0  0  3  0  0  0  0  0  0
  155.5640  211.1060  155.9770 F   0  0  0  0  0  0  0  0  0  0  0  0
  158.8490  210.9670  153.1670 O   0  0  0  0  0  1  0  0  0  0  0  0
  159.8000  210.4230  154.0280 C   0  0  2  0  0  3  0  0  0  0  0  0
  160.5900  209.3290  153.3290 C   0  0  0  0  0  2  0  0  0  0  0  0
  160.5170  209.4720  151.8150 C   0  0  0  0  0  2  0  0  0  0  0  0
  161.6420  208.6970  151.1470 C   0  0  0  0  0  2  0  0  0  0  0  0
  162.7290  206.9230  149.0180 O   0  0  0  0  0  1  0  0  0  0  0  0
  161.2460  207.2500  150.8970 C   0  0  1  0  0  3  0  0  0  0  0  0
  161.3900  206.8800  149.4140 C   0  0  2  0  0  3  0  0  0  0  0  0
  160.5310  204.4000  150.5250 S   0  0  0  0  0  0  0  0  0  0  0  0
  162.0900  204.8750  151.3370 C   0  0  0  0  0  2  0  0  0  0  0  0
  162.0450  206.3260  151.8220 C   0  0  0  0  0  2  0  0  0  0  0  0
  160.7940  205.5040  149.0810 C   0  0  0  0  0  2  0  0  0  0  0  0
  1 10  1  0  0  0  0
  1  7  1  0  0  0  0
  1  8  1  1  0  0  0
  2  5  2  0  0  0  0
  3  9  1  6  0  0  0
  3  7  1  0  0  0  0
  6  2  1  0  0  0  0
  7  2  1  6  0  0  0
  9 15  1  0  0  0  0
 10  4  1  6  0  0  0
 10 15  1  0  0  0  0
 11  6  1  0  0  0  0
 12 13  2  0  0  0  0
 13 18  1  0  0  0  0
 13  9  1  0  0  0  0
 14 24  1  6  0  0  0
 14  6  1  0  0  0  0
 14  3  1  0  0  0  0
 16 22  1  6  0  0  0
 16 17  1  0  0  0  0
 16 20  1  0  0  0  0
 18 20  1  0  0  0  0
 19 17  1  0  0  0  0
 21 19  1  0  0  0  0
 21 18  2  0  0  0  0
 24 23  1  6  0  0  0
 25 24  1  0  0  0  0
 26 25  1  0  0  0  0
 27 26  1  0  0  0  0
 29 27  1  6  0  0  0
 29 33  1  0  0  0  0
 30 28  1  1  0  0  0
 30 29  1  0  0  0  0
 31 32  1  0  0  0  0
 32 33  1  0  0  0  0
 34 30  1  0  0  0  0
 34 31  1  0  0  0  0
M  END
>  <MODEL>
3

>  <REMARK>
 VINA RESULT:      -1.7      1.340      1.453
  Name = 
  6 active torsions:
  status: ('A' for Active; 'I' for Inactive)
    1  A    between atoms: C_3  and  C_13
    2  A    between atoms: C_3  and  C_17
    3  A    between atoms: C_12  and  C_28
    4  A    between atoms: C_17  and  C_29
    5  A    between atoms: C_18  and  C_29
    6  A    between atoms: C_18  and  C_31
                            x       y       z     vdW  Elec       q    Type
                         _______ _______ _______ _____ _____    ______ ____

>  <TORSDO>
F 6

$$$$
=
 OpenBabel11062407483D

 34 37  0  0  1  0  0  0  0  0999 V2000
  158.1720  213.2330  152.6610 C   0  0  2  0  0  3  0  0  0  0  0  0
  160.2050  212.5220  151.5040 C   0  0  0  0  0  0  0  0  0  0  0  0
  160.1420  212.1590  153.7770 N   0  0  1  0  0  0  0  0  0  0  0  0
  156.3090  212.7940  154.0850 O   0  0  0  0  0  1  0  0  0  0  0  0
  160.3410  213.1350  150.4110 O   0  0  0  0  0  0  0  0  0  0  0  0
  160.5570  211.1670  151.6860 N   0  0  0  0  0  0  0  0  0  0  0  0
  159.7010  213.1300  152.7500 C   0  0  2  0  0  3  0  0  0  0  0  0
  157.8080  214.2210  151.7450 O   0  0  0  0  0  1  0  0  0  0  0  0
  159.3200  212.1180  154.9340 N   0  0  0  0  0  0  0  0  0  0  0  0
  157.5000  213.5160  153.9990 C   0  0  1  0  0  3  0  0  0  0  0  0
  161.5650  210.5000  150.8810 C   0  0  0  0  0  1  0  0  0  0  0  0
  158.8690  211.0320  156.9460 O   0  0  0  0  0  0  0  0  0  0  0  0
  159.7370  211.3730  156.0940 C   0  0  0  0  0  0  0  0  0  0  0  0
  160.3390  210.8500  153.0860 C   0  0  2  0  0  3  0  0  0  0  0  0
  158.3790  213.2060  155.2030 C   0  0  0  0  0  2  0  0  0  0  0  0
  163.6480  211.4840  156.2160 C   0  0  2  0  0  3  0  0  0  0  0  0
  163.8000  210.3630  157.2370 C   0  0  0  0  0  2  0  0  0  0  0  0
  161.1510  210.9880  156.3120 C   0  0  0  0  0  0  0  0  0  0  0  0
  162.8330  209.2290  156.9100 C   0  0  0  0  0  2  0  0  0  0  0  0
  162.2280  212.0490  156.2740 C   0  0  0  0  0  2  0  0  0  0  0  0
  161.4330  209.7320  156.6910 C   0  0  0  0  0  3  0  0  0  0  0  0
  163.9250  211.0220  154.9420 F   0  0  0  0  0  0  0  0  0  0  0  0
  157.9940  210.3710  153.6190 O   0  0  0  0  0  1  0  0  0  0  0  0
  159.1990  209.8130  153.1930 C   0  0  2  0  0  3  0  0  0  0  0  0
  159.5620  208.6110  154.0490 C   0  0  0  0  0  2  0  0  0  0  0  0
  160.9140  208.0340  153.6510 C   0  0  0  0  0  2  0  0  0  0  0  0
  160.8880  206.5150  153.7140 C   0  0  0  0  0  2  0  0  0  0  0  0
  163.0670  206.5480  151.6860 O   0  0  0  0  0  1  0  0  0  0  0  0
  160.8280  205.9020  152.3230 C   0  0  1  0  0  3  0  0  0  0  0  0
  161.7200  206.6690  151.3360 C   0  0  2  0  0  3  0  0  0  0  0  0
  160.7060  204.5910  149.6700 S   0  0  0  0  0  0  0  0  0  0  0  0
  161.6040  203.8200  151.0540 C   0  0  0  0  0  2  0  0  0  0  0  0
  161.1670  204.4100  152.3970 C   0  0  0  0  0  2  0  0  0  0  0  0
  161.5190  206.2240  149.8800 C   0  0  0  0  0  2  0  0  0  0  0  0
  1  8  1  6  0  0  0
  1  7  1  0  0  0  0
  1 10  1  0  0  0  0
  2  6  1  0  0  0  0
  3  9  1  1  0  0  0
  5  2  2  0  0  0  0
  6 14  1  0  0  0  0
  7  2  1  6  0  0  0
  7  3  1  0  0  0  0
  9 15  1  0  0  0  0
  9 13  1  0  0  0  0
 10  4  1  1  0  0  0
 10 15  1  0  0  0  0
 11  6  1  0  0  0  0
 13 18  1  0  0  0  0
 13 12  2  0  0  0  0
 14 24  1  6  0  0  0
 14  3  1  0  0  0  0
 16 22  1  6  0  0  0
 16 20  1  0  0  0  0
 16 17  1  0  0  0  0
 18 21  2  0  0  0  0
 19 17  1  0  0  0  0
 20 18  1  0  0  0  0
 21 19  1  0  0  0  0
 24 23  1  1  0  0  0
 24 25  1  0  0  0  0
 26 27  1  0  0  0  0
 26 25  1  0  0  0  0
 29 33  1  0  0  0  0
 29 27  1  1  0  0  0
 30 28  1  1  0  0  0
 30 29  1  0  0  0  0
 31 34  1  0  0  0  0
 31 32  1  0  0  0  0
 32 33  1  0  0  0  0
 34 30  1  0  0  0  0
M  END
>  <MODEL>
4

>  <REMARK>
 VINA RESULT:      -0.9      2.555      5.077
  Name = 
  6 active torsions:
  status: ('A' for Active; 'I' for Inactive)
    1  A    between atoms: C_3  and  C_13
    2  A    between atoms: C_3  and  C_17
    3  A    between atoms: C_12  and  C_28
    4  A    between atoms: C_17  and  C_29
    5  A    between atoms: C_18  and  C_29
    6  A    between atoms: C_18  and  C_31
                            x       y       z     vdW  Elec       q    Type
                         _______ _______ _______ _____ _____    ______ ____

>  <TORSDO>
F 6

$$$$
=
 OpenBabel11062407483D

 34 37  0  0  1  0  0  0  0  0999 V2000
  162.0950  209.3880  156.2810 C   0  0  2  0  0  3  0  0  0  0  0  0
  160.8000  208.1270  154.6340 C   0  0  0  0  0  0  0  0  0  0  0  0
  159.9360  210.1650  155.2720 N   0  0  1  0  0  0  0  0  0  0  0  0
  163.2210  211.3680  156.9900 O   0  0  0  0  0  1  0  0  0  0  0  0
  161.0830  206.9000  154.6810 O   0  0  0  0  0  0  0  0  0  0  0  0
  160.5190  208.8170  153.4360 N   0  0  0  0  0  0  0  0  0  0  0  0
  160.6840  209.0070  155.8130 C   0  0  2  0  0  3  0  0  0  0  0  0
  162.7250  208.2870  156.8630 O   0  0  0  0  0  1  0  0  0  0  0  0
  160.1990  211.3920  155.9360 N   0  0  0  0  0  0  0  0  0  0  0  0
  162.1200  210.5560  157.2610 C   0  0  1  0  0  3  0  0  0  0  0  0
  160.0000  208.1570  152.2510 C   0  0  0  0  0  1  0  0  0  0  0  0
  159.8570  213.6970  155.9420 O   0  0  0  0  0  0  0  0  0  0  0  0
  159.3990  212.5560  155.6520 C   0  0  0  0  0  0  0  0  0  0  0  0
  160.1570  210.1760  153.7960 C   0  0  2  0  0  3  0  0  0  0  0  0
  160.8470  211.3910  157.2480 C   0  0  0  0  0  2  0  0  0  0  0  0
  155.6790  211.5540  154.9610 C   0  0  2  0  0  3  0  0  0  0  0  0
  155.3780  212.7210  154.0290 C   0  0  0  0  0  2  0  0  0  0  0  0
  158.0620  212.4530  155.0240 C   0  0  0  0  0  0  0  0  0  0  0  0
  156.5540  212.9480  153.0840 C   0  0  0  0  0  2  0  0  0  0  0  0
  156.9090  211.8730  155.8120 C   0  0  0  0  0  2  0  0  0  0  0  0
  157.8610  213.0180  153.8230 C   0  0  0  0  0  3  0  0  0  0  0  0
  155.8910  210.3950  154.2350 F   0  0  0  0  0  0  0  0  0  0  0  0
  160.7290  212.4150  152.9750 O   0  0  0  0  0  1  0  0  0  0  0  0
  161.2300  211.1430  153.2470 C   0  0  2  0  0  3  0  0  0  0  0  0
  161.9700  210.5900  152.0390 C   0  0  0  0  0  2  0  0  0  0  0  0
  161.4850  211.2350  150.7480 C   0  0  0  0  0  2  0  0  0  0  0  0
  162.2280  210.6640  149.5500 C   0  0  0  0  0  2  0  0  0  0  0  0
  160.5360  213.1060  149.3600 O   0  0  0  0  0  1  0  0  0  0  0  0
  162.0550  211.5420  148.3200 C   0  0  1  0  0  3  0  0  0  0  0  0
  160.6720  212.2070  148.2980 C   0  0  2  0  0  3  0  0  0  0  0  0
  161.8460  213.2870  145.9360 S   0  0  0  0  0  0  0  0  0  0  0  0
  162.8870  213.7600  147.3540 C   0  0  0  0  0  2  0  0  0  0  0  0
  163.2050  212.5520  148.2370 C   0  0  0  0  0  2  0  0  0  0  0  0
  160.3740  212.9220  146.9720 C   0  0  0  0  0  2  0  0  0  0  0  0
  1  8  1  1  0  0  0
  1 10  1  0  0  0  0
  2  5  2  0  0  0  0
  3  7  1  0  0  0  0
  3  9  1  1  0  0  0
  6 14  1  0  0  0  0
  6  2  1  0  0  0  0
  7  2  1  6  0  0  0
  7  1  1  0  0  0  0
  9 15  1  0  0  0  0
 10  4  1  6  0  0  0
 11  6  1  0  0  0  0
 13  9  1  0  0  0  0
 13 12  2  0  0  0  0
 14 24  1  1  0  0  0
 14  3  1  0  0  0  0
 15 10  1  0  0  0  0
 16 22  1  6  0  0  0
 16 20  1  0  0  0  0
 17 16  1  0  0  0  0
 18 13  1  0  0  0  0
 18 20  1  0  0  0  0
 19 21  1  0  0  0  0
 19 17  1  0  0  0  0
 21 18  2  0  0  0  0
 24 23  1  6  0  0  0
 25 24  1  0  0  0  0
 26 25  1  0  0  0  0
 27 26  1  0  0  0  0
 29 27  1  1  0  0  0
 30 29  1  0  0  0  0
 30 28  1  1  0  0  0
 31 34  1  0  0  0  0
 31 32  1  0  0  0  0
 32 33  1  0  0  0  0
 33 29  1  0  0  0  0
 34 30  1  0  0  0  0
M  END
>  <MODEL>
5

>  <REMARK>
 VINA RESULT:      -0.9      2.381      3.136
  Name = 
  6 active torsions:
  status: ('A' for Active; 'I' for Inactive)
    1  A    between atoms: C_3  and  C_13
    2  A    between atoms: C_3  and  C_17
    3  A    between atoms: C_12  and  C_28
    4  A    between atoms: C_17  and  C_29
    5  A    between atoms: C_18  and  C_29
    6  A    between atoms: C_18  and  C_31
                            x       y       z     vdW  Elec       q    Type
                         _______ _______ _______ _____ _____    ______ ____

>  <TORSDO>
F 6

$$$$
=
 OpenBabel11062407483D

 34 37  0  0  1  0  0  0  0  0999 V2000
  160.9820  207.2790  154.7740 C   0  0  2  0  0  3  0  0  0  0  0  0
  161.7230  208.5830  152.8420 C   0  0  0  0  0  0  0  0  0  0  0  0
  160.1640  209.5810  154.2130 N   0  0  1  0  0  0  0  0  0  0  0  0
  160.6270  207.0260  157.1190 O   0  0  0  0  0  1  0  0  0  0  0  0
  162.1970  207.8340  151.9470 O   0  0  0  0  0  0  0  0  0  0  0  0
  162.2390  209.8610  153.1430 N   0  0  0  0  0  0  0  0  0  0  0  0
  160.5470  208.2570  153.6730 C   0  0  2  0  0  3  0  0  0  0  0  0
  161.2460  206.0230  154.2260 O   0  0  0  0  0  1  0  0  0  0  0  0
  159.5100  209.5320  155.4720 N   0  0  0  0  0  0  0  0  0  0  0  0
  159.9620  207.1330  155.8970 C   0  0  1  0  0  3  0  0  0  0  0  0
  162.9640  210.6650  152.1750 C   0  0  0  0  0  1  0  0  0  0  0  0
  158.6670  210.7650  157.2610 O   0  0  0  0  0  0  0  0  0  0  0  0
  158.9030  210.7180  156.0210 C   0  0  0  0  0  0  0  0  0  0  0  0
  161.3820  210.4450  154.1590 C   0  0  2  0  0  3  0  0  0  0  0  0
  158.9520  208.2690  155.9590 C   0  0  0  0  0  2  0  0  0  0  0  0
  157.6300  212.9010  153.0330 C   0  0  2  0  0  3  0  0  0  0  0  0
  157.4600  214.1820  153.8410 C   0  0  0  0  0  2  0  0  0  0  0  0
  158.5570  211.8840  155.1760 C   0  0  0  0  0  0  0  0  0  0  0  0
  158.6430  214.3590  154.7880 C   0  0  0  0  0  2  0  0  0  0  0  0
  157.6620  211.6950  153.9720 C   0  0  0  0  0  2  0  0  0  0  0  0
  158.9170  213.1120  155.5820 C   0  0  0  0  0  3  0  0  0  0  0  0
  158.7910  212.9520  152.2810 F   0  0  0  0  0  0  0  0  0  0  0  0
  161.7060  211.6300  156.2810 O   0  0  0  0  0  1  0  0  0  0  0  0
  162.1920  210.6100  155.4640 C   0  0  2  0  0  3  0  0  0  0  0  0
  163.6830  210.7830  155.2240 C   0  0  0  0  0  2  0  0  0  0  0  0
  164.4210  211.0970  156.5180 C   0  0  0  0  0  2  0  0  0  0  0  0
  164.8960  212.5410  156.5290 C   0  0  0  0  0  2  0  0  0  0  0  0
  167.0190  212.3110  154.4540 O   0  0  0  0  0  1  0  0  0  0  0  0
  166.3960  212.6310  156.7660 C   0  0  1  0  0  3  0  0  0  0  0  0
  167.1750  211.7930  155.7430 C   0  0  2  0  0  3  0  0  0  0  0  0
  169.3000  212.9320  157.2610 S   0  0  0  0  0  0  0  0  0  0  0  0
  168.3280  214.2920  156.5380 C   0  0  0  0  0  2  0  0  0  0  0  0
  166.8310  214.1000  156.7890 C   0  0  0  0  0  2  0  0  0  0  0  0
  168.6680  211.6770  156.0780 C   0  0  0  0  0  2  0  0  0  0  0  0
  1  8  1  6  0  0  0
  1 10  1  0  0  0  0
  2  6  1  0  0  0  0
  3  9  1  1  0  0  0
  5  2  2  0  0  0  0
  6 14  1  0  0  0  0
  7  2  1  6  0  0  0
  7  3  1  0  0  0  0
  7  1  1  0  0  0  0
  9 15  1  0  0  0  0
  9 13  1  0  0  0  0
 10 15  1  0  0  0  0
 10  4  1  1  0  0  0
 11  6  1  0  0  0  0
 13 12  2  0  0  0  0
 14  3  1  0  0  0  0
 14 24  1  1  0  0  0
 16 22  1  1  0  0  0
 16 17  1  0  0  0  0
 16 20  1  0  0  0  0
 17 19  1  0  0  0  0
 18 21  2  0  0  0  0
 18 13  1  0  0  0  0
 19 21  1  0  0  0  0
 20 18  1  0  0  0  0
 24 23  1  6  0  0  0
 25 24  1  0  0  0  0
 25 26  1  0  0  0  0
 26 27  1  0  0  0  0
 29 27  1  6  0  0  0
 29 33  1  0  0  0  0
 30 28  1  6  0  0  0
 30 34  1  0  0  0  0
 30 29  1  0  0  0  0
 32 33  1  0  0  0  0
 32 31  1  0  0  0  0
 34 31  1  0  0  0  0
M  END
>  <MODEL>
6

>  <REMARK>
 VINA RESULT:      -0.9      3.721      5.997
  Name = 
  6 active torsions:
  status: ('A' for Active; 'I' for Inactive)
    1  A    between atoms: C_3  and  C_13
    2  A    between atoms: C_3  and  C_17
    3  A    between atoms: C_12  and  C_28
    4  A    between atoms: C_17  and  C_29
    5  A    between atoms: C_18  and  C_29
    6  A    between atoms: C_18  and  C_31
                            x       y       z     vdW  Elec       q    Type
                         _______ _______ _______ _____ _____    ______ ____

>  <TORSDO>
F 6

$$$$
