=
 OpenBabel11052422113D

 25 28  0  0  1  0  0  0  0  0999 V2000
  161.2240  203.5830  148.1610 C   0  0  0  0  0  0  0  0  0  0  0  0
  161.1990  203.9740  149.5010 C   0  0  0  0  0  0  0  0  0  0  0  0
  160.6850  201.2960  148.7140 C   0  0  0  0  0  3  0  0  0  0  0  0
  161.2060  204.3620  146.8980 C   0  0  2  0  0  3  0  0  0  0  0  0
  161.5230  205.1120  144.1930 C   0  0  0  0  0  2  0  0  0  0  0  0
  160.7180  201.6420  150.0760 C   0  0  0  0  0  3  0  0  0  0  0  0
  161.4700  203.3720  145.8560 N   0  0  2  0  0  0  0  0  0  0  0  0
  160.7860  203.8420  144.6640 C   0  0  0  0  0  2  0  0  0  0  0  0
  160.9720  203.3420  151.9070 C   0  0  0  0  0  0  0  0  0  0  0  0
  160.7660  202.4720  152.7950 O   0  0  0  0  0  0  0  0  0  0  0  0
  161.4580  205.4020  149.8970 C   0  0  0  0  0  2  0  0  0  0  0  0
  161.6700  206.1600  145.3290 C   0  0  0  0  0  2  0  0  0  0  0  0
  160.9390  202.2990  147.7840 C   0  0  0  0  0  0  0  0  0  0  0  0
  160.9220  202.1840  146.3700 N   0  0  0  0  0  2  0  0  0  0  0  0
  161.2560  204.7560  152.3150 C   0  0  0  0  0  2  0  0  0  0  0  0
  162.1160  205.5470  146.6710 C   0  0  0  0  0  2  0  0  0  0  0  0
  160.7920  205.7340  151.2320 C   0  0  1  0  0  3  0  0  0  0  0  0
  160.9810  202.9720  150.4780 C   0  0  0  0  0  0  0  0  0  0  0  0
  161.1370  207.1580  151.6250 C   0  0  0  0  0  2  0  0  0  0  0  0
  162.3560  207.6390  150.8530 C   0  0  0  0  0  2  0  0  0  0  0  0
  162.0870  209.4690  149.1490 C   0  0  0  0  0  0  0  0  0  0  0  0
  161.9790  210.6920  148.8670 O   0  0  0  0  0  1  0  0  0  0  0  0
  162.0850  208.5310  148.1230 O   0  0  0  0  0  0  0  0  0  0  0  0
  162.2120  209.0470  150.5150 N   0  0  0  0  0  0  0  0  0  0  0  0
  162.3110  210.0270  151.5840 C   0  0  0  0  0  1  0  0  0  0  0  0
  1  2  1  0  0  0  0
  2 11  1  0  0  0  0
  2 18  2  0  0  0  0
  3  6  2  0  0  0  0
  4 16  1  1  0  0  0
  4  1  1  0  0  0  0
  5  8  1  0  0  0  0
  5 12  1  0  0  0  0
  6 18  1  0  0  0  0
  7  8  1  6  0  0  0
  7 14  1  0  0  0  0
  7  4  1  0  0  0  0
  9 15  1  0  0  0  0
  9 10  2  0  0  0  0
 11 17  1  0  0  0  0
 12 16  1  0  0  0  0
 13  1  2  0  0  0  0
 13  3  1  0  0  0  0
 14 13  1  0  0  0  0
 17 19  1  1  0  0  0
 17 15  1  0  0  0  0
 18  9  1  0  0  0  0
 20 19  1  0  0  0  0
 21 24  1  0  0  0  0
 22 21  1  0  0  0  0
 23 21  2  0  0  0  0
 24 20  1  0  0  0  0
 24 25  1  0  0  0  0
M  END
>  <MODEL>
1

>  <REMARK>
 VINA RESULT:      -9.7      0.000      0.000
  Name = 
  3 active torsions:
  status: ('A' for Active; 'I' for Inactive)
    1  A    between atoms: C_6  and  C_15
    2  A    between atoms: C_6  and  C_23
    3  A    between atoms: C_15  and  N_21
                            x       y       z     vdW  Elec       q    Type
                         _______ _______ _______ _____ _____    ______ ____

>  <TORSDO>
F 3

$$$$
=
 OpenBabel11052422113D

 25 28  0  0  1  0  0  0  0  0999 V2000
  161.4270  204.6450  149.2240 C   0  0  0  0  0  0  0  0  0  0  0  0
  161.4240  205.5450  150.2920 C   0  0  0  0  0  0  0  0  0  0  0  0
  160.8160  202.7950  150.6490 C   0  0  0  0  0  3  0  0  0  0  0  0
  161.4260  204.8480  147.7540 C   0  0  2  0  0  3  0  0  0  0  0  0
  161.7490  204.4320  144.9790 C   0  0  0  0  0  2  0  0  0  0  0  0
  160.8700  203.6600  151.7560 C   0  0  0  0  0  3  0  0  0  0  0  0
  161.6490  203.5140  147.2020 N   0  0  2  0  0  0  0  0  0  0  0  0
  160.9730  203.4850  145.9170 C   0  0  0  0  0  2  0  0  0  0  0  0
  161.1940  205.9450  152.7460 C   0  0  0  0  0  0  0  0  0  0  0  0
  160.9660  205.5150  153.9090 O   0  0  0  0  0  0  0  0  0  0  0  0
  161.7340  207.0010  150.0790 C   0  0  0  0  0  2  0  0  0  0  0  0
  161.9390  205.8440  145.5950 C   0  0  0  0  0  2  0  0  0  0  0  0
  161.0970  203.3290  149.3950 C   0  0  0  0  0  0  0  0  0  0  0  0
  161.0650  202.6530  148.1480 N   0  0  0  0  0  2  0  0  0  0  0  0
  161.5280  207.3940  152.5510 C   0  0  0  0  0  2  0  0  0  0  0  0
  162.3730  205.8100  147.0740 C   0  0  0  0  0  2  0  0  0  0  0  0
  161.0880  207.8660  151.1620 C   0  0  1  0  0  3  0  0  0  0  0  0
  161.1800  205.0300  151.5880 C   0  0  0  0  0  0  0  0  0  0  0  0
  161.4840  209.3150  150.9490 C   0  0  0  0  0  2  0  0  0  0  0  0
  162.1350  209.8760  152.2030 C   0  0  0  0  0  2  0  0  0  0  0  0
  161.1870  210.9060  154.2920 C   0  0  0  0  0  0  0  0  0  0  0  0
  160.3920  211.7080  154.8520 O   0  0  0  0  0  0  0  0  0  0  0  0
  162.0190  210.1150  155.0760 O   0  0  0  0  0  1  0  0  0  0  0  0
  161.2340  210.8100  152.8610 N   0  0  0  0  0  0  0  0  0  0  0  0
  160.3020  211.5640  152.0400 C   0  0  0  0  0  1  0  0  0  0  0  0
  1 13  2  0  0  0  0
  1  2  1  0  0  0  0
  2 18  2  0  0  0  0
  3  6  2  0  0  0  0
  4 16  1  1  0  0  0
  4  1  1  0  0  0  0
  5 12  1  0  0  0  0
  5  8  1  0  0  0  0
  7  8  1  6  0  0  0
  7  4  1  0  0  0  0
  7 14  1  0  0  0  0
  9 10  2  0  0  0  0
 11  2  1  0  0  0  0
 11 17  1  0  0  0  0
 12 16  1  0  0  0  0
 13  3  1  0  0  0  0
 14 13  1  0  0  0  0
 15  9  1  0  0  0  0
 17 19  1  6  0  0  0
 17 15  1  0  0  0  0
 18  6  1  0  0  0  0
 18  9  1  0  0  0  0
 19 20  1  0  0  0  0
 20 24  1  0  0  0  0
 21 22  2  0  0  0  0
 21 23  1  0  0  0  0
 24 21  1  0  0  0  0
 25 24  1  0  0  0  0
M  END
>  <MODEL>
2

>  <REMARK>
 VINA RESULT:      -9.2      2.305      2.950
  Name = 
  3 active torsions:
  status: ('A' for Active; 'I' for Inactive)
    1  A    between atoms: C_6  and  C_15
    2  A    between atoms: C_6  and  C_23
    3  A    between atoms: C_15  and  N_21
                            x       y       z     vdW  Elec       q    Type
                         _______ _______ _______ _____ _____    ______ ____

>  <TORSDO>
F 3

$$$$
=
 OpenBabel11052422113D

 25 28  0  0  1  0  0  0  0  0999 V2000
  161.2870  205.0780  149.1010 C   0  0  0  0  0  0  0  0  0  0  0  0
  161.3450  206.0890  150.0630 C   0  0  0  0  0  0  0  0  0  0  0  0
  161.9180  206.5890  147.3280 C   0  0  0  0  0  3  0  0  0  0  0  0
  161.2370  203.5990  149.2160 C   0  0  2  0  0  3  0  0  0  0  0  0
  160.8040  200.8680  148.6410 C   0  0  0  0  0  2  0  0  0  0  0  0
  161.9200  207.6430  148.2590 C   0  0  0  0  0  3  0  0  0  0  0  0
  160.9700  203.1370  147.8550 N   0  0  2  0  0  0  0  0  0  0  0  0
  161.5970  201.8330  147.7370 C   0  0  0  0  0  2  0  0  0  0  0  0
  161.6740  208.5050  150.6050 C   0  0  0  0  0  0  0  0  0  0  0  0
  161.9370  209.6820  150.2410 O   0  0  0  0  0  0  0  0  0  0  0  0
  161.0530  205.8000  151.5100 C   0  0  0  0  0  2  0  0  0  0  0  0
  160.6620  201.4040  150.0900 C   0  0  0  0  0  2  0  0  0  0  0  0
  161.6000  205.3160  147.7910 C   0  0  0  0  0  0  0  0  0  0  0  0
  161.5730  204.1120  147.0420 N   0  0  0  0  0  2  0  0  0  0  0  0
  161.3580  208.2340  152.0450 C   0  0  0  0  0  2  0  0  0  0  0  0
  160.2820  202.8970  150.1540 C   0  0  0  0  0  2  0  0  0  0  0  0
  161.7540  206.8040  152.4250 C   0  0  1  0  0  3  0  0  0  0  0  0
  161.6280  207.4040  149.6220 C   0  0  0  0  0  0  0  0  0  0  0  0
  161.3760  206.5180  153.8660 C   0  0  0  0  0  2  0  0  0  0  0  0
  160.4230  207.5830  154.3840 C   0  0  0  0  0  2  0  0  0  0  0  0
  161.5150  209.1000  156.0670 C   0  0  0  0  0  0  0  0  0  0  0  0
  161.8080  209.3780  157.2610 O   0  0  0  0  0  1  0  0  0  0  0  0
  161.9410  209.9450  155.0490 O   0  0  0  0  0  0  0  0  0  0  0  0
  160.7520  207.9240  155.7600 N   0  0  0  0  0  0  0  0  0  0  0  0
  160.3870  206.9870  156.8090 C   0  0  0  0  0  1  0  0  0  0  0  0
  1  4  1  0  0  0  0
  1  2  1  0  0  0  0
  2 11  1  0  0  0  0
  3 13  1  0  0  0  0
  3  6  2  0  0  0  0
  4 16  1  1  0  0  0
  5 12  1  0  0  0  0
  6 18  1  0  0  0  0
  7  8  1  1  0  0  0
  7  4  1  0  0  0  0
  8  5  1  0  0  0  0
  9 15  1  0  0  0  0
 10  9  2  0  0  0  0
 11 17  1  0  0  0  0
 12 16  1  0  0  0  0
 13  1  2  0  0  0  0
 14 13  1  0  0  0  0
 14  7  1  0  0  0  0
 15 17  1  0  0  0  0
 17 19  1  1  0  0  0
 18  2  2  0  0  0  0
 18  9  1  0  0  0  0
 19 20  1  0  0  0  0
 20 24  1  0  0  0  0
 21 22  1  0  0  0  0
 23 21  2  0  0  0  0
 24 21  1  0  0  0  0
 24 25  1  0  0  0  0
M  END
>  <MODEL>
3

>  <REMARK>
 VINA RESULT:      -9.2      2.994      4.969
  Name = 
  3 active torsions:
  status: ('A' for Active; 'I' for Inactive)
    1  A    between atoms: C_6  and  C_15
    2  A    between atoms: C_6  and  C_23
    3  A    between atoms: C_15  and  N_21
                            x       y       z     vdW  Elec       q    Type
                         _______ _______ _______ _____ _____    ______ ____

>  <TORSDO>
F 3

$$$$
=
 OpenBabel11052422113D

 25 28  0  0  1  0  0  0  0  0999 V2000
  161.2130  203.7430  148.1470 C   0  0  0  0  0  0  0  0  0  0  0  0
  161.1950  204.1880  149.4710 C   0  0  0  0  0  0  0  0  0  0  0  0
  160.6110  201.4950  148.7870 C   0  0  0  0  0  3  0  0  0  0  0  0
  161.2200  204.4720  146.8540 C   0  0  2  0  0  3  0  0  0  0  0  0
  161.5650  205.1070  144.1240 C   0  0  0  0  0  2  0  0  0  0  0  0
  160.6500  201.8930  150.1350 C   0  0  0  0  0  3  0  0  0  0  0  0
  161.4600  203.4350  145.8530 N   0  0  2  0  0  0  0  0  0  0  0  0
  160.7930  203.8760  144.6410 C   0  0  0  0  0  2  0  0  0  0  0  0
  160.9440  203.6570  151.8990 C   0  0  0  0  0  0  0  0  0  0  0  0
  160.7130  202.8290  152.8190 O   0  0  0  0  0  0  0  0  0  0  0  0
  161.4910  205.6220  149.8110 C   0  0  0  0  0  2  0  0  0  0  0  0
  161.7370  206.1940  145.2180 C   0  0  0  0  0  2  0  0  0  0  0  0
  160.8950  202.4540  147.8200 C   0  0  0  0  0  0  0  0  0  0  0  0
  160.8790  202.2840  146.4120 N   0  0  0  0  0  2  0  0  0  0  0  0
  161.2650  205.0780  152.2520 C   0  0  0  0  0  2  0  0  0  0  0  0
  162.1620  205.6230  146.5850 C   0  0  0  0  0  2  0  0  0  0  0  0
  160.8300  206.0240  151.1290 C   0  0  1  0  0  3  0  0  0  0  0  0
  160.9470  203.2310  150.4850 C   0  0  0  0  0  0  0  0  0  0  0  0
  161.2130  207.4530  151.4670 C   0  0  0  0  0  2  0  0  0  0  0  0
  160.9880  207.7260  152.9460 C   0  0  0  0  0  2  0  0  0  0  0  0
  160.8590  209.7120  154.4830 C   0  0  0  0  0  0  0  0  0  0  0  0
  161.1170  210.9200  154.7310 O   0  0  0  0  0  0  0  0  0  0  0  0
  160.1470  208.9640  155.4120 O   0  0  0  0  0  1  0  0  0  0  0  0
  161.2950  209.1140  153.2530 N   0  0  0  0  0  0  0  0  0  0  0  0
  161.9550  209.9160  152.2360 C   0  0  0  0  0  1  0  0  0  0  0  0
  1  2  1  0  0  0  0
  2 11  1  0  0  0  0
  2 18  2  0  0  0  0
  3  6  2  0  0  0  0
  4 16  1  1  0  0  0
  4  1  1  0  0  0  0
  5  8  1  0  0  0  0
  5 12  1  0  0  0  0
  6 18  1  0  0  0  0
  7  8  1  6  0  0  0
  7 14  1  0  0  0  0
  7  4  1  0  0  0  0
  9 15  1  0  0  0  0
  9 10  2  0  0  0  0
 11 17  1  0  0  0  0
 12 16  1  0  0  0  0
 13  1  2  0  0  0  0
 13  3  1  0  0  0  0
 14 13  1  0  0  0  0
 17 19  1  1  0  0  0
 17 15  1  0  0  0  0
 18  9  1  0  0  0  0
 19 20  1  0  0  0  0
 20 24  1  0  0  0  0
 21 22  2  0  0  0  0
 21 23  1  0  0  0  0
 24 21  1  0  0  0  0
 25 24  1  0  0  0  0
M  END
>  <MODEL>
4

>  <REMARK>
 VINA RESULT:      -9.1      2.068      2.353
  Name = 
  3 active torsions:
  status: ('A' for Active; 'I' for Inactive)
    1  A    between atoms: C_6  and  C_15
    2  A    between atoms: C_6  and  C_23
    3  A    between atoms: C_15  and  N_21
                            x       y       z     vdW  Elec       q    Type
                         _______ _______ _______ _____ _____    ______ ____

>  <TORSDO>
F 3

$$$$
=
 OpenBabel11052422113D

 25 28  0  0  1  0  0  0  0  0999 V2000
  161.3110  204.8610  148.7170 C   0  0  0  0  0  0  0  0  0  0  0  0
  161.4020  205.9790  149.5490 C   0  0  0  0  0  0  0  0  0  0  0  0
  161.8650  206.1520  146.7540 C   0  0  0  0  0  3  0  0  0  0  0  0
  161.2730  203.4070  149.0080 C   0  0  2  0  0  3  0  0  0  0  0  0
  160.8310  200.6260  148.7790 C   0  0  0  0  0  2  0  0  0  0  0  0
  161.8980  207.3080  147.5520 C   0  0  0  0  0  3  0  0  0  0  0  0
  160.9550  202.7860  147.7240 N   0  0  2  0  0  0  0  0  0  0  0  0
  161.5840  201.4770  147.7360 C   0  0  0  0  0  2  0  0  0  0  0  0
  161.7390  208.4420  149.7870 C   0  0  0  0  0  0  0  0  0  0  0  0
  161.9830  209.5680  149.2770 O   0  0  0  0  0  0  0  0  0  0  0  0
  161.1680  205.8640  151.0310 C   0  0  0  0  0  2  0  0  0  0  0  0
  160.7430  201.3310  150.1590 C   0  0  0  0  0  2  0  0  0  0  0  0
  161.5720  204.9430  147.3770 C   0  0  0  0  0  0  0  0  0  0  0  0
  161.5220  203.6580  146.7770 N   0  0  0  0  0  2  0  0  0  0  0  0
  161.4820  208.3450  151.2610 C   0  0  0  0  0  2  0  0  0  0  0  0
  160.3590  202.8210  150.0600 C   0  0  0  0  0  2  0  0  0  0  0  0
  161.8990  206.9700  151.7920 C   0  0  1  0  0  3  0  0  0  0  0  0
  161.6610  207.2330  148.9450 C   0  0  0  0  0  0  0  0  0  0  0  0
  161.5790  206.8570  153.2700 C   0  0  0  0  0  2  0  0  0  0  0  0
  160.4560  207.8120  153.6430 C   0  0  0  0  0  2  0  0  0  0  0  0
  160.1890  208.0480  156.1330 C   0  0  0  0  0  0  0  0  0  0  0  0
  160.4520  208.6490  157.2080 O   0  0  0  0  0  1  0  0  0  0  0  0
  159.3320  206.9530  156.1580 O   0  0  0  0  0  0  0  0  0  0  0  0
  160.7660  208.4870  154.8950 N   0  0  0  0  0  0  0  0  0  0  0  0
  161.5850  209.6860  154.8470 C   0  0  0  0  0  1  0  0  0  0  0  0
  1  4  1  0  0  0  0
  1  2  1  0  0  0  0
  2 11  1  0  0  0  0
  3 13  1  0  0  0  0
  3  6  2  0  0  0  0
  4 16  1  1  0  0  0
  5 12  1  0  0  0  0
  6 18  1  0  0  0  0
  7  8  1  1  0  0  0
  7  4  1  0  0  0  0
  8  5  1  0  0  0  0
  9 15  1  0  0  0  0
 10  9  2  0  0  0  0
 11 17  1  0  0  0  0
 13  1  2  0  0  0  0
 14 13  1  0  0  0  0
 14  7  1  0  0  0  0
 15 17  1  0  0  0  0
 16 12  1  0  0  0  0
 17 19  1  1  0  0  0
 18  2  2  0  0  0  0
 18  9  1  0  0  0  0
 19 20  1  0  0  0  0
 20 24  1  0  0  0  0
 21 23  2  0  0  0  0
 21 22  1  0  0  0  0
 24 21  1  0  0  0  0
 25 24  1  0  0  0  0
M  END
>  <MODEL>
5

>  <REMARK>
 VINA RESULT:      -8.9      2.657      4.934
  Name = 
  3 active torsions:
  status: ('A' for Active; 'I' for Inactive)
    1  A    between atoms: C_6  and  C_15
    2  A    between atoms: C_6  and  C_23
    3  A    between atoms: C_15  and  N_21
                            x       y       z     vdW  Elec       q    Type
                         _______ _______ _______ _____ _____    ______ ____

>  <TORSDO>
F 3

$$$$
=
 OpenBabel11052422113D

 25 28  0  0  1  0  0  0  0  0999 V2000
  161.3560  204.5190  149.5100 C   0  0  0  0  0  0  0  0  0  0  0  0
  161.5380  205.7820  150.0780 C   0  0  0  0  0  0  0  0  0  0  0  0
  160.8100  203.5280  151.6420 C   0  0  0  0  0  3  0  0  0  0  0  0
  161.1900  204.0770  148.1030 C   0  0  2  0  0  3  0  0  0  0  0  0
  161.1490  202.4890  145.7680 C   0  0  0  0  0  2  0  0  0  0  0  0
  161.0510  204.7700  152.2550 C   0  0  0  0  0  3  0  0  0  0  0  0
  161.2630  202.6190  148.1690 N   0  0  2  0  0  0  0  0  0  0  0  0
  160.4360  202.1200  147.0850 C   0  0  0  0  0  2  0  0  0  0  0  0
  161.6310  207.2100  152.1240 C   0  0  0  0  0  0  0  0  0  0  0  0
  161.5190  207.3430  153.3730 O   0  0  0  0  0  0  0  0  0  0  0  0
  161.9080  206.9680  149.2290 C   0  0  0  0  0  2  0  0  0  0  0  0
  161.4970  203.9990  145.6920 C   0  0  0  0  0  2  0  0  0  0  0  0
  160.9700  203.4450  150.2620 C   0  0  0  0  0  0  0  0  0  0  0  0
  160.7470  202.3110  149.4400 N   0  0  0  0  0  2  0  0  0  0  0  0
  162.0260  208.3940  151.2920 C   0  0  0  0  0  2  0  0  0  0  0  0
  162.1050  204.5510  146.9970 C   0  0  0  0  0  2  0  0  0  0  0  0
  161.4520  208.2740  149.8780 C   0  0  1  0  0  3  0  0  0  0  0  0
  161.4220  205.8970  151.4840 C   0  0  0  0  0  0  0  0  0  0  0  0
  161.9060  209.4440  149.0250 C   0  0  0  0  0  2  0  0  0  0  0  0
  162.0410  210.6970  149.8740 C   0  0  0  0  0  2  0  0  0  0  0  0
  160.9950  212.9260  149.3600 C   0  0  0  0  0  0  0  0  0  0  0  0
  160.8950  213.9420  148.6220 O   0  0  0  0  0  0  0  0  0  0  0  0
  160.1920  212.8250  150.4900 O   0  0  0  0  0  1  0  0  0  0  0  0
  161.9280  211.8840  149.0390 N   0  0  0  0  0  0  0  0  0  0  0  0
  162.7010  211.9380  147.8100 C   0  0  0  0  0  1  0  0  0  0  0  0
  1  2  2  0  0  0  0
  1 13  1  0  0  0  0
  2 18  1  0  0  0  0
  3  6  1  0  0  0  0
  4 16  1  6  0  0  0
  4  7  1  0  0  0  0
  4  1  1  0  0  0  0
  5  8  1  0  0  0  0
  7  8  1  6  0  0  0
  7 14  1  0  0  0  0
  9 10  2  0  0  0  0
 11 17  1  0  0  0  0
 11  2  1  0  0  0  0
 12  5  1  0  0  0  0
 12 16  1  0  0  0  0
 13  3  2  0  0  0  0
 14 13  1  0  0  0  0
 15  9  1  0  0  0  0
 17 19  1  6  0  0  0
 17 15  1  0  0  0  0
 18  9  1  0  0  0  0
 18  6  2  0  0  0  0
 19 20  1  0  0  0  0
 21 23  1  0  0  0  0
 22 21  2  0  0  0  0
 24 21  1  0  0  0  0
 24 20  1  0  0  0  0
 25 24  1  0  0  0  0
M  END
>  <MODEL>
6

>  <REMARK>
 VINA RESULT:      -8.8      2.082      3.249
  Name = 
  3 active torsions:
  status: ('A' for Active; 'I' for Inactive)
    1  A    between atoms: C_6  and  C_15
    2  A    between atoms: C_6  and  C_23
    3  A    between atoms: C_15  and  N_21
                            x       y       z     vdW  Elec       q    Type
                         _______ _______ _______ _____ _____    ______ ____

>  <TORSDO>
F 3

$$$$
=
 OpenBabel11052422113D

 25 28  0  0  1  0  0  0  0  0999 V2000
  161.2740  208.5870  152.8960 C   0  0  0  0  0  0  0  0  0  0  0  0
  161.4070  207.8320  151.7290 C   0  0  0  0  0  0  0  0  0  0  0  0
  161.7080  210.6550  151.7290 C   0  0  0  0  0  3  0  0  0  0  0  0
  160.7080  208.2640  154.2290 C   0  0  2  0  0  3  0  0  0  0  0  0
  160.1410  208.3090  156.9960 C   0  0  0  0  0  2  0  0  0  0  0  0
  161.9150  209.9180  150.5490 C   0  0  0  0  0  3  0  0  0  0  0  0
  161.0680  209.4070  155.0650 N   0  0  2  0  0  0  0  0  0  0  0  0
  160.0190  209.5300  156.0620 C   0  0  0  0  0  2  0  0  0  0  0  0
  161.9500  207.7440  149.2920 C   0  0  0  0  0  0  0  0  0  0  0  0
  162.2630  208.3250  148.2190 O   0  0  0  0  0  0  0  0  0  0  0  0
  161.2280  206.3390  151.7470 C   0  0  0  0  0  2  0  0  0  0  0  0
  160.1550  206.9690  156.2120 C   0  0  0  0  0  2  0  0  0  0  0  0
  161.3840  209.9500  152.8840 C   0  0  0  0  0  0  0  0  0  0  0  0
  161.0990  210.4880  154.1650 N   0  0  0  0  0  2  0  0  0  0  0  0
  161.8000  206.2520  149.3030 C   0  0  0  0  0  2  0  0  0  0  0  0
  161.0700  206.9980  154.9710 C   0  0  0  0  0  2  0  0  0  0  0  0
  160.7970  205.8190  150.3760 C   0  0  1  0  0  3  0  0  0  0  0  0
  161.7750  208.5110  150.5420 C   0  0  0  0  0  0  0  0  0  0  0  0
  160.6970  204.3050  150.4220 C   0  0  0  0  0  2  0  0  0  0  0  0
  160.7610  203.7280  149.0170 C   0  0  0  0  0  2  0  0  0  0  0  0
  161.0900  201.5120  147.8750 C   0  0  0  0  0  0  0  0  0  0  0  0
  161.2530  200.2640  147.9360 O   0  0  0  0  0  1  0  0  0  0  0  0
  161.0310  202.1290  146.6310 O   0  0  0  0  0  0  0  0  0  0  0  0
  160.9670  202.2890  149.0750 N   0  0  0  0  0  0  0  0  0  0  0  0
  160.9320  201.6380  150.3740 C   0  0  0  0  0  1  0  0  0  0  0  0
  1  4  1  0  0  0  0
  2 11  1  0  0  0  0
  2  1  2  0  0  0  0
  3 13  2  0  0  0  0
  4 16  1  1  0  0  0
  4  7  1  0  0  0  0
  6  3  1  0  0  0  0
  7  8  1  1  0  0  0
  8  5  1  0  0  0  0
  9 15  1  0  0  0  0
  9 18  1  0  0  0  0
 10  9  2  0  0  0  0
 12  5  1  0  0  0  0
 13  1  1  0  0  0  0
 13 14  1  0  0  0  0
 14  7  1  0  0  0  0
 15 17  1  0  0  0  0
 16 12  1  0  0  0  0
 17 19  1  1  0  0  0
 17 11  1  0  0  0  0
 18  6  2  0  0  0  0
 18  2  1  0  0  0  0
 20 24  1  0  0  0  0
 20 19  1  0  0  0  0
 21 22  1  0  0  0  0
 21 24  1  0  0  0  0
 23 21  2  0  0  0  0
 24 25  1  0  0  0  0
M  END
>  <MODEL>
7

>  <REMARK>
 VINA RESULT:      -8.5      3.022      8.197
  Name = 
  3 active torsions:
  status: ('A' for Active; 'I' for Inactive)
    1  A    between atoms: C_6  and  C_15
    2  A    between atoms: C_6  and  C_23
    3  A    between atoms: C_15  and  N_21
                            x       y       z     vdW  Elec       q    Type
                         _______ _______ _______ _____ _____    ______ ____

>  <TORSDO>
F 3

$$$$
=
 OpenBabel11052422113D

 25 28  0  0  1  0  0  0  0  0999 V2000
  161.5940  207.5180  150.8810 C   0  0  0  0  0  0  0  0  0  0  0  0
  161.6030  206.5330  149.8910 C   0  0  0  0  0  0  0  0  0  0  0  0
  161.9560  209.2810  149.2720 C   0  0  0  0  0  3  0  0  0  0  0  0
  161.1490  207.5000  152.2970 C   0  0  2  0  0  3  0  0  0  0  0  0
  160.8460  208.1390  155.0310 C   0  0  0  0  0  2  0  0  0  0  0  0
  162.0370  208.3080  148.2600 C   0  0  0  0  0  3  0  0  0  0  0  0
  161.6080  208.7770  152.8390 N   0  0  2  0  0  0  0  0  0  0  0  0
  160.6600  209.1440  153.8760 C   0  0  0  0  0  2  0  0  0  0  0  0
  161.9120  205.9210  147.4900 C   0  0  0  0  0  0  0  0  0  0  0  0
  162.1340  206.2550  146.2950 O   0  0  0  0  0  0  0  0  0  0  0  0
  161.3980  205.0840  150.2380 C   0  0  0  0  0  2  0  0  0  0  0  0
  160.7600  206.6670  154.5480 C   0  0  0  0  0  2  0  0  0  0  0  0
  161.7280  208.8440  150.5740 C   0  0  0  0  0  0  0  0  0  0  0  0
  161.5750  209.6460  151.7340 N   0  0  0  0  0  2  0  0  0  0  0  0
  161.7360  204.4710  147.8270 C   0  0  0  0  0  2  0  0  0  0  0  0
  161.5550  206.4030  153.2540 C   0  0  0  0  0  2  0  0  0  0  0  0
  160.8300  204.3080  149.0500 C   0  0  1  0  0  3  0  0  0  0  0  0
  161.8700  206.9360  148.5600 C   0  0  0  0  0  0  0  0  0  0  0  0
  160.7060  202.8420  149.4210 C   0  0  0  0  0  2  0  0  0  0  0  0
  159.9960  202.0750  148.3180 C   0  0  0  0  0  2  0  0  0  0  0  0
  160.8570  200.6320  146.4460 C   0  0  0  0  0  0  0  0  0  0  0  0
  161.5800  199.6830  146.0420 O   0  0  0  0  0  1  0  0  0  0  0  0
  160.0750  201.3280  145.5320 O   0  0  0  0  0  0  0  0  0  0  0  0
  160.8400  200.9920  147.8360 N   0  0  0  0  0  0  0  0  0  0  0  0
  161.5810  200.2090  148.8100 C   0  0  0  0  0  1  0  0  0  0  0  0
  1  4  1  0  0  0  0
  2 11  1  0  0  0  0
  2  1  2  0  0  0  0
  3 13  2  0  0  0  0
  4  7  1  0  0  0  0
  4 16  1  1  0  0  0
  6 18  2  0  0  0  0
  6  3  1  0  0  0  0
  7  8  1  1  0  0  0
  8  5  1  0  0  0  0
  9 15  1  0  0  0  0
  9 18  1  0  0  0  0
 10  9  2  0  0  0  0
 12  5  1  0  0  0  0
 13  1  1  0  0  0  0
 13 14  1  0  0  0  0
 14  7  1  0  0  0  0
 15 17  1  0  0  0  0
 16 12  1  0  0  0  0
 17 19  1  1  0  0  0
 17 11  1  0  0  0  0
 18  2  1  0  0  0  0
 20 19  1  0  0  0  0
 21 24  1  0  0  0  0
 22 21  1  0  0  0  0
 23 21  2  0  0  0  0
 24 20  1  0  0  0  0
 24 25  1  0  0  0  0
M  END
>  <MODEL>
8

>  <REMARK>
 VINA RESULT:      -8.4      2.721      7.552
  Name = 
  3 active torsions:
  status: ('A' for Active; 'I' for Inactive)
    1  A    between atoms: C_6  and  C_15
    2  A    between atoms: C_6  and  C_23
    3  A    between atoms: C_15  and  N_21
                            x       y       z     vdW  Elec       q    Type
                         _______ _______ _______ _____ _____    ______ ____

>  <TORSDO>
F 3

$$$$
=
 OpenBabel11052422113D

 25 28  0  0  1  0  0  0  0  0999 V2000
  161.5170  205.2810  149.3880 C   0  0  0  0  0  0  0  0  0  0  0  0
  161.6080  206.3290  150.3060 C   0  0  0  0  0  0  0  0  0  0  0  0
  160.5930  203.7810  151.0380 C   0  0  0  0  0  3  0  0  0  0  0  0
  161.5980  205.2490  147.9060 C   0  0  2  0  0  3  0  0  0  0  0  0
  161.9540  204.3610  145.2480 C   0  0  0  0  0  2  0  0  0  0  0  0
  160.7340  204.7930  152.0030 C   0  0  0  0  0  3  0  0  0  0  0  0
  161.6440  203.8260  147.5750 N   0  0  2  0  0  0  0  0  0  0  0  0
  161.0160  203.6900  146.2730 C   0  0  0  0  0  2  0  0  0  0  0  0
  161.3520  207.1390  152.6550 C   0  0  0  0  0  0  0  0  0  0  0  0
  161.0230  206.9330  153.8540 O   0  0  0  0  0  0  0  0  0  0  0  0
  162.1330  207.6770  149.8950 C   0  0  0  0  0  2  0  0  0  0  0  0
  162.3250  205.8120  145.6560 C   0  0  0  0  0  2  0  0  0  0  0  0
  160.9930  204.0670  149.7360 C   0  0  0  0  0  0  0  0  0  0  0  0
  160.9080  203.2150  148.6050 N   0  0  0  0  0  2  0  0  0  0  0  0
  161.9000  208.4780  152.2630 C   0  0  0  0  0  2  0  0  0  0  0  0
  162.6980  205.9520  147.1450 C   0  0  0  0  0  2  0  0  0  0  0  0
  161.5830  208.7820  150.7960 C   0  0  1  0  0  3  0  0  0  0  0  0
  161.2460  206.0640  151.6490 C   0  0  0  0  0  0  0  0  0  0  0  0
  162.1920  210.1110  150.3910 C   0  0  0  0  0  2  0  0  0  0  0  0
  161.9390  210.3820  148.9170 C   0  0  0  0  0  2  0  0  0  0  0  0
  162.8950  212.4850  147.9230 C   0  0  0  0  0  0  0  0  0  0  0  0
  162.8360  213.7280  147.7310 O   0  0  0  0  0  1  0  0  0  0  0  0
  163.9640  211.7660  147.3990 O   0  0  0  0  0  0  0  0  0  0  0  0
  161.8720  211.8150  148.6740 N   0  0  0  0  0  0  0  0  0  0  0  0
  160.8040  212.5720  149.3040 C   0  0  0  0  0  1  0  0  0  0  0  0
  1 13  2  0  0  0  0
  1  2  1  0  0  0  0
  2 18  2  0  0  0  0
  3  6  2  0  0  0  0
  4 16  1  1  0  0  0
  4  1  1  0  0  0  0
  5 12  1  0  0  0  0
  5  8  1  0  0  0  0
  7  8  1  6  0  0  0
  7  4  1  0  0  0  0
  7 14  1  0  0  0  0
  9 10  2  0  0  0  0
 11  2  1  0  0  0  0
 11 17  1  0  0  0  0
 12 16  1  0  0  0  0
 13  3  1  0  0  0  0
 14 13  1  0  0  0  0
 15  9  1  0  0  0  0
 17 19  1  6  0  0  0
 17 15  1  0  0  0  0
 18  6  1  0  0  0  0
 18  9  1  0  0  0  0
 20 19  1  0  0  0  0
 21 24  1  0  0  0  0
 22 21  1  0  0  0  0
 23 21  2  0  0  0  0
 24 20  1  0  0  0  0
 24 25  1  0  0  0  0
M  END
>  <MODEL>
9

>  <REMARK>
 VINA RESULT:      -8.3      2.010      2.982
  Name = 
  3 active torsions:
  status: ('A' for Active; 'I' for Inactive)
    1  A    between atoms: C_6  and  C_15
    2  A    between atoms: C_6  and  C_23
    3  A    between atoms: C_15  and  N_21
                            x       y       z     vdW  Elec       q    Type
                         _______ _______ _______ _____ _____    ______ ____

>  <TORSDO>
F 3

$$$$
