=
 OpenBabel11052422143D

 25 28  0  0  1  0  0  0  0  0999 V2000
  161.4090  205.6700  149.8590 C   0  0  0  0  0  0  0  0  0  0  0  0
  161.5730  206.5550  150.9390 C   0  0  0  0  0  0  0  0  0  0  0  0
  161.6450  207.5140  148.3010 C   0  0  0  0  0  3  0  0  0  0  0  0
  161.2060  204.2780  149.8850 C   0  0  0  0  0  0  0  0  0  0  0  0
  160.5350  206.7850  154.5340 N   0  0  0  0  0  2  0  0  0  0  0  0
  160.7900  201.5360  149.5360 C   0  0  0  0  0  3  0  0  0  0  0  0
  161.8080  208.3600  149.3560 N   0  0  0  0  0  0  0  0  0  0  0  0
  161.0860  203.7270  148.6100 C   0  0  0  0  0  0  0  0  0  0  0  0
  160.8790  202.3660  148.4090 C   0  0  0  0  0  3  0  0  0  0  0  0
  162.0000  208.8810  151.7960 C   0  0  1  0  0  3  0  0  0  0  0  0
  161.5260  210.2860  151.4680 C   0  0  0  0  0  1  0  0  0  0  0  0
  161.6200  206.0860  152.3680 C   0  0  0  0  0  2  0  0  0  0  0  0
  160.9080  202.0760  150.8290 C   0  0  0  0  0  3  0  0  0  0  0  0
  161.4410  206.1640  148.5580 C   0  0  0  0  0  0  0  0  0  0  0  0
  161.2260  204.9270  147.4340 S   0  0  0  0  0  0  0  0  0  0  0  0
  161.3320  208.4220  153.0150 N   0  0  0  0  0  0  0  0  0  0  0  0
  161.1170  203.4520  151.0110 C   0  0  0  0  0  3  0  0  0  0  0  0
  161.1600  207.1640  153.3080 C   0  0  0  0  0  0  0  0  0  0  0  0
  161.7610  207.9250  150.6530 C   0  0  0  0  0  0  0  0  0  0  0  0
  160.0600  207.7630  155.5010 C   0  0  0  0  0  2  0  0  0  0  0  0
  160.8990  207.6760  156.7580 C   0  0  0  0  0  2  0  0  0  0  0  0
  161.9440  208.7750  156.7430 C   0  0  0  0  0  2  0  0  0  0  0  0
  161.3840  209.9800  156.1560 N   0  0  0  0  0  0  0  0  0  0  0  0
  161.0530  210.8640  157.2590 C   0  0  0  0  0  1  0  0  0  0  0  0
  162.3800  210.5820  155.4650 O   0  0  0  0  0  1  0  0  0  0  0  0
  1  4  1  0  0  0  0
  1  2  2  0  0  0  0
  2 12  1  0  0  0  0
  3 14  2  0  0  0  0
  3  7  1  0  0  0  0
  4 17  1  0  0  0  0
  5 20  1  0  0  0  0
  6 13  1  0  0  0  0
  7 19  2  0  0  0  0
  8  4  2  0  0  0  0
  9  8  1  0  0  0  0
  9  6  2  0  0  0  0
 10 11  1  6  0  0  0
 10 16  1  0  0  0  0
 12 18  1  0  0  0  0
 13 17  2  0  0  0  0
 14  1  1  0  0  0  0
 15 14  1  0  0  0  0
 15  8  1  0  0  0  0
 16 18  2  0  0  0  0
 18  5  1  0  0  0  0
 19  2  1  0  0  0  0
 19 10  1  0  0  0  0
 20 21  1  0  0  0  0
 22 21  1  0  0  0  0
 23 22  1  0  0  0  0
 23 24  1  0  0  0  0
 25 23  1  0  0  0  0
M  END
>  <MODEL>
1

>  <REMARK>
 VINA RESULT:      -9.1      0.000      0.000
  Name = 
  4 active torsions:
  status: ('A' for Active; 'I' for Inactive)
    1  A    between atoms: N_2  and  C_25
    2  A    between atoms: N_6  and  C_15
    3  A    between atoms: C_15  and  C_21
    4  A    between atoms: C_21  and  C_25
                            x       y       z     vdW  Elec       q    Type
                         _______ _______ _______ _____ _____    ______ ____

>  <TORSDO>
F 4

$$$$
=
 OpenBabel11052422143D

 25 28  0  0  1  0  0  0  0  0999 V2000
  161.3430  207.6900  151.0250 C   0  0  0  0  0  0  0  0  0  0  0  0
  161.1200  206.6670  150.0850 C   0  0  0  0  0  0  0  0  0  0  0  0
  162.0670  209.1760  149.2490 C   0  0  0  0  0  3  0  0  0  0  0  0
  161.1490  207.6610  152.4180 C   0  0  0  0  0  0  0  0  0  0  0  0
  161.1070  202.9200  149.9960 N   0  0  0  0  0  2  0  0  0  0  0  0
  160.8970  207.9850  155.1830 C   0  0  0  0  0  3  0  0  0  0  0  0
  161.8410  208.1790  148.3490 N   0  0  0  0  0  0  0  0  0  0  0  0
  161.4770  208.8690  153.0310 C   0  0  0  0  0  0  0  0  0  0  0  0
  161.3610  209.0570  154.4060 C   0  0  0  0  0  3  0  0  0  0  0  0
  161.1050  205.8780  147.6970 C   0  0  1  0  0  3  0  0  0  0  0  0
  162.0120  206.0010  146.4840 C   0  0  0  0  0  1  0  0  0  0  0  0
  160.5420  205.3320  150.4660 C   0  0  0  0  0  2  0  0  0  0  0  0
  160.5630  206.7590  154.5790 C   0  0  0  0  0  3  0  0  0  0  0  0
  161.8190  208.9240  150.5930 C   0  0  0  0  0  0  0  0  0  0  0  0
  162.0070  209.9880  151.8870 S   0  0  0  0  0  0  0  0  0  0  0  0
  161.2480  204.5370  148.2690 N   0  0  0  0  0  0  0  0  0  0  0  0
  160.6870  206.5910  153.1910 C   0  0  0  0  0  3  0  0  0  0  0  0
  160.9850  204.2570  149.5140 C   0  0  0  0  0  0  0  0  0  0  0  0
  161.3960  206.9420  148.7270 C   0  0  0  0  0  0  0  0  0  0  0  0
  161.5290  201.8200  149.1430 C   0  0  0  0  0  2  0  0  0  0  0  0
  160.4170  201.4780  148.1750 C   0  0  0  0  0  2  0  0  0  0  0  0
  161.0080  201.1980  146.8070 C   0  0  0  0  0  2  0  0  0  0  0  0
  160.1310  201.7220  145.7740 N   0  0  0  0  0  0  0  0  0  0  0  0
  160.8120  202.8630  145.1900 C   0  0  0  0  0  1  0  0  0  0  0  0
  160.0570  200.7790  144.8050 O   0  0  0  0  0  1  0  0  0  0  0  0
  1  4  1  0  0  0  0
  2 12  1  0  0  0  0
  2  1  1  0  0  0  0
  3 14  1  0  0  0  0
  4  8  2  0  0  0  0
  4 17  1  0  0  0  0
  7 19  1  0  0  0  0
  7  3  2  0  0  0  0
  8  9  1  0  0  0  0
  9  6  2  0  0  0  0
 10 11  1  6  0  0  0
 10 16  1  0  0  0  0
 10 19  1  0  0  0  0
 13  6  1  0  0  0  0
 14  1  2  0  0  0  0
 14 15  1  0  0  0  0
 15  8  1  0  0  0  0
 16 18  2  0  0  0  0
 17 13  2  0  0  0  0
 18  5  1  0  0  0  0
 18 12  1  0  0  0  0
 19  2  2  0  0  0  0
 20  5  1  0  0  0  0
 21 20  1  0  0  0  0
 22 21  1  0  0  0  0
 23 22  1  0  0  0  0
 24 23  1  0  0  0  0
 25 23  1  0  0  0  0
M  END
>  <MODEL>
2

>  <REMARK>
 VINA RESULT:      -8.5      4.115      7.655
  Name = 
  4 active torsions:
  status: ('A' for Active; 'I' for Inactive)
    1  A    between atoms: N_2  and  C_25
    2  A    between atoms: N_6  and  C_15
    3  A    between atoms: C_15  and  C_21
    4  A    between atoms: C_21  and  C_25
                            x       y       z     vdW  Elec       q    Type
                         _______ _______ _______ _____ _____    ______ ____

>  <TORSDO>
F 4

$$$$
=
 OpenBabel11052422143D

 25 28  0  0  1  0  0  0  0  0999 V2000
  161.0410  204.4670  148.8990 C   0  0  0  0  0  0  0  0  0  0  0  0
  160.9340  205.4490  149.9010 C   0  0  0  0  0  0  0  0  0  0  0  0
  161.0290  202.7280  150.5900 C   0  0  0  0  0  3  0  0  0  0  0  0
  161.1090  204.6380  147.5040 C   0  0  0  0  0  0  0  0  0  0  0  0
  161.8860  209.0400  150.3960 N   0  0  0  0  0  2  0  0  0  0  0  0
  161.2690  204.5750  144.7150 C   0  0  0  0  0  3  0  0  0  0  0  0
  160.9180  203.6880  151.5500 N   0  0  0  0  0  0  0  0  0  0  0  0
  161.2110  203.4280  146.8190 C   0  0  0  0  0  0  0  0  0  0  0  0
  161.2930  203.3690  145.4310 C   0  0  0  0  0  3  0  0  0  0  0  0
  160.7080  206.0560  152.3310 C   0  0  1  0  0  3  0  0  0  0  0  0
  161.3240  205.6100  153.6460 C   0  0  0  0  0  1  0  0  0  0  0  0
  160.8010  206.9130  149.5850 C   0  0  0  0  0  2  0  0  0  0  0  0
  161.1670  205.8030  145.3920 C   0  0  0  0  0  3  0  0  0  0  0  0
  161.0950  203.1240  149.2610 C   0  0  0  0  0  0  0  0  0  0  0  0
  161.2210  202.1350  147.9010 S   0  0  0  0  0  0  0  0  0  0  0  0
  161.2940  207.3390  151.9370 N   0  0  0  0  0  0  0  0  0  0  0  0
  161.0860  205.8410  146.7930 C   0  0  0  0  0  3  0  0  0  0  0  0
  161.3360  207.7600  150.7050 C   0  0  0  0  0  0  0  0  0  0  0  0
  160.8860  205.0220  151.2460 C   0  0  0  0  0  0  0  0  0  0  0  0
  162.4260  209.9230  151.4190 C   0  0  0  0  0  2  0  0  0  0  0  0
  161.2880  210.6240  152.1300 C   0  0  0  0  0  2  0  0  0  0  0  0
  161.4930  210.5230  153.6280 C   0  0  0  0  0  2  0  0  0  0  0  0
  160.4010  209.7740  154.2260 N   0  0  0  0  0  0  0  0  0  0  0  0
  160.9820  208.9630  155.2800 C   0  0  0  0  0  1  0  0  0  0  0  0
  159.5910  210.6730  154.8330 O   0  0  0  0  0  1  0  0  0  0  0  0
  1 14  1  0  0  0  0
  1  2  2  0  0  0  0
  2 19  1  0  0  0  0
  3  7  1  0  0  0  0
  4  1  1  0  0  0  0
  5 18  1  0  0  0  0
  5 20  1  0  0  0  0
  6 13  2  0  0  0  0
  6  9  1  0  0  0  0
  8  4  1  0  0  0  0
  8 15  1  0  0  0  0
  9  8  2  0  0  0  0
 10 11  1  1  0  0  0
 12  2  1  0  0  0  0
 12 18  1  0  0  0  0
 13 17  1  0  0  0  0
 14  3  2  0  0  0  0
 15 14  1  0  0  0  0
 16 10  1  0  0  0  0
 17  4  2  0  0  0  0
 18 16  2  0  0  0  0
 19  7  2  0  0  0  0
 19 10  1  0  0  0  0
 20 21  1  0  0  0  0
 21 22  1  0  0  0  0
 22 23  1  0  0  0  0
 23 25  1  0  0  0  0
 23 24  1  0  0  0  0
M  END
>  <MODEL>
3

>  <REMARK>
 VINA RESULT:      -8.4      2.060      3.885
  Name = 
  4 active torsions:
  status: ('A' for Active; 'I' for Inactive)
    1  A    between atoms: N_2  and  C_25
    2  A    between atoms: N_6  and  C_15
    3  A    between atoms: C_15  and  C_21
    4  A    between atoms: C_21  and  C_25
                            x       y       z     vdW  Elec       q    Type
                         _______ _______ _______ _____ _____    ______ ____

>  <TORSDO>
F 4

$$$$
=
 OpenBabel11052422143D

 25 28  0  0  1  0  0  0  0  0999 V2000
  161.0710  204.0220  149.6240 C   0  0  0  0  0  0  0  0  0  0  0  0
  160.9930  205.2670  150.2730 C   0  0  0  0  0  0  0  0  0  0  0  0
  161.0880  202.8940  151.7720 C   0  0  0  0  0  3  0  0  0  0  0  0
  161.1060  203.7500  148.2440 C   0  0  0  0  0  0  0  0  0  0  0  0
  161.9800  208.8220  149.6090 N   0  0  0  0  0  2  0  0  0  0  0  0
  161.1990  202.8230  145.6090 C   0  0  0  0  0  3  0  0  0  0  0  0
  161.0060  204.1060  152.3880 N   0  0  0  0  0  0  0  0  0  0  0  0
  161.1850  202.3860  147.9670 C   0  0  0  0  0  0  0  0  0  0  0  0
  161.2320  201.8980  146.6640 C   0  0  0  0  0  3  0  0  0  0  0  0
  160.8300  206.6030  152.3990 C   0  0  1  0  0  3  0  0  0  0  0  0
  161.4740  206.5780  153.7740 C   0  0  0  0  0  1  0  0  0  0  0  0
  160.8620  206.5640  149.5210 C   0  0  0  0  0  2  0  0  0  0  0  0
  161.1210  204.2020  145.8730 C   0  0  0  0  0  3  0  0  0  0  0  0
  161.1250  202.8570  150.3840 C   0  0  0  0  0  0  0  0  0  0  0  0
  161.2120  201.4940  149.3960 S   0  0  0  0  0  0  0  0  0  0  0  0
  161.4150  207.6920  151.6140 N   0  0  0  0  0  0  0  0  0  0  0  0
  161.0740  204.6740  147.1940 C   0  0  0  0  0  3  0  0  0  0  0  0
  161.4290  207.7090  150.3110 C   0  0  0  0  0  0  0  0  0  0  0  0
  160.9750  205.2800  151.6850 C   0  0  0  0  0  0  0  0  0  0  0  0
  162.5500  209.9720  150.2940 C   0  0  0  0  0  2  0  0  0  0  0  0
  161.9410  211.2420  149.7390 C   0  0  0  0  0  2  0  0  0  0  0  0
  162.3330  211.3930  148.2820 C   0  0  0  0  0  2  0  0  0  0  0  0
  161.4740  212.3730  147.6400 N   0  0  0  0  0  0  0  0  0  0  0  0
  161.1990  213.3970  148.6310 C   0  0  0  0  0  1  0  0  0  0  0  0
  162.2090  212.9640  146.6680 O   0  0  0  0  0  1  0  0  0  0  0  0
  1  2  2  0  0  0  0
  1 14  1  0  0  0  0
  2 19  1  0  0  0  0
  3  7  1  0  0  0  0
  4  1  1  0  0  0  0
  5 20  1  0  0  0  0
  5 18  1  0  0  0  0
  6 13  2  0  0  0  0
  6  9  1  0  0  0  0
  8  4  1  0  0  0  0
  8 15  1  0  0  0  0
  9  8  2  0  0  0  0
 10 11  1  1  0  0  0
 12  2  1  0  0  0  0
 12 18  1  0  0  0  0
 13 17  1  0  0  0  0
 14  3  2  0  0  0  0
 15 14  1  0  0  0  0
 16 10  1  0  0  0  0
 17  4  2  0  0  0  0
 18 16  2  0  0  0  0
 19  7  2  0  0  0  0
 19 10  1  0  0  0  0
 21 20  1  0  0  0  0
 22 21  1  0  0  0  0
 23 22  1  0  0  0  0
 23 24  1  0  0  0  0
 25 23  1  0  0  0  0
M  END
>  <MODEL>
4

>  <REMARK>
 VINA RESULT:      -8.2      2.956      5.200
  Name = 
  4 active torsions:
  status: ('A' for Active; 'I' for Inactive)
    1  A    between atoms: N_2  and  C_25
    2  A    between atoms: N_6  and  C_15
    3  A    between atoms: C_15  and  C_21
    4  A    between atoms: C_21  and  C_25
                            x       y       z     vdW  Elec       q    Type
                         _______ _______ _______ _____ _____    ______ ____

>  <TORSDO>
F 4

$$$$
=
 OpenBabel11052422143D

 25 28  0  0  1  0  0  0  0  0999 V2000
  161.5370  206.0490  149.7120 C   0  0  0  0  0  0  0  0  0  0  0  0
  161.7720  207.2650  150.3780 C   0  0  0  0  0  0  0  0  0  0  0  0
  161.8170  207.1560  147.5720 C   0  0  0  0  0  3  0  0  0  0  0  0
  161.2690  204.7820  150.2640 C   0  0  0  0  0  0  0  0  0  0  0  0
  160.8450  208.8880  153.6270 N   0  0  0  0  0  2  0  0  0  0  0  0
  160.7140  202.1380  150.9780 C   0  0  0  0  0  3  0  0  0  0  0  0
  162.0480  208.3260  148.2280 N   0  0  0  0  0  0  0  0  0  0  0  0
  161.0880  203.8000  149.2910 C   0  0  0  0  0  0  0  0  0  0  0  0
  160.8110  202.4760  149.6200 C   0  0  0  0  0  3  0  0  0  0  0  0
  162.3310  209.7160  150.2900 C   0  0  1  0  0  3  0  0  0  0  0  0
  161.9160  210.9180  149.4590 C   0  0  0  0  0  1  0  0  0  0  0  0
  161.8360  207.3670  151.8770 C   0  0  0  0  0  2  0  0  0  0  0  0
  160.8930  203.1180  151.9710 C   0  0  0  0  0  3  0  0  0  0  0  0
  161.5560  206.0150  148.3210 C   0  0  0  0  0  0  0  0  0  0  0  0
  161.2530  204.4590  147.7490 S   0  0  0  0  0  0  0  0  0  0  0  0
  161.6760  209.7870  151.5980 N   0  0  0  0  0  0  0  0  0  0  0  0
  161.1720  204.4480  151.6180 C   0  0  0  0  0  3  0  0  0  0  0  0
  161.4530  208.7430  152.3450 C   0  0  0  0  0  0  0  0  0  0  0  0
  162.0170  208.4150  149.5940 C   0  0  0  0  0  0  0  0  0  0  0  0
  160.4430  210.1820  154.1570 C   0  0  0  0  0  2  0  0  0  0  0  0
  160.6130  210.1850  155.6610 C   0  0  0  0  0  2  0  0  0  0  0  0
  159.7410  209.1020  156.2680 C   0  0  0  0  0  2  0  0  0  0  0  0
  160.4980  208.3570  157.2590 N   0  0  0  0  0  0  0  0  0  0  0  0
  160.2450  206.9510  157.0040 C   0  0  0  0  0  1  0  0  0  0  0  0
  161.8090  208.5670  156.9930 O   0  0  0  0  0  1  0  0  0  0  0  0
  1  4  1  0  0  0  0
  1  2  1  0  0  0  0
  2 12  1  0  0  0  0
  3  7  2  0  0  0  0
  3 14  1  0  0  0  0
  4 17  1  0  0  0  0
  5 20  1  0  0  0  0
  6 13  1  0  0  0  0
  7 19  1  0  0  0  0
  8  9  1  0  0  0  0
  8  4  2  0  0  0  0
  9  6  2  0  0  0  0
 10 11  1  6  0  0  0
 10 16  1  0  0  0  0
 12 18  1  0  0  0  0
 14  1  2  0  0  0  0
 15 14  1  0  0  0  0
 15  8  1  0  0  0  0
 16 18  2  0  0  0  0
 17 13  2  0  0  0  0
 18  5  1  0  0  0  0
 19 10  1  0  0  0  0
 19  2  2  0  0  0  0
 20 21  1  0  0  0  0
 21 22  1  0  0  0  0
 22 23  1  0  0  0  0
 24 23  1  0  0  0  0
 25 23  1  0  0  0  0
M  END
>  <MODEL>
5

>  <REMARK>
 VINA RESULT:      -8.2      1.395      1.831
  Name = 
  4 active torsions:
  status: ('A' for Active; 'I' for Inactive)
    1  A    between atoms: N_2  and  C_25
    2  A    between atoms: N_6  and  C_15
    3  A    between atoms: C_15  and  C_21
    4  A    between atoms: C_21  and  C_25
                            x       y       z     vdW  Elec       q    Type
                         _______ _______ _______ _____ _____    ______ ____

>  <TORSDO>
F 4

$$$$
=
 OpenBabel11052422143D

 25 28  0  0  1  0  0  0  0  0999 V2000
  161.4900  206.1800  149.9130 C   0  0  0  0  0  0  0  0  0  0  0  0
  161.7300  207.3500  150.6570 C   0  0  0  0  0  0  0  0  0  0  0  0
  161.7010  207.4380  147.8500 C   0  0  0  0  0  3  0  0  0  0  0  0
  161.2510  204.8750  150.3810 C   0  0  0  0  0  0  0  0  0  0  0  0
  160.8740  208.7280  154.0360 N   0  0  0  0  0  2  0  0  0  0  0  0
  160.7430  202.1800  150.9210 C   0  0  0  0  0  3  0  0  0  0  0  0
  161.9370  208.5630  148.5810 N   0  0  0  0  0  0  0  0  0  0  0  0
  161.0540  203.9610  149.3470 C   0  0  0  0  0  0  0  0  0  0  0  0
  160.8000  202.6140  149.5880 C   0  0  0  0  0  3  0  0  0  0  0  0
  162.2610  209.8080  150.7280 C   0  0  1  0  0  3  0  0  0  0  0  0
  161.8110  211.0600  149.9950 C   0  0  0  0  0  1  0  0  0  0  0  0
  161.8330  207.3470  152.1580 C   0  0  0  0  0  2  0  0  0  0  0  0
  160.9390  203.0900  151.9750 C   0  0  0  0  0  3  0  0  0  0  0  0
  161.4720  206.2450  148.5230 C   0  0  0  0  0  0  0  0  0  0  0  0
  161.1700  204.7290  147.8510 S   0  0  0  0  0  0  0  0  0  0  0  0
  161.6400  209.7780  152.0540 N   0  0  0  0  0  0  0  0  0  0  0  0
  161.1940  204.4450  151.7100 C   0  0  0  0  0  3  0  0  0  0  0  0
  161.4490  208.6810  152.7310 C   0  0  0  0  0  0  0  0  0  0  0  0
  161.9420  208.5540  149.9500 C   0  0  0  0  0  0  0  0  0  0  0  0
  160.4730  209.9770  154.6660 C   0  0  0  0  0  2  0  0  0  0  0  0
  159.3300  209.7130  155.6230 C   0  0  0  0  0  2  0  0  0  0  0  0
  159.1810  210.8910  156.5660 C   0  0  0  0  0  2  0  0  0  0  0  0
  157.8750  211.5020  156.3890 N   0  0  0  0  0  0  0  0  0  0  0  0
  158.1030  212.8060  155.7950 C   0  0  0  0  0  1  0  0  0  0  0  0
  157.2170  210.7650  155.4630 O   0  0  0  0  0  1  0  0  0  0  0  0
  1  4  1  0  0  0  0
  1  2  2  0  0  0  0
  2 12  1  0  0  0  0
  3 14  2  0  0  0  0
  3  7  1  0  0  0  0
  4 17  1  0  0  0  0
  5 20  1  0  0  0  0
  6 13  1  0  0  0  0
  7 19  2  0  0  0  0
  8  9  1  0  0  0  0
  8  4  2  0  0  0  0
  9  6  2  0  0  0  0
 10 11  1  6  0  0  0
 10 16  1  0  0  0  0
 12 18  1  0  0  0  0
 14  1  1  0  0  0  0
 15 14  1  0  0  0  0
 15  8  1  0  0  0  0
 16 18  2  0  0  0  0
 17 13  2  0  0  0  0
 18  5  1  0  0  0  0
 19  2  1  0  0  0  0
 19 10  1  0  0  0  0
 20 21  1  0  0  0  0
 21 22  1  0  0  0  0
 23 22  1  0  0  0  0
 24 23  1  0  0  0  0
 25 23  1  0  0  0  0
M  END
>  <MODEL>
6

>  <REMARK>
 VINA RESULT:      -7.9      1.885      2.097
  Name = 
  4 active torsions:
  status: ('A' for Active; 'I' for Inactive)
    1  A    between atoms: N_2  and  C_25
    2  A    between atoms: N_6  and  C_15
    3  A    between atoms: C_15  and  C_21
    4  A    between atoms: C_21  and  C_25
                            x       y       z     vdW  Elec       q    Type
                         _______ _______ _______ _____ _____    ______ ____

>  <TORSDO>
F 4

$$$$
=
 OpenBabel11052422143D

 25 28  0  0  1  0  0  0  0  0999 V2000
  161.2350  207.5650  151.7650 C   0  0  0  0  0  0  0  0  0  0  0  0
  161.0320  206.4590  150.9210 C   0  0  0  0  0  0  0  0  0  0  0  0
  161.9620  208.8910  149.8680 C   0  0  0  0  0  3  0  0  0  0  0  0
  161.0260  207.6620  153.1530 C   0  0  0  0  0  0  0  0  0  0  0  0
  161.0580  202.7190  151.1740 N   0  0  0  0  0  2  0  0  0  0  0  0
  160.7420  208.2340  155.8740 C   0  0  0  0  0  3  0  0  0  0  0  0
  161.7560  207.8140  149.0600 N   0  0  0  0  0  0  0  0  0  0  0  0
  161.3360  208.9240  153.6560 C   0  0  0  0  0  0  0  0  0  0  0  0
  161.2030  209.2350  155.0070 C   0  0  0  0  0  3  0  0  0  0  0  0
  161.0510  205.4540  148.6150 C   0  0  1  0  0  3  0  0  0  0  0  0
  161.9690  205.4760  147.4040 C   0  0  0  0  0  1  0  0  0  0  0  0
  160.4640  205.1570  151.4160 C   0  0  0  0  0  2  0  0  0  0  0  0
  160.4270  206.9540  155.3810 C   0  0  0  0  0  3  0  0  0  0  0  0
  161.7030  208.7600  151.2260 C   0  0  0  0  0  0  0  0  0  0  0  0
  161.8660  209.9400  152.4200 S   0  0  0  0  0  0  0  0  0  0  0  0
  161.2010  204.1730  149.3080 N   0  0  0  0  0  0  0  0  0  0  0  0
  160.5670  206.6610  154.0160 C   0  0  0  0  0  3  0  0  0  0  0  0
  160.9270  204.0050  150.5710 C   0  0  0  0  0  0  0  0  0  0  0  0
  161.3200  206.6110  149.5460 C   0  0  0  0  0  0  0  0  0  0  0  0
  161.5010  201.5500  150.4290 C   0  0  0  0  0  2  0  0  0  0  0  0
  160.5980  201.3450  149.2320 C   0  0  0  0  0  2  0  0  0  0  0  0
  161.3720  200.6450  148.1320 C   0  0  0  0  0  2  0  0  0  0  0  0
  160.7210  200.8680  146.8520 N   0  0  0  0  0  0  0  0  0  0  0  0
  161.2040  202.1440  146.3570 C   0  0  0  0  0  1  0  0  0  0  0  0
  161.1870  199.9230  146.0020 O   0  0  0  0  0  1  0  0  0  0  0  0
  1  4  1  0  0  0  0
  2 12  1  0  0  0  0
  2  1  1  0  0  0  0
  3 14  1  0  0  0  0
  4  8  2  0  0  0  0
  4 17  1  0  0  0  0
  7 19  1  0  0  0  0
  7  3  2  0  0  0  0
  8  9  1  0  0  0  0
  9  6  2  0  0  0  0
 10 11  1  6  0  0  0
 10 16  1  0  0  0  0
 10 19  1  0  0  0  0
 13  6  1  0  0  0  0
 14  1  2  0  0  0  0
 14 15  1  0  0  0  0
 15  8  1  0  0  0  0
 16 18  2  0  0  0  0
 17 13  2  0  0  0  0
 18  5  1  0  0  0  0
 18 12  1  0  0  0  0
 19  2  2  0  0  0  0
 20  5  1  0  0  0  0
 21 20  1  0  0  0  0
 22 21  1  0  0  0  0
 23 22  1  0  0  0  0
 24 23  1  0  0  0  0
 25 23  1  0  0  0  0
M  END
>  <MODEL>
7

>  <REMARK>
 VINA RESULT:      -7.8      3.973      7.513
  Name = 
  4 active torsions:
  status: ('A' for Active; 'I' for Inactive)
    1  A    between atoms: N_2  and  C_25
    2  A    between atoms: N_6  and  C_15
    3  A    between atoms: C_15  and  C_21
    4  A    between atoms: C_21  and  C_25
                            x       y       z     vdW  Elec       q    Type
                         _______ _______ _______ _____ _____    ______ ____

>  <TORSDO>
F 4

$$$$
=
 OpenBabel11052422143D

 25 28  0  0  1  0  0  0  0  0999 V2000
  161.1610  205.1450  150.7310 C   0  0  0  0  0  0  0  0  0  0  0  0
  161.1060  206.5500  150.7660 C   0  0  0  0  0  0  0  0  0  0  0  0
  161.2060  205.0770  153.1550 C   0  0  0  0  0  3  0  0  0  0  0  0
  161.1690  204.2930  149.6110 C   0  0  0  0  0  0  0  0  0  0  0  0
  162.1140  209.4330  148.5930 N   0  0  0  0  0  2  0  0  0  0  0  0
  161.2070  202.3000  147.6530 C   0  0  0  0  0  3  0  0  0  0  0  0
  161.1460  206.4370  153.1760 N   0  0  0  0  0  0  0  0  0  0  0  0
  161.2300  202.9450  149.9610 C   0  0  0  0  0  0  0  0  0  0  0  0
  161.2500  201.9330  149.0060 C   0  0  0  0  0  3  0  0  0  0  0  0
  160.9930  208.6860  152.0890 C   0  0  1  0  0  3  0  0  0  0  0  0
  161.6620  209.2590  153.3270 C   0  0  0  0  0  1  0  0  0  0  0  0
  160.9740  207.3850  149.5220 C   0  0  0  0  0  2  0  0  0  0  0  0
  161.1460  203.6550  147.2830 C   0  0  0  0  0  3  0  0  0  0  0  0
  161.2170  204.4320  151.9250 C   0  0  0  0  0  0  0  0  0  0  0  0
  161.2750  202.7720  151.6370 S   0  0  0  0  0  0  0  0  0  0  0  0
  161.5740  209.3100  150.8980 N   0  0  0  0  0  0  0  0  0  0  0  0
  161.1270  204.6610  148.2620 C   0  0  0  0  0  3  0  0  0  0  0  0
  161.5650  208.7520  149.7210 C   0  0  0  0  0  0  0  0  0  0  0  0
  161.1130  207.1830  152.0290 C   0  0  0  0  0  0  0  0  0  0  0  0
  162.7060  210.7580  148.6970 C   0  0  0  0  0  2  0  0  0  0  0  0
  161.8140  211.7630  148.0000 C   0  0  0  0  0  2  0  0  0  0  0  0
  161.3670  212.8150  148.9960 C   0  0  0  0  0  2  0  0  0  0  0  0
  160.6150  213.8540  148.3120 N   0  0  0  0  0  0  0  0  0  0  0  0
  160.8520  213.6710  146.8920 C   0  0  0  0  0  1  0  0  0  0  0  0
  159.3030  213.5940  148.5220 O   0  0  0  0  0  1  0  0  0  0  0  0
  1  2  2  0  0  0  0
  1 14  1  0  0  0  0
  2 19  1  0  0  0  0
  3  7  1  0  0  0  0
  4  8  1  0  0  0  0
  4  1  1  0  0  0  0
  5 20  1  0  0  0  0
  5 18  1  0  0  0  0
  6  9  1  0  0  0  0
  8 15  1  0  0  0  0
  9  8  2  0  0  0  0
 10 11  1  1  0  0  0
 12 18  1  0  0  0  0
 12  2  1  0  0  0  0
 13  6  2  0  0  0  0
 13 17  1  0  0  0  0
 14  3  2  0  0  0  0
 15 14  1  0  0  0  0
 16 10  1  0  0  0  0
 17  4  2  0  0  0  0
 18 16  2  0  0  0  0
 19 10  1  0  0  0  0
 19  7  2  0  0  0  0
 21 20  1  0  0  0  0
 21 22  1  0  0  0  0
 23 25  1  0  0  0  0
 23 22  1  0  0  0  0
 24 23  1  0  0  0  0
M  END
>  <MODEL>
8

>  <REMARK>
 VINA RESULT:      -7.7      2.950      5.273
  Name = 
  4 active torsions:
  status: ('A' for Active; 'I' for Inactive)
    1  A    between atoms: N_2  and  C_25
    2  A    between atoms: N_6  and  C_15
    3  A    between atoms: C_15  and  C_21
    4  A    between atoms: C_21  and  C_25
                            x       y       z     vdW  Elec       q    Type
                         _______ _______ _______ _____ _____    ______ ____

>  <TORSDO>
F 4

$$$$
=
 OpenBabel11052422143D

 25 28  0  0  1  0  0  0  0  0999 V2000
  160.7440  208.5220  153.2790 C   0  0  0  0  0  0  0  0  0  0  0  0
  161.1940  207.6590  152.2640 C   0  0  0  0  0  0  0  0  0  0  0  0
  160.7870  206.6900  154.8680 C   0  0  0  0  0  3  0  0  0  0  0  0
  160.4490  209.8960  153.1980 C   0  0  0  0  0  0  0  0  0  0  0  0
  160.9460  207.3770  148.5340 N   0  0  0  0  0  2  0  0  0  0  0  0
  159.7680  212.5960  153.4300 C   0  0  0  0  0  3  0  0  0  0  0  0
  161.2270  205.8660  153.8770 N   0  0  0  0  0  0  0  0  0  0  0  0
  160.0260  210.4270  154.4160 C   0  0  0  0  0  0  0  0  0  0  0  0
  159.6810  211.7680  154.5580 C   0  0  0  0  0  3  0  0  0  0  0  0
  161.9600  205.3770  151.5350 C   0  0  1  0  0  3  0  0  0  0  0  0
  161.5340  203.9380  151.7700 C   0  0  0  0  0  1  0  0  0  0  0  0
  161.5030  208.1400  150.8720 C   0  0  0  0  0  2  0  0  0  0  0  0
  160.1920  212.0750  152.1940 C   0  0  0  0  0  3  0  0  0  0  0  0
  160.5410  208.0230  154.5620 C   0  0  0  0  0  0  0  0  0  0  0  0
  160.0070  209.2330  155.6060 S   0  0  0  0  0  0  0  0  0  0  0  0
  161.5280  205.7940  150.1990 N   0  0  0  0  0  0  0  0  0  0  0  0
  160.5350  210.7200  152.0720 C   0  0  0  0  0  3  0  0  0  0  0  0
  161.3290  207.0370  149.8660 C   0  0  0  0  0  0  0  0  0  0  0  0
  161.4200  206.3050  152.5950 C   0  0  0  0  0  0  0  0  0  0  0  0
  160.7560  206.3730  147.4980 C   0  0  0  0  0  2  0  0  0  0  0  0
  162.0410  206.2080  146.7150 C   0  0  0  0  0  2  0  0  0  0  0  0
  162.4900  204.7620  146.7840 C   0  0  0  0  0  2  0  0  0  0  0  0
  161.3330  203.8910  146.8990 N   0  0  0  0  0  0  0  0  0  0  0  0
  161.2790  203.1080  145.6780 C   0  0  0  0  0  1  0  0  0  0  0  0
  161.5920  203.0210  147.9040 O   0  0  0  0  0  1  0  0  0  0  0  0
  1 14  2  0  0  0  0
  2 19  2  0  0  0  0
  2  1  1  0  0  0  0
  4  1  1  0  0  0  0
  4  8  1  0  0  0  0
  5 18  1  0  0  0  0
  6  9  1  0  0  0  0
  7  3  2  0  0  0  0
  8  9  2  0  0  0  0
  8 15  1  0  0  0  0
 10 11  1  1  0  0  0
 10 19  1  0  0  0  0
 12  2  1  0  0  0  0
 13  6  2  0  0  0  0
 14  3  1  0  0  0  0
 14 15  1  0  0  0  0
 16 10  1  0  0  0  0
 17 13  1  0  0  0  0
 17  4  2  0  0  0  0
 18 16  2  0  0  0  0
 18 12  1  0  0  0  0
 19  7  1  0  0  0  0
 20  5  1  0  0  0  0
 21 22  1  0  0  0  0
 21 20  1  0  0  0  0
 22 23  1  0  0  0  0
 23 25  1  0  0  0  0
 24 23  1  0  0  0  0
M  END
>  <MODEL>
9

>  <REMARK>
 VINA RESULT:      -7.6      3.532      8.038
  Name = 
  4 active torsions:
  status: ('A' for Active; 'I' for Inactive)
    1  A    between atoms: N_2  and  C_25
    2  A    between atoms: N_6  and  C_15
    3  A    between atoms: C_15  and  C_21
    4  A    between atoms: C_21  and  C_25
                            x       y       z     vdW  Elec       q    Type
                         _______ _______ _______ _____ _____    ______ ____

>  <TORSDO>
F 4

$$$$
