=
 OpenBabel11052422433D

 31 33  0  0  1  0  0  0  0  0999 V2000
  161.4920  205.7510  149.6210 C   0  0  0  0  0  0  0  0  0  0  0  0
  161.5950  207.9230  150.5250 C   0  0  0  0  0  0  0  0  0  0  0  0
  161.6530  208.1220  148.8560 S   0  0  0  0  0  0  0  0  0  0  0  0
  161.5270  206.5470  150.7870 C   0  0  0  0  0  0  0  0  0  0  0  0
  161.5720  206.4940  148.4340 C   0  0  0  0  0  0  0  0  0  0  0  0
  161.4050  204.2530  149.6570 C   0  0  1  0  0  3  0  0  0  0  0  0
  160.6030  202.2610  150.8970 C   0  0  0  0  0  2  0  0  0  0  0  0
  160.4760  203.7740  150.7700 C   0  0  0  0  0  2  0  0  0  0  0  0
  160.3440  201.6100  149.6170 N   0  0  0  0  0  2  0  0  0  0  0  0
  160.6570  201.5450  147.3120 O   0  0  0  0  0  0  0  0  0  0  0  0
  160.9860  203.6920  148.2980 C   0  0  0  0  0  2  0  0  0  0  0  0
  160.6880  202.2240  148.3700 C   0  0  0  0  0  0  0  0  0  0  0  0
  162.6490  204.8380  145.1850 C   0  0  0  0  0  3  0  0  0  0  0  0
  161.5730  205.9980  147.0350 C   0  0  0  0  0  0  0  0  0  0  0  0
  160.4340  205.7620  144.8960 C   0  0  0  0  0  3  0  0  0  0  0  0
  161.5310  205.0700  144.3810 C   0  0  0  0  0  3  0  0  0  0  0  0
  162.6680  205.3000  146.5040 C   0  0  0  0  0  3  0  0  0  0  0  0
  160.4560  206.2240  146.2160 C   0  0  0  0  0  3  0  0  0  0  0  0
  162.1380  210.1660  151.2720 C   0  0  0  0  0  2  0  0  0  0  0  0
  161.4680  209.0400  151.4810 C   0  0  0  0  0  0  0  0  0  0  0  0
  160.4180  209.0290  152.5540 C   0  0  0  0  0  2  0  0  0  0  0  0
  160.5420  207.9590  154.7170 O   0  0  0  0  0  1  0  0  0  0  0  0
  160.9880  209.0560  153.9760 C   0  0  2  0  0  3  0  0  0  0  0  0
  159.5890  212.6220  154.6160 C   0  0  0  0  0  0  0  0  0  0  0  0
  161.2000  210.5350  155.8270 O   0  0  0  0  0  0  0  0  0  0  0  0
  158.8640  213.4220  153.9710 O   0  0  0  0  0  0  0  0  0  0  0  0
  160.0890  213.0000  155.8570 O   0  0  0  0  0  1  0  0  0  0  0  0
  160.6960  210.3380  154.6900 C   0  0  0  0  0  0  0  0  0  0  0  0
  159.8870  211.3380  154.0600 N   0  0  0  0  0  2  0  0  0  0  0  0
  162.6750  205.8610  152.8750 C   0  0  0  0  0  1  0  0  0  0  0  0
  161.5160  205.9660  152.0610 O   0  0  0  0  0  0  0  0  0  0  0  0
  1  4  1  0  0  0  0
  2  4  2  0  0  0  0
  2 20  1  0  0  0  0
  3  2  1  0  0  0  0
  4 31  1  0  0  0  0
  5  3  1  0  0  0  0
  5  1  2  0  0  0  0
  6  1  1  6  0  0  0
  6  8  1  0  0  0  0
  8  7  1  0  0  0  0
  9  7  1  0  0  0  0
 10 12  2  0  0  0  0
 11 12  1  0  0  0  0
 11  6  1  0  0  0  0
 12  9  1  0  0  0  0
 13 17  1  0  0  0  0
 14  5  1  0  0  0  0
 15 18  2  0  0  0  0
 16 15  1  0  0  0  0
 16 13  2  0  0  0  0
 17 14  2  0  0  0  0
 18 14  1  0  0  0  0
 19 20  2  0  0  0  0
 20 21  1  0  0  0  0
 21 23  1  0  0  0  0
 23 28  1  0  0  0  0
 23 22  1  1  0  0  0
 24 27  1  0  0  0  0
 26 24  2  0  0  0  0
 28 25  2  0  0  0  0
 29 24  1  0  0  0  0
 29 28  1  0  0  0  0
 31 30  1  0  0  0  0
M  END
>  <MODEL>
1

>  <REMARK>
 VINA RESULT:      -8.6      0.000      0.000
  Name = 
  7 active torsions:
  status: ('A' for Active; 'I' for Inactive)
    1  A    between atoms: C_4  and  C_5
    2  A    between atoms: C_9  and  C_15
    3  A    between atoms: C_9  and  C_23
    4  A    between atoms: C_12  and  C_27
    5  A    between atoms: C_19  and  C_22
    6  A    between atoms: C_21  and  O_29
    7  A    between atoms: C_22  and  C_23
                            x       y       z     vdW  Elec       q    Type
                         _______ _______ _______ _____ _____    ______ ____

>  <TORSDO>
F 7

$$$$
=
 OpenBabel11052422433D

 31 33  0  0  1  0  0  0  0  0999 V2000
  161.1530  205.8360  149.0880 C   0  0  0  0  0  0  0  0  0  0  0  0
  161.2240  207.2600  150.9620 C   0  0  0  0  0  0  0  0  0  0  0  0
  161.1190  205.7000  151.5810 S   0  0  0  0  0  0  0  0  0  0  0  0
  161.2130  207.1640  149.5630 C   0  0  0  0  0  0  0  0  0  0  0  0
  161.0790  204.8790  150.1120 C   0  0  0  0  0  0  0  0  0  0  0  0
  161.1450  205.4900  147.6270 C   0  0  1  0  0  3  0  0  0  0  0  0
  160.3070  206.0840  145.3710 C   0  0  0  0  0  2  0  0  0  0  0  0
  160.4840  206.5870  146.7970 C   0  0  0  0  0  2  0  0  0  0  0  0
  161.5820  205.6380  144.8170 N   0  0  0  0  0  2  0  0  0  0  0  0
  163.5780  204.4730  145.0900 O   0  0  0  0  0  0  0  0  0  0  0  0
  162.5560  205.1810  147.1260 C   0  0  0  0  0  2  0  0  0  0  0  0
  162.5980  205.0430  145.6330 C   0  0  0  0  0  0  0  0  0  0  0  0
  160.7020  201.3890  148.6490 C   0  0  0  0  0  3  0  0  0  0  0  0
  160.9950  203.4020  149.9860 C   0  0  0  0  0  0  0  0  0  0  0  0
  161.0660  201.2050  151.0330 C   0  0  0  0  0  3  0  0  0  0  0  0
  160.8470  200.6010  149.7930 C   0  0  0  0  0  3  0  0  0  0  0  0
  160.7760  202.7820  148.7470 C   0  0  0  0  0  3  0  0  0  0  0  0
  161.1380  202.5980  151.1280 C   0  0  0  0  0  3  0  0  0  0  0  0
  162.3260  209.3780  151.3880 C   0  0  0  0  0  2  0  0  0  0  0  0
  161.4590  208.4580  151.7920 C   0  0  0  0  0  0  0  0  0  0  0  0
  160.5720  208.7830  152.9580 C   0  0  0  0  0  2  0  0  0  0  0  0
  160.3740  207.2360  154.8040 O   0  0  0  0  0  1  0  0  0  0  0  0
  161.1230  208.3050  154.3060 C   0  0  2  0  0  3  0  0  0  0  0  0
  160.6480  211.8070  155.9170 C   0  0  0  0  0  0  0  0  0  0  0  0
  161.8920  209.2240  156.3610 O   0  0  0  0  0  0  0  0  0  0  0  0
  160.0440  212.8610  155.5920 O   0  0  0  0  0  0  0  0  0  0  0  0
  161.3720  211.7720  157.1030 O   0  0  0  0  0  1  0  0  0  0  0  0
  161.2170  209.4070  155.3130 C   0  0  0  0  0  0  0  0  0  0  0  0
  160.5790  210.6640  155.0590 N   0  0  0  0  0  2  0  0  0  0  0  0
  162.4270  208.9110  148.2900 C   0  0  0  0  0  1  0  0  0  0  0  0
  161.2330  208.2500  148.6790 O   0  0  0  0  0  0  0  0  0  0  0  0
  1  4  1  0  0  0  0
  1  5  2  0  0  0  0
  2  3  1  0  0  0  0
  2 20  1  0  0  0  0
  4  2  2  0  0  0  0
  5  3  1  0  0  0  0
  6  1  1  1  0  0  0
  7  8  1  0  0  0  0
  8  6  1  0  0  0  0
  9  7  1  0  0  0  0
  9 12  1  0  0  0  0
 10 12  2  0  0  0  0
 11  6  1  0  0  0  0
 12 11  1  0  0  0  0
 13 17  2  0  0  0  0
 13 16  1  0  0  0  0
 14  5  1  0  0  0  0
 14 18  2  0  0  0  0
 15 18  1  0  0  0  0
 16 15  2  0  0  0  0
 17 14  1  0  0  0  0
 19 20  2  0  0  0  0
 20 21  1  0  0  0  0
 21 23  1  0  0  0  0
 23 22  1  1  0  0  0
 23 28  1  0  0  0  0
 24 27  1  0  0  0  0
 26 24  2  0  0  0  0
 28 25  2  0  0  0  0
 29 28  1  0  0  0  0
 29 24  1  0  0  0  0
 30 31  1  0  0  0  0
 31  4  1  0  0  0  0
M  END
>  <MODEL>
2

>  <REMARK>
 VINA RESULT:      -8.6      2.038      3.843
  Name = 
  7 active torsions:
  status: ('A' for Active; 'I' for Inactive)
    1  A    between atoms: C_4  and  C_5
    2  A    between atoms: C_9  and  C_15
    3  A    between atoms: C_9  and  C_23
    4  A    between atoms: C_12  and  C_27
    5  A    between atoms: C_19  and  C_22
    6  A    between atoms: C_21  and  O_29
    7  A    between atoms: C_22  and  C_23
                            x       y       z     vdW  Elec       q    Type
                         _______ _______ _______ _____ _____    ______ ____

>  <TORSDO>
F 7

$$$$
=
 OpenBabel11052422433D

 31 33  0  0  1  0  0  0  0  0999 V2000
  161.6600  205.9920  150.0280 C   0  0  0  0  0  0  0  0  0  0  0  0
  161.7410  208.1980  150.8490 C   0  0  0  0  0  0  0  0  0  0  0  0
  161.7220  208.3380  149.1730 S   0  0  0  0  0  0  0  0  0  0  0  0
  161.7230  206.8310  151.1620 C   0  0  0  0  0  0  0  0  0  0  0  0
  161.6670  206.6940  148.8130 C   0  0  0  0  0  0  0  0  0  0  0  0
  161.6160  204.4950  150.1210 C   0  0  1  0  0  3  0  0  0  0  0  0
  161.2290  202.5280  151.5800 C   0  0  0  0  0  2  0  0  0  0  0  0
  161.0420  204.0350  151.4580 C   0  0  0  0  0  2  0  0  0  0  0  0
  160.6390  201.8390  150.4370 N   0  0  0  0  0  2  0  0  0  0  0  0
  160.3020  201.7140  148.1380 O   0  0  0  0  0  0  0  0  0  0  0  0
  160.8480  203.8920  148.9440 C   0  0  0  0  0  2  0  0  0  0  0  0
  160.6110  202.4230  149.1300 C   0  0  0  0  0  0  0  0  0  0  0  0
  162.6070  204.8600  145.6170 C   0  0  0  0  0  3  0  0  0  0  0  0
  161.6220  206.1460  147.4340 C   0  0  0  0  0  0  0  0  0  0  0  0
  160.4430  205.8960  145.3190 C   0  0  0  0  0  3  0  0  0  0  0  0
  161.4930  205.1250  144.8170 C   0  0  0  0  0  3  0  0  0  0  0  0
  162.6690  205.3690  146.9180 C   0  0  0  0  0  3  0  0  0  0  0  0
  160.5080  206.4050  146.6190 C   0  0  0  0  0  3  0  0  0  0  0  0
  162.6510  210.1710  151.9280 C   0  0  0  0  0  2  0  0  0  0  0  0
  161.6240  209.3460  151.7700 C   0  0  0  0  0  0  0  0  0  0  0  0
  160.2980  209.7450  152.3510 C   0  0  0  0  0  2  0  0  0  0  0  0
  160.0480  209.9650  154.7440 O   0  0  0  0  0  1  0  0  0  0  0  0
  160.4100  210.6500  153.5810 C   0  0  2  0  0  3  0  0  0  0  0  0
  158.1690  213.3730  151.9540 C   0  0  0  0  0  0  0  0  0  0  0  0
  159.6380  212.7540  154.3790 O   0  0  0  0  0  0  0  0  0  0  0  0
  157.5720  213.4930  150.8540 O   0  0  0  0  0  0  0  0  0  0  0  0
  158.1040  214.4050  152.8840 O   0  0  0  0  0  1  0  0  0  0  0  0
  159.6240  211.9150  153.4390 C   0  0  0  0  0  0  0  0  0  0  0  0
  158.9040  212.1770  152.2290 N   0  0  0  0  0  2  0  0  0  0  0  0
  160.8720  206.6530  153.4840 C   0  0  0  0  0  1  0  0  0  0  0  0
  161.7830  206.2970  152.4550 O   0  0  0  0  0  0  0  0  0  0  0  0
  1  4  1  0  0  0  0
  2  4  2  0  0  0  0
  2 20  1  0  0  0  0
  3  2  1  0  0  0  0
  4 31  1  0  0  0  0
  5  3  1  0  0  0  0
  5  1  2  0  0  0  0
  6  1  1  1  0  0  0
  6  8  1  0  0  0  0
  8  7  1  0  0  0  0
  9  7  1  0  0  0  0
 10 12  2  0  0  0  0
 11 12  1  0  0  0  0
 11  6  1  0  0  0  0
 12  9  1  0  0  0  0
 13 17  1  0  0  0  0
 14  5  1  0  0  0  0
 15 18  2  0  0  0  0
 16 15  1  0  0  0  0
 16 13  2  0  0  0  0
 17 14  2  0  0  0  0
 18 14  1  0  0  0  0
 20 19  2  0  0  0  0
 20 21  1  0  0  0  0
 21 23  1  0  0  0  0
 23 22  1  1  0  0  0
 24 29  1  0  0  0  0
 24 27  1  0  0  0  0
 26 24  2  0  0  0  0
 28 23  1  0  0  0  0
 28 25  2  0  0  0  0
 29 28  1  0  0  0  0
 31 30  1  0  0  0  0
M  END
>  <MODEL>
3

>  <REMARK>
 VINA RESULT:      -8.5      1.260      1.565
  Name = 
  7 active torsions:
  status: ('A' for Active; 'I' for Inactive)
    1  A    between atoms: C_4  and  C_5
    2  A    between atoms: C_9  and  C_15
    3  A    between atoms: C_9  and  C_23
    4  A    between atoms: C_12  and  C_27
    5  A    between atoms: C_19  and  C_22
    6  A    between atoms: C_21  and  O_29
    7  A    between atoms: C_22  and  C_23
                            x       y       z     vdW  Elec       q    Type
                         _______ _______ _______ _____ _____    ______ ____

>  <TORSDO>
F 7

$$$$
=
 OpenBabel11052422433D

 31 33  0  0  1  0  0  0  0  0999 V2000
  161.1530  206.0920  149.2200 C   0  0  0  0  0  0  0  0  0  0  0  0
  161.1750  207.6270  151.0060 C   0  0  0  0  0  0  0  0  0  0  0  0
  161.0750  206.1070  151.7160 S   0  0  0  0  0  0  0  0  0  0  0  0
  161.1890  207.4470  149.6150 C   0  0  0  0  0  0  0  0  0  0  0  0
  161.0700  205.1980  150.2980 C   0  0  0  0  0  0  0  0  0  0  0  0
  161.1740  205.6590  147.7830 C   0  0  1  0  0  3  0  0  0  0  0  0
  160.3030  206.0520  145.4950 C   0  0  0  0  0  2  0  0  0  0  0  0
  160.4380  206.6530  146.8890 C   0  0  0  0  0  2  0  0  0  0  0  0
  161.6080  205.6670  144.9690 N   0  0  0  0  0  2  0  0  0  0  0  0
  163.6820  204.6680  145.3090 O   0  0  0  0  0  0  0  0  0  0  0  0
  162.6050  205.4230  147.3000 C   0  0  0  0  0  2  0  0  0  0  0  0
  162.6610  205.1980  145.8180 C   0  0  0  0  0  0  0  0  0  0  0  0
  161.1980  201.5460  151.3480 C   0  0  0  0  0  3  0  0  0  0  0  0
  161.0040  203.7150  150.2620 C   0  0  0  0  0  0  0  0  0  0  0  0
  160.6010  201.6680  149.0080 C   0  0  0  0  0  3  0  0  0  0  0  0
  160.8650  200.9090  150.1500 C   0  0  0  0  0  3  0  0  0  0  0  0
  161.2670  202.9400  151.4020 C   0  0  0  0  0  3  0  0  0  0  0  0
  160.6720  203.0630  149.0640 C   0  0  0  0  0  3  0  0  0  0  0  0
  162.4570  209.6180  151.5300 C   0  0  0  0  0  2  0  0  0  0  0  0
  161.3820  208.8760  151.7650 C   0  0  0  0  0  0  0  0  0  0  0  0
  160.2950  209.4540  152.6230 C   0  0  0  0  0  2  0  0  0  0  0  0
  160.6570  210.1380  154.9120 O   0  0  0  0  0  1  0  0  0  0  0  0
  160.7800  210.5460  153.5820 C   0  0  2  0  0  3  0  0  0  0  0  0
  159.0960  213.4910  151.6900 C   0  0  0  0  0  0  0  0  0  0  0  0
  159.8940  212.6200  154.3400 O   0  0  0  0  0  0  0  0  0  0  0  0
  158.7960  213.7230  150.4910 O   0  0  0  0  0  0  0  0  0  0  0  0
  158.8300  214.4530  152.6590 O   0  0  0  0  0  1  0  0  0  0  0  0
  160.0910  211.8560  153.3580 C   0  0  0  0  0  0  0  0  0  0  0  0
  159.7040  212.2440  152.0350 N   0  0  0  0  0  2  0  0  0  0  0  0
  162.3900  209.1970  148.3330 C   0  0  0  0  0  1  0  0  0  0  0  0
  161.2130  208.4770  148.6670 O   0  0  0  0  0  0  0  0  0  0  0  0
  1  4  1  0  0  0  0
  1  5  2  0  0  0  0
  2  3  1  0  0  0  0
  2 20  1  0  0  0  0
  4  2  2  0  0  0  0
  5  3  1  0  0  0  0
  6  1  1  1  0  0  0
  7  8  1  0  0  0  0
  8  6  1  0  0  0  0
  9  7  1  0  0  0  0
  9 12  1  0  0  0  0
 10 12  2  0  0  0  0
 11  6  1  0  0  0  0
 12 11  1  0  0  0  0
 13 17  1  0  0  0  0
 14  5  1  0  0  0  0
 14 17  2  0  0  0  0
 15 18  2  0  0  0  0
 15 16  1  0  0  0  0
 16 13  2  0  0  0  0
 18 14  1  0  0  0  0
 19 20  2  0  0  0  0
 20 21  1  0  0  0  0
 21 23  1  0  0  0  0
 23 22  1  1  0  0  0
 24 29  1  0  0  0  0
 24 27  1  0  0  0  0
 26 24  2  0  0  0  0
 28 23  1  0  0  0  0
 28 25  2  0  0  0  0
 29 28  1  0  0  0  0
 30 31  1  0  0  0  0
 31  4  1  0  0  0  0
M  END
>  <MODEL>
4

>  <REMARK>
 VINA RESULT:      -8.5      2.203      3.994
  Name = 
  7 active torsions:
  status: ('A' for Active; 'I' for Inactive)
    1  A    between atoms: C_4  and  C_5
    2  A    between atoms: C_9  and  C_15
    3  A    between atoms: C_9  and  C_23
    4  A    between atoms: C_12  and  C_27
    5  A    between atoms: C_19  and  C_22
    6  A    between atoms: C_21  and  O_29
    7  A    between atoms: C_22  and  C_23
                            x       y       z     vdW  Elec       q    Type
                         _______ _______ _______ _____ _____    ______ ____

>  <TORSDO>
F 7

$$$$
=
 OpenBabel11052422433D

 31 33  0  0  1  0  0  0  0  0999 V2000
  161.1230  205.9560  149.6330 C   0  0  0  0  0  0  0  0  0  0  0  0
  161.5540  208.1020  150.5010 C   0  0  0  0  0  0  0  0  0  0  0  0
  161.8100  208.2230  148.8440 S   0  0  0  0  0  0  0  0  0  0  0  0
  161.1970  206.7750  150.7810 C   0  0  0  0  0  0  0  0  0  0  0  0
  161.4580  206.6250  148.4460 C   0  0  0  0  0  0  0  0  0  0  0  0
  160.7450  204.5050  149.6880 C   0  0  1  0  0  3  0  0  0  0  0  0
  160.6080  202.3580  148.4540 C   0  0  0  0  0  2  0  0  0  0  0  0
  161.2090  203.7580  148.4410 C   0  0  0  0  0  2  0  0  0  0  0  0
  160.9420  201.6630  149.6940 N   0  0  0  0  0  2  0  0  0  0  0  0
  161.1530  201.7060  152.0110 O   0  0  0  0  0  0  0  0  0  0  0  0
  161.2720  203.8460  150.9640 C   0  0  0  0  0  2  0  0  0  0  0  0
  161.0900  202.3580  150.9370 C   0  0  0  0  0  0  0  0  0  0  0  0
  160.4600  205.6920  144.8980 C   0  0  0  0  0  3  0  0  0  0  0  0
  161.4980  206.0840  147.0650 C   0  0  0  0  0  0  0  0  0  0  0  0
  162.7150  204.9210  145.3060 C   0  0  0  0  0  3  0  0  0  0  0  0
  161.6180  205.0490  144.4530 C   0  0  0  0  0  3  0  0  0  0  0  0
  160.4030  206.2060  146.1960 C   0  0  0  0  0  3  0  0  0  0  0  0
  162.6550  205.4340  146.6050 C   0  0  0  0  0  3  0  0  0  0  0  0
  162.4060  210.2560  151.2220 C   0  0  0  0  0  2  0  0  0  0  0  0
  161.5520  209.2590  151.4180 C   0  0  0  0  0  0  0  0  0  0  0  0
  160.4540  209.4530  152.4230 C   0  0  0  0  0  2  0  0  0  0  0  0
  161.1780  210.4530  154.5000 O   0  0  0  0  0  1  0  0  0  0  0  0
  160.6000  210.7290  153.2590 C   0  0  2  0  0  3  0  0  0  0  0  0
  157.3260  211.9950  154.9210 C   0  0  0  0  0  0  0  0  0  0  0  0
  158.8370  212.1050  152.4470 O   0  0  0  0  0  0  0  0  0  0  0  0
  156.7960  211.8650  156.0540 O   0  0  0  0  0  1  0  0  0  0  0  0
  156.6670  212.7240  153.9370 O   0  0  0  0  0  0  0  0  0  0  0  0
  159.3050  211.4610  153.4230 C   0  0  0  0  0  0  0  0  0  0  0  0
  158.5960  211.3890  154.6650 N   0  0  0  0  0  2  0  0  0  0  0  0
  161.9330  206.2240  153.0830 C   0  0  0  0  0  1  0  0  0  0  0  0
  160.9510  206.2560  152.0580 O   0  0  0  0  0  0  0  0  0  0  0  0
  1  4  1  0  0  0  0
  2  4  2  0  0  0  0
  2 20  1  0  0  0  0
  3  2  1  0  0  0  0
  4 31  1  0  0  0  0
  5  3  1  0  0  0  0
  5  1  2  0  0  0  0
  6  1  1  6  0  0  0
  6 11  1  0  0  0  0
  7  9  1  0  0  0  0
  8  7  1  0  0  0  0
  8  6  1  0  0  0  0
  9 12  1  0  0  0  0
 12 11  1  0  0  0  0
 12 10  2  0  0  0  0
 13 17  1  0  0  0  0
 14  5  1  0  0  0  0
 15 18  2  0  0  0  0
 16 13  2  0  0  0  0
 16 15  1  0  0  0  0
 17 14  2  0  0  0  0
 18 14  1  0  0  0  0
 19 20  2  0  0  0  0
 20 21  1  0  0  0  0
 21 23  1  0  0  0  0
 23 28  1  0  0  0  0
 23 22  1  1  0  0  0
 24 26  1  0  0  0  0
 25 28  2  0  0  0  0
 27 24  2  0  0  0  0
 28 29  1  0  0  0  0
 29 24  1  0  0  0  0
 31 30  1  0  0  0  0
M  END
>  <MODEL>
5

>  <REMARK>
 VINA RESULT:      -8.2      1.370      2.148
  Name = 
  7 active torsions:
  status: ('A' for Active; 'I' for Inactive)
    1  A    between atoms: C_4  and  C_5
    2  A    between atoms: C_9  and  C_15
    3  A    between atoms: C_9  and  C_23
    4  A    between atoms: C_12  and  C_27
    5  A    between atoms: C_19  and  C_22
    6  A    between atoms: C_21  and  O_29
    7  A    between atoms: C_22  and  C_23
                            x       y       z     vdW  Elec       q    Type
                         _______ _______ _______ _____ _____    ______ ____

>  <TORSDO>
F 7

$$$$
=
 OpenBabel11052422433D

 31 33  0  0  1  0  0  0  0  0999 V2000
  161.6100  205.7870  149.9730 C   0  0  0  0  0  0  0  0  0  0  0  0
  161.6370  207.9540  150.8950 C   0  0  0  0  0  0  0  0  0  0  0  0
  161.6170  208.1700  149.2280 S   0  0  0  0  0  0  0  0  0  0  0  0
  161.6510  206.5740  151.1450 C   0  0  0  0  0  0  0  0  0  0  0  0
  161.6030  206.5440  148.7920 C   0  0  0  0  0  0  0  0  0  0  0  0
  161.6020  204.2860  149.9970 C   0  0  1  0  0  3  0  0  0  0  0  0
  161.2010  202.2450  151.3460 C   0  0  0  0  0  2  0  0  0  0  0  0
  160.9800  203.7510  151.2840 C   0  0  0  0  0  2  0  0  0  0  0  0
  160.6820  201.5950  150.1470 N   0  0  0  0  0  2  0  0  0  0  0  0
  160.4540  201.5680  147.8310 O   0  0  0  0  0  0  0  0  0  0  0  0
  160.9050  203.7190  148.7590 C   0  0  0  0  0  2  0  0  0  0  0  0
  160.6990  202.2380  148.8670 C   0  0  0  0  0  0  0  0  0  0  0  0
  160.4400  205.7900  145.2510 C   0  0  0  0  0  3  0  0  0  0  0  0
  161.5720  206.0600  147.3890 C   0  0  0  0  0  0  0  0  0  0  0  0
  162.6830  204.9340  145.5380 C   0  0  0  0  0  3  0  0  0  0  0  0
  161.5580  205.1310  144.7350 C   0  0  0  0  0  3  0  0  0  0  0  0
  160.4490  206.2510  146.5700 C   0  0  0  0  0  3  0  0  0  0  0  0
  162.6890  205.3950  146.8580 C   0  0  0  0  0  3  0  0  0  0  0  0
  162.4920  209.9060  152.0540 C   0  0  0  0  0  2  0  0  0  0  0  0
  161.4910  209.0540  151.8680 C   0  0  0  0  0  0  0  0  0  0  0  0
  160.1590  209.3820  152.4780 C   0  0  0  0  0  2  0  0  0  0  0  0
  160.8230  211.6240  153.0850 O   0  0  0  0  0  1  0  0  0  0  0  0
  160.2250  210.4570  153.5670 C   0  0  2  0  0  3  0  0  0  0  0  0
  162.7670  210.3420  156.5020 C   0  0  0  0  0  0  0  0  0  0  0  0
  160.5390  208.8950  155.3340 O   0  0  0  0  0  0  0  0  0  0  0  0
  163.7030  211.0820  156.8980 O   0  0  0  0  0  0  0  0  0  0  0  0
  162.4950  209.1600  157.1830 O   0  0  0  0  0  1  0  0  0  0  0  0
  160.9100  209.9780  154.8080 C   0  0  0  0  0  0  0  0  0  0  0  0
  162.0000  210.7280  155.3580 N   0  0  0  0  0  2  0  0  0  0  0  0
  160.8220  206.2940  153.4650 C   0  0  0  0  0  1  0  0  0  0  0  0
  161.7220  205.9820  152.4120 O   0  0  0  0  0  0  0  0  0  0  0  0
  1  4  1  0  0  0  0
  2  4  2  0  0  0  0
  2 20  1  0  0  0  0
  3  2  1  0  0  0  0
  4 31  1  0  0  0  0
  5  3  1  0  0  0  0
  5  1  2  0  0  0  0
  6  1  1  1  0  0  0
  6  8  1  0  0  0  0
  8  7  1  0  0  0  0
  9  7  1  0  0  0  0
 10 12  2  0  0  0  0
 11 12  1  0  0  0  0
 11  6  1  0  0  0  0
 12  9  1  0  0  0  0
 13 17  1  0  0  0  0
 14  5  1  0  0  0  0
 15 18  2  0  0  0  0
 16 13  2  0  0  0  0
 16 15  1  0  0  0  0
 17 14  2  0  0  0  0
 18 14  1  0  0  0  0
 20 19  2  0  0  0  0
 20 21  1  0  0  0  0
 21 23  1  0  0  0  0
 23 22  1  6  0  0  0
 23 28  1  0  0  0  0
 24 26  2  0  0  0  0
 24 27  1  0  0  0  0
 28 25  2  0  0  0  0
 28 29  1  0  0  0  0
 29 24  1  0  0  0  0
 31 30  1  0  0  0  0
M  END
>  <MODEL>
6

>  <REMARK>
 VINA RESULT:      -7.7      1.234      2.126
  Name = 
  7 active torsions:
  status: ('A' for Active; 'I' for Inactive)
    1  A    between atoms: C_4  and  C_5
    2  A    between atoms: C_9  and  C_15
    3  A    between atoms: C_9  and  C_23
    4  A    between atoms: C_12  and  C_27
    5  A    between atoms: C_19  and  C_22
    6  A    between atoms: C_21  and  O_29
    7  A    between atoms: C_22  and  C_23
                            x       y       z     vdW  Elec       q    Type
                         _______ _______ _______ _____ _____    ______ ____

>  <TORSDO>
F 7

$$$$
=
 OpenBabel11052422433D

 31 33  0  0  1  0  0  0  0  0999 V2000
  161.8380  206.4870  149.0600 C   0  0  0  0  0  0  0  0  0  0  0  0
  161.5820  207.8440  150.9670 C   0  0  0  0  0  0  0  0  0  0  0  0
  161.0810  206.3080  151.4320 S   0  0  0  0  0  0  0  0  0  0  0  0
  161.9520  207.7800  149.6160 C   0  0  0  0  0  0  0  0  0  0  0  0
  161.3400  205.5330  149.9600 C   0  0  0  0  0  0  0  0  0  0  0  0
  162.1940  206.1770  147.6350 C   0  0  1  0  0  3  0  0  0  0  0  0
  163.4610  204.7000  146.0980 C   0  0  0  0  0  2  0  0  0  0  0  0
  162.9380  204.8490  147.5210 C   0  0  0  0  0  2  0  0  0  0  0  0
  162.3760  204.8320  145.1310 N   0  0  0  0  0  2  0  0  0  0  0  0
  160.4620  205.9480  144.4190 O   0  0  0  0  0  0  0  0  0  0  0  0
  160.9550  206.2030  146.7390 C   0  0  0  0  0  2  0  0  0  0  0  0
  161.2530  205.6900  145.3620 C   0  0  0  0  0  0  0  0  0  0  0  0
  160.5820  202.2310  148.2350 C   0  0  0  0  0  3  0  0  0  0  0  0
  161.0820  204.0910  149.7230 C   0  0  0  0  0  0  0  0  0  0  0  0
  160.8630  201.8310  150.6030 C   0  0  0  0  0  3  0  0  0  0  0  0
  160.6030  201.3500  149.3180 C   0  0  0  0  0  3  0  0  0  0  0  0
  160.8200  203.5930  148.4380 C   0  0  0  0  0  3  0  0  0  0  0  0
  161.1000  203.1950  150.8040 C   0  0  0  0  0  3  0  0  0  0  0  0
  162.5760  209.9630  151.6040 C   0  0  0  0  0  2  0  0  0  0  0  0
  161.7430  208.9740  151.9030 C   0  0  0  0  0  0  0  0  0  0  0  0
  160.8160  209.1570  153.0690 C   0  0  0  0  0  2  0  0  0  0  0  0
  161.5780  209.2850  155.3590 O   0  0  0  0  0  1  0  0  0  0  0  0
  161.3950  210.0260  154.1890 C   0  0  2  0  0  3  0  0  0  0  0  0
  158.8860  212.9240  153.5640 C   0  0  0  0  0  0  0  0  0  0  0  0
  160.7110  211.8540  155.5500 O   0  0  0  0  0  0  0  0  0  0  0  0
  158.1300  213.2570  152.6150 O   0  0  0  0  0  0  0  0  0  0  0  0
  158.9400  213.7160  154.7050 O   0  0  0  0  0  1  0  0  0  0  0  0
  160.5740  211.2480  154.4540 C   0  0  0  0  0  0  0  0  0  0  0  0
  159.6770  211.7380  153.4500 N   0  0  0  0  0  2  0  0  0  0  0  0
  161.4860  209.8240  148.2920 C   0  0  0  0  0  1  0  0  0  0  0  0
  162.3780  208.8660  148.8420 O   0  0  0  0  0  0  0  0  0  0  0  0
  1  4  1  0  0  0  0
  1  5  2  0  0  0  0
  2  3  1  0  0  0  0
  2 20  1  0  0  0  0
  4  2  2  0  0  0  0
  5  3  1  0  0  0  0
  6  1  1  1  0  0  0
  7  8  1  0  0  0  0
  8  6  1  0  0  0  0
  9 12  1  0  0  0  0
  9  7  1  0  0  0  0
 10 12  2  0  0  0  0
 11  6  1  0  0  0  0
 12 11  1  0  0  0  0
 13 17  2  0  0  0  0
 13 16  1  0  0  0  0
 14  5  1  0  0  0  0
 14 18  2  0  0  0  0
 15 18  1  0  0  0  0
 16 15  2  0  0  0  0
 17 14  1  0  0  0  0
 19 20  2  0  0  0  0
 20 21  1  0  0  0  0
 21 23  1  0  0  0  0
 23 28  1  0  0  0  0
 23 22  1  1  0  0  0
 24 27  1  0  0  0  0
 26 24  2  0  0  0  0
 28 25  2  0  0  0  0
 29 24  1  0  0  0  0
 29 28  1  0  0  0  0
 30 31  1  0  0  0  0
 31  4  1  0  0  0  0
M  END
>  <MODEL>
7

>  <REMARK>
 VINA RESULT:      -7.5      1.996      3.623
  Name = 
  7 active torsions:
  status: ('A' for Active; 'I' for Inactive)
    1  A    between atoms: C_4  and  C_5
    2  A    between atoms: C_9  and  C_15
    3  A    between atoms: C_9  and  C_23
    4  A    between atoms: C_12  and  C_27
    5  A    between atoms: C_19  and  C_22
    6  A    between atoms: C_21  and  O_29
    7  A    between atoms: C_22  and  C_23
                            x       y       z     vdW  Elec       q    Type
                         _______ _______ _______ _____ _____    ______ ____

>  <TORSDO>
F 7

$$$$
=
 OpenBabel11052422433D

 31 33  0  0  1  0  0  0  0  0999 V2000
  161.0470  210.1180  151.5210 C   0  0  0  0  0  0  0  0  0  0  0  0
  161.4710  207.8820  150.9160 C   0  0  0  0  0  0  0  0  0  0  0  0
  161.9550  208.8090  149.5990 S   0  0  0  0  0  0  0  0  0  0  0  0
  160.9720  208.7570  151.8910 C   0  0  0  0  0  0  0  0  0  0  0  0
  161.5700  210.3190  150.2350 C   0  0  0  0  0  0  0  0  0  0  0  0
  160.5850  211.2330  152.4130 C   0  0  1  0  0  3  0  0  0  0  0  0
  158.7080  212.7200  153.0560 C   0  0  0  0  0  2  0  0  0  0  0  0
  159.0780  211.4450  152.3080 C   0  0  0  0  0  2  0  0  0  0  0  0
  159.1830  212.6670  154.4350 N   0  0  0  0  0  2  0  0  0  0  0  0
  160.8790  212.1520  155.9440 O   0  0  0  0  0  0  0  0  0  0  0  0
  161.0180  210.9970  153.8610 C   0  0  0  0  0  2  0  0  0  0  0  0
  160.3890  211.9850  154.7970 C   0  0  0  0  0  0  0  0  0  0  0  0
  161.1510  213.9010  149.0290 C   0  0  0  0  0  3  0  0  0  0  0  0
  161.7840  211.6020  149.5190 C   0  0  0  0  0  0  0  0  0  0  0  0
  163.0830  212.9300  147.9470 C   0  0  0  0  0  3  0  0  0  0  0  0
  162.2280  214.0150  148.1460 C   0  0  0  0  0  3  0  0  0  0  0  0
  160.9320  212.7000  149.7110 C   0  0  0  0  0  3  0  0  0  0  0  0
  162.8610  211.7300  148.6290 C   0  0  0  0  0  3  0  0  0  0  0  0
  162.5720  205.9770  151.9370 C   0  0  0  0  0  2  0  0  0  0  0  0
  161.7140  206.4310  151.0320 C   0  0  0  0  0  0  0  0  0  0  0  0
  160.8420  205.4370  150.3210 C   0  0  0  0  0  2  0  0  0  0  0  0
  160.4340  205.9650  147.9980 O   0  0  0  0  0  1  0  0  0  0  0  0
  161.2330  205.2070  148.8570 C   0  0  2  0  0  3  0  0  0  0  0  0
  160.8280  201.3600  149.2100 C   0  0  0  0  0  0  0  0  0  0  0  0
  161.5560  203.4290  147.3100 O   0  0  0  0  0  0  0  0  0  0  0  0
  160.4770  200.5840  150.1350 O   0  0  0  0  0  1  0  0  0  0  0  0
  161.2070  200.8320  147.9810 O   0  0  0  0  0  0  0  0  0  0  0  0
  161.2090  203.7610  148.4750 C   0  0  0  0  0  0  0  0  0  0  0  0
  160.8330  202.7720  149.4410 N   0  0  0  0  0  2  0  0  0  0  0  0
  161.2040  207.8990  154.2060 C   0  0  0  0  0  1  0  0  0  0  0  0
  160.4210  208.3690  153.1190 O   0  0  0  0  0  0  0  0  0  0  0  0
  1  4  1  0  0  0  0
  2 20  1  0  0  0  0
  2  4  2  0  0  0  0
  3  5  1  0  0  0  0
  3  2  1  0  0  0  0
  4 31  1  0  0  0  0
  5  1  2  0  0  0  0
  6  1  1  6  0  0  0
  6 11  1  0  0  0  0
  7  9  1  0  0  0  0
  8  6  1  0  0  0  0
  8  7  1  0  0  0  0
  9 12  1  0  0  0  0
 11 12  1  0  0  0  0
 12 10  2  0  0  0  0
 13 17  1  0  0  0  0
 14 17  2  0  0  0  0
 14  5  1  0  0  0  0
 15 16  1  0  0  0  0
 15 18  2  0  0  0  0
 16 13  2  0  0  0  0
 18 14  1  0  0  0  0
 20 19  2  0  0  0  0
 21 20  1  0  0  0  0
 23 22  1  6  0  0  0
 23 21  1  0  0  0  0
 24 29  1  0  0  0  0
 24 26  1  0  0  0  0
 25 28  2  0  0  0  0
 27 24  2  0  0  0  0
 28 23  1  0  0  0  0
 28 29  1  0  0  0  0
 31 30  1  0  0  0  0
M  END
>  <MODEL>
8

>  <REMARK>
 VINA RESULT:      -7.4      2.256      8.523
  Name = 
  7 active torsions:
  status: ('A' for Active; 'I' for Inactive)
    1  A    between atoms: C_4  and  C_5
    2  A    between atoms: C_9  and  C_15
    3  A    between atoms: C_9  and  C_23
    4  A    between atoms: C_12  and  C_27
    5  A    between atoms: C_19  and  C_22
    6  A    between atoms: C_21  and  O_29
    7  A    between atoms: C_22  and  C_23
                            x       y       z     vdW  Elec       q    Type
                         _______ _______ _______ _____ _____    ______ ____

>  <TORSDO>
F 7

$$$$
=
 OpenBabel11052422433D

 31 33  0  0  1  0  0  0  0  0999 V2000
  161.5350  208.1810  150.4150 C   0  0  0  0  0  0  0  0  0  0  0  0
  161.9850  210.0580  149.0660 C   0  0  0  0  0  0  0  0  0  0  0  0
  161.9620  208.7420  148.0200 S   0  0  0  0  0  0  0  0  0  0  0  0
  161.7500  209.5760  150.3620 C   0  0  0  0  0  0  0  0  0  0  0  0
  161.6370  207.5520  149.1650 C   0  0  0  0  0  0  0  0  0  0  0  0
  161.2510  207.4470  151.6930 C   0  0  1  0  0  3  0  0  0  0  0  0
  161.9510  205.6320  153.2310 C   0  0  0  0  0  2  0  0  0  0  0  0
  162.3920  206.5030  152.0610 C   0  0  0  0  0  2  0  0  0  0  0  0
  161.5070  206.4570  154.3510 N   0  0  0  0  0  2  0  0  0  0  0  0
  160.2990  208.2880  155.1250 O   0  0  0  0  0  0  0  0  0  0  0  0
  160.9390  208.4200  152.8310 C   0  0  0  0  0  2  0  0  0  0  0  0
  160.8630  207.7200  154.1550 C   0  0  0  0  0  0  0  0  0  0  0  0
  160.6730  203.8810  149.3920 C   0  0  0  0  0  3  0  0  0  0  0  0
  161.4820  206.1110  148.8450 C   0  0  0  0  0  0  0  0  0  0  0  0
  161.8760  204.2490  147.3270 C   0  0  0  0  0  3  0  0  0  0  0  0
  161.2060  203.3880  148.1980 C   0  0  0  0  0  3  0  0  0  0  0  0
  160.8110  205.2340  149.7120 C   0  0  0  0  0  3  0  0  0  0  0  0
  162.0140  205.6020  147.6500 C   0  0  0  0  0  3  0  0  0  0  0  0
  163.2430  211.9730  148.2710 C   0  0  0  0  0  2  0  0  0  0  0  0
  162.0680  211.4620  148.6180 C   0  0  0  0  0  0  0  0  0  0  0  0
  160.8320  212.2570  148.3150 C   0  0  0  0  0  2  0  0  0  0  0  0
  160.2710  214.4530  147.4770 O   0  0  0  0  0  1  0  0  0  0  0  0
  161.0260  213.3080  147.2170 C   0  0  2  0  0  3  0  0  0  0  0  0
  161.4990  212.5260  143.4420 C   0  0  0  0  0  0  0  0  0  0  0  0
  159.6260  212.2130  145.6350 O   0  0  0  0  0  0  0  0  0  0  0  0
  162.4130  212.7230  142.6000 O   0  0  0  0  0  0  0  0  0  0  0  0
  160.3200  211.9100  143.0390 O   0  0  0  0  0  1  0  0  0  0  0  0
  160.7340  212.7730  145.8500 C   0  0  0  0  0  0  0  0  0  0  0  0
  161.6910  212.9400  144.7970 N   0  0  0  0  0  2  0  0  0  0  0  0
  160.6810  211.2330  151.8640 C   0  0  0  0  0  1  0  0  0  0  0  0
  161.7430  210.3550  151.5260 O   0  0  0  0  0  0  0  0  0  0  0  0
  2  4  2  0  0  0  0
  3  2  1  0  0  0  0
  3  5  1  0  0  0  0
  4  1  1  0  0  0  0
  4 31  1  0  0  0  0
  5  1  2  0  0  0  0
  6  1  1  6  0  0  0
  6  8  1  0  0  0  0
  6 11  1  0  0  0  0
  7  9  1  0  0  0  0
  8  7  1  0  0  0  0
 11 12  1  0  0  0  0
 12  9  1  0  0  0  0
 12 10  2  0  0  0  0
 13 17  1  0  0  0  0
 14  5  1  0  0  0  0
 14 17  2  0  0  0  0
 15 18  2  0  0  0  0
 15 16  1  0  0  0  0
 16 13  2  0  0  0  0
 18 14  1  0  0  0  0
 19 20  2  0  0  0  0
 20  2  1  0  0  0  0
 21 20  1  0  0  0  0
 23 22  1  1  0  0  0
 23 21  1  0  0  0  0
 24 29  1  0  0  0  0
 25 28  2  0  0  0  0
 26 24  2  0  0  0  0
 27 24  1  0  0  0  0
 28 23  1  0  0  0  0
 29 28  1  0  0  0  0
 31 30  1  0  0  0  0
M  END
>  <MODEL>
9

>  <REMARK>
 VINA RESULT:      -7.3      4.689      6.705
  Name = 
  7 active torsions:
  status: ('A' for Active; 'I' for Inactive)
    1  A    between atoms: C_4  and  C_5
    2  A    between atoms: C_9  and  C_15
    3  A    between atoms: C_9  and  C_23
    4  A    between atoms: C_12  and  C_27
    5  A    between atoms: C_19  and  C_22
    6  A    between atoms: C_21  and  O_29
    7  A    between atoms: C_22  and  C_23
                            x       y       z     vdW  Elec       q    Type
                         _______ _______ _______ _____ _____    ______ ____

>  <TORSDO>
F 7

$$$$
