=
 OpenBabel11052423063D

 27 31  0  0  1  0  0  0  0  0999 V2000
  163.2870  206.5080  148.3640 N   0  0  0  0  0  2  0  0  0  0  0  0
  160.9980  205.7230  149.7020 C   0  0  0  0  0  0  0  0  0  0  0  0
  162.4380  205.5140  147.6830 C   0  0  1  0  0  3  0  0  0  0  0  0
  160.4930  200.9530  149.8260 C   0  0  0  0  0  3  0  0  0  0  0  0
  162.0290  200.0800  148.2560 O   0  0  0  0  0  0  0  0  0  0  0  0
  160.0950  204.8040  150.7890 S   0  0  0  0  0  0  0  0  0  0  0  0
  161.6070  202.4230  147.9790 C   0  0  1  0  0  3  0  0  0  0  0  0
  160.8420  202.3840  146.6700 C   0  0  0  0  0  1  0  0  0  0  0  0
  161.1240  203.5730  148.8320 C   0  0  0  0  0  0  0  0  0  0  0  0
  161.4900  207.0500  149.9120 N   0  0  0  0  0  0  0  0  0  0  0  0
  161.4190  201.0960  148.6800 C   0  0  0  0  0  0  0  0  0  0  0  0
  159.9670  202.0220  150.4270 C   0  0  0  0  0  3  0  0  0  0  0  0
  162.4720  207.5870  148.9590 C   0  0  0  0  0  2  0  0  0  0  0  0
  161.4870  204.9240  148.6870 C   0  0  0  0  0  0  0  0  0  0  0  0
  160.3220  203.3600  149.9500 C   0  0  0  0  0  0  0  0  0  0  0  0
  162.2430  210.3030  153.6640 C   0  0  0  0  0  1  0  0  0  0  0  0
  160.8640  207.9160  150.9060 C   0  0  2  0  0  3  0  0  0  0  0  0
  161.7530  209.5160  151.0100 S   0  0  0  0  0  0  0  0  0  0  0  0
  161.9950  209.2260  152.7260 N   0  0  0  0  0  0  0  0  0  0  0  0
  161.4640  207.9840  153.1430 C   0  0  0  0  0  3  0  0  0  0  0  0
  160.8960  207.2860  152.2220 N   0  0  0  0  0  0  0  0  0  0  0  0
  159.8260  205.9720  145.0220 N   0  0  0  0  0  2  0  0  0  0  0  0
  161.0510  206.0420  144.2280 C   0  0  0  0  0  2  0  0  0  0  0  0
  160.2240  205.9080  146.4250 C   0  0  0  0  0  2  0  0  0  0  0  0
  162.5270  204.3420  145.0940 N   0  0  0  0  0  1  0  0  0  0  0  0
  162.2280  205.7670  145.1350 C   0  0  2  0  0  3  0  0  0  0  0  0
  161.7080  206.1790  146.4950 C   0  0  2  0  0  3  0  0  0  0  0  0
  1 13  1  0  0  0  0
  2 10  1  0  0  0  0
  2  6  1  0  0  0  0
  3  1  1  1  0  0  0
  3 14  1  0  0  0  0
  4 12  2  0  0  0  0
  5 11  2  0  0  0  0
  7  8  1  6  0  0  0
  7 11  1  0  0  0  0
  7  9  1  0  0  0  0
  9 15  2  0  0  0  0
 11  4  1  0  0  0  0
 13 10  1  0  0  0  0
 14  9  1  0  0  0  0
 14  2  2  0  0  0  0
 15 12  1  0  0  0  0
 15  6  1  0  0  0  0
 17 10  1  6  0  0  0
 17 18  1  0  0  0  0
 17 21  1  0  0  0  0
 18 19  1  0  0  0  0
 19 20  1  0  0  0  0
 19 16  1  0  0  0  0
 21 20  2  0  0  0  0
 22 24  1  0  0  0  0
 23 22  1  0  0  0  0
 23 26  1  0  0  0  0
 26 25  1  1  0  0  0
 26 27  1  0  0  0  0
 27 24  1  6  0  0  0
 27  3  1  0  0  0  0
M  END
>  <MODEL>
1

>  <REMARK>
 VINA RESULT:      -6.0      0.000      0.000
  Name = 
  2 active torsions:
  status: ('A' for Active; 'I' for Inactive)
    1  A    between atoms: C_3  and  C_26
    2  A    between atoms: C_9  and  N_15
                            x       y       z     vdW  Elec       q    Type
                         _______ _______ _______ _____ _____    ______ ____

>  <TORSDO>
F 2

$$$$
=
 OpenBabel11052423063D

 27 31  0  0  1  0  0  0  0  0999 V2000
  158.5800  211.3140  152.7270 N   0  0  0  0  0  2  0  0  0  0  0  0
  161.0030  210.8480  151.4800 C   0  0  0  0  0  0  0  0  0  0  0  0
  159.5510  210.4900  153.4680 C   0  0  1  0  0  3  0  0  0  0  0  0
  162.2460  206.2140  151.5610 C   0  0  0  0  0  3  0  0  0  0  0  0
  160.8160  205.1700  153.1270 O   0  0  0  0  0  0  0  0  0  0  0  0
  162.0710  210.0430  150.4540 S   0  0  0  0  0  0  0  0  0  0  0  0
  160.8610  207.5580  153.3180 C   0  0  1  0  0  3  0  0  0  0  0  0
  161.5810  207.6860  154.6470 C   0  0  0  0  0  1  0  0  0  0  0  0
  161.1850  208.7380  152.4320 C   0  0  0  0  0  0  0  0  0  0  0  0
  160.3180  212.0730  151.2040 N   0  0  0  0  0  0  0  0  0  0  0  0
  161.2730  206.2520  152.6770 C   0  0  0  0  0  0  0  0  0  0  0  0
  162.6180  207.3300  150.9310 C   0  0  0  0  0  3  0  0  0  0  0  0
  159.2350  212.4850  152.1090 C   0  0  0  0  0  2  0  0  0  0  0  0
  160.6120  210.0190  152.5130 C   0  0  0  0  0  0  0  0  0  0  0  0
  162.0450  208.6120  151.3440 C   0  0  0  0  0  0  0  0  0  0  0  0
  159.3800  214.4530  146.8810 C   0  0  0  0  0  1  0  0  0  0  0  0
  160.8320  212.9900  150.1910 C   0  0  2  0  0  3  0  0  0  0  0  0
  159.5270  214.1690  149.6740 S   0  0  0  0  0  0  0  0  0  0  0  0
  159.7530  213.6330  148.0160 N   0  0  0  0  0  0  0  0  0  0  0  0
  160.7230  212.6110  147.9080 C   0  0  0  0  0  3  0  0  0  0  0  0
  161.2760  212.2510  149.0140 N   0  0  0  0  0  0  0  0  0  0  0  0
  161.7860  211.2770  156.3840 N   0  0  0  0  0  2  0  0  0  0  0  0
  160.4660  211.4730  156.9810 C   0  0  0  0  0  2  0  0  0  0  0  0
  161.5820  211.0250  154.9610 C   0  0  0  0  0  2  0  0  0  0  0  0
  159.0690  209.6880  156.1530 N   0  0  0  0  0  1  0  0  0  0  0  0
  159.4160  211.0890  155.9630 C   0  0  2  0  0  3  0  0  0  0  0  0
  160.1310  211.3030  154.6460 C   0  0  2  0  0  3  0  0  0  0  0  0
  1  3  1  0  0  0  0
  2 14  2  0  0  0  0
  3 14  1  6  0  0  0
  3 27  1  0  0  0  0
  4 11  1  0  0  0  0
  6 15  1  0  0  0  0
  6  2  1  0  0  0  0
  7  8  1  1  0  0  0
  9 14  1  0  0  0  0
  9  7  1  0  0  0  0
 10  2  1  0  0  0  0
 10 13  1  0  0  0  0
 11  5  2  0  0  0  0
 11  7  1  0  0  0  0
 12 15  1  0  0  0  0
 12  4  2  0  0  0  0
 13  1  1  0  0  0  0
 15  9  2  0  0  0  0
 16 19  1  0  0  0  0
 17 10  1  1  0  0  0
 18 17  1  0  0  0  0
 19 18  1  0  0  0  0
 20 19  1  0  0  0  0
 20 21  2  0  0  0  0
 21 17  1  0  0  0  0
 22 23  1  0  0  0  0
 24 22  1  0  0  0  0
 26 25  1  1  0  0  0
 26 23  1  0  0  0  0
 27 24  1  1  0  0  0
 27 26  1  0  0  0  0
M  END
>  <MODEL>
2

>  <REMARK>
 VINA RESULT:      -5.9      5.040      8.191
  Name = 
  2 active torsions:
  status: ('A' for Active; 'I' for Inactive)
    1  A    between atoms: C_3  and  C_26
    2  A    between atoms: C_9  and  N_15
                            x       y       z     vdW  Elec       q    Type
                         _______ _______ _______ _____ _____    ______ ____

>  <TORSDO>
F 2

$$$$
=
 OpenBabel11052423063D

 27 31  0  0  1  0  0  0  0  0999 V2000
  162.5440  210.0980  151.2310 N   0  0  0  0  0  2  0  0  0  0  0  0
  160.3690  211.0330  152.6590 C   0  0  0  0  0  0  0  0  0  0  0  0
  161.7710  209.0930  151.9810 C   0  0  1  0  0  3  0  0  0  0  0  0
  160.2960  209.3960  157.1690 C   0  0  0  0  0  3  0  0  0  0  0  0
  161.8640  207.6300  157.2610 O   0  0  0  0  0  0  0  0  0  0  0  0
  159.5800  211.6990  153.9910 S   0  0  0  0  0  0  0  0  0  0  0  0
  161.2270  208.2270  155.0290 C   0  0  1  0  0  3  0  0  0  0  0  0
  160.4370  206.9880  154.6570 C   0  0  0  0  0  1  0  0  0  0  0  0
  160.6650  209.4370  154.3200 C   0  0  0  0  0  0  0  0  0  0  0  0
  160.7460  211.7200  151.4620 N   0  0  0  0  0  0  0  0  0  0  0  0
  161.1770  208.3910  156.5320 C   0  0  0  0  0  0  0  0  0  0  0  0
  159.6920  210.3420  156.4470 C   0  0  0  0  0  3  0  0  0  0  0  0
  161.6520  211.0400  150.5250 C   0  0  0  0  0  2  0  0  0  0  0  0
  160.9030  209.8010  152.9830 C   0  0  0  0  0  0  0  0  0  0  0  0
  159.9140  210.3920  155.0010 C   0  0  0  0  0  0  0  0  0  0  0  0
  156.9380  213.7670  148.9050 C   0  0  0  0  0  1  0  0  0  0  0  0
  160.0710  212.9560  151.0810 C   0  0  2  0  0  3  0  0  0  0  0  0
  158.2510  212.7450  151.1710 S   0  0  0  0  0  0  0  0  0  0  0  0
  158.1510  213.2250  149.4830 N   0  0  0  0  0  0  0  0  0  0  0  0
  159.4220  213.4790  148.9190 C   0  0  0  0  0  3  0  0  0  0  0  0
  160.4230  213.3290  149.7150 N   0  0  0  0  0  0  0  0  0  0  0  0
  160.5030  205.9630  150.3340 N   0  0  0  0  0  2  0  0  0  0  0  0
  160.9760  206.7180  149.1750 C   0  0  0  0  0  2  0  0  0  0  0  0
  160.6230  206.8370  151.4970 C   0  0  0  0  0  2  0  0  0  0  0  0
  163.0570  207.7460  149.8320 N   0  0  0  0  0  1  0  0  0  0  0  0
  161.6320  207.9890  149.6650 C   0  0  2  0  0  3  0  0  0  0  0  0
  160.9550  208.2240  150.9980 C   0  0  2  0  0  3  0  0  0  0  0  0
  2 14  2  0  0  0  0
  2  6  1  0  0  0  0
  3  1  1  6  0  0  0
  3 14  1  0  0  0  0
  6 15  1  0  0  0  0
  7  8  1  1  0  0  0
  7 11  1  0  0  0  0
  9 15  2  0  0  0  0
  9  7  1  0  0  0  0
 10  2  1  0  0  0  0
 11  4  1  0  0  0  0
 11  5  2  0  0  0  0
 12  4  2  0  0  0  0
 13  1  1  0  0  0  0
 13 10  1  0  0  0  0
 14  9  1  0  0  0  0
 15 12  1  0  0  0  0
 16 19  1  0  0  0  0
 17 18  1  0  0  0  0
 17 10  1  6  0  0  0
 19 18  1  0  0  0  0
 20 19  1  0  0  0  0
 20 21  2  0  0  0  0
 21 17  1  0  0  0  0
 22 24  1  0  0  0  0
 23 26  1  0  0  0  0
 23 22  1  0  0  0  0
 26 25  1  1  0  0  0
 26 27  1  0  0  0  0
 27 24  1  1  0  0  0
 27  3  1  0  0  0  0
M  END
>  <MODEL>
3

>  <REMARK>
 VINA RESULT:      -4.4      4.424      7.296
  Name = 
  2 active torsions:
  status: ('A' for Active; 'I' for Inactive)
    1  A    between atoms: C_3  and  C_26
    2  A    between atoms: C_9  and  N_15
                            x       y       z     vdW  Elec       q    Type
                         _______ _______ _______ _____ _____    ______ ____

>  <TORSDO>
F 2

$$$$
=
 OpenBabel11052423063D

 27 31  0  0  1  0  0  0  0  0999 V2000
  162.8160  210.0200  149.9660 N   0  0  0  0  0  2  0  0  0  0  0  0
  160.7760  211.4610  151.1500 C   0  0  0  0  0  0  0  0  0  0  0  0
  162.0130  209.3090  150.9770 C   0  0  1  0  0  3  0  0  0  0  0  0
  160.8000  211.0810  155.9340 C   0  0  0  0  0  3  0  0  0  0  0  0
  162.2500  209.2880  156.4510 O   0  0  0  0  0  0  0  0  0  0  0  0
  160.0930  212.5130  152.2770 S   0  0  0  0  0  0  0  0  0  0  0  0
  161.5530  209.3220  154.1590 C   0  0  1  0  0  3  0  0  0  0  0  0
  160.6660  208.0920  154.1510 C   0  0  0  0  0  1  0  0  0  0  0  0
  161.0400  210.3420  153.1680 C   0  0  0  0  0  0  0  0  0  0  0  0
  161.1420  211.7770  149.8040 N   0  0  0  0  0  0  0  0  0  0  0  0
  161.5820  209.8800  155.5640 C   0  0  0  0  0  0  0  0  0  0  0  0
  160.2270  211.8470  155.0020 C   0  0  0  0  0  3  0  0  0  0  0  0
  161.9570  210.8070  149.0580 C   0  0  0  0  0  2  0  0  0  0  0  0
  161.2400  210.3210  151.7770 C   0  0  0  0  0  0  0  0  0  0  0  0
  160.3860  211.4960  153.5890 C   0  0  0  0  0  0  0  0  0  0  0  0
  160.7950  214.3720  145.5170 C   0  0  0  0  0  1  0  0  0  0  0  0
  160.5340  212.9160  149.1260 C   0  0  2  0  0  3  0  0  0  0  0  0
  160.0280  212.4540  147.4250 S   0  0  0  0  0  0  0  0  0  0  0  0
  161.0250  213.7660  146.8140 N   0  0  0  0  0  0  0  0  0  0  0  0
  161.7030  214.4530  147.8450 C   0  0  0  0  0  3  0  0  0  0  0  0
  161.4810  214.0230  149.0380 N   0  0  0  0  0  0  0  0  0  0  0  0
  160.6020  205.9350  150.1180 N   0  0  0  0  0  2  0  0  0  0  0  0
  160.9200  206.4530  148.7890 C   0  0  0  0  0  2  0  0  0  0  0  0
  160.8490  207.0130  151.0710 C   0  0  0  0  0  2  0  0  0  0  0  0
  163.0500  207.5690  148.9810 N   0  0  0  0  0  1  0  0  0  0  0  0
  161.6110  207.7880  148.9450 C   0  0  2  0  0  3  0  0  0  0  0  0
  161.0980  208.2770  150.2830 C   0  0  2  0  0  3  0  0  0  0  0  0
  2 14  2  0  0  0  0
  2  6  1  0  0  0  0
  3  1  1  6  0  0  0
  3 14  1  0  0  0  0
  6 15  1  0  0  0  0
  7  8  1  1  0  0  0
  7 11  1  0  0  0  0
  9 15  2  0  0  0  0
  9  7  1  0  0  0  0
 10  2  1  0  0  0  0
 11  4  1  0  0  0  0
 11  5  2  0  0  0  0
 12  4  2  0  0  0  0
 13 10  1  0  0  0  0
 13  1  1  0  0  0  0
 14  9  1  0  0  0  0
 15 12  1  0  0  0  0
 16 19  1  0  0  0  0
 17 10  1  6  0  0  0
 18 17  1  0  0  0  0
 19 18  1  0  0  0  0
 19 20  1  0  0  0  0
 20 21  2  0  0  0  0
 21 17  1  0  0  0  0
 22 24  1  0  0  0  0
 23 26  1  0  0  0  0
 23 22  1  0  0  0  0
 26 25  1  1  0  0  0
 26 27  1  0  0  0  0
 27  3  1  0  0  0  0
 27 24  1  1  0  0  0
M  END
>  <MODEL>
4

>  <REMARK>
 VINA RESULT:      -3.8      4.346      7.494
  Name = 
  2 active torsions:
  status: ('A' for Active; 'I' for Inactive)
    1  A    between atoms: C_3  and  C_26
    2  A    between atoms: C_9  and  N_15
                            x       y       z     vdW  Elec       q    Type
                         _______ _______ _______ _____ _____    ______ ____

>  <TORSDO>
F 2

$$$$
=
 OpenBabel11052423063D

 27 31  0  0  1  0  0  0  0  0999 V2000
  158.3360  212.2530  152.4420 N   0  0  0  0  0  2  0  0  0  0  0  0
  160.8230  211.1030  152.0700 C   0  0  0  0  0  0  0  0  0  0  0  0
  159.0030  211.7280  153.6470 C   0  0  1  0  0  3  0  0  0  0  0  0
  161.2050  206.8280  154.2150 C   0  0  0  0  0  3  0  0  0  0  0  0
  159.3620  206.6540  155.6840 O   0  0  0  0  0  0  0  0  0  0  0  0
  161.8980  209.8550  151.7110 S   0  0  0  0  0  0  0  0  0  0  0  0
  159.7870  208.8930  154.9460 C   0  0  1  0  0  3  0  0  0  0  0  0
  160.2720  209.4960  156.2500 C   0  0  0  0  0  1  0  0  0  0  0  0
  160.4640  209.5680  153.7760 C   0  0  0  0  0  0  0  0  0  0  0  0
  160.4210  212.1600  151.1930 N   0  0  0  0  0  0  0  0  0  0  0  0
  160.0720  207.4080  154.9720 C   0  0  0  0  0  0  0  0  0  0  0  0
  161.8720  207.5460  153.3090 C   0  0  0  0  0  3  0  0  0  0  0  0
  159.2840  213.0010  151.5920 C   0  0  0  0  0  2  0  0  0  0  0  0
  160.1180  210.8130  153.2210 C   0  0  0  0  0  0  0  0  0  0  0  0
  161.4660  208.9290  153.0510 C   0  0  0  0  0  0  0  0  0  0  0  0
  160.5550  213.1410  146.2680 C   0  0  0  0  0  1  0  0  0  0  0  0
  161.2580  212.5270  150.0550 C   0  0  2  0  0  3  0  0  0  0  0  0
  160.4030  213.7650  149.0060 S   0  0  0  0  0  0  0  0  0  0  0  0
  160.5820  212.6730  147.6400 N   0  0  0  0  0  0  0  0  0  0  0  0
  161.2100  211.4590  147.9990 C   0  0  0  0  0  3  0  0  0  0  0  0
  161.5480  211.3540  149.2370 N   0  0  0  0  0  0  0  0  0  0  0  0
  160.0370  213.5430  156.7690 N   0  0  0  0  0  2  0  0  0  0  0  0
  159.0180  214.4490  156.2430 C   0  0  0  0  0  2  0  0  0  0  0  0
  160.2390  212.4950  155.7740 C   0  0  0  0  0  2  0  0  0  0  0  0
  157.2250  213.0590  155.4230 N   0  0  0  0  0  1  0  0  0  0  0  0
  158.4000  213.8170  155.0170 C   0  0  2  0  0  3  0  0  0  0  0  0
  159.4980  212.9010  154.5210 C   0  0  2  0  0  3  0  0  0  0  0  0
  2 14  2  0  0  0  0
  3  1  1  6  0  0  0
  3 27  1  0  0  0  0
  4 11  1  0  0  0  0
  6  2  1  0  0  0  0
  6 15  1  0  0  0  0
  7 11  1  0  0  0  0
  7  8  1  1  0  0  0
  9  7  1  0  0  0  0
 10 13  1  0  0  0  0
 10  2  1  0  0  0  0
 11  5  2  0  0  0  0
 12  4  2  0  0  0  0
 13  1  1  0  0  0  0
 14  3  1  0  0  0  0
 14  9  1  0  0  0  0
 15 12  1  0  0  0  0
 15  9  2  0  0  0  0
 16 19  1  0  0  0  0
 17 10  1  1  0  0  0
 18 17  1  0  0  0  0
 19 20  1  0  0  0  0
 19 18  1  0  0  0  0
 20 21  2  0  0  0  0
 21 17  1  0  0  0  0
 23 22  1  0  0  0  0
 24 22  1  0  0  0  0
 26 25  1  1  0  0  0
 26 23  1  0  0  0  0
 27 26  1  0  0  0  0
 27 24  1  1  0  0  0
M  END
>  <MODEL>
5

>  <REMARK>
 VINA RESULT:      -3.8      5.919      9.114
  Name = 
  2 active torsions:
  status: ('A' for Active; 'I' for Inactive)
    1  A    between atoms: C_3  and  C_26
    2  A    between atoms: C_9  and  N_15
                            x       y       z     vdW  Elec       q    Type
                         _______ _______ _______ _____ _____    ______ ____

>  <TORSDO>
F 2

$$$$
=
 OpenBabel11052423063D

 27 31  0  0  1  0  0  0  0  0999 V2000
  159.4300  210.8880  139.3500 N   0  0  0  0  0  2  0  0  0  0  0  0
  161.4370  212.6200  140.1360 C   0  0  0  0  0  0  0  0  0  0  0  0
  159.0540  211.9270  140.3250 C   0  0  1  0  0  3  0  0  0  0  0  0
  161.6600  213.1230  144.9030 C   0  0  0  0  0  3  0  0  0  0  0  0
  159.6610  212.2010  145.7630 O   0  0  0  0  0  0  0  0  0  0  0  0
  162.7490  213.1280  141.0650 S   0  0  0  0  0  0  0  0  0  0  0  0
  159.5680  212.6580  143.4130 C   0  0  1  0  0  3  0  0  0  0  0  0
  158.5830  213.8110  143.4240 C   0  0  0  0  0  1  0  0  0  0  0  0
  160.5470  212.8170  142.2730 C   0  0  0  0  0  0  0  0  0  0  0  0
  161.4900  212.0680  138.8180 N   0  0  0  0  0  0  0  0  0  0  0  0
  160.2750  212.6230  144.7500 C   0  0  0  0  0  0  0  0  0  0  0  0
  162.4140  213.4070  143.8390 C   0  0  0  0  0  3  0  0  0  0  0  0
  160.2740  211.4470  138.2740 C   0  0  0  0  0  2  0  0  0  0  0  0
  160.3080  212.5030  140.9230 C   0  0  0  0  0  0  0  0  0  0  0  0
  161.8640  213.2090  142.4970 C   0  0  0  0  0  0  0  0  0  0  0  0
  166.0830  214.0760  138.5110 C   0  0  0  0  0  1  0  0  0  0  0  0
  162.6450  212.3200  137.9630 C   0  0  2  0  0  3  0  0  0  0  0  0
  164.2010  212.0220  138.8860 S   0  0  0  0  0  0  0  0  0  0  0  0
  164.6930  213.6670  138.5110 N   0  0  0  0  0  0  0  0  0  0  0  0
  163.7110  214.3690  137.7750 C   0  0  0  0  0  3  0  0  0  0  0  0
  162.6440  213.7030  137.4990 N   0  0  0  0  0  0  0  0  0  0  0  0
  156.2920  214.4450  139.9420 N   0  0  0  0  0  2  0  0  0  0  0  0
  156.0590  213.5930  138.7770 C   0  0  0  0  0  2  0  0  0  0  0  0
  157.5290  213.9900  140.5680 C   0  0  0  0  0  2  0  0  0  0  0  0
  156.3980  211.3210  139.5110 N   0  0  0  0  0  1  0  0  0  0  0  0
  157.0310  212.4370  138.8240 C   0  0  2  0  0  3  0  0  0  0  0  0
  158.1810  212.9980  139.6340 C   0  0  2  0  0  3  0  0  0  0  0  0
  2 14  2  0  0  0  0
  2  6  1  0  0  0  0
  3  1  1  6  0  0  0
  3 14  1  0  0  0  0
  6 15  1  0  0  0  0
  7  8  1  1  0  0  0
  7 11  1  0  0  0  0
  9 15  2  0  0  0  0
  9  7  1  0  0  0  0
 10  2  1  0  0  0  0
 11  4  1  0  0  0  0
 11  5  2  0  0  0  0
 12  4  2  0  0  0  0
 13 10  1  0  0  0  0
 13  1  1  0  0  0  0
 14  9  1  0  0  0  0
 15 12  1  0  0  0  0
 17 10  1  1  0  0  0
 17 18  1  0  0  0  0
 19 16  1  0  0  0  0
 19 18  1  0  0  0  0
 20 19  1  0  0  0  0
 21 20  2  0  0  0  0
 21 17  1  0  0  0  0
 22 24  1  0  0  0  0
 23 26  1  0  0  0  0
 23 22  1  0  0  0  0
 26 25  1  1  0  0  0
 26 27  1  0  0  0  0
 27  3  1  0  0  0  0
 27 24  1  1  0  0  0
M  END
>  <MODEL>
6

>  <REMARK>
 VINA RESULT:      -3.3     10.151     12.469
  Name = 
  2 active torsions:
  status: ('A' for Active; 'I' for Inactive)
    1  A    between atoms: C_3  and  C_26
    2  A    between atoms: C_9  and  N_15
                            x       y       z     vdW  Elec       q    Type
                         _______ _______ _______ _____ _____    ______ ____

>  <TORSDO>
F 2

$$$$
