=
 OpenBabel11062410423D

 32 38  0  0  1  0  0  0  0  0999 V2000
  160.8460  202.9650  151.7950 C   0  0  0  0  0  3  0  0  0  0  0  0
  161.4820  208.0150  152.1680 C   0  0  0  0  0  0  0  0  0  0  0  0
  161.8380  209.8520  150.6160 C   0  0  0  0  0  0  0  0  0  0  0  0
  161.6320  208.9510  149.5470 C   0  0  0  0  0  0  0  0  0  0  0  0
  161.1460  205.7080  151.3020 C   0  0  0  0  0  0  0  0  0  0  0  0
  161.9490  206.0800  153.6570 C   0  0  0  0  0  2  0  0  0  0  0  0
  162.1790  211.6420  149.0040 C   0  0  0  0  0  0  0  0  0  0  0  0
  161.2690  203.8160  152.8210 C   0  0  0  0  0  3  0  0  0  0  0  0
  161.4500  207.4500  153.4960 N   0  0  0  0  0  0  0  0  0  0  0  0
  160.4930  207.9270  154.5070 C   0  0  2  0  0  3  0  0  0  0  0  0
  161.9960  210.3150  153.0610 C   0  0  0  0  0  3  0  0  0  0  0  0
  161.9720  210.7440  147.9550 C   0  0  0  0  0  3  0  0  0  0  0  0
  161.4060  205.1850  152.5820 C   0  0  0  0  0  0  0  0  0  0  0  0
  161.6990  209.4020  148.2260 C   0  0  0  0  0  3  0  0  0  0  0  0
  160.7270  204.8500  150.2760 C   0  0  0  0  0  3  0  0  0  0  0  0
  160.5710  203.4810  150.5240 C   0  0  0  0  0  0  0  0  0  0  0  0
  160.2710  209.3740  154.4740 N   0  0  0  0  0  0  0  0  0  0  0  0
  161.3230  210.3070  154.2080 C   0  0  0  0  0  3  0  0  0  0  0  0
  161.3270  207.1530  151.0650 C   0  0  0  0  0  0  0  0  0  0  0  0
  161.3880  207.6410  149.7970 N   0  0  0  0  0  0  0  0  0  0  0  0
  162.4530  212.9760  148.7320 O   0  0  0  0  0  1  0  0  0  0  0  0
  161.7470  209.3830  151.9430 C   0  0  0  0  0  0  0  0  0  0  0  0
  162.1120  211.2000  150.3270 C   0  0  0  0  0  3  0  0  0  0  0  0
  159.7620  206.9350  156.3200 O   0  0  0  0  0  1  0  0  0  0  0  0
  160.8390  207.5000  155.8060 O   0  0  0  0  0  0  0  0  0  0  0  0
  159.2840  210.4370  156.3060 O   0  0  0  0  0  1  0  0  0  0  0  0
  159.0350  209.8770  155.0510 C   0  0  0  0  0  2  0  0  0  0  0  0
  160.1360  202.5640  149.4330 C   0  0  0  0  0  2  0  0  0  0  0  0
  161.6290  202.3590  147.4450 C   0  0  1  0  0  3  0  0  0  0  0  0
  161.3300  201.8300  148.8370 C   0  0  2  0  0  3  0  0  0  0  0  0
  160.9280  201.0290  147.6100 C   0  0  1  0  0  3  0  0  0  0  0  0
  160.5130  201.9680  146.4940 C   0  0  0  0  0  2  0  0  0  0  0  0
  1  8  1  0  0  0  0
  2  9  1  0  0  0  0
  3 22  2  0  0  0  0
  4 20  2  0  0  0  0
  4  3  1  0  0  0  0
  5 13  1  0  0  0  0
  7 23  2  0  0  0  0
  9  6  1  0  0  0  0
  9 10  1  0  0  0  0
 10 25  1  1  0  0  0
 11 18  2  0  0  0  0
 12 14  2  0  0  0  0
 12  7  1  0  0  0  0
 13  8  2  0  0  0  0
 13  6  1  0  0  0  0
 14  4  1  0  0  0  0
 15 16  1  0  0  0  0
 15  5  2  0  0  0  0
 16  1  2  0  0  0  0
 17 10  1  0  0  0  0
 17 27  1  0  0  0  0
 18 17  1  0  0  0  0
 19  5  1  0  0  0  0
 19  2  2  0  0  0  0
 20 19  1  0  0  0  0
 21  7  1  0  0  0  0
 22  2  1  0  0  0  0
 22 11  1  0  0  0  0
 23  3  1  0  0  0  0
 25 24  1  0  0  0  0
 27 26  1  0  0  0  0
 28 16  1  0  0  0  0
 29 32  1  6  0  0  0
 29 31  1  0  0  0  0
 29 30  1  0  0  0  0
 30 28  1  6  0  0  0
 31 32  1  6  0  0  0
 31 30  1  0  0  0  0
M  END
>  <MODEL>
1

>  <REMARK>
 VINA RESULT:      -7.7      0.000      0.000
  Name = 
  4 active torsions:
  status: ('A' for Active; 'I' for Inactive)
    1  A    between atoms: C_10  and  C_19
    2  A    between atoms: O_13  and  C_15
    3  A    between atoms: C_19  and  C_24
    4  A    between atoms: C_25  and  N_26
                            x       y       z     vdW  Elec       q    Type
                         _______ _______ _______ _____ _____    ______ ____

>  <TORSDO>
F 4

$$$$
=
 OpenBabel11062410423D

 32 38  0  0  1  0  0  0  0  0999 V2000
  159.4340  214.0260  151.7710 C   0  0  0  0  0  3  0  0  0  0  0  0
  160.4140  209.4140  153.7250 C   0  0  0  0  0  0  0  0  0  0  0  0
  160.9920  207.2260  152.8370 C   0  0  0  0  0  0  0  0  0  0  0  0
  161.1020  207.8070  151.5540 C   0  0  0  0  0  0  0  0  0  0  0  0
  160.1480  211.3460  152.1820 C   0  0  0  0  0  0  0  0  0  0  0  0
  159.0570  211.3670  154.4500 C   0  0  0  0  0  2  0  0  0  0  0  0
  161.5800  205.0680  151.8790 C   0  0  0  0  0  0  0  0  0  0  0  0
  159.1160  213.3970  152.9780 C   0  0  0  0  0  3  0  0  0  0  0  0
  159.9960  210.2930  154.7910 N   0  0  0  0  0  0  0  0  0  0  0  0
  160.8350  210.5030  155.9820 C   0  0  2  0  0  3  0  0  0  0  0  0
  160.5100  207.4300  155.2750 C   0  0  0  0  0  3  0  0  0  0  0  0
  161.6880  205.6530  150.6150 C   0  0  0  0  0  3  0  0  0  0  0  0
  159.4820  212.0660  153.1910 C   0  0  0  0  0  0  0  0  0  0  0  0
  161.4500  207.0190  150.4530 C   0  0  0  0  0  3  0  0  0  0  0  0
  160.4600  211.9810  150.9720 C   0  0  0  0  0  3  0  0  0  0  0  0
  160.1090  213.3210  150.7690 C   0  0  0  0  0  0  0  0  0  0  0  0
  161.5170  209.2940  156.4450 N   0  0  0  0  0  0  0  0  0  0  0  0
  160.9010  208.0020  156.4100 C   0  0  0  0  0  3  0  0  0  0  0  0
  160.4970  209.9320  152.4180 C   0  0  0  0  0  0  0  0  0  0  0  0
  160.8520  209.1280  151.3810 N   0  0  0  0  0  0  0  0  0  0  0  0
  161.8140  203.7090  152.0380 O   0  0  0  0  0  1  0  0  0  0  0  0
  160.6590  208.0410  153.9390 C   0  0  0  0  0  0  0  0  0  0  0  0
  161.2350  205.8490  152.9840 C   0  0  0  0  0  3  0  0  0  0  0  0
  160.6080  212.3290  157.1730 O   0  0  0  0  0  1  0  0  0  0  0  0
  160.1180  211.1110  157.0330 O   0  0  0  0  0  0  0  0  0  0  0  0
  163.4240  210.5870  156.8350 O   0  0  0  0  0  1  0  0  0  0  0  0
  162.7090  209.4660  157.2600 C   0  0  0  0  0  2  0  0  0  0  0  0
  160.4300  213.9950  149.4800 C   0  0  0  0  0  2  0  0  0  0  0  0
  162.3850  213.0810  148.2280 C   0  0  1  0  0  3  0  0  0  0  0  0
  160.8850  212.9800  148.4390 C   0  0  2  0  0  3  0  0  0  0  0  0
  161.4400  213.6680  147.2040 C   0  0  1  0  0  3  0  0  0  0  0  0
  162.7240  214.3970  147.5520 C   0  0  0  0  0  2  0  0  0  0  0  0
  1  8  1  0  0  0  0
  2 22  1  0  0  0  0
  2  9  1  0  0  0  0
  3 23  1  0  0  0  0
  3 22  2  0  0  0  0
  4  3  1  0  0  0  0
  5 19  1  0  0  0  0
  5 13  1  0  0  0  0
  6  9  1  0  0  0  0
  7 21  1  0  0  0  0
  7 23  2  0  0  0  0
  8 13  2  0  0  0  0
  9 10  1  0  0  0  0
 10 17  1  0  0  0  0
 10 25  1  1  0  0  0
 11 18  2  0  0  0  0
 12  7  1  0  0  0  0
 13  6  1  0  0  0  0
 14 12  2  0  0  0  0
 14  4  1  0  0  0  0
 15  5  2  0  0  0  0
 16 15  1  0  0  0  0
 16  1  2  0  0  0  0
 17 27  1  0  0  0  0
 18 17  1  0  0  0  0
 19  2  2  0  0  0  0
 20  4  2  0  0  0  0
 20 19  1  0  0  0  0
 22 11  1  0  0  0  0
 25 24  1  0  0  0  0
 26 27  1  0  0  0  0
 28 16  1  0  0  0  0
 29 32  1  1  0  0  0
 29 30  1  0  0  0  0
 30 28  1  1  0  0  0
 31 32  1  1  0  0  0
 31 29  1  0  0  0  0
 31 30  1  0  0  0  0
M  END
>  <MODEL>
2

>  <REMARK>
 VINA RESULT:      -7.4      3.041      7.054
  Name = 
  4 active torsions:
  status: ('A' for Active; 'I' for Inactive)
    1  A    between atoms: C_10  and  C_19
    2  A    between atoms: O_13  and  C_15
    3  A    between atoms: C_19  and  C_24
    4  A    between atoms: C_25  and  N_26
                            x       y       z     vdW  Elec       q    Type
                         _______ _______ _______ _____ _____    ______ ____

>  <TORSDO>
F 4

$$$$
=
 OpenBabel11062410423D

 32 38  0  0  1  0  0  0  0  0999 V2000
  161.3110  205.4930  153.7530 C   0  0  0  0  0  3  0  0  0  0  0  0
  160.5200  210.3910  152.5590 C   0  0  0  0  0  0  0  0  0  0  0  0
  161.0100  211.8300  150.6620 C   0  0  0  0  0  0  0  0  0  0  0  0
  161.4670  210.6950  149.9550 C   0  0  0  0  0  0  0  0  0  0  0  0
  161.1160  207.9790  152.4710 C   0  0  0  0  0  0  0  0  0  0  0  0
  160.8060  209.1350  154.6850 C   0  0  0  0  0  2  0  0  0  0  0  0
  161.5230  213.2080  148.7230 C   0  0  0  0  0  0  0  0  0  0  0  0
  161.0760  206.6480  154.5030 C   0  0  0  0  0  3  0  0  0  0  0  0
  160.1000  210.1700  153.9220 N   0  0  0  0  0  0  0  0  0  0  0  0
  158.7370  210.5030  154.3660 C   0  0  2  0  0  3  0  0  0  0  0  0
  160.0710  212.8650  152.7270 C   0  0  0  0  0  3  0  0  0  0  0  0
  161.9700  212.0790  148.0330 C   0  0  0  0  0  3  0  0  0  0  0  0
  160.9650  207.8860  153.8670 C   0  0  0  0  0  0  0  0  0  0  0  0
  161.9420  210.8260  148.6470 C   0  0  0  0  0  3  0  0  0  0  0  0
  161.3570  206.8180  151.7240 C   0  0  0  0  0  3  0  0  0  0  0  0
  161.4480  205.5760  152.3630 C   0  0  0  0  0  0  0  0  0  0  0  0
  158.2070  211.7330  153.7760 N   0  0  0  0  0  0  0  0  0  0  0  0
  159.0220  212.8870  153.5430 C   0  0  0  0  0  3  0  0  0  0  0  0
  161.0250  209.3010  151.8240 C   0  0  0  0  0  0  0  0  0  0  0  0
  161.4650  209.4770  150.5490 N   0  0  0  0  0  0  0  0  0  0  0  0
  161.5550  214.4530  148.1110 O   0  0  0  0  0  1  0  0  0  0  0  0
  160.5170  211.6760  151.9740 C   0  0  0  0  0  0  0  0  0  0  0  0
  161.0450  213.0850  150.0300 C   0  0  0  0  0  3  0  0  0  0  0  0
  159.2910  211.6010  156.1810 O   0  0  0  0  0  1  0  0  0  0  0  0
  158.6310  210.5320  155.7720 O   0  0  0  0  0  0  0  0  0  0  0  0
  156.3950  213.0810  154.3760 O   0  0  0  0  0  1  0  0  0  0  0  0
  156.7620  211.8930  153.7400 C   0  0  0  0  0  2  0  0  0  0  0  0
  161.7130  204.3410  151.5720 C   0  0  0  0  0  2  0  0  0  0  0  0
  160.8060  202.8790  149.7650 C   0  0  1  0  0  3  0  0  0  0  0  0
  160.4530  203.8820  150.8490 C   0  0  2  0  0  3  0  0  0  0  0  0
  160.4710  204.3050  149.3900 C   0  0  1  0  0  3  0  0  0  0  0  0
  161.5730  203.5690  148.6530 C   0  0  0  0  0  2  0  0  0  0  0  0
  1  8  1  0  0  0  0
  2  9  1  0  0  0  0
  3 22  2  0  0  0  0
  4 20  2  0  0  0  0
  4  3  1  0  0  0  0
  5 13  1  0  0  0  0
  7 23  2  0  0  0  0
  9 10  1  0  0  0  0
  9  6  1  0  0  0  0
 10 25  1  1  0  0  0
 11 18  2  0  0  0  0
 12 14  2  0  0  0  0
 12  7  1  0  0  0  0
 13  8  2  0  0  0  0
 13  6  1  0  0  0  0
 14  4  1  0  0  0  0
 15 16  1  0  0  0  0
 15  5  2  0  0  0  0
 16  1  2  0  0  0  0
 17 10  1  0  0  0  0
 18 17  1  0  0  0  0
 19  5  1  0  0  0  0
 19  2  2  0  0  0  0
 20 19  1  0  0  0  0
 21  7  1  0  0  0  0
 22  2  1  0  0  0  0
 22 11  1  0  0  0  0
 23  3  1  0  0  0  0
 25 24  1  0  0  0  0
 27 17  1  0  0  0  0
 27 26  1  0  0  0  0
 28 16  1  0  0  0  0
 29 32  1  1  0  0  0
 29 30  1  0  0  0  0
 30 28  1  1  0  0  0
 31 32  1  1  0  0  0
 31 29  1  0  0  0  0
 31 30  1  0  0  0  0
M  END
>  <MODEL>
3

>  <REMARK>
 VINA RESULT:      -6.4      1.817      2.935
  Name = 
  4 active torsions:
  status: ('A' for Active; 'I' for Inactive)
    1  A    between atoms: C_10  and  C_19
    2  A    between atoms: O_13  and  C_15
    3  A    between atoms: C_19  and  C_24
    4  A    between atoms: C_25  and  N_26
                            x       y       z     vdW  Elec       q    Type
                         _______ _______ _______ _____ _____    ______ ____

>  <TORSDO>
F 4

$$$$
=
 OpenBabel11062410423D

 32 38  0  0  1  0  0  0  0  0999 V2000
  161.2010  212.9500  148.6490 C   0  0  0  0  0  3  0  0  0  0  0  0
  161.4760  208.7660  151.5580 C   0  0  0  0  0  0  0  0  0  0  0  0
  160.9480  208.2020  153.8640 C   0  0  0  0  0  0  0  0  0  0  0  0
  160.3780  209.4860  154.0180 C   0  0  0  0  0  0  0  0  0  0  0  0
  161.0050  211.0540  150.7040 C   0  0  0  0  0  0  0  0  0  0  0  0
  162.7200  209.6000  149.5750 C   0  0  0  0  0  2  0  0  0  0  0  0
  160.3860  207.7060  156.1790 C   0  0  0  0  0  0  0  0  0  0  0  0
  161.9500  211.7720  148.5850 C   0  0  0  0  0  3  0  0  0  0  0  0
  162.0790  208.4840  150.2780 N   0  0  0  0  0  0  0  0  0  0  0  0
  161.6210  207.3570  149.4500 C   0  0  2  0  0  3  0  0  0  0  0  0
  162.1170  206.5030  152.4620 C   0  0  0  0  0  3  0  0  0  0  0  0
  159.8240  208.9770  156.3200 C   0  0  0  0  0  3  0  0  0  0  0  0
  161.8450  210.8190  149.6000 C   0  0  0  0  0  0  0  0  0  0  0  0
  159.8200  209.8640  155.2420 C   0  0  0  0  0  3  0  0  0  0  0  0
  160.2590  212.2390  150.7660 C   0  0  0  0  0  3  0  0  0  0  0  0
  160.3530  213.1830  149.7360 C   0  0  0  0  0  0  0  0  0  0  0  0
  161.2770  206.1600  150.2190 N   0  0  0  0  0  0  0  0  0  0  0  0
  162.0170  205.7480  151.3720 C   0  0  0  0  0  3  0  0  0  0  0  0
  160.9320  210.0470  151.7800 C   0  0  0  0  0  0  0  0  0  0  0  0
  160.3890  210.3640  152.9850 N   0  0  0  0  0  0  0  0  0  0  0  0
  160.3920  206.8260  157.2520 O   0  0  0  0  0  1  0  0  0  0  0  0
  161.4900  207.8310  152.6150 C   0  0  0  0  0  0  0  0  0  0  0  0
  160.9450  207.3200  154.9580 C   0  0  0  0  0  3  0  0  0  0  0  0
  161.8390  206.9520  147.3060 O   0  0  0  0  0  1  0  0  0  0  0  0
  162.5380  207.0490  148.4220 O   0  0  0  0  0  0  0  0  0  0  0  0
  161.0970  204.0920  149.1450 O   0  0  0  0  0  1  0  0  0  0  0  0
  160.3780  205.1990  149.5990 C   0  0  0  0  0  2  0  0  0  0  0  0
  159.5690  214.4490  149.8040 C   0  0  0  0  0  2  0  0  0  0  0  0
  157.5360  213.0180  149.5920 C   0  0  1  0  0  3  0  0  0  0  0  0
  158.1640  214.1860  150.3320 C   0  0  2  0  0  3  0  0  0  0  0  0
  157.1170  214.4330  149.2590 C   0  0  1  0  0  3  0  0  0  0  0  0
  157.2620  213.4070  148.1520 C   0  0  0  0  0  2  0  0  0  0  0  0
  1 16  1  0  0  0  0
  2 19  2  0  0  0  0
  2 22  1  0  0  0  0
  3  4  1  0  0  0  0
  3 23  1  0  0  0  0
  4 14  1  0  0  0  0
  5 15  1  0  0  0  0
  5 19  1  0  0  0  0
  6 13  1  0  0  0  0
  6  9  1  0  0  0  0
  7 12  1  0  0  0  0
  7 21  1  0  0  0  0
  8  1  2  0  0  0  0
  8 13  1  0  0  0  0
  9  2  1  0  0  0  0
 10 25  1  6  0  0  0
 10 17  1  0  0  0  0
 10  9  1  0  0  0  0
 11 22  1  0  0  0  0
 13  5  2  0  0  0  0
 14 12  2  0  0  0  0
 16 28  1  0  0  0  0
 16 15  2  0  0  0  0
 17 18  1  0  0  0  0
 18 11  2  0  0  0  0
 19 20  1  0  0  0  0
 20  4  2  0  0  0  0
 22  3  2  0  0  0  0
 23  7  2  0  0  0  0
 24 25  1  0  0  0  0
 26 27  1  0  0  0  0
 27 17  1  0  0  0  0
 29 32  1  6  0  0  0
 29 30  1  0  0  0  0
 30 28  1  6  0  0  0
 31 32  1  6  0  0  0
 31 29  1  0  0  0  0
 31 30  1  0  0  0  0
M  END
>  <MODEL>
4

>  <REMARK>
 VINA RESULT:      -6.2      3.053      8.000
  Name = 
  4 active torsions:
  status: ('A' for Active; 'I' for Inactive)
    1  A    between atoms: C_10  and  C_19
    2  A    between atoms: O_13  and  C_15
    3  A    between atoms: C_19  and  C_24
    4  A    between atoms: C_25  and  N_26
                            x       y       z     vdW  Elec       q    Type
                         _______ _______ _______ _____ _____    ______ ____

>  <TORSDO>
F 4

$$$$
=
 OpenBabel11062410423D

 32 38  0  0  1  0  0  0  0  0999 V2000
  161.1970  213.5790  149.2400 C   0  0  0  0  0  3  0  0  0  0  0  0
  160.8980  209.5900  152.4100 C   0  0  0  0  0  0  0  0  0  0  0  0
  161.1030  207.1760  152.2060 C   0  0  0  0  0  0  0  0  0  0  0  0
  161.5030  207.3510  150.8630 C   0  0  0  0  0  0  0  0  0  0  0  0
  161.2580  211.0360  150.4180 C   0  0  0  0  0  0  0  0  0  0  0  0
  159.9090  211.8700  152.3720 C   0  0  0  0  0  2  0  0  0  0  0  0
  161.3340  204.7700  151.9310 C   0  0  0  0  0  0  0  0  0  0  0  0
  160.5960  213.3720  150.4850 C   0  0  0  0  0  3  0  0  0  0  0  0
  160.5420  210.7880  153.1320 N   0  0  0  0  0  0  0  0  0  0  0  0
  161.2430  211.1710  154.3690 C   0  0  2  0  0  3  0  0  0  0  0  0
  160.3600  208.1270  154.3890 C   0  0  0  0  0  3  0  0  0  0  0  0
  161.7300  204.9540  150.6050 C   0  0  0  0  0  3  0  0  0  0  0  0
  160.6350  212.1100  151.0810 C   0  0  0  0  0  0  0  0  0  0  0  0
  161.8150  206.2420  150.0720 C   0  0  0  0  0  3  0  0  0  0  0  0
  161.8550  211.2470  149.1680 C   0  0  0  0  0  3  0  0  0  0  0  0
  161.8300  212.5180  148.5830 C   0  0  0  0  0  0  0  0  0  0  0  0
  161.5820  210.0380  155.2310 N   0  0  0  0  0  0  0  0  0  0  0  0
  160.7130  208.9140  155.4010 C   0  0  0  0  0  3  0  0  0  0  0  0
  161.2610  209.7040  151.0530 C   0  0  0  0  0  0  0  0  0  0  0  0
  161.5670  208.5960  150.3280 N   0  0  0  0  0  0  0  0  0  0  0  0
  161.2480  203.4880  152.4580 O   0  0  0  0  0  1  0  0  0  0  0  0
  160.8110  208.3090  152.9950 C   0  0  0  0  0  0  0  0  0  0  0  0
  161.0230  205.8740  152.7290 C   0  0  0  0  0  3  0  0  0  0  0  0
  159.4310  211.5950  155.5270 O   0  0  0  0  0  1  0  0  0  0  0  0
  160.5410  212.1600  155.0890 O   0  0  0  0  0  0  0  0  0  0  0  0
  162.2360  211.0100  157.2530 O   0  0  0  0  0  1  0  0  0  0  0  0
  162.6650  210.2210  156.1840 C   0  0  0  0  0  2  0  0  0  0  0  0
  162.4560  212.7440  147.2490 C   0  0  0  0  0  2  0  0  0  0  0  0
  160.9090  213.6090  145.4920 C   0  0  1  0  0  3  0  0  0  0  0  0
  161.8850  213.9940  146.5900 C   0  0  2  0  0  3  0  0  0  0  0  0
  162.2980  214.0850  145.1310 C   0  0  1  0  0  3  0  0  0  0  0  0
  161.6560  212.9600  144.3420 C   0  0  0  0  0  2  0  0  0  0  0  0
  1  8  1  0  0  0  0
  2 22  1  0  0  0  0
  2  9  1  0  0  0  0
  3 23  1  0  0  0  0
  3 22  2  0  0  0  0
  4  3  1  0  0  0  0
  5 19  1  0  0  0  0
  5 13  1  0  0  0  0
  6  9  1  0  0  0  0
  7 21  1  0  0  0  0
  7 23  2  0  0  0  0
  8 13  2  0  0  0  0
  9 10  1  0  0  0  0
 10 25  1  1  0  0  0
 10 17  1  0  0  0  0
 11 18  2  0  0  0  0
 12  7  1  0  0  0  0
 13  6  1  0  0  0  0
 14 12  2  0  0  0  0
 14  4  1  0  0  0  0
 15  5  2  0  0  0  0
 16 15  1  0  0  0  0
 16  1  2  0  0  0  0
 17 18  1  0  0  0  0
 17 27  1  0  0  0  0
 19  2  2  0  0  0  0
 20  4  2  0  0  0  0
 20 19  1  0  0  0  0
 22 11  1  0  0  0  0
 25 24  1  0  0  0  0
 27 26  1  0  0  0  0
 28 16  1  0  0  0  0
 29 32  1  1  0  0  0
 29 30  1  0  0  0  0
 30 28  1  1  0  0  0
 31 32  1  1  0  0  0
 31 29  1  0  0  0  0
 31 30  1  0  0  0  0
M  END
>  <MODEL>
5

>  <REMARK>
 VINA RESULT:      -6.0      2.645      6.976
  Name = 
  4 active torsions:
  status: ('A' for Active; 'I' for Inactive)
    1  A    between atoms: C_10  and  C_19
    2  A    between atoms: O_13  and  C_15
    3  A    between atoms: C_19  and  C_24
    4  A    between atoms: C_25  and  N_26
                            x       y       z     vdW  Elec       q    Type
                         _______ _______ _______ _____ _____    ______ ____

>  <TORSDO>
F 4

$$$$
=
 OpenBabel11062410423D

 32 38  0  0  1  0  0  0  0  0999 V2000
  161.8860  210.5250  150.5580 C   0  0  0  0  0  3  0  0  0  0  0  0
  161.0910  205.5840  149.5590 C   0  0  0  0  0  0  0  0  0  0  0  0
  160.9240  204.2090  147.5610 C   0  0  0  0  0  0  0  0  0  0  0  0
  161.3020  205.3320  146.7900 C   0  0  0  0  0  0  0  0  0  0  0  0
  161.6010  208.0100  149.3540 C   0  0  0  0  0  0  0  0  0  0  0  0
  160.4560  207.1170  151.4100 C   0  0  0  0  0  2  0  0  0  0  0  0
  160.7810  202.8930  145.5190 C   0  0  0  0  0  0  0  0  0  0  0  0
  161.3010  209.4740  151.2690 C   0  0  0  0  0  3  0  0  0  0  0  0
  160.9430  205.8020  150.9780 N   0  0  0  0  0  0  0  0  0  0  0  0
  161.7320  205.0370  151.9560 C   0  0  2  0  0  3  0  0  0  0  0  0
  160.4020  203.1690  149.7670 C   0  0  0  0  0  3  0  0  0  0  0  0
  161.1570  204.0090  144.7680 C   0  0  0  0  0  3  0  0  0  0  0  0
  161.1690  208.2160  150.6780 C   0  0  0  0  0  0  0  0  0  0  0  0
  161.4180  205.2250  145.4020 C   0  0  0  0  0  3  0  0  0  0  0  0
  162.1830  209.0690  148.6440 C   0  0  0  0  0  3  0  0  0  0  0  0
  162.3310  210.3230  149.2470 C   0  0  0  0  0  0  0  0  0  0  0  0
  161.9250  203.6330  151.5890 N   0  0  0  0  0  0  0  0  0  0  0  0
  160.9020  202.8560  150.9580 C   0  0  0  0  0  3  0  0  0  0  0  0
  161.4240  206.6810  148.7390 C   0  0  0  0  0  0  0  0  0  0  0  0
  161.5360  206.5240  147.3930 N   0  0  0  0  0  0  0  0  0  0  0  0
  160.5190  201.6860  144.8860 O   0  0  0  0  0  1  0  0  0  0  0  0
  160.8310  204.3320  148.9630 C   0  0  0  0  0  0  0  0  0  0  0  0
  160.6640  202.9920  146.9080 C   0  0  0  0  0  3  0  0  0  0  0  0
  161.9090  206.0920  153.8690 O   0  0  0  0  0  1  0  0  0  0  0  0
  161.2110  205.1500  153.2610 O   0  0  0  0  0  0  0  0  0  0  0  0
  162.9070  201.5550  152.0110 O   0  0  0  0  0  1  0  0  0  0  0  0
  163.0530  202.9330  152.1830 C   0  0  0  0  0  2  0  0  0  0  0  0
  162.9410  211.4540  148.4910 C   0  0  0  0  0  2  0  0  0  0  0  0
  161.3470  212.9160  147.2470 C   0  0  1  0  0  3  0  0  0  0  0  0
  162.0580  212.6930  148.5700 C   0  0  2  0  0  3  0  0  0  0  0  0
  162.5380  213.7720  147.6150 C   0  0  1  0  0  3  0  0  0  0  0  0
  162.3520  213.3130  146.1820 C   0  0  0  0  0  2  0  0  0  0  0  0
  1  8  1  0  0  0  0
  2  9  1  0  0  0  0
  3 22  2  0  0  0  0
  4 20  2  0  0  0  0
  4  3  1  0  0  0  0
  5 13  1  0  0  0  0
  7 23  2  0  0  0  0
  9  6  1  0  0  0  0
  9 10  1  0  0  0  0
 10 25  1  1  0  0  0
 11 18  2  0  0  0  0
 12 14  2  0  0  0  0
 12  7  1  0  0  0  0
 13  8  2  0  0  0  0
 13  6  1  0  0  0  0
 14  4  1  0  0  0  0
 15 16  1  0  0  0  0
 15  5  2  0  0  0  0
 16  1  2  0  0  0  0
 17 10  1  0  0  0  0
 17 27  1  0  0  0  0
 18 17  1  0  0  0  0
 19  5  1  0  0  0  0
 19  2  2  0  0  0  0
 20 19  1  0  0  0  0
 21  7  1  0  0  0  0
 22  2  1  0  0  0  0
 22 11  1  0  0  0  0
 23  3  1  0  0  0  0
 25 24  1  0  0  0  0
 26 27  1  0  0  0  0
 28 16  1  0  0  0  0
 29 32  1  6  0  0  0
 29 31  1  0  0  0  0
 29 30  1  0  0  0  0
 30 28  1  6  0  0  0
 31 32  1  6  0  0  0
 31 30  1  0  0  0  0
M  END
>  <MODEL>
6

>  <REMARK>
 VINA RESULT:      -5.2      3.219      7.382
  Name = 
  4 active torsions:
  status: ('A' for Active; 'I' for Inactive)
    1  A    between atoms: C_10  and  C_19
    2  A    between atoms: O_13  and  C_15
    3  A    between atoms: C_19  and  C_24
    4  A    between atoms: C_25  and  N_26
                            x       y       z     vdW  Elec       q    Type
                         _______ _______ _______ _____ _____    ______ ____

>  <TORSDO>
F 4

$$$$
