=
 OpenBabel11052422213D

 25 25  0  0  1  0  0  0  0  0999 V2000
  161.3010  205.1220  148.2250 C   0  0  0  0  0  0  0  0  0  0  0  0
  160.8460  204.8240  149.4530 C   0  0  0  0  0  3  0  0  0  0  0  0
  160.6500  204.1460  145.9890 C   0  0  0  0  0  2  0  0  0  0  0  0
  161.2730  202.6820  147.9260 C   0  0  0  0  0  3  0  0  0  0  0  0
  160.4260  200.5220  145.0670 O   0  0  0  0  0  1  0  0  0  0  0  0
  160.6010  201.6850  145.8020 C   0  0  0  0  0  0  0  0  0  0  0  0
  160.8570  201.6060  147.2510 C   0  0  0  0  0  3  0  0  0  0  0  0
  161.5660  203.9920  147.2290 C   0  0  2  0  0  0  0  0  0  0  0  0
  160.5440  202.8720  145.1930 C   0  0  0  0  0  3  0  0  0  0  0  0
  163.0350  203.9410  146.7530 C   0  0  0  0  0  2  0  0  0  0  0  0
  163.2910  204.7740  145.5020 C   0  0  0  0  0  1  0  0  0  0  0  0
  160.6220  207.0070  146.9140 O   0  0  0  0  0  0  0  0  0  0  0  0
  161.4130  206.5400  147.7810 C   0  0  0  0  0  0  0  0  0  0  0  0
  162.3980  207.3620  148.3330 O   0  0  0  0  0  0  0  0  0  0  0  0
  162.1310  208.7020  148.7180 C   0  0  0  0  0  1  0  0  0  0  0  0
  160.5060  205.7930  150.3950 O   0  0  0  0  0  0  0  0  0  0  0  0
  161.3330  206.0260  151.5230 C   0  0  0  0  0  2  0  0  0  0  0  0
  160.9640  207.7750  153.2590 C   0  0  0  0  0  3  0  0  0  0  0  0
  161.1950  207.4450  151.9830 C   0  0  0  0  0  3  0  0  0  0  0  0
  160.8080  206.7680  154.3570 C   0  0  0  0  0  2  0  0  0  0  0  0
  160.1670  207.4100  155.5740 C   0  0  0  0  0  2  0  0  0  0  0  0
  160.8320  208.7400  155.8510 C   0  0  0  0  0  2  0  0  0  0  0  0
  162.0050  208.5300  156.7860 C   0  0  0  0  0  2  0  0  0  0  0  0
  162.7180  209.7220  156.9130 O   0  0  0  0  0  0  0  0  0  0  0  0
  162.3150  210.4880  155.8200 C   0  0  0  0  0  1  0  0  0  0  0  0
  1  2  2  0  0  0  0
  2 16  1  0  0  0  0
  3  8  1  0  0  0  0
  5  6  1  0  0  0  0
  6  7  1  0  0  0  0
  7  4  2  0  0  0  0
  8 10  1  6  0  0  0
  8  4  1  0  0  0  0
  8  1  1  0  0  0  0
  9  6  2  0  0  0  0
  9  3  1  0  0  0  0
 11 10  1  0  0  0  0
 12 13  2  0  0  0  0
 13  1  1  0  0  0  0
 13 14  1  0  0  0  0
 14 15  1  0  0  0  0
 16 17  1  0  0  0  0
 17 19  1  0  0  0  0
 18 20  1  0  0  0  0
 19 18  2  0  0  0  0
 20 21  1  0  0  0  0
 21 22  1  0  0  0  0
 22 23  1  0  0  0  0
 23 24  1  0  0  0  0
 25 24  1  0  0  0  0
M  END
>  <MODEL>
1

>  <REMARK>
 VINA RESULT:      -6.2      0.000      0.000
  Name = 
  12 active torsions:
  status: ('A' for Active; 'I' for Inactive)
    1  A    between atoms: C_1  and  C_18
    2  A    between atoms: C_1  and  C_24
    3  A    between atoms: C_2  and  O_7
    4  A    between atoms: C_2  and  C_25
    5  A    between atoms: C_3  and  O_16
    6  A    between atoms: C_6  and  C_15
    7  A    between atoms: C_6  and  C_21
    8  A    between atoms: O_13  and  C_24
    9  A    between atoms: O_16  and  C_23
   10  A    between atoms: C_17  and  C_18
   11  A    between atoms: C_20  and  C_23
   12  A    between atoms: C_21  and  C_25
                            x       y       z     vdW  Elec       q    Type
                         _______ _______ _______ _____ _____    ______ ____

>  <TORSDO>
F 12

$$$$
=
 OpenBabel11052422213D

 25 25  0  0  1  0  0  0  0  0999 V2000
  161.1870  205.3940  149.7220 C   0  0  0  0  0  0  0  0  0  0  0  0
  161.0650  206.3530  150.6540 C   0  0  0  0  0  3  0  0  0  0  0  0
  160.2970  206.2630  147.5240 C   0  0  0  0  0  2  0  0  0  0  0  0
  162.1360  204.5610  147.6120 C   0  0  0  0  0  3  0  0  0  0  0  0
  161.3870  205.2780  144.0780 O   0  0  0  0  0  1  0  0  0  0  0  0
  161.2760  205.3280  145.4600 C   0  0  0  0  0  0  0  0  0  0  0  0
  162.0300  204.3740  146.2920 C   0  0  0  0  0  3  0  0  0  0  0  0
  161.5560  205.7830  148.2890 C   0  0  2  0  0  0  0  0  0  0  0  0
  160.4930  206.2470  146.0310 C   0  0  0  0  0  3  0  0  0  0  0  0
  162.6260  206.8960  148.2250 C   0  0  0  0  0  2  0  0  0  0  0  0
  162.0410  208.2990  148.3320 C   0  0  0  0  0  1  0  0  0  0  0  0
  161.8250  203.4920  151.0280 O   0  0  0  0  0  0  0  0  0  0  0  0
  161.1070  203.9550  150.0990 C   0  0  0  0  0  0  0  0  0  0  0  0
  160.2240  203.1110  149.4210 O   0  0  0  0  0  0  0  0  0  0  0  0
  160.3890  201.7010  149.4120 C   0  0  0  0  0  1  0  0  0  0  0  0
  160.8080  206.0820  151.9960 O   0  0  0  0  0  0  0  0  0  0  0  0
  161.3620  206.8970  153.0170 C   0  0  0  0  0  2  0  0  0  0  0  0
  160.5910  207.4830  155.3130 C   0  0  0  0  0  3  0  0  0  0  0  0
  160.7270  206.5780  154.3370 C   0  0  0  0  0  3  0  0  0  0  0  0
  161.0640  208.9000  155.1980 C   0  0  0  0  0  2  0  0  0  0  0  0
  159.8870  209.8550  155.2630 C   0  0  0  0  0  2  0  0  0  0  0  0
  159.9350  210.7930  154.0760 C   0  0  0  0  0  2  0  0  0  0  0  0
  161.2730  210.6560  153.3800 C   0  0  0  0  0  2  0  0  0  0  0  0
  161.0690  210.4870  152.0110 O   0  0  0  0  0  0  0  0  0  0  0  0
  162.2710  209.9580  151.5420 C   0  0  0  0  0  1  0  0  0  0  0  0
  1 13  1  0  0  0  0
  1  2  2  0  0  0  0
  2 16  1  0  0  0  0
  3  8  1  0  0  0  0
  4  8  1  0  0  0  0
  5  6  1  0  0  0  0
  6  9  2  0  0  0  0
  6  7  1  0  0  0  0
  7  4  2  0  0  0  0
  8 10  1  1  0  0  0
  8  1  1  0  0  0  0
  9  3  1  0  0  0  0
 10 11  1  0  0  0  0
 13 12  2  0  0  0  0
 14 13  1  0  0  0  0
 15 14  1  0  0  0  0
 16 17  1  0  0  0  0
 17 19  1  0  0  0  0
 19 18  2  0  0  0  0
 20 21  1  0  0  0  0
 20 18  1  0  0  0  0
 22 21  1  0  0  0  0
 23 22  1  0  0  0  0
 24 23  1  0  0  0  0
 25 24  1  0  0  0  0
M  END
>  <MODEL>
2

>  <REMARK>
 VINA RESULT:      -6.1      2.270      3.653
  Name = 
  12 active torsions:
  status: ('A' for Active; 'I' for Inactive)
    1  A    between atoms: C_1  and  C_18
    2  A    between atoms: C_1  and  C_24
    3  A    between atoms: C_2  and  O_7
    4  A    between atoms: C_2  and  C_25
    5  A    between atoms: C_3  and  O_16
    6  A    between atoms: C_6  and  C_15
    7  A    between atoms: C_6  and  C_21
    8  A    between atoms: O_13  and  C_24
    9  A    between atoms: O_16  and  C_23
   10  A    between atoms: C_17  and  C_18
   11  A    between atoms: C_20  and  C_23
   12  A    between atoms: C_21  and  C_25
                            x       y       z     vdW  Elec       q    Type
                         _______ _______ _______ _____ _____    ______ ____

>  <TORSDO>
F 12

$$$$
=
 OpenBabel11052422213D

 25 25  0  0  1  0  0  0  0  0999 V2000
  161.1430  205.2150  149.6960 C   0  0  0  0  0  0  0  0  0  0  0  0
  161.0310  206.0980  150.7030 C   0  0  0  0  0  3  0  0  0  0  0  0
  160.2550  206.1890  147.5430 C   0  0  0  0  0  2  0  0  0  0  0  0
  162.1630  204.5640  147.5560 C   0  0  0  0  0  3  0  0  0  0  0  0
  161.4460  205.4800  144.0620 O   0  0  0  0  0  1  0  0  0  0  0  0
  161.3090  205.4340  145.4430 C   0  0  0  0  0  0  0  0  0  0  0  0
  162.0880  204.4600  146.2250 C   0  0  0  0  0  3  0  0  0  0  0  0
  161.5200  205.7130  148.3000 C   0  0  2  0  0  0  0  0  0  0  0  0
  160.4780  206.2800  146.0560 C   0  0  0  0  0  3  0  0  0  0  0  0
  162.5420  206.8710  148.3300 C   0  0  0  0  0  2  0  0  0  0  0  0
  161.8950  208.2400  148.4980 C   0  0  0  0  0  1  0  0  0  0  0  0
  161.7610  203.2060  150.8410 O   0  0  0  0  0  0  0  0  0  0  0  0
  161.0440  203.7510  149.9570 C   0  0  0  0  0  0  0  0  0  0  0  0
  160.1450  202.9780  149.2200 O   0  0  0  0  0  0  0  0  0  0  0  0
  160.3900  201.6100  148.9300 C   0  0  0  0  0  1  0  0  0  0  0  0
  160.7690  205.7240  152.0190 O   0  0  0  0  0  0  0  0  0  0  0  0
  161.6310  206.1270  153.0710 C   0  0  0  0  0  2  0  0  0  0  0  0
  160.8890  208.3810  153.8320 C   0  0  0  0  0  3  0  0  0  0  0  0
  160.9130  207.0540  154.0040 C   0  0  0  0  0  3  0  0  0  0  0  0
  161.5820  209.0800  152.7030 C   0  0  0  0  0  2  0  0  0  0  0  0
  160.7620  210.2680  152.2360 C   0  0  0  0  0  2  0  0  0  0  0  0
  159.9170  210.7780  153.3830 C   0  0  0  0  0  2  0  0  0  0  0  0
  158.6730  211.4430  152.8320 C   0  0  0  0  0  2  0  0  0  0  0  0
  157.7670  211.6670  153.8700 O   0  0  0  0  0  0  0  0  0  0  0  0
  157.3310  212.9770  153.6760 C   0  0  0  0  0  1  0  0  0  0  0  0
  1 13  1  0  0  0  0
  1  2  2  0  0  0  0
  2 16  1  0  0  0  0
  3  8  1  0  0  0  0
  4  8  1  0  0  0  0
  5  6  1  0  0  0  0
  6  9  2  0  0  0  0
  6  7  1  0  0  0  0
  7  4  2  0  0  0  0
  8 10  1  1  0  0  0
  8  1  1  0  0  0  0
  9  3  1  0  0  0  0
 10 11  1  0  0  0  0
 13 12  2  0  0  0  0
 14 13  1  0  0  0  0
 15 14  1  0  0  0  0
 16 17  1  0  0  0  0
 17 19  1  0  0  0  0
 18 19  2  0  0  0  0
 20 18  1  0  0  0  0
 21 20  1  0  0  0  0
 21 22  1  0  0  0  0
 23 22  1  0  0  0  0
 23 24  1  0  0  0  0
 25 24  1  0  0  0  0
M  END
>  <MODEL>
3

>  <REMARK>
 VINA RESULT:      -6.1      2.564      3.999
  Name = 
  12 active torsions:
  status: ('A' for Active; 'I' for Inactive)
    1  A    between atoms: C_1  and  C_18
    2  A    between atoms: C_1  and  C_24
    3  A    between atoms: C_2  and  O_7
    4  A    between atoms: C_2  and  C_25
    5  A    between atoms: C_3  and  O_16
    6  A    between atoms: C_6  and  C_15
    7  A    between atoms: C_6  and  C_21
    8  A    between atoms: O_13  and  C_24
    9  A    between atoms: O_16  and  C_23
   10  A    between atoms: C_17  and  C_18
   11  A    between atoms: C_20  and  C_23
   12  A    between atoms: C_21  and  C_25
                            x       y       z     vdW  Elec       q    Type
                         _______ _______ _______ _____ _____    ______ ____

>  <TORSDO>
F 12

$$$$
=
 OpenBabel11052422213D

 25 25  0  0  1  0  0  0  0  0999 V2000
  161.1560  208.6700  152.9350 C   0  0  0  0  0  0  0  0  0  0  0  0
  161.2140  207.4120  153.4010 C   0  0  0  0  0  3  0  0  0  0  0  0
  159.8770  209.1710  155.0540 C   0  0  0  0  0  2  0  0  0  0  0  0
  159.6680  210.6250  153.0230 C   0  0  0  0  0  3  0  0  0  0  0  0
  157.4810  211.9870  155.6540 O   0  0  0  0  0  1  0  0  0  0  0  0
  158.3680  211.1230  155.0280 C   0  0  0  0  0  0  0  0  0  0  0  0
  158.6430  211.2720  153.5880 C   0  0  0  0  0  3  0  0  0  0  0  0
  160.6210  209.7810  153.8400 C   0  0  2  0  0  0  0  0  0  0  0  0
  158.9760  210.1670  155.7340 C   0  0  0  0  0  3  0  0  0  0  0  0
  161.7320  210.7190  154.3620 C   0  0  0  0  0  2  0  0  0  0  0  0
  162.3490  210.2480  155.6740 C   0  0  0  0  0  1  0  0  0  0  0  0
  162.7290  209.7900  151.5190 O   0  0  0  0  0  0  0  0  0  0  0  0
  161.7370  209.0150  151.6060 C   0  0  0  0  0  0  0  0  0  0  0  0
  161.1800  208.4690  150.4470 O   0  0  0  0  0  0  0  0  0  0  0  0
  161.9820  208.0460  149.3550 C   0  0  0  0  0  1  0  0  0  0  0  0
  161.7580  206.3550  152.6750 O   0  0  0  0  0  0  0  0  0  0  0  0
  160.9190  205.4650  151.9560 C   0  0  0  0  0  2  0  0  0  0  0  0
  161.1650  203.0380  151.4450 C   0  0  0  0  0  3  0  0  0  0  0  0
  161.2330  204.0460  152.3220 C   0  0  0  0  0  3  0  0  0  0  0  0
  160.7590  203.2160  150.0130 C   0  0  0  0  0  2  0  0  0  0  0  0
  160.2030  201.9180  149.4590 C   0  0  0  0  0  2  0  0  0  0  0  0
  160.8210  201.6430  148.1050 C   0  0  0  0  0  2  0  0  0  0  0  0
  161.3560  202.9350  147.5250 C   0  0  0  0  0  2  0  0  0  0  0  0
  161.3190  202.8710  146.1320 O   0  0  0  0  0  0  0  0  0  0  0  0
  161.6570  204.1570  145.7140 C   0  0  0  0  0  1  0  0  0  0  0  0
  1  2  2  0  0  0  0
  1  8  1  0  0  0  0
  3  9  1  0  0  0  0
  4  7  2  0  0  0  0
  4  8  1  0  0  0  0
  6  5  1  0  0  0  0
  6  9  2  0  0  0  0
  7  6  1  0  0  0  0
  8 10  1  1  0  0  0
  8  3  1  0  0  0  0
 10 11  1  0  0  0  0
 12 13  2  0  0  0  0
 13  1  1  0  0  0  0
 14 13  1  0  0  0  0
 15 14  1  0  0  0  0
 16  2  1  0  0  0  0
 17 19  1  0  0  0  0
 17 16  1  0  0  0  0
 18 19  2  0  0  0  0
 20 18  1  0  0  0  0
 21 20  1  0  0  0  0
 22 21  1  0  0  0  0
 23 22  1  0  0  0  0
 24 23  1  0  0  0  0
 25 24  1  0  0  0  0
M  END
>  <MODEL>
4

>  <REMARK>
 VINA RESULT:      -6.1      2.461      9.064
  Name = 
  12 active torsions:
  status: ('A' for Active; 'I' for Inactive)
    1  A    between atoms: C_1  and  C_18
    2  A    between atoms: C_1  and  C_24
    3  A    between atoms: C_2  and  O_7
    4  A    between atoms: C_2  and  C_25
    5  A    between atoms: C_3  and  O_16
    6  A    between atoms: C_6  and  C_15
    7  A    between atoms: C_6  and  C_21
    8  A    between atoms: O_13  and  C_24
    9  A    between atoms: O_16  and  C_23
   10  A    between atoms: C_17  and  C_18
   11  A    between atoms: C_20  and  C_23
   12  A    between atoms: C_21  and  C_25
                            x       y       z     vdW  Elec       q    Type
                         _______ _______ _______ _____ _____    ______ ____

>  <TORSDO>
F 12

$$$$
=
 OpenBabel11052422213D

 25 25  0  0  1  0  0  0  0  0999 V2000
  161.1840  205.5930  149.7220 C   0  0  0  0  0  0  0  0  0  0  0  0
  161.0430  206.6290  150.5670 C   0  0  0  0  0  3  0  0  0  0  0  0
  160.3100  206.3280  147.4700 C   0  0  0  0  0  2  0  0  0  0  0  0
  162.0850  204.5700  147.6760 C   0  0  0  0  0  3  0  0  0  0  0  0
  161.3370  205.0490  144.1020 O   0  0  0  0  0  1  0  0  0  0  0  0
  161.2380  205.2060  145.4780 C   0  0  0  0  0  0  0  0  0  0  0  0
  161.9630  204.2890  146.3750 C   0  0  0  0  0  3  0  0  0  0  0  0
  161.5560  205.8600  148.2630 C   0  0  2  0  0  0  0  0  0  0  0  0
  160.4940  206.1930  145.9810 C   0  0  0  0  0  3  0  0  0  0  0  0
  162.6660  206.9240  148.1100 C   0  0  0  0  0  2  0  0  0  0  0  0
  162.1700  208.3470  148.3380 C   0  0  0  0  0  1  0  0  0  0  0  0
  161.8870  203.8050  151.1510 O   0  0  0  0  0  0  0  0  0  0  0  0
  161.1220  204.1910  150.2240 C   0  0  0  0  0  0  0  0  0  0  0  0
  160.2030  203.2980  149.6680 O   0  0  0  0  0  0  0  0  0  0  0  0
  160.4650  201.9060  149.5820 C   0  0  0  0  0  1  0  0  0  0  0  0
  160.7820  206.4730  151.9260 O   0  0  0  0  0  0  0  0  0  0  0  0
  160.8870  207.5750  152.8130 C   0  0  0  0  0  2  0  0  0  0  0  0
  161.3480  209.9710  152.3050 C   0  0  0  0  0  3  0  0  0  0  0  0
  161.6750  208.6790  152.1770 C   0  0  0  0  0  3  0  0  0  0  0  0
  160.1600  210.4480  153.0840 C   0  0  0  0  0  2  0  0  0  0  0  0
  160.6090  211.2620  154.2840 C   0  0  0  0  0  2  0  0  0  0  0  0
  160.8140  210.3420  155.4680 C   0  0  0  0  0  2  0  0  0  0  0  0
  162.2690  210.3770  155.8850 C   0  0  0  0  0  2  0  0  0  0  0  0
  162.4970  209.4040  156.8590 O   0  0  0  0  0  0  0  0  0  0  0  0
  161.7830  208.2920  156.4150 C   0  0  0  0  0  1  0  0  0  0  0  0
  1 13  1  0  0  0  0
  1  2  2  0  0  0  0
  2 16  1  0  0  0  0
  3  8  1  0  0  0  0
  4  8  1  0  0  0  0
  5  6  1  0  0  0  0
  6  9  2  0  0  0  0
  6  7  1  0  0  0  0
  7  4  2  0  0  0  0
  8 10  1  6  0  0  0
  8  1  1  0  0  0  0
  9  3  1  0  0  0  0
 10 11  1  0  0  0  0
 13 12  2  0  0  0  0
 14 13  1  0  0  0  0
 15 14  1  0  0  0  0
 16 17  1  0  0  0  0
 18 20  1  0  0  0  0
 19 18  2  0  0  0  0
 19 17  1  0  0  0  0
 20 21  1  0  0  0  0
 21 22  1  0  0  0  0
 22 23  1  0  0  0  0
 23 24  1  0  0  0  0
 25 24  1  0  0  0  0
M  END
>  <MODEL>
5

>  <REMARK>
 VINA RESULT:      -6.0      1.982      3.381
  Name = 
  12 active torsions:
  status: ('A' for Active; 'I' for Inactive)
    1  A    between atoms: C_1  and  C_18
    2  A    between atoms: C_1  and  C_24
    3  A    between atoms: C_2  and  O_7
    4  A    between atoms: C_2  and  C_25
    5  A    between atoms: C_3  and  O_16
    6  A    between atoms: C_6  and  C_15
    7  A    between atoms: C_6  and  C_21
    8  A    between atoms: O_13  and  C_24
    9  A    between atoms: O_16  and  C_23
   10  A    between atoms: C_17  and  C_18
   11  A    between atoms: C_20  and  C_23
   12  A    between atoms: C_21  and  C_25
                            x       y       z     vdW  Elec       q    Type
                         _______ _______ _______ _____ _____    ______ ____

>  <TORSDO>
F 12

$$$$
=
 OpenBabel11052422213D

 25 25  0  0  1  0  0  0  0  0999 V2000
  161.5930  205.8840  149.3790 C   0  0  0  0  0  0  0  0  0  0  0  0
  162.2980  207.0220  149.4950 C   0  0  0  0  0  3  0  0  0  0  0  0
  162.7160  205.1220  147.2490 C   0  0  0  0  0  2  0  0  0  0  0  0
  160.4630  206.2220  147.2220 C   0  0  0  0  0  3  0  0  0  0  0  0
  161.4170  205.4480  143.7500 O   0  0  0  0  0  1  0  0  0  0  0  0
  161.5260  205.5520  145.1300 C   0  0  0  0  0  0  0  0  0  0  0  0
  160.5220  206.3160  145.8890 C   0  0  0  0  0  3  0  0  0  0  0  0
  161.3650  205.2820  147.9910 C   0  0  2  0  0  0  0  0  0  0  0  0
  162.5360  204.9510  145.7630 C   0  0  0  0  0  3  0  0  0  0  0  0
  160.6630  203.9080  148.0400 C   0  0  0  0  0  2  0  0  0  0  0  0
  161.6280  202.7350  147.9170 C   0  0  0  0  0  1  0  0  0  0  0  0
  160.0440  205.3780  151.1320 O   0  0  0  0  0  0  0  0  0  0  0  0
  161.1580  205.1340  150.5900 C   0  0  0  0  0  0  0  0  0  0  0  0
  161.9880  204.1480  151.1280 O   0  0  0  0  0  0  0  0  0  0  0  0
  161.4680  202.9620  151.7090 C   0  0  0  0  0  1  0  0  0  0  0  0
  162.6180  207.5970  150.7230 O   0  0  0  0  0  0  0  0  0  0  0  0
  162.3090  208.9560  150.9870 C   0  0  0  0  0  2  0  0  0  0  0  0
  160.5820  208.4900  152.7220 C   0  0  0  0  0  3  0  0  0  0  0  0
  160.9330  209.0720  151.5690 C   0  0  0  0  0  3  0  0  0  0  0  0
  161.5160  207.6560  153.5440 C   0  0  0  0  0  2  0  0  0  0  0  0
  160.7330  206.7240  154.4490 C   0  0  0  0  0  2  0  0  0  0  0  0
  160.3110  207.4700  155.6960 C   0  0  0  0  0  2  0  0  0  0  0  0
  161.5210  208.1370  156.3160 C   0  0  0  0  0  2  0  0  0  0  0  0
  161.2520  209.4910  156.5190 O   0  0  0  0  0  0  0  0  0  0  0  0
  162.4710  210.1270  156.2880 C   0  0  0  0  0  1  0  0  0  0  0  0
  1  2  2  0  0  0  0
  1 13  1  0  0  0  0
  2 16  1  0  0  0  0
  3  8  1  0  0  0  0
  4  8  1  0  0  0  0
  5  6  1  0  0  0  0
  6  9  2  0  0  0  0
  6  7  1  0  0  0  0
  7  4  2  0  0  0  0
  8 10  1  1  0  0  0
  8  1  1  0  0  0  0
  9  3  1  0  0  0  0
 11 10  1  0  0  0  0
 13 14  1  0  0  0  0
 13 12  2  0  0  0  0
 14 15  1  0  0  0  0
 16 17  1  0  0  0  0
 17 19  1  0  0  0  0
 18 20  1  0  0  0  0
 19 18  2  0  0  0  0
 20 21  1  0  0  0  0
 21 22  1  0  0  0  0
 22 23  1  0  0  0  0
 23 24  1  0  0  0  0
 25 24  1  0  0  0  0
M  END
>  <MODEL>
6

>  <REMARK>
 VINA RESULT:      -6.0      1.858      3.161
  Name = 
  12 active torsions:
  status: ('A' for Active; 'I' for Inactive)
    1  A    between atoms: C_1  and  C_18
    2  A    between atoms: C_1  and  C_24
    3  A    between atoms: C_2  and  O_7
    4  A    between atoms: C_2  and  C_25
    5  A    between atoms: C_3  and  O_16
    6  A    between atoms: C_6  and  C_15
    7  A    between atoms: C_6  and  C_21
    8  A    between atoms: O_13  and  C_24
    9  A    between atoms: O_16  and  C_23
   10  A    between atoms: C_17  and  C_18
   11  A    between atoms: C_20  and  C_23
   12  A    between atoms: C_21  and  C_25
                            x       y       z     vdW  Elec       q    Type
                         _______ _______ _______ _____ _____    ______ ____

>  <TORSDO>
F 12

$$$$
=
 OpenBabel11052422213D

 25 25  0  0  1  0  0  0  0  0999 V2000
  161.6120  208.2270  152.1180 C   0  0  0  0  0  0  0  0  0  0  0  0
  161.9380  208.9210  151.0140 C   0  0  0  0  0  3  0  0  0  0  0  0
  159.8980  209.9570  152.7850 C   0  0  0  0  0  2  0  0  0  0  0  0
  162.0530  209.6960  154.0400 C   0  0  0  0  0  3  0  0  0  0  0  0
  160.1300  212.4250  155.5940 O   0  0  0  0  0  1  0  0  0  0  0  0
  160.4530  211.4190  154.6940 C   0  0  0  0  0  0  0  0  0  0  0  0
  161.8000  210.8220  154.7140 C   0  0  0  0  0  3  0  0  0  0  0  0
  160.9630  208.9550  153.2960 C   0  0  2  0  0  0  0  0  0  0  0  0
  159.5390  210.9890  153.8210 C   0  0  0  0  0  3  0  0  0  0  0  0
  160.2930  207.9920  154.3020 C   0  0  0  0  0  2  0  0  0  0  0  0
  161.1650  207.6900  155.5160 C   0  0  0  0  0  1  0  0  0  0  0  0
  162.7610  206.1990  152.6640 O   0  0  0  0  0  0  0  0  0  0  0  0
  161.7450  206.7430  152.1480 C   0  0  0  0  0  0  0  0  0  0  0  0
  160.7340  205.9470  151.6050 O   0  0  0  0  0  0  0  0  0  0  0  0
  160.9280  204.5680  151.3300 C   0  0  0  0  0  1  0  0  0  0  0  0
  162.4610  208.3260  149.8680 O   0  0  0  0  0  0  0  0  0  0  0  0
  161.7390  208.3530  148.6470 C   0  0  0  0  0  2  0  0  0  0  0  0
  161.2380  206.0990  147.7090 C   0  0  0  0  0  3  0  0  0  0  0  0
  160.9030  207.1160  148.5120 C   0  0  0  0  0  3  0  0  0  0  0  0
  162.4700  206.0900  146.8570 C   0  0  0  0  0  2  0  0  0  0  0  0
  162.7280  204.6960  146.3170 C   0  0  0  0  0  2  0  0  0  0  0  0
  161.6060  203.7750  146.7460 C   0  0  0  0  0  2  0  0  0  0  0  0
  161.1120  202.9930  145.5460 C   0  0  0  0  0  2  0  0  0  0  0  0
  160.7660  201.7010  145.9430 O   0  0  0  0  0  0  0  0  0  0  0  0
  159.8910  201.2550  144.9540 C   0  0  0  0  0  1  0  0  0  0  0  0
  1 13  1  0  0  0  0
  1  8  1  0  0  0  0
  2  1  2  0  0  0  0
  3  8  1  0  0  0  0
  3  9  1  0  0  0  0
  4  7  2  0  0  0  0
  6  7  1  0  0  0  0
  6  5  1  0  0  0  0
  8  4  1  0  0  0  0
  8 10  1  1  0  0  0
  9  6  2  0  0  0  0
 10 11  1  0  0  0  0
 13 12  2  0  0  0  0
 14 13  1  0  0  0  0
 15 14  1  0  0  0  0
 16  2  1  0  0  0  0
 17 16  1  0  0  0  0
 18 19  2  0  0  0  0
 19 17  1  0  0  0  0
 20 18  1  0  0  0  0
 21 22  1  0  0  0  0
 21 20  1  0  0  0  0
 23 24  1  0  0  0  0
 23 22  1  0  0  0  0
 25 24  1  0  0  0  0
M  END
>  <MODEL>
7

>  <REMARK>
 VINA RESULT:      -5.9      1.787      9.316
  Name = 
  12 active torsions:
  status: ('A' for Active; 'I' for Inactive)
    1  A    between atoms: C_1  and  C_18
    2  A    between atoms: C_1  and  C_24
    3  A    between atoms: C_2  and  O_7
    4  A    between atoms: C_2  and  C_25
    5  A    between atoms: C_3  and  O_16
    6  A    between atoms: C_6  and  C_15
    7  A    between atoms: C_6  and  C_21
    8  A    between atoms: O_13  and  C_24
    9  A    between atoms: O_16  and  C_23
   10  A    between atoms: C_17  and  C_18
   11  A    between atoms: C_20  and  C_23
   12  A    between atoms: C_21  and  C_25
                            x       y       z     vdW  Elec       q    Type
                         _______ _______ _______ _____ _____    ______ ____

>  <TORSDO>
F 12

$$$$
=
 OpenBabel11052422213D

 25 25  0  0  1  0  0  0  0  0999 V2000
  161.2070  204.6460  148.3400 C   0  0  0  0  0  0  0  0  0  0  0  0
  160.9330  203.5840  149.1160 C   0  0  0  0  0  3  0  0  0  0  0  0
  162.6870  205.2110  146.3730 C   0  0  0  0  0  2  0  0  0  0  0  0
  160.2050  204.9700  146.1180 C   0  0  0  0  0  3  0  0  0  0  0  0
  161.6290  205.8280  142.8320 O   0  0  0  0  0  1  0  0  0  0  0  0
  161.5830  205.5690  144.1950 C   0  0  0  0  0  0  0  0  0  0  0  0
  160.2810  205.4610  144.8770 C   0  0  0  0  0  3  0  0  0  0  0  0
  161.4250  204.4420  146.8390 C   0  0  2  0  0  0  0  0  0  0  0  0
  162.7170  205.4110  144.8800 C   0  0  0  0  0  3  0  0  0  0  0  0
  161.5820  202.9550  146.4510 C   0  0  0  0  0  2  0  0  0  0  0  0
  160.4730  202.4550  145.5320 C   0  0  0  0  0  1  0  0  0  0  0  0
  160.0820  206.4990  149.3550 O   0  0  0  0  0  0  0  0  0  0  0  0
  161.1590  206.0260  148.8990 C   0  0  0  0  0  0  0  0  0  0  0  0
  162.3210  206.8020  148.9230 O   0  0  0  0  0  0  0  0  0  0  0  0
  162.2990  208.1980  148.6650 C   0  0  0  0  0  1  0  0  0  0  0  0
  160.6450  203.6880  150.4740 O   0  0  0  0  0  0  0  0  0  0  0  0
  161.6860  203.8570  151.4230 C   0  0  0  0  0  2  0  0  0  0  0  0
  161.2520  205.6250  153.1250 C   0  0  0  0  0  3  0  0  0  0  0  0
  161.1280  204.3550  152.7220 C   0  0  0  0  0  3  0  0  0  0  0  0
  161.9660  206.6770  152.3320 C   0  0  0  0  0  2  0  0  0  0  0  0
  161.2430  208.0060  152.4490 C   0  0  0  0  0  2  0  0  0  0  0  0
  160.8460  208.2390  153.8900 C   0  0  0  0  0  2  0  0  0  0  0  0
  161.1990  209.6570  154.2860 C   0  0  0  0  0  2  0  0  0  0  0  0
  161.1440  210.4820  153.1620 O   0  0  0  0  0  0  0  0  0  0  0  0
  160.0120  211.2700  153.3630 C   0  0  0  0  0  1  0  0  0  0  0  0
  1 13  1  0  0  0  0
  1  2  2  0  0  0  0
  2 16  1  0  0  0  0
  3  8  1  0  0  0  0
  4  8  1  0  0  0  0
  5  6  1  0  0  0  0
  6  7  1  0  0  0  0
  6  9  2  0  0  0  0
  7  4  2  0  0  0  0
  8 10  1  6  0  0  0
  8  1  1  0  0  0  0
  9  3  1  0  0  0  0
 11 10  1  0  0  0  0
 13 14  1  0  0  0  0
 13 12  2  0  0  0  0
 15 14  1  0  0  0  0
 16 17  1  0  0  0  0
 17 19  1  0  0  0  0
 19 18  2  0  0  0  0
 20 21  1  0  0  0  0
 20 18  1  0  0  0  0
 21 22  1  0  0  0  0
 22 23  1  0  0  0  0
 24 25  1  0  0  0  0
 24 23  1  0  0  0  0
M  END
>  <MODEL>
8

>  <REMARK>
 VINA RESULT:      -5.7      1.996      2.901
  Name = 
  12 active torsions:
  status: ('A' for Active; 'I' for Inactive)
    1  A    between atoms: C_1  and  C_18
    2  A    between atoms: C_1  and  C_24
    3  A    between atoms: C_2  and  O_7
    4  A    between atoms: C_2  and  C_25
    5  A    between atoms: C_3  and  O_16
    6  A    between atoms: C_6  and  C_15
    7  A    between atoms: C_6  and  C_21
    8  A    between atoms: O_13  and  C_24
    9  A    between atoms: O_16  and  C_23
   10  A    between atoms: C_17  and  C_18
   11  A    between atoms: C_20  and  C_23
   12  A    between atoms: C_21  and  C_25
                            x       y       z     vdW  Elec       q    Type
                         _______ _______ _______ _____ _____    ______ ____

>  <TORSDO>
F 12

$$$$
=
 OpenBabel11052422213D

 25 25  0  0  1  0  0  0  0  0999 V2000
  160.4310  209.1210  154.5540 C   0  0  0  0  0  0  0  0  0  0  0  0
  160.9960  208.5970  153.4530 C   0  0  0  0  0  3  0  0  0  0  0  0
  158.5370  210.6050  155.3190 C   0  0  0  0  0  2  0  0  0  0  0  0
  159.5680  210.8620  153.0480 C   0  0  0  0  0  3  0  0  0  0  0  0
  156.8740  213.3500  153.3860 O   0  0  0  0  0  1  0  0  0  0  0  0
  157.7050  212.2890  153.7180 C   0  0  0  0  0  0  0  0  0  0  0  0
  158.5910  211.7040  152.6960 C   0  0  0  0  0  3  0  0  0  0  0  0
  159.8490  210.5340  154.4980 C   0  0  2  0  0  0  0  0  0  0  0  0
  157.7030  211.8080  154.9630 C   0  0  0  0  0  3  0  0  0  0  0  0
  160.8240  211.6070  155.0320 C   0  0  0  0  0  2  0  0  0  0  0  0
  160.4720  212.0960  156.4310 C   0  0  0  0  0  1  0  0  0  0  0  0
  159.4630  207.2970  155.7650 O   0  0  0  0  0  0  0  0  0  0  0  0
  160.2410  208.2910  155.7770 C   0  0  0  0  0  0  0  0  0  0  0  0
  160.9350  208.6130  156.9450 O   0  0  0  0  0  0  0  0  0  0  0  0
  162.3270  208.8920  156.9420 C   0  0  0  0  0  1  0  0  0  0  0  0
  161.4810  207.2920  153.3930 O   0  0  0  0  0  0  0  0  0  0  0  0
  161.6270  206.6320  152.1460 C   0  0  0  0  0  2  0  0  0  0  0  0
  160.9500  204.3740  151.3370 C   0  0  0  0  0  3  0  0  0  0  0  0
  161.4260  205.1570  152.3130 C   0  0  0  0  0  3  0  0  0  0  0  0
  160.5590  204.8870  149.9850 C   0  0  0  0  0  2  0  0  0  0  0  0
  161.1650  204.0200  148.8970 C   0  0  0  0  0  2  0  0  0  0  0  0
  161.5490  204.8860  147.7180 C   0  0  0  0  0  2  0  0  0  0  0  0
  162.0150  204.0050  146.5780 C   0  0  0  0  0  2  0  0  0  0  0  0
  160.9530  203.7740  145.7040 O   0  0  0  0  0  0  0  0  0  0  0  0
  160.8380  202.3860  145.6530 C   0  0  0  0  0  1  0  0  0  0  0  0
  1 13  1  0  0  0  0
  2  1  2  0  0  0  0
  4  8  1  0  0  0  0
  5  6  1  0  0  0  0
  6  9  2  0  0  0  0
  7  4  2  0  0  0  0
  7  6  1  0  0  0  0
  8  1  1  0  0  0  0
  8 10  1  1  0  0  0
  8  3  1  0  0  0  0
  9  3  1  0  0  0  0
 10 11  1  0  0  0  0
 12 13  2  0  0  0  0
 13 14  1  0  0  0  0
 15 14  1  0  0  0  0
 16  2  1  0  0  0  0
 17 19  1  0  0  0  0
 17 16  1  0  0  0  0
 18 19  2  0  0  0  0
 20 18  1  0  0  0  0
 21 20  1  0  0  0  0
 22 21  1  0  0  0  0
 23 22  1  0  0  0  0
 24 23  1  0  0  0  0
 25 24  1  0  0  0  0
M  END
>  <MODEL>
9

>  <REMARK>
 VINA RESULT:      -5.6      2.982      9.853
  Name = 
  12 active torsions:
  status: ('A' for Active; 'I' for Inactive)
    1  A    between atoms: C_1  and  C_18
    2  A    between atoms: C_1  and  C_24
    3  A    between atoms: C_2  and  O_7
    4  A    between atoms: C_2  and  C_25
    5  A    between atoms: C_3  and  O_16
    6  A    between atoms: C_6  and  C_15
    7  A    between atoms: C_6  and  C_21
    8  A    between atoms: O_13  and  C_24
    9  A    between atoms: O_16  and  C_23
   10  A    between atoms: C_17  and  C_18
   11  A    between atoms: C_20  and  C_23
   12  A    between atoms: C_21  and  C_25
                            x       y       z     vdW  Elec       q    Type
                         _______ _______ _______ _____ _____    ______ ____

>  <TORSDO>
F 12

$$$$
