=
 OpenBabel11052422563D

 28 31  0  0  1  0  0  0  0  0999 V2000
  160.3320  211.1640  153.6630 C   0  0  1  0  0  3  0  0  0  0  0  0
  161.0630  207.5570  150.0290 C   0  0  0  0  0  3  0  0  0  0  0  0
  160.6710  206.8300  156.2290 C   0  0  0  0  0  1  0  0  0  0  0  0
  161.1930  205.4810  151.2870 C   0  0  0  0  0  0  0  0  0  0  0  0
  160.8750  207.5900  152.4810 C   0  0  0  0  0  0  0  0  0  0  0  0
  161.3770  205.4530  148.8720 C   0  0  0  0  0  0  0  0  0  0  0  0
  161.0420  206.8900  151.2660 C   0  0  0  0  0  0  0  0  0  0  0  0
  161.0100  205.4830  153.6970 C   0  0  0  0  0  3  0  0  0  0  0  0
  161.3590  204.7750  150.0920 C   0  0  0  0  0  3  0  0  0  0  0  0
  160.5490  208.9750  154.9150 C   0  0  0  0  0  0  0  0  0  0  0  0
  160.7180  208.9820  152.4930 C   0  0  0  0  0  3  0  0  0  0  0  0
  161.1750  204.7920  152.4980 C   0  0  0  0  0  3  0  0  0  0  0  0
  160.4490  211.0660  156.1940 C   0  0  0  0  0  3  0  0  0  0  0  0
  160.6910  207.5740  154.9260 C   0  0  0  0  0  0  0  0  0  0  0  0
  160.3790  209.7340  156.1730 C   0  0  0  0  0  3  0  0  0  0  0  0
  161.5860  204.5620  147.3800 Cl  0  0  0  0  0  0  0  0  0  0  0  0
  161.2300  206.8420  148.8400 C   0  0  0  0  0  3  0  0  0  0  0  0
  160.8580  206.8780  153.7080 C   0  0  0  0  0  0  0  0  0  0  0  0
  160.7860  211.8560  154.9580 C   0  0  0  0  0  2  0  0  0  0  0  0
  160.5580  209.6740  153.6930 C   0  0  0  0  0  0  0  0  0  0  0  0
  158.9060  211.5280  153.2310 C   0  0  2  0  0  3  0  0  0  0  0  0
  158.8700  211.8590  151.8730 O   0  0  0  0  0  1  0  0  0  0  0  0
  158.2260  212.5800  154.1250 C   0  0  0  0  0  2  0  0  0  0  0  0
  156.8630  210.9130  155.2750 C   0  0  0  0  0  2  0  0  0  0  0  0
  156.9380  212.1290  154.7450 C   0  0  0  0  0  0  0  0  0  0  0  0
  155.7780  213.0360  154.7820 C   0  0  0  0  0  0  0  0  0  0  0  0
  155.1580  213.4190  153.5990 O   0  0  0  0  0  0  0  0  0  0  0  0
  155.3360  213.4710  155.8790 O   0  0  0  0  0  1  0  0  0  0  0  0
  1 21  1  1  0  0  0
  1 20  1  0  0  0  0
  1 19  1  0  0  0  0
  2  7  1  0  0  0  0
  4 12  1  0  0  0  0
  5 11  2  0  0  0  0
  5 18  1  0  0  0  0
  6  9  2  0  0  0  0
  7  4  2  0  0  0  0
  7  5  1  0  0  0  0
  8 18  1  0  0  0  0
  9  4  1  0  0  0  0
 10 14  1  0  0  0  0
 10 15  1  0  0  0  0
 11 20  1  0  0  0  0
 12  8  2  0  0  0  0
 14  3  1  0  0  0  0
 15 13  2  0  0  0  0
 16  6  1  0  0  0  0
 17  6  1  0  0  0  0
 17  2  2  0  0  0  0
 18 14  2  0  0  0  0
 19 13  1  0  0  0  0
 20 10  2  0  0  0  0
 21 22  1  6  0  0  0
 21 23  1  0  0  0  0
 23 25  1  0  0  0  0
 25 26  1  0  0  0  0
 25 24  2  0  0  0  0
 26 28  1  0  0  0  0
 27 26  2  0  0  0  0
M  END
>  <MODEL>
1

>  <REMARK>
 VINA RESULT:      -8.6      0.000      0.000
  Name = 
  4 active torsions:
  status: ('A' for Active; 'I' for Inactive)
    1  A    between atoms: C_1  and  C_2
    2  A    between atoms: C_2  and  C_3
    3  A    between atoms: C_3  and  C_11
    4  A    between atoms: C_6  and  C_11
                            x       y       z     vdW  Elec       q    Type
                         _______ _______ _______ _____ _____    ______ ____

>  <TORSDO>
F 4

$$$$
=
 OpenBabel11052422563D

 28 31  0  0  1  0  0  0  0  0999 V2000
  160.4860  208.1900  153.0950 C   0  0  1  0  0  3  0  0  0  0  0  0
  160.6870  203.8670  150.2610 C   0  0  0  0  0  3  0  0  0  0  0  0
  162.3270  209.6810  148.6370 C   0  0  0  0  0  1  0  0  0  0  0  0
  161.6030  204.6070  148.1350 C   0  0  0  0  0  0  0  0  0  0  0  0
  161.2370  206.2400  149.9170 C   0  0  0  0  0  0  0  0  0  0  0  0
  161.0610  202.2720  148.4790 C   0  0  0  0  0  0  0  0  0  0  0  0
  161.1720  204.9080  149.4500 C   0  0  0  0  0  0  0  0  0  0  0  0
  162.1550  206.9320  147.7680 C   0  0  0  0  0  3  0  0  0  0  0  0
  161.5450  203.2940  147.6600 C   0  0  0  0  0  3  0  0  0  0  0  0
  161.3670  208.9040  150.8320 C   0  0  0  0  0  0  0  0  0  0  0  0
  160.8230  206.5680  151.2140 C   0  0  0  0  0  3  0  0  0  0  0  0
  162.0890  205.6180  147.3080 C   0  0  0  0  0  3  0  0  0  0  0  0
  160.8260  210.6280  152.4900 C   0  0  0  0  0  3  0  0  0  0  0  0
  161.8020  208.5940  149.5280 C   0  0  0  0  0  0  0  0  0  0  0  0
  161.4180  210.2900  151.3430 C   0  0  0  0  0  3  0  0  0  0  0  0
  160.9900  200.6310  147.8770 Cl  0  0  0  0  0  0  0  0  0  0  0  0
  160.6320  202.5580  149.7770 C   0  0  0  0  0  3  0  0  0  0  0  0
  161.7340  207.2610  149.0670 C   0  0  0  0  0  0  0  0  0  0  0  0
  160.0070  209.6390  153.2750 C   0  0  0  0  0  2  0  0  0  0  0  0
  160.8840  207.8840  151.6730 C   0  0  0  0  0  0  0  0  0  0  0  0
  161.5570  207.7590  154.1040 C   0  0  2  0  0  3  0  0  0  0  0  0
  162.1840  206.5810  153.6880 O   0  0  0  0  0  1  0  0  0  0  0  0
  161.0610  207.6950  155.5600 C   0  0  0  0  0  2  0  0  0  0  0  0
  160.0230  209.4270  156.9310 C   0  0  0  0  0  2  0  0  0  0  0  0
  161.1060  209.0040  156.2890 C   0  0  0  0  0  0  0  0  0  0  0  0
  162.3470  209.7970  156.3080 C   0  0  0  0  0  0  0  0  0  0  0  0
  162.6250  210.6770  155.2680 O   0  0  0  0  0  0  0  0  0  0  0  0
  163.1660  209.6900  157.2600 O   0  0  0  0  0  1  0  0  0  0  0  0
  1 19  1  0  0  0  0
  1 21  1  1  0  0  0
  3 14  1  0  0  0  0
  4  7  1  0  0  0  0
  5 11  1  0  0  0  0
  6 17  2  0  0  0  0
  7  5  1  0  0  0  0
  7  2  2  0  0  0  0
  8 18  1  0  0  0  0
  9  4  2  0  0  0  0
  9  6  1  0  0  0  0
 10 15  1  0  0  0  0
 10 20  1  0  0  0  0
 11 20  2  0  0  0  0
 12  8  2  0  0  0  0
 12  4  1  0  0  0  0
 13 19  1  0  0  0  0
 14 10  2  0  0  0  0
 15 13  2  0  0  0  0
 16  6  1  0  0  0  0
 17  2  1  0  0  0  0
 18 14  1  0  0  0  0
 18  5  2  0  0  0  0
 20  1  1  0  0  0  0
 21 22  1  6  0  0  0
 21 23  1  0  0  0  0
 23 25  1  0  0  0  0
 25 26  1  0  0  0  0
 25 24  2  0  0  0  0
 26 28  1  0  0  0  0
 27 26  2  0  0  0  0
M  END
>  <MODEL>
2

>  <REMARK>
 VINA RESULT:      -8.5      3.212      5.052
  Name = 
  4 active torsions:
  status: ('A' for Active; 'I' for Inactive)
    1  A    between atoms: C_1  and  C_2
    2  A    between atoms: C_2  and  C_3
    3  A    between atoms: C_3  and  C_11
    4  A    between atoms: C_6  and  C_11
                            x       y       z     vdW  Elec       q    Type
                         _______ _______ _______ _____ _____    ______ ____

>  <TORSDO>
F 4

$$$$
=
 OpenBabel11052422563D

 28 31  0  0  1  0  0  0  0  0999 V2000
  161.2710  203.6170  146.3100 C   0  0  1  0  0  3  0  0  0  0  0  0
  161.2060  207.1840  150.0550 C   0  0  0  0  0  3  0  0  0  0  0  0
  161.2060  200.9530  150.5970 C   0  0  0  0  0  1  0  0  0  0  0  0
  161.2060  205.8770  152.1040 C   0  0  0  0  0  0  0  0  0  0  0  0
  161.2050  204.7270  149.9470 C   0  0  0  0  0  0  0  0  0  0  0  0
  161.2080  208.2970  152.2050 C   0  0  0  0  0  0  0  0  0  0  0  0
  161.2060  205.9290  150.6880 C   0  0  0  0  0  0  0  0  0  0  0  0
  161.2060  203.4610  152.0290 C   0  0  0  0  0  3  0  0  0  0  0  0
  161.2070  207.0580  152.8500 C   0  0  0  0  0  3  0  0  0  0  0  0
  161.1960  202.3180  148.4810 C   0  0  0  0  0  0  0  0  0  0  0  0
  161.2100  204.7450  148.5460 C   0  0  0  0  0  3  0  0  0  0  0  0
  161.2060  204.6470  152.7600 C   0  0  0  0  0  3  0  0  0  0  0  0
  160.9750  201.1000  146.3640 C   0  0  0  0  0  3  0  0  0  0  0  0
  161.2040  202.2760  149.8890 C   0  0  0  0  0  0  0  0  0  0  0  0
  161.1880  201.0750  147.6810 C   0  0  0  0  0  3  0  0  0  0  0  0
  161.2090  209.7720  153.1460 Cl  0  0  0  0  0  0  0  0  0  0  0  0
  161.2080  208.3600  150.8090 C   0  0  0  0  0  3  0  0  0  0  0  0
  161.2050  203.4810  150.6250 C   0  0  0  0  0  0  0  0  0  0  0  0
  160.6490  202.3800  145.6430 C   0  0  0  0  0  2  0  0  0  0  0  0
  161.2040  203.5580  147.8140 C   0  0  0  0  0  0  0  0  0  0  0  0
  162.6780  203.9560  145.8020 C   0  0  2  0  0  3  0  0  0  0  0  0
  163.6040  203.9170  146.8490 O   0  0  0  0  0  1  0  0  0  0  0  0
  162.7540  205.2550  144.9800 C   0  0  0  0  0  2  0  0  0  0  0  0
  161.2060  205.7290  143.1520 C   0  0  0  0  0  2  0  0  0  0  0  0
  161.4340  205.7400  144.4610 C   0  0  0  0  0  0  0  0  0  0  0  0
  160.3970  206.2030  145.4000 C   0  0  0  0  0  0  0  0  0  0  0  0
  160.7380  207.0470  146.4500 O   0  0  0  0  0  1  0  0  0  0  0  0
  159.1970  205.8450  145.2610 O   0  0  0  0  0  0  0  0  0  0  0  0
  1 21  1  1  0  0  0
  1 20  1  0  0  0  0
  2  7  2  0  0  0  0
  2 17  1  0  0  0  0
  4 12  1  0  0  0  0
  4  9  2  0  0  0  0
  5 18  1  0  0  0  0
  5  7  1  0  0  0  0
  6  9  1  0  0  0  0
  6 16  1  0  0  0  0
  7  4  1  0  0  0  0
  8 12  2  0  0  0  0
 10 14  1  0  0  0  0
 11  5  2  0  0  0  0
 13 15  2  0  0  0  0
 14  3  1  0  0  0  0
 14 18  2  0  0  0  0
 15 10  1  0  0  0  0
 17  6  2  0  0  0  0
 18  8  1  0  0  0  0
 19  1  1  0  0  0  0
 19 13  1  0  0  0  0
 20 10  2  0  0  0  0
 20 11  1  0  0  0  0
 21 22  1  1  0  0  0
 23 21  1  0  0  0  0
 24 25  2  0  0  0  0
 25 23  1  0  0  0  0
 25 26  1  0  0  0  0
 26 27  1  0  0  0  0
 28 26  2  0  0  0  0
M  END
>  <MODEL>
3

>  <REMARK>
 VINA RESULT:      -8.4      4.969      9.080
  Name = 
  4 active torsions:
  status: ('A' for Active; 'I' for Inactive)
    1  A    between atoms: C_1  and  C_2
    2  A    between atoms: C_2  and  C_3
    3  A    between atoms: C_3  and  C_11
    4  A    between atoms: C_6  and  C_11
                            x       y       z     vdW  Elec       q    Type
                         _______ _______ _______ _____ _____    ______ ____

>  <TORSDO>
F 4

$$$$
=
 OpenBabel11052422563D

 28 31  0  0  1  0  0  0  0  0999 V2000
  161.4620  210.4670  153.1390 C   0  0  1  0  0  3  0  0  0  0  0  0
  161.5240  207.7890  148.7140 C   0  0  0  0  0  3  0  0  0  0  0  0
  160.8390  205.6620  154.5560 C   0  0  0  0  0  1  0  0  0  0  0  0
  161.1930  205.4870  149.4220 C   0  0  0  0  0  0  0  0  0  0  0  0
  161.2870  207.2580  151.1040 C   0  0  0  0  0  0  0  0  0  0  0  0
  161.4260  206.0150  147.0700 C   0  0  0  0  0  0  0  0  0  0  0  0
  161.3360  206.8580  149.7500 C   0  0  0  0  0  0  0  0  0  0  0  0
  160.9550  204.9360  151.7640 C   0  0  0  0  0  3  0  0  0  0  0  0
  161.2390  205.0760  148.0870 C   0  0  0  0  0  3  0  0  0  0  0  0
  161.1930  208.0410  153.8110 C   0  0  0  0  0  0  0  0  0  0  0  0
  161.4200  208.6060  151.4610 C   0  0  0  0  0  3  0  0  0  0  0  0
  161.0040  204.5410  150.4280 C   0  0  0  0  0  3  0  0  0  0  0  0
  161.4940  209.7300  155.5650 C   0  0  0  0  0  3  0  0  0  0  0  0
  161.0440  206.6820  153.4750 C   0  0  0  0  0  0  0  0  0  0  0  0
  161.1530  208.4870  155.2200 C   0  0  0  0  0  3  0  0  0  0  0  0
  161.4840  205.4930  145.4000 Cl  0  0  0  0  0  0  0  0  0  0  0  0
  161.5690  207.3690  147.3830 C   0  0  0  0  0  3  0  0  0  0  0  0
  161.0940  206.2870  152.1200 C   0  0  0  0  0  0  0  0  0  0  0  0
  162.0170  210.7120  154.5510 C   0  0  0  0  0  2  0  0  0  0  0  0
  161.3750  209.0010  152.7980 C   0  0  0  0  0  0  0  0  0  0  0  0
  160.1530  211.2100  152.8480 C   0  0  2  0  0  3  0  0  0  0  0  0
  160.2240  211.8740  151.6190 O   0  0  0  0  0  1  0  0  0  0  0  0
  159.6750  212.1180  153.9960 C   0  0  0  0  0  2  0  0  0  0  0  0
  158.0500  210.9150  155.3640 C   0  0  0  0  0  2  0  0  0  0  0  0
  158.2710  211.8550  154.4520 C   0  0  0  0  0  0  0  0  0  0  0  0
  157.1570  212.6480  153.9050 C   0  0  0  0  0  0  0  0  0  0  0  0
  155.8920  212.5520  154.4730 O   0  0  0  0  0  1  0  0  0  0  0  0
  157.3360  213.4200  152.9250 O   0  0  0  0  0  0  0  0  0  0  0  0
  1 21  1  1  0  0  0
  1 19  1  0  0  0  0
  2  7  1  0  0  0  0
  4  7  2  0  0  0  0
  4 12  1  0  0  0  0
  5 11  2  0  0  0  0
  5 18  1  0  0  0  0
  6 17  1  0  0  0  0
  6  9  2  0  0  0  0
  7  5  1  0  0  0  0
  8 18  1  0  0  0  0
  9  4  1  0  0  0  0
 10 15  1  0  0  0  0
 11 20  1  0  0  0  0
 12  8  2  0  0  0  0
 14 10  1  0  0  0  0
 14  3  1  0  0  0  0
 15 13  2  0  0  0  0
 16  6  1  0  0  0  0
 17  2  2  0  0  0  0
 18 14  2  0  0  0  0
 19 13  1  0  0  0  0
 20  1  1  0  0  0  0
 20 10  2  0  0  0  0
 21 22  1  6  0  0  0
 21 23  1  0  0  0  0
 23 25  1  0  0  0  0
 25 24  2  0  0  0  0
 26 25  1  0  0  0  0
 26 27  1  0  0  0  0
 28 26  2  0  0  0  0
M  END
>  <MODEL>
4

>  <REMARK>
 VINA RESULT:      -8.4      1.223      1.774
  Name = 
  4 active torsions:
  status: ('A' for Active; 'I' for Inactive)
    1  A    between atoms: C_1  and  C_2
    2  A    between atoms: C_2  and  C_3
    3  A    between atoms: C_3  and  C_11
    4  A    between atoms: C_6  and  C_11
                            x       y       z     vdW  Elec       q    Type
                         _______ _______ _______ _____ _____    ______ ____

>  <TORSDO>
F 4

$$$$
=
 OpenBabel11052422563D

 28 31  0  0  1  0  0  0  0  0999 V2000
  160.9360  206.0930  148.4560 C   0  0  1  0  0  3  0  0  0  0  0  0
  160.6220  209.6710  152.1780 C   0  0  0  0  0  3  0  0  0  0  0  0
  161.3040  203.4810  152.7610 C   0  0  0  0  0  1  0  0  0  0  0  0
  160.8320  208.3920  154.2340 C   0  0  0  0  0  0  0  0  0  0  0  0
  160.8780  207.2270  152.0870 C   0  0  0  0  0  0  0  0  0  0  0  0
  160.5800  210.7990  154.3200 C   0  0  0  0  0  0  0  0  0  0  0  0
  160.7770  208.4300  152.8190 C   0  0  0  0  0  0  0  0  0  0  0  0
  161.0860  205.9890  154.1750 C   0  0  0  0  0  3  0  0  0  0  0  0
  160.7330  209.5740  154.9730 C   0  0  0  0  0  3  0  0  0  0  0  0
  161.0750  204.8150  150.6370 C   0  0  0  0  0  0  0  0  0  0  0  0
  160.8330  207.2310  150.6860 C   0  0  0  0  0  3  0  0  0  0  0  0
  160.9850  207.1760  154.8980 C   0  0  0  0  0  3  0  0  0  0  0  0
  160.9120  203.5590  148.5380 C   0  0  0  0  0  3  0  0  0  0  0  0
  161.1370  204.7890  152.0440 C   0  0  0  0  0  0  0  0  0  0  0  0
  161.1720  203.5710  149.8460 C   0  0  0  0  0  3  0  0  0  0  0  0
  160.4560  212.2760  155.2510 Cl  0  0  0  0  0  0  0  0  0  0  0  0
  160.5240  210.8480  152.9250 C   0  0  0  0  0  3  0  0  0  0  0  0
  161.0350  205.9940  152.7720 C   0  0  0  0  0  0  0  0  0  0  0  0
  160.4270  204.7900  147.8200 C   0  0  0  0  0  2  0  0  0  0  0  0
  160.9290  206.0420  149.9630 C   0  0  0  0  0  0  0  0  0  0  0  0
  162.2810  206.5740  147.8970 C   0  0  2  0  0  3  0  0  0  0  0  0
  162.7050  207.7310  148.5570 O   0  0  0  0  0  1  0  0  0  0  0  0
  162.3130  206.7090  146.3640 C   0  0  0  0  0  2  0  0  0  0  0  0
  163.4550  204.5810  146.0110 C   0  0  0  0  0  2  0  0  0  0  0  0
  162.4930  205.4140  145.6300 C   0  0  0  0  0  0  0  0  0  0  0  0
  161.5970  205.0670  144.5140 C   0  0  0  0  0  0  0  0  0  0  0  0
  160.7590  203.9640  144.6130 O   0  0  0  0  0  1  0  0  0  0  0  0
  161.5790  205.7630  143.4630 O   0  0  0  0  0  0  0  0  0  0  0  0
  1 21  1  6  0  0  0
  1 20  1  0  0  0  0
  2  7  2  0  0  0  0
  2 17  1  0  0  0  0
  4 12  1  0  0  0  0
  4  9  2  0  0  0  0
  5 18  1  0  0  0  0
  5  7  1  0  0  0  0
  6  9  1  0  0  0  0
  6 16  1  0  0  0  0
  7  4  1  0  0  0  0
  8 12  2  0  0  0  0
 10 14  1  0  0  0  0
 11  5  2  0  0  0  0
 13 15  2  0  0  0  0
 14  3  1  0  0  0  0
 14 18  2  0  0  0  0
 15 10  1  0  0  0  0
 17  6  2  0  0  0  0
 18  8  1  0  0  0  0
 19  1  1  0  0  0  0
 19 13  1  0  0  0  0
 20 10  2  0  0  0  0
 20 11  1  0  0  0  0
 21 22  1  1  0  0  0
 23 21  1  0  0  0  0
 25 24  2  0  0  0  0
 25 23  1  0  0  0  0
 26 27  1  0  0  0  0
 26 25  1  0  0  0  0
 28 26  2  0  0  0  0
M  END
>  <MODEL>
5

>  <REMARK>
 VINA RESULT:      -8.1      4.265      8.385
  Name = 
  4 active torsions:
  status: ('A' for Active; 'I' for Inactive)
    1  A    between atoms: C_1  and  C_2
    2  A    between atoms: C_2  and  C_3
    3  A    between atoms: C_3  and  C_11
    4  A    between atoms: C_6  and  C_11
                            x       y       z     vdW  Elec       q    Type
                         _______ _______ _______ _____ _____    ______ ____

>  <TORSDO>
F 4

$$$$
=
 OpenBabel11052422563D

 28 31  0  0  1  0  0  0  0  0999 V2000
  161.3530  210.2980  152.5250 C   0  0  1  0  0  3  0  0  0  0  0  0
  161.4780  207.3070  148.3080 C   0  0  0  0  0  3  0  0  0  0  0  0
  160.9030  205.5920  154.2950 C   0  0  0  0  0  1  0  0  0  0  0  0
  161.2290  205.0540  149.1850 C   0  0  0  0  0  0  0  0  0  0  0  0
  161.2740  206.9450  150.7320 C   0  0  0  0  0  0  0  0  0  0  0  0
  161.4290  205.4150  146.7980 C   0  0  0  0  0  0  0  0  0  0  0  0
  161.3280  206.4490  149.4110 C   0  0  0  0  0  0  0  0  0  0  0  0
  161.0250  204.6680  151.5620 C   0  0  0  0  0  3  0  0  0  0  0  0
  161.2810  204.5480  147.8830 C   0  0  0  0  0  3  0  0  0  0  0  0
  161.1710  207.9210  153.3760 C   0  0  0  0  0  0  0  0  0  0  0  0
  161.3630  208.3200  150.9880 C   0  0  0  0  0  3  0  0  0  0  0  0
  161.0790  204.1780  150.2580 C   0  0  0  0  0  3  0  0  0  0  0  0
  161.4260  209.7430  154.9980 C   0  0  0  0  0  3  0  0  0  0  0  0
  161.0660  206.5360  153.1400 C   0  0  0  0  0  0  0  0  0  0  0  0
  161.1240  208.4670  154.7480 C   0  0  0  0  0  3  0  0  0  0  0  0
  161.4940  204.7740  145.1710 Cl  0  0  0  0  0  0  0  0  0  0  0  0
  161.5280  206.7920  147.0100 C   0  0  0  0  0  3  0  0  0  0  0  0
  161.1200  206.0450  151.8180 C   0  0  0  0  0  0  0  0  0  0  0  0
  161.9080  210.6650  153.9110 C   0  0  0  0  0  2  0  0  0  0  0  0
  161.3140  208.8090  152.2930 C   0  0  0  0  0  0  0  0  0  0  0  0
  160.0170  210.9740  152.1920 C   0  0  2  0  0  3  0  0  0  0  0  0
  160.2140  212.3130  151.8410 O   0  0  0  0  0  1  0  0  0  0  0  0
  158.9320  210.7880  153.2680 C   0  0  0  0  0  2  0  0  0  0  0  0
  157.6900  212.8850  153.1340 C   0  0  0  0  0  2  0  0  0  0  0  0
  158.4310  212.0650  153.8710 C   0  0  0  0  0  0  0  0  0  0  0  0
  158.7430  212.3930  155.2730 C   0  0  0  0  0  0  0  0  0  0  0  0
  159.5600  213.4780  155.5680 O   0  0  0  0  0  0  0  0  0  0  0  0
  158.2750  211.6990  156.2160 O   0  0  0  0  0  1  0  0  0  0  0  0
  1 21  1  1  0  0  0
  1 19  1  0  0  0  0
  2  7  1  0  0  0  0
  4  7  2  0  0  0  0
  4 12  1  0  0  0  0
  5 11  2  0  0  0  0
  5 18  1  0  0  0  0
  6 17  1  0  0  0  0
  6  9  2  0  0  0  0
  7  5  1  0  0  0  0
  8 18  1  0  0  0  0
  9  4  1  0  0  0  0
 10 15  1  0  0  0  0
 11 20  1  0  0  0  0
 12  8  2  0  0  0  0
 14 10  1  0  0  0  0
 14  3  1  0  0  0  0
 15 13  2  0  0  0  0
 16  6  1  0  0  0  0
 17  2  2  0  0  0  0
 18 14  2  0  0  0  0
 19 13  1  0  0  0  0
 20  1  1  0  0  0  0
 20 10  2  0  0  0  0
 21 22  1  1  0  0  0
 21 23  1  0  0  0  0
 23 25  1  0  0  0  0
 24 25  2  0  0  0  0
 25 26  1  0  0  0  0
 26 27  2  0  0  0  0
 26 28  1  0  0  0  0
M  END
>  <MODEL>
6

>  <REMARK>
 VINA RESULT:      -8.0      1.716      2.305
  Name = 
  4 active torsions:
  status: ('A' for Active; 'I' for Inactive)
    1  A    between atoms: C_1  and  C_2
    2  A    between atoms: C_2  and  C_3
    3  A    between atoms: C_3  and  C_11
    4  A    between atoms: C_6  and  C_11
                            x       y       z     vdW  Elec       q    Type
                         _______ _______ _______ _____ _____    ______ ____

>  <TORSDO>
F 4

$$$$
=
 OpenBabel11052422563D

 28 31  0  0  1  0  0  0  0  0999 V2000
  160.8240  203.7510  147.8160 C   0  0  1  0  0  3  0  0  0  0  0  0
  161.5330  208.8440  148.3730 C   0  0  0  0  0  3  0  0  0  0  0  0
  161.3760  204.4180  152.7900 C   0  0  0  0  0  1  0  0  0  0  0  0
  161.8250  209.1330  150.7690 C   0  0  0  0  0  0  0  0  0  0  0  0
  161.4150  206.8970  149.8710 C   0  0  0  0  0  0  0  0  0  0  0  0
  161.9410  211.0470  149.2900 C   0  0  0  0  0  0  0  0  0  0  0  0
  161.5890  208.2830  149.6600 C   0  0  0  0  0  0  0  0  0  0  0  0
  161.7170  207.2370  152.2650 C   0  0  0  0  0  3  0  0  0  0  0  0
  161.9990  210.5060  150.5760 C   0  0  0  0  0  3  0  0  0  0  0  0
  161.0640  204.1330  150.3070 C   0  0  0  0  0  0  0  0  0  0  0  0
  161.1850  206.0290  148.7950 C   0  0  0  0  0  3  0  0  0  0  0  0
  161.8870  208.6050  152.0570 C   0  0  0  0  0  3  0  0  0  0  0  0
  160.4410  201.9000  149.5060 C   0  0  0  0  0  3  0  0  0  0  0  0
  161.3080  204.9850  151.4020 C   0  0  0  0  0  0  0  0  0  0  0  0
  160.8720  202.6800  150.4990 C   0  0  0  0  0  3  0  0  0  0  0  0
  162.1590  212.7680  149.0560 Cl  0  0  0  0  0  0  0  0  0  0  0  0
  161.7080  210.2180  148.1900 C   0  0  0  0  0  3  0  0  0  0  0  0
  161.4800  206.3700  151.1860 C   0  0  0  0  0  0  0  0  0  0  0  0
  160.0490  202.4710  148.1700 C   0  0  0  0  0  2  0  0  0  0  0  0
  161.0090  204.6620  149.0030 C   0  0  0  0  0  0  0  0  0  0  0  0
  162.1370  203.4960  147.0680 C   0  0  2  0  0  3  0  0  0  0  0  0
  163.0300  204.5550  147.2610 O   0  0  0  0  0  1  0  0  0  0  0  0
  161.9550  203.1270  145.5840 C   0  0  0  0  0  2  0  0  0  0  0  0
  159.7280  203.1530  144.5850 C   0  0  0  0  0  2  0  0  0  0  0  0
  160.8230  203.8350  144.9030 C   0  0  0  0  0  0  0  0  0  0  0  0
  160.9210  205.2750  144.6110 C   0  0  0  0  0  0  0  0  0  0  0  0
  160.2540  206.1940  145.4110 O   0  0  0  0  0  1  0  0  0  0  0  0
  161.6100  205.6890  143.6390 O   0  0  0  0  0  0  0  0  0  0  0  0
  1 21  1  1  0  0  0
  1 19  1  0  0  0  0
  1 20  1  0  0  0  0
  2  7  1  0  0  0  0
  4 12  1  0  0  0  0
  5 18  1  0  0  0  0
  6  9  2  0  0  0  0
  7  5  1  0  0  0  0
  7  4  2  0  0  0  0
  9  4  1  0  0  0  0
 10 15  1  0  0  0  0
 10 14  1  0  0  0  0
 11 20  1  0  0  0  0
 11  5  2  0  0  0  0
 12  8  2  0  0  0  0
 13 15  2  0  0  0  0
 14  3  1  0  0  0  0
 16  6  1  0  0  0  0
 17  2  2  0  0  0  0
 17  6  1  0  0  0  0
 18 14  2  0  0  0  0
 18  8  1  0  0  0  0
 19 13  1  0  0  0  0
 20 10  2  0  0  0  0
 21 22  1  6  0  0  0
 23 21  1  0  0  0  0
 24 25  2  0  0  0  0
 25 23  1  0  0  0  0
 26 25  1  0  0  0  0
 26 27  1  0  0  0  0
 28 26  2  0  0  0  0
M  END
>  <MODEL>
7

>  <REMARK>
 VINA RESULT:      -7.6      5.358      8.709
  Name = 
  4 active torsions:
  status: ('A' for Active; 'I' for Inactive)
    1  A    between atoms: C_1  and  C_2
    2  A    between atoms: C_2  and  C_3
    3  A    between atoms: C_3  and  C_11
    4  A    between atoms: C_6  and  C_11
                            x       y       z     vdW  Elec       q    Type
                         _______ _______ _______ _____ _____    ______ ____

>  <TORSDO>
F 4

$$$$
=
 OpenBabel11052422563D

 28 31  0  0  1  0  0  0  0  0999 V2000
  161.5140  210.4530  153.1540 C   0  0  1  0  0  3  0  0  0  0  0  0
  161.5660  207.7390  148.7510 C   0  0  0  0  0  3  0  0  0  0  0  0
  160.8310  205.6660  154.6060 C   0  0  0  0  0  1  0  0  0  0  0  0
  161.2060  205.4470  149.4760 C   0  0  0  0  0  0  0  0  0  0  0  0
  161.3120  207.2300  151.1440 C   0  0  0  0  0  0  0  0  0  0  0  0
  161.4560  205.9530  147.1200 C   0  0  0  0  0  0  0  0  0  0  0  0
  161.3630  206.8180  149.7940 C   0  0  0  0  0  0  0  0  0  0  0  0
  160.9510  204.9170  151.8200 C   0  0  0  0  0  3  0  0  0  0  0  0
  161.2540  205.0250  148.1440 C   0  0  0  0  0  3  0  0  0  0  0  0
  161.2150  208.0360  153.8440 C   0  0  0  0  0  0  0  0  0  0  0  0
  161.4580  208.5800  151.4900 C   0  0  0  0  0  3  0  0  0  0  0  0
  161.0030  204.5110  150.4880 C   0  0  0  0  0  3  0  0  0  0  0  0
  161.5270  209.7350  155.5850 C   0  0  0  0  0  3  0  0  0  0  0  0
  161.0520  206.6750  153.5180 C   0  0  0  0  0  0  0  0  0  0  0  0
  161.1730  208.4930  155.2500 C   0  0  0  0  0  3  0  0  0  0  0  0
  161.5150  205.4170  145.4550 Cl  0  0  0  0  0  0  0  0  0  0  0  0
  161.6120  207.3080  147.4230 C   0  0  0  0  0  3  0  0  0  0  0  0
  161.1040  206.2690  152.1660 C   0  0  0  0  0  0  0  0  0  0  0  0
  162.0650  210.7030  154.5670 C   0  0  0  0  0  2  0  0  0  0  0  0
  161.4120  208.9850  152.8240 C   0  0  0  0  0  0  0  0  0  0  0  0
  160.2140  211.2080  152.8510 C   0  0  2  0  0  3  0  0  0  0  0  0
  159.1270  210.3290  152.8170 O   0  0  0  0  0  1  0  0  0  0  0  0
  160.2900  212.1190  151.6120 C   0  0  0  0  0  2  0  0  0  0  0  0
  158.9290  213.8190  152.7140 C   0  0  0  0  0  2  0  0  0  0  0  0
  159.2650  213.2120  151.5810 C   0  0  0  0  0  0  0  0  0  0  0  0
  158.6550  213.6180  150.3030 C   0  0  0  0  0  0  0  0  0  0  0  0
  159.4550  213.8280  149.1870 O   0  0  0  0  0  0  0  0  0  0  0  0
  157.4080  213.7760  150.2070 O   0  0  0  0  0  1  0  0  0  0  0  0
  1 21  1  1  0  0  0
  1 19  1  0  0  0  0
  2  7  1  0  0  0  0
  4  7  2  0  0  0  0
  4 12  1  0  0  0  0
  5 11  2  0  0  0  0
  5 18  1  0  0  0  0
  6 17  1  0  0  0  0
  6  9  2  0  0  0  0
  7  5  1  0  0  0  0
  8 18  1  0  0  0  0
  9  4  1  0  0  0  0
 10 15  1  0  0  0  0
 11 20  1  0  0  0  0
 12  8  2  0  0  0  0
 14 10  1  0  0  0  0
 14  3  1  0  0  0  0
 15 13  2  0  0  0  0
 16  6  1  0  0  0  0
 17  2  2  0  0  0  0
 18 14  2  0  0  0  0
 19 13  1  0  0  0  0
 20  1  1  0  0  0  0
 20 10  2  0  0  0  0
 21 22  1  6  0  0  0
 23 21  1  0  0  0  0
 25 23  1  0  0  0  0
 25 24  2  0  0  0  0
 26 25  1  0  0  0  0
 27 26  2  0  0  0  0
 28 26  1  0  0  0  0
M  END
>  <MODEL>
8

>  <REMARK>
 VINA RESULT:      -7.5      2.160      2.767
  Name = 
  4 active torsions:
  status: ('A' for Active; 'I' for Inactive)
    1  A    between atoms: C_1  and  C_2
    2  A    between atoms: C_2  and  C_3
    3  A    between atoms: C_3  and  C_11
    4  A    between atoms: C_6  and  C_11
                            x       y       z     vdW  Elec       q    Type
                         _______ _______ _______ _____ _____    ______ ____

>  <TORSDO>
F 4

$$$$
=
 OpenBabel11052422563D

 28 31  0  0  1  0  0  0  0  0999 V2000
  160.5170  209.0890  153.0490 C   0  0  1  0  0  3  0  0  0  0  0  0
  160.5730  204.4770  150.7090 C   0  0  0  0  0  3  0  0  0  0  0  0
  162.3510  210.0270  148.4400 C   0  0  0  0  0  1  0  0  0  0  0  0
  161.4870  204.9520  148.5070 C   0  0  0  0  0  0  0  0  0  0  0  0
  161.1830  206.7800  150.1000 C   0  0  0  0  0  0  0  0  0  0  0  0
  160.8860  202.6840  149.1110 C   0  0  0  0  0  0  0  0  0  0  0  0
  161.0770  205.4080  149.7850 C   0  0  0  0  0  0  0  0  0  0  0  0
  162.0960  207.2060  147.8820 C   0  0  0  0  0  3  0  0  0  0  0  0
  161.3880  203.5960  148.1810 C   0  0  0  0  0  3  0  0  0  0  0  0
  161.3930  209.5240  150.7140 C   0  0  0  0  0  0  0  0  0  0  0  0
  160.7910  207.2610  151.3570 C   0  0  0  0  0  3  0  0  0  0  0  0
  161.9910  205.8510  147.5700 C   0  0  0  0  0  3  0  0  0  0  0  0
  160.9150  211.4350  152.1750 C   0  0  0  0  0  3  0  0  0  0  0  0
  161.8060  209.0610  149.4500 C   0  0  0  0  0  0  0  0  0  0  0  0
  161.4870  210.9560  151.0690 C   0  0  0  0  0  3  0  0  0  0  0  0
  160.7650  200.9890  148.6950 Cl  0  0  0  0  0  0  0  0  0  0  0  0
  160.4790  203.1240  150.3730 C   0  0  0  0  0  3  0  0  0  0  0  0
  161.6980  207.6870  149.1390 C   0  0  0  0  0  0  0  0  0  0  0  0
  160.0790  210.5620  153.0710 C   0  0  0  0  0  2  0  0  0  0  0  0
  160.8920  208.6180  151.6670 C   0  0  0  0  0  0  0  0  0  0  0  0
  161.5870  208.7430  154.0910 C   0  0  2  0  0  3  0  0  0  0  0  0
  161.7070  207.3570  154.2350 O   0  0  0  0  0  1  0  0  0  0  0  0
  161.4160  209.4750  155.4350 C   0  0  0  0  0  2  0  0  0  0  0  0
  159.5360  208.1250  156.2120 C   0  0  0  0  0  2  0  0  0  0  0  0
  160.0560  209.3370  156.0490 C   0  0  0  0  0  0  0  0  0  0  0  0
  159.3160  210.5350  156.4830 C   0  0  0  0  0  0  0  0  0  0  0  0
  159.9470  211.4980  157.2610 O   0  0  0  0  0  1  0  0  0  0  0  0
  158.1100  210.7010  156.1540 O   0  0  0  0  0  0  0  0  0  0  0  0
  1 19  1  0  0  0  0
  1 21  1  1  0  0  0
  3 14  1  0  0  0  0
  4  7  1  0  0  0  0
  5 11  1  0  0  0  0
  6 17  2  0  0  0  0
  7  5  1  0  0  0  0
  7  2  2  0  0  0  0
  8 18  1  0  0  0  0
  9  4  2  0  0  0  0
  9  6  1  0  0  0  0
 10 15  1  0  0  0  0
 10 20  1  0  0  0  0
 11 20  2  0  0  0  0
 12  8  2  0  0  0  0
 12  4  1  0  0  0  0
 13 19  1  0  0  0  0
 14 10  2  0  0  0  0
 15 13  2  0  0  0  0
 16  6  1  0  0  0  0
 17  2  1  0  0  0  0
 18 14  1  0  0  0  0
 18  5  2  0  0  0  0
 20  1  1  0  0  0  0
 21 22  1  1  0  0  0
 21 23  1  0  0  0  0
 23 25  1  0  0  0  0
 25 24  2  0  0  0  0
 25 26  1  0  0  0  0
 26 27  1  0  0  0  0
 28 26  2  0  0  0  0
M  END
>  <MODEL>
9

>  <REMARK>
 VINA RESULT:      -7.1      2.420      4.370
  Name = 
  4 active torsions:
  status: ('A' for Active; 'I' for Inactive)
    1  A    between atoms: C_1  and  C_2
    2  A    between atoms: C_2  and  C_3
    3  A    between atoms: C_3  and  C_11
    4  A    between atoms: C_6  and  C_11
                            x       y       z     vdW  Elec       q    Type
                         _______ _______ _______ _____ _____    ______ ____

>  <TORSDO>
F 4

$$$$
