=
 OpenBabel11062409413D

 34 39  0  0  0  0  0  0  0  0999 V2000
  159.6900  210.7460  154.8360 C   0  0  0  0  0  0  0  0  0  0  0  0
  158.3550  214.1990  154.9170 C   0  0  0  0  0  3  0  0  0  0  0  0
  159.3250  212.9350  157.0810 S   0  0  0  0  0  0  0  0  0  0  0  0
  161.9410  209.1090  154.7450 N   0  0  0  0  0  0  0  0  0  0  0  0
  159.7270  209.6050  154.0180 C   0  0  0  0  0  3  0  0  0  0  0  0
  161.9510  210.2010  155.5520 C   0  0  0  0  0  0  0  0  0  0  0  0
  163.1180  211.6180  157.0770 N   0  0  0  0  0  0  0  0  0  0  0  0
  163.1070  210.5320  156.2610 C   0  0  0  0  0  3  0  0  0  0  0  0
  160.8530  208.7720  154.0000 C   0  0  0  0  0  0  0  0  0  0  0  0
  160.8270  212.0930  156.5790 C   0  0  0  0  0  0  0  0  0  0  0  0
  160.8030  211.0140  155.6690 C   0  0  0  0  0  0  0  0  0  0  0  0
  162.0110  212.3860  157.2600 C   0  0  0  0  0  3  0  0  0  0  0  0
  157.8090  214.3670  153.5400 C   0  0  0  0  0  2  0  0  0  0  0  0
  156.4970  213.6640  153.4100 C   0  0  0  0  0  0  0  0  0  0  0  0
  156.4140  212.3310  153.5280 C   0  0  0  0  0  3  0  0  0  0  0  0
  158.6890  213.0110  155.4210 C   0  0  0  0  0  0  0  0  0  0  0  0
  157.5390  211.4390  153.8760 C   0  0  0  0  0  3  0  0  0  0  0  0
  158.5810  211.7310  154.6780 C   0  0  0  0  0  0  0  0  0  0  0  0
  160.8850  205.1410  152.9050 C   0  0  0  0  0  3  0  0  0  0  0  0
  160.9580  207.6940  151.7510 C   0  0  0  0  0  3  0  0  0  0  0  0
  161.0590  204.2710  149.3080 C   0  0  0  0  0  0  0  0  0  0  0  0
  160.9890  204.1400  150.7020 C   0  0  0  0  0  3  0  0  0  0  0  0
  160.9550  205.2740  151.5180 C   0  0  0  0  0  0  0  0  0  0  0  0
  161.0620  206.6930  149.5470 C   0  0  0  0  0  3  0  0  0  0  0  0
  160.9920  206.5600  150.9350 C   0  0  0  0  0  0  0  0  0  0  0  0
  161.0960  205.5540  148.7380 C   0  0  0  0  0  3  0  0  0  0  0  0
  160.8870  207.5650  153.1460 C   0  0  0  0  0  0  0  0  0  0  0  0
  160.8510  206.2810  153.7150 C   0  0  0  0  0  3  0  0  0  0  0  0
  161.0930  203.1040  148.4750 N   0  0  0  0  0  0  0  0  0  0  0  0
  161.5010  203.1760  147.2980 O   0  0  0  0  0  0  0  0  0  0  0  0
  160.6780  201.8880  148.9670 O   0  0  0  0  0  0  0  0  0  0  0  0
  155.3650  214.4360  153.1260 O   0  0  0  0  0  0  0  0  0  0  0  0
  154.5670  214.2480  151.9640 C   0  0  0  0  0  2  0  0  0  0  0  0
  155.4170  214.4520  150.7290 C   0  0  0  0  0  1  0  0  0  0  0  0
  1 11  1  0  0  0  0
  2 16  2  0  0  0  0
  4  6  1  0  0  0  0
  5  1  2  0  0  0  0
  6 11  2  0  0  0  0
  6  8  1  0  0  0  0
  7 12  1  0  0  0  0
  8  7  2  0  0  0  0
  9  5  1  0  0  0  0
  9  4  2  0  0  0  0
 10  3  1  0  0  0  0
 10 12  2  0  0  0  0
 11 10  1  0  0  0  0
 13  2  1  0  0  0  0
 14 15  2  0  0  0  0
 14 13  1  0  0  0  0
 15 17  1  0  0  0  0
 16  3  1  0  0  0  0
 17 18  2  0  0  0  0
 18  1  1  0  0  0  0
 18 16  1  0  0  0  0
 19 28  1  0  0  0  0
 20 27  1  0  0  0  0
 21 22  2  0  0  0  0
 22 23  1  0  0  0  0
 23 19  2  0  0  0  0
 24 25  1  0  0  0  0
 25 23  1  0  0  0  0
 25 20  2  0  0  0  0
 26 21  1  0  0  0  0
 26 24  2  0  0  0  0
 27 28  2  0  0  0  0
 27  9  1  0  0  0  0
 29 31  2  0  0  0  0
 29 21  1  0  0  0  0
 30 29  2  0  0  0  0
 32 14  1  0  0  0  0
 33 32  1  0  0  0  0
 34 33  1  0  0  0  0
M  END
>  <MODEL>
1

>  <REMARK>
 VINA RESULT:      -7.4      0.000      0.000
  Name = 
  4 active torsions:
  status: ('A' for Active; 'I' for Inactive)
    1  A    between atoms: O_3  and  C_13
    2  A    between atoms: O_3  and  C_25
    3  A    between atoms: C_7  and  N_11
    4  A    between atoms: C_18  and  C_30
                            x       y       z     vdW  Elec       q    Type
                         _______ _______ _______ _____ _____    ______ ____

>  <TORSDO>
F 4

$$$$
=
 OpenBabel11062409413D

 34 39  0  0  0  0  0  0  0  0999 V2000
  161.4020  204.4470  148.4360 C   0  0  0  0  0  0  0  0  0  0  0  0
  160.5930  203.2060  145.0420 C   0  0  0  0  0  3  0  0  0  0  0  0
  161.9530  201.7680  146.8590 S   0  0  0  0  0  0  0  0  0  0  0  0
  160.7580  204.4400  151.1460 N   0  0  0  0  0  0  0  0  0  0  0  0
  161.4280  205.6300  149.1930 C   0  0  0  0  0  3  0  0  0  0  0  0
  160.7210  203.2720  150.4550 C   0  0  0  0  0  0  0  0  0  0  0  0
  160.2580  200.9310  150.4020 N   0  0  0  0  0  0  0  0  0  0  0  0
  160.2870  202.1040  151.0850 C   0  0  0  0  0  3  0  0  0  0  0  0
  161.1290  205.6120  150.5610 C   0  0  0  0  0  0  0  0  0  0  0  0
  161.1280  201.9830  148.4370 C   0  0  0  0  0  0  0  0  0  0  0  0
  161.1030  203.2310  149.0970 C   0  0  0  0  0  0  0  0  0  0  0  0
  160.6790  200.8450  149.1110 C   0  0  0  0  0  3  0  0  0  0  0  0
  159.9930  204.4070  144.3940 C   0  0  0  0  0  2  0  0  0  0  0  0
  161.0620  205.3700  143.9890 C   0  0  0  0  0  0  0  0  0  0  0  0
  161.8350  205.9670  144.9070 C   0  0  0  0  0  3  0  0  0  0  0  0
  161.2780  203.2700  146.1840 C   0  0  0  0  0  0  0  0  0  0  0  0
  161.7930  205.6960  146.3580 C   0  0  0  0  0  3  0  0  0  0  0  0
  161.5070  204.5200  146.9490 C   0  0  0  0  0  0  0  0  0  0  0  0
  161.4500  209.2720  151.5050 C   0  0  0  0  0  3  0  0  0  0  0  0
  160.9570  206.8070  152.7460 C   0  0  0  0  0  3  0  0  0  0  0  0
  161.0650  210.3360  155.0330 C   0  0  0  0  0  0  0  0  0  0  0  0
  161.2750  210.3880  153.6470 C   0  0  0  0  0  3  0  0  0  0  0  0
  161.2400  209.2180  152.8840 C   0  0  0  0  0  0  0  0  0  0  0  0
  160.7830  207.9230  154.8890 C   0  0  0  0  0  3  0  0  0  0  0  0
  160.9920  207.9760  153.5100 C   0  0  0  0  0  0  0  0  0  0  0  0
  160.8200  209.0970  155.6460 C   0  0  0  0  0  3  0  0  0  0  0  0
  161.1670  206.8560  151.3590 C   0  0  0  0  0  0  0  0  0  0  0  0
  161.4130  208.0970  150.7470 C   0  0  0  0  0  3  0  0  0  0  0  0
  161.1010  211.5390  155.8120 N   0  0  0  0  0  0  0  0  0  0  0  0
  160.3640  212.5050  155.5240 O   0  0  0  0  0  0  0  0  0  0  0  0
  161.9500  211.6420  156.8900 O   0  0  0  0  0  0  0  0  0  0  0  0
  161.2060  205.6550  142.6260 O   0  0  0  0  0  0  0  0  0  0  0  0
  162.3260  206.3490  142.0920 C   0  0  0  0  0  2  0  0  0  0  0  0
  162.0350  206.7510  140.6620 C   0  0  0  0  0  1  0  0  0  0  0  0
  1 11  2  0  0  0  0
  1  5  1  0  0  0  0
  2 16  2  0  0  0  0
  3 10  1  0  0  0  0
  5  9  2  0  0  0  0
  6  8  1  0  0  0  0
  6  4  2  0  0  0  0
  7  8  2  0  0  0  0
  9  4  1  0  0  0  0
  9 27  1  0  0  0  0
 10 11  1  0  0  0  0
 10 12  2  0  0  0  0
 11  6  1  0  0  0  0
 12  7  1  0  0  0  0
 13  2  1  0  0  0  0
 14 13  1  0  0  0  0
 14 15  2  0  0  0  0
 15 17  1  0  0  0  0
 16  3  1  0  0  0  0
 16 18  1  0  0  0  0
 17 18  2  0  0  0  0
 18  1  1  0  0  0  0
 19 23  1  0  0  0  0
 20 25  1  0  0  0  0
 21 26  1  0  0  0  0
 21 29  1  0  0  0  0
 22 21  2  0  0  0  0
 23 25  2  0  0  0  0
 23 22  1  0  0  0  0
 24 26  2  0  0  0  0
 25 24  1  0  0  0  0
 27 20  2  0  0  0  0
 28 27  1  0  0  0  0
 28 19  2  0  0  0  0
 29 31  2  0  0  0  0
 30 29  2  0  0  0  0
 32 14  1  0  0  0  0
 33 32  1  0  0  0  0
 34 33  1  0  0  0  0
M  END
>  <MODEL>
2

>  <REMARK>
 VINA RESULT:      -7.3      4.488     10.499
  Name = 
  4 active torsions:
  status: ('A' for Active; 'I' for Inactive)
    1  A    between atoms: O_3  and  C_13
    2  A    between atoms: O_3  and  C_25
    3  A    between atoms: C_7  and  N_11
    4  A    between atoms: C_18  and  C_30
                            x       y       z     vdW  Elec       q    Type
                         _______ _______ _______ _____ _____    ______ ____

>  <TORSDO>
F 4

$$$$
=
 OpenBabel11062409413D

 34 39  0  0  0  0  0  0  0  0999 V2000
  161.7890  207.8220  150.5890 C   0  0  0  0  0  0  0  0  0  0  0  0
  160.7630  209.4020  153.7770 C   0  0  0  0  0  3  0  0  0  0  0  0
  162.7510  210.3410  152.2320 S   0  0  0  0  0  0  0  0  0  0  0  0
  161.6500  207.8600  147.8070 N   0  0  0  0  0  0  0  0  0  0  0  0
  161.6300  206.6370  149.8520 C   0  0  0  0  0  3  0  0  0  0  0  0
  161.8060  209.0310  148.4760 C   0  0  0  0  0  0  0  0  0  0  0  0
  161.9800  211.4110  148.4380 N   0  0  0  0  0  0  0  0  0  0  0  0
  161.8140  210.2370  147.7750 C   0  0  0  0  0  3  0  0  0  0  0  0
  161.5890  206.6620  148.4530 C   0  0  0  0  0  0  0  0  0  0  0  0
  162.1840  210.2690  150.5310 C   0  0  0  0  0  0  0  0  0  0  0  0
  161.9440  209.0390  149.8810 C   0  0  0  0  0  0  0  0  0  0  0  0
  162.1780  211.4490  149.7830 C   0  0  0  0  0  3  0  0  0  0  0  0
  159.7630  208.4340  154.3100 C   0  0  0  0  0  2  0  0  0  0  0  0
  160.4500  207.2470  154.9040 C   0  0  0  0  0  0  0  0  0  0  0  0
  161.1840  206.4230  154.1420 C   0  0  0  0  0  3  0  0  0  0  0  0
  161.5940  209.1040  152.7780 C   0  0  0  0  0  0  0  0  0  0  0  0
  161.4680  206.6220  152.7060 C   0  0  0  0  0  3  0  0  0  0  0  0
  161.6120  207.8000  152.0700 C   0  0  0  0  0  0  0  0  0  0  0  0
  161.1630  204.2600  145.5490 C   0  0  0  0  0  3  0  0  0  0  0  0
  161.4000  204.1760  148.3400 C   0  0  0  0  0  3  0  0  0  0  0  0
  160.9520  200.6110  146.1530 C   0  0  0  0  0  0  0  0  0  0  0  0
  160.9830  201.8460  145.4890 C   0  0  0  0  0  3  0  0  0  0  0  0
  161.1320  203.0330  146.2120 C   0  0  0  0  0  0  0  0  0  0  0  0
  161.2200  201.7610  148.2810 C   0  0  0  0  0  3  0  0  0  0  0  0
  161.2510  202.9890  147.6180 C   0  0  0  0  0  0  0  0  0  0  0  0
  161.0700  200.5780  147.5520 C   0  0  0  0  0  3  0  0  0  0  0  0
  161.4330  205.4130  147.6780 C   0  0  0  0  0  0  0  0  0  0  0  0
  161.3130  205.4440  146.2780 C   0  0  0  0  0  3  0  0  0  0  0  0
  160.7990  199.3960  145.4070 N   0  0  0  0  0  0  0  0  0  0  0  0
  159.9270  199.3010  144.5190 O   0  0  0  0  0  0  0  0  0  0  0  0
  161.6150  198.3180  145.6620 O   0  0  0  0  0  0  0  0  0  0  0  0
  160.2750  207.0040  156.2710 O   0  0  0  0  0  0  0  0  0  0  0  0
  160.3840  208.0190  157.2610 C   0  0  0  0  0  2  0  0  0  0  0  0
  161.7780  208.6100  157.2270 C   0  0  0  0  0  1  0  0  0  0  0  0
  1 18  1  0  0  0  0
  2 13  1  0  0  0  0
  3 16  1  0  0  0  0
  4  9  2  0  0  0  0
  4  6  1  0  0  0  0
  5  1  2  0  0  0  0
  6 11  1  0  0  0  0
  7 12  2  0  0  0  0
  8  7  1  0  0  0  0
  8  6  2  0  0  0  0
  9  5  1  0  0  0  0
 10  3  1  0  0  0  0
 11 10  2  0  0  0  0
 11  1  1  0  0  0  0
 12 10  1  0  0  0  0
 13 14  1  0  0  0  0
 14 32  1  0  0  0  0
 15 14  2  0  0  0  0
 16  2  2  0  0  0  0
 17 15  1  0  0  0  0
 18 17  2  0  0  0  0
 18 16  1  0  0  0  0
 19 23  2  0  0  0  0
 19 28  1  0  0  0  0
 21 26  1  0  0  0  0
 22 21  2  0  0  0  0
 22 23  1  0  0  0  0
 23 25  1  0  0  0  0
 25 24  1  0  0  0  0
 25 20  2  0  0  0  0
 26 24  2  0  0  0  0
 27 20  1  0  0  0  0
 27  9  1  0  0  0  0
 28 27  2  0  0  0  0
 29 31  2  0  0  0  0
 29 21  1  0  0  0  0
 30 29  2  0  0  0  0
 32 33  1  0  0  0  0
 34 33  1  0  0  0  0
M  END
>  <MODEL>
3

>  <REMARK>
 VINA RESULT:      -7.3      4.498      6.710
  Name = 
  4 active torsions:
  status: ('A' for Active; 'I' for Inactive)
    1  A    between atoms: O_3  and  C_13
    2  A    between atoms: O_3  and  C_25
    3  A    between atoms: C_7  and  N_11
    4  A    between atoms: C_18  and  C_30
                            x       y       z     vdW  Elec       q    Type
                         _______ _______ _______ _____ _____    ______ ____

>  <TORSDO>
F 4

$$$$
=
 OpenBabel11062409413D

 34 39  0  0  0  0  0  0  0  0999 V2000
  159.8310  210.9070  154.3340 C   0  0  0  0  0  0  0  0  0  0  0  0
  158.0530  213.8240  155.7630 C   0  0  0  0  0  3  0  0  0  0  0  0
  159.2570  211.9460  157.2600 S   0  0  0  0  0  0  0  0  0  0  0  0
  162.2760  209.7650  153.6430 N   0  0  0  0  0  0  0  0  0  0  0  0
  159.9910  210.2040  153.1290 C   0  0  0  0  0  3  0  0  0  0  0  0
  162.1680  210.4340  154.8200 C   0  0  0  0  0  0  0  0  0  0  0  0
  163.1900  211.2680  156.8090 N   0  0  0  0  0  0  0  0  0  0  0  0
  163.2940  210.6090  155.6260 C   0  0  0  0  0  3  0  0  0  0  0  0
  161.2160  209.6090  152.8030 C   0  0  0  0  0  0  0  0  0  0  0  0
  160.8400  211.5870  156.4950 C   0  0  0  0  0  0  0  0  0  0  0  0
  160.9270  210.9690  155.2290 C   0  0  0  0  0  0  0  0  0  0  0  0
  161.9970  211.7410  157.2600 C   0  0  0  0  0  3  0  0  0  0  0  0
  157.4410  214.4520  154.5580 C   0  0  0  0  0  2  0  0  0  0  0  0
  156.2300  213.6880  154.1290 C   0  0  0  0  0  0  0  0  0  0  0  0
  156.3290  212.4210  153.7020 C   0  0  0  0  0  3  0  0  0  0  0  0
  158.5600  212.5910  155.7560 C   0  0  0  0  0  0  0  0  0  0  0  0
  157.5750  211.6260  153.6870 C   0  0  0  0  0  3  0  0  0  0  0  0
  158.5960  211.7130  154.5610 C   0  0  0  0  0  0  0  0  0  0  0  0
  161.9830  208.7930  149.1790 C   0  0  0  0  0  3  0  0  0  0  0  0
  161.0830  207.4900  151.4910 C   0  0  0  0  0  3  0  0  0  0  0  0
  161.5400  205.3440  147.9020 C   0  0  0  0  0  0  0  0  0  0  0  0
  161.8360  206.7140  147.9470 C   0  0  0  0  0  3  0  0  0  0  0  0
  161.6870  207.4300  149.1370 C   0  0  0  0  0  0  0  0  0  0  0  0
  160.9360  205.4090  150.2590 C   0  0  0  0  0  3  0  0  0  0  0  0
  161.2320  206.7730  150.3020 C   0  0  0  0  0  0  0  0  0  0  0  0
  161.0880  204.6990  149.0650 C   0  0  0  0  0  3  0  0  0  0  0  0
  161.3800  208.8600  151.5390 C   0  0  0  0  0  0  0  0  0  0  0  0
  161.8300  209.5040  150.3740 C   0  0  0  0  0  3  0  0  0  0  0  0
  161.6960  204.6120  146.6790 N   0  0  0  0  0  0  0  0  0  0  0  0
  162.1930  205.1580  145.6720 O   0  0  0  0  0  0  0  0  0  0  0  0
  161.2990  203.2970  146.6010 O   0  0  0  0  0  0  0  0  0  0  0  0
  154.9960  214.3480  154.1540 O   0  0  0  0  0  0  0  0  0  0  0  0
  154.0840  214.2490  155.2400 C   0  0  0  0  0  2  0  0  0  0  0  0
  154.8290  214.4360  156.5440 C   0  0  0  0  0  1  0  0  0  0  0  0
  1 18  1  0  0  0  0
  1 11  1  0  0  0  0
  4  6  1  0  0  0  0
  5  1  2  0  0  0  0
  6 11  2  0  0  0  0
  6  8  1  0  0  0  0
  7 12  1  0  0  0  0
  8  7  2  0  0  0  0
  9  5  1  0  0  0  0
  9  4  2  0  0  0  0
 10 12  2  0  0  0  0
 10  3  1  0  0  0  0
 11 10  1  0  0  0  0
 13  2  1  0  0  0  0
 14 32  1  0  0  0  0
 14 13  1  0  0  0  0
 15 14  2  0  0  0  0
 16  2  2  0  0  0  0
 16  3  1  0  0  0  0
 17 15  1  0  0  0  0
 17 18  2  0  0  0  0
 18 16  1  0  0  0  0
 19 28  1  0  0  0  0
 20 27  1  0  0  0  0
 21 22  2  0  0  0  0
 21 26  1  0  0  0  0
 22 23  1  0  0  0  0
 23 19  2  0  0  0  0
 23 25  1  0  0  0  0
 24 25  1  0  0  0  0
 25 20  2  0  0  0  0
 26 24  2  0  0  0  0
 27  9  1  0  0  0  0
 28 27  2  0  0  0  0
 29 21  1  0  0  0  0
 30 29  2  0  0  0  0
 31 29  2  0  0  0  0
 32 33  1  0  0  0  0
 33 34  1  0  0  0  0
M  END
>  <MODEL>
4

>  <REMARK>
 VINA RESULT:      -7.0      1.436      2.218
  Name = 
  4 active torsions:
  status: ('A' for Active; 'I' for Inactive)
    1  A    between atoms: O_3  and  C_13
    2  A    between atoms: O_3  and  C_25
    3  A    between atoms: C_7  and  N_11
    4  A    between atoms: C_18  and  C_30
                            x       y       z     vdW  Elec       q    Type
                         _______ _______ _______ _____ _____    ______ ____

>  <TORSDO>
F 4

$$$$
=
 OpenBabel11062409413D

 34 39  0  0  0  0  0  0  0  0999 V2000
  161.0630  207.5840  151.1390 C   0  0  0  0  0  0  0  0  0  0  0  0
  162.3100  211.0700  151.0610 C   0  0  0  0  0  3  0  0  0  0  0  0
  160.3830  210.2240  152.7320 S   0  0  0  0  0  0  0  0  0  0  0  0
  161.1390  205.1000  152.3960 N   0  0  0  0  0  0  0  0  0  0  0  0
  161.0920  206.3940  150.3950 C   0  0  0  0  0  3  0  0  0  0  0  0
  161.1100  206.2240  153.1570 C   0  0  0  0  0  0  0  0  0  0  0  0
  161.1600  207.2470  155.3120 N   0  0  0  0  0  0  0  0  0  0  0  0
  161.1990  206.1260  154.5460 C   0  0  0  0  0  3  0  0  0  0  0  0
  161.1020  205.1480  151.0350 C   0  0  0  0  0  0  0  0  0  0  0  0
  160.8990  208.6330  153.3800 C   0  0  0  0  0  0  0  0  0  0  0  0
  161.0070  207.4950  152.5520 C   0  0  0  0  0  0  0  0  0  0  0  0
  160.9990  208.4810  154.7650 C   0  0  0  0  0  3  0  0  0  0  0  0
  163.2270  211.0590  149.8860 C   0  0  0  0  0  2  0  0  0  0  0  0
  162.4450  211.1130  148.6130 C   0  0  0  0  0  0  0  0  0  0  0  0
  161.6190  210.1150  148.2690 C   0  0  0  0  0  3  0  0  0  0  0  0
  161.4310  210.0970  151.2990 C   0  0  0  0  0  0  0  0  0  0  0  0
  161.3210  208.9340  149.1050 C   0  0  0  0  0  3  0  0  0  0  0  0
  161.2730  208.8910  150.4500 C   0  0  0  0  0  0  0  0  0  0  0  0
  161.1770  201.4620  150.1470 C   0  0  0  0  0  3  0  0  0  0  0  0
  161.1060  203.9440  148.8490 C   0  0  0  0  0  3  0  0  0  0  0  0
  161.1640  200.3890  146.6010 C   0  0  0  0  0  0  0  0  0  0  0  0
  161.1810  200.3370  148.0020 C   0  0  0  0  0  3  0  0  0  0  0  0
  161.1610  201.5160  148.7530 C   0  0  0  0  0  0  0  0  0  0  0  0
  161.1090  202.8200  146.7020 C   0  0  0  0  0  3  0  0  0  0  0  0
  161.1250  202.7660  148.0980 C   0  0  0  0  0  0  0  0  0  0  0  0
  161.1300  201.6380  145.9590 C   0  0  0  0  0  3  0  0  0  0  0  0
  161.1210  203.8950  150.2510 C   0  0  0  0  0  0  0  0  0  0  0  0
  161.1570  202.6450  150.8920 C   0  0  0  0  0  3  0  0  0  0  0  0
  161.1840  199.1770  145.8350 N   0  0  0  0  0  0  0  0  0  0  0  0
  162.0850  198.3300  146.0090 O   0  0  0  0  0  0  0  0  0  0  0  0
  160.2070  198.9320  144.8980 O   0  0  0  0  0  0  0  0  0  0  0  0
  162.6290  212.2200  147.7770 O   0  0  0  0  0  0  0  0  0  0  0  0
  162.3000  213.5490  148.1630 C   0  0  0  0  0  2  0  0  0  0  0  0
  160.8070  213.6560  148.3830 C   0  0  0  0  0  1  0  0  0  0  0  0
  1 11  1  0  0  0  0
  2 16  2  0  0  0  0
  3 10  1  0  0  0  0
  4  6  1  0  0  0  0
  5  9  1  0  0  0  0
  5  1  2  0  0  0  0
  6  8  1  0  0  0  0
  8  7  2  0  0  0  0
  9  4  2  0  0  0  0
 10 12  2  0  0  0  0
 11  6  2  0  0  0  0
 11 10  1  0  0  0  0
 12  7  1  0  0  0  0
 13  2  1  0  0  0  0
 14 13  1  0  0  0  0
 15 14  2  0  0  0  0
 15 17  1  0  0  0  0
 16  3  1  0  0  0  0
 17 18  2  0  0  0  0
 18  1  1  0  0  0  0
 18 16  1  0  0  0  0
 19 28  1  0  0  0  0
 20 27  1  0  0  0  0
 21 22  2  0  0  0  0
 22 23  1  0  0  0  0
 23 19  2  0  0  0  0
 24 25  1  0  0  0  0
 25 23  1  0  0  0  0
 25 20  2  0  0  0  0
 26 21  1  0  0  0  0
 26 24  2  0  0  0  0
 27 28  2  0  0  0  0
 27  9  1  0  0  0  0
 29 30  2  0  0  0  0
 29 21  1  0  0  0  0
 31 29  2  0  0  0  0
 32 33  1  0  0  0  0
 32 14  1  0  0  0  0
 33 34  1  0  0  0  0
M  END
>  <MODEL>
5

>  <REMARK>
 VINA RESULT:      -6.0      4.169      5.643
  Name = 
  4 active torsions:
  status: ('A' for Active; 'I' for Inactive)
    1  A    between atoms: O_3  and  C_13
    2  A    between atoms: O_3  and  C_25
    3  A    between atoms: C_7  and  N_11
    4  A    between atoms: C_18  and  C_30
                            x       y       z     vdW  Elec       q    Type
                         _______ _______ _______ _____ _____    ______ ____

>  <TORSDO>
F 4

$$$$
=
 OpenBabel11062409413D

 34 39  0  0  0  0  0  0  0  0999 V2000
  159.4730  211.3190  153.0250 C   0  0  0  0  0  0  0  0  0  0  0  0
  156.8740  213.7570  154.0290 C   0  0  0  0  0  3  0  0  0  0  0  0
  159.4060  214.4460  153.4520 S   0  0  0  0  0  0  0  0  0  0  0  0
  160.9160  210.1610  150.9420 N   0  0  0  0  0  0  0  0  0  0  0  0
  159.7280  209.9380  152.9950 C   0  0  0  0  0  3  0  0  0  0  0  0
  160.6960  211.5010  150.9280 C   0  0  0  0  0  0  0  0  0  0  0  0
  160.9150  213.6070  149.8270 N   0  0  0  0  0  0  0  0  0  0  0  0
  161.1230  212.2650  149.8410 C   0  0  0  0  0  3  0  0  0  0  0  0
  160.4780  209.3680  151.9590 C   0  0  0  0  0  0  0  0  0  0  0  0
  159.8880  213.5320  151.9860 C   0  0  0  0  0  0  0  0  0  0  0  0
  160.0250  212.1270  152.0000 C   0  0  0  0  0  0  0  0  0  0  0  0
  160.3270  214.2490  150.8710 C   0  0  0  0  0  3  0  0  0  0  0  0
  155.7250  212.8760  154.3860 C   0  0  0  0  0  2  0  0  0  0  0  0
  155.9360  212.2640  155.7330 C   0  0  0  0  0  0  0  0  0  0  0  0
  156.9510  211.4170  155.9540 C   0  0  0  0  0  3  0  0  0  0  0  0
  158.1150  213.2960  153.8720 C   0  0  0  0  0  0  0  0  0  0  0  0
  157.9950  211.0680  154.9680 C   0  0  0  0  0  3  0  0  0  0  0  0
  158.4970  211.8690  154.0090 C   0  0  0  0  0  0  0  0  0  0  0  0
  161.4880  205.8810  153.0550 C   0  0  0  0  0  3  0  0  0  0  0  0
  160.5470  207.1810  150.7580 C   0  0  0  0  0  3  0  0  0  0  0  0
  161.3310  203.0490  150.6710 C   0  0  0  0  0  0  0  0  0  0  0  0
  161.5390  203.7820  151.8480 C   0  0  0  0  0  3  0  0  0  0  0  0
  161.2800  205.1540  151.8820 C   0  0  0  0  0  0  0  0  0  0  0  0
  160.5980  205.0820  149.5500 C   0  0  0  0  0  3  0  0  0  0  0  0
  160.8060  205.8090  150.7240 C   0  0  0  0  0  0  0  0  0  0  0  0
  160.8600  203.7100  149.5240 C   0  0  0  0  0  3  0  0  0  0  0  0
  160.7540  207.9160  151.9350 C   0  0  0  0  0  0  0  0  0  0  0  0
  161.2260  207.2540  153.0810 C   0  0  0  0  0  3  0  0  0  0  0  0
  161.5980  201.6410  150.6410 N   0  0  0  0  0  0  0  0  0  0  0  0
  162.0920  201.0670  151.6340 O   0  0  0  0  0  0  0  0  0  0  0  0
  161.3110  200.9040  149.5160 O   0  0  0  0  0  0  0  0  0  0  0  0
  155.0200  212.5740  156.7450 O   0  0  0  0  0  0  0  0  0  0  0  0
  154.6160  213.9040  157.0460 C   0  0  0  0  0  2  0  0  0  0  0  0
  153.1180  213.9400  157.2610 C   0  0  0  0  0  1  0  0  0  0  0  0
  1 18  1  0  0  0  0
  2 13  1  0  0  0  0
  3 16  1  0  0  0  0
  4  9  1  0  0  0  0
  5  1  1  0  0  0  0
  6  4  2  0  0  0  0
  6 11  1  0  0  0  0
  7  8  2  0  0  0  0
  7 12  1  0  0  0  0
  8  6  1  0  0  0  0
  9  5  2  0  0  0  0
 10 11  1  0  0  0  0
 10  3  1  0  0  0  0
 11  1  2  0  0  0  0
 12 10  2  0  0  0  0
 13 14  1  0  0  0  0
 14 15  2  0  0  0  0
 14 32  1  0  0  0  0
 16 18  1  0  0  0  0
 16  2  2  0  0  0  0
 17 15  1  0  0  0  0
 18 17  2  0  0  0  0
 19 28  1  0  0  0  0
 20 27  1  0  0  0  0
 21 22  2  0  0  0  0
 22 23  1  0  0  0  0
 23 19  2  0  0  0  0
 24 25  1  0  0  0  0
 25 20  2  0  0  0  0
 25 23  1  0  0  0  0
 26 24  2  0  0  0  0
 26 21  1  0  0  0  0
 27  9  1  0  0  0  0
 27 28  2  0  0  0  0
 29 21  1  0  0  0  0
 29 30  2  0  0  0  0
 31 29  2  0  0  0  0
 32 33  1  0  0  0  0
 33 34  1  0  0  0  0
M  END
>  <MODEL>
6

>  <REMARK>
 VINA RESULT:      -4.9      2.734      3.572
  Name = 
  4 active torsions:
  status: ('A' for Active; 'I' for Inactive)
    1  A    between atoms: O_3  and  C_13
    2  A    between atoms: O_3  and  C_25
    3  A    between atoms: C_7  and  N_11
    4  A    between atoms: C_18  and  C_30
                            x       y       z     vdW  Elec       q    Type
                         _______ _______ _______ _____ _____    ______ ____

>  <TORSDO>
F 4

$$$$
