=
 OpenBabel11052423113D

 27 31  0  0  0  0  0  0  0  0999 V2000
  162.2460  209.3760  149.2660 N   0  0  0  0  0  0  0  0  0  0  0  0
  161.3400  210.0370  151.4620 C   0  0  0  0  0  0  0  0  0  0  0  0
  161.0570  207.6200  151.3560 N   0  0  0  0  0  0  0  0  0  0  0  0
  160.8280  209.4300  155.5040 N   0  0  0  0  0  0  0  0  0  0  0  0
  160.5920  207.3500  156.7730 C   0  0  0  0  0  1  0  0  0  0  0  0
  161.2290  211.1460  152.3560 C   0  0  0  0  0  3  0  0  0  0  0  0
  160.9270  207.5850  154.3040 C   0  0  0  0  0  0  0  0  0  0  0  0
  160.2450  205.8660  148.1340 C   0  0  0  0  0  3  0  0  0  0  0  0
  160.9080  206.1290  153.9770 C   0  0  0  0  0  1  0  0  0  0  0  0
  161.1900  205.8990  147.1960 C   0  0  0  0  0  3  0  0  0  0  0  0
  161.0830  208.6390  153.4230 C   0  0  0  0  0  0  0  0  0  0  0  0
  161.6190  210.3130  150.1530 C   0  0  0  0  0  0  0  0  0  0  0  0
  160.7850  208.1040  155.5470 N   0  0  0  0  0  0  0  0  0  0  0  0
  161.0120  209.7490  154.2100 C   0  0  0  0  0  0  0  0  0  0  0  0
  162.0400  208.1090  149.1130 C   0  0  0  0  0  0  0  0  0  0  0  0
  161.2150  208.7210  152.0300 C   0  0  0  0  0  0  0  0  0  0  0  0
  160.3200  206.3990  149.4990 C   0  0  0  0  0  3  0  0  0  0  0  0
  161.0630  210.9950  153.7000 N   0  0  0  0  0  0  0  0  0  0  0  0
  162.4940  206.4790  147.3280 N   0  0  0  0  0  0  0  0  0  0  0  0
  162.8820  207.4240  148.1270 C   0  0  0  0  0  3  0  0  0  0  0  0
  161.0900  207.3860  149.9530 C   0  0  0  0  0  0  0  0  0  0  0  0
  161.3510  214.2840  148.5330 C   0  0  0  0  0  3  0  0  0  0  0  0
  161.5420  211.7020  149.6230 C   0  0  0  0  0  0  0  0  0  0  0  0
  160.5510  212.5920  150.0680 C   0  0  0  0  0  3  0  0  0  0  0  0
  160.4600  213.8790  149.5300 C   0  0  0  0  0  3  0  0  0  0  0  0
  162.3290  213.4000  148.0700 C   0  0  0  0  0  3  0  0  0  0  0  0
  162.4200  212.1130  148.6080 C   0  0  0  0  0  3  0  0  0  0  0  0
  1 12  1  0  0  0  0
  2 16  1  0  0  0  0
  2  6  1  0  0  0  0
  3 16  2  0  0  0  0
  4 13  1  0  0  0  0
  6 18  2  0  0  0  0
  7 13  1  0  0  0  0
  8 17  1  0  0  0  0
  9  7  1  0  0  0  0
 10 19  1  0  0  0  0
 10  8  2  0  0  0  0
 11 14  1  0  0  0  0
 11  7  2  0  0  0  0
 12  2  2  0  0  0  0
 13  5  1  0  0  0  0
 14  4  2  0  0  0  0
 15  1  2  0  0  0  0
 15 21  1  0  0  0  0
 16 11  1  0  0  0  0
 17 21  2  0  0  0  0
 18 14  1  0  0  0  0
 19 20  2  0  0  0  0
 20 15  1  0  0  0  0
 21  3  1  0  0  0  0
 22 25  1  0  0  0  0
 23 24  1  0  0  0  0
 23 12  1  0  0  0  0
 25 24  2  0  0  0  0
 26 22  2  0  0  0  0
 26 27  1  0  0  0  0
 27 23  2  0  0  0  0
M  END
>  <MODEL>
1

>  <REMARK>
 VINA RESULT:      -7.2      0.000      0.000
  Name = 
  1 active torsions:
  status: ('A' for Active; 'I' for Inactive)
    1  A    between atoms: C_9  and  C_15
                            x       y       z     vdW  Elec       q    Type
                         _______ _______ _______ _____ _____    ______ ____

>  <TORSDO>
F 1

$$$$
=
 OpenBabel11052423113D

 27 31  0  0  0  0  0  0  0  0999 V2000
  160.7970  209.3220  153.4680 N   0  0  0  0  0  0  0  0  0  0  0  0
  161.2200  209.6390  151.0590 C   0  0  0  0  0  0  0  0  0  0  0  0
  160.1420  211.6950  151.7940 N   0  0  0  0  0  0  0  0  0  0  0  0
  162.3640  211.9580  147.8540 N   0  0  0  0  0  0  0  0  0  0  0  0
  162.0380  214.3480  147.4350 C   0  0  0  0  0  1  0  0  0  0  0  0
  161.8840  209.0530  149.9370 C   0  0  0  0  0  3  0  0  0  0  0  0
  161.3140  213.0540  149.4500 C   0  0  0  0  0  0  0  0  0  0  0  0
  157.4720  211.6900  154.4380 C   0  0  0  0  0  3  0  0  0  0  0  0
  160.6750  214.1890  150.1780 C   0  0  0  0  0  1  0  0  0  0  0  0
  157.8620  211.3370  155.6620 C   0  0  0  0  0  3  0  0  0  0  0  0
  161.4040  211.7390  149.8670 C   0  0  0  0  0  0  0  0  0  0  0  0
  160.9700  208.8300  152.1310 C   0  0  0  0  0  0  0  0  0  0  0  0
  161.9100  213.1450  148.2380 N   0  0  0  0  0  0  0  0  0  0  0  0
  162.0550  211.1080  148.8490 C   0  0  0  0  0  0  0  0  0  0  0  0
  160.1410  210.3490  153.8970 C   0  0  0  0  0  0  0  0  0  0  0  0
  160.9310  211.0460  150.9890 C   0  0  0  0  0  0  0  0  0  0  0  0
  158.3090  211.8490  153.2420 C   0  0  0  0  0  3  0  0  0  0  0  0
  162.2850  209.7800  148.8560 N   0  0  0  0  0  0  0  0  0  0  0  0
  159.2010  211.0270  156.0670 N   0  0  0  0  0  0  0  0  0  0  0  0
  160.1870  210.5980  155.3420 C   0  0  0  0  0  3  0  0  0  0  0  0
  159.4770  211.2670  152.9760 C   0  0  0  0  0  0  0  0  0  0  0  0
  161.3320  204.5540  151.9010 C   0  0  0  0  0  3  0  0  0  0  0  0
  161.1300  207.3520  152.0390 C   0  0  0  0  0  0  0  0  0  0  0  0
  161.0380  206.6910  150.8030 C   0  0  0  0  0  3  0  0  0  0  0  0
  161.1450  205.2990  150.7340 C   0  0  0  0  0  3  0  0  0  0  0  0
  161.4070  205.2000  153.1370 C   0  0  0  0  0  3  0  0  0  0  0  0
  161.3000  206.5920  153.2060 C   0  0  0  0  0  3  0  0  0  0  0  0
  1 15  1  0  0  0  0
  2 12  1  0  0  0  0
  3 21  2  0  0  0  0
  4 13  1  0  0  0  0
  4 14  2  0  0  0  0
  5 13  1  0  0  0  0
  6  2  1  0  0  0  0
  7 11  2  0  0  0  0
  7  9  1  0  0  0  0
  8 10  1  0  0  0  0
 10 19  2  0  0  0  0
 11 16  1  0  0  0  0
 12  1  2  0  0  0  0
 13  7  1  0  0  0  0
 14 18  1  0  0  0  0
 14 11  1  0  0  0  0
 15 20  2  0  0  0  0
 16  2  2  0  0  0  0
 16  3  1  0  0  0  0
 17  8  2  0  0  0  0
 18  6  2  0  0  0  0
 20 19  1  0  0  0  0
 21 17  1  0  0  0  0
 21 15  1  0  0  0  0
 22 26  1  0  0  0  0
 23 12  1  0  0  0  0
 23 27  1  0  0  0  0
 24 23  2  0  0  0  0
 25 24  1  0  0  0  0
 25 22  2  0  0  0  0
 26 27  2  0  0  0  0
M  END
>  <MODEL>
2

>  <REMARK>
 VINA RESULT:      -7.1      2.018      7.268
  Name = 
  1 active torsions:
  status: ('A' for Active; 'I' for Inactive)
    1  A    between atoms: C_9  and  C_15
                            x       y       z     vdW  Elec       q    Type
                         _______ _______ _______ _____ _____    ______ ____

>  <TORSDO>
F 1

$$$$
=
 OpenBabel11052423113D

 27 31  0  0  0  0  0  0  0  0999 V2000
  160.7450  211.1430  151.4900 N   0  0  0  0  0  0  0  0  0  0  0  0
  161.5590  209.2650  150.1150 C   0  0  0  0  0  0  0  0  0  0  0  0
  161.3250  208.3580  152.3630 N   0  0  0  0  0  0  0  0  0  0  0  0
  161.5430  205.2910  149.0350 N   0  0  0  0  0  0  0  0  0  0  0  0
  161.2060  203.2830  150.3950 C   0  0  0  0  0  1  0  0  0  0  0  0
  161.8210  208.8770  148.7650 C   0  0  0  0  0  3  0  0  0  0  0  0
  161.1650  205.6610  151.1730 C   0  0  0  0  0  0  0  0  0  0  0  0
  162.0430  210.4280  155.4150 C   0  0  0  0  0  3  0  0  0  0  0  0
  160.9010  205.3780  152.6140 C   0  0  0  0  0  1  0  0  0  0  0  0
  161.2210  211.4530  155.6330 C   0  0  0  0  0  3  0  0  0  0  0  0
  161.3230  206.9000  150.5790 C   0  0  0  0  0  0  0  0  0  0  0  0
  161.4720  210.6030  150.3770 C   0  0  0  0  0  0  0  0  0  0  0  0
  161.2960  204.7210  150.2080 N   0  0  0  0  0  0  0  0  0  0  0  0
  161.5560  206.6150  149.2670 C   0  0  0  0  0  0  0  0  0  0  0  0
  160.6880  210.7460  152.7180 C   0  0  0  0  0  0  0  0  0  0  0  0
  161.3450  208.2110  151.0710 C   0  0  0  0  0  0  0  0  0  0  0  0
  161.9560  209.4210  154.3520 C   0  0  0  0  0  3  0  0  0  0  0  0
  161.8230  207.5760  148.3600 N   0  0  0  0  0  0  0  0  0  0  0  0
  160.0660  211.7920  154.8550 N   0  0  0  0  0  0  0  0  0  0  0  0
  159.8160  211.5120  153.6140 C   0  0  0  0  0  3  0  0  0  0  0  0
  161.3760  209.5360  153.1590 C   0  0  0  0  0  0  0  0  0  0  0  0
  162.7300  213.5900  147.5550 C   0  0  0  0  0  3  0  0  0  0  0  0
  161.8960  211.6160  149.3720 C   0  0  0  0  0  0  0  0  0  0  0  0
  163.0810  211.4530  148.6360 C   0  0  0  0  0  3  0  0  0  0  0  0
  163.4930  212.4330  147.7270 C   0  0  0  0  0  3  0  0  0  0  0  0
  161.5580  213.7710  148.2960 C   0  0  0  0  0  3  0  0  0  0  0  0
  161.1470  212.7920  149.2040 C   0  0  0  0  0  3  0  0  0  0  0  0
  1 15  1  0  0  0  0
  2 12  1  0  0  0  0
  2 16  2  0  0  0  0
  3 21  2  0  0  0  0
  4 14  2  0  0  0  0
  4 13  1  0  0  0  0
  6  2  1  0  0  0  0
  7  9  1  0  0  0  0
  8 10  1  0  0  0  0
 11 16  1  0  0  0  0
 11  7  2  0  0  0  0
 12  1  2  0  0  0  0
 13  5  1  0  0  0  0
 13  7  1  0  0  0  0
 14 11  1  0  0  0  0
 15 21  1  0  0  0  0
 15 20  2  0  0  0  0
 16  3  1  0  0  0  0
 17  8  2  0  0  0  0
 18  6  2  0  0  0  0
 18 14  1  0  0  0  0
 19 10  2  0  0  0  0
 20 19  1  0  0  0  0
 21 17  1  0  0  0  0
 22 25  2  0  0  0  0
 22 26  1  0  0  0  0
 23 12  1  0  0  0  0
 24 23  2  0  0  0  0
 25 24  1  0  0  0  0
 26 27  2  0  0  0  0
 27 23  1  0  0  0  0
M  END
>  <MODEL>
3

>  <REMARK>
 VINA RESULT:      -6.7      1.643      5.176
  Name = 
  1 active torsions:
  status: ('A' for Active; 'I' for Inactive)
    1  A    between atoms: C_9  and  C_15
                            x       y       z     vdW  Elec       q    Type
                         _______ _______ _______ _____ _____    ______ ____

>  <TORSDO>
F 1

$$$$
=
 OpenBabel11052423113D

 27 31  0  0  0  0  0  0  0  0999 V2000
  161.2830  208.7700  153.3840 N   0  0  0  0  0  0  0  0  0  0  0  0
  161.4050  209.2110  150.9610 C   0  0  0  0  0  0  0  0  0  0  0  0
  160.5340  211.2630  151.9410 N   0  0  0  0  0  0  0  0  0  0  0  0
  162.2380  211.6670  147.7620 N   0  0  0  0  0  0  0  0  0  0  0  0
  161.9790  214.0900  147.5180 C   0  0  0  0  0  1  0  0  0  0  0  0
  161.8880  208.6660  149.7320 C   0  0  0  0  0  3  0  0  0  0  0  0
  161.4590  212.7090  149.5390 C   0  0  0  0  0  0  0  0  0  0  0  0
  158.2330  211.2140  154.9110 C   0  0  0  0  0  3  0  0  0  0  0  0
  160.9770  213.8250  150.4050 C   0  0  0  0  0  1  0  0  0  0  0  0
  158.7600  210.7720  156.0520 C   0  0  0  0  0  3  0  0  0  0  0  0
  161.5370  211.3690  149.8690 C   0  0  0  0  0  0  0  0  0  0  0  0
  161.2570  208.3510  152.0120 C   0  0  0  0  0  0  0  0  0  0  0  0
  161.8970  212.8470  148.2660 N   0  0  0  0  0  0  0  0  0  0  0  0
  162.0190  210.7730  148.7420 C   0  0  0  0  0  0  0  0  0  0  0  0
  160.7390  209.7960  153.9510 C   0  0  0  0  0  0  0  0  0  0  0  0
  161.1790  210.6310  151.0050 C   0  0  0  0  0  0  0  0  0  0  0  0
  158.9140  211.4080  153.6250 C   0  0  0  0  0  3  0  0  0  0  0  0
  162.1810  209.4390  148.6480 N   0  0  0  0  0  0  0  0  0  0  0  0
  160.1230  210.3820  156.2590 N   0  0  0  0  0  0  0  0  0  0  0  0
  160.9840  209.9560  155.3880 C   0  0  0  0  0  3  0  0  0  0  0  0
  160.0080  210.7950  153.1760 C   0  0  0  0  0  0  0  0  0  0  0  0
  161.5620  204.1070  151.4120 C   0  0  0  0  0  3  0  0  0  0  0  0
  161.3290  206.8760  151.8200 C   0  0  0  0  0  0  0  0  0  0  0  0
  161.6620  206.0240  152.8860 C   0  0  0  0  0  3  0  0  0  0  0  0
  161.7710  204.6450  152.6840 C   0  0  0  0  0  3  0  0  0  0  0  0
  161.2490  204.9480  150.3410 C   0  0  0  0  0  3  0  0  0  0  0  0
  161.1390  206.3270  150.5430 C   0  0  0  0  0  3  0  0  0  0  0  0
  1 15  1  0  0  0  0
  2 16  2  0  0  0  0
  2 12  1  0  0  0  0
  3 21  2  0  0  0  0
  4 13  1  0  0  0  0
  4 14  2  0  0  0  0
  5 13  1  0  0  0  0
  6  2  1  0  0  0  0
  7 11  2  0  0  0  0
  7  9  1  0  0  0  0
  8 10  1  0  0  0  0
 10 19  2  0  0  0  0
 11 16  1  0  0  0  0
 12  1  2  0  0  0  0
 13  7  1  0  0  0  0
 14 11  1  0  0  0  0
 15 20  2  0  0  0  0
 16  3  1  0  0  0  0
 17  8  2  0  0  0  0
 18 14  1  0  0  0  0
 18  6  2  0  0  0  0
 20 19  1  0  0  0  0
 21 17  1  0  0  0  0
 21 15  1  0  0  0  0
 22 25  1  0  0  0  0
 23 12  1  0  0  0  0
 23 24  1  0  0  0  0
 25 24  2  0  0  0  0
 26 27  1  0  0  0  0
 26 22  2  0  0  0  0
 27 23  2  0  0  0  0
M  END
>  <MODEL>
4

>  <REMARK>
 VINA RESULT:      -6.4      1.878      7.173
  Name = 
  1 active torsions:
  status: ('A' for Active; 'I' for Inactive)
    1  A    between atoms: C_9  and  C_15
                            x       y       z     vdW  Elec       q    Type
                         _______ _______ _______ _____ _____    ______ ____

>  <TORSDO>
F 1

$$$$
=
 OpenBabel11052423113D

 27 31  0  0  0  0  0  0  0  0999 V2000
  162.3250  210.8160  150.5240 N   0  0  0  0  0  0  0  0  0  0  0  0
  161.4470  208.5320  150.8330 C   0  0  0  0  0  0  0  0  0  0  0  0
  161.5770  208.8460  148.4210 N   0  0  0  0  0  0  0  0  0  0  0  0
  161.2780  204.5450  149.8160 N   0  0  0  0  0  0  0  0  0  0  0  0
  161.4750  203.4610  147.6290 C   0  0  0  0  0  1  0  0  0  0  0  0
  161.1980  207.5370  151.8280 C   0  0  0  0  0  3  0  0  0  0  0  0
  161.6240  205.9100  148.1220 C   0  0  0  0  0  0  0  0  0  0  0  0
  160.8950  212.1770  146.8220 C   0  0  0  0  0  3  0  0  0  0  0  0
  161.8360  206.3670  146.7170 C   0  0  0  0  0  1  0  0  0  0  0  0
  161.7650  213.1470  147.0980 C   0  0  0  0  0  3  0  0  0  0  0  0
  161.5460  206.6980  149.2550 C   0  0  0  0  0  0  0  0  0  0  0  0
  161.5990  209.8210  151.2600 C   0  0  0  0  0  0  0  0  0  0  0  0
  161.4660  204.6210  148.5030 N   0  0  0  0  0  0  0  0  0  0  0  0
  161.3300  205.8110  150.2670 C   0  0  0  0  0  0  0  0  0  0  0  0
  162.3310  211.0750  149.2580 C   0  0  0  0  0  0  0  0  0  0  0  0
  161.5810  208.0810  149.4730 C   0  0  0  0  0  0  0  0  0  0  0  0
  160.9550  210.7730  147.2460 C   0  0  0  0  0  3  0  0  0  0  0  0
  161.1370  206.2070  151.5400 N   0  0  0  0  0  0  0  0  0  0  0  0
  162.9550  213.0180  147.8860 N   0  0  0  0  0  0  0  0  0  0  0  0
  163.2200  212.1540  148.8150 C   0  0  0  0  0  3  0  0  0  0  0  0
  161.5690  210.2640  148.3120 C   0  0  0  0  0  0  0  0  0  0  0  0
  160.6480  211.0660  155.2620 C   0  0  0  0  0  3  0  0  0  0  0  0
  161.2540  210.2200  152.6530 C   0  0  0  0  0  0  0  0  0  0  0  0
  159.9460  210.6040  152.9920 C   0  0  0  0  0  3  0  0  0  0  0  0
  159.6440  211.0190  154.2920 C   0  0  0  0  0  3  0  0  0  0  0  0
  161.9560  210.7030  154.9300 C   0  0  0  0  0  3  0  0  0  0  0  0
  162.2590  210.2880  153.6300 C   0  0  0  0  0  3  0  0  0  0  0  0
  1 12  1  0  0  0  0
  2 12  2  0  0  0  0
  2  6  1  0  0  0  0
  3 16  2  0  0  0  0
  4 14  2  0  0  0  0
  5 13  1  0  0  0  0
  7 13  1  0  0  0  0
  7 11  2  0  0  0  0
  8 10  2  0  0  0  0
  8 17  1  0  0  0  0
  9  7  1  0  0  0  0
 10 19  1  0  0  0  0
 11 16  1  0  0  0  0
 11 14  1  0  0  0  0
 12 23  1  0  0  0  0
 13  4  1  0  0  0  0
 14 18  1  0  0  0  0
 15  1  2  0  0  0  0
 16  2  1  0  0  0  0
 17 21  2  0  0  0  0
 18  6  2  0  0  0  0
 19 20  2  0  0  0  0
 20 15  1  0  0  0  0
 21  3  1  0  0  0  0
 21 15  1  0  0  0  0
 23 24  2  0  0  0  0
 23 27  1  0  0  0  0
 24 25  1  0  0  0  0
 25 22  2  0  0  0  0
 26 22  1  0  0  0  0
 27 26  2  0  0  0  0
M  END
>  <MODEL>
5

>  <REMARK>
 VINA RESULT:      -6.2      2.241      5.554
  Name = 
  1 active torsions:
  status: ('A' for Active; 'I' for Inactive)
    1  A    between atoms: C_9  and  C_15
                            x       y       z     vdW  Elec       q    Type
                         _______ _______ _______ _____ _____    ______ ____

>  <TORSDO>
F 1

$$$$
=
 OpenBabel11052423113D

 27 31  0  0  0  0  0  0  0  0999 V2000
  161.6900  211.5310  139.0570 N   0  0  0  0  0  0  0  0  0  0  0  0
  159.3710  210.7240  139.2860 C   0  0  0  0  0  0  0  0  0  0  0  0
  159.3810  212.9360  140.3040 N   0  0  0  0  0  0  0  0  0  0  0  0
  155.2970  211.3220  139.1830 N   0  0  0  0  0  0  0  0  0  0  0  0
  153.9710  213.2870  139.7950 C   0  0  0  0  0  1  0  0  0  0  0  0
  158.4910  209.6720  138.8840 C   0  0  0  0  0  3  0  0  0  0  0  0
  156.4620  213.0580  139.8780 C   0  0  0  0  0  0  0  0  0  0  0  0
  162.3540  214.2240  142.2050 C   0  0  0  0  0  3  0  0  0  0  0  0
  156.7550  214.4250  140.3990 C   0  0  0  0  0  1  0  0  0  0  0  0
  163.4580  214.4360  141.4910 C   0  0  0  0  0  3  0  0  0  0  0  0
  157.3750  212.0630  139.5800 C   0  0  0  0  0  0  0  0  0  0  0  0
  160.7130  210.4880  139.1900 C   0  0  0  0  0  0  0  0  0  0  0  0
  155.2250  212.5750  139.6180 N   0  0  0  0  0  0  0  0  0  0  0  0
  156.6070  211.0180  139.1600 C   0  0  0  0  0  0  0  0  0  0  0  0
  161.7790  212.6690  139.6630 C   0  0  0  0  0  0  0  0  0  0  0  0
  158.7670  211.9640  139.6950 C   0  0  0  0  0  0  0  0  0  0  0  0
  161.0380  213.7970  141.7150 C   0  0  0  0  0  3  0  0  0  0  0  0
  157.1380  209.8240  138.8300 N   0  0  0  0  0  0  0  0  0  0  0  0
  163.5910  214.2820  140.0720 N   0  0  0  0  0  0  0  0  0  0  0  0
  162.8980  213.5330  139.2720 C   0  0  0  0  0  3  0  0  0  0  0  0
  160.7590  213.1090  140.6100 C   0  0  0  0  0  0  0  0  0  0  0  0
  162.3330  206.5780  138.4450 C   0  0  0  0  0  3  0  0  0  0  0  0
  161.2420  209.1190  138.9410 C   0  0  0  0  0  0  0  0  0  0  0  0
  161.6300  208.2890  140.0060 C   0  0  0  0  0  3  0  0  0  0  0  0
  162.1670  207.0220  139.7590 C   0  0  0  0  0  3  0  0  0  0  0  0
  161.9670  207.4030  137.3780 C   0  0  0  0  0  3  0  0  0  0  0  0
  161.4300  208.6700  137.6250 C   0  0  0  0  0  3  0  0  0  0  0  0
  1 12  2  0  0  0  0
  1 15  1  0  0  0  0
  2 16  2  0  0  0  0
  3 21  2  0  0  0  0
  4 13  1  0  0  0  0
  6  2  1  0  0  0  0
  7  9  1  0  0  0  0
 10  8  1  0  0  0  0
 11 16  1  0  0  0  0
 11  7  2  0  0  0  0
 12  2  1  0  0  0  0
 13  5  1  0  0  0  0
 13  7  1  0  0  0  0
 14  4  2  0  0  0  0
 14 11  1  0  0  0  0
 15 21  1  0  0  0  0
 16  3  1  0  0  0  0
 17  8  2  0  0  0  0
 18  6  2  0  0  0  0
 18 14  1  0  0  0  0
 19 10  2  0  0  0  0
 20 15  2  0  0  0  0
 20 19  1  0  0  0  0
 21 17  1  0  0  0  0
 22 25  1  0  0  0  0
 23 12  1  0  0  0  0
 23 24  1  0  0  0  0
 25 24  2  0  0  0  0
 26 27  1  0  0  0  0
 26 22  2  0  0  0  0
 27 23  2  0  0  0  0
M  END
>  <MODEL>
6

>  <REMARK>
 VINA RESULT:      -5.8     10.938     13.235
  Name = 
  1 active torsions:
  status: ('A' for Active; 'I' for Inactive)
    1  A    between atoms: C_9  and  C_15
                            x       y       z     vdW  Elec       q    Type
                         _______ _______ _______ _____ _____    ______ ____

>  <TORSDO>
F 1

$$$$
=
 OpenBabel11052423113D

 27 31  0  0  0  0  0  0  0  0999 V2000
  161.0970  209.0770  147.6900 N   0  0  0  0  0  0  0  0  0  0  0  0
  161.4610  207.6260  149.6500 C   0  0  0  0  0  0  0  0  0  0  0  0
  161.8620  209.8910  150.4480 N   0  0  0  0  0  0  0  0  0  0  0  0
  161.0830  206.7980  153.6670 N   0  0  0  0  0  0  0  0  0  0  0  0
  161.1170  208.2980  155.6010 C   0  0  0  0  0  1  0  0  0  0  0  0
  161.3230  206.2780  150.1050 C   0  0  0  0  0  3  0  0  0  0  0  0
  161.3320  208.9340  153.1900 C   0  0  0  0  0  0  0  0  0  0  0  0
  163.4460  212.5050  148.2640 C   0  0  0  0  0  3  0  0  0  0  0  0
  161.4850  210.4030  153.4000 C   0  0  0  0  0  1  0  0  0  0  0  0
  162.7350  212.8950  147.2070 C   0  0  0  0  0  3  0  0  0  0  0  0
  161.3330  208.2570  151.9840 C   0  0  0  0  0  0  0  0  0  0  0  0
  161.4700  207.8320  148.2990 C   0  0  0  0  0  0  0  0  0  0  0  0
  161.1710  208.0210  154.1760 N   0  0  0  0  0  0  0  0  0  0  0  0
  161.1800  206.9490  152.3340 C   0  0  0  0  0  0  0  0  0  0  0  0
  161.3860  210.2900  148.0300 C   0  0  0  0  0  0  0  0  0  0  0  0
  161.5120  208.6550  150.6530 C   0  0  0  0  0  0  0  0  0  0  0  0
  163.0460  211.5630  149.3150 C   0  0  0  0  0  3  0  0  0  0  0  0
  161.1910  205.9560  151.4230 N   0  0  0  0  0  0  0  0  0  0  0  0
  161.4110  212.4590  146.8720 N   0  0  0  0  0  0  0  0  0  0  0  0
  160.8150  211.3550  147.2000 C   0  0  0  0  0  3  0  0  0  0  0  0
  162.1540  210.5790  149.2380 C   0  0  0  0  0  0  0  0  0  0  0  0
  161.8840  204.6280  145.4660 C   0  0  0  0  0  3  0  0  0  0  0  0
  161.6060  206.6980  147.3440 C   0  0  0  0  0  0  0  0  0  0  0  0
  162.7630  205.9030  147.3260 C   0  0  0  0  0  3  0  0  0  0  0  0
  162.8990  204.8690  146.3950 C   0  0  0  0  0  3  0  0  0  0  0  0
  160.7360  205.4250  145.4640 C   0  0  0  0  0  3  0  0  0  0  0  0
  160.6000  206.4590  146.3950 C   0  0  0  0  0  3  0  0  0  0  0  0
  1 15  2  0  0  0  0
  1 12  1  0  0  0  0
  2  6  1  0  0  0  0
  2 16  1  0  0  0  0
  3 16  2  0  0  0  0
  4 13  1  0  0  0  0
  6 18  2  0  0  0  0
  7  9  1  0  0  0  0
  7 13  1  0  0  0  0
  8 17  1  0  0  0  0
 10  8  2  0  0  0  0
 11 14  1  0  0  0  0
 11  7  2  0  0  0  0
 12  2  2  0  0  0  0
 13  5  1  0  0  0  0
 14  4  2  0  0  0  0
 15 21  1  0  0  0  0
 16 11  1  0  0  0  0
 18 14  1  0  0  0  0
 19 20  2  0  0  0  0
 19 10  1  0  0  0  0
 20 15  1  0  0  0  0
 21 17  2  0  0  0  0
 21  3  1  0  0  0  0
 22 25  1  0  0  0  0
 23 12  1  0  0  0  0
 24 23  1  0  0  0  0
 25 24  2  0  0  0  0
 26 22  2  0  0  0  0
 26 27  1  0  0  0  0
 27 23  2  0  0  0  0
M  END
>  <MODEL>
7

>  <REMARK>
 VINA RESULT:      -5.8      1.734      5.297
  Name = 
  1 active torsions:
  status: ('A' for Active; 'I' for Inactive)
    1  A    between atoms: C_9  and  C_15
                            x       y       z     vdW  Elec       q    Type
                         _______ _______ _______ _____ _____    ______ ____

>  <TORSDO>
F 1

$$$$
=
 OpenBabel11052423113D

 27 31  0  0  0  0  0  0  0  0999 V2000
  161.5550  210.9740  139.6430 N   0  0  0  0  0  0  0  0  0  0  0  0
  159.3650  210.1390  138.8760 C   0  0  0  0  0  0  0  0  0  0  0  0
  158.8530  211.9750  140.3930 N   0  0  0  0  0  0  0  0  0  0  0  0
  155.4940  210.7500  137.6090 N   0  0  0  0  0  0  0  0  0  0  0  0
  153.8710  212.4650  138.2550 C   0  0  0  0  0  1  0  0  0  0  0  0
  158.7550  209.2450  137.9430 C   0  0  0  0  0  3  0  0  0  0  0  0
  156.2190  212.2170  139.0840 C   0  0  0  0  0  0  0  0  0  0  0  0
  160.9490  212.6690  143.4330 C   0  0  0  0  0  3  0  0  0  0  0  0
  156.2080  213.3810  140.0180 C   0  0  0  0  0  1  0  0  0  0  0  0
  162.1970  213.0720  143.2040 C   0  0  0  0  0  3  0  0  0  0  0  0
  157.2650  211.3450  138.8470 C   0  0  0  0  0  0  0  0  0  0  0  0
  160.6850  209.9380  139.1660 C   0  0  0  0  0  0  0  0  0  0  0  0
  155.1750  211.8290  138.3140 N   0  0  0  0  0  0  0  0  0  0  0  0
  156.7660  210.4620  137.9360 C   0  0  0  0  0  0  0  0  0  0  0  0
  161.3460  211.8950  140.5260 C   0  0  0  0  0  0  0  0  0  0  0  0
  158.5530  211.2150  139.3810 C   0  0  0  0  0  0  0  0  0  0  0  0
  159.8980  212.4000  142.4440 C   0  0  0  0  0  3  0  0  0  0  0  0
  157.4790  209.4090  137.4920 N   0  0  0  0  0  0  0  0  0  0  0  0
  162.7830  213.3230  141.9200 N   0  0  0  0  0  0  0  0  0  0  0  0
  162.4470  212.8320  140.7680 C   0  0  0  0  0  3  0  0  0  0  0  0
  160.0440  212.0510  141.1680 C   0  0  0  0  0  0  0  0  0  0  0  0
  162.6190  206.2920  137.9690 C   0  0  0  0  0  3  0  0  0  0  0  0
  161.3870  208.6930  138.7470 C   0  0  0  0  0  0  0  0  0  0  0  0
  161.6900  208.4520  137.3970 C   0  0  0  0  0  3  0  0  0  0  0  0
  162.3090  207.2600  137.0110 C   0  0  0  0  0  3  0  0  0  0  0  0
  162.3050  206.5130  139.3120 C   0  0  0  0  0  3  0  0  0  0  0  0
  161.6860  207.7050  139.6990 C   0  0  0  0  0  3  0  0  0  0  0  0
  1 15  1  0  0  0  0
  2 12  1  0  0  0  0
  2 16  2  0  0  0  0
  3 21  2  0  0  0  0
  4 14  2  0  0  0  0
  4 13  1  0  0  0  0
  5 13  1  0  0  0  0
  6  2  1  0  0  0  0
  7  9  1  0  0  0  0
 10  8  1  0  0  0  0
 11  7  2  0  0  0  0
 11 16  1  0  0  0  0
 12  1  2  0  0  0  0
 13  7  1  0  0  0  0
 14 11  1  0  0  0  0
 15 20  2  0  0  0  0
 15 21  1  0  0  0  0
 16  3  1  0  0  0  0
 17  8  2  0  0  0  0
 18 14  1  0  0  0  0
 18  6  2  0  0  0  0
 19 10  2  0  0  0  0
 20 19  1  0  0  0  0
 21 17  1  0  0  0  0
 22 26  1  0  0  0  0
 23 12  1  0  0  0  0
 23 27  1  0  0  0  0
 24 23  2  0  0  0  0
 25 24  1  0  0  0  0
 25 22  2  0  0  0  0
 26 27  2  0  0  0  0
M  END
>  <MODEL>
8

>  <REMARK>
 VINA RESULT:      -5.7      9.555     13.395
  Name = 
  1 active torsions:
  status: ('A' for Active; 'I' for Inactive)
    1  A    between atoms: C_9  and  C_15
                            x       y       z     vdW  Elec       q    Type
                         _______ _______ _______ _____ _____    ______ ____

>  <TORSDO>
F 1

$$$$
=
 OpenBabel11052423113D

 27 31  0  0  0  0  0  0  0  0999 V2000
  162.1810  209.8240  150.7560 N   0  0  0  0  0  0  0  0  0  0  0  0
  161.2920  207.5320  150.5640 C   0  0  0  0  0  0  0  0  0  0  0  0
  161.5790  208.3010  148.2710 N   0  0  0  0  0  0  0  0  0  0  0  0
  161.2060  203.8150  148.7930 N   0  0  0  0  0  0  0  0  0  0  0  0
  161.5500  203.1680  146.4570 C   0  0  0  0  0  1  0  0  0  0  0  0
  160.9830  206.3670  151.3320 C   0  0  0  0  0  3  0  0  0  0  0  0
  161.6570  205.4760  147.4180 C   0  0  0  0  0  0  0  0  0  0  0  0
  160.9910  211.8820  147.2990 C   0  0  0  0  0  3  0  0  0  0  0  0
  161.9590  206.1920  146.1440 C   0  0  0  0  0  1  0  0  0  0  0  0
  161.8370  212.7740  147.8110 C   0  0  0  0  0  3  0  0  0  0  0  0
  161.5010  206.0330  148.6740 C   0  0  0  0  0  0  0  0  0  0  0  0
  161.4110  208.7140  151.2400 C   0  0  0  0  0  0  0  0  0  0  0  0
  161.4790  204.1390  147.5340 N   0  0  0  0  0  0  0  0  0  0  0  0
  161.2240  204.9710  149.4800 C   0  0  0  0  0  0  0  0  0  0  0  0
  162.2680  210.3210  149.5670 C   0  0  0  0  0  0  0  0  0  0  0  0
  161.5170  207.3490  149.1550 C   0  0  0  0  0  0  0  0  0  0  0  0
  161.0280  210.4230  147.4490 C   0  0  0  0  0  3  0  0  0  0  0  0
  160.9460  205.1170  150.7910 N   0  0  0  0  0  0  0  0  0  0  0  0
  162.9740  212.4860  148.6360 N   0  0  0  0  0  0  0  0  0  0  0  0
  163.1810  211.4570  149.3970 C   0  0  0  0  0  3  0  0  0  0  0  0
  161.5730  209.7140  148.4350 C   0  0  0  0  0  0  0  0  0  0  0  0
  160.2510  209.0960  155.3590 C   0  0  0  0  0  3  0  0  0  0  0  0
  160.9740  208.8420  152.6570 C   0  0  0  0  0  0  0  0  0  0  0  0
  160.3970  210.0310  153.1320 C   0  0  0  0  0  3  0  0  0  0  0  0
  160.0310  210.1550  154.4750 C   0  0  0  0  0  3  0  0  0  0  0  0
  160.8410  207.9150  154.9020 C   0  0  0  0  0  3  0  0  0  0  0  0
  161.2060  207.7910  153.5580 C   0  0  0  0  0  3  0  0  0  0  0  0
  1 12  1  0  0  0  0
  2 12  2  0  0  0  0
  2  6  1  0  0  0  0
  3 21  1  0  0  0  0
  3 16  2  0  0  0  0
  4 14  2  0  0  0  0
  5 13  1  0  0  0  0
  7 13  1  0  0  0  0
  7 11  2  0  0  0  0
  8 17  1  0  0  0  0
  8 10  2  0  0  0  0
  9  7  1  0  0  0  0
 10 19  1  0  0  0  0
 11 16  1  0  0  0  0
 11 14  1  0  0  0  0
 12 23  1  0  0  0  0
 13  4  1  0  0  0  0
 14 18  1  0  0  0  0
 15  1  2  0  0  0  0
 16  2  1  0  0  0  0
 17 21  2  0  0  0  0
 18  6  2  0  0  0  0
 19 20  2  0  0  0  0
 20 15  1  0  0  0  0
 21 15  1  0  0  0  0
 23 24  2  0  0  0  0
 23 27  1  0  0  0  0
 24 25  1  0  0  0  0
 25 22  2  0  0  0  0
 26 22  1  0  0  0  0
 27 26  2  0  0  0  0
M  END
>  <MODEL>
9

>  <REMARK>
 VINA RESULT:      -5.6      2.122      6.141
  Name = 
  1 active torsions:
  status: ('A' for Active; 'I' for Inactive)
    1  A    between atoms: C_9  and  C_15
                            x       y       z     vdW  Elec       q    Type
                         _______ _______ _______ _____ _____    ______ ____

>  <TORSDO>
F 1

$$$$
