=
 OpenBabel11062409253D

 37 38  0  0  1  0  0  0  0  0999 V2000
  161.3180  211.6640  153.5460 O   0  0  0  0  0  0  0  0  0  0  0  0
  161.6510  210.0440  155.4150 C   0  0  2  0  0  0  0  0  0  0  0  0
  160.0490  211.3170  153.0710 C   0  0  2  0  0  3  0  0  0  0  0  0
  161.9390  210.4660  153.9510 C   0  0  1  0  0  3  0  0  0  0  0  0
  158.9970  212.8010  154.6600 O   0  0  0  0  0  1  0  0  0  0  0  0
  161.5600  208.6530  155.5120 O   0  0  0  0  0  1  0  0  0  0  0  0
  162.1680  209.3810  152.8610 C   0  0  2  0  0  3  0  0  0  0  0  0
  158.8620  209.1690  154.7810 C   0  0  0  0  0  1  0  0  0  0  0  0
  160.3610  210.6820  156.0050 C   0  0  0  0  0  2  0  0  0  0  0  0
  162.5250  210.0070  151.5020 C   0  0  0  0  0  2  0  0  0  0  0  0
  159.1060  210.5330  155.2400 N   0  0  0  0  0  0  0  0  0  0  0  0
  159.7770  211.8990  151.6690 C   0  0  2  0  0  3  0  0  0  0  0  0
  161.0110  211.6690  150.7820 C   0  0  0  0  0  2  0  0  0  0  0  0
  161.3330  210.2530  150.6940 N   0  0  0  0  0  2  0  0  0  0  0  0
  158.9710  211.5020  154.1440 C   0  0  2  0  0  3  0  0  0  0  0  0
  162.4990  211.5930  157.2520 C   0  0  0  0  0  1  0  0  0  0  0  0
  162.8550  210.4990  156.2560 C   0  0  2  0  0  3  0  0  0  0  0  0
  163.9060  210.9330  155.4430 O   0  0  0  0  0  1  0  0  0  0  0  0
  158.0710  213.5280  152.1740 O   0  0  0  0  0  1  0  0  0  0  0  0
  159.3760  213.3890  151.6940 C   0  0  2  0  0  3  0  0  0  0  0  0
  160.6350  214.2610  149.7810 C   0  0  0  0  0  0  0  0  0  0  0  0
  159.4750  214.0660  150.3540 C   0  0  0  0  0  0  0  0  0  0  0  0
  161.7320  214.4440  149.2400 O   0  0  0  0  0  0  0  0  0  0  0  0
  158.2260  214.4530  149.6340 C   0  0  0  0  0  2  0  0  0  0  0  0
  156.6020  212.8390  148.7630 C   0  0  0  0  0  2  0  0  0  0  0  0
  158.6960  213.0300  147.5250 C   0  0  0  0  0  1  0  0  0  0  0  0
  157.8090  213.3890  148.6690 C   0  0  0  0  0  0  0  0  0  0  0  0
  161.0660  208.5200  152.7500 O   0  0  0  0  0  0  0  0  0  0  0  0
  160.9980  206.2730  153.5890 C   0  0  0  0  0  1  0  0  0  0  0  0
  161.5880  207.2310  152.5620 C   0  0  1  0  0  3  0  0  0  0  0  0
  161.3620  206.7410  151.1200 C   0  0  2  0  0  0  0  0  0  0  0  0
  162.4070  207.1770  150.3050 O   0  0  0  0  0  1  0  0  0  0  0  0
  160.1850  207.2870  150.6420 F   0  0  0  0  0  0  0  0  0  0  0  0
  161.2380  204.9200  151.0130 P   0  0  0  0  0  0  0  0  0  0  0  0
  161.3130  204.4270  149.3950 O   0  0  0  0  0  0  0  0  0  0  0  0
  159.9370  204.4480  151.6200 O   0  0  0  0  0  1  0  0  0  0  0  0
  162.5270  204.2270  151.8600 O   0  0  0  0  0  1  0  0  0  0  0  0
  2  6  1  1  0  0  0
  2  9  1  0  0  0  0
  2 17  1  0  0  0  0
  3  1  1  1  0  0  0
  3 15  1  0  0  0  0
  4  1  1  6  0  0  0
  4  2  1  0  0  0  0
  7 28  1  6  0  0  0
  7  4  1  0  0  0  0
  8 11  1  0  0  0  0
 10  7  1  0  0  0  0
 11  9  1  0  0  0  0
 12 20  1  1  0  0  0
 12  3  1  0  0  0  0
 13 12  1  0  0  0  0
 14 13  1  0  0  0  0
 14 10  1  0  0  0  0
 15  5  1  1  0  0  0
 15 11  1  0  0  0  0
 17 16  1  1  0  0  0
 18 17  1  0  0  0  0
 20 19  1  6  0  0  0
 21 22  2  0  0  0  0
 22 20  1  0  0  0  0
 23 21  2  0  0  0  0
 24 22  1  0  0  0  0
 26 27  1  0  0  0  0
 27 25  2  0  0  0  0
 27 24  1  0  0  0  0
 30 28  1  0  0  0  0
 30 29  1  1  0  0  0
 31 32  1  6  0  0  0
 31 30  1  0  0  0  0
 33 31  1  0  0  0  0
 34 31  1  0  0  0  0
 34 36  1  0  0  0  0
 34 37  1  0  0  0  0
 35 34  2  0  0  0  0
M  END
>  <MODEL>
1

>  <REMARK>
 VINA RESULT:      -3.2      0.000      0.000
  Name = 
  9 active torsions:
  status: ('A' for Active; 'I' for Inactive)
    1  A    between atoms: C_1  and  P_5
    2  A    between atoms: C_1  and  C_23
    3  A    between atoms: C_6  and  C_8
    4  A    between atoms: C_6  and  C_31
    5  A    between atoms: C_8  and  C_19
    6  A    between atoms: C_9  and  C_30
    7  A    between atoms: C_20  and  O_25
    8  A    between atoms: C_23  and  O_25
    9  A    between atoms: C_29  and  C_31
                            x       y       z     vdW  Elec       q    Type
                         _______ _______ _______ _____ _____    ______ ____

>  <TORSDO>
F 9

$$$$
=
 OpenBabel11062409253D

 37 38  0  0  1  0  0  0  0  0999 V2000
  162.0120  208.0810  154.4460 O   0  0  0  0  0  0  0  0  0  0  0  0
  162.2160  210.5110  154.9740 C   0  0  2  0  0  0  0  0  0  0  0  0
  161.0910  208.0790  153.3930 C   0  0  2  0  0  3  0  0  0  0  0  0
  161.6260  209.1190  155.3170 C   0  0  1  0  0  3  0  0  0  0  0  0
  162.8660  208.3690  151.7800 O   0  0  0  0  0  1  0  0  0  0  0  0
  161.2890  211.5170  155.2590 O   0  0  0  0  0  1  0  0  0  0  0  0
  160.2220  209.0110  155.9730 C   0  0  2  0  0  3  0  0  0  0  0  0
  160.3860  210.8860  152.6380 C   0  0  0  0  0  1  0  0  0  0  0  0
  162.6760  210.6460  153.4930 C   0  0  0  0  0  2  0  0  0  0  0  0
  159.8630  207.5540  156.3120 C   0  0  0  0  0  2  0  0  0  0  0  0
  161.7050  210.2960  152.4370 N   0  0  0  0  0  0  0  0  0  0  0  0
  160.4930  206.6790  153.1510 C   0  0  2  0  0  3  0  0  0  0  0  0
  160.1050  206.0580  154.5020 C   0  0  0  0  0  2  0  0  0  0  0  0
  159.1560  206.9040  155.2110 N   0  0  0  0  0  2  0  0  0  0  0  0
  161.6160  208.8530  152.1790 C   0  0  2  0  0  3  0  0  0  0  0  0
  163.0710  211.3780  157.2130 C   0  0  0  0  0  1  0  0  0  0  0  0
  163.4340  210.7190  155.8890 C   0  0  2  0  0  3  0  0  0  0  0  0
  164.4250  211.4690  155.2520 O   0  0  0  0  0  1  0  0  0  0  0  0
  162.7080  206.2980  152.2740 O   0  0  0  0  0  1  0  0  0  0  0  0
  161.4280  205.7450  152.3540 C   0  0  2  0  0  3  0  0  0  0  0  0
  160.9170  204.2190  150.5050 C   0  0  0  0  0  0  0  0  0  0  0  0
  160.9400  205.4450  150.9620 C   0  0  0  0  0  0  0  0  0  0  0  0
  160.8950  203.0600  150.0730 O   0  0  0  0  0  0  0  0  0  0  0  0
  160.4060  206.5540  150.1180 C   0  0  0  0  0  2  0  0  0  0  0  0
  160.5450  206.1640  147.7040 C   0  0  0  0  0  2  0  0  0  0  0  0
  162.4350  207.3300  148.7130 C   0  0  0  0  0  1  0  0  0  0  0  0
  161.1230  206.6270  148.8080 C   0  0  0  0  0  0  0  0  0  0  0  0
  159.2320  209.6050  155.1750 O   0  0  0  0  0  0  0  0  0  0  0  0
  159.1980  210.7900  157.2600 C   0  0  0  0  0  1  0  0  0  0  0  0
  158.4030  210.3300  156.0450 C   0  0  1  0  0  3  0  0  0  0  0  0
  157.7260  211.5070  155.3200 C   0  0  2  0  0  0  0  0  0  0  0  0
  157.9390  211.3990  153.9450 O   0  0  0  0  0  1  0  0  0  0  0  0
  158.2980  212.6890  155.7540 F   0  0  0  0  0  0  0  0  0  0  0  0
  155.9280  211.5850  155.6430 P   0  0  0  0  0  0  0  0  0  0  0  0
  155.2230  210.0700  155.3720 O   0  0  0  0  0  1  0  0  0  0  0  0
  155.2790  212.6090  154.7400 O   0  0  0  0  0  0  0  0  0  0  0  0
  155.6740  212.0290  157.2550 O   0  0  0  0  0  1  0  0  0  0  0  0
  2  6  1  1  0  0  0
  2  4  1  0  0  0  0
  2 17  1  0  0  0  0
  3  1  1  1  0  0  0
  4  1  1  6  0  0  0
  4  7  1  0  0  0  0
  7 28  1  6  0  0  0
  7 10  1  0  0  0  0
  9  2  1  0  0  0  0
 11  8  1  0  0  0  0
 11  9  1  0  0  0  0
 12 20  1  1  0  0  0
 12  3  1  0  0  0  0
 12 13  1  0  0  0  0
 13 14  1  0  0  0  0
 14 10  1  0  0  0  0
 15  5  1  1  0  0  0
 15 11  1  0  0  0  0
 15  3  1  0  0  0  0
 17 16  1  1  0  0  0
 18 17  1  0  0  0  0
 20 19  1  6  0  0  0
 21 22  2  0  0  0  0
 22 20  1  0  0  0  0
 23 21  2  0  0  0  0
 24 22  1  0  0  0  0
 25 27  2  0  0  0  0
 26 27  1  0  0  0  0
 27 24  1  0  0  0  0
 28 30  1  0  0  0  0
 30 29  1  1  0  0  0
 31 32  1  6  0  0  0
 31 34  1  0  0  0  0
 31 33  1  0  0  0  0
 31 30  1  0  0  0  0
 34 37  1  0  0  0  0
 35 34  1  0  0  0  0
 36 34  2  0  0  0  0
M  END
>  <MODEL>
2

>  <REMARK>
 VINA RESULT:      -3.1      3.459      6.689
  Name = 
  9 active torsions:
  status: ('A' for Active; 'I' for Inactive)
    1  A    between atoms: C_1  and  P_5
    2  A    between atoms: C_1  and  C_23
    3  A    between atoms: C_6  and  C_8
    4  A    between atoms: C_6  and  C_31
    5  A    between atoms: C_8  and  C_19
    6  A    between atoms: C_9  and  C_30
    7  A    between atoms: C_20  and  O_25
    8  A    between atoms: C_23  and  O_25
    9  A    between atoms: C_29  and  C_31
                            x       y       z     vdW  Elec       q    Type
                         _______ _______ _______ _____ _____    ______ ____

>  <TORSDO>
F 9

$$$$
=
 OpenBabel11062409253D

 37 38  0  0  1  0  0  0  0  0999 V2000
  160.4210  212.2040  153.9800 O   0  0  0  0  0  0  0  0  0  0  0  0
  160.3640  211.0520  156.1930 C   0  0  2  0  0  0  0  0  0  0  0  0
  159.3360  211.6240  153.3130 C   0  0  2  0  0  3  0  0  0  0  0  0
  160.9890  211.1920  154.7810 C   0  0  1  0  0  3  0  0  0  0  0  0
  157.8310  213.2750  154.2310 O   0  0  0  0  0  1  0  0  0  0  0  0
  160.3350  209.7100  156.5810 O   0  0  0  0  0  1  0  0  0  0  0  0
  161.5510  209.9400  154.0520 C   0  0  2  0  0  3  0  0  0  0  0  0
  157.8840  209.7550  155.1410 C   0  0  0  0  0  1  0  0  0  0  0  0
  158.9310  211.6470  156.3040 C   0  0  0  0  0  2  0  0  0  0  0  0
  162.2030  210.3090  152.7080 C   0  0  0  0  0  2  0  0  0  0  0  0
  157.9230  211.2020  155.3210 N   0  0  0  0  0  0  0  0  0  0  0  0
  159.3950  211.8710  151.7920 C   0  0  2  0  0  3  0  0  0  0  0  0
  160.8250  211.6050  151.2950 C   0  0  0  0  0  2  0  0  0  0  0  0
  161.2410  210.2460  151.6100 N   0  0  0  0  0  2  0  0  0  0  0  0
  158.0130  211.9030  154.0330 C   0  0  2  0  0  3  0  0  0  0  0  0
  160.9620  213.2880  157.2590 C   0  0  0  0  0  1  0  0  0  0  0  0
  161.2870  211.8030  157.1670 C   0  0  2  0  0  3  0  0  0  0  0  0
  162.6310  211.6410  156.8190 O   0  0  0  0  0  1  0  0  0  0  0  0
  157.5470  213.4130  151.6410 O   0  0  0  0  0  1  0  0  0  0  0  0
  158.9130  213.2780  151.3830 C   0  0  2  0  0  3  0  0  0  0  0  0
  158.2610  213.3870  149.0230 C   0  0  0  0  0  0  0  0  0  0  0  0
  159.1700  213.6090  149.9380 C   0  0  0  0  0  0  0  0  0  0  0  0
  157.4010  213.1780  148.1580 O   0  0  0  0  0  0  0  0  0  0  0  0
  160.4520  214.2700  149.5540 C   0  0  0  0  0  2  0  0  0  0  0  0
  161.6770  212.5240  148.3490 C   0  0  0  0  0  2  0  0  0  0  0  0
  160.7160  214.3010  146.9800 C   0  0  0  0  0  1  0  0  0  0  0  0
  161.0110  213.6740  148.3010 C   0  0  0  0  0  0  0  0  0  0  0  0
  160.5650  208.9550  153.8850 O   0  0  0  0  0  0  0  0  0  0  0  0
  160.9750  207.0040  155.2200 C   0  0  0  0  0  1  0  0  0  0  0  0
  161.2330  207.7200  153.9000 C   0  0  1  0  0  3  0  0  0  0  0  0
  160.8380  206.8560  152.6890 C   0  0  2  0  0  0  0  0  0  0  0  0
  160.1100  207.6250  151.7790 O   0  0  0  0  0  1  0  0  0  0  0  0
  160.0310  205.8210  153.1220 F   0  0  0  0  0  0  0  0  0  0  0  0
  162.2900  206.1390  151.8400 P   0  0  0  0  0  0  0  0  0  0  0  0
  161.8150  204.8210  150.8910 O   0  0  0  0  0  1  0  0  0  0  0  0
  163.3150  205.6830  152.8530 O   0  0  0  0  0  1  0  0  0  0  0  0
  162.9830  207.3150  150.8420 O   0  0  0  0  0  0  0  0  0  0  0  0
  2  9  1  0  0  0  0
  2  6  1  1  0  0  0
  2 17  1  0  0  0  0
  3  1  1  1  0  0  0
  3 15  1  0  0  0  0
  4  1  1  6  0  0  0
  4  2  1  0  0  0  0
  7 28  1  6  0  0  0
  7  4  1  0  0  0  0
  8 11  1  0  0  0  0
 10  7  1  0  0  0  0
 11  9  1  0  0  0  0
 12 20  1  1  0  0  0
 12  3  1  0  0  0  0
 13 14  1  0  0  0  0
 13 12  1  0  0  0  0
 14 10  1  0  0  0  0
 15  5  1  1  0  0  0
 15 11  1  0  0  0  0
 17 16  1  6  0  0  0
 18 17  1  0  0  0  0
 20 19  1  6  0  0  0
 21 22  2  0  0  0  0
 22 20  1  0  0  0  0
 23 21  2  0  0  0  0
 24 22  1  0  0  0  0
 26 27  1  0  0  0  0
 27 25  2  0  0  0  0
 27 24  1  0  0  0  0
 28 30  1  0  0  0  0
 30 29  1  1  0  0  0
 31 32  1  6  0  0  0
 31 33  1  0  0  0  0
 31 30  1  0  0  0  0
 34 31  1  0  0  0  0
 34 36  1  0  0  0  0
 35 34  1  0  0  0  0
 37 34  2  0  0  0  0
M  END
>  <MODEL>
3

>  <REMARK>
 VINA RESULT:      -3.0      1.578      2.168
  Name = 
  9 active torsions:
  status: ('A' for Active; 'I' for Inactive)
    1  A    between atoms: C_1  and  P_5
    2  A    between atoms: C_1  and  C_23
    3  A    between atoms: C_6  and  C_8
    4  A    between atoms: C_6  and  C_31
    5  A    between atoms: C_8  and  C_19
    6  A    between atoms: C_9  and  C_30
    7  A    between atoms: C_20  and  O_25
    8  A    between atoms: C_23  and  O_25
    9  A    between atoms: C_29  and  C_31
                            x       y       z     vdW  Elec       q    Type
                         _______ _______ _______ _____ _____    ______ ____

>  <TORSDO>
F 9

$$$$
=
 OpenBabel11062409253D

 37 38  0  0  1  0  0  0  0  0999 V2000
  160.8300  211.9600  154.8200 O   0  0  0  0  0  0  0  0  0  0  0  0
  162.1020  210.1960  156.0430 C   0  0  2  0  0  0  0  0  0  0  0  0
  159.5290  211.4470  154.8220 C   0  0  2  0  0  3  0  0  0  0  0  0
  161.6990  210.8570  154.7000 C   0  0  1  0  0  3  0  0  0  0  0  0
  159.0740  212.4780  156.9580 O   0  0  0  0  0  1  0  0  0  0  0  0
  162.2240  208.8130  155.8880 O   0  0  0  0  0  1  0  0  0  0  0  0
  161.5760  209.9930  153.4150 C   0  0  2  0  0  3  0  0  0  0  0  0
  159.4280  208.9030  156.3920 C   0  0  0  0  0  1  0  0  0  0  0  0
  161.1130  210.4930  157.2070 C   0  0  0  0  0  2  0  0  0  0  0  0
  161.2540  210.8520  152.1800 C   0  0  0  0  0  2  0  0  0  0  0  0
  159.6810  210.2140  156.9810 N   0  0  0  0  0  0  0  0  0  0  0  0
  158.6290  212.1510  153.7860 C   0  0  2  0  0  3  0  0  0  0  0  0
  159.3950  212.2790  152.4600 C   0  0  0  0  0  2  0  0  0  0  0  0
  159.8130  210.9740  151.9710 N   0  0  0  0  0  2  0  0  0  0  0  0
  158.9860  211.2790  156.2450 C   0  0  2  0  0  3  0  0  0  0  0  0
  163.4040  212.0180  157.2600 C   0  0  0  0  0  1  0  0  0  0  0  0
  163.4860  210.7520  156.4180 C   0  0  2  0  0  3  0  0  0  0  0  0
  164.2580  210.9990  155.2790 O   0  0  0  0  0  1  0  0  0  0  0  0
  158.9630  214.0560  155.2280 O   0  0  0  0  0  1  0  0  0  0  0  0
  158.1040  213.5210  154.2650 C   0  0  2  0  0  3  0  0  0  0  0  0
  155.7090  213.0230  154.1160 C   0  0  0  0  0  0  0  0  0  0  0  0
  156.7100  213.4710  154.8300 C   0  0  0  0  0  0  0  0  0  0  0  0
  154.7620  212.6000  153.4420 O   0  0  0  0  0  0  0  0  0  0  0  0
  156.4810  213.8680  156.2510 C   0  0  0  0  0  2  0  0  0  0  0  0
  154.2320  213.6890  157.2060 C   0  0  0  0  0  2  0  0  0  0  0  0
  155.4610  211.5960  156.9520 C   0  0  0  0  0  1  0  0  0  0  0  0
  155.3620  213.0810  156.8550 C   0  0  0  0  0  0  0  0  0  0  0  0
  160.6370  208.9610  153.5740 O   0  0  0  0  0  0  0  0  0  0  0  0
  160.7250  206.6420  154.1800 C   0  0  0  0  0  1  0  0  0  0  0  0
  161.3240  207.7600  153.3370 C   0  0  1  0  0  3  0  0  0  0  0  0
  161.3350  207.4100  151.8390 C   0  0  2  0  0  0  0  0  0  0  0  0
  162.3510  208.1190  151.1970 O   0  0  0  0  0  1  0  0  0  0  0  0
  160.1280  207.7860  151.2820 F   0  0  0  0  0  0  0  0  0  0  0  0
  161.5750  205.6220  151.5420 P   0  0  0  0  0  0  0  0  0  0  0  0
  163.1380  205.1620  151.9980 O   0  0  0  0  0  1  0  0  0  0  0  0
  161.3670  205.3030  150.0790 O   0  0  0  0  0  0  0  0  0  0  0  0
  160.4550  204.7530  152.4620 O   0  0  0  0  0  1  0  0  0  0  0  0
  2  6  1  6  0  0  0
  2 17  1  0  0  0  0
  2  9  1  0  0  0  0
  3  1  1  1  0  0  0
  3 15  1  0  0  0  0
  4  1  1  1  0  0  0
  4  2  1  0  0  0  0
  7 28  1  1  0  0  0
  7  4  1  0  0  0  0
  8 11  1  0  0  0  0
 10  7  1  0  0  0  0
 11  9  1  0  0  0  0
 12 20  1  1  0  0  0
 12  3  1  0  0  0  0
 13 12  1  0  0  0  0
 14 10  1  0  0  0  0
 14 13  1  0  0  0  0
 15  5  1  1  0  0  0
 15 11  1  0  0  0  0
 17 16  1  6  0  0  0
 18 17  1  0  0  0  0
 20 22  1  0  0  0  0
 20 19  1  1  0  0  0
 21 22  2  0  0  0  0
 22 24  1  0  0  0  0
 23 21  2  0  0  0  0
 24 27  1  0  0  0  0
 27 26  1  0  0  0  0
 27 25  2  0  0  0  0
 30 28  1  0  0  0  0
 30 29  1  1  0  0  0
 31 32  1  6  0  0  0
 31 30  1  0  0  0  0
 33 31  1  0  0  0  0
 34 31  1  0  0  0  0
 34 35  1  0  0  0  0
 34 37  1  0  0  0  0
 36 34  2  0  0  0  0
M  END
>  <MODEL>
4

>  <REMARK>
 VINA RESULT:      -2.7      2.267      3.802
  Name = 
  9 active torsions:
  status: ('A' for Active; 'I' for Inactive)
    1  A    between atoms: C_1  and  P_5
    2  A    between atoms: C_1  and  C_23
    3  A    between atoms: C_6  and  C_8
    4  A    between atoms: C_6  and  C_31
    5  A    between atoms: C_8  and  C_19
    6  A    between atoms: C_9  and  C_30
    7  A    between atoms: C_20  and  O_25
    8  A    between atoms: C_23  and  O_25
    9  A    between atoms: C_29  and  C_31
                            x       y       z     vdW  Elec       q    Type
                         _______ _______ _______ _____ _____    ______ ____

>  <TORSDO>
F 9

$$$$
