=
 OpenBabel11062408583D

 55 62  0  0  1  0  0  0  0  0999 V2000
  160.9780  206.4230  155.3720 C   0  0  0  0  0  2  0  0  0  0  0  0
  160.4430  206.0370  152.1960 O   0  0  0  0  0  1  0  0  0  0  0  0
  157.8530  211.7750  155.8740 C   0  0  2  0  0  0  0  0  0  0  0  0
  160.9330  210.7750  156.3120 C   0  0  1  0  0  3  0  0  0  0  0  0
  160.1350  212.0260  155.9680 C   0  0  0  0  0  2  0  0  0  0  0  0
  162.1940  209.3110  153.8940 O   0  0  0  0  0  0  0  0  0  0  0  0
  155.8980  210.6340  156.1780 C   0  0  0  0  0  2  0  0  0  0  0  0
  156.6950  211.6850  156.6790 O   0  0  0  0  0  0  0  0  0  0  0  0
  162.0390  210.5870  154.1660 O   0  0  0  0  0  0  0  0  0  0  0  0
  161.8860  207.9330  151.9390 C   0  0  1  0  0  3  0  0  0  0  0  0
  158.0290  210.3960  155.2070 C   0  0  2  0  0  3  0  0  0  0  0  0
  160.1760  209.4390  156.5410 C   0  0  1  0  0  3  0  0  0  0  0  0
  162.2560  210.6570  155.5470 C   0  0  1  0  0  3  0  0  0  0  0  0
  162.4790  209.2200  152.5280 C   0  0  1  0  0  3  0  0  0  0  0  0
  159.6570  207.1950  155.4710 C   0  0  0  0  0  2  0  0  0  0  0  0
  161.7960  206.6040  154.0850 C   0  0  0  0  0  2  0  0  0  0  0  0
  161.0000  207.1140  152.8850 C   0  0  2  0  0  3  0  0  0  0  0  0
  156.6120  209.9570  155.0300 C   0  0  0  0  0  2  0  0  0  0  0  0
  158.6990  209.3470  156.1090 C   0  0  2  0  0  3  0  0  0  0  0  0
  161.2080  209.2770  151.6890 C   0  0  1  0  0  3  0  0  0  0  0  0
  158.9500  212.0800  156.7200 O   0  0  0  0  0  0  0  0  0  0  0  0
  159.7830  208.7010  155.2730 C   0  0  1  0  0  3  0  0  0  0  0  0
  156.7060  212.5550  153.8190 O   0  0  0  0  0  0  0  0  0  0  0  0
  159.0490  213.2220  153.7280 S   0  0  0  0  0  0  0  0  0  0  0  0
  157.6110  212.7070  152.7590 C   0  0  0  0  0  2  0  0  0  0  0  0
  157.6230  212.9280  154.8190 C   0  0  2  0  0  0  0  0  0  0  0  0
  157.2050  214.2640  155.4560 C   0  0  0  0  0  2  0  0  0  0  0  0
  155.6890  214.4520  155.5350 C   0  0  1  0  0  3  0  0  0  0  0  0
  154.5520  214.3000  153.2770 C   0  0  0  0  0  1  0  0  0  0  0  0
  154.9500  213.5550  154.5430 C   0  0  0  0  0  2  0  0  0  0  0  0
  155.2470  214.2040  156.8370 O   0  0  0  0  0  0  0  0  0  0  0  0
  153.8540  214.1610  156.7370 C   0  0  0  0  0  1  0  0  0  0  0  0
  163.1800  211.8230  155.8820 C   0  0  0  0  0  2  0  0  0  0  0  0
  164.2140  211.4300  156.9250 C   0  0  0  0  0  2  0  0  0  0  0  0
  165.4970  211.5310  156.3880 O   0  0  0  0  0  1  0  0  0  0  0  0
  161.4820  209.8270  150.2720 C   0  0  1  0  0  3  0  0  0  0  0  0
  161.9150  211.2950  150.2730 C   0  0  0  0  0  2  0  0  0  0  0  0
  161.9610  211.8670  148.8960 C   0  0  0  0  0  0  0  0  0  0  0  0
  163.2550  213.1280  147.1640 C   0  0  0  0  0  3  0  0  0  0  0  0
  160.1970  213.0580  147.6270 C   0  0  0  0  0  0  0  0  0  0  0  0
  160.7480  211.7340  148.0360 C   0  0  0  0  0  2  0  0  0  0  0  0
  162.3010  213.7640  146.4750 C   0  0  0  0  0  3  0  0  0  0  0  0
  163.0860  212.4400  148.4590 C   0  0  0  0  0  3  0  0  0  0  0  0
  158.7770  213.3650  147.9420 C   0  0  0  0  0  1  0  0  0  0  0  0
  160.8840  213.9100  146.8650 C   0  0  0  0  0  3  0  0  0  0  0  0
  162.4250  209.0370  149.5480 O   0  0  0  0  0  0  0  0  0  0  0  0
  160.8180  207.2720  149.0150 C   0  0  0  0  0  3  0  0  0  0  0  0
  161.4290  205.5360  147.4340 C   0  0  0  0  0  0  0  0  0  0  0  0
  163.0050  207.2980  147.9850 C   0  0  0  0  0  3  0  0  0  0  0  0
  162.6860  206.1370  147.2760 C   0  0  0  0  0  3  0  0  0  0  0  0
  160.4970  206.1100  148.3090 C   0  0  0  0  0  3  0  0  0  0  0  0
  162.0760  207.8740  148.8560 C   0  0  0  0  0  0  0  0  0  0  0  0
  161.0860  204.3130  146.6900 C   0  0  0  0  0  0  0  0  0  0  0  0
  160.7780  204.3730  145.4700 O   0  0  0  0  0  0  0  0  0  0  0  0
  161.0970  203.0800  147.3300 O   0  0  0  0  0  1  0  0  0  0  0  0
  1 15  1  0  0  0  0
  2 17  1  0  0  0  0
  3  8  1  1  0  0  0
  3 21  1  0  0  0  0
  4  5  1  6  0  0  0
  4 12  1  0  0  0  0
  5 21  1  0  0  0  0
  6  9  1  0  0  0  0
  7  8  1  0  0  0  0
  9 13  1  0  0  0  0
 10 14  1  0  0  0  0
 10 17  1  0  0  0  0
 11  3  1  0  0  0  0
 11 19  1  0  0  0  0
 13 33  1  0  0  0  0
 13  4  1  0  0  0  0
 14  6  1  0  0  0  0
 16  1  1  0  0  0  0
 17 16  1  0  0  0  0
 18 11  1  0  0  0  0
 18  7  1  0  0  0  0
 19 12  1  0  0  0  0
 20 10  1  0  0  0  0
 20 14  1  0  0  0  0
 22 15  1  0  0  0  0
 22 19  1  0  0  0  0
 22 12  1  0  0  0  0
 23 26  1  0  0  0  0
 24 26  1  0  0  0  0
 25 24  1  0  0  0  0
 25 23  1  0  0  0  0
 26 27  1  0  0  0  0
 26  3  1  0  0  0  0
 27 28  1  0  0  0  0
 28 31  1  0  0  0  0
 29 30  1  0  0  0  0
 30 28  1  0  0  0  0
 32 31  1  0  0  0  0
 33 34  1  0  0  0  0
 35 34  1  0  0  0  0
 36 37  1  0  0  0  0
 36 20  1  0  0  0  0
 38 37  1  0  0  0  0
 39 43  1  0  0  0  0
 40 44  1  0  0  0  0
 40 41  1  0  0  0  0
 41 38  1  0  0  0  0
 42 45  1  0  0  0  0
 42 39  2  0  0  0  0
 43 38  2  0  0  0  0
 45 40  2  0  0  0  0
 46 36  1  0  0  0  0
 48 51  1  0  0  0  0
 49 52  2  0  0  0  0
 50 48  2  0  0  0  0
 50 49  1  0  0  0  0
 51 47  2  0  0  0  0
 52 47  1  0  0  0  0
 52 46  1  0  0  0  0
 53 55  1  0  0  0  0
 53 48  1  0  0  0  0
 54 53  2  0  0  0  0
M  END
>  <MODEL>
1

>  <REMARK>
 VINA RESULT:      -2.2      0.000      0.000
  Name = 
  13 active torsions:
  status: ('A' for Active; 'I' for Inactive)
    1  A    between atoms: C_2  and  C_28
    2  A    between atoms: C_6  and  C_53
    3  A    between atoms: C_10  and  C_32
    4  A    between atoms: C_11  and  C_29
    5  A    between atoms: C_16  and  C_17
    6  A    between atoms: C_17  and  C_23
    7  A    between atoms: O_25  and  C_29
    8  A    between atoms: C_28  and  C_49
    9  A    between atoms: C_29  and  C_38
   10  A    between atoms: O_33  and  C_49
   11  A    between atoms: O_33  and  C_52
   12  A    between atoms: C_38  and  C_53
   13  A    between atoms: C_45  and  C_49
                            x       y       z     vdW  Elec       q    Type
                         _______ _______ _______ _____ _____    ______ ____

>  <TORSDO>
F 13

$$$$
=
 OpenBabel11062408583D

 55 62  0  0  1  0  0  0  0  0999 V2000
  160.0540  206.9110  156.9440 C   0  0  0  0  0  2  0  0  0  0  0  0
  160.1120  205.8370  153.8840 O   0  0  0  0  0  1  0  0  0  0  0  0
  157.9110  212.5810  155.5630 C   0  0  2  0  0  0  0  0  0  0  0  0
  160.6060  211.3290  156.9210 C   0  0  1  0  0  3  0  0  0  0  0  0
  160.1340  212.5510  156.1440 C   0  0  0  0  0  2  0  0  0  0  0  0
  162.0450  209.1700  155.2320 O   0  0  0  0  0  0  0  0  0  0  0  0
  155.7610  211.8110  155.6230 C   0  0  0  0  0  2  0  0  0  0  0  0
  156.6170  212.8400  156.0700 O   0  0  0  0  0  0  0  0  0  0  0  0
  162.0710  210.4840  155.1880 O   0  0  0  0  0  0  0  0  0  0  0  0
  161.8950  207.4100  153.5900 C   0  0  1  0  0  3  0  0  0  0  0  0
  157.9660  211.0710  155.2590 C   0  0  2  0  0  3  0  0  0  0  0  0
  159.5900  210.1980  157.2360 C   0  0  1  0  0  3  0  0  0  0  0  0
  162.0130  210.8580  156.5350 C   0  0  1  0  0  3  0  0  0  0  0  0
  162.5790  208.7140  154.0230 C   0  0  1  0  0  3  0  0  0  0  0  0
  158.9010  207.8480  156.5630 C   0  0  0  0  0  2  0  0  0  0  0  0
  161.1350  206.6660  155.8810 C   0  0  0  0  0  2  0  0  0  0  0  0
  160.7030  206.9680  154.4470 C   0  0  2  0  0  3  0  0  0  0  0  0
  156.5590  210.7890  154.8450 C   0  0  0  0  0  2  0  0  0  0  0  0
  158.2390  210.1950  156.4930 C   0  0  2  0  0  3  0  0  0  0  0  0
  161.5360  208.7300  152.9120 C   0  0  1  0  0  3  0  0  0  0  0  0
  158.8500  212.9390  156.5640 O   0  0  0  0  0  0  0  0  0  0  0  0
  159.3350  209.2310  156.0920 C   0  0  1  0  0  3  0  0  0  0  0  0
  158.3360  212.6780  153.1230 O   0  0  0  0  0  0  0  0  0  0  0  0
  159.6840  214.3760  154.2350 S   0  0  0  0  0  0  0  0  0  0  0  0
  159.5990  213.2190  152.8480 C   0  0  0  0  0  2  0  0  0  0  0  0
  158.1110  213.4630  154.2680 C   0  0  2  0  0  0  0  0  0  0  0  0
  156.9610  214.4530  154.0200 C   0  0  0  0  0  2  0  0  0  0  0  0
  156.1000  214.0950  152.8070 C   0  0  1  0  0  3  0  0  0  0  0  0
  156.7680  213.9640  150.3670 C   0  0  0  0  0  1  0  0  0  0  0  0
  156.8960  213.3350  151.7470 C   0  0  0  0  0  2  0  0  0  0  0  0
  154.9940  213.3460  153.2140 O   0  0  0  0  0  0  0  0  0  0  0  0
  154.1300  214.2740  153.7990 C   0  0  0  0  0  1  0  0  0  0  0  0
  163.0450  211.9410  156.8310 C   0  0  0  0  0  2  0  0  0  0  0  0
  164.4600  211.4420  156.5910 C   0  0  0  0  0  2  0  0  0  0  0  0
  165.3750  212.2530  157.2610 O   0  0  0  0  0  1  0  0  0  0  0  0
  162.1850  208.8780  151.5190 C   0  0  1  0  0  3  0  0  0  0  0  0
  162.8690  207.5960  151.0380 C   0  0  0  0  0  2  0  0  0  0  0  0
  161.8830  206.5530  150.6310 C   0  0  0  0  0  0  0  0  0  0  0  0
  160.9070  204.2840  151.0310 C   0  0  0  0  0  3  0  0  0  0  0  0
  161.2250  205.8110  148.3600 C   0  0  0  0  0  0  0  0  0  0  0  0
  161.0250  206.8210  149.4390 C   0  0  0  0  0  2  0  0  0  0  0  0
  160.5450  203.8870  149.8060 C   0  0  0  0  0  3  0  0  0  0  0  0
  161.7660  205.4390  151.3580 C   0  0  0  0  0  3  0  0  0  0  0  0
  161.6100  206.2860  147.0050 C   0  0  0  0  0  1  0  0  0  0  0  0
  160.9280  204.5220  148.5270 C   0  0  0  0  0  3  0  0  0  0  0  0
  161.2670  209.3450  150.5300 O   0  0  0  0  0  0  0  0  0  0  0  0
  161.1000  211.6430  149.7080 C   0  0  0  0  0  3  0  0  0  0  0  0
  162.2760  212.2750  147.6820 C   0  0  0  0  0  0  0  0  0  0  0  0
  162.4200  210.0010  148.5190 C   0  0  0  0  0  3  0  0  0  0  0  0
  162.7630  210.9660  147.5680 C   0  0  0  0  0  3  0  0  0  0  0  0
  161.4410  212.6080  148.7570 C   0  0  0  0  0  3  0  0  0  0  0  0
  161.5900  210.3320  149.5950 C   0  0  0  0  0  0  0  0  0  0  0  0
  162.6340  213.2950  146.6830 C   0  0  0  0  0  0  0  0  0  0  0  0
  162.9740  214.4530  147.0460 O   0  0  0  0  0  1  0  0  0  0  0  0
  162.5970  212.9900  145.3290 O   0  0  0  0  0  0  0  0  0  0  0  0
  2 17  1  0  0  0  0
  3  8  1  1  0  0  0
  3 21  1  0  0  0  0
  4  5  1  6  0  0  0
  4 12  1  0  0  0  0
  5 21  1  0  0  0  0
  7  8  1  0  0  0  0
  9  6  1  0  0  0  0
  9 13  1  0  0  0  0
 10 14  1  0  0  0  0
 10 17  1  0  0  0  0
 11  3  1  0  0  0  0
 11 19  1  0  0  0  0
 13 33  1  0  0  0  0
 13  4  1  0  0  0  0
 14  6  1  0  0  0  0
 15  1  1  0  0  0  0
 16  1  1  0  0  0  0
 17 16  1  0  0  0  0
 18 11  1  0  0  0  0
 18  7  1  0  0  0  0
 19 12  1  0  0  0  0
 20 10  1  0  0  0  0
 20 14  1  0  0  0  0
 22 19  1  0  0  0  0
 22 15  1  0  0  0  0
 22 12  1  0  0  0  0
 23 26  1  0  0  0  0
 24 26  1  0  0  0  0
 25 23  1  0  0  0  0
 25 24  1  0  0  0  0
 26  3  1  0  0  0  0
 27 26  1  0  0  0  0
 28 31  1  0  0  0  0
 28 27  1  0  0  0  0
 29 30  1  0  0  0  0
 30 28  1  0  0  0  0
 31 32  1  0  0  0  0
 34 33  1  0  0  0  0
 34 35  1  0  0  0  0
 36 20  1  0  0  0  0
 37 36  1  0  0  0  0
 38 37  1  0  0  0  0
 38 43  2  0  0  0  0
 39 43  1  0  0  0  0
 40 45  2  0  0  0  0
 40 41  1  0  0  0  0
 41 38  1  0  0  0  0
 42 39  2  0  0  0  0
 44 40  1  0  0  0  0
 45 42  1  0  0  0  0
 46 36  1  0  0  0  0
 48 51  1  0  0  0  0
 49 52  2  0  0  0  0
 50 48  2  0  0  0  0
 50 49  1  0  0  0  0
 51 47  2  0  0  0  0
 52 47  1  0  0  0  0
 52 46  1  0  0  0  0
 53 54  1  0  0  0  0
 53 48  1  0  0  0  0
 55 53  2  0  0  0  0
M  END
>  <MODEL>
2

>  <REMARK>
 VINA RESULT:      -0.8      1.877      4.478
  Name = 
  13 active torsions:
  status: ('A' for Active; 'I' for Inactive)
    1  A    between atoms: C_2  and  C_28
    2  A    between atoms: C_6  and  C_53
    3  A    between atoms: C_10  and  C_32
    4  A    between atoms: C_11  and  C_29
    5  A    between atoms: C_16  and  C_17
    6  A    between atoms: C_17  and  C_23
    7  A    between atoms: O_25  and  C_29
    8  A    between atoms: C_28  and  C_49
    9  A    between atoms: C_29  and  C_38
   10  A    between atoms: O_33  and  C_49
   11  A    between atoms: O_33  and  C_52
   12  A    between atoms: C_38  and  C_53
   13  A    between atoms: C_45  and  C_49
                            x       y       z     vdW  Elec       q    Type
                         _______ _______ _______ _____ _____    ______ ____

>  <TORSDO>
F 13

$$$$
=
 OpenBabel11062408583D

 55 62  0  0  1  0  0  0  0  0999 V2000
  160.4680  212.4480  153.3790 C   0  0  0  0  0  2  0  0  0  0  0  0
  159.6430  209.3120  153.4380 O   0  0  0  0  0  1  0  0  0  0  0  0
  158.2550  213.5590  147.6760 C   0  0  2  0  0  0  0  0  0  0  0  0
  161.1670  213.6660  149.1540 C   0  0  1  0  0  3  0  0  0  0  0  0
  160.5490  213.4720  147.7750 C   0  0  0  0  0  2  0  0  0  0  0  0
  162.0010  211.0590  150.6010 O   0  0  0  0  0  0  0  0  0  0  0  0
  156.1750  213.9570  148.5330 C   0  0  0  0  0  2  0  0  0  0  0  0
  157.1610  214.4530  147.6540 O   0  0  0  0  0  0  0  0  0  0  0  0
  162.0660  211.4250  149.3400 O   0  0  0  0  0  0  0  0  0  0  0  0
  161.3380  209.0540  151.7640 C   0  0  1  0  0  3  0  0  0  0  0  0
  158.1650  212.7920  149.0110 C   0  0  2  0  0  3  0  0  0  0  0  0
  160.2330  213.8730  150.3760 C   0  0  1  0  0  3  0  0  0  0  0  0
  162.3950  212.7830  149.4090 C   0  0  1  0  0  3  0  0  0  0  0  0
  162.1650  209.6710  150.6280 C   0  0  1  0  0  3  0  0  0  0  0  0
  159.2930  212.7100  152.4290 C   0  0  0  0  0  2  0  0  0  0  0  0
  161.2060  211.1100  153.2250 C   0  0  0  0  0  2  0  0  0  0  0  0
  160.4090  210.0180  152.5110 C   0  0  2  0  0  3  0  0  0  0  0  0
  156.6880  212.7110  149.2200 C   0  0  0  0  0  2  0  0  0  0  0  0
  158.7310  213.5650  150.2140 C   0  0  2  0  0  3  0  0  0  0  0  0
  160.8590  208.9500  150.3180 C   0  0  1  0  0  3  0  0  0  0  0  0
  159.4460  214.3250  147.6030 O   0  0  0  0  0  0  0  0  0  0  0  0
  159.6360  212.5990  150.9480 C   0  0  1  0  0  3  0  0  0  0  0  0
  157.4670  213.2260  145.3500 O   0  0  0  0  0  0  0  0  0  0  0  0
  156.9490  211.2380  146.6600 S   0  0  0  0  0  0  0  0  0  0  0  0
  156.4160  212.3000  145.2980 C   0  0  0  0  0  2  0  0  0  0  0  0
  158.1270  212.6040  146.4250 C   0  0  2  0  0  0  0  0  0  0  0  0
  159.4720  212.0200  145.9610 C   0  0  0  0  0  2  0  0  0  0  0  0
  159.8690  212.4540  144.5490 C   0  0  1  0  0  3  0  0  0  0  0  0
  161.4700  213.8880  143.2080 C   0  0  0  0  0  1  0  0  0  0  0  0
  161.2100  213.1870  144.5340 C   0  0  0  0  0  2  0  0  0  0  0  0
  159.9160  211.3410  143.7060 O   0  0  0  0  0  0  0  0  0  0  0  0
  160.1110  211.8710  142.4280 C   0  0  0  0  0  1  0  0  0  0  0  0
  163.5110  213.1120  148.4230 C   0  0  0  0  0  2  0  0  0  0  0  0
  163.9250  211.8880  147.6230 C   0  0  0  0  0  2  0  0  0  0  0  0
  164.0740  212.2230  146.2780 O   0  0  0  0  0  1  0  0  0  0  0  0
  161.1070  207.5520  149.7090 C   0  0  1  0  0  3  0  0  0  0  0  0
  162.2800  207.5280  148.7260 C   0  0  0  0  0  2  0  0  0  0  0  0
  161.8940  206.9530  147.4060 C   0  0  0  0  0  0  0  0  0  0  0  0
  160.0640  206.3080  145.8260 C   0  0  0  0  0  3  0  0  0  0  0  0
  162.8480  205.0120  146.1950 C   0  0  0  0  0  0  0  0  0  0  0  0
  162.9790  206.4660  146.5030 C   0  0  0  0  0  2  0  0  0  0  0  0
  160.5830  205.2650  145.1670 C   0  0  0  0  0  3  0  0  0  0  0  0
  160.6060  206.9260  147.0520 C   0  0  0  0  0  3  0  0  0  0  0  0
  163.9960  204.1160  146.4940 C   0  0  0  0  0  1  0  0  0  0  0  0
  161.8050  204.5180  145.5280 C   0  0  0  0  0  3  0  0  0  0  0  0
  161.2760  206.5410  150.7020 O   0  0  0  0  0  0  0  0  0  0  0  0
  161.7010  204.2040  151.2850 C   0  0  0  0  0  3  0  0  0  0  0  0
  160.8860  202.4420  149.8280 C   0  0  0  0  0  0  0  0  0  0  0  0
  160.4830  204.7710  149.2740 C   0  0  0  0  0  3  0  0  0  0  0  0
  160.3450  203.4130  148.9730 C   0  0  0  0  0  3  0  0  0  0  0  0
  161.5650  202.8460  150.9850 C   0  0  0  0  0  3  0  0  0  0  0  0
  161.1580  205.1750  150.4290 C   0  0  0  0  0  0  0  0  0  0  0  0
  160.7440  201.0110  149.5170 C   0  0  0  0  0  0  0  0  0  0  0  0
  159.7410  200.3660  149.9220 O   0  0  0  0  0  1  0  0  0  0  0  0
  161.7190  200.3570  148.7750 O   0  0  0  0  0  0  0  0  0  0  0  0
  3 21  1  6  0  0  0
  3 11  1  0  0  0  0
  4  5  1  6  0  0  0
  4 13  1  0  0  0  0
  4 12  1  0  0  0  0
  6 14  1  0  0  0  0
  7 18  1  0  0  0  0
  8  3  1  0  0  0  0
  8  7  1  0  0  0  0
  9 13  1  0  0  0  0
  9  6  1  0  0  0  0
 10 17  1  0  0  0  0
 11 18  1  0  0  0  0
 11 19  1  0  0  0  0
 12 22  1  0  0  0  0
 14 10  1  0  0  0  0
 15  1  1  0  0  0  0
 16  1  1  0  0  0  0
 17 16  1  0  0  0  0
 17  2  1  0  0  0  0
 19 12  1  0  0  0  0
 19 22  1  0  0  0  0
 20 14  1  0  0  0  0
 20 10  1  0  0  0  0
 21  5  1  0  0  0  0
 22 15  1  0  0  0  0
 23 26  1  0  0  0  0
 25 23  1  0  0  0  0
 25 24  1  0  0  0  0
 26 24  1  0  0  0  0
 26  3  1  0  0  0  0
 27 26  1  0  0  0  0
 28 27  1  0  0  0  0
 29 30  1  0  0  0  0
 30 28  1  0  0  0  0
 31 28  1  0  0  0  0
 32 31  1  0  0  0  0
 33 13  1  0  0  0  0
 34 33  1  0  0  0  0
 35 34  1  0  0  0  0
 36 20  1  0  0  0  0
 36 46  1  0  0  0  0
 37 36  1  0  0  0  0
 38 37  1  0  0  0  0
 39 43  1  0  0  0  0
 40 44  1  0  0  0  0
 40 41  1  0  0  0  0
 41 38  1  0  0  0  0
 42 45  1  0  0  0  0
 42 39  2  0  0  0  0
 43 38  2  0  0  0  0
 45 40  2  0  0  0  0
 48 51  2  0  0  0  0
 49 52  1  0  0  0  0
 50 49  2  0  0  0  0
 50 48  1  0  0  0  0
 51 47  1  0  0  0  0
 52 46  1  0  0  0  0
 52 47  2  0  0  0  0
 53 48  1  0  0  0  0
 53 54  1  0  0  0  0
 55 53  2  0  0  0  0
M  END
>  <MODEL>
3

>  <REMARK>
 VINA RESULT:      -0.8      3.551      7.485
  Name = 
  13 active torsions:
  status: ('A' for Active; 'I' for Inactive)
    1  A    between atoms: C_2  and  C_28
    2  A    between atoms: C_6  and  C_53
    3  A    between atoms: C_10  and  C_32
    4  A    between atoms: C_11  and  C_29
    5  A    between atoms: C_16  and  C_17
    6  A    between atoms: C_17  and  C_23
    7  A    between atoms: O_25  and  C_29
    8  A    between atoms: C_28  and  C_49
    9  A    between atoms: C_29  and  C_38
   10  A    between atoms: O_33  and  C_49
   11  A    between atoms: O_33  and  C_52
   12  A    between atoms: C_38  and  C_53
   13  A    between atoms: C_45  and  C_49
                            x       y       z     vdW  Elec       q    Type
                         _______ _______ _______ _____ _____    ______ ____

>  <TORSDO>
F 13

$$$$
=
 OpenBabel11062408583D

 55 62  0  0  1  0  0  0  0  0999 V2000
  159.6980  213.4460  152.5820 C   0  0  0  0  0  2  0  0  0  0  0  0
  159.1220  210.2720  152.9180 O   0  0  0  0  0  1  0  0  0  0  0  0
  158.8390  213.5780  146.4260 C   0  0  2  0  0  0  0  0  0  0  0  0
  161.2950  214.1860  148.4920 C   0  0  1  0  0  3  0  0  0  0  0  0
  161.0420  213.7540  147.0540 C   0  0  0  0  0  2  0  0  0  0  0  0
  161.9520  211.8900  150.4620 O   0  0  0  0  0  0  0  0  0  0  0  0
  156.5910  213.8530  146.7200 C   0  0  0  0  0  2  0  0  0  0  0  0
  157.7180  214.3380  146.0230 O   0  0  0  0  0  0  0  0  0  0  0  0
  162.2900  212.0980  149.2080 O   0  0  0  0  0  0  0  0  0  0  0  0
  161.1830  209.9890  151.7290 C   0  0  1  0  0  3  0  0  0  0  0  0
  158.4890  212.9810  147.8040 C   0  0  2  0  0  3  0  0  0  0  0  0
  160.0820  214.4440  149.4260 C   0  0  1  0  0  3  0  0  0  0  0  0
  162.4890  213.4810  149.1470 C   0  0  1  0  0  3  0  0  0  0  0  0
  162.2100  210.5430  150.7330 C   0  0  1  0  0  3  0  0  0  0  0  0
  158.7690  213.4560  151.3620 C   0  0  0  0  0  2  0  0  0  0  0  0
  160.5500  212.1880  152.8000 C   0  0  0  0  0  2  0  0  0  0  0  0
  160.0320  210.9340  152.0950 C   0  0  2  0  0  3  0  0  0  0  0  0
  157.0160  212.7670  147.6820 C   0  0  0  0  0  2  0  0  0  0  0  0
  158.6900  213.9570  148.9750 C   0  0  2  0  0  3  0  0  0  0  0  0
  161.0740  209.6510  150.2450 C   0  0  1  0  0  3  0  0  0  0  0  0
  159.9520  214.4530  146.5110 O   0  0  0  0  0  0  0  0  0  0  0  0
  159.4640  213.1960  150.0310 C   0  0  1  0  0  3  0  0  0  0  0  0
  158.6170  211.2030  145.7480 O   0  0  0  0  0  0  0  0  0  0  0  0
  160.8360  212.0040  145.1360 S   0  0  0  0  0  0  0  0  0  0  0  0
  159.8690  210.5760  145.6790 C   0  0  0  0  0  2  0  0  0  0  0  0
  159.0870  212.4630  145.3340 C   0  0  2  0  0  0  0  0  0  0  0  0
  158.5120  212.8220  143.9540 C   0  0  0  0  0  2  0  0  0  0  0  0
  159.5850  213.0410  142.8860 C   0  0  1  0  0  3  0  0  0  0  0  0
  158.7700  213.6120  140.5560 C   0  0  0  0  0  1  0  0  0  0  0  0
  159.1520  212.5010  141.5240 C   0  0  0  0  0  2  0  0  0  0  0  0
  159.8920  214.4010  142.7930 O   0  0  0  0  0  0  0  0  0  0  0  0
  161.2870  214.4500  142.7780 C   0  0  0  0  0  1  0  0  0  0  0  0
  163.7810  213.8020  148.4030 C   0  0  0  0  0  2  0  0  0  0  0  0
  163.8910  213.0060  147.1120 C   0  0  0  0  0  2  0  0  0  0  0  0
  164.2780  211.6950  147.3900 O   0  0  0  0  0  1  0  0  0  0  0  0
  161.5650  208.2220  149.9230 C   0  0  1  0  0  3  0  0  0  0  0  0
  160.4470  207.1790  149.9760 C   0  0  0  0  0  2  0  0  0  0  0  0
  160.9140  205.8860  150.5560 C   0  0  0  0  0  0  0  0  0  0  0  0
  160.7890  203.3870  150.5430 C   0  0  0  0  0  3  0  0  0  0  0  0
  161.3400  205.2860  152.9220 C   0  0  0  0  0  0  0  0  0  0  0  0
  161.8820  205.9310  151.6910 C   0  0  0  0  0  2  0  0  0  0  0  0
  161.0270  203.0630  151.8200 C   0  0  0  0  0  3  0  0  0  0  0  0
  160.4900  204.7360  150.0240 C   0  0  0  0  0  3  0  0  0  0  0  0
  161.2890  206.0810  154.1770 C   0  0  0  0  0  1  0  0  0  0  0  0
  161.0420  203.9880  152.9720 C   0  0  0  0  0  3  0  0  0  0  0  0
  162.2500  208.1450  148.6720 O   0  0  0  0  0  0  0  0  0  0  0  0
  162.9050  206.0650  147.5650 C   0  0  0  0  0  3  0  0  0  0  0  0
  161.4850  205.1360  145.8310 C   0  0  0  0  0  0  0  0  0  0  0  0
  160.8620  207.2010  146.9450 C   0  0  0  0  0  3  0  0  0  0  0  0
  160.5960  206.2070  145.9990 C   0  0  0  0  0  3  0  0  0  0  0  0
  162.6410  205.0720  146.6180 C   0  0  0  0  0  3  0  0  0  0  0  0
  162.0140  207.1370  147.7340 C   0  0  0  0  0  0  0  0  0  0  0  0
  161.2100  204.0860  144.8370 C   0  0  0  0  0  0  0  0  0  0  0  0
  160.8820  202.9270  145.2060 O   0  0  0  0  0  1  0  0  0  0  0  0
  161.3120  204.3650  143.4800 O   0  0  0  0  0  0  0  0  0  0  0  0
  1 16  1  0  0  0  0
  3  8  1  6  0  0  0
  3 21  1  0  0  0  0
  3 11  1  0  0  0  0
  4  5  1  6  0  0  0
  4 13  1  0  0  0  0
  4 12  1  0  0  0  0
  6 14  1  0  0  0  0
  7 18  1  0  0  0  0
  8  7  1  0  0  0  0
  9  6  1  0  0  0  0
 10 17  1  0  0  0  0
 11 19  1  0  0  0  0
 12 22  1  0  0  0  0
 13  9  1  0  0  0  0
 14 10  1  0  0  0  0
 15  1  1  0  0  0  0
 17 16  1  0  0  0  0
 17  2  1  0  0  0  0
 18 11  1  0  0  0  0
 19 12  1  0  0  0  0
 19 22  1  0  0  0  0
 20 14  1  0  0  0  0
 20 10  1  0  0  0  0
 21  5  1  0  0  0  0
 22 15  1  0  0  0  0
 24 26  1  0  0  0  0
 24 25  1  0  0  0  0
 25 23  1  0  0  0  0
 26 23  1  0  0  0  0
 26  3  1  0  0  0  0
 27 26  1  0  0  0  0
 28 27  1  0  0  0  0
 29 30  1  0  0  0  0
 30 28  1  0  0  0  0
 31 28  1  0  0  0  0
 32 31  1  0  0  0  0
 33 13  1  0  0  0  0
 34 35  1  0  0  0  0
 34 33  1  0  0  0  0
 36 37  1  0  0  0  0
 36 20  1  0  0  0  0
 37 38  1  0  0  0  0
 38 41  1  0  0  0  0
 39 42  2  0  0  0  0
 40 45  2  0  0  0  0
 40 44  1  0  0  0  0
 41 40  1  0  0  0  0
 42 45  1  0  0  0  0
 43 39  1  0  0  0  0
 43 38  2  0  0  0  0
 46 36  1  0  0  0  0
 47 52  1  0  0  0  0
 48 50  2  0  0  0  0
 48 51  1  0  0  0  0
 49 52  2  0  0  0  0
 50 49  1  0  0  0  0
 51 47  2  0  0  0  0
 52 46  1  0  0  0  0
 53 54  1  0  0  0  0
 53 48  1  0  0  0  0
 55 53  2  0  0  0  0
M  END
>  <MODEL>
4

>  <REMARK>
 VINA RESULT:      -0.2      3.545      8.206
  Name = 
  13 active torsions:
  status: ('A' for Active; 'I' for Inactive)
    1  A    between atoms: C_2  and  C_28
    2  A    between atoms: C_6  and  C_53
    3  A    between atoms: C_10  and  C_32
    4  A    between atoms: C_11  and  C_29
    5  A    between atoms: C_16  and  C_17
    6  A    between atoms: C_17  and  C_23
    7  A    between atoms: O_25  and  C_29
    8  A    between atoms: C_28  and  C_49
    9  A    between atoms: C_29  and  C_38
   10  A    between atoms: O_33  and  C_49
   11  A    between atoms: O_33  and  C_52
   12  A    between atoms: C_38  and  C_53
   13  A    between atoms: C_45  and  C_49
                            x       y       z     vdW  Elec       q    Type
                         _______ _______ _______ _____ _____    ______ ____

>  <TORSDO>
F 13

$$$$
=
 OpenBabel11062408583D

 55 62  0  0  1  0  0  0  0  0999 V2000
  159.9760  207.3630  157.1570 C   0  0  0  0  0  2  0  0  0  0  0  0
  159.6890  205.4400  154.5610 O   0  0  0  0  0  1  0  0  0  0  0  0
  158.1120  212.5530  154.2870 C   0  0  2  0  0  0  0  0  0  0  0  0
  160.8250  211.5110  155.7800 C   0  0  1  0  0  3  0  0  0  0  0  0
  160.3700  212.4900  154.7060 C   0  0  0  0  0  2  0  0  0  0  0  0
  161.9570  208.8300  154.7240 O   0  0  0  0  0  0  0  0  0  0  0  0
  155.9280  212.0340  154.7120 C   0  0  0  0  0  2  0  0  0  0  0  0
  156.8890  213.0660  154.7750 O   0  0  0  0  0  0  0  0  0  0  0  0
  162.0690  210.0660  154.2880 O   0  0  0  0  0  0  0  0  0  0  0  0
  161.5430  206.6890  153.6960 C   0  0  1  0  0  3  0  0  0  0  0  0
  158.0360  211.0210  154.4450 C   0  0  2  0  0  3  0  0  0  0  0  0
  159.7660  210.6190  156.4830 C   0  0  1  0  0  3  0  0  0  0  0  0
  162.1560  210.8210  155.4630 C   0  0  1  0  0  3  0  0  0  0  0  0
  162.3500  207.9940  153.6750 C   0  0  1  0  0  3  0  0  0  0  0  0
  158.8610  208.2480  156.5890 C   0  0  0  0  0  2  0  0  0  0  0  0
  160.9390  206.7200  156.1490 C   0  0  0  0  0  2  0  0  0  0  0  0
  160.4030  206.6270  154.7200 C   0  0  2  0  0  3  0  0  0  0  0  0
  156.5820  210.7600  154.2260 C   0  0  0  0  0  2  0  0  0  0  0  0
  158.3570  210.5230  155.8640 C   0  0  2  0  0  3  0  0  0  0  0  0
  161.2150  207.7800  152.6800 C   0  0  1  0  0  3  0  0  0  0  0  0
  159.1580  213.1000  155.0720 O   0  0  0  0  0  0  0  0  0  0  0  0
  159.3450  209.3880  155.7000 C   0  0  1  0  0  3  0  0  0  0  0  0
  159.0010  212.0700  152.0240 O   0  0  0  0  0  0  0  0  0  0  0  0
  159.3480  214.4290  152.5320 S   0  0  0  0  0  0  0  0  0  0  0  0
  160.0050  212.9820  151.6680 C   0  0  0  0  0  2  0  0  0  0  0  0
  158.2560  212.9950  152.7780 C   0  0  2  0  0  0  0  0  0  0  0  0
  156.9080  213.2790  152.0930 C   0  0  0  0  0  2  0  0  0  0  0  0
  157.0480  213.9600  150.7310 C   0  0  1  0  0  3  0  0  0  0  0  0
  157.9310  213.7270  148.3680 C   0  0  0  0  0  1  0  0  0  0  0  0
  157.6290  213.0160  149.6790 C   0  0  0  0  0  2  0  0  0  0  0  0
  155.8080  214.4480  150.3130 O   0  0  0  0  0  0  0  0  0  0  0  0
  155.0190  214.4490  151.4660 C   0  0  0  0  0  1  0  0  0  0  0  0
  163.2820  211.8440  155.3550 C   0  0  0  0  0  2  0  0  0  0  0  0
  164.1960  211.7950  156.5690 C   0  0  0  0  0  2  0  0  0  0  0  0
  164.0100  210.6000  157.2610 O   0  0  0  0  0  1  0  0  0  0  0  0
  161.7470  207.4540  151.2670 C   0  0  1  0  0  3  0  0  0  0  0  0
  162.5290  206.1390  151.2100 C   0  0  0  0  0  2  0  0  0  0  0  0
  161.6270  204.9500  151.2200 C   0  0  0  0  0  0  0  0  0  0  0  0
  160.7470  202.9650  152.4630 C   0  0  0  0  0  3  0  0  0  0  0  0
  161.1610  203.3150  149.4180 C   0  0  0  0  0  0  0  0  0  0  0  0
  160.8370  204.6540  149.9880 C   0  0  0  0  0  2  0  0  0  0  0  0
  160.4880  202.0860  151.4890 C   0  0  0  0  0  3  0  0  0  0  0  0
  161.5210  204.2150  152.3300 C   0  0  0  0  0  3  0  0  0  0  0  0
  161.6100  203.2350  148.0020 C   0  0  0  0  0  1  0  0  0  0  0  0
  160.9210  202.1830  150.0800 C   0  0  0  0  0  3  0  0  0  0  0  0
  160.7180  207.4570  150.2770 O   0  0  0  0  0  0  0  0  0  0  0  0
  159.8580  206.5270  148.1850 C   0  0  0  0  0  3  0  0  0  0  0  0
  161.3800  206.1290  146.3380 C   0  0  0  0  0  0  0  0  0  0  0  0
  162.2070  207.0480  148.4280 C   0  0  0  0  0  3  0  0  0  0  0  0
  162.4390  206.6110  147.1200 C   0  0  0  0  0  3  0  0  0  0  0  0
  160.0890  206.0880  146.8780 C   0  0  0  0  0  3  0  0  0  0  0  0
  160.9180  207.0110  148.9670 C   0  0  0  0  0  0  0  0  0  0  0  0
  161.6190  205.6680  144.9610 C   0  0  0  0  0  0  0  0  0  0  0  0
  160.8770  206.0570  144.0200 O   0  0  0  0  0  0  0  0  0  0  0  0
  162.6640  204.7950  144.6870 O   0  0  0  0  0  1  0  0  0  0  0  0
  2 17  1  0  0  0  0
  3 11  1  0  0  0  0
  3  8  1  1  0  0  0
  3 21  1  0  0  0  0
  4  5  1  6  0  0  0
  4 12  1  0  0  0  0
  5 21  1  0  0  0  0
  7  8  1  0  0  0  0
  9  6  1  0  0  0  0
  9 13  1  0  0  0  0
 10 17  1  0  0  0  0
 11 19  1  0  0  0  0
 13  4  1  0  0  0  0
 14 10  1  0  0  0  0
 14  6  1  0  0  0  0
 15  1  1  0  0  0  0
 16  1  1  0  0  0  0
 17 16  1  0  0  0  0
 18 11  1  0  0  0  0
 18  7  1  0  0  0  0
 19 12  1  0  0  0  0
 20 14  1  0  0  0  0
 20 10  1  0  0  0  0
 22 19  1  0  0  0  0
 22 12  1  0  0  0  0
 22 15  1  0  0  0  0
 23 26  1  0  0  0  0
 24 26  1  0  0  0  0
 25 23  1  0  0  0  0
 25 24  1  0  0  0  0
 26  3  1  0  0  0  0
 27 26  1  0  0  0  0
 28 27  1  0  0  0  0
 29 30  1  0  0  0  0
 30 28  1  0  0  0  0
 31 28  1  0  0  0  0
 31 32  1  0  0  0  0
 33 13  1  0  0  0  0
 33 34  1  0  0  0  0
 34 35  1  0  0  0  0
 36 20  1  0  0  0  0
 37 38  1  0  0  0  0
 37 36  1  0  0  0  0
 38 43  2  0  0  0  0
 40 41  1  0  0  0  0
 40 45  2  0  0  0  0
 41 38  1  0  0  0  0
 42 39  2  0  0  0  0
 43 39  1  0  0  0  0
 44 40  1  0  0  0  0
 45 42  1  0  0  0  0
 46 36  1  0  0  0  0
 47 52  1  0  0  0  0
 48 51  1  0  0  0  0
 48 50  2  0  0  0  0
 49 52  2  0  0  0  0
 50 49  1  0  0  0  0
 51 47  2  0  0  0  0
 52 46  1  0  0  0  0
 53 48  1  0  0  0  0
 54 53  2  0  0  0  0
 55 53  1  0  0  0  0
M  END
>  <MODEL>
5

>  <REMARK>
 VINA RESULT:       0.5      2.126      4.652
  Name = 
  13 active torsions:
  status: ('A' for Active; 'I' for Inactive)
    1  A    between atoms: C_2  and  C_28
    2  A    between atoms: C_6  and  C_53
    3  A    between atoms: C_10  and  C_32
    4  A    between atoms: C_11  and  C_29
    5  A    between atoms: C_16  and  C_17
    6  A    between atoms: C_17  and  C_23
    7  A    between atoms: O_25  and  C_29
    8  A    between atoms: C_28  and  C_49
    9  A    between atoms: C_29  and  C_38
   10  A    between atoms: O_33  and  C_49
   11  A    between atoms: O_33  and  C_52
   12  A    between atoms: C_38  and  C_53
   13  A    between atoms: C_45  and  C_49
                            x       y       z     vdW  Elec       q    Type
                         _______ _______ _______ _____ _____    ______ ____

>  <TORSDO>
F 13

$$$$
=
 OpenBabel11062408583D

 55 62  0  0  1  0  0  0  0  0999 V2000
  160.5770  212.6200  153.3300 C   0  0  0  0  0  2  0  0  0  0  0  0
  159.8100  209.4720  153.4750 O   0  0  0  0  0  1  0  0  0  0  0  0
  158.1800  213.5750  147.6740 C   0  0  2  0  0  0  0  0  0  0  0  0
  161.1310  213.7620  149.0620 C   0  0  1  0  0  3  0  0  0  0  0  0
  160.4760  213.5300  147.7070 C   0  0  0  0  0  2  0  0  0  0  0  0
  162.0530  211.2000  150.5360 O   0  0  0  0  0  0  0  0  0  0  0  0
  156.1190  213.9540  148.5840 C   0  0  0  0  0  2  0  0  0  0  0  0
  157.0700  214.4490  147.6660 O   0  0  0  0  0  0  0  0  0  0  0  0
  162.0750  211.5410  149.2660 O   0  0  0  0  0  0  0  0  0  0  0  0
  161.4600  209.2080  151.7580 C   0  0  1  0  0  3  0  0  0  0  0  0
  158.1420  212.8340  149.0260 C   0  0  2  0  0  3  0  0  0  0  0  0
  160.2290  213.9780  150.3070 C   0  0  1  0  0  3  0  0  0  0  0  0
  162.3810  212.9060  149.2980 C   0  0  1  0  0  3  0  0  0  0  0  0
  162.2430  209.8160  150.5870 C   0  0  1  0  0  3  0  0  0  0  0  0
  159.3710  212.8410  152.4100 C   0  0  0  0  0  2  0  0  0  0  0  0
  161.3340  211.2920  153.1810 C   0  0  0  0  0  2  0  0  0  0  0  0
  160.5360  210.1720  152.5130 C   0  0  2  0  0  3  0  0  0  0  0  0
  156.6730  212.7310  149.2790 C   0  0  0  0  0  2  0  0  0  0  0  0
  158.7290  213.6410  150.1950 C   0  0  2  0  0  3  0  0  0  0  0  0
  160.9410  209.0660  150.3290 C   0  0  1  0  0  3  0  0  0  0  0  0
  159.3540  214.3600  147.5500 O   0  0  0  0  0  0  0  0  0  0  0  0
  159.6720  212.7060  150.9220 C   0  0  1  0  0  3  0  0  0  0  0  0
  157.2170  213.1290  145.4330 O   0  0  0  0  0  0  0  0  0  0  0  0
  157.0220  211.1200  146.7990 S   0  0  0  0  0  0  0  0  0  0  0  0
  156.2630  212.1040  145.4850 C   0  0  0  0  0  2  0  0  0  0  0  0
  158.0320  212.5920  146.4460 C   0  0  2  0  0  0  0  0  0  0  0  0
  159.3800  212.1370  145.8620 C   0  0  0  0  0  2  0  0  0  0  0  0
  159.7450  212.8380  144.5530 C   0  0  1  0  0  3  0  0  0  0  0  0
  161.7520  214.3250  144.9770 C   0  0  0  0  0  1  0  0  0  0  0  0
  161.2560  213.0070  144.3990 C   0  0  0  0  0  2  0  0  0  0  0  0
  159.2240  212.1260  143.4710 O   0  0  0  0  0  0  0  0  0  0  0  0
  160.1830  212.2560  142.4640 C   0  0  0  0  0  1  0  0  0  0  0  0
  163.4620  213.2340  148.2740 C   0  0  0  0  0  2  0  0  0  0  0  0
  163.5550  212.1610  147.2010 C   0  0  0  0  0  2  0  0  0  0  0  0
  164.8530  211.6570  147.1400 O   0  0  0  0  0  1  0  0  0  0  0  0
  161.1960  207.6610  149.7410 C   0  0  1  0  0  3  0  0  0  0  0  0
  160.0660  206.6730  150.0420 C   0  0  0  0  0  2  0  0  0  0  0  0
  160.5290  205.5330  150.8860 C   0  0  0  0  0  0  0  0  0  0  0  0
  162.2220  204.6340  152.4950 C   0  0  0  0  0  3  0  0  0  0  0  0
  160.5670  203.1090  150.3730 C   0  0  0  0  0  0  0  0  0  0  0  0
  159.7470  204.2620  150.8450 C   0  0  0  0  0  2  0  0  0  0  0  0
  162.2360  203.3250  152.2230 C   0  0  0  0  0  3  0  0  0  0  0  0
  161.5940  205.6910  151.6780 C   0  0  0  0  0  3  0  0  0  0  0  0
  160.0880  202.3300  149.2000 C   0  0  0  0  0  1  0  0  0  0  0  0
  161.6260  202.6640  151.0500 C   0  0  0  0  0  3  0  0  0  0  0  0
  161.4610  207.6920  148.3390 O   0  0  0  0  0  0  0  0  0  0  0  0
  161.7280  205.3230  147.7910 C   0  0  0  0  0  3  0  0  0  0  0  0
  160.7330  204.4460  145.7590 C   0  0  0  0  0  0  0  0  0  0  0  0
  160.4870  206.7940  146.3260 C   0  0  0  0  0  3  0  0  0  0  0  0
  160.2370  205.7240  145.4620 C   0  0  0  0  0  3  0  0  0  0  0  0
  161.4810  204.2520  146.9270 C   0  0  0  0  0  3  0  0  0  0  0  0
  161.2310  206.6010  147.4940 C   0  0  0  0  0  0  0  0  0  0  0  0
  160.4730  203.3160  144.8530 C   0  0  0  0  0  0  0  0  0  0  0  0
  161.1510  202.2580  144.9410 O   0  0  0  0  0  1  0  0  0  0  0  0
  159.4780  203.4070  143.8890 O   0  0  0  0  0  0  0  0  0  0  0  0
  3 21  1  6  0  0  0
  3 11  1  0  0  0  0
  4  5  1  6  0  0  0
  4 13  1  0  0  0  0
  4 12  1  0  0  0  0
  6 14  1  0  0  0  0
  7 18  1  0  0  0  0
  8  3  1  0  0  0  0
  8  7  1  0  0  0  0
  9 13  1  0  0  0  0
  9  6  1  0  0  0  0
 10 17  1  0  0  0  0
 11 18  1  0  0  0  0
 11 19  1  0  0  0  0
 12 22  1  0  0  0  0
 14 10  1  0  0  0  0
 15  1  1  0  0  0  0
 16  1  1  0  0  0  0
 17 16  1  0  0  0  0
 17  2  1  0  0  0  0
 19 12  1  0  0  0  0
 19 22  1  0  0  0  0
 20 14  1  0  0  0  0
 20 10  1  0  0  0  0
 21  5  1  0  0  0  0
 22 15  1  0  0  0  0
 23 25  1  0  0  0  0
 23 26  1  0  0  0  0
 25 24  1  0  0  0  0
 26 24  1  0  0  0  0
 26  3  1  0  0  0  0
 27 26  1  0  0  0  0
 28 27  1  0  0  0  0
 30 28  1  0  0  0  0
 30 29  1  0  0  0  0
 31 28  1  0  0  0  0
 32 31  1  0  0  0  0
 33 13  1  0  0  0  0
 34 33  1  0  0  0  0
 35 34  1  0  0  0  0
 36 37  1  0  0  0  0
 36 20  1  0  0  0  0
 37 38  1  0  0  0  0
 38 43  2  0  0  0  0
 40 41  1  0  0  0  0
 40 45  2  0  0  0  0
 41 38  1  0  0  0  0
 42 39  2  0  0  0  0
 43 39  1  0  0  0  0
 44 40  1  0  0  0  0
 45 42  1  0  0  0  0
 46 36  1  0  0  0  0
 48 51  1  0  0  0  0
 49 52  2  0  0  0  0
 50 48  2  0  0  0  0
 50 49  1  0  0  0  0
 51 47  2  0  0  0  0
 52 47  1  0  0  0  0
 52 46  1  0  0  0  0
 53 54  1  0  0  0  0
 53 48  1  0  0  0  0
 55 53  2  0  0  0  0
M  END
>  <MODEL>
6

>  <REMARK>
 VINA RESULT:       0.7      3.477      7.672
  Name = 
  13 active torsions:
  status: ('A' for Active; 'I' for Inactive)
    1  A    between atoms: C_2  and  C_28
    2  A    between atoms: C_6  and  C_53
    3  A    between atoms: C_10  and  C_32
    4  A    between atoms: C_11  and  C_29
    5  A    between atoms: C_16  and  C_17
    6  A    between atoms: C_17  and  C_23
    7  A    between atoms: O_25  and  C_29
    8  A    between atoms: C_28  and  C_49
    9  A    between atoms: C_29  and  C_38
   10  A    between atoms: O_33  and  C_49
   11  A    between atoms: O_33  and  C_52
   12  A    between atoms: C_38  and  C_53
   13  A    between atoms: C_45  and  C_49
                            x       y       z     vdW  Elec       q    Type
                         _______ _______ _______ _____ _____    ______ ____

>  <TORSDO>
F 13

$$$$
