=
 OpenBabel11062410163D

 43 47  0  0  1  0  0  0  0  0999 V2000
  160.9320  202.4370  149.9650 C   0  0  0  0  0  0  0  0  0  0  0  0
  161.3590  206.9030  152.1870 N   0  0  0  0  0  0  0  0  0  0  0  0
  161.2060  204.2270  151.6090 C   0  0  0  0  0  0  0  0  0  0  0  0
  160.8370  203.2830  148.9320 C   0  0  0  0  0  3  0  0  0  0  0  0
  160.8420  200.9750  149.7200 C   0  0  0  0  0  1  0  0  0  0  0  0
  161.1050  205.2210  150.5100 C   0  0  0  0  0  0  0  0  0  0  0  0
  161.1240  202.9240  151.3420 C   0  0  0  0  0  3  0  0  0  0  0  0
  160.9150  204.7810  149.0800 C   0  0  0  0  0  2  0  0  0  0  0  0
  161.1140  207.6660  149.9340 C   0  0  0  0  0  2  0  0  0  0  0  0
  161.1880  206.5100  150.8430 C   0  0  0  0  0  0  0  0  0  0  0  0
  161.4630  205.9430  153.2460 C   0  0  0  0  0  3  0  0  0  0  0  0
  161.4090  208.3430  152.3110 C   0  0  1  0  0  3  0  0  0  0  0  0
  161.3200  208.8730  150.8680 C   0  0  1  0  0  3  0  0  0  0  0  0
  161.3900  204.6730  152.9650 N   0  0  0  0  0  0  0  0  0  0  0  0
  160.2110  208.8310  153.1070 C   0  0  0  0  0  2  0  0  0  0  0  0
  160.6400  209.7970  154.1040 N   0  0  0  0  0  2  0  0  0  0  0  0
  159.6220  213.0620  155.6250 C   0  0  0  0  0  3  0  0  0  0  0  0
  158.0200  212.4350  153.9230 C   0  0  0  0  0  3  0  0  0  0  0  0
  158.4540  213.3280  154.9050 C   0  0  0  0  0  0  0  0  0  0  0  0
  160.3540  211.9010  155.3620 C   0  0  0  0  0  3  0  0  0  0  0  0
  159.9210  211.0010  154.3770 C   0  0  0  0  0  0  0  0  0  0  0  0
  157.7430  214.4510  155.1630 F   0  0  0  0  0  0  0  0  0  0  0  0
  158.7500  211.2740  153.6610 C   0  0  0  0  0  3  0  0  0  0  0  0
  162.5240  209.5300  150.5230 O   0  0  0  0  0  0  0  0  0  0  0  0
  162.2700  210.8230  150.1300 N   0  0  0  0  0  0  0  0  0  0  0  0
  161.1270  211.3890  150.8440 C   0  0  0  0  0  1  0  0  0  0  0  0
  162.0520  210.9230  148.6850 C   0  0  0  0  0  2  0  0  0  0  0  0
  162.5440  212.2360  148.1810 C   0  0  0  0  0  0  0  0  0  0  0  0
  163.7350  212.4010  148.0040 O   0  0  0  0  0  0  0  0  0  0  0  0
  161.5900  213.3580  147.9110 C   0  0  0  0  0  2  0  0  0  0  0  0
  160.6510  213.0800  146.7330 C   0  0  2  0  0  3  0  0  0  0  0  0
  160.9130  212.6400  144.2590 C   0  0  0  0  0  0  0  0  0  0  0  0
  161.3470  213.2640  145.4680 N   0  0  0  0  0  2  0  0  0  0  0  0
  159.9290  211.8510  144.2720 O   0  0  0  0  0  0  0  0  0  0  0  0
  161.6330  212.9030  143.0050 C   0  0  0  0  0  0  0  0  0  0  0  0
  162.2260  212.3160  140.7550 C   0  0  0  0  0  3  0  0  0  0  0  0
  163.1180  214.2600  141.7520 C   0  0  0  0  0  3  0  0  0  0  0  0
  163.0140  213.4190  140.6920 N   0  0  0  0  0  0  0  0  0  0  0  0
  162.4330  213.9980  142.8960 N   0  0  0  0  0  0  0  0  0  0  0  0
  161.5160  212.0330  141.9190 C   0  0  0  0  0  3  0  0  0  0  0  0
  159.4050  213.9560  146.7710 C   0  0  0  0  0  2  0  0  0  0  0  0
  158.2170  213.6530  148.8230 O   0  0  0  0  0  1  0  0  0  0  0  0
  158.2600  213.2560  147.4840 C   0  0  0  0  0  2  0  0  0  0  0  0
  1  7  1  0  0  0  0
  2 12  1  0  0  0  0
  2 11  1  0  0  0  0
  3 14  1  0  0  0  0
  4  8  1  0  0  0  0
  4  1  2  0  0  0  0
  5  1  1  0  0  0  0
  6 10  2  0  0  0  0
  6  3  1  0  0  0  0
  7  3  2  0  0  0  0
  8  6  1  0  0  0  0
  9 10  1  0  0  0  0
  9 13  1  0  0  0  0
 10  2  1  0  0  0  0
 12 15  1  1  0  0  0
 13 24  1  6  0  0  0
 13 12  1  0  0  0  0
 14 11  2  0  0  0  0
 15 16  1  0  0  0  0
 16 21  1  0  0  0  0
 18 19  1  0  0  0  0
 19 22  1  0  0  0  0
 19 17  2  0  0  0  0
 20 17  1  0  0  0  0
 21 20  2  0  0  0  0
 23 18  2  0  0  0  0
 23 21  1  0  0  0  0
 25 24  1  0  0  0  0
 25 26  1  0  0  0  0
 27 25  1  0  0  0  0
 28 27  1  0  0  0  0
 29 28  2  0  0  0  0
 30 28  1  0  0  0  0
 31 41  1  6  0  0  0
 31 30  1  0  0  0  0
 32 34  2  0  0  0  0
 32 33  1  0  0  0  0
 33 31  1  0  0  0  0
 35 32  1  0  0  0  0
 36 40  1  0  0  0  0
 37 39  2  0  0  0  0
 38 36  2  0  0  0  0
 38 37  1  0  0  0  0
 39 35  1  0  0  0  0
 40 35  2  0  0  0  0
 41 43  1  0  0  0  0
 43 42  1  0  0  0  0
M  END
>  <MODEL>
1

>  <REMARK>
 VINA RESULT:      -7.6      0.000      0.000
  Name = 
  13 active torsions:
  status: ('A' for Active; 'I' for Inactive)
    1  A    between atoms: C_1  and  N_28
    2  A    between atoms: C_1  and  C_34
    3  A    between atoms: N_2  and  C_6
    4  A    between atoms: N_2  and  O_13
    5  A    between atoms: C_3  and  C_4
    6  A    between atoms: C_3  and  C_12
    7  A    between atoms: C_4  and  C_15
    8  A    between atoms: C_4  and  N_22
    9  A    between atoms: C_6  and  C_12
   10  A    between atoms: C_11  and  C_14
   11  A    between atoms: O_13  and  C_38
   12  A    between atoms: C_15  and  C_42
   13  A    between atoms: N_28  and  C_35
                            x       y       z     vdW  Elec       q    Type
                         _______ _______ _______ _____ _____    ______ ____

>  <TORSDO>
F 13

$$$$
=
 OpenBabel11062410163D

 43 47  0  0  1  0  0  0  0  0999 V2000
  161.3860  213.3980  147.8470 C   0  0  0  0  0  0  0  0  0  0  0  0
  160.2120  211.4150  152.2920 N   0  0  0  0  0  0  0  0  0  0  0  0
  160.3980  212.9750  150.0440 C   0  0  0  0  0  0  0  0  0  0  0  0
  162.1440  212.2950  147.8800 C   0  0  0  0  0  3  0  0  0  0  0  0
  161.4520  214.2920  146.6630 C   0  0  0  0  0  1  0  0  0  0  0  0
  161.2130  211.7380  150.1480 C   0  0  0  0  0  0  0  0  0  0  0  0
  160.4870  213.7450  148.9610 C   0  0  0  0  0  3  0  0  0  0  0  0
  162.1470  211.3280  149.0360 C   0  0  0  0  0  2  0  0  0  0  0  0
  161.7850  209.7590  151.5870 C   0  0  0  0  0  2  0  0  0  0  0  0
  161.0850  211.0130  151.2600 C   0  0  0  0  0  0  0  0  0  0  0  0
  159.4210  212.6060  152.1890 C   0  0  0  0  0  3  0  0  0  0  0  0
  160.2450  210.4880  153.4010 C   0  0  1  0  0  3  0  0  0  0  0  0
  161.2030  209.3660  152.9560 C   0  0  1  0  0  3  0  0  0  0  0  0
  159.5130  213.3420  151.1180 N   0  0  0  0  0  0  0  0  0  0  0  0
  160.8090  211.1790  154.6310 C   0  0  0  0  0  2  0  0  0  0  0  0
  159.8030  211.2190  155.6790 N   0  0  0  0  0  2  0  0  0  0  0  0
  156.1970  211.9190  154.9580 C   0  0  0  0  0  3  0  0  0  0  0  0
  157.2940  213.9680  155.6340 C   0  0  0  0  0  3  0  0  0  0  0  0
  156.1440  213.2920  155.2170 C   0  0  0  0  0  0  0  0  0  0  0  0
  157.4000  211.2250  155.1140 C   0  0  0  0  0  3  0  0  0  0  0  0
  158.5560  211.9020  155.5320 C   0  0  0  0  0  0  0  0  0  0  0  0
  154.9800  213.9640  155.0600 F   0  0  0  0  0  0  0  0  0  0  0  0
  158.4960  213.2760  155.7890 C   0  0  0  0  0  3  0  0  0  0  0  0
  160.4910  208.1510  152.8300 O   0  0  0  0  0  0  0  0  0  0  0  0
  160.8990  207.2530  153.7880 N   0  0  0  0  0  0  0  0  0  0  0  0
  161.2200  207.9190  155.0490 C   0  0  0  0  0  1  0  0  0  0  0  0
  162.0440  206.4570  153.3410 C   0  0  0  0  0  2  0  0  0  0  0  0
  161.5800  205.3090  152.5120 C   0  0  0  0  0  0  0  0  0  0  0  0
  160.8070  204.5010  152.9880 O   0  0  0  0  0  0  0  0  0  0  0  0
  162.0720  205.1300  151.1090 C   0  0  0  0  0  2  0  0  0  0  0  0
  160.9570  205.2240  150.0630 C   0  0  2  0  0  3  0  0  0  0  0  0
  160.6650  202.8930  149.1340 C   0  0  0  0  0  0  0  0  0  0  0  0
  161.1510  204.2310  149.0170 N   0  0  0  0  0  2  0  0  0  0  0  0
  160.0960  202.5170  150.1960 O   0  0  0  0  0  0  0  0  0  0  0  0
  160.8530  201.9500  148.0220 C   0  0  0  0  0  0  0  0  0  0  0  0
  160.6170  201.3460  145.7120 C   0  0  0  0  0  3  0  0  0  0  0  0
  161.6120  199.8470  147.2390 C   0  0  0  0  0  3  0  0  0  0  0  0
  161.2010  200.1510  145.9810 N   0  0  0  0  0  0  0  0  0  0  0  0
  161.4360  200.7410  148.2460 N   0  0  0  0  0  0  0  0  0  0  0  0
  160.4310  202.2760  146.7320 C   0  0  0  0  0  3  0  0  0  0  0  0
  160.8610  206.6140  149.4470 C   0  0  0  0  0  2  0  0  0  0  0  0
  162.0710  206.9910  147.4190 O   0  0  0  0  0  1  0  0  0  0  0  0
  160.8480  206.5450  147.9290 C   0  0  0  0  0  2  0  0  0  0  0  0
  1  4  2  0  0  0  0
  1  7  1  0  0  0  0
  2 12  1  0  0  0  0
  3  6  1  0  0  0  0
  3 14  1  0  0  0  0
  4  8  1  0  0  0  0
  5  1  1  0  0  0  0
  6 10  2  0  0  0  0
  7  3  2  0  0  0  0
  8  6  1  0  0  0  0
  9 13  1  0  0  0  0
 10  9  1  0  0  0  0
 10  2  1  0  0  0  0
 11  2  1  0  0  0  0
 12 15  1  1  0  0  0
 13 24  1  6  0  0  0
 13 12  1  0  0  0  0
 14 11  2  0  0  0  0
 15 16  1  0  0  0  0
 17 20  2  0  0  0  0
 17 19  1  0  0  0  0
 18 23  1  0  0  0  0
 19 18  2  0  0  0  0
 20 21  1  0  0  0  0
 21 16  1  0  0  0  0
 21 23  2  0  0  0  0
 22 19  1  0  0  0  0
 24 25  1  0  0  0  0
 25 26  1  0  0  0  0
 27 25  1  0  0  0  0
 28 29  2  0  0  0  0
 28 27  1  0  0  0  0
 30 28  1  0  0  0  0
 31 41  1  6  0  0  0
 31 30  1  0  0  0  0
 32 34  2  0  0  0  0
 33 32  1  0  0  0  0
 33 31  1  0  0  0  0
 35 39  1  0  0  0  0
 35 32  1  0  0  0  0
 36 38  2  0  0  0  0
 36 40  1  0  0  0  0
 37 39  2  0  0  0  0
 38 37  1  0  0  0  0
 40 35  2  0  0  0  0
 42 43  1  0  0  0  0
 43 41  1  0  0  0  0
M  END
>  <MODEL>
2

>  <REMARK>
 VINA RESULT:      -6.9      3.620      8.282
  Name = 
  13 active torsions:
  status: ('A' for Active; 'I' for Inactive)
    1  A    between atoms: C_1  and  N_28
    2  A    between atoms: C_1  and  C_34
    3  A    between atoms: N_2  and  C_6
    4  A    between atoms: N_2  and  O_13
    5  A    between atoms: C_3  and  C_4
    6  A    between atoms: C_3  and  C_12
    7  A    between atoms: C_4  and  C_15
    8  A    between atoms: C_4  and  N_22
    9  A    between atoms: C_6  and  C_12
   10  A    between atoms: C_11  and  C_14
   11  A    between atoms: O_13  and  C_38
   12  A    between atoms: C_15  and  C_42
   13  A    between atoms: N_28  and  C_35
                            x       y       z     vdW  Elec       q    Type
                         _______ _______ _______ _____ _____    ______ ____

>  <TORSDO>
F 13

$$$$
=
 OpenBabel11062410163D

 43 47  0  0  1  0  0  0  0  0999 V2000
  161.8730  213.6210  147.4010 C   0  0  0  0  0  0  0  0  0  0  0  0
  160.1320  211.9020  151.7690 N   0  0  0  0  0  0  0  0  0  0  0  0
  160.6300  213.3410  149.4880 C   0  0  0  0  0  0  0  0  0  0  0  0
  162.5780  212.4960  147.5690 C   0  0  0  0  0  3  0  0  0  0  0  0
  162.1070  214.4530  146.1930 C   0  0  0  0  0  1  0  0  0  0  0  0
  161.3790  212.0840  149.7400 C   0  0  0  0  0  0  0  0  0  0  0  0
  160.8700  214.0540  148.3890 C   0  0  0  0  0  3  0  0  0  0  0  0
  162.4130  211.5870  148.7610 C   0  0  0  0  0  2  0  0  0  0  0  0
  161.7070  210.1600  151.3220 C   0  0  0  0  0  2  0  0  0  0  0  0
  161.0980  211.4190  150.8620 C   0  0  0  0  0  0  0  0  0  0  0  0
  159.4050  213.1130  151.5230 C   0  0  0  0  0  3  0  0  0  0  0  0
  160.0040  211.0300  152.9150 C   0  0  1  0  0  3  0  0  0  0  0  0
  160.9600  209.8550  152.6330 C   0  0  1  0  0  3  0  0  0  0  0  0
  159.6460  213.7920  150.4380 N   0  0  0  0  0  0  0  0  0  0  0  0
  160.4540  211.7610  154.1690 C   0  0  0  0  0  2  0  0  0  0  0  0
  159.5330  211.4860  155.2590 N   0  0  0  0  0  2  0  0  0  0  0  0
  155.9250  212.1110  156.0360 C   0  0  0  0  0  3  0  0  0  0  0  0
  156.8790  214.0830  155.0070 C   0  0  0  0  0  3  0  0  0  0  0  0
  155.7830  213.4200  155.5660 C   0  0  0  0  0  0  0  0  0  0  0  0
  157.1620  211.4670  155.9450 C   0  0  0  0  0  3  0  0  0  0  0  0
  158.2630  212.1300  155.3830 C   0  0  0  0  0  0  0  0  0  0  0  0
  154.5840  214.0420  155.6510 F   0  0  0  0  0  0  0  0  0  0  0  0
  158.1140  213.4400  154.9130 C   0  0  0  0  0  3  0  0  0  0  0  0
  160.2190  208.6610  152.4810 O   0  0  0  0  0  0  0  0  0  0  0  0
  160.6830  207.6950  153.3440 N   0  0  0  0  0  0  0  0  0  0  0  0
  161.2590  208.2820  154.5520 C   0  0  0  0  0  1  0  0  0  0  0  0
  161.6620  206.8140  152.7030 C   0  0  0  0  0  2  0  0  0  0  0  0
  161.1430  205.4180  152.6540 C   0  0  0  0  0  0  0  0  0  0  0  0
  161.2100  204.7190  153.6470 O   0  0  0  0  0  0  0  0  0  0  0  0
  160.5620  204.8620  151.3910 C   0  0  0  0  0  2  0  0  0  0  0  0
  161.4660  203.8250  150.7170 C   0  0  2  0  0  3  0  0  0  0  0  0
  161.2420  205.1310  148.5670 C   0  0  0  0  0  0  0  0  0  0  0  0
  161.3320  203.8920  149.2700 N   0  0  0  0  0  2  0  0  0  0  0  0
  161.2170  206.2200  149.2040 O   0  0  0  0  0  0  0  0  0  0  0  0
  161.1540  205.1310  147.0990 C   0  0  0  0  0  0  0  0  0  0  0  0
  161.5150  204.0880  144.9690 C   0  0  0  0  0  3  0  0  0  0  0  0
  160.5520  206.2380  145.0930 C   0  0  0  0  0  3  0  0  0  0  0  0
  160.9930  205.1830  144.3620 N   0  0  0  0  0  0  0  0  0  0  0  0
  160.6350  206.2080  146.4480 N   0  0  0  0  0  0  0  0  0  0  0  0
  161.6070  204.0390  146.3580 C   0  0  0  0  0  3  0  0  0  0  0  0
  161.1790  202.4100  151.2000 C   0  0  0  0  0  2  0  0  0  0  0  0
  159.6040  201.5460  149.6220 O   0  0  0  0  0  1  0  0  0  0  0  0
  160.9380  201.4660  150.0330 C   0  0  0  0  0  2  0  0  0  0  0  0
  1  4  2  0  0  0  0
  1  7  1  0  0  0  0
  2 12  1  0  0  0  0
  3  6  1  0  0  0  0
  3 14  1  0  0  0  0
  4  8  1  0  0  0  0
  5  1  1  0  0  0  0
  6 10  2  0  0  0  0
  7  3  2  0  0  0  0
  8  6  1  0  0  0  0
  9 13  1  0  0  0  0
 10  9  1  0  0  0  0
 10  2  1  0  0  0  0
 11  2  1  0  0  0  0
 12 15  1  1  0  0  0
 13 24  1  6  0  0  0
 13 12  1  0  0  0  0
 14 11  2  0  0  0  0
 15 16  1  0  0  0  0
 16 21  1  0  0  0  0
 18 19  1  0  0  0  0
 19 22  1  0  0  0  0
 19 17  2  0  0  0  0
 20 17  1  0  0  0  0
 21 20  2  0  0  0  0
 23 18  2  0  0  0  0
 23 21  1  0  0  0  0
 24 25  1  0  0  0  0
 25 26  1  0  0  0  0
 27 25  1  0  0  0  0
 28 27  1  0  0  0  0
 28 29  2  0  0  0  0
 30 28  1  0  0  0  0
 31 41  1  1  0  0  0
 31 30  1  0  0  0  0
 32 34  2  0  0  0  0
 32 33  1  0  0  0  0
 33 31  1  0  0  0  0
 35 32  1  0  0  0  0
 36 40  1  0  0  0  0
 37 39  2  0  0  0  0
 38 36  2  0  0  0  0
 38 37  1  0  0  0  0
 39 35  1  0  0  0  0
 40 35  2  0  0  0  0
 42 43  1  0  0  0  0
 43 41  1  0  0  0  0
M  END
>  <MODEL>
3

>  <REMARK>
 VINA RESULT:      -6.7      3.489      7.867
  Name = 
  13 active torsions:
  status: ('A' for Active; 'I' for Inactive)
    1  A    between atoms: C_1  and  N_28
    2  A    between atoms: C_1  and  C_34
    3  A    between atoms: N_2  and  C_6
    4  A    between atoms: N_2  and  O_13
    5  A    between atoms: C_3  and  C_4
    6  A    between atoms: C_3  and  C_12
    7  A    between atoms: C_4  and  C_15
    8  A    between atoms: C_4  and  N_22
    9  A    between atoms: C_6  and  C_12
   10  A    between atoms: C_11  and  C_14
   11  A    between atoms: O_13  and  C_38
   12  A    between atoms: C_15  and  C_42
   13  A    between atoms: N_28  and  C_35
                            x       y       z     vdW  Elec       q    Type
                         _______ _______ _______ _____ _____    ______ ____

>  <TORSDO>
F 13

$$$$
=
 OpenBabel11062410163D

 43 47  0  0  1  0  0  0  0  0999 V2000
  161.0360  202.0850  148.0800 C   0  0  0  0  0  0  0  0  0  0  0  0
  161.4610  205.5550  151.6620 N   0  0  0  0  0  0  0  0  0  0  0  0
  161.2850  203.2240  150.2290 C   0  0  0  0  0  0  0  0  0  0  0  0
  160.9890  203.2260  147.3820 C   0  0  0  0  0  3  0  0  0  0  0  0
  160.9310  200.7880  147.3630 C   0  0  0  0  0  1  0  0  0  0  0  0
  161.2360  204.5270  149.5190 C   0  0  0  0  0  0  0  0  0  0  0  0
  161.1900  202.0850  149.5440 C   0  0  0  0  0  3  0  0  0  0  0  0
  161.0860  204.5890  148.0190 C   0  0  0  0  0  2  0  0  0  0  0  0
  161.3030  207.0250  149.7840 C   0  0  0  0  0  2  0  0  0  0  0  0
  161.3280  205.6320  150.2610 C   0  0  0  0  0  0  0  0  0  0  0  0
  161.5150  204.2970  152.3470 C   0  0  0  0  0  3  0  0  0  0  0  0
  161.5300  206.8720  152.2570 C   0  0  1  0  0  3  0  0  0  0  0  0
  161.4970  207.8510  151.0680 C   0  0  1  0  0  3  0  0  0  0  0  0
  161.4310  203.1940  151.6610 N   0  0  0  0  0  0  0  0  0  0  0  0
  160.3140  207.1010  153.1390 C   0  0  0  0  0  2  0  0  0  0  0  0
  160.7200  207.1730  154.5320 N   0  0  0  0  0  2  0  0  0  0  0  0
  160.3180  210.7450  155.5760 C   0  0  0  0  0  3  0  0  0  0  0  0
  162.0280  209.7000  156.9320 C   0  0  0  0  0  3  0  0  0  0  0  0
  161.2710  210.8240  156.5950 C   0  0  0  0  0  0  0  0  0  0  0  0
  160.1240  209.5410  154.8930 C   0  0  0  0  0  3  0  0  0  0  0  0
  160.8840  208.4100  155.2290 C   0  0  0  0  0  0  0  0  0  0  0  0
  161.4610  211.9920  157.2520 F   0  0  0  0  0  0  0  0  0  0  0  0
  161.8370  208.4970  156.2500 C   0  0  0  0  0  3  0  0  0  0  0  0
  162.7220  208.5520  150.9910 O   0  0  0  0  0  0  0  0  0  0  0  0
  162.4950  209.9020  150.8570 N   0  0  0  0  0  0  0  0  0  0  0  0
  161.9960  210.4920  152.0980 C   0  0  0  0  0  1  0  0  0  0  0  0
  161.5680  210.1940  149.7610 C   0  0  0  0  0  2  0  0  0  0  0  0
  162.0360  211.3840  148.9950 C   0  0  0  0  0  0  0  0  0  0  0  0
  162.9700  211.2700  148.2260 O   0  0  0  0  0  0  0  0  0  0  0  0
  161.3840  212.7180  149.1800 C   0  0  0  0  0  2  0  0  0  0  0  0
  160.4730  213.1110  148.0130 C   0  0  2  0  0  3  0  0  0  0  0  0
  161.0270  212.9260  145.5550 C   0  0  0  0  0  0  0  0  0  0  0  0
  161.2630  213.4830  146.8490 N   0  0  0  0  0  2  0  0  0  0  0  0
  160.1470  212.0360  145.4000 O   0  0  0  0  0  0  0  0  0  0  0  0
  161.8310  213.3790  144.4100 C   0  0  0  0  0  0  0  0  0  0  0  0
  162.2080  213.5720  142.0480 C   0  0  0  0  0  3  0  0  0  0  0  0
  163.7730  214.4520  143.5790 C   0  0  0  0  0  3  0  0  0  0  0  0
  163.3730  214.2190  142.3030 N   0  0  0  0  0  0  0  0  0  0  0  0
  163.0060  214.0320  144.6190 N   0  0  0  0  0  0  0  0  0  0  0  0
  161.4070  213.1370  143.1020 C   0  0  0  0  0  3  0  0  0  0  0  0
  159.5230  214.2440  148.3790 C   0  0  0  0  0  2  0  0  0  0  0  0
  157.4070  213.2310  148.8360 O   0  0  0  0  0  1  0  0  0  0  0  0
  158.5270  213.8090  149.4400 C   0  0  0  0  0  2  0  0  0  0  0  0
  1  7  1  0  0  0  0
  2 12  1  0  0  0  0
  2 11  1  0  0  0  0
  3 14  1  0  0  0  0
  4  8  1  0  0  0  0
  4  1  2  0  0  0  0
  5  1  1  0  0  0  0
  6  3  1  0  0  0  0
  6 10  2  0  0  0  0
  7  3  2  0  0  0  0
  8  6  1  0  0  0  0
  9 10  1  0  0  0  0
  9 13  1  0  0  0  0
 10  2  1  0  0  0  0
 12 15  1  1  0  0  0
 13 24  1  6  0  0  0
 13 12  1  0  0  0  0
 14 11  2  0  0  0  0
 15 16  1  0  0  0  0
 16 21  1  0  0  0  0
 17 19  1  0  0  0  0
 19 18  2  0  0  0  0
 19 22  1  0  0  0  0
 20 21  1  0  0  0  0
 20 17  2  0  0  0  0
 21 23  2  0  0  0  0
 23 18  1  0  0  0  0
 25 24  1  0  0  0  0
 25 26  1  0  0  0  0
 27 25  1  0  0  0  0
 28 30  1  0  0  0  0
 28 27  1  0  0  0  0
 29 28  2  0  0  0  0
 31 41  1  1  0  0  0
 31 30  1  0  0  0  0
 32 33  1  0  0  0  0
 33 31  1  0  0  0  0
 34 32  2  0  0  0  0
 35 39  1  0  0  0  0
 35 32  1  0  0  0  0
 36 38  2  0  0  0  0
 36 40  1  0  0  0  0
 37 39  2  0  0  0  0
 38 37  1  0  0  0  0
 40 35  2  0  0  0  0
 41 43  1  0  0  0  0
 42 43  1  0  0  0  0
M  END
>  <MODEL>
4

>  <REMARK>
 VINA RESULT:      -6.6      1.729      2.210
  Name = 
  13 active torsions:
  status: ('A' for Active; 'I' for Inactive)
    1  A    between atoms: C_1  and  N_28
    2  A    between atoms: C_1  and  C_34
    3  A    between atoms: N_2  and  C_6
    4  A    between atoms: N_2  and  O_13
    5  A    between atoms: C_3  and  C_4
    6  A    between atoms: C_3  and  C_12
    7  A    between atoms: C_4  and  C_15
    8  A    between atoms: C_4  and  N_22
    9  A    between atoms: C_6  and  C_12
   10  A    between atoms: C_11  and  C_14
   11  A    between atoms: O_13  and  C_38
   12  A    between atoms: C_15  and  C_42
   13  A    between atoms: N_28  and  C_35
                            x       y       z     vdW  Elec       q    Type
                         _______ _______ _______ _____ _____    ______ ____

>  <TORSDO>
F 13

$$$$
=
 OpenBabel11062410163D

 43 47  0  0  1  0  0  0  0  0999 V2000
  161.1810  201.1070  147.4940 C   0  0  0  0  0  0  0  0  0  0  0  0
  161.4320  204.4960  151.1700 N   0  0  0  0  0  0  0  0  0  0  0  0
  161.4750  202.2100  149.6570 C   0  0  0  0  0  0  0  0  0  0  0  0
  160.8780  202.2460  146.8580 C   0  0  0  0  0  3  0  0  0  0  0  0
  161.2070  199.8320  146.7320 C   0  0  0  0  0  1  0  0  0  0  0  0
  161.1430  203.5070  149.0150 C   0  0  0  0  0  0  0  0  0  0  0  0
  161.4900  201.0910  148.9340 C   0  0  0  0  0  3  0  0  0  0  0  0
  160.8250  203.5870  147.5430 C   0  0  0  0  0  2  0  0  0  0  0  0
  160.8410  205.9740  149.3870 C   0  0  0  0  0  2  0  0  0  0  0  0
  161.1380  204.5910  149.7940 C   0  0  0  0  0  0  0  0  0  0  0  0
  161.7590  203.2440  151.7880 C   0  0  0  0  0  3  0  0  0  0  0  0
  161.3550  205.7880  151.8150 C   0  0  1  0  0  3  0  0  0  0  0  0
  161.0380  206.7830  150.6820 C   0  0  1  0  0  3  0  0  0  0  0  0
  161.7780  202.1620  151.0630 N   0  0  0  0  0  0  0  0  0  0  0  0
  160.2200  205.7900  152.8250 C   0  0  0  0  0  2  0  0  0  0  0  0
  160.7590  205.7880  154.1740 N   0  0  0  0  0  2  0  0  0  0  0  0
  160.4270  208.1280  157.0770 C   0  0  0  0  0  3  0  0  0  0  0  0
  161.3980  209.3080  155.2000 C   0  0  0  0  0  3  0  0  0  0  0  0
  160.9410  209.3030  156.5200 C   0  0  0  0  0  0  0  0  0  0  0  0
  160.3700  206.9600  156.3110 C   0  0  0  0  0  3  0  0  0  0  0  0
  160.8270  206.9630  154.9840 C   0  0  0  0  0  0  0  0  0  0  0  0
  160.9920  210.4350  157.2610 F   0  0  0  0  0  0  0  0  0  0  0  0
  161.3390  208.1430  154.4330 C   0  0  0  0  0  3  0  0  0  0  0  0
  162.1200  207.6770  150.5130 O   0  0  0  0  0  0  0  0  0  0  0  0
  161.9330  208.4520  149.3920 N   0  0  0  0  0  0  0  0  0  0  0  0
  162.9260  208.1580  148.3600 C   0  0  0  0  0  1  0  0  0  0  0  0
  161.9520  209.8820  149.7070 C   0  0  0  0  0  2  0  0  0  0  0  0
  161.8070  210.0870  151.1750 C   0  0  0  0  0  0  0  0  0  0  0  0
  162.8000  210.1210  151.8760 O   0  0  0  0  0  0  0  0  0  0  0  0
  160.4530  210.2300  151.7980 C   0  0  0  0  0  2  0  0  0  0  0  0
  160.2150  211.6140  152.4110 C   0  0  2  0  0  3  0  0  0  0  0  0
  159.0210  212.0440  154.5960 C   0  0  0  0  0  0  0  0  0  0  0  0
  159.0160  211.6100  153.2350 N   0  0  0  0  0  2  0  0  0  0  0  0
  160.1020  212.3940  155.1430 O   0  0  0  0  0  0  0  0  0  0  0  0
  157.7660  212.0590  155.3600 C   0  0  0  0  0  0  0  0  0  0  0  0
  155.5910  211.1740  155.8530 C   0  0  0  0  0  3  0  0  0  0  0  0
  156.4070  213.0510  157.0290 C   0  0  0  0  0  3  0  0  0  0  0  0
  155.4290  212.1390  156.7940 N   0  0  0  0  0  0  0  0  0  0  0  0
  157.5610  213.0080  156.3150 N   0  0  0  0  0  0  0  0  0  0  0  0
  156.7690  211.1140  155.1130 C   0  0  0  0  0  3  0  0  0  0  0  0
  160.1120  212.7030  151.3510 C   0  0  0  0  0  2  0  0  0  0  0  0
  158.1150  212.9610  150.0630 O   0  0  0  0  0  1  0  0  0  0  0  0
  158.7080  213.2810  151.2870 C   0  0  0  0  0  2  0  0  0  0  0  0
  1  7  1  0  0  0  0
  2 11  1  0  0  0  0
  2 12  1  0  0  0  0
  3 14  1  0  0  0  0
  4  1  2  0  0  0  0
  4  8  1  0  0  0  0
  5  1  1  0  0  0  0
  6  3  1  0  0  0  0
  6 10  2  0  0  0  0
  7  3  2  0  0  0  0
  8  6  1  0  0  0  0
  9 10  1  0  0  0  0
  9 13  1  0  0  0  0
 10  2  1  0  0  0  0
 12 15  1  1  0  0  0
 13 24  1  6  0  0  0
 13 12  1  0  0  0  0
 14 11  2  0  0  0  0
 15 16  1  0  0  0  0
 16 21  1  0  0  0  0
 18 19  2  0  0  0  0
 19 17  1  0  0  0  0
 19 22  1  0  0  0  0
 20 17  2  0  0  0  0
 21 20  1  0  0  0  0
 23 21  2  0  0  0  0
 23 18  1  0  0  0  0
 25 27  1  0  0  0  0
 25 24  1  0  0  0  0
 26 25  1  0  0  0  0
 27 28  1  0  0  0  0
 28 30  1  0  0  0  0
 28 29  2  0  0  0  0
 30 31  1  0  0  0  0
 31 41  1  6  0  0  0
 31 33  1  0  0  0  0
 32 34  2  0  0  0  0
 32 35  1  0  0  0  0
 33 32  1  0  0  0  0
 35 39  1  0  0  0  0
 36 38  2  0  0  0  0
 38 37  1  0  0  0  0
 39 37  2  0  0  0  0
 40 35  2  0  0  0  0
 40 36  1  0  0  0  0
 42 43  1  0  0  0  0
 43 41  1  0  0  0  0
M  END
>  <MODEL>
5

>  <REMARK>
 VINA RESULT:      -5.9      4.177      7.144
  Name = 
  13 active torsions:
  status: ('A' for Active; 'I' for Inactive)
    1  A    between atoms: C_1  and  N_28
    2  A    between atoms: C_1  and  C_34
    3  A    between atoms: N_2  and  C_6
    4  A    between atoms: N_2  and  O_13
    5  A    between atoms: C_3  and  C_4
    6  A    between atoms: C_3  and  C_12
    7  A    between atoms: C_4  and  C_15
    8  A    between atoms: C_4  and  N_22
    9  A    between atoms: C_6  and  C_12
   10  A    between atoms: C_11  and  C_14
   11  A    between atoms: O_13  and  C_38
   12  A    between atoms: C_15  and  C_42
   13  A    between atoms: N_28  and  C_35
                            x       y       z     vdW  Elec       q    Type
                         _______ _______ _______ _____ _____    ______ ____

>  <TORSDO>
F 13

$$$$
=
 OpenBabel11062410163D

 43 47  0  0  1  0  0  0  0  0999 V2000
  160.9600  202.0130  149.8370 C   0  0  0  0  0  0  0  0  0  0  0  0
  161.1810  206.9750  150.4590 N   0  0  0  0  0  0  0  0  0  0  0  0
  160.8640  204.4310  149.4860 C   0  0  2  0  0  3  0  0  0  0  0  0
  161.3340  202.1260  151.1170 C   0  0  0  0  0  3  0  0  0  0  0  0
  160.7850  200.6610  149.2470 C   0  0  0  0  0  1  0  0  0  0  0  0
  161.2810  204.6300  150.8980 C   0  0  0  0  0  0  0  0  0  0  0  0
  160.7160  203.2000  149.0000 C   0  0  0  0  0  3  0  0  0  0  0  0
  161.5380  203.4520  151.8040 C   0  0  0  0  0  3  0  0  0  0  0  0
  161.8210  206.3280  152.6700 C   0  0  0  0  0  2  0  0  0  0  0  0
  161.4190  205.8870  151.3230 C   0  0  0  0  0  0  0  0  0  0  0  0
  160.7720  206.7830  149.0990 C   0  0  0  0  0  3  0  0  0  0  0  0
  161.4030  208.2380  151.1290 C   0  0  1  0  0  3  0  0  0  0  0  0
  161.7560  207.8630  152.5820 C   0  0  1  0  0  3  0  0  0  0  0  0
  160.6230  205.5730  148.6430 N   0  0  0  0  0  0  0  0  0  0  0  0
  162.5790  208.9580  150.4900 C   0  0  0  0  0  2  0  0  0  0  0  0
  162.2850  209.2410  149.0950 N   0  0  0  0  0  2  0  0  0  0  0  0
  160.8820  212.3500  147.5540 C   0  0  0  0  0  3  0  0  0  0  0  0
  163.2270  212.6860  148.0490 C   0  0  0  0  0  3  0  0  0  0  0  0
  162.0170  213.1660  147.5420 C   0  0  0  0  0  0  0  0  0  0  0  0
  160.9600  211.0540  148.0720 C   0  0  0  0  0  3  0  0  0  0  0  0
  162.1750  210.5690  148.5800 C   0  0  0  0  0  0  0  0  0  0  0  0
  161.9420  214.4190  147.0370 F   0  0  0  0  0  0  0  0  0  0  0  0
  163.3070  211.3910  148.5650 C   0  0  0  0  0  3  0  0  0  0  0  0
  160.7520  208.3390  153.4560 O   0  0  0  0  0  0  0  0  0  0  0  0
  161.0260  207.9650  154.7510 N   0  0  0  0  0  0  0  0  0  0  0  0
  159.8410  207.4290  155.4200 C   0  0  0  0  0  1  0  0  0  0  0  0
  161.5810  209.0700  155.5340 C   0  0  0  0  0  2  0  0  0  0  0  0
  161.0070  210.3660  155.0740 C   0  0  0  0  0  0  0  0  0  0  0  0
  161.3310  210.8130  153.9910 O   0  0  0  0  0  0  0  0  0  0  0  0
  160.0530  211.1300  155.9390 C   0  0  0  0  0  2  0  0  0  0  0  0
  158.6930  211.3660  155.2740 C   0  0  2  0  0  3  0  0  0  0  0  0
  158.6680  211.7560  152.7780 C   0  0  0  0  0  0  0  0  0  0  0  0
  158.8330  212.2330  154.1140 N   0  0  0  0  0  2  0  0  0  0  0  0
  158.4480  210.5320  152.5660 O   0  0  0  0  0  0  0  0  0  0  0  0
  158.7770  212.6940  151.6510 C   0  0  0  0  0  0  0  0  0  0  0  0
  160.0350  214.2360  150.3110 C   0  0  0  0  0  3  0  0  0  0  0  0
  157.7660  213.8100  149.8220 C   0  0  0  0  0  3  0  0  0  0  0  0
  158.9300  214.4530  149.5530 N   0  0  0  0  0  0  0  0  0  0  0  0
  157.6950  212.9410  150.8630 N   0  0  0  0  0  0  0  0  0  0  0  0
  159.9810  213.3460  151.3810 C   0  0  0  0  0  3  0  0  0  0  0  0
  157.6740  211.9550  156.2410 C   0  0  0  0  0  2  0  0  0  0  0  0
  156.4850  213.7540  155.2090 O   0  0  0  0  0  1  0  0  0  0  0  0
  157.5500  213.4590  156.0640 C   0  0  0  0  0  2  0  0  0  0  0  0
  1  4  1  0  0  0  0
  2 12  1  0  0  0  0
  2 10  1  0  0  0  0
  3  7  1  6  0  0  0
  3  6  1  0  0  0  0
  4  8  2  0  0  0  0
  5  1  1  0  0  0  0
  6 10  2  0  0  0  0
  6  8  1  0  0  0  0
  7  1  2  0  0  0  0
 10  9  1  0  0  0  0
 11  2  1  0  0  0  0
 12 15  1  6  0  0  0
 12 13  1  0  0  0  0
 13  9  1  0  0  0  0
 13 24  1  1  0  0  0
 14 11  2  0  0  0  0
 14  3  1  0  0  0  0
 16 15  1  0  0  0  0
 17 20  1  0  0  0  0
 18 23  2  0  0  0  0
 19 17  2  0  0  0  0
 19 18  1  0  0  0  0
 20 21  2  0  0  0  0
 21 16  1  0  0  0  0
 22 19  1  0  0  0  0
 23 21  1  0  0  0  0
 24 25  1  0  0  0  0
 25 26  1  0  0  0  0
 25 27  1  0  0  0  0
 28 27  1  0  0  0  0
 28 30  1  0  0  0  0
 29 28  2  0  0  0  0
 31 30  1  1  0  0  0
 31 41  1  0  0  0  0
 32 33  1  0  0  0  0
 33 31  1  0  0  0  0
 34 32  2  0  0  0  0
 35 32  1  0  0  0  0
 36 40  2  0  0  0  0
 37 39  1  0  0  0  0
 38 37  2  0  0  0  0
 38 36  1  0  0  0  0
 39 35  2  0  0  0  0
 40 35  1  0  0  0  0
 42 43  1  0  0  0  0
 43 41  1  0  0  0  0
M  END
>  <MODEL>
6

>  <REMARK>
 VINA RESULT:      -5.9      3.789      6.697
  Name = 
  13 active torsions:
  status: ('A' for Active; 'I' for Inactive)
    1  A    between atoms: C_1  and  N_28
    2  A    between atoms: C_1  and  C_34
    3  A    between atoms: N_2  and  C_6
    4  A    between atoms: N_2  and  O_13
    5  A    between atoms: C_3  and  C_4
    6  A    between atoms: C_3  and  C_12
    7  A    between atoms: C_4  and  C_15
    8  A    between atoms: C_4  and  N_22
    9  A    between atoms: C_6  and  C_12
   10  A    between atoms: C_11  and  C_14
   11  A    between atoms: O_13  and  C_38
   12  A    between atoms: C_15  and  C_42
   13  A    between atoms: N_28  and  C_35
                            x       y       z     vdW  Elec       q    Type
                         _______ _______ _______ _____ _____    ______ ____

>  <TORSDO>
F 13

$$$$
=
 OpenBabel11062410163D

 43 47  0  0  1  0  0  0  0  0999 V2000
  161.0310  213.4740  146.6580 C   0  0  0  0  0  0  0  0  0  0  0  0
  158.9910  213.3550  151.2280 N   0  0  0  0  0  0  0  0  0  0  0  0
  159.5800  213.8350  148.5930 C   0  0  2  0  0  3  0  0  0  0  0  0
  161.8500  212.6460  147.3170 C   0  0  0  0  0  3  0  0  0  0  0  0
  161.3040  213.7850  145.2310 C   0  0  0  0  0  1  0  0  0  0  0  0
  160.4500  212.9290  149.3860 C   0  0  0  0  0  0  0  0  0  0  0  0
  159.8620  214.0830  147.3150 C   0  0  0  0  0  3  0  0  0  0  0  0
  161.6570  212.2710  148.7640 C   0  0  0  0  0  3  0  0  0  0  0  0
  160.8260  211.8770  151.6370 C   0  0  0  0  0  2  0  0  0  0  0  0
  160.1200  212.7260  150.6620 C   0  0  0  0  0  0  0  0  0  0  0  0
  158.1480  214.2240  150.4610 C   0  0  0  0  0  3  0  0  0  0  0  0
  158.8350  213.0000  152.6220 C   0  0  1  0  0  3  0  0  0  0  0  0
  159.9650  211.9930  152.9080 C   0  0  1  0  0  3  0  0  0  0  0  0
  158.4330  214.4480  149.2100 N   0  0  0  0  0  0  0  0  0  0  0  0
  159.0210  214.2340  153.4880 C   0  0  0  0  0  2  0  0  0  0  0  0
  157.9080  214.3610  154.4130 N   0  0  0  0  0  2  0  0  0  0  0  0
  156.8210  211.3170  156.3010 C   0  0  0  0  0  3  0  0  0  0  0  0
  155.1620  211.8580  154.6250 C   0  0  0  0  0  3  0  0  0  0  0  0
  155.6100  211.0370  155.6630 C   0  0  0  0  0  0  0  0  0  0  0  0
  157.5840  212.4180  155.9000 C   0  0  0  0  0  3  0  0  0  0  0  0
  157.1370  213.2430  154.8560 C   0  0  0  0  0  0  0  0  0  0  0  0
  154.8750  209.9690  156.0500 F   0  0  0  0  0  0  0  0  0  0  0  0
  155.9230  212.9560  154.2210 C   0  0  0  0  0  3  0  0  0  0  0  0
  159.4130  210.7290  153.2150 O   0  0  0  0  0  0  0  0  0  0  0  0
  160.1920  210.0770  154.1430 N   0  0  0  0  0  0  0  0  0  0  0  0
  160.8330  211.0160  155.0630 C   0  0  0  0  0  1  0  0  0  0  0  0
  161.2060  209.2310  153.5100 C   0  0  0  0  0  2  0  0  0  0  0  0
  161.2260  207.8860  154.1500 C   0  0  0  0  0  0  0  0  0  0  0  0
  161.7190  207.7570  155.2540 O   0  0  0  0  0  0  0  0  0  0  0  0
  160.6670  206.6920  153.4410 C   0  0  0  0  0  2  0  0  0  0  0  0
  160.9840  206.6790  151.9420 C   0  0  2  0  0  3  0  0  0  0  0  0
  160.7080  204.9610  150.1100 C   0  0  0  0  0  0  0  0  0  0  0  0
  161.0650  205.3130  151.4480 N   0  0  0  0  0  2  0  0  0  0  0  0
  160.2480  205.8370  149.3270 O   0  0  0  0  0  0  0  0  0  0  0  0
  160.8570  203.5700  149.6590 C   0  0  0  0  0  0  0  0  0  0  0  0
  161.2510  201.9470  147.9360 C   0  0  0  0  0  3  0  0  0  0  0  0
  160.8400  201.2530  150.1530 C   0  0  0  0  0  3  0  0  0  0  0  0
  161.1020  200.9600  148.8540 N   0  0  0  0  0  0  0  0  0  0  0  0
  160.7170  202.5480  150.5460 N   0  0  0  0  0  0  0  0  0  0  0  0
  161.1310  203.2800  148.3210 C   0  0  0  0  0  3  0  0  0  0  0  0
  162.2720  207.4250  151.6190 C   0  0  0  0  0  2  0  0  0  0  0  0
  162.7860  207.9800  149.3520 O   0  0  0  0  0  1  0  0  0  0  0  0
  162.0700  208.4040  150.4750 C   0  0  0  0  0  2  0  0  0  0  0  0
  1  7  2  0  0  0  0
  1  4  1  0  0  0  0
  2 12  1  0  0  0  0
  3  7  1  1  0  0  0
  3 14  1  0  0  0  0
  3  6  1  0  0  0  0
  4  8  2  0  0  0  0
  5  1  1  0  0  0  0
  6 10  2  0  0  0  0
  8  6  1  0  0  0  0
  9 13  1  0  0  0  0
 10  2  1  0  0  0  0
 10  9  1  0  0  0  0
 11  2  1  0  0  0  0
 12 13  1  0  0  0  0
 12 15  1  1  0  0  0
 13 24  1  6  0  0  0
 14 11  2  0  0  0  0
 15 16  1  0  0  0  0
 16 21  1  0  0  0  0
 18 19  1  0  0  0  0
 19 22  1  0  0  0  0
 19 17  2  0  0  0  0
 20 17  1  0  0  0  0
 21 20  2  0  0  0  0
 23 18  2  0  0  0  0
 23 21  1  0  0  0  0
 24 25  1  0  0  0  0
 25 26  1  0  0  0  0
 27 25  1  0  0  0  0
 27 28  1  0  0  0  0
 28 29  2  0  0  0  0
 30 28  1  0  0  0  0
 31 41  1  1  0  0  0
 31 30  1  0  0  0  0
 32 33  1  0  0  0  0
 33 31  1  0  0  0  0
 34 32  2  0  0  0  0
 35 32  1  0  0  0  0
 35 39  1  0  0  0  0
 36 40  1  0  0  0  0
 36 38  2  0  0  0  0
 37 39  2  0  0  0  0
 38 37  1  0  0  0  0
 40 35  2  0  0  0  0
 42 43  1  0  0  0  0
 43 41  1  0  0  0  0
M  END
>  <MODEL>
7

>  <REMARK>
 VINA RESULT:      -5.9      3.180      8.560
  Name = 
  13 active torsions:
  status: ('A' for Active; 'I' for Inactive)
    1  A    between atoms: C_1  and  N_28
    2  A    between atoms: C_1  and  C_34
    3  A    between atoms: N_2  and  C_6
    4  A    between atoms: N_2  and  O_13
    5  A    between atoms: C_3  and  C_4
    6  A    between atoms: C_3  and  C_12
    7  A    between atoms: C_4  and  C_15
    8  A    between atoms: C_4  and  N_22
    9  A    between atoms: C_6  and  C_12
   10  A    between atoms: C_11  and  C_14
   11  A    between atoms: O_13  and  C_38
   12  A    between atoms: C_15  and  C_42
   13  A    between atoms: N_28  and  C_35
                            x       y       z     vdW  Elec       q    Type
                         _______ _______ _______ _____ _____    ______ ____

>  <TORSDO>
F 13

$$$$
=
 OpenBabel11062410163D

 43 47  0  0  1  0  0  0  0  0999 V2000
  161.0870  203.1830  147.9640 C   0  0  0  0  0  0  0  0  0  0  0  0
  161.8030  207.4260  150.5220 N   0  0  0  0  0  0  0  0  0  0  0  0
  161.5510  204.8150  149.7250 C   0  0  0  0  0  0  0  0  0  0  0  0
  160.9050  204.1200  147.0250 C   0  0  0  0  0  3  0  0  0  0  0  0
  160.9500  201.7500  147.5990 C   0  0  0  0  0  1  0  0  0  0  0  0
  161.3580  205.9050  148.7360 C   0  0  0  0  0  0  0  0  0  0  0  0
  161.4210  203.5430  149.3520 C   0  0  0  0  0  3  0  0  0  0  0  0
  161.0210  205.5980  147.2980 C   0  0  0  0  0  2  0  0  0  0  0  0
  161.3510  208.3930  148.3820 C   0  0  0  0  0  2  0  0  0  0  0  0
  161.4940  207.1580  149.1720 C   0  0  0  0  0  0  0  0  0  0  0  0
  161.9950  206.3740  151.4750 C   0  0  0  0  0  3  0  0  0  0  0  0
  161.8890  208.8490  150.7690 C   0  0  1  0  0  3  0  0  0  0  0  0
  161.6670  209.5090  149.3950 C   0  0  1  0  0  3  0  0  0  0  0  0
  161.8740  205.1360  151.0910 N   0  0  0  0  0  0  0  0  0  0  0  0
  160.7820  209.2710  151.7210 C   0  0  0  0  0  2  0  0  0  0  0  0
  161.3590  209.8030  152.9440 N   0  0  0  0  0  2  0  0  0  0  0  0
  160.4490  212.1210  155.7390 C   0  0  0  0  0  3  0  0  0  0  0  0
  159.2570  212.7710  153.7350 C   0  0  0  0  0  3  0  0  0  0  0  0
  159.5470  212.9670  155.0880 C   0  0  0  0  0  0  0  0  0  0  0  0
  161.0570  211.0770  155.0370 C   0  0  0  0  0  3  0  0  0  0  0  0
  160.7670  210.8760  153.6790 C   0  0  0  0  0  0  0  0  0  0  0  0
  158.9550  213.9760  155.7690 F   0  0  0  0  0  0  0  0  0  0  0  0
  159.8620  211.7270  153.0340 C   0  0  0  0  0  3  0  0  0  0  0  0
  162.8410  210.1850  148.9920 O   0  0  0  0  0  0  0  0  0  0  0  0
  162.6680  211.5460  149.0860 N   0  0  0  0  0  0  0  0  0  0  0  0
  161.2640  211.8980  149.2920 C   0  0  0  0  0  1  0  0  0  0  0  0
  163.1890  212.2460  147.9110 C   0  0  0  0  0  2  0  0  0  0  0  0
  162.3720  213.4610  147.6330 C   0  0  0  0  0  0  0  0  0  0  0  0
  162.1560  214.2550  148.5280 O   0  0  0  0  0  0  0  0  0  0  0  0
  161.7990  213.7030  146.2710 C   0  0  0  0  0  2  0  0  0  0  0  0
  160.5930  212.8120  145.9580 C   0  0  2  0  0  3  0  0  0  0  0  0
  161.5140  212.5410  143.6210 C   0  0  0  0  0  0  0  0  0  0  0  0
  160.4130  212.6790  144.5200 N   0  0  0  0  0  2  0  0  0  0  0  0
  162.6970  212.5900  144.0580 O   0  0  0  0  0  0  0  0  0  0  0  0
  161.2630  212.3640  142.1840 C   0  0  0  0  0  0  0  0  0  0  0  0
  162.0370  212.0280  139.9380 C   0  0  0  0  0  3  0  0  0  0  0  0
  159.7300  212.2410  140.3820 C   0  0  0  0  0  3  0  0  0  0  0  0
  160.7520  212.0640  139.5060 N   0  0  0  0  0  0  0  0  0  0  0  0
  159.9890  212.3910  141.7070 N   0  0  0  0  0  0  0  0  0  0  0  0
  162.3220  212.1780  141.2930 C   0  0  0  0  0  3  0  0  0  0  0  0
  159.3110  213.3340  146.5940 C   0  0  0  0  0  2  0  0  0  0  0  0
  157.2680  212.1950  146.1020 O   0  0  0  0  0  1  0  0  0  0  0  0
  158.1300  213.1980  145.6490 C   0  0  0  0  0  2  0  0  0  0  0  0
  1  7  1  0  0  0  0
  2 12  1  0  0  0  0
  2 11  1  0  0  0  0
  3 14  1  0  0  0  0
  4  8  1  0  0  0  0
  4  1  2  0  0  0  0
  5  1  1  0  0  0  0
  6 10  2  0  0  0  0
  6  3  1  0  0  0  0
  7  3  2  0  0  0  0
  8  6  1  0  0  0  0
  9 10  1  0  0  0  0
  9 13  1  0  0  0  0
 10  2  1  0  0  0  0
 12 15  1  1  0  0  0
 13 24  1  6  0  0  0
 13 12  1  0  0  0  0
 14 11  2  0  0  0  0
 15 16  1  0  0  0  0
 16 21  1  0  0  0  0
 18 19  2  0  0  0  0
 19 17  1  0  0  0  0
 19 22  1  0  0  0  0
 20 17  2  0  0  0  0
 21 20  1  0  0  0  0
 23 21  2  0  0  0  0
 23 18  1  0  0  0  0
 24 25  1  0  0  0  0
 25 26  1  0  0  0  0
 27 25  1  0  0  0  0
 28 27  1  0  0  0  0
 28 29  2  0  0  0  0
 30 28  1  0  0  0  0
 31 30  1  6  0  0  0
 31 41  1  0  0  0  0
 32 34  2  0  0  0  0
 32 33  1  0  0  0  0
 33 31  1  0  0  0  0
 35 32  1  0  0  0  0
 36 40  1  0  0  0  0
 37 39  2  0  0  0  0
 38 36  2  0  0  0  0
 38 37  1  0  0  0  0
 39 35  1  0  0  0  0
 40 35  2  0  0  0  0
 43 42  1  0  0  0  0
 43 41  1  0  0  0  0
M  END
>  <MODEL>
8

>  <REMARK>
 VINA RESULT:      -5.4      1.601      1.896
  Name = 
  13 active torsions:
  status: ('A' for Active; 'I' for Inactive)
    1  A    between atoms: C_1  and  N_28
    2  A    between atoms: C_1  and  C_34
    3  A    between atoms: N_2  and  C_6
    4  A    between atoms: N_2  and  O_13
    5  A    between atoms: C_3  and  C_4
    6  A    between atoms: C_3  and  C_12
    7  A    between atoms: C_4  and  C_15
    8  A    between atoms: C_4  and  N_22
    9  A    between atoms: C_6  and  C_12
   10  A    between atoms: C_11  and  C_14
   11  A    between atoms: O_13  and  C_38
   12  A    between atoms: C_15  and  C_42
   13  A    between atoms: N_28  and  C_35
                            x       y       z     vdW  Elec       q    Type
                         _______ _______ _______ _____ _____    ______ ____

>  <TORSDO>
F 13

$$$$
=
 OpenBabel11062410163D

 43 47  0  0  1  0  0  0  0  0999 V2000
  159.6230  211.7470  156.1830 C   0  0  0  0  0  0  0  0  0  0  0  0
  160.6740  207.6210  153.5510 N   0  0  0  0  0  0  0  0  0  0  0  0
  159.8560  209.4280  155.4440 C   0  0  0  0  0  0  0  0  0  0  0  0
  160.1660  212.2480  155.0660 C   0  0  0  0  0  3  0  0  0  0  0  0
  159.1720  212.6740  157.2530 C   0  0  0  0  0  1  0  0  0  0  0  0
  160.4690  209.9150  154.1820 C   0  0  0  0  0  0  0  0  0  0  0  0
  159.4620  210.2960  156.3750 C   0  0  0  0  0  3  0  0  0  0  0  0
  160.6530  211.3900  153.9270 C   0  0  0  0  0  2  0  0  0  0  0  0
  161.4750  209.2370  151.9820 C   0  0  0  0  0  2  0  0  0  0  0  0
  160.8480  208.9960  153.2920 C   0  0  0  0  0  0  0  0  0  0  0  0
  160.0760  207.1510  154.7660 C   0  0  0  0  0  3  0  0  0  0  0  0
  161.1680  206.8130  152.4570 C   0  0  1  0  0  3  0  0  0  0  0  0
  161.6350  207.8240  151.3920 C   0  0  1  0  0  3  0  0  0  0  0  0
  159.6890  208.0150  155.6610 N   0  0  0  0  0  0  0  0  0  0  0  0
  162.3520  205.9840  152.9260 C   0  0  0  0  0  2  0  0  0  0  0  0
  162.7910  205.1020  151.8570 N   0  0  0  0  0  2  0  0  0  0  0  0
  160.4610  203.3460  149.5110 C   0  0  0  0  0  3  0  0  0  0  0  0
  160.9060  201.9230  151.4170 C   0  0  0  0  0  3  0  0  0  0  0  0
  160.2640  202.1450  150.1960 C   0  0  0  0  0  0  0  0  0  0  0  0
  161.3000  204.3270  150.0490 C   0  0  0  0  0  3  0  0  0  0  0  0
  161.9450  204.1080  151.2760 C   0  0  0  0  0  0  0  0  0  0  0  0
  159.4480  201.1980  149.6770 F   0  0  0  0  0  0  0  0  0  0  0  0
  161.7420  202.9020  151.9570 C   0  0  0  0  0  3  0  0  0  0  0  0
  160.8310  207.7070  150.2360 O   0  0  0  0  0  0  0  0  0  0  0  0
  161.6140  207.6960  149.1050 N   0  0  0  0  0  0  0  0  0  0  0  0
  161.9470  209.0510  148.6670 C   0  0  0  0  0  1  0  0  0  0  0  0
  160.9820  206.9610  148.0080 C   0  0  0  0  0  2  0  0  0  0  0  0
  162.0170  206.2730  147.1860 C   0  0  0  0  0  0  0  0  0  0  0  0
  162.9710  205.7560  147.7350 O   0  0  0  0  0  0  0  0  0  0  0  0
  161.9050  206.2320  145.6940 C   0  0  0  0  0  2  0  0  0  0  0  0
  160.8180  205.2730  145.1970 C   0  0  2  0  0  3  0  0  0  0  0  0
  160.3850  202.7850  145.1530 C   0  0  0  0  0  0  0  0  0  0  0  0
  161.0630  203.9240  145.6840 N   0  0  0  0  0  2  0  0  0  0  0  0
  159.4970  202.9320  144.2700 O   0  0  0  0  0  0  0  0  0  0  0  0
  160.7110  201.4430  145.6570 C   0  0  0  0  0  0  0  0  0  0  0  0
  161.5820  199.9860  147.3520 C   0  0  0  0  0  3  0  0  0  0  0  0
  160.7710  199.0980  145.3220 C   0  0  0  0  0  3  0  0  0  0  0  0
  161.3260  198.9230  146.5480 N   0  0  0  0  0  0  0  0  0  0  0  0
  160.4700  200.3480  144.8850 N   0  0  0  0  0  0  0  0  0  0  0  0
  161.2780  201.2740  146.9210 C   0  0  0  0  0  3  0  0  0  0  0  0
  160.7090  205.2640  143.6780 C   0  0  0  0  0  2  0  0  0  0  0  0
  161.6430  206.4480  141.8230 O   0  0  0  0  0  1  0  0  0  0  0  0
  161.9650  205.8220  143.0310 C   0  0  0  0  0  2  0  0  0  0  0  0
  1  7  1  0  0  0  0
  1  5  1  0  0  0  0
  2 11  1  0  0  0  0
  3 14  1  0  0  0  0
  3  7  2  0  0  0  0
  4  1  2  0  0  0  0
  6  3  1  0  0  0  0
  8  6  1  0  0  0  0
  8  4  1  0  0  0  0
  9 10  1  0  0  0  0
 10  2  1  0  0  0  0
 10  6  2  0  0  0  0
 11 14  2  0  0  0  0
 12 15  1  1  0  0  0
 12  2  1  0  0  0  0
 13 24  1  6  0  0  0
 13  9  1  0  0  0  0
 13 12  1  0  0  0  0
 16 15  1  0  0  0  0
 17 20  2  0  0  0  0
 17 19  1  0  0  0  0
 18 23  1  0  0  0  0
 19 18  2  0  0  0  0
 20 21  1  0  0  0  0
 21 16  1  0  0  0  0
 21 23  2  0  0  0  0
 22 19  1  0  0  0  0
 25 24  1  0  0  0  0
 26 25  1  0  0  0  0
 27 25  1  0  0  0  0
 28 29  2  0  0  0  0
 28 27  1  0  0  0  0
 30 28  1  0  0  0  0
 31 41  1  6  0  0  0
 31 33  1  0  0  0  0
 31 30  1  0  0  0  0
 32 35  1  0  0  0  0
 32 33  1  0  0  0  0
 34 32  2  0  0  0  0
 35 40  1  0  0  0  0
 37 38  2  0  0  0  0
 38 36  1  0  0  0  0
 39 37  1  0  0  0  0
 39 35  2  0  0  0  0
 40 36  2  0  0  0  0
 42 43  1  0  0  0  0
 43 41  1  0  0  0  0
M  END
>  <MODEL>
9

>  <REMARK>
 VINA RESULT:      -5.0      4.787      9.125
  Name = 
  13 active torsions:
  status: ('A' for Active; 'I' for Inactive)
    1  A    between atoms: C_1  and  N_28
    2  A    between atoms: C_1  and  C_34
    3  A    between atoms: N_2  and  C_6
    4  A    between atoms: N_2  and  O_13
    5  A    between atoms: C_3  and  C_4
    6  A    between atoms: C_3  and  C_12
    7  A    between atoms: C_4  and  C_15
    8  A    between atoms: C_4  and  N_22
    9  A    between atoms: C_6  and  C_12
   10  A    between atoms: C_11  and  C_14
   11  A    between atoms: O_13  and  C_38
   12  A    between atoms: C_15  and  C_42
   13  A    between atoms: N_28  and  C_35
                            x       y       z     vdW  Elec       q    Type
                         _______ _______ _______ _____ _____    ______ ____

>  <TORSDO>
F 13

$$$$
