=
 OpenBabel11062409253D

 37 41  0  0  1  0  0  0  0  0999 V2000
  161.4480  207.8450  151.5350 C   0  0  1  0  0  3  0  0  0  0  0  0
  161.7700  204.3720  151.2940 C   0  0  2  0  0  3  0  0  0  0  0  0
  161.2570  204.0120  152.6280 C   0  0  0  0  0  2  0  0  0  0  0  0
  161.5490  206.1610  153.3250 C   0  0  0  0  0  2  0  0  0  0  0  0
  160.9930  205.4310  152.0960 C   0  0  2  0  0  0  0  0  0  0  0  0
  162.0700  206.5230  151.9970 C   0  0  1  0  0  3  0  0  0  0  0  0
  160.9230  203.7970  150.1440 C   0  0  2  0  0  3  0  0  0  0  0  0
  159.7690  204.5470  149.8840 O   0  0  0  0  0  1  0  0  0  0  0  0
  161.1900  201.5000  149.6200 O   0  0  0  0  0  0  0  0  0  0  0  0
  160.5310  202.3680  150.4640 C   0  0  0  0  0  3  0  0  0  0  0  0
  159.9080  201.8060  149.3720 O   0  0  0  0  0  0  0  0  0  0  0  0
  162.6650  210.0250  152.1510 C   0  0  0  0  0  1  0  0  0  0  0  0
  161.6790  208.9390  152.5890 C   0  0  1  0  0  3  0  0  0  0  0  0
  160.4180  209.4430  153.1650 N   0  0  0  0  0  0  0  0  0  0  0  0
  161.4710  208.8570  155.1710 O   0  0  0  0  0  0  0  0  0  0  0  0
  160.6200  209.8030  154.5680 C   0  0  2  0  0  3  0  0  0  0  0  0
  160.0990  208.7370  155.4540 C   0  0  0  0  0  2  0  0  0  0  0  0
  159.7930  210.5320  152.3880 C   0  0  0  0  0  2  0  0  0  0  0  0
  158.1660  212.1380  152.9820 O   0  0  0  0  0  0  0  0  0  0  0  0
  159.2610  211.6590  153.2270 C   0  0  0  0  0  3  0  0  0  0  0  0
  161.9030  208.2950  150.1320 C   0  0  1  0  0  3  0  0  0  0  0  0
  161.1230  207.7560  149.0990 O   0  0  0  0  0  0  0  0  0  0  0  0
  163.2600  207.0060  148.7970 O   0  0  0  0  0  1  0  0  0  0  0  0
  162.0410  207.2650  148.1670 C   0  0  1  0  0  3  0  0  0  0  0  0
  162.4890  205.4610  146.4250 C   0  0  1  0  0  3  0  0  0  0  0  0
  160.5500  205.5030  144.7790 C   0  0  0  0  0  2  0  0  0  0  0  0
  160.1660  206.1190  147.0800 O   0  0  0  0  0  0  0  0  0  0  0  0
  161.7560  204.7080  145.3010 C   0  0  2  0  0  3  0  0  0  0  0  0
  161.5190  205.9910  147.5010 C   0  0  2  0  0  3  0  0  0  0  0  0
  160.1240  206.6000  145.7570 C   0  0  0  0  0  2  0  0  0  0  0  0
  163.4880  204.6750  147.0020 O   0  0  0  0  0  1  0  0  0  0  0  0
  160.5570  202.5700  144.8300 O   0  0  0  0  0  0  0  0  0  0  0  0
  161.6920  202.8320  146.8030 O   0  0  0  0  0  1  0  0  0  0  0  0
  161.3410  203.3210  145.6960 C   0  0  0  0  0  0  0  0  0  0  0  0
  161.9930  209.8160  150.0230 C   0  0  0  0  0  2  0  0  0  0  0  0
  161.9440  210.2960  148.5840 C   0  0  0  0  0  2  0  0  0  0  0  0
  162.2170  211.7840  148.5400 C   0  0  0  0  0  1  0  0  0  0  0  0
  1 21  1  6  0  0  0
  1 13  1  0  0  0  0
  2  7  1  6  0  0  0
  2  5  1  0  0  0  0
  2  3  1  0  0  0  0
  5  3  1  1  0  0  0
  5  4  1  0  0  0  0
  6  1  1  6  0  0  0
  6  5  1  0  0  0  0
  6  4  1  0  0  0  0
  7  8  1  1  0  0  0
  7 10  1  0  0  0  0
  9 10  1  0  0  0  0
 11  9  1  0  0  0  0
 11 10  1  0  0  0  0
 13 12  1  6  0  0  0
 13 14  1  0  0  0  0
 15 17  1  0  0  0  0
 16 14  1  6  0  0  0
 16 15  1  0  0  0  0
 16 17  1  0  0  0  0
 18 14  1  0  0  0  0
 18 20  1  0  0  0  0
 19 20  2  0  0  0  0
 21 35  1  1  0  0  0
 22 21  1  0  0  0  0
 24 23  1  1  0  0  0
 24 22  1  0  0  0  0
 25 31  1  1  0  0  0
 25 29  1  0  0  0  0
 26 28  1  0  0  0  0
 26 30  1  0  0  0  0
 27 29  1  0  0  0  0
 28 34  1  1  0  0  0
 28 25  1  0  0  0  0
 29 24  1  6  0  0  0
 30 27  1  0  0  0  0
 32 34  2  0  0  0  0
 34 33  1  0  0  0  0
 36 35  1  0  0  0  0
 37 36  1  0  0  0  0
M  END
>  <MODEL>
1

>  <REMARK>
 VINA RESULT:      -6.5      0.000      0.000
  Name = 
  15 active torsions:
  status: ('A' for Active; 'I' for Inactive)
    1  A    between atoms: C_1  and  C_5
    2  A    between atoms: C_5  and  C_26
    3  A    between atoms: C_8  and  C_19
    4  A    between atoms: N_9  and  C_13
    5  A    between atoms: N_9  and  C_16
    6  A    between atoms: N_9  and  C_30
    7  A    between atoms: O_10  and  C_29
    8  A    between atoms: O_10  and  C_37
    9  A    between atoms: C_13  and  C_20
   10  A    between atoms: C_14  and  C_37
   11  A    between atoms: C_16  and  C_24
   12  A    between atoms: C_20  and  C_25
   13  A    between atoms: C_20  and  C_29
   14  A    between atoms: C_27  and  C_33
   15  A    between atoms: C_29  and  C_33
                            x       y       z     vdW  Elec       q    Type
                         _______ _______ _______ _____ _____    ______ ____

>  <TORSDO>
F 15

$$$$
=
 OpenBabel11062409253D

 37 41  0  0  1  0  0  0  0  0999 V2000
  159.5920  211.1070  154.2120 C   0  0  1  0  0  3  0  0  0  0  0  0
  159.2230  212.5160  151.0340 C   0  0  2  0  0  3  0  0  0  0  0  0
  158.2440  213.5660  151.3740 C   0  0  0  0  0  2  0  0  0  0  0  0
  157.7650  212.4950  153.3250 C   0  0  0  0  0  2  0  0  0  0  0  0
  159.0100  212.8770  152.5150 C   0  0  2  0  0  0  0  0  0  0  0  0
  158.7350  211.4400  152.9870 C   0  0  1  0  0  3  0  0  0  0  0  0
  160.5520  213.0780  150.4980 C   0  0  2  0  0  3  0  0  0  0  0  0
  160.5010  214.4530  150.2360 O   0  0  0  0  0  1  0  0  0  0  0  0
  162.2220  211.8330  149.3650 O   0  0  0  0  0  0  0  0  0  0  0  0
  160.9470  212.3400  149.2340 C   0  0  0  0  0  3  0  0  0  0  0  0
  162.0340  212.9580  148.6600 O   0  0  0  0  0  0  0  0  0  0  0  0
  159.1550  209.5370  156.2020 C   0  0  0  0  0  1  0  0  0  0  0  0
  158.6970  210.7670  155.4130 C   0  0  1  0  0  3  0  0  0  0  0  0
  158.3840  211.9500  156.2370 N   0  0  0  0  0  0  0  0  0  0  0  0
  156.0880  211.5090  156.1170 O   0  0  0  0  0  0  0  0  0  0  0  0
  157.1620  211.7130  157.0050 C   0  0  2  0  0  3  0  0  0  0  0  0
  156.1650  212.7730  156.7290 C   0  0  0  0  0  2  0  0  0  0  0  0
  159.5030  212.4070  157.0850 C   0  0  0  0  0  2  0  0  0  0  0  0
  159.6050  214.4530  155.9090 O   0  0  0  0  0  0  0  0  0  0  0  0
  159.8070  213.8740  156.9630 C   0  0  0  0  0  3  0  0  0  0  0  0
  160.6500  210.0140  153.9570 C   0  0  1  0  0  3  0  0  0  0  0  0
  160.5370  209.4190  152.6940 O   0  0  0  0  0  0  0  0  0  0  0  0
  160.6360  207.5160  153.9530 O   0  0  0  0  0  1  0  0  0  0  0  0
  161.1410  208.1660  152.8250 C   0  0  1  0  0  3  0  0  0  0  0  0
  161.9170  206.1520  151.4710 C   0  0  1  0  0  3  0  0  0  0  0  0
  162.4880  206.9850  149.1370 C   0  0  0  0  0  2  0  0  0  0  0  0
  160.7600  208.0970  150.4040 O   0  0  0  0  0  0  0  0  0  0  0  0
  162.1940  205.7570  150.0110 C   0  0  2  0  0  3  0  0  0  0  0  0
  160.9030  207.3100  151.5800 C   0  0  2  0  0  3  0  0  0  0  0  0
  162.0200  208.2830  149.8020 C   0  0  0  0  0  2  0  0  0  0  0  0
  161.5010  205.0550  152.2290 O   0  0  0  0  0  1  0  0  0  0  0  0
  160.3360  204.1040  150.2210 O   0  0  0  0  0  1  0  0  0  0  0  0
  160.8610  204.9780  148.1690 O   0  0  0  0  0  0  0  0  0  0  0  0
  161.0970  204.9320  149.4060 C   0  0  0  0  0  0  0  0  0  0  0  0
  162.0690  210.5270  154.2050 C   0  0  0  0  0  2  0  0  0  0  0  0
  162.2600  211.0370  155.6210 C   0  0  0  0  0  2  0  0  0  0  0  0
  162.7080  209.8980  156.5100 C   0  0  0  0  0  1  0  0  0  0  0  0
  1 21  1  6  0  0  0
  1 13  1  0  0  0  0
  2  7  1  6  0  0  0
  2  3  1  0  0  0  0
  2  5  1  0  0  0  0
  5  3  1  6  0  0  0
  5  6  1  0  0  0  0
  5  4  1  0  0  0  0
  6  4  1  0  0  0  0
  6  1  1  1  0  0  0
  7  8  1  6  0  0  0
 10  9  1  0  0  0  0
 10  7  1  0  0  0  0
 11 10  1  0  0  0  0
 11  9  1  0  0  0  0
 13 12  1  1  0  0  0
 13 14  1  0  0  0  0
 14 18  1  0  0  0  0
 15 17  1  0  0  0  0
 15 16  1  0  0  0  0
 16 14  1  6  0  0  0
 17 16  1  0  0  0  0
 19 20  2  0  0  0  0
 20 18  1  0  0  0  0
 21 35  1  6  0  0  0
 22 24  1  0  0  0  0
 22 21  1  0  0  0  0
 24 23  1  1  0  0  0
 25 29  1  0  0  0  0
 25 31  1  1  0  0  0
 26 30  1  0  0  0  0
 26 28  1  0  0  0  0
 27 29  1  0  0  0  0
 28 34  1  6  0  0  0
 28 25  1  0  0  0  0
 29 24  1  1  0  0  0
 30 27  1  0  0  0  0
 33 34  2  0  0  0  0
 34 32  1  0  0  0  0
 35 36  1  0  0  0  0
 36 37  1  0  0  0  0
M  END
>  <MODEL>
2

>  <REMARK>
 VINA RESULT:      -5.8      2.750      6.446
  Name = 
  15 active torsions:
  status: ('A' for Active; 'I' for Inactive)
    1  A    between atoms: C_1  and  C_5
    2  A    between atoms: C_5  and  C_26
    3  A    between atoms: C_8  and  C_19
    4  A    between atoms: N_9  and  C_13
    5  A    between atoms: N_9  and  C_16
    6  A    between atoms: N_9  and  C_30
    7  A    between atoms: O_10  and  C_29
    8  A    between atoms: O_10  and  C_37
    9  A    between atoms: C_13  and  C_20
   10  A    between atoms: C_14  and  C_37
   11  A    between atoms: C_16  and  C_24
   12  A    between atoms: C_20  and  C_25
   13  A    between atoms: C_20  and  C_29
   14  A    between atoms: C_27  and  C_33
   15  A    between atoms: C_29  and  C_33
                            x       y       z     vdW  Elec       q    Type
                         _______ _______ _______ _____ _____    ______ ____

>  <TORSDO>
F 15

$$$$
=
 OpenBabel11062409253D

 37 41  0  0  1  0  0  0  0  0999 V2000
  161.0110  210.1580  153.7690 C   0  0  1  0  0  3  0  0  0  0  0  0
  158.4130  212.0270  152.3610 C   0  0  2  0  0  3  0  0  0  0  0  0
  157.5680  212.1640  153.5610 C   0  0  0  0  0  2  0  0  0  0  0  0
  158.7020  210.4590  154.5590 C   0  0  0  0  0  2  0  0  0  0  0  0
  159.0280  211.7120  153.7370 C   0  0  2  0  0  0  0  0  0  0  0  0
  159.5430  210.3130  153.3600 C   0  0  1  0  0  3  0  0  0  0  0  0
  158.9110  213.3770  151.8130 C   0  0  2  0  0  3  0  0  0  0  0  0
  158.0850  214.4520  152.1690 O   0  0  0  0  0  1  0  0  0  0  0  0
  160.3460  213.3300  149.9260 O   0  0  0  0  0  0  0  0  0  0  0  0
  159.0200  213.3070  150.3030 C   0  0  0  0  0  3  0  0  0  0  0  0
  159.6200  214.4530  149.8310 O   0  0  0  0  0  0  0  0  0  0  0  0
  161.5150  208.5100  155.6770 C   0  0  0  0  0  1  0  0  0  0  0  0
  161.1230  209.9370  155.2850 C   0  0  1  0  0  3  0  0  0  0  0  0
  161.8970  210.9990  155.9550 N   0  0  0  0  0  0  0  0  0  0  0  0
  159.9130  211.1110  157.1930 O   0  0  0  0  0  0  0  0  0  0  0  0
  161.3080  211.2960  157.2600 C   0  0  2  0  0  3  0  0  0  0  0  0
  160.3720  212.4400  157.1560 C   0  0  0  0  0  2  0  0  0  0  0  0
  163.3450  210.7260  156.0380 C   0  0  0  0  0  2  0  0  0  0  0  0
  165.3150  211.6760  156.9340 O   0  0  0  0  0  0  0  0  0  0  0  0
  164.0950  211.6610  156.9460 C   0  0  0  0  0  3  0  0  0  0  0  0
  161.7710  209.0770  152.9730 C   0  0  1  0  0  3  0  0  0  0  0  0
  160.9350  208.0710  152.4700 O   0  0  0  0  0  0  0  0  0  0  0  0
  160.8690  206.1090  153.6380 O   0  0  0  0  0  1  0  0  0  0  0  0
  161.6060  206.8730  152.7320 C   0  0  1  0  0  3  0  0  0  0  0  0
  160.6060  206.1270  150.5110 C   0  0  1  0  0  3  0  0  0  0  0  0
  160.6340  203.5840  150.4850 C   0  0  0  0  0  2  0  0  0  0  0  0
  162.3470  204.7780  151.6960 O   0  0  0  0  0  0  0  0  0  0  0  0
  160.4830  204.8620  149.6460 C   0  0  2  0  0  3  0  0  0  0  0  0
  161.8330  206.0800  151.4440 C   0  0  2  0  0  3  0  0  0  0  0  0
  161.2810  203.8690  151.8430 C   0  0  0  0  0  2  0  0  0  0  0  0
  160.6220  207.2840  149.7280 O   0  0  0  0  0  1  0  0  0  0  0  0
  161.8000  203.6330  147.9170 O   0  0  0  0  0  0  0  0  0  0  0  0
  161.9150  205.9180  148.0290 O   0  0  0  0  0  1  0  0  0  0  0  0
  161.4370  204.8460  148.4880 C   0  0  0  0  0  0  0  0  0  0  0  0
  162.6350  209.6840  151.8690 C   0  0  0  0  0  2  0  0  0  0  0  0
  161.9390  209.6770  150.5210 C   0  0  0  0  0  2  0  0  0  0  0  0
  162.1950  210.9910  149.8150 C   0  0  0  0  0  1  0  0  0  0  0  0
  1 21  1  6  0  0  0
  1 13  1  0  0  0  0
  2  7  1  1  0  0  0
  2  3  1  0  0  0  0
  2  5  1  0  0  0  0
  5  3  1  6  0  0  0
  5  4  1  0  0  0  0
  6  5  1  0  0  0  0
  6  1  1  1  0  0  0
  6  4  1  0  0  0  0
  7  8  1  6  0  0  0
  9 10  1  0  0  0  0
 10  7  1  0  0  0  0
 11  9  1  0  0  0  0
 11 10  1  0  0  0  0
 13 12  1  6  0  0  0
 13 14  1  0  0  0  0
 14 18  1  0  0  0  0
 15 16  1  0  0  0  0
 16 14  1  6  0  0  0
 17 15  1  0  0  0  0
 17 16  1  0  0  0  0
 18 20  1  0  0  0  0
 19 20  2  0  0  0  0
 21 35  1  6  0  0  0
 22 24  1  0  0  0  0
 22 21  1  0  0  0  0
 24 23  1  1  0  0  0
 25 31  1  6  0  0  0
 25 29  1  0  0  0  0
 26 30  1  0  0  0  0
 27 30  1  0  0  0  0
 28 34  1  6  0  0  0
 28 26  1  0  0  0  0
 28 25  1  0  0  0  0
 29 27  1  0  0  0  0
 29 24  1  1  0  0  0
 32 34  2  0  0  0  0
 33 34  1  0  0  0  0
 36 35  1  0  0  0  0
 37 36  1  0  0  0  0
M  END
>  <MODEL>
3

>  <REMARK>
 VINA RESULT:      -5.7      2.440      6.144
  Name = 
  15 active torsions:
  status: ('A' for Active; 'I' for Inactive)
    1  A    between atoms: C_1  and  C_5
    2  A    between atoms: C_5  and  C_26
    3  A    between atoms: C_8  and  C_19
    4  A    between atoms: N_9  and  C_13
    5  A    between atoms: N_9  and  C_16
    6  A    between atoms: N_9  and  C_30
    7  A    between atoms: O_10  and  C_29
    8  A    between atoms: O_10  and  C_37
    9  A    between atoms: C_13  and  C_20
   10  A    between atoms: C_14  and  C_37
   11  A    between atoms: C_16  and  C_24
   12  A    between atoms: C_20  and  C_25
   13  A    between atoms: C_20  and  C_29
   14  A    between atoms: C_27  and  C_33
   15  A    between atoms: C_29  and  C_33
                            x       y       z     vdW  Elec       q    Type
                         _______ _______ _______ _____ _____    ______ ____

>  <TORSDO>
F 15

$$$$
=
 OpenBabel11062409253D

 37 41  0  0  1  0  0  0  0  0999 V2000
  161.5820  208.9980  150.6730 C   0  0  1  0  0  3  0  0  0  0  0  0
  161.5620  212.1650  149.1920 C   0  0  2  0  0  3  0  0  0  0  0  0
  161.9390  211.7680  147.8230 C   0  0  0  0  0  2  0  0  0  0  0  0
  162.6730  209.7580  148.6030 C   0  0  0  0  0  2  0  0  0  0  0  0
  161.4630  210.6800  148.8000 C   0  0  2  0  0  0  0  0  0  0  0  0
  162.3050  210.1530  149.9730 C   0  0  1  0  0  3  0  0  0  0  0  0
  160.1730  212.8240  149.2690 C   0  0  2  0  0  3  0  0  0  0  0  0
  159.5870  213.0220  148.0120 O   0  0  0  0  0  1  0  0  0  0  0  0
  160.0850  213.9750  151.3410 O   0  0  0  0  0  0  0  0  0  0  0  0
  160.2780  214.1560  149.9880 C   0  0  0  0  0  3  0  0  0  0  0  0
  159.0770  214.4480  150.5940 O   0  0  0  0  0  0  0  0  0  0  0  0
  163.0100  206.9200  151.1780 C   0  0  0  0  0  1  0  0  0  0  0  0
  162.1190  207.6500  150.1690 C   0  0  1  0  0  3  0  0  0  0  0  0
  161.0680  206.8170  149.5550 N   0  0  0  0  0  0  0  0  0  0  0  0
  161.9330  207.1980  147.4130 O   0  0  0  0  0  0  0  0  0  0  0  0
  161.5760  206.1930  148.3340 C   0  0  2  0  0  3  0  0  0  0  0  0
  160.7130  206.5380  147.1800 C   0  0  0  0  0  2  0  0  0  0  0  0
  160.4590  205.8380  150.4770 C   0  0  0  0  0  2  0  0  0  0  0  0
  160.4520  203.5190  150.9290 O   0  0  0  0  0  0  0  0  0  0  0  0
  160.9580  204.4320  150.2970 C   0  0  0  0  0  3  0  0  0  0  0  0
  161.6060  209.0860  152.2120 C   0  0  1  0  0  3  0  0  0  0  0  0
  161.6390  210.4030  152.6900 O   0  0  0  0  0  0  0  0  0  0  0  0
  162.6930  210.4050  154.7160 O   0  0  0  0  0  1  0  0  0  0  0  0
  161.4590  210.2960  154.0720 C   0  0  1  0  0  3  0  0  0  0  0  0
  159.5850  210.8470  155.7070 C   0  0  1  0  0  3  0  0  0  0  0  0
  157.5980  211.6490  154.3370 C   0  0  0  0  0  2  0  0  0  0  0  0
  159.8370  212.0520  153.5290 O   0  0  0  0  0  0  0  0  0  0  0  0
  158.2290  211.5710  155.7350 C   0  0  2  0  0  3  0  0  0  0  0  0
  160.5050  211.3740  154.5860 C   0  0  2  0  0  3  0  0  0  0  0  0
  158.6280  211.3930  153.2330 C   0  0  0  0  0  2  0  0  0  0  0  0
  160.2270  210.9100  156.9460 O   0  0  0  0  0  1  0  0  0  0  0  0
  159.4360  213.7130  156.1650 O   0  0  0  0  0  0  0  0  0  0  0  0
  157.3500  213.3800  157.0520 O   0  0  0  0  0  1  0  0  0  0  0  0
  158.3020  212.9340  156.3570 C   0  0  0  0  0  0  0  0  0  0  0  0
  160.4620  208.2950  152.8450 C   0  0  0  0  0  2  0  0  0  0  0  0
  160.9580  207.1290  153.6800 C   0  0  0  0  0  2  0  0  0  0  0  0
  160.3400  207.1980  155.0590 C   0  0  0  0  0  1  0  0  0  0  0  0
  1 13  1  1  0  0  0
  1 21  1  0  0  0  0
  2  7  1  6  0  0  0
  3  2  1  0  0  0  0
  4  5  1  0  0  0  0
  4  6  1  0  0  0  0
  5  3  1  1  0  0  0
  5  2  1  0  0  0  0
  5  6  1  0  0  0  0
  6  1  1  1  0  0  0
  7  8  1  6  0  0  0
  7 10  1  0  0  0  0
 10 11  1  0  0  0  0
 10  9  1  0  0  0  0
 11  9  1  0  0  0  0
 13 12  1  1  0  0  0
 14 13  1  0  0  0  0
 14 18  1  0  0  0  0
 15 16  1  0  0  0  0
 16 14  1  1  0  0  0
 17 15  1  0  0  0  0
 17 16  1  0  0  0  0
 20 18  1  0  0  0  0
 20 19  2  0  0  0  0
 21 22  1  0  0  0  0
 21 35  1  1  0  0  0
 22 24  1  0  0  0  0
 24 23  1  1  0  0  0
 25 28  1  0  0  0  0
 25 31  1  1  0  0  0
 26 28  1  0  0  0  0
 27 29  1  0  0  0  0
 28 34  1  6  0  0  0
 29 24  1  6  0  0  0
 29 25  1  0  0  0  0
 30 27  1  0  0  0  0
 30 26  1  0  0  0  0
 32 34  2  0  0  0  0
 34 33  1  0  0  0  0
 35 36  1  0  0  0  0
 36 37  1  0  0  0  0
M  END
>  <MODEL>
4

>  <REMARK>
 VINA RESULT:      -5.5      2.323      9.032
  Name = 
  15 active torsions:
  status: ('A' for Active; 'I' for Inactive)
    1  A    between atoms: C_1  and  C_5
    2  A    between atoms: C_5  and  C_26
    3  A    between atoms: C_8  and  C_19
    4  A    between atoms: N_9  and  C_13
    5  A    between atoms: N_9  and  C_16
    6  A    between atoms: N_9  and  C_30
    7  A    between atoms: O_10  and  C_29
    8  A    between atoms: O_10  and  C_37
    9  A    between atoms: C_13  and  C_20
   10  A    between atoms: C_14  and  C_37
   11  A    between atoms: C_16  and  C_24
   12  A    between atoms: C_20  and  C_25
   13  A    between atoms: C_20  and  C_29
   14  A    between atoms: C_27  and  C_33
   15  A    between atoms: C_29  and  C_33
                            x       y       z     vdW  Elec       q    Type
                         _______ _______ _______ _____ _____    ______ ____

>  <TORSDO>
F 15

$$$$
=
 OpenBabel11062409253D

 37 41  0  0  1  0  0  0  0  0999 V2000
  161.9670  205.9880  149.5720 C   0  0  1  0  0  3  0  0  0  0  0  0
  161.3000  202.7690  150.7610 C   0  0  2  0  0  3  0  0  0  0  0  0
  160.4400  203.1320  151.9020 C   0  0  0  0  0  2  0  0  0  0  0  0
  161.1980  205.2770  151.7980 C   0  0  0  0  0  2  0  0  0  0  0  0
  160.7190  204.1930  150.8240 C   0  0  2  0  0  0  0  0  0  0  0  0
  162.0650  204.9180  150.6630 C   0  0  1  0  0  3  0  0  0  0  0  0
  160.5780  201.9080  149.7090 C   0  0  2  0  0  3  0  0  0  0  0  0
  160.2810  200.6170  150.1660 O   0  0  0  0  0  1  0  0  0  0  0  0
  160.6160  201.7090  147.3460 O   0  0  0  0  0  0  0  0  0  0  0  0
  161.4270  201.8140  148.4560 C   0  0  0  0  0  3  0  0  0  0  0  0
  161.2000  200.6060  147.8360 O   0  0  0  0  0  0  0  0  0  0  0  0
  159.5920  206.5870  148.7890 C   0  0  0  0  0  1  0  0  0  0  0  0
  160.8070  205.6710  148.6160 C   0  0  1  0  0  3  0  0  0  0  0  0
  161.2570  205.4940  147.2220 N   0  0  0  0  0  0  0  0  0  0  0  0
  159.5710  206.0190  145.6860 O   0  0  0  0  0  0  0  0  0  0  0  0
  160.6830  206.5400  146.3760 C   0  0  2  0  0  3  0  0  0  0  0  0
  160.7620  206.1510  144.9490 C   0  0  0  0  0  2  0  0  0  0  0  0
  162.7210  205.3860  147.0710 C   0  0  0  0  0  2  0  0  0  0  0  0
  162.7000  203.5760  145.5530 O   0  0  0  0  0  0  0  0  0  0  0  0
  163.1590  204.6740  145.8220 C   0  0  0  0  0  3  0  0  0  0  0  0
  161.8860  207.4300  150.1150 C   0  0  1  0  0  3  0  0  0  0  0  0
  162.2200  207.5280  151.4720 O   0  0  0  0  0  0  0  0  0  0  0  0
  160.3330  208.8060  151.6220 O   0  0  0  0  0  1  0  0  0  0  0  0
  161.7020  208.7590  151.8870 C   0  0  1  0  0  3  0  0  0  0  0  0
  160.8030  208.4340  154.2490 C   0  0  1  0  0  3  0  0  0  0  0  0
  160.6190  210.7380  155.3100 C   0  0  0  0  0  2  0  0  0  0  0  0
  162.3350  210.3240  153.6650 O   0  0  0  0  0  0  0  0  0  0  0  0
  160.6370  209.2220  155.5580 C   0  0  2  0  0  3  0  0  0  0  0  0
  161.9530  208.9840  153.3790 C   0  0  2  0  0  3  0  0  0  0  0  0
  161.1900  211.0960  153.9350 C   0  0  0  0  0  2  0  0  0  0  0  0
  160.9720  207.0690  154.4890 O   0  0  0  0  0  1  0  0  0  0  0  0
  161.5770  207.6570  157.2600 O   0  0  0  0  0  1  0  0  0  0  0  0
  162.6070  209.6640  156.8630 O   0  0  0  0  0  0  0  0  0  0  0  0
  161.6660  208.8700  156.5920 C   0  0  0  0  0  0  0  0  0  0  0  0
  162.7070  208.4030  149.2700 C   0  0  0  0  0  2  0  0  0  0  0  0
  161.8340  209.2990  148.4100 C   0  0  0  0  0  2  0  0  0  0  0  0
  162.0730  210.7450  148.7860 C   0  0  0  0  0  1  0  0  0  0  0  0
  1 13  1  1  0  0  0
  1 21  1  0  0  0  0
  2  7  1  6  0  0  0
  2  5  1  0  0  0  0
  2  3  1  0  0  0  0
  5  4  1  6  0  0  0
  5  3  1  0  0  0  0
  6  1  1  6  0  0  0
  6  5  1  0  0  0  0
  6  4  1  0  0  0  0
  7  8  1  1  0  0  0
  9 11  1  0  0  0  0
  9 10  1  0  0  0  0
 10  7  1  0  0  0  0
 11 10  1  0  0  0  0
 13 12  1  6  0  0  0
 14 13  1  0  0  0  0
 15 16  1  0  0  0  0
 16 14  1  1  0  0  0
 17 15  1  0  0  0  0
 17 16  1  0  0  0  0
 18 14  1  0  0  0  0
 19 20  2  0  0  0  0
 20 18  1  0  0  0  0
 21 35  1  6  0  0  0
 21 22  1  0  0  0  0
 22 24  1  0  0  0  0
 24 23  1  1  0  0  0
 25 31  1  1  0  0  0
 25 28  1  0  0  0  0
 26 28  1  0  0  0  0
 27 30  1  0  0  0  0
 28 34  1  1  0  0  0
 29 24  1  6  0  0  0
 29 27  1  0  0  0  0
 29 25  1  0  0  0  0
 30 26  1  0  0  0  0
 34 33  2  0  0  0  0
 34 32  1  0  0  0  0
 36 37  1  0  0  0  0
 36 35  1  0  0  0  0
M  END
>  <MODEL>
5

>  <REMARK>
 VINA RESULT:      -5.3      2.121      7.225
  Name = 
  15 active torsions:
  status: ('A' for Active; 'I' for Inactive)
    1  A    between atoms: C_1  and  C_5
    2  A    between atoms: C_5  and  C_26
    3  A    between atoms: C_8  and  C_19
    4  A    between atoms: N_9  and  C_13
    5  A    between atoms: N_9  and  C_16
    6  A    between atoms: N_9  and  C_30
    7  A    between atoms: O_10  and  C_29
    8  A    between atoms: O_10  and  C_37
    9  A    between atoms: C_13  and  C_20
   10  A    between atoms: C_14  and  C_37
   11  A    between atoms: C_16  and  C_24
   12  A    between atoms: C_20  and  C_25
   13  A    between atoms: C_20  and  C_29
   14  A    between atoms: C_27  and  C_33
   15  A    between atoms: C_29  and  C_33
                            x       y       z     vdW  Elec       q    Type
                         _______ _______ _______ _____ _____    ______ ____

>  <TORSDO>
F 15

$$$$
=
 OpenBabel11062409253D

 37 41  0  0  1  0  0  0  0  0999 V2000
  160.8810  206.7210  150.9900 C   0  0  1  0  0  3  0  0  0  0  0  0
  161.1540  207.1470  147.5300 C   0  0  2  0  0  3  0  0  0  0  0  0
  162.3290  208.0390  147.5130 C   0  0  0  0  0  2  0  0  0  0  0  0
  162.0220  208.4940  149.7230 C   0  0  0  0  0  2  0  0  0  0  0  0
  162.0110  207.2660  148.8040 C   0  0  2  0  0  0  0  0  0  0  0  0
  160.8440  207.6110  149.7440 C   0  0  1  0  0  3  0  0  0  0  0  0
  161.3980  205.8110  146.8060 C   0  0  2  0  0  3  0  0  0  0  0  0
  162.7570  205.5220  146.6280 O   0  0  0  0  0  1  0  0  0  0  0  0
  160.6200  204.5460  144.9580 O   0  0  0  0  0  0  0  0  0  0  0  0
  160.7080  205.8280  145.4560 C   0  0  0  0  0  3  0  0  0  0  0  0
  161.5730  205.3650  144.4910 O   0  0  0  0  0  0  0  0  0  0  0  0
  163.0820  205.7840  151.9350 C   0  0  0  0  0  1  0  0  0  0  0  0
  161.9950  205.6710  150.8620 C   0  0  1  0  0  3  0  0  0  0  0  0
  161.4660  204.3090  150.6570 N   0  0  0  0  0  0  0  0  0  0  0  0
  161.1880  203.4820  152.8290 O   0  0  0  0  0  0  0  0  0  0  0  0
  160.5010  203.9850  151.7070 C   0  0  2  0  0  3  0  0  0  0  0  0
  160.5390  202.5370  152.0140 C   0  0  0  0  0  2  0  0  0  0  0  0
  160.9280  204.0700  149.3030 C   0  0  0  0  0  2  0  0  0  0  0  0
  161.1980  202.4970  147.5610 O   0  0  0  0  0  0  0  0  0  0  0  0
  161.2060  202.6940  148.7650 C   0  0  0  0  0  3  0  0  0  0  0  0
  160.9790  207.5030  152.3160 C   0  0  1  0  0  3  0  0  0  0  0  0
  160.3720  208.7650  152.2590 O   0  0  0  0  0  0  0  0  0  0  0  0
  161.9490  210.3010  152.8660 O   0  0  0  0  0  1  0  0  0  0  0  0
  160.9180  209.4810  153.3280 C   0  0  1  0  0  3  0  0  0  0  0  0
  159.7740  211.7550  153.4420 C   0  0  1  0  0  3  0  0  0  0  0  0
  160.0890  212.6420  155.8040 C   0  0  0  0  0  2  0  0  0  0  0  0
  159.9470  210.2600  155.4400 O   0  0  0  0  0  0  0  0  0  0  0  0
  159.3130  212.7840  154.4860 C   0  0  2  0  0  3  0  0  0  0  0  0
  159.8510  210.3270  154.0230 C   0  0  2  0  0  3  0  0  0  0  0  0
  160.7920  211.2860  155.9060 C   0  0  0  0  0  2  0  0  0  0  0  0
  158.9670  211.7840  152.3020 O   0  0  0  0  0  1  0  0  0  0  0  0
  156.9820  213.4870  153.9330 O   0  0  0  0  0  0  0  0  0  0  0  0
  157.3580  212.0480  155.6760 O   0  0  0  0  0  1  0  0  0  0  0  0
  157.8340  212.7440  154.7400 C   0  0  0  0  0  0  0  0  0  0  0  0
  160.4550  206.6880  153.4970 C   0  0  0  0  0  2  0  0  0  0  0  0
  161.2150  206.9750  154.7790 C   0  0  0  0  0  2  0  0  0  0  0  0
  160.2550  206.9540  155.9490 C   0  0  0  0  0  1  0  0  0  0  0  0
  1 13  1  6  0  0  0
  1 21  1  0  0  0  0
  2  7  1  6  0  0  0
  2  5  1  0  0  0  0
  3  2  1  0  0  0  0
  4  6  1  0  0  0  0
  5  3  1  6  0  0  0
  5  4  1  0  0  0  0
  5  6  1  0  0  0  0
  6  1  1  1  0  0  0
  7  8  1  6  0  0  0
  9 10  1  0  0  0  0
 10  7  1  0  0  0  0
 11  9  1  0  0  0  0
 11 10  1  0  0  0  0
 13 12  1  1  0  0  0
 14 13  1  0  0  0  0
 16 14  1  6  0  0  0
 16 17  1  0  0  0  0
 16 15  1  0  0  0  0
 17 15  1  0  0  0  0
 18 14  1  0  0  0  0
 19 20  2  0  0  0  0
 20 18  1  0  0  0  0
 21 35  1  1  0  0  0
 22 21  1  0  0  0  0
 22 24  1  0  0  0  0
 24 23  1  6  0  0  0
 25 31  1  6  0  0  0
 25 29  1  0  0  0  0
 25 28  1  0  0  0  0
 26 30  1  0  0  0  0
 27 30  1  0  0  0  0
 28 34  1  1  0  0  0
 28 26  1  0  0  0  0
 29 24  1  6  0  0  0
 29 27  1  0  0  0  0
 32 34  2  0  0  0  0
 34 33  1  0  0  0  0
 35 36  1  0  0  0  0
 36 37  1  0  0  0  0
M  END
>  <MODEL>
6

>  <REMARK>
 VINA RESULT:      -5.3      2.031      7.970
  Name = 
  15 active torsions:
  status: ('A' for Active; 'I' for Inactive)
    1  A    between atoms: C_1  and  C_5
    2  A    between atoms: C_5  and  C_26
    3  A    between atoms: C_8  and  C_19
    4  A    between atoms: N_9  and  C_13
    5  A    between atoms: N_9  and  C_16
    6  A    between atoms: N_9  and  C_30
    7  A    between atoms: O_10  and  C_29
    8  A    between atoms: O_10  and  C_37
    9  A    between atoms: C_13  and  C_20
   10  A    between atoms: C_14  and  C_37
   11  A    between atoms: C_16  and  C_24
   12  A    between atoms: C_20  and  C_25
   13  A    between atoms: C_20  and  C_29
   14  A    between atoms: C_27  and  C_33
   15  A    between atoms: C_29  and  C_33
                            x       y       z     vdW  Elec       q    Type
                         _______ _______ _______ _____ _____    ______ ____

>  <TORSDO>
F 15

$$$$
=
 OpenBabel11062409253D

 37 41  0  0  1  0  0  0  0  0999 V2000
  160.8340  209.8950  153.0780 C   0  0  1  0  0  3  0  0  0  0  0  0
  158.8040  212.3520  151.6400 C   0  0  2  0  0  3  0  0  0  0  0  0
  158.2180  212.9020  152.8770 C   0  0  0  0  0  2  0  0  0  0  0  0
  158.8720  211.0430  154.0180 C   0  0  0  0  0  2  0  0  0  0  0  0
  159.4660  212.0100  152.9870 C   0  0  2  0  0  0  0  0  0  0  0  0
  159.4510  210.4860  152.7850 C   0  0  1  0  0  3  0  0  0  0  0  0
  159.6270  213.3850  150.8490 C   0  0  2  0  0  3  0  0  0  0  0  0
  160.0740  214.4530  151.6390 O   0  0  0  0  0  1  0  0  0  0  0  0
  158.9030  213.0800  148.6120 O   0  0  0  0  0  0  0  0  0  0  0  0
  158.8010  213.9240  149.6980 C   0  0  0  0  0  3  0  0  0  0  0  0
  159.6260  214.2090  148.6330 O   0  0  0  0  0  0  0  0  0  0  0  0
  161.0120  207.4240  153.7650 C   0  0  0  0  0  1  0  0  0  0  0  0
  160.7430  208.8630  154.2120 C   0  0  1  0  0  3  0  0  0  0  0  0
  161.4790  209.2850  155.4190 N   0  0  0  0  0  0  0  0  0  0  0  0
  163.3390  210.7030  155.5080 O   0  0  0  0  0  0  0  0  0  0  0  0
  161.9540  210.6590  155.2600 C   0  0  2  0  0  3  0  0  0  0  0  0
  162.5020  211.1670  156.5380 C   0  0  0  0  0  2  0  0  0  0  0  0
  160.7330  209.0880  156.6780 C   0  0  0  0  0  2  0  0  0  0  0  0
  159.9900  206.8740  157.0370 O   0  0  0  0  0  0  0  0  0  0  0  0
  160.8560  207.7050  157.2560 C   0  0  0  0  0  3  0  0  0  0  0  0
  161.5460  209.3230  151.8360 C   0  0  1  0  0  3  0  0  0  0  0  0
  160.7310  208.4780  151.0720 O   0  0  0  0  0  0  0  0  0  0  0  0
  162.7590  207.4400  151.2220 O   0  0  0  0  0  1  0  0  0  0  0  0
  161.6100  207.5900  150.4450 C   0  0  1  0  0  3  0  0  0  0  0  0
  161.9540  205.0670  150.3640 C   0  0  1  0  0  3  0  0  0  0  0  0
  161.2410  204.2800  148.0540 C   0  0  0  0  0  2  0  0  0  0  0  0
  160.1590  206.2000  149.0400 O   0  0  0  0  0  0  0  0  0  0  0  0
  161.5740  203.8590  149.4920 C   0  0  2  0  0  3  0  0  0  0  0  0
  160.9490  206.2290  150.2220 C   0  0  2  0  0  3  0  0  0  0  0  0
  160.9500  205.7800  147.9520 C   0  0  0  0  0  2  0  0  0  0  0  0
  162.1070  204.7050  151.7040 O   0  0  0  0  0  1  0  0  0  0  0  0
  160.6290  201.6760  150.2480 O   0  0  0  0  0  0  0  0  0  0  0  0
  159.3650  203.5810  150.4010 O   0  0  0  0  0  1  0  0  0  0  0  0
  160.4570  203.0420  150.0730 C   0  0  0  0  0  0  0  0  0  0  0  0
  162.1650  210.4240  150.9760 C   0  0  0  0  0  2  0  0  0  0  0  0
  161.9580  210.1840  149.4920 C   0  0  0  0  0  2  0  0  0  0  0  0
  161.9920  211.5060  148.7580 C   0  0  0  0  0  1  0  0  0  0  0  0
  1 21  1  6  0  0  0
  1 13  1  0  0  0  0
  2  7  1  6  0  0  0
  2  3  1  0  0  0  0
  2  5  1  0  0  0  0
  5  3  1  6  0  0  0
  5  4  1  0  0  0  0
  6  5  1  0  0  0  0
  6  1  1  1  0  0  0
  6  4  1  0  0  0  0
  7  8  1  1  0  0  0
  9 11  1  0  0  0  0
  9 10  1  0  0  0  0
 10  7  1  0  0  0  0
 11 10  1  0  0  0  0
 13 12  1  6  0  0  0
 13 14  1  0  0  0  0
 14 18  1  0  0  0  0
 15 17  1  0  0  0  0
 16 14  1  1  0  0  0
 16 15  1  0  0  0  0
 16 17  1  0  0  0  0
 18 20  1  0  0  0  0
 19 20  2  0  0  0  0
 21 35  1  6  0  0  0
 22 21  1  0  0  0  0
 24 22  1  0  0  0  0
 24 23  1  1  0  0  0
 25 31  1  1  0  0  0
 26 28  1  0  0  0  0
 27 29  1  0  0  0  0
 28 34  1  1  0  0  0
 28 25  1  0  0  0  0
 29 25  1  0  0  0  0
 29 24  1  6  0  0  0
 30 26  1  0  0  0  0
 30 27  1  0  0  0  0
 34 32  2  0  0  0  0
 34 33  1  0  0  0  0
 36 35  1  0  0  0  0
 37 36  1  0  0  0  0
M  END
>  <MODEL>
7

>  <REMARK>
 VINA RESULT:      -5.3      2.187      5.754
  Name = 
  15 active torsions:
  status: ('A' for Active; 'I' for Inactive)
    1  A    between atoms: C_1  and  C_5
    2  A    between atoms: C_5  and  C_26
    3  A    between atoms: C_8  and  C_19
    4  A    between atoms: N_9  and  C_13
    5  A    between atoms: N_9  and  C_16
    6  A    between atoms: N_9  and  C_30
    7  A    between atoms: O_10  and  C_29
    8  A    between atoms: O_10  and  C_37
    9  A    between atoms: C_13  and  C_20
   10  A    between atoms: C_14  and  C_37
   11  A    between atoms: C_16  and  C_24
   12  A    between atoms: C_20  and  C_25
   13  A    between atoms: C_20  and  C_29
   14  A    between atoms: C_27  and  C_33
   15  A    between atoms: C_29  and  C_33
                            x       y       z     vdW  Elec       q    Type
                         _______ _______ _______ _____ _____    ______ ____

>  <TORSDO>
F 15

$$$$
=
 OpenBabel11062409253D

 37 41  0  0  1  0  0  0  0  0999 V2000
  159.5850  212.2830  154.4730 C   0  0  1  0  0  3  0  0  0  0  0  0
  159.2840  212.8910  151.0430 C   0  0  2  0  0  3  0  0  0  0  0  0
  158.4580  214.1100  151.1100 C   0  0  0  0  0  2  0  0  0  0  0  0
  157.9170  213.6320  153.2690 C   0  0  0  0  0  2  0  0  0  0  0  0
  159.1710  213.6340  152.3870 C   0  0  2  0  0  0  0  0  0  0  0  0
  158.7340  212.4090  153.2060 C   0  0  1  0  0  3  0  0  0  0  0  0
  160.6540  213.1230  150.3800 C   0  0  2  0  0  3  0  0  0  0  0  0
  160.8550  214.4520  149.9860 O   0  0  0  0  0  1  0  0  0  0  0  0
  161.9700  211.4940  149.2680 O   0  0  0  0  0  0  0  0  0  0  0  0
  160.7990  212.2150  149.1740 C   0  0  0  0  0  3  0  0  0  0  0  0
  161.9250  212.5670  148.4660 O   0  0  0  0  0  0  0  0  0  0  0  0
  159.2920  213.8160  156.5170 C   0  0  0  0  0  1  0  0  0  0  0  0
  158.7490  212.6310  155.7140 C   0  0  1  0  0  3  0  0  0  0  0  0
  157.3040  212.6900  155.4220 N   0  0  0  0  0  0  0  0  0  0  0  0
  157.1140  210.3570  155.4430 O   0  0  0  0  0  0  0  0  0  0  0  0
  156.6260  211.5430  156.0260 C   0  0  2  0  0  3  0  0  0  0  0  0
  155.8550  210.8010  155.0020 C   0  0  0  0  0  2  0  0  0  0  0  0
  156.6690  213.9730  155.7820 C   0  0  0  0  0  2  0  0  0  0  0  0
  154.4420  213.9370  156.5700 O   0  0  0  0  0  0  0  0  0  0  0  0
  155.6250  213.8620  156.8580 C   0  0  0  0  0  3  0  0  0  0  0  0
  160.2900  210.9190  154.6200 C   0  0  1  0  0  3  0  0  0  0  0  0
  160.1820  210.1150  153.4780 O   0  0  0  0  0  0  0  0  0  0  0  0
  160.1100  208.3530  154.9300 O   0  0  0  0  0  1  0  0  0  0  0  0
  160.7740  208.8980  153.8300 C   0  0  1  0  0  3  0  0  0  0  0  0
  161.7490  206.7600  152.8470 C   0  0  1  0  0  3  0  0  0  0  0  0
  162.7130  207.3470  150.5680 C   0  0  0  0  0  2  0  0  0  0  0  0
  160.8070  208.5710  151.4000 O   0  0  0  0  0  0  0  0  0  0  0  0
  162.2650  206.2150  151.5040 C   0  0  2  0  0  3  0  0  0  0  0  0
  160.7420  207.9140  152.6600 C   0  0  2  0  0  3  0  0  0  0  0  0
  162.1520  208.7030  151.0040 C   0  0  0  0  0  2  0  0  0  0  0  0
  161.2010  205.7460  153.6360 O   0  0  0  0  0  1  0  0  0  0  0  0
  160.1390  205.8730  150.2410 O   0  0  0  0  0  0  0  0  0  0  0  0
  161.4660  204.0770  150.7510 O   0  0  0  0  0  1  0  0  0  0  0  0
  161.2770  205.3210  150.8140 C   0  0  0  0  0  0  0  0  0  0  0  0
  161.7480  211.0760  155.0520 C   0  0  0  0  0  2  0  0  0  0  0  0
  161.9100  211.0390  156.5610 C   0  0  0  0  0  2  0  0  0  0  0  0
  163.3450  210.7050  156.9040 C   0  0  0  0  0  1  0  0  0  0  0  0
  1 21  1  1  0  0  0
  1 13  1  0  0  0  0
  2  7  1  6  0  0  0
  2  3  1  0  0  0  0
  2  5  1  0  0  0  0
  5  3  1  6  0  0  0
  5  6  1  0  0  0  0
  5  4  1  0  0  0  0
  6  4  1  0  0  0  0
  6  1  1  1  0  0  0
  7  8  1  6  0  0  0
 10  9  1  0  0  0  0
 10  7  1  0  0  0  0
 11 10  1  0  0  0  0
 11  9  1  0  0  0  0
 13 12  1  6  0  0  0
 14 13  1  0  0  0  0
 14 18  1  0  0  0  0
 15 16  1  0  0  0  0
 16 14  1  6  0  0  0
 17 15  1  0  0  0  0
 17 16  1  0  0  0  0
 18 20  1  0  0  0  0
 19 20  2  0  0  0  0
 21 35  1  6  0  0  0
 22 24  1  0  0  0  0
 22 21  1  0  0  0  0
 24 23  1  1  0  0  0
 25 31  1  6  0  0  0
 26 30  1  0  0  0  0
 26 28  1  0  0  0  0
 27 29  1  0  0  0  0
 28 34  1  6  0  0  0
 28 25  1  0  0  0  0
 29 25  1  0  0  0  0
 29 24  1  1  0  0  0
 30 27  1  0  0  0  0
 32 34  2  0  0  0  0
 33 34  1  0  0  0  0
 35 36  1  0  0  0  0
 36 37  1  0  0  0  0
M  END
>  <MODEL>
8

>  <REMARK>
 VINA RESULT:      -5.3      3.177      7.048
  Name = 
  15 active torsions:
  status: ('A' for Active; 'I' for Inactive)
    1  A    between atoms: C_1  and  C_5
    2  A    between atoms: C_5  and  C_26
    3  A    between atoms: C_8  and  C_19
    4  A    between atoms: N_9  and  C_13
    5  A    between atoms: N_9  and  C_16
    6  A    between atoms: N_9  and  C_30
    7  A    between atoms: O_10  and  C_29
    8  A    between atoms: O_10  and  C_37
    9  A    between atoms: C_13  and  C_20
   10  A    between atoms: C_14  and  C_37
   11  A    between atoms: C_16  and  C_24
   12  A    between atoms: C_20  and  C_25
   13  A    between atoms: C_20  and  C_29
   14  A    between atoms: C_27  and  C_33
   15  A    between atoms: C_29  and  C_33
                            x       y       z     vdW  Elec       q    Type
                         _______ _______ _______ _____ _____    ______ ____

>  <TORSDO>
F 15

$$$$
=
 OpenBabel11062409253D

 37 41  0  0  1  0  0  0  0  0999 V2000
  160.1950  209.4540  153.8220 C   0  0  1  0  0  3  0  0  0  0  0  0
  161.9060  207.0750  151.9140 C   0  0  2  0  0  3  0  0  0  0  0  0
  161.6830  205.9020  152.7790 C   0  0  0  0  0  2  0  0  0  0  0  0
  161.1100  207.2740  154.5030 C   0  0  0  0  0  2  0  0  0  0  0  0
  160.8190  207.1540  153.0020 C   0  0  2  0  0  0  0  0  0  0  0  0
  161.3380  208.4490  153.6470 C   0  0  1  0  0  3  0  0  0  0  0  0
  161.2940  206.9190  150.5110 C   0  0  2  0  0  3  0  0  0  0  0  0
  160.9910  205.5890  150.1880 O   0  0  0  0  0  1  0  0  0  0  0  0
  161.5880  208.4110  148.6920 O   0  0  0  0  0  0  0  0  0  0  0  0
  162.2430  207.4830  149.4720 C   0  0  0  0  0  3  0  0  0  0  0  0
  161.7840  207.1750  148.2120 O   0  0  0  0  0  0  0  0  0  0  0  0
  160.2050  208.8780  156.3280 C   0  0  0  0  0  1  0  0  0  0  0  0
  160.1640  209.9790  155.2650 C   0  0  1  0  0  3  0  0  0  0  0  0
  161.1130  211.0870  155.4840 N   0  0  0  0  0  0  0  0  0  0  0  0
  159.2260  212.1080  156.4190 O   0  0  0  0  0  0  0  0  0  0  0  0
  160.6210  211.9630  156.5470 C   0  0  2  0  0  3  0  0  0  0  0  0
  160.0130  213.1840  155.9700 C   0  0  0  0  0  2  0  0  0  0  0  0
  162.5050  210.6510  155.7110 C   0  0  0  0  0  2  0  0  0  0  0  0
  164.3220  211.2560  157.0940 O   0  0  0  0  0  0  0  0  0  0  0  0
  163.1100  211.1680  156.9860 C   0  0  0  0  0  3  0  0  0  0  0  0
  160.2070  210.6020  152.7930 C   0  0  1  0  0  3  0  0  0  0  0  0
  160.5610  210.1850  151.5030 O   0  0  0  0  0  0  0  0  0  0  0  0
  162.7530  210.6040  151.0200 O   0  0  0  0  0  1  0  0  0  0  0  0
  161.4670  211.1450  151.0440 C   0  0  1  0  0  3  0  0  0  0  0  0
  162.2900  212.2260  148.8890 C   0  0  1  0  0  3  0  0  0  0  0  0
  160.9310  214.3470  148.5400 C   0  0  0  0  0  2  0  0  0  0  0  0
  159.9260  212.4660  149.6690 O   0  0  0  0  0  0  0  0  0  0  0  0
  161.8750  213.3220  147.8930 C   0  0  2  0  0  3  0  0  0  0  0  0
  161.0820  211.6390  149.6490 C   0  0  2  0  0  3  0  0  0  0  0  0
  160.3080  213.8110  149.8310 C   0  0  0  0  0  2  0  0  0  0  0  0
  163.0220  211.2140  148.2630 O   0  0  0  0  0  1  0  0  0  0  0  0
  161.9500  212.9250  145.4300 O   0  0  0  0  0  0  0  0  0  0  0  0
  160.1600  212.1830  146.6520 O   0  0  0  0  0  1  0  0  0  0  0  0
  161.2730  212.7740  146.6330 C   0  0  0  0  0  0  0  0  0  0  0  0
  158.8880  211.3730  152.7850 C   0  0  0  0  0  2  0  0  0  0  0  0
  159.0300  212.7670  153.3690 C   0  0  0  0  0  2  0  0  0  0  0  0
  157.6680  213.2820  153.7790 C   0  0  0  0  0  1  0  0  0  0  0  0
  1 21  1  6  0  0  0
  1 13  1  0  0  0  0
  2  7  1  6  0  0  0
  2  3  1  0  0  0  0
  2  5  1  0  0  0  0
  5  3  1  1  0  0  0
  5  6  1  0  0  0  0
  5  4  1  0  0  0  0
  6  1  1  1  0  0  0
  6  4  1  0  0  0  0
  7  8  1  6  0  0  0
  9 10  1  0  0  0  0
 10  7  1  0  0  0  0
 11  9  1  0  0  0  0
 11 10  1  0  0  0  0
 13 14  1  0  0  0  0
 13 12  1  1  0  0  0
 14 18  1  0  0  0  0
 15 16  1  0  0  0  0
 16 14  1  6  0  0  0
 17 15  1  0  0  0  0
 17 16  1  0  0  0  0
 18 20  1  0  0  0  0
 20 19  2  0  0  0  0
 21 35  1  6  0  0  0
 22 21  1  0  0  0  0
 24 23  1  6  0  0  0
 24 22  1  0  0  0  0
 25 31  1  6  0  0  0
 25 29  1  0  0  0  0
 26 30  1  0  0  0  0
 27 30  1  0  0  0  0
 28 34  1  6  0  0  0
 28 26  1  0  0  0  0
 28 25  1  0  0  0  0
 29 27  1  0  0  0  0
 29 24  1  1  0  0  0
 32 34  2  0  0  0  0
 34 33  1  0  0  0  0
 35 36  1  0  0  0  0
 36 37  1  0  0  0  0
M  END
>  <MODEL>
9

>  <REMARK>
 VINA RESULT:      -5.2      2.981      5.792
  Name = 
  15 active torsions:
  status: ('A' for Active; 'I' for Inactive)
    1  A    between atoms: C_1  and  C_5
    2  A    between atoms: C_5  and  C_26
    3  A    between atoms: C_8  and  C_19
    4  A    between atoms: N_9  and  C_13
    5  A    between atoms: N_9  and  C_16
    6  A    between atoms: N_9  and  C_30
    7  A    between atoms: O_10  and  C_29
    8  A    between atoms: O_10  and  C_37
    9  A    between atoms: C_13  and  C_20
   10  A    between atoms: C_14  and  C_37
   11  A    between atoms: C_16  and  C_24
   12  A    between atoms: C_20  and  C_25
   13  A    between atoms: C_20  and  C_29
   14  A    between atoms: C_27  and  C_33
   15  A    between atoms: C_29  and  C_33
                            x       y       z     vdW  Elec       q    Type
                         _______ _______ _______ _____ _____    ______ ____

>  <TORSDO>
F 15

$$$$
