=
 OpenBabel11052422573D

 28 31  0  0  1  0  0  0  0  0999 V2000
  161.1940  203.6430  149.4540 N   0  0  0  0  0  0  0  0  0  0  0  0
  161.5990  203.6540  148.0700 C   0  0  0  0  0  0  0  0  0  0  0  0
  161.8880  208.6900  148.5570 C   0  0  0  0  0  2  0  0  0  0  0  0
  160.9430  205.6510  153.9140 O   0  0  0  0  0  1  0  0  0  0  0  0
  161.1290  202.7980  147.2730 O   0  0  0  0  0  0  0  0  0  0  0  0
  161.7320  209.6310  150.8990 C   0  0  0  0  0  0  0  0  0  0  0  0
  161.4640  207.2290  150.5910 C   0  0  0  0  0  0  0  0  0  0  0  0
  162.5450  210.9910  149.0360 N   0  0  0  0  0  0  0  0  0  0  0  0
  161.6630  208.5120  150.0410 C   0  0  0  0  0  0  0  0  0  0  0  0
  161.3650  208.2040  152.8180 C   0  0  0  0  0  3  0  0  0  0  0  0
  161.8750  211.0170  150.3360 C   0  0  0  0  0  2  0  0  0  0  0  0
  161.0740  204.6710  151.7050 C   0  0  0  0  0  0  0  0  0  0  0  0
  161.4160  206.0960  149.7720 C   0  0  0  0  0  3  0  0  0  0  0  0
  161.5670  209.4720  152.2750 C   0  0  0  0  0  3  0  0  0  0  0  0
  161.2420  202.1810  151.4090 C   0  0  0  0  0  2  0  0  0  0  0  0
  161.1120  205.8000  152.5390 C   0  0  0  0  0  0  0  0  0  0  0  0
  160.7720  203.3230  152.3030 C   0  0  0  0  0  2  0  0  0  0  0  0
  162.4820  212.3420  148.5100 C   0  0  0  0  0  1  0  0  0  0  0  0
  161.7570  210.1530  148.1370 C   0  0  0  0  0  2  0  0  0  0  0  0
  161.3150  207.0760  151.9890 C   0  0  0  0  0  0  0  0  0  0  0  0
  160.6950  202.3840  150.0050 C   0  0  0  0  0  2  0  0  0  0  0  0
  161.2300  204.8140  150.3070 C   0  0  0  0  0  0  0  0  0  0  0  0
  162.6370  204.6110  147.5550 C   0  0  0  0  0  2  0  0  0  0  0  0
  163.1640  204.3130  145.1170 C   0  0  0  0  0  1  0  0  0  0  0  0
  162.3480  205.1050  146.1310 C   0  0  1  0  0  3  0  0  0  0  0  0
  160.8520  205.1050  145.7890 C   0  0  0  0  0  3  0  0  0  0  0  0
  160.2600  206.4940  145.9540 C   0  0  0  0  0  1  0  0  0  0  0  0
  160.6220  204.6610  144.3540 C   0  0  0  0  0  1  0  0  0  0  0  0
  1 21  1  0  0  0  0
  1 22  1  0  0  0  0
  2  1  1  0  0  0  0
  3  9  1  0  0  0  0
  5  2  2  0  0  0  0
  6 14  1  0  0  0  0
  7 20  1  0  0  0  0
  8 11  1  0  0  0  0
  9  7  1  0  0  0  0
  9  6  2  0  0  0  0
 11  6  1  0  0  0  0
 12 17  1  0  0  0  0
 12 16  1  0  0  0  0
 13 22  1  0  0  0  0
 13  7  2  0  0  0  0
 14 10  2  0  0  0  0
 15 17  1  0  0  0  0
 16  4  1  0  0  0  0
 18  8  1  0  0  0  0
 19  3  1  0  0  0  0
 19  8  1  0  0  0  0
 20 16  2  0  0  0  0
 20 10  1  0  0  0  0
 21 15  1  0  0  0  0
 22 12  2  0  0  0  0
 23  2  1  0  0  0  0
 25 24  1  6  0  0  0
 25 23  1  0  0  0  0
 26 27  1  0  0  0  0
 26 25  1  0  0  0  0
 28 26  1  0  0  0  0
M  END
>  <MODEL>
1

>  <REMARK>
 VINA RESULT:      -8.9      0.000      0.000
  Name = 
  3 active torsions:
  status: ('A' for Active; 'I' for Inactive)
    1  A    between atoms: C_2  and  C_3
    2  A    between atoms: C_3  and  C_11
    3  A    between atoms: C_6  and  C_11
                            x       y       z     vdW  Elec       q    Type
                         _______ _______ _______ _____ _____    ______ ____

>  <TORSDO>
F 3

$$$$
=
 OpenBabel11052422573D

 28 31  0  0  1  0  0  0  0  0999 V2000
  161.1360  202.8090  148.2060 N   0  0  0  0  0  0  0  0  0  0  0  0
  161.5970  203.1270  146.8780 C   0  0  0  0  0  0  0  0  0  0  0  0
  161.7810  207.9340  148.4720 C   0  0  0  0  0  2  0  0  0  0  0  0
  160.6690  203.7830  152.9840 O   0  0  0  0  0  1  0  0  0  0  0  0
  161.1740  202.4650  145.8930 O   0  0  0  0  0  0  0  0  0  0  0  0
  161.5130  208.3340  150.9540 C   0  0  0  0  0  0  0  0  0  0  0  0
  161.2990  206.0580  150.1140 C   0  0  0  0  0  0  0  0  0  0  0  0
  162.3790  210.0780  149.4740 N   0  0  0  0  0  0  0  0  0  0  0  0
  161.4980  207.4320  149.8690 C   0  0  0  0  0  0  0  0  0  0  0  0
  161.0920  206.5170  152.4950 C   0  0  0  0  0  3  0  0  0  0  0  0
  161.6560  209.8110  150.7170 C   0  0  0  0  0  2  0  0  0  0  0  0
  160.9060  203.3140  150.6210 C   0  0  0  0  0  0  0  0  0  0  0  0
  161.3030  205.1320  149.0650 C   0  0  0  0  0  3  0  0  0  0  0  0
  161.2950  207.8750  152.2540 C   0  0  0  0  0  3  0  0  0  0  0  0
  161.1280  200.9520  149.7930 C   0  0  0  0  0  2  0  0  0  0  0  0
  160.8910  204.2320  151.6840 C   0  0  0  0  0  0  0  0  0  0  0  0
  160.6020  201.8650  150.8940 C   0  0  0  0  0  2  0  0  0  0  0  0
  162.3140  211.5110  149.2550 C   0  0  0  0  0  1  0  0  0  0  0  0
  161.6430  209.4530  148.3790 C   0  0  0  0  0  2  0  0  0  0  0  0
  161.0950  205.5990  151.4370 C   0  0  0  0  0  0  0  0  0  0  0  0
  160.6360  201.4550  148.4450 C   0  0  0  0  0  2  0  0  0  0  0  0
  161.1170  203.7630  149.2970 C   0  0  0  0  0  0  0  0  0  0  0  0
  162.6380  204.1820  146.6320 C   0  0  0  0  0  2  0  0  0  0  0  0
  163.0960  205.7760  144.7440 C   0  0  0  0  0  1  0  0  0  0  0  0
  162.1070  205.3810  145.8340 C   0  0  1  0  0  3  0  0  0  0  0  0
  160.6970  205.1490  145.2720 C   0  0  0  0  0  3  0  0  0  0  0  0
  159.7620  206.2740  145.6790 C   0  0  0  0  0  1  0  0  0  0  0  0
  160.7210  205.0800  143.7550 C   0  0  0  0  0  1  0  0  0  0  0  0
  1 21  1  0  0  0  0
  1 22  1  0  0  0  0
  2  1  1  0  0  0  0
  3  9  1  0  0  0  0
  5  2  2  0  0  0  0
  6 14  1  0  0  0  0
  7 20  1  0  0  0  0
  8 11  1  0  0  0  0
  9  7  1  0  0  0  0
  9  6  2  0  0  0  0
 11  6  1  0  0  0  0
 12 17  1  0  0  0  0
 12 16  1  0  0  0  0
 13 22  1  0  0  0  0
 13  7  2  0  0  0  0
 14 10  2  0  0  0  0
 15 17  1  0  0  0  0
 16  4  1  0  0  0  0
 18  8  1  0  0  0  0
 19  3  1  0  0  0  0
 19  8  1  0  0  0  0
 20 16  2  0  0  0  0
 20 10  1  0  0  0  0
 21 15  1  0  0  0  0
 22 12  2  0  0  0  0
 23  2  1  0  0  0  0
 25 24  1  6  0  0  0
 25 23  1  0  0  0  0
 26 27  1  0  0  0  0
 26 25  1  0  0  0  0
 28 26  1  0  0  0  0
M  END
>  <MODEL>
2

>  <REMARK>
 VINA RESULT:      -8.5      1.090      1.395
  Name = 
  3 active torsions:
  status: ('A' for Active; 'I' for Inactive)
    1  A    between atoms: C_2  and  C_3
    2  A    between atoms: C_3  and  C_11
    3  A    between atoms: C_6  and  C_11
                            x       y       z     vdW  Elec       q    Type
                         _______ _______ _______ _____ _____    ______ ____

>  <TORSDO>
F 3

$$$$
=
 OpenBabel11052422573D

 28 31  0  0  1  0  0  0  0  0999 V2000
  161.7110  208.1150  152.5790 N   0  0  0  0  0  0  0  0  0  0  0  0
  161.8180  209.3860  151.9090 C   0  0  0  0  0  0  0  0  0  0  0  0
  161.8170  206.7190  147.6000 C   0  0  0  0  0  2  0  0  0  0  0  0
  160.5620  203.3550  152.6920 O   0  0  0  0  0  1  0  0  0  0  0  0
  162.4600  210.3270  152.4480 O   0  0  0  0  0  0  0  0  0  0  0  0
  161.2270  204.2660  147.7650 C   0  0  0  0  0  0  0  0  0  0  0  0
  161.3750  205.5670  149.8190 C   0  0  0  0  0  0  0  0  0  0  0  0
  161.2380  205.4270  145.6120 N   0  0  0  0  0  0  0  0  0  0  0  0
  161.4940  205.4890  148.4170 C   0  0  0  0  0  0  0  0  0  0  0  0
  160.7740  203.2100  149.8940 C   0  0  0  0  0  3  0  0  0  0  0  0
  161.4110  204.1370  146.2790 C   0  0  0  0  0  2  0  0  0  0  0  0
  161.1270  205.7080  152.6220 C   0  0  0  0  0  0  0  0  0  0  0  0
  161.6070  206.7700  150.4950 C   0  0  0  0  0  3  0  0  0  0  0  0
  160.8860  203.1340  148.5060 C   0  0  0  0  0  3  0  0  0  0  0  0
  160.8560  207.1580  154.6570 C   0  0  0  0  0  2  0  0  0  0  0  0
  160.8980  204.4910  151.9590 C   0  0  0  0  0  0  0  0  0  0  0  0
  161.0820  205.7470  154.1270 C   0  0  0  0  0  2  0  0  0  0  0  0
  161.5980  205.2270  144.2210 C   0  0  0  0  0  1  0  0  0  0  0  0
  162.2140  206.3590  146.1690 C   0  0  0  0  0  2  0  0  0  0  0  0
  161.0120  204.4180  150.5610 C   0  0  0  0  0  0  0  0  0  0  0  0
  161.8750  208.0980  154.0330 C   0  0  0  0  0  2  0  0  0  0  0  0
  161.4820  206.8620  151.8880 C   0  0  0  0  0  0  0  0  0  0  0  0
  161.1140  209.6590  150.6100 C   0  0  0  0  0  2  0  0  0  0  0  0
  162.3980  209.9330  148.4680 C   0  0  0  0  0  1  0  0  0  0  0  0
  161.8700  210.6440  149.7080 C   0  0  1  0  0  3  0  0  0  0  0  0
  161.0410  211.8840  149.3480 C   0  0  0  0  0  3  0  0  0  0  0  0
  160.5830  212.6110  150.6010 C   0  0  0  0  0  1  0  0  0  0  0  0
  161.8510  212.8560  148.5080 C   0  0  0  0  0  1  0  0  0  0  0  0
  1 21  1  0  0  0  0
  2  5  2  0  0  0  0
  2  1  1  0  0  0  0
  3  9  1  0  0  0  0
  6  9  2  0  0  0  0
  6 14  1  0  0  0  0
  7 13  2  0  0  0  0
  7 20  1  0  0  0  0
  8 19  1  0  0  0  0
  8 11  1  0  0  0  0
  9  7  1  0  0  0  0
 10 20  1  0  0  0  0
 11  6  1  0  0  0  0
 12 17  1  0  0  0  0
 13 22  1  0  0  0  0
 14 10  2  0  0  0  0
 16 12  1  0  0  0  0
 16  4  1  0  0  0  0
 17 15  1  0  0  0  0
 18  8  1  0  0  0  0
 19  3  1  0  0  0  0
 20 16  2  0  0  0  0
 21 15  1  0  0  0  0
 22  1  1  0  0  0  0
 22 12  2  0  0  0  0
 23  2  1  0  0  0  0
 25 24  1  6  0  0  0
 25 23  1  0  0  0  0
 26 25  1  0  0  0  0
 26 27  1  0  0  0  0
 28 26  1  0  0  0  0
M  END
>  <MODEL>
3

>  <REMARK>
 VINA RESULT:      -7.7      1.948      5.849
  Name = 
  3 active torsions:
  status: ('A' for Active; 'I' for Inactive)
    1  A    between atoms: C_2  and  C_3
    2  A    between atoms: C_3  and  C_11
    3  A    between atoms: C_6  and  C_11
                            x       y       z     vdW  Elec       q    Type
                         _______ _______ _______ _____ _____    ______ ____

>  <TORSDO>
F 3

$$$$
=
 OpenBabel11052422573D

 28 31  0  0  1  0  0  0  0  0999 V2000
  161.7160  207.4510  149.9070 N   0  0  0  0  0  0  0  0  0  0  0  0
  161.6820  207.9550  148.5570 C   0  0  0  0  0  0  0  0  0  0  0  0
  161.3440  203.1060  147.1250 C   0  0  0  0  0  2  0  0  0  0  0  0
  160.8310  204.0010  153.2700 O   0  0  0  0  0  1  0  0  0  0  0  0
  162.3310  208.9940  148.2610 O   0  0  0  0  0  0  0  0  0  0  0  0
  160.9020  201.3990  148.9370 C   0  0  0  0  0  0  0  0  0  0  0  0
  161.2080  203.7270  149.5840 C   0  0  0  0  0  0  0  0  0  0  0  0
  160.6160  200.8430  146.5720 N   0  0  0  0  0  0  0  0  0  0  0  0
  161.1760  202.7370  148.5810 C   0  0  0  0  0  0  0  0  0  0  0  0
  160.7410  202.0330  151.2660 C   0  0  0  0  0  3  0  0  0  0  0  0
  160.9270  200.3120  147.8990 C   0  0  0  0  0  2  0  0  0  0  0  0
  161.2630  205.6970  151.5980 C   0  0  0  0  0  0  0  0  0  0  0  0
  161.4520  205.0670  149.2630 C   0  0  0  0  0  3  0  0  0  0  0  0
  160.7030  201.0540  150.2740 C   0  0  0  0  0  3  0  0  0  0  0  0
  161.1440  208.1380  152.1800 C   0  0  0  0  0  2  0  0  0  0  0  0
  161.0260  204.3540  151.9360 C   0  0  0  0  0  0  0  0  0  0  0  0
  161.3830  206.7230  152.6930 C   0  0  0  0  0  2  0  0  0  0  0  0
  160.8310  199.7600  145.6310 C   0  0  0  0  0  1  0  0  0  0  0  0
  161.5980  201.8760  146.2560 C   0  0  0  0  0  2  0  0  0  0  0  0
  160.9890  203.3710  150.9350 C   0  0  0  0  0  0  0  0  0  0  0  0
  162.0390  208.3940  150.9770 C   0  0  0  0  0  2  0  0  0  0  0  0
  161.4760  206.0620  150.2490 C   0  0  0  0  0  0  0  0  0  0  0  0
  160.8260  207.3240  147.4960 C   0  0  0  0  0  2  0  0  0  0  0  0
  162.6720  205.8440  146.6510 C   0  0  0  0  0  1  0  0  0  0  0  0
  161.6240  206.8790  146.2630 C   0  0  1  0  0  3  0  0  0  0  0  0
  160.7290  206.3870  145.1170 C   0  0  0  0  0  3  0  0  0  0  0  0
  161.4220  205.2910  144.3240 C   0  0  0  0  0  1  0  0  0  0  0  0
  159.4200  205.8280  145.6490 C   0  0  0  0  0  1  0  0  0  0  0  0
  1 22  1  0  0  0  0
  1 21  1  0  0  0  0
  2  1  1  0  0  0  0
  3  9  1  0  0  0  0
  5  2  2  0  0  0  0
  6 14  1  0  0  0  0
  7 20  1  0  0  0  0
  8 11  1  0  0  0  0
  9  6  2  0  0  0  0
  9  7  1  0  0  0  0
 11  6  1  0  0  0  0
 12 16  1  0  0  0  0
 12 17  1  0  0  0  0
 13  7  2  0  0  0  0
 13 22  1  0  0  0  0
 14 10  2  0  0  0  0
 15 17  1  0  0  0  0
 16  4  1  0  0  0  0
 18  8  1  0  0  0  0
 19  8  1  0  0  0  0
 19  3  1  0  0  0  0
 20 10  1  0  0  0  0
 20 16  2  0  0  0  0
 21 15  1  0  0  0  0
 22 12  2  0  0  0  0
 23  2  1  0  0  0  0
 25 24  1  1  0  0  0
 25 23  1  0  0  0  0
 26 28  1  0  0  0  0
 26 25  1  0  0  0  0
 27 26  1  0  0  0  0
M  END
>  <MODEL>
4

>  <REMARK>
 VINA RESULT:      -7.1      2.207      5.869
  Name = 
  3 active torsions:
  status: ('A' for Active; 'I' for Inactive)
    1  A    between atoms: C_2  and  C_3
    2  A    between atoms: C_3  and  C_11
    3  A    between atoms: C_6  and  C_11
                            x       y       z     vdW  Elec       q    Type
                         _______ _______ _______ _____ _____    ______ ____

>  <TORSDO>
F 3

$$$$
=
 OpenBabel11052422573D

 28 31  0  0  1  0  0  0  0  0999 V2000
  161.6740  208.0730  150.2010 N   0  0  0  0  0  0  0  0  0  0  0  0
  161.6670  208.4030  148.7980 C   0  0  0  0  0  0  0  0  0  0  0  0
  161.5330  203.4030  147.9820 C   0  0  0  0  0  2  0  0  0  0  0  0
  160.7970  205.0430  153.9480 O   0  0  0  0  0  1  0  0  0  0  0  0
  162.2910  209.4190  148.3900 O   0  0  0  0  0  0  0  0  0  0  0  0
  161.0900  201.9220  149.9830 C   0  0  0  0  0  0  0  0  0  0  0  0
  161.2990  204.3230  150.3380 C   0  0  0  0  0  0  0  0  0  0  0  0
  160.8980  201.0640  147.7010 N   0  0  0  0  0  0  0  0  0  0  0  0
  161.3310  203.2140  149.4680 C   0  0  0  0  0  0  0  0  0  0  0  0
  160.8350  202.8370  152.2080 C   0  0  0  0  0  3  0  0  0  0  0  0
  161.1840  200.7150  149.0920 C   0  0  0  0  0  2  0  0  0  0  0  0
  161.2260  206.5300  152.0870 C   0  0  0  0  0  0  0  0  0  0  0  0
  161.5090  205.6200  149.8570 C   0  0  0  0  0  3  0  0  0  0  0  0
  160.8600  201.7410  151.3470 C   0  0  0  0  0  3  0  0  0  0  0  0
  161.0090  209.0200  152.3520 C   0  0  0  0  0  2  0  0  0  0  0  0
  161.0220  205.2330  152.5860 C   0  0  0  0  0  0  0  0  0  0  0  0
  161.2780  207.6900  153.0460 C   0  0  0  0  0  2  0  0  0  0  0  0
  161.1770  199.8800  146.9100 C   0  0  0  0  0  1  0  0  0  0  0  0
  161.8550  202.0840  147.2830 C   0  0  0  0  0  2  0  0  0  0  0  0
  161.0490  204.1310  151.7170 C   0  0  0  0  0  0  0  0  0  0  0  0
  161.9320  209.1550  151.1510 C   0  0  0  0  0  2  0  0  0  0  0  0
  161.4690  206.7310  150.7090 C   0  0  0  0  0  0  0  0  0  0  0  0
  160.8660  207.6130  147.8020 C   0  0  0  0  0  2  0  0  0  0  0  0
  163.0640  206.4870  147.3380 C   0  0  0  0  0  1  0  0  0  0  0  0
  161.7340  206.9270  146.7380 C   0  0  1  0  0  3  0  0  0  0  0  0
  161.0130  205.7700  146.0330 C   0  0  0  0  0  3  0  0  0  0  0  0
  159.7360  206.2550  145.3680 C   0  0  0  0  0  1  0  0  0  0  0  0
  161.8960  205.1480  144.9640 C   0  0  0  0  0  1  0  0  0  0  0  0
  1 22  1  0  0  0  0
  1 21  1  0  0  0  0
  2  1  1  0  0  0  0
  3  9  1  0  0  0  0
  5  2  2  0  0  0  0
  6 14  1  0  0  0  0
  7 20  1  0  0  0  0
  8 11  1  0  0  0  0
  9  6  2  0  0  0  0
  9  7  1  0  0  0  0
 11  6  1  0  0  0  0
 12 16  1  0  0  0  0
 12 17  1  0  0  0  0
 13  7  2  0  0  0  0
 13 22  1  0  0  0  0
 14 10  2  0  0  0  0
 15 17  1  0  0  0  0
 16  4  1  0  0  0  0
 18  8  1  0  0  0  0
 19  8  1  0  0  0  0
 19  3  1  0  0  0  0
 20 10  1  0  0  0  0
 20 16  2  0  0  0  0
 21 15  1  0  0  0  0
 22 12  2  0  0  0  0
 23  2  1  0  0  0  0
 25 24  1  1  0  0  0
 25 23  1  0  0  0  0
 26 25  1  0  0  0  0
 27 26  1  0  0  0  0
 28 26  1  0  0  0  0
M  END
>  <MODEL>
5

>  <REMARK>
 VINA RESULT:      -7.0      1.962      5.689
  Name = 
  3 active torsions:
  status: ('A' for Active; 'I' for Inactive)
    1  A    between atoms: C_2  and  C_3
    2  A    between atoms: C_3  and  C_11
    3  A    between atoms: C_6  and  C_11
                            x       y       z     vdW  Elec       q    Type
                         _______ _______ _______ _____ _____    ______ ____

>  <TORSDO>
F 3

$$$$
=
 OpenBabel11052422573D

 28 31  0  0  1  0  0  0  0  0999 V2000
  161.1810  206.7400  148.9090 N   0  0  0  0  0  0  0  0  0  0  0  0
  161.4930  208.0100  148.3020 C   0  0  0  0  0  0  0  0  0  0  0  0
  161.0050  209.9580  152.9550 C   0  0  0  0  0  2  0  0  0  0  0  0
  160.8880  203.7310  152.7630 O   0  0  0  0  0  1  0  0  0  0  0  0
  161.1170  208.2500  147.1240 O   0  0  0  0  0  0  0  0  0  0  0  0
  160.8460  208.3220  154.8770 C   0  0  0  0  0  0  0  0  0  0  0  0
  160.9460  207.4420  152.6070 C   0  0  0  0  0  0  0  0  0  0  0  0
  161.3150  210.6910  155.2620 N   0  0  0  0  0  0  0  0  0  0  0  0
  160.9030  208.5450  153.4840 C   0  0  0  0  0  0  0  0  0  0  0  0
  160.8290  205.9300  154.5100 C   0  0  0  0  0  3  0  0  0  0  0  0
  160.7310  209.4770  155.8310 C   0  0  0  0  0  2  0  0  0  0  0  0
  161.0370  205.2280  150.8670 C   0  0  0  0  0  0  0  0  0  0  0  0
  161.0280  207.6280  151.2230 C   0  0  0  0  0  3  0  0  0  0  0  0
  160.7930  207.0210  155.3780 C   0  0  0  0  0  3  0  0  0  0  0  0
  161.5810  204.3540  148.5750 C   0  0  0  0  0  2  0  0  0  0  0  0
  160.9460  205.0260  152.2540 C   0  0  0  0  0  0  0  0  0  0  0  0
  160.9910  204.0400  149.9440 C   0  0  0  0  0  2  0  0  0  0  0  0
  161.0050  211.7700  156.1810 C   0  0  0  0  0  1  0  0  0  0  0  0
  160.6170  210.9870  154.0150 C   0  0  0  0  0  2  0  0  0  0  0  0
  160.9090  206.1270  153.1250 C   0  0  0  0  0  0  0  0  0  0  0  0
  160.9230  205.6080  148.0200 C   0  0  0  0  0  2  0  0  0  0  0  0
  161.0820  206.5400  150.3410 C   0  0  0  0  0  0  0  0  0  0  0  0
  162.3310  209.0400  149.0050 C   0  0  0  0  0  2  0  0  0  0  0  0
  161.9580  211.0890  150.4100 C   0  0  0  0  0  1  0  0  0  0  0  0
  161.6610  210.4190  149.0740 C   0  0  1  0  0  3  0  0  0  0  0  0
  162.0240  211.3210  147.8870 C   0  0  0  0  0  3  0  0  0  0  0  0
  160.8320  212.1630  147.4650 C   0  0  0  0  0  1  0  0  0  0  0  0
  163.1630  212.2610  148.2460 C   0  0  0  0  0  1  0  0  0  0  0  0
  1 22  1  0  0  0  0
  2  1  1  0  0  0  0
  2 23  1  0  0  0  0
  3  9  1  0  0  0  0
  3 19  1  0  0  0  0
  5  2  2  0  0  0  0
  6 14  1  0  0  0  0
  6 11  1  0  0  0  0
  7 20  1  0  0  0  0
  7  9  1  0  0  0  0
  8 11  1  0  0  0  0
  8 18  1  0  0  0  0
  9  6  2  0  0  0  0
 10 14  2  0  0  0  0
 12 16  1  0  0  0  0
 13  7  2  0  0  0  0
 15 17  1  0  0  0  0
 16  4  1  0  0  0  0
 16 20  2  0  0  0  0
 17 12  1  0  0  0  0
 19  8  1  0  0  0  0
 20 10  1  0  0  0  0
 21 15  1  0  0  0  0
 21  1  1  0  0  0  0
 22 12  2  0  0  0  0
 22 13  1  0  0  0  0
 23 25  1  0  0  0  0
 25 24  1  1  0  0  0
 26 28  1  0  0  0  0
 26 25  1  0  0  0  0
 27 26  1  0  0  0  0
M  END
>  <MODEL>
6

>  <REMARK>
 VINA RESULT:      -6.9      2.378      4.838
  Name = 
  3 active torsions:
  status: ('A' for Active; 'I' for Inactive)
    1  A    between atoms: C_2  and  C_3
    2  A    between atoms: C_3  and  C_11
    3  A    between atoms: C_6  and  C_11
                            x       y       z     vdW  Elec       q    Type
                         _______ _______ _______ _____ _____    ______ ____

>  <TORSDO>
F 3

$$$$
=
 OpenBabel11052422573D

 28 31  0  0  1  0  0  0  0  0999 V2000
  161.7910  210.1380  149.1970 N   0  0  0  0  0  0  0  0  0  0  0  0
  161.9710  208.7350  148.9190 C   0  0  0  0  0  0  0  0  0  0  0  0
  160.9660  207.9930  153.8310 C   0  0  0  0  0  2  0  0  0  0  0  0
  160.0300  213.8370  151.8810 O   0  0  0  0  0  1  0  0  0  0  0  0
  162.8090  208.3700  148.0520 O   0  0  0  0  0  0  0  0  0  0  0  0
  160.0760  209.9690  155.1350 C   0  0  0  0  0  0  0  0  0  0  0  0
  160.7030  210.3020  152.8040 C   0  0  0  0  0  0  0  0  0  0  0  0
  159.9270  207.6930  156.0190 N   0  0  0  0  0  0  0  0  0  0  0  0
  160.6010  209.4570  153.9290 C   0  0  0  0  0  0  0  0  0  0  0  0
  159.8030  212.1450  154.1130 C   0  0  0  0  0  3  0  0  0  0  0  0
  160.0180  209.1110  156.3670 C   0  0  0  0  0  2  0  0  0  0  0  0
  160.8950  212.0000  150.5640 C   0  0  0  0  0  0  0  0  0  0  0  0
  161.1960  209.8210  151.5860 C   0  0  0  0  0  3  0  0  0  0  0  0
  159.6960  211.3090  155.2230 C   0  0  0  0  0  3  0  0  0  0  0  0
  161.1300  212.2020  148.0710 C   0  0  0  0  0  2  0  0  0  0  0  0
  160.4060  212.4990  151.7820 C   0  0  0  0  0  0  0  0  0  0  0  0
  161.0800  212.9400  149.4030 C   0  0  0  0  0  2  0  0  0  0  0  0
  160.0460  206.9520  157.2600 C   0  0  0  0  0  1  0  0  0  0  0  0
  161.0930  207.3500  155.2100 C   0  0  0  0  0  2  0  0  0  0  0  0
  160.3000  211.6540  152.8990 C   0  0  0  0  0  0  0  0  0  0  0  0
  162.1640  211.0900  148.1510 C   0  0  0  0  0  2  0  0  0  0  0  0
  161.2920  210.6470  150.4590 C   0  0  0  0  0  0  0  0  0  0  0  0
  161.1260  207.6820  149.5790 C   0  0  0  0  0  2  0  0  0  0  0  0
  162.7090  206.5560  151.1730 C   0  0  0  0  0  1  0  0  0  0  0  0
  161.9000  206.3940  149.8910 C   0  0  1  0  0  3  0  0  0  0  0  0
  161.0020  205.1510  149.9340 C   0  0  0  0  0  3  0  0  0  0  0  0
  161.2090  204.2930  148.6970 C   0  0  0  0  0  1  0  0  0  0  0  0
  161.3060  204.3000  151.1550 C   0  0  0  0  0  1  0  0  0  0  0  0
  1 22  1  0  0  0  0
  2  1  1  0  0  0  0
  2 23  1  0  0  0  0
  3  9  1  0  0  0  0
  3 19  1  0  0  0  0
  5  2  2  0  0  0  0
  6 14  1  0  0  0  0
  6 11  1  0  0  0  0
  7 20  1  0  0  0  0
  7  9  1  0  0  0  0
  8 11  1  0  0  0  0
  8 18  1  0  0  0  0
  9  6  2  0  0  0  0
 10 14  2  0  0  0  0
 12 16  1  0  0  0  0
 13  7  2  0  0  0  0
 15 21  1  0  0  0  0
 15 17  1  0  0  0  0
 16  4  1  0  0  0  0
 16 20  2  0  0  0  0
 17 12  1  0  0  0  0
 19  8  1  0  0  0  0
 20 10  1  0  0  0  0
 21  1  1  0  0  0  0
 22 12  2  0  0  0  0
 22 13  1  0  0  0  0
 23 25  1  0  0  0  0
 25 26  1  0  0  0  0
 25 24  1  1  0  0  0
 26 28  1  0  0  0  0
 27 26  1  0  0  0  0
M  END
>  <MODEL>
7

>  <REMARK>
 VINA RESULT:      -6.9      3.206      6.527
  Name = 
  3 active torsions:
  status: ('A' for Active; 'I' for Inactive)
    1  A    between atoms: C_2  and  C_3
    2  A    between atoms: C_3  and  C_11
    3  A    between atoms: C_6  and  C_11
                            x       y       z     vdW  Elec       q    Type
                         _______ _______ _______ _____ _____    ______ ____

>  <TORSDO>
F 3

$$$$
=
 OpenBabel11052422573D

 28 31  0  0  1  0  0  0  0  0999 V2000
  161.4970  205.3320  151.6160 N   0  0  0  0  0  0  0  0  0  0  0  0
  161.6620  206.7580  151.4840 C   0  0  0  0  0  0  0  0  0  0  0  0
  161.8470  205.9220  146.4890 C   0  0  0  0  0  2  0  0  0  0  0  0
  160.2620  200.9290  149.8630 O   0  0  0  0  0  1  0  0  0  0  0  0
  162.2900  207.4010  152.3670 O   0  0  0  0  0  0  0  0  0  0  0  0
  161.2060  203.6120  145.6840 C   0  0  0  0  0  0  0  0  0  0  0  0
  161.2660  204.0320  148.0830 C   0  0  0  0  0  0  0  0  0  0  0  0
  161.3530  205.5000  144.1370 N   0  0  0  0  0  0  0  0  0  0  0  0
  161.4590  204.4870  146.7630 C   0  0  0  0  0  0  0  0  0  0  0  0
  160.6220  201.8460  147.2310 C   0  0  0  0  0  3  0  0  0  0  0  0
  161.4680  204.0480  144.2700 C   0  0  0  0  0  2  0  0  0  0  0  0
  160.8700  203.1110  150.7160 C   0  0  0  0  0  0  0  0  0  0  0  0
  161.4830  204.8810  149.1750 C   0  0  0  0  0  3  0  0  0  0  0  0
  160.8060  202.2970  145.9250 C   0  0  0  0  0  3  0  0  0  0  0  0
  160.5150  203.6920  153.1350 C   0  0  0  0  0  2  0  0  0  0  0  0
  160.6570  202.2450  149.6310 C   0  0  0  0  0  0  0  0  0  0  0  0
  160.7450  202.5790  152.1190 C   0  0  0  0  0  2  0  0  0  0  0  0
  161.7850  205.8280  142.7910 C   0  0  0  0  0  1  0  0  0  0  0  0
  162.3140  206.1160  145.0470 C   0  0  0  0  0  2  0  0  0  0  0  0
  160.8440  202.7020  148.3170 C   0  0  0  0  0  0  0  0  0  0  0  0
  161.5820  204.7610  152.9600 C   0  0  0  0  0  2  0  0  0  0  0  0
  161.2840  204.4440  150.4910 C   0  0  0  0  0  0  0  0  0  0  0  0
  161.0330  207.5280  150.3570 C   0  0  0  0  0  2  0  0  0  0  0  0
  161.9800  208.5430  148.2630 C   0  0  0  0  0  1  0  0  0  0  0  0
  161.9500  208.6170  149.7840 C   0  0  1  0  0  3  0  0  0  0  0  0
  161.5910  210.0240  150.2820 C   0  0  0  0  0  3  0  0  0  0  0  0
  162.3310  210.3460  151.5690 C   0  0  0  0  0  1  0  0  0  0  0  0
  161.9580  211.0770  149.2500 C   0  0  0  0  0  1  0  0  0  0  0  0
  1 21  1  0  0  0  0
  2  1  1  0  0  0  0
  2  5  2  0  0  0  0
  3  9  1  0  0  0  0
  6 14  2  0  0  0  0
  6  9  1  0  0  0  0
  7 20  1  0  0  0  0
  7 13  1  0  0  0  0
  8 11  1  0  0  0  0
  8 19  1  0  0  0  0
  9  7  2  0  0  0  0
 10 20  2  0  0  0  0
 11  6  1  0  0  0  0
 12 17  1  0  0  0  0
 13 22  2  0  0  0  0
 14 10  1  0  0  0  0
 16  4  1  0  0  0  0
 16 12  2  0  0  0  0
 17 15  1  0  0  0  0
 18  8  1  0  0  0  0
 19  3  1  0  0  0  0
 20 16  1  0  0  0  0
 21 15  1  0  0  0  0
 22 12  1  0  0  0  0
 22  1  1  0  0  0  0
 23  2  1  0  0  0  0
 25 24  1  6  0  0  0
 25 26  1  0  0  0  0
 25 23  1  0  0  0  0
 26 27  1  0  0  0  0
 28 26  1  0  0  0  0
M  END
>  <MODEL>
8

>  <REMARK>
 VINA RESULT:      -6.8      1.874      5.858
  Name = 
  3 active torsions:
  status: ('A' for Active; 'I' for Inactive)
    1  A    between atoms: C_2  and  C_3
    2  A    between atoms: C_3  and  C_11
    3  A    between atoms: C_6  and  C_11
                            x       y       z     vdW  Elec       q    Type
                         _______ _______ _______ _____ _____    ______ ____

>  <TORSDO>
F 3

$$$$
=
 OpenBabel11052422573D

 28 31  0  0  1  0  0  0  0  0999 V2000
  161.2060  209.0250  153.8460 N   0  0  0  0  0  0  0  0  0  0  0  0
  161.0780  210.3010  153.1880 C   0  0  0  0  0  0  0  0  0  0  0  0
  161.2920  207.6930  148.8480 C   0  0  0  0  0  2  0  0  0  0  0  0
  160.8310  204.1420  153.9480 O   0  0  0  0  0  1  0  0  0  0  0  0
  161.5880  211.3290  153.7090 O   0  0  0  0  0  0  0  0  0  0  0  0
  161.1060  205.1760  149.0080 C   0  0  0  0  0  0  0  0  0  0  0  0
  161.1450  206.4720  151.0700 C   0  0  0  0  0  0  0  0  0  0  0  0
  160.8300  206.3360  146.8730 N   0  0  0  0  0  0  0  0  0  0  0  0
  161.2070  206.4220  149.6630 C   0  0  0  0  0  0  0  0  0  0  0  0
  160.9290  204.0490  151.1420 C   0  0  0  0  0  3  0  0  0  0  0  0
  161.2370  205.0860  147.5130 C   0  0  0  0  0  2  0  0  0  0  0  0
  161.0120  206.5550  153.8830 C   0  0  0  0  0  0  0  0  0  0  0  0
  161.2160  207.6920  151.7510 C   0  0  0  0  0  3  0  0  0  0  0  0
  160.9840  204.0000  149.7490 C   0  0  0  0  0  3  0  0  0  0  0  0
  160.6130  207.9320  155.9470 C   0  0  0  0  0  2  0  0  0  0  0  0
  160.9480  205.3220  153.2150 C   0  0  0  0  0  0  0  0  0  0  0  0
  161.0350  206.5780  155.3890 C   0  0  0  0  0  2  0  0  0  0  0  0
  161.1500  206.2040  145.4640 C   0  0  0  0  0  1  0  0  0  0  0  0
  161.6720  207.4080  147.3960 C   0  0  0  0  0  2  0  0  0  0  0  0
  161.0040  205.2760  151.8130 C   0  0  0  0  0  0  0  0  0  0  0  0
  161.4390  209.0260  155.2890 C   0  0  0  0  0  2  0  0  0  0  0  0
  161.1450  207.7550  153.1490 C   0  0  0  0  0  0  0  0  0  0  0  0
  160.2770  210.4660  151.9270 C   0  0  0  0  0  2  0  0  0  0  0  0
  158.4140  211.3640  153.3520 C   0  0  0  0  0  1  0  0  0  0  0  0
  159.1780  211.5300  152.0440 C   0  0  1  0  0  3  0  0  0  0  0  0
  159.7070  212.9600  151.8670 C   0  0  0  0  0  3  0  0  0  0  0  0
  159.7700  213.3340  150.3960 C   0  0  0  0  0  1  0  0  0  0  0  0
  158.8100  213.9640  152.5710 C   0  0  0  0  0  1  0  0  0  0  0  0
  1 21  1  0  0  0  0
  2  5  2  0  0  0  0
  2  1  1  0  0  0  0
  3  9  1  0  0  0  0
  6  9  2  0  0  0  0
  6 14  1  0  0  0  0
  7 13  2  0  0  0  0
  7 20  1  0  0  0  0
  8 19  1  0  0  0  0
  8 11  1  0  0  0  0
  9  7  1  0  0  0  0
 10 20  1  0  0  0  0
 11  6  1  0  0  0  0
 12 17  1  0  0  0  0
 13 22  1  0  0  0  0
 14 10  2  0  0  0  0
 16 12  1  0  0  0  0
 16  4  1  0  0  0  0
 17 15  1  0  0  0  0
 18  8  1  0  0  0  0
 19  3  1  0  0  0  0
 20 16  2  0  0  0  0
 21 15  1  0  0  0  0
 22  1  1  0  0  0  0
 22 12  2  0  0  0  0
 23 25  1  0  0  0  0
 23  2  1  0  0  0  0
 25 24  1  1  0  0  0
 26 25  1  0  0  0  0
 26 28  1  0  0  0  0
 27 26  1  0  0  0  0
M  END
>  <MODEL>
9

>  <REMARK>
 VINA RESULT:      -6.8      2.626      6.668
  Name = 
  3 active torsions:
  status: ('A' for Active; 'I' for Inactive)
    1  A    between atoms: C_2  and  C_3
    2  A    between atoms: C_3  and  C_11
    3  A    between atoms: C_6  and  C_11
                            x       y       z     vdW  Elec       q    Type
                         _______ _______ _______ _____ _____    ______ ____

>  <TORSDO>
F 3

$$$$
