=
 OpenBabel11052423163D

 27 30  0  0  1  0  0  0  0  0999 V2000
  160.1810  206.0850  149.4860 C   0  0  0  0  0  2  0  0  0  0  0  0
  161.6890  206.4390  149.4590 C   0  0  2  0  0  3  0  0  0  0  0  0
  161.1670  205.1560  148.7570 C   0  0  2  0  0  0  0  0  0  0  0  0
  162.5830  205.5350  145.0920 C   0  0  0  0  0  2  0  0  0  0  0  0
  161.3060  205.5960  144.2920 C   0  0  0  0  0  2  0  0  0  0  0  0
  161.3130  205.3900  147.2140 C   0  0  1  0  0  3  0  0  0  0  0  0
  163.7220  204.8030  146.9550 O   0  0  0  0  0  1  0  0  0  0  0  0
  160.0440  205.9870  145.0910 C   0  0  0  0  0  2  0  0  0  0  0  0
  160.4030  206.4400  146.4950 C   0  0  0  0  0  2  0  0  0  0  0  0
  162.4700  204.7720  146.4170 C   0  0  2  0  0  3  0  0  0  0  0  0
  160.8320  201.1840  149.9750 C   0  0  0  0  0  3  0  0  0  0  0  0
  161.1840  203.8260  149.3090 C   0  0  0  0  0  0  0  0  0  0  0  0
  161.1870  202.8360  148.3110 C   0  0  0  0  0  3  0  0  0  0  0  0
  160.9820  201.5040  148.6590 C   0  0  0  0  0  3  0  0  0  0  0  0
  160.8230  202.1770  150.9670 C   0  0  0  0  0  3  0  0  0  0  0  0
  160.9230  203.5430  150.6420 C   0  0  0  0  0  3  0  0  0  0  0  0
  162.4870  206.1070  150.7620 C   0  0  0  0  0  2  0  0  0  0  0  0
  160.7230  207.1590  153.8960 C   0  0  0  0  0  3  0  0  0  0  0  0
  160.2420  209.0960  155.0500 O   0  0  0  0  0  1  0  0  0  0  0  0
  161.4400  209.2310  152.8840 C   0  0  0  0  0  0  0  0  0  0  0  0
  161.5140  210.5880  153.0170 O   0  0  0  0  0  1  0  0  0  0  0  0
  161.9840  208.4940  151.7570 C   0  0  0  0  0  0  0  0  0  0  0  0
  160.7930  208.4830  153.9330 C   0  0  0  0  0  0  0  0  0  0  0  0
  161.9560  207.0940  151.8320 C   0  0  0  0  0  0  0  0  0  0  0  0
  161.3430  206.4660  152.8630 C   0  0  0  0  0  3  0  0  0  0  0  0
  161.8030  209.9160  149.8290 O   0  0  0  0  0  1  0  0  0  0  0  0
  162.5810  209.1320  150.6810 O   0  0  0  0  0  0  0  0  0  0  0  0
  2  1  1  0  0  0  0
  2 17  1  1  0  0  0
  3 12  1  1  0  0  0
  3  2  1  0  0  0  0
  3  1  1  0  0  0  0
  4 10  1  0  0  0  0
  5  8  1  0  0  0  0
  5  4  1  0  0  0  0
  6  9  1  1  0  0  0
  6  3  1  0  0  0  0
  8  9  1  0  0  0  0
 10  7  1  1  0  0  0
 10  6  1  0  0  0  0
 11 15  1  0  0  0  0
 12 16  1  0  0  0  0
 13 14  1  0  0  0  0
 13 12  2  0  0  0  0
 14 11  2  0  0  0  0
 16 15  2  0  0  0  0
 17 24  1  0  0  0  0
 18 23  1  0  0  0  0
 20 21  1  0  0  0  0
 20 23  2  0  0  0  0
 22 24  2  0  0  0  0
 22 20  1  0  0  0  0
 23 19  1  0  0  0  0
 24 25  1  0  0  0  0
 25 18  2  0  0  0  0
 26 27  1  0  0  0  0
 27 22  1  0  0  0  0
M  END
>  <MODEL>
1

>  <REMARK>
 VINA RESULT:      -9.7      0.000      0.000
  Name = 
  5 active torsions:
  status: ('A' for Active; 'I' for Inactive)
    1  A    between atoms: C_2  and  C_6
    2  A    between atoms: C_6  and  C_17
    3  A    between atoms: C_9  and  C_15
    4  A    between atoms: C_14  and  O_19
    5  A    between atoms: C_15  and  C_18
                            x       y       z     vdW  Elec       q    Type
                         _______ _______ _______ _____ _____    ______ ____

>  <TORSDO>
F 5

$$$$
=
 OpenBabel11052423163D

 27 30  0  0  1  0  0  0  0  0999 V2000
  160.0810  206.2740  149.2660 C   0  0  0  0  0  2  0  0  0  0  0  0
  161.5750  206.6840  149.2550 C   0  0  2  0  0  3  0  0  0  0  0  0
  161.1260  205.3210  148.6610 C   0  0  2  0  0  0  0  0  0  0  0  0
  162.6570  205.3980  145.0240 C   0  0  0  0  0  2  0  0  0  0  0  0
  161.4070  205.3530  144.1820 C   0  0  0  0  0  2  0  0  0  0  0  0
  161.3190  205.4160  147.1090 C   0  0  1  0  0  3  0  0  0  0  0  0
  163.7480  204.8690  146.9820 O   0  0  0  0  0  1  0  0  0  0  0  0
  160.1110  205.7840  144.9000 C   0  0  0  0  0  2  0  0  0  0  0  0
  160.4110  206.3720  146.2670 C   0  0  0  0  0  2  0  0  0  0  0  0
  162.5160  204.7570  146.4100 C   0  0  2  0  0  3  0  0  0  0  0  0
  160.8400  201.4920  150.2830 C   0  0  0  0  0  3  0  0  0  0  0  0
  161.1710  204.0500  149.3360 C   0  0  0  0  0  0  0  0  0  0  0  0
  161.0750  202.9690  148.4430 C   0  0  0  0  0  3  0  0  0  0  0  0
  160.8810  201.6820  148.9340 C   0  0  0  0  0  3  0  0  0  0  0  0
  160.9300  202.5750  151.1710 C   0  0  0  0  0  3  0  0  0  0  0  0
  161.0210  203.9020  150.7080 C   0  0  0  0  0  3  0  0  0  0  0  0
  162.3360  206.5060  150.6090 C   0  0  0  0  0  2  0  0  0  0  0  0
  162.0980  210.0780  151.7150 C   0  0  0  0  0  3  0  0  0  0  0  0
  161.0970  211.3160  153.3820 O   0  0  0  0  0  1  0  0  0  0  0  0
  160.8450  208.8500  153.3740 C   0  0  0  0  0  0  0  0  0  0  0  0
  160.0560  208.9340  154.4850 O   0  0  0  0  0  1  0  0  0  0  0  0
  161.1820  207.6050  152.7080 C   0  0  0  0  0  0  0  0  0  0  0  0
  161.3630  210.0760  152.8190 C   0  0  0  0  0  0  0  0  0  0  0  0
  161.8820  207.6930  151.4960 C   0  0  0  0  0  0  0  0  0  0  0  0
  162.3200  208.8880  151.0340 C   0  0  0  0  0  3  0  0  0  0  0  0
  161.6640  205.5830  153.9130 O   0  0  0  0  0  1  0  0  0  0  0  0
  160.7670  206.3750  153.1960 O   0  0  0  0  0  0  0  0  0  0  0  0
  2  1  1  0  0  0  0
  2 17  1  1  0  0  0
  3  2  1  0  0  0  0
  3  1  1  0  0  0  0
  3 12  1  1  0  0  0
  4 10  1  0  0  0  0
  5  8  1  0  0  0  0
  5  4  1  0  0  0  0
  6  9  1  1  0  0  0
  6  3  1  0  0  0  0
  8  9  1  0  0  0  0
 10  7  1  1  0  0  0
 10  6  1  0  0  0  0
 11 15  1  0  0  0  0
 12 16  1  0  0  0  0
 13 14  1  0  0  0  0
 13 12  2  0  0  0  0
 14 11  2  0  0  0  0
 16 15  2  0  0  0  0
 17 24  1  0  0  0  0
 18 23  1  0  0  0  0
 20 21  1  0  0  0  0
 22 27  1  0  0  0  0
 22 20  1  0  0  0  0
 23 20  2  0  0  0  0
 23 19  1  0  0  0  0
 24 22  2  0  0  0  0
 25 24  1  0  0  0  0
 25 18  2  0  0  0  0
 27 26  1  0  0  0  0
M  END
>  <MODEL>
2

>  <REMARK>
 VINA RESULT:      -9.4      1.180      1.950
  Name = 
  5 active torsions:
  status: ('A' for Active; 'I' for Inactive)
    1  A    between atoms: C_2  and  C_6
    2  A    between atoms: C_6  and  C_17
    3  A    between atoms: C_9  and  C_15
    4  A    between atoms: C_14  and  O_19
    5  A    between atoms: C_15  and  C_18
                            x       y       z     vdW  Elec       q    Type
                         _______ _______ _______ _____ _____    ______ ____

>  <TORSDO>
F 5

$$$$
=
 OpenBabel11052423163D

 27 30  0  0  1  0  0  0  0  0999 V2000
  162.0450  209.8720  153.0590 C   0  0  0  0  0  2  0  0  0  0  0  0
  160.9250  209.1250  152.2930 C   0  0  2  0  0  3  0  0  0  0  0  0
  160.6420  209.7610  153.6800 C   0  0  2  0  0  0  0  0  0  0  0  0
  157.6870  212.3710  153.8830 C   0  0  0  0  0  2  0  0  0  0  0  0
  158.2070  213.4680  152.9890 C   0  0  0  0  0  2  0  0  0  0  0  0
  159.6890  210.9810  153.4350 C   0  0  1  0  0  3  0  0  0  0  0  0
  158.1050  210.6270  155.3280 O   0  0  0  0  0  1  0  0  0  0  0  0
  159.3090  213.0440  151.9940 C   0  0  0  0  0  2  0  0  0  0  0  0
  159.4880  211.5370  151.9870 C   0  0  0  0  0  2  0  0  0  0  0  0
  158.7760  211.5200  154.5460 C   0  0  2  0  0  3  0  0  0  0  0  0
  161.2080  207.7040  157.2610 C   0  0  0  0  0  3  0  0  0  0  0  0
  160.6490  209.0700  154.9440 C   0  0  0  0  0  0  0  0  0  0  0  0
  161.7200  209.4690  155.7630 C   0  0  0  0  0  3  0  0  0  0  0  0
  162.0080  208.7530  156.9200 C   0  0  0  0  0  3  0  0  0  0  0  0
  160.1440  207.3050  156.4360 C   0  0  0  0  0  3  0  0  0  0  0  0
  159.8870  207.9410  155.2070 C   0  0  0  0  0  3  0  0  0  0  0  0
  160.9770  207.5640  152.3680 C   0  0  0  0  0  2  0  0  0  0  0  0
  161.6760  207.9130  148.7040 C   0  0  0  0  0  3  0  0  0  0  0  0
  161.8470  206.5750  146.8340 O   0  0  0  0  0  1  0  0  0  0  0  0
  161.2310  205.5590  149.0100 C   0  0  0  0  0  0  0  0  0  0  0  0
  161.1920  204.3290  148.4170 O   0  0  0  0  0  1  0  0  0  0  0  0
  160.9640  205.7920  150.4180 C   0  0  0  0  0  0  0  0  0  0  0  0
  161.5730  206.6950  148.1890 C   0  0  0  0  0  0  0  0  0  0  0  0
  161.1830  207.0880  150.9080 C   0  0  0  0  0  0  0  0  0  0  0  0
  161.5200  208.0980  150.0720 C   0  0  0  0  0  3  0  0  0  0  0  0
  161.5310  203.8370  151.6940 O   0  0  0  0  0  1  0  0  0  0  0  0
  160.5820  204.7690  151.2730 O   0  0  0  0  0  0  0  0  0  0  0  0
  1  3  1  0  0  0  0
  2 17  1  1  0  0  0
  2  1  1  0  0  0  0
  2  3  1  0  0  0  0
  3 12  1  1  0  0  0
  4 10  1  0  0  0  0
  5  4  1  0  0  0  0
  6  9  1  6  0  0  0
  6  3  1  0  0  0  0
  6 10  1  0  0  0  0
  8  5  1  0  0  0  0
  9  8  1  0  0  0  0
 10  7  1  6  0  0  0
 12 16  2  0  0  0  0
 12 13  1  0  0  0  0
 13 14  2  0  0  0  0
 14 11  1  0  0  0  0
 15 11  2  0  0  0  0
 16 15  1  0  0  0  0
 18 25  1  0  0  0  0
 19 23  1  0  0  0  0
 20 22  2  0  0  0  0
 21 20  1  0  0  0  0
 22 24  1  0  0  0  0
 22 27  1  0  0  0  0
 23 18  2  0  0  0  0
 23 20  1  0  0  0  0
 24 17  1  0  0  0  0
 25 24  2  0  0  0  0
 27 26  1  0  0  0  0
M  END
>  <MODEL>
3

>  <REMARK>
 VINA RESULT:      -7.2      2.924      7.874
  Name = 
  5 active torsions:
  status: ('A' for Active; 'I' for Inactive)
    1  A    between atoms: C_2  and  C_6
    2  A    between atoms: C_6  and  C_17
    3  A    between atoms: C_9  and  C_15
    4  A    between atoms: C_14  and  O_19
    5  A    between atoms: C_15  and  C_18
                            x       y       z     vdW  Elec       q    Type
                         _______ _______ _______ _____ _____    ______ ____

>  <TORSDO>
F 5

$$$$
=
 OpenBabel11052423163D

 27 30  0  0  1  0  0  0  0  0999 V2000
  162.0020  209.7850  152.6870 C   0  0  0  0  0  2  0  0  0  0  0  0
  160.8310  208.9330  152.1360 C   0  0  2  0  0  3  0  0  0  0  0  0
  160.7430  209.5750  153.5470 C   0  0  2  0  0  0  0  0  0  0  0  0
  158.7260  212.8360  152.6100 C   0  0  0  0  0  2  0  0  0  0  0  0
  157.4010  212.5590  153.2730 C   0  0  0  0  0  2  0  0  0  0  0  0
  159.6640  210.7080  153.4650 C   0  0  1  0  0  3  0  0  0  0  0  0
  160.6430  212.0480  151.6050 O   0  0  0  0  0  1  0  0  0  0  0  0
  157.4340  211.5030  154.3990 C   0  0  0  0  0  2  0  0  0  0  0  0
  158.8610  211.1150  154.7440 C   0  0  0  0  0  2  0  0  0  0  0  0
  159.5150  211.5830  152.2120 C   0  0  2  0  0  3  0  0  0  0  0  0
  161.0290  207.7000  157.2590 C   0  0  0  0  0  3  0  0  0  0  0  0
  161.0300  208.9140  154.7940 C   0  0  0  0  0  0  0  0  0  0  0  0
  160.0990  207.9030  155.0870 C   0  0  0  0  0  3  0  0  0  0  0  0
  160.0920  207.3140  156.3470 C   0  0  0  0  0  3  0  0  0  0  0  0
  161.9530  208.7150  156.9640 C   0  0  0  0  0  3  0  0  0  0  0  0
  161.9220  209.4050  155.7370 C   0  0  0  0  0  3  0  0  0  0  0  0
  161.0260  207.3840  152.2120 C   0  0  0  0  0  2  0  0  0  0  0  0
  161.6780  207.7620  148.5420 C   0  0  0  0  0  3  0  0  0  0  0  0
  161.8200  206.4390  146.6590 O   0  0  0  0  0  1  0  0  0  0  0  0
  161.2300  205.4060  148.8340 C   0  0  0  0  0  0  0  0  0  0  0  0
  161.1790  204.1820  148.2320 O   0  0  0  0  0  1  0  0  0  0  0  0
  160.9810  205.6280  150.2470 C   0  0  0  0  0  0  0  0  0  0  0  0
  161.5650  206.5480  148.0190 C   0  0  0  0  0  0  0  0  0  0  0  0
  161.2110  206.9190  150.7450 C   0  0  0  0  0  0  0  0  0  0  0  0
  161.5410  207.9350  149.9130 C   0  0  0  0  0  3  0  0  0  0  0  0
  161.5700  203.6940  151.5440 O   0  0  0  0  0  1  0  0  0  0  0  0
  160.6080  204.5990  151.0980 O   0  0  0  0  0  0  0  0  0  0  0  0
  1  3  1  0  0  0  0
  2 17  1  1  0  0  0
  2  1  1  0  0  0  0
  2  3  1  0  0  0  0
  3 12  1  1  0  0  0
  4  5  1  0  0  0  0
  5  8  1  0  0  0  0
  6  3  1  0  0  0  0
  6  9  1  1  0  0  0
  8  9  1  0  0  0  0
 10  7  1  1  0  0  0
 10  4  1  0  0  0  0
 10  6  1  0  0  0  0
 12 13  2  0  0  0  0
 12 16  1  0  0  0  0
 13 14  1  0  0  0  0
 14 11  2  0  0  0  0
 15 11  1  0  0  0  0
 16 15  2  0  0  0  0
 18 25  1  0  0  0  0
 19 23  1  0  0  0  0
 20 22  2  0  0  0  0
 21 20  1  0  0  0  0
 22 24  1  0  0  0  0
 22 27  1  0  0  0  0
 23 18  2  0  0  0  0
 23 20  1  0  0  0  0
 24 17  1  0  0  0  0
 25 24  2  0  0  0  0
 27 26  1  0  0  0  0
M  END
>  <MODEL>
4

>  <REMARK>
 VINA RESULT:      -7.2      2.841      7.726
  Name = 
  5 active torsions:
  status: ('A' for Active; 'I' for Inactive)
    1  A    between atoms: C_2  and  C_6
    2  A    between atoms: C_6  and  C_17
    3  A    between atoms: C_9  and  C_15
    4  A    between atoms: C_14  and  O_19
    5  A    between atoms: C_15  and  C_18
                            x       y       z     vdW  Elec       q    Type
                         _______ _______ _______ _____ _____    ______ ____

>  <TORSDO>
F 5

$$$$
=
 OpenBabel11052423163D

 27 30  0  0  1  0  0  0  0  0999 V2000
  162.8310  206.2940  151.2590 C   0  0  0  0  0  2  0  0  0  0  0  0
  161.5600  206.2110  150.3770 C   0  0  2  0  0  3  0  0  0  0  0  0
  161.7230  207.3490  151.4210 C   0  0  2  0  0  0  0  0  0  0  0  0
  162.6020  210.0060  148.6360 C   0  0  0  0  0  2  0  0  0  0  0  0
  161.9560  211.2440  149.2020 C   0  0  0  0  0  2  0  0  0  0  0  0
  161.9240  208.6790  150.6160 C   0  0  1  0  0  3  0  0  0  0  0  0
  162.6540  207.7110  148.4370 O   0  0  0  0  0  1  0  0  0  0  0  0
  161.6780  211.2090  150.7200 C   0  0  0  0  0  2  0  0  0  0  0  0
  162.3180  209.9940  151.3660 C   0  0  0  0  0  2  0  0  0  0  0  0
  161.9550  208.6880  149.0810 C   0  0  2  0  0  3  0  0  0  0  0  0
  160.3980  207.8570  155.3400 C   0  0  0  0  0  3  0  0  0  0  0  0
  161.1640  207.3650  152.7470 C   0  0  0  0  0  0  0  0  0  0  0  0
  160.7370  208.6480  153.1300 C   0  0  0  0  0  3  0  0  0  0  0  0
  160.3760  208.8910  154.4520 C   0  0  0  0  0  3  0  0  0  0  0  0
  160.8310  206.5790  154.9540 C   0  0  0  0  0  3  0  0  0  0  0  0
  161.3020  206.3220  153.6530 C   0  0  0  0  0  3  0  0  0  0  0  0
  160.4920  205.1600  150.8250 C   0  0  0  0  0  2  0  0  0  0  0  0
  161.1280  201.5520  150.0400 C   0  0  0  0  0  3  0  0  0  0  0  0
  161.4270  200.2030  148.1940 O   0  0  0  0  0  1  0  0  0  0  0  0
  161.1300  202.6460  147.8870 C   0  0  0  0  0  0  0  0  0  0  0  0
  161.2060  202.4780  146.5330 O   0  0  0  0  0  1  0  0  0  0  0  0
  160.9330  203.9290  148.5370 C   0  0  0  0  0  0  0  0  0  0  0  0
  161.2380  201.4740  148.7200 C   0  0  0  0  0  0  0  0  0  0  0  0
  160.7330  203.9210  149.9250 C   0  0  0  0  0  0  0  0  0  0  0  0
  160.8340  202.7720  150.6340 C   0  0  0  0  0  3  0  0  0  0  0  0
  161.8000  205.3630  146.8160 O   0  0  0  0  0  1  0  0  0  0  0  0
  160.8650  205.1130  147.8200 O   0  0  0  0  0  0  0  0  0  0  0  0
  1  3  1  0  0  0  0
  2 17  1  1  0  0  0
  2  1  1  0  0  0  0
  2  3  1  0  0  0  0
  3 12  1  1  0  0  0
  4 10  1  0  0  0  0
  4  5  1  0  0  0  0
  5  8  1  0  0  0  0
  6  9  1  1  0  0  0
  6  3  1  0  0  0  0
  8  9  1  0  0  0  0
 10  7  1  1  0  0  0
 10  6  1  0  0  0  0
 12 13  2  0  0  0  0
 12 16  1  0  0  0  0
 13 14  1  0  0  0  0
 14 11  2  0  0  0  0
 15 11  1  0  0  0  0
 16 15  2  0  0  0  0
 18 25  1  0  0  0  0
 19 23  1  0  0  0  0
 20 22  2  0  0  0  0
 20 23  1  0  0  0  0
 21 20  1  0  0  0  0
 22 24  1  0  0  0  0
 23 18  2  0  0  0  0
 24 25  2  0  0  0  0
 24 17  1  0  0  0  0
 26 27  1  0  0  0  0
 27 22  1  0  0  0  0
M  END
>  <MODEL>
5

>  <REMARK>
 VINA RESULT:      -7.1      2.658      6.447
  Name = 
  5 active torsions:
  status: ('A' for Active; 'I' for Inactive)
    1  A    between atoms: C_2  and  C_6
    2  A    between atoms: C_6  and  C_17
    3  A    between atoms: C_9  and  C_15
    4  A    between atoms: C_14  and  O_19
    5  A    between atoms: C_15  and  C_18
                            x       y       z     vdW  Elec       q    Type
                         _______ _______ _______ _____ _____    ______ ____

>  <TORSDO>
F 5

$$$$
