=
 OpenBabel11052422183D

 25 28  0  0  1  0  0  0  0  0999 V2000
  161.0700  205.1460  149.3860 C   0  0  0  0  0  0  0  0  0  0  0  0
  160.9510  206.2930  150.0450 C   0  0  0  0  0  0  0  0  0  0  0  0
  161.0210  206.2820  147.1620 C   0  0  0  0  0  3  0  0  0  0  0  0
  161.1330  203.7660  149.8190 C   0  0  2  0  0  3  0  0  0  0  0  0
  160.8650  207.4540  152.1600 N   0  0  0  0  0  0  0  0  0  0  0  0
  160.8330  200.9590  150.0460 C   0  0  0  0  0  2  0  0  0  0  0  0
  160.9240  207.4260  147.7810 N   0  0  0  0  0  0  0  0  0  0  0  0
  161.1760  203.0400  148.7030 C   0  0  0  0  0  0  0  0  0  0  0  0
  161.2890  201.5440  148.7020 C   0  0  0  0  0  2  0  0  0  0  0  0
  161.9790  208.6370  149.6650 C   0  0  0  0  0  0  0  0  0  0  0  0
  162.3530  209.6970  148.6810 C   0  0  0  0  0  1  0  0  0  0  0  0
  160.8090  206.2850  151.4310 O   0  0  0  0  0  0  0  0  0  0  0  0
  161.4610  201.7290  151.2150 C   0  0  0  0  0  2  0  0  0  0  0  0
  161.1220  205.0700  147.9590 C   0  0  0  0  0  0  0  0  0  0  0  0
  161.1830  203.8540  147.5220 N   0  0  0  0  0  0  0  0  0  0  0  0
  162.4670  208.8010  150.9080 C   0  0  0  0  0  3  0  0  0  0  0  0
  161.0140  203.1950  151.2010 C   0  0  0  0  0  2  0  0  0  0  0  0
  162.2400  207.9230  152.1030 C   0  0  0  0  0  2  0  0  0  0  0  0
  160.9300  207.6080  149.2570 C   0  0  0  0  0  0  0  0  0  0  0  0
  160.5180  207.1640  153.5570 C   0  0  0  0  0  2  0  0  0  0  0  0
  161.2080  207.5490  155.9220 C   0  0  0  0  0  1  0  0  0  0  0  0
  161.0540  208.1950  154.5590 C   0  0  2  0  0  3  0  0  0  0  0  0
  160.1630  209.3910  154.6560 C   0  0  0  0  0  0  0  0  0  0  0  0
  159.3250  209.5340  155.7530 O   0  0  0  0  0  1  0  0  0  0  0  0
  160.1610  210.2670  153.7490 O   0  0  0  0  0  0  0  0  0  0  0  0
  1  4  1  0  0  0  0
  1  2  1  0  0  0  0
  2 12  1  0  0  0  0
  3  7  2  0  0  0  0
  3 14  1  0  0  0  0
  4 17  1  6  0  0  0
  5 20  1  0  0  0  0
  6 13  1  0  0  0  0
  7 19  1  0  0  0  0
  8  4  1  0  0  0  0
  9  8  1  0  0  0  0
  9  6  1  0  0  0  0
 10 16  2  0  0  0  0
 11 10  1  0  0  0  0
 12  5  1  0  0  0  0
 14  1  2  0  0  0  0
 15 14  1  0  0  0  0
 15  8  2  0  0  0  0
 16 18  1  0  0  0  0
 17 13  1  0  0  0  0
 18  5  1  0  0  0  0
 19 10  1  0  0  0  0
 19  2  2  0  0  0  0
 20 22  1  0  0  0  0
 22 23  1  0  0  0  0
 22 21  1  1  0  0  0
 23 24  1  0  0  0  0
 25 23  2  0  0  0  0
M  END
>  <MODEL>
1

>  <REMARK>
 VINA RESULT:      -7.9      0.000      0.000
  Name = 
  3 active torsions:
  status: ('A' for Active; 'I' for Inactive)
    1  A    between atoms: C_2  and  C_25
    2  A    between atoms: N_6  and  C_15
    3  A    between atoms: C_15  and  C_25
                            x       y       z     vdW  Elec       q    Type
                         _______ _______ _______ _____ _____    ______ ____

>  <TORSDO>
F 3

$$$$
=
 OpenBabel11052422183D

 25 28  0  0  1  0  0  0  0  0999 V2000
  161.4040  205.6990  150.7430 C   0  0  0  0  0  0  0  0  0  0  0  0
  161.6640  206.7640  151.4940 C   0  0  0  0  0  0  0  0  0  0  0  0
  161.1790  204.2060  152.7340 C   0  0  0  0  0  3  0  0  0  0  0  0
  161.3480  205.4970  149.3110 C   0  0  0  0  0  0  0  0  0  0  0  0
  162.1000  209.1360  151.6230 N   0  0  0  0  0  0  0  0  0  0  0  0
  161.5640  204.4390  146.6930 C   0  0  0  0  0  2  0  0  0  0  0  0
  161.4100  205.2380  153.4970 N   0  0  0  0  0  0  0  0  0  0  0  0
  161.1160  204.1950  149.1410 C   0  0  0  0  0  0  0  0  0  0  0  0
  160.9430  203.5640  147.7910 C   0  0  0  0  0  2  0  0  0  0  0  0
  160.6870  207.5930  153.7420 C   0  0  0  0  0  0  0  0  0  0  0  0
  160.2190  207.2320  155.1150 C   0  0  0  0  0  1  0  0  0  0  0  0
  162.0030  207.9730  150.8880 O   0  0  0  0  0  0  0  0  0  0  0  0
  161.1430  205.9040  146.8630 C   0  0  0  0  0  2  0  0  0  0  0  0
  161.1450  204.4050  151.2940 C   0  0  0  0  0  0  0  0  0  0  0  0
  160.9720  203.4990  150.3860 N   0  0  0  0  0  0  0  0  0  0  0  0
  160.3900  208.8410  153.3380 C   0  0  0  0  0  3  0  0  0  0  0  0
  161.6420  206.4610  148.2010 C   0  0  0  0  0  2  0  0  0  0  0  0
  160.7510  209.4900  152.0340 C   0  0  0  0  0  2  0  0  0  0  0  0
  161.6240  206.6300  153.0200 C   0  0  2  0  0  3  0  0  0  0  0  0
  162.6320  210.2010  150.7640 C   0  0  0  0  0  2  0  0  0  0  0  0
  162.0990  209.5980  148.4050 C   0  0  0  0  0  1  0  0  0  0  0  0
  161.7470  210.5240  149.5530 C   0  0  2  0  0  3  0  0  0  0  0  0
  161.8890  211.9490  149.1250 C   0  0  0  0  0  0  0  0  0  0  0  0
  162.9940  212.3330  148.3790 O   0  0  0  0  0  0  0  0  0  0  0  0
  161.0180  212.8040  149.4390 O   0  0  0  0  0  1  0  0  0  0  0  0
  1 14  1  0  0  0  0
  1  2  2  0  0  0  0
  3  7  2  0  0  0  0
  4  1  1  0  0  0  0
  5 18  1  0  0  0  0
  6 13  1  0  0  0  0
  6  9  1  0  0  0  0
  8  4  2  0  0  0  0
  8 15  1  0  0  0  0
  9  8  1  0  0  0  0
 10 11  1  0  0  0  0
 12  2  1  0  0  0  0
 12  5  1  0  0  0  0
 13 17  1  0  0  0  0
 14  3  1  0  0  0  0
 15 14  2  0  0  0  0
 16 10  2  0  0  0  0
 17  4  1  0  0  0  0
 18 16  1  0  0  0  0
 19  2  1  6  0  0  0
 19  7  1  0  0  0  0
 19 10  1  0  0  0  0
 20  5  1  0  0  0  0
 22 21  1  6  0  0  0
 22 20  1  0  0  0  0
 23 25  1  0  0  0  0
 23 22  1  0  0  0  0
 24 23  2  0  0  0  0
M  END
>  <MODEL>
2

>  <REMARK>
 VINA RESULT:      -7.6      2.298      4.712
  Name = 
  3 active torsions:
  status: ('A' for Active; 'I' for Inactive)
    1  A    between atoms: C_2  and  C_25
    2  A    between atoms: N_6  and  C_15
    3  A    between atoms: C_15  and  C_25
                            x       y       z     vdW  Elec       q    Type
                         _______ _______ _______ _____ _____    ______ ____

>  <TORSDO>
F 3

$$$$
=
 OpenBabel11052422183D

 25 28  0  0  1  0  0  0  0  0999 V2000
  161.3490  208.5090  152.9950 C   0  0  0  0  0  0  0  0  0  0  0  0
  161.7410  207.7710  151.9620 C   0  0  0  0  0  0  0  0  0  0  0  0
  162.0560  210.6370  151.8930 C   0  0  0  0  0  3  0  0  0  0  0  0
  160.7900  208.1730  154.2870 C   0  0  2  0  0  3  0  0  0  0  0  0
  161.9110  205.5930  150.9340 N   0  0  0  0  0  0  0  0  0  0  0  0
  160.1420  208.0850  157.0430 C   0  0  0  0  0  2  0  0  0  0  0  0
  162.4310  209.9410  150.8560 N   0  0  0  0  0  0  0  0  0  0  0  0
  160.6660  209.3290  154.9380 C   0  0  0  0  0  0  0  0  0  0  0  0
  160.0810  209.4360  156.3150 C   0  0  0  0  0  2  0  0  0  0  0  0
  161.5780  208.1260  149.4040 C   0  0  0  0  0  0  0  0  0  0  0  0
  161.6980  209.0800  148.2610 C   0  0  0  0  0  1  0  0  0  0  0  0
  161.6860  206.3810  152.0440 O   0  0  0  0  0  0  0  0  0  0  0  0
  159.6440  206.9550  156.1330 C   0  0  0  0  0  2  0  0  0  0  0  0
  161.4670  209.9340  153.0220 C   0  0  0  0  0  0  0  0  0  0  0  0
  161.0780  210.4490  154.1430 N   0  0  0  0  0  0  0  0  0  0  0  0
  161.0070  206.9430  149.1140 C   0  0  0  0  0  3  0  0  0  0  0  0
  160.5340  206.8250  154.8930 C   0  0  0  0  0  2  0  0  0  0  0  0
  160.7790  205.7850  150.0420 C   0  0  0  0  0  2  0  0  0  0  0  0
  162.2870  208.4670  150.7110 C   0  0  0  0  0  0  0  0  0  0  0  0
  161.9560  204.1850  151.3490 C   0  0  0  0  0  2  0  0  0  0  0  0
  160.1390  202.8280  152.3860 C   0  0  0  0  0  1  0  0  0  0  0  0
  160.6540  203.4170  151.0860 C   0  0  2  0  0  3  0  0  0  0  0  0
  160.8420  202.3350  150.0730 C   0  0  0  0  0  0  0  0  0  0  0  0
  160.8310  202.6520  148.7220 O   0  0  0  0  0  0  0  0  0  0  0  0
  161.0070  201.1380  150.4330 O   0  0  0  0  0  1  0  0  0  0  0  0
  1 14  2  0  0  0  0
  1  4  1  0  0  0  0
  2 12  1  0  0  0  0
  2  1  1  0  0  0  0
  3 14  1  0  0  0  0
  4 17  1  1  0  0  0
  4  8  1  0  0  0  0
  5 20  1  0  0  0  0
  5 12  1  0  0  0  0
  7  3  2  0  0  0  0
  8  9  1  0  0  0  0
  9  6  1  0  0  0  0
 10 19  1  0  0  0  0
 11 10  1  0  0  0  0
 13  6  1  0  0  0  0
 14 15  1  0  0  0  0
 15  8  2  0  0  0  0
 16 10  2  0  0  0  0
 16 18  1  0  0  0  0
 17 13  1  0  0  0  0
 18  5  1  0  0  0  0
 19  7  1  0  0  0  0
 19  2  2  0  0  0  0
 22 20  1  0  0  0  0
 22 21  1  1  0  0  0
 23 25  1  0  0  0  0
 23 22  1  0  0  0  0
 24 23  2  0  0  0  0
M  END
>  <MODEL>
3

>  <REMARK>
 VINA RESULT:      -7.0      2.140      6.435
  Name = 
  3 active torsions:
  status: ('A' for Active; 'I' for Inactive)
    1  A    between atoms: C_2  and  C_25
    2  A    between atoms: N_6  and  C_15
    3  A    between atoms: C_15  and  C_25
                            x       y       z     vdW  Elec       q    Type
                         _______ _______ _______ _____ _____    ______ ____

>  <TORSDO>
F 3

$$$$
=
 OpenBabel11052422183D

 25 28  0  0  1  0  0  0  0  0999 V2000
  161.4000  204.6240  150.6810 C   0  0  0  0  0  0  0  0  0  0  0  0
  161.8810  205.7470  150.1580 C   0  0  0  0  0  0  0  0  0  0  0  0
  161.6820  205.4560  153.0200 C   0  0  0  0  0  3  0  0  0  0  0  0
  160.9550  203.3780  150.0940 C   0  0  0  0  0  0  0  0  0  0  0  0
  162.3970  207.0450  148.1880 N   0  0  0  0  0  0  0  0  0  0  0  0
  160.4290  200.6480  149.5550 C   0  0  0  0  0  2  0  0  0  0  0  0
  162.1370  206.5770  152.5350 N   0  0  0  0  0  0  0  0  0  0  0  0
  160.6520  202.5840  151.1200 C   0  0  0  0  0  0  0  0  0  0  0  0
  160.1050  201.1980  150.9510 C   0  0  0  0  0  2  0  0  0  0  0  0
  161.5680  208.2370  150.7880 C   0  0  0  0  0  0  0  0  0  0  0  0
  161.4780  209.2510  151.8820 C   0  0  0  0  0  1  0  0  0  0  0  0
  162.0750  205.8420  148.7810 O   0  0  0  0  0  0  0  0  0  0  0  0
  160.1070  201.6870  148.4730 C   0  0  0  0  0  2  0  0  0  0  0  0
  161.2660  204.4180  152.0900 C   0  0  0  0  0  0  0  0  0  0  0  0
  160.8310  203.2360  152.3860 N   0  0  0  0  0  0  0  0  0  0  0  0
  161.2060  208.6680  149.5660 C   0  0  0  0  0  3  0  0  0  0  0  0
  160.9630  202.9450  148.6580 C   0  0  0  0  0  2  0  0  0  0  0  0
  161.2180  207.8910  148.2820 C   0  0  0  0  0  2  0  0  0  0  0  0
  162.2510  206.9060  151.0890 C   0  0  2  0  0  3  0  0  0  0  0  0
  162.7050  206.8120  146.7720 C   0  0  0  0  0  2  0  0  0  0  0  0
  163.2690  204.6030  145.7640 C   0  0  0  0  0  1  0  0  0  0  0  0
  162.1340  205.5000  146.2180 C   0  0  2  0  0  3  0  0  0  0  0  0
  161.1860  205.7390  145.0870 C   0  0  0  0  0  0  0  0  0  0  0  0
  161.5810  205.4520  143.7880 O   0  0  0  0  0  0  0  0  0  0  0  0
  160.0340  206.2030  145.3020 O   0  0  0  0  0  1  0  0  0  0  0  0
  1 14  1  0  0  0  0
  2  1  2  0  0  0  0
  4  1  1  0  0  0  0
  4  8  2  0  0  0  0
  5 18  1  0  0  0  0
  5 12  1  0  0  0  0
  6  9  1  0  0  0  0
  7  3  2  0  0  0  0
  8 15  1  0  0  0  0
  9  8  1  0  0  0  0
 10 19  1  0  0  0  0
 10 11  1  0  0  0  0
 12  2  1  0  0  0  0
 13 17  1  0  0  0  0
 13  6  1  0  0  0  0
 14 15  2  0  0  0  0
 14  3  1  0  0  0  0
 16 10  2  0  0  0  0
 17  4  1  0  0  0  0
 18 16  1  0  0  0  0
 19  2  1  6  0  0  0
 19  7  1  0  0  0  0
 20  5  1  0  0  0  0
 22 21  1  6  0  0  0
 22 20  1  0  0  0  0
 23 25  1  0  0  0  0
 23 22  1  0  0  0  0
 24 23  2  0  0  0  0
M  END
>  <MODEL>
4

>  <REMARK>
 VINA RESULT:      -6.9      2.837      5.668
  Name = 
  3 active torsions:
  status: ('A' for Active; 'I' for Inactive)
    1  A    between atoms: C_2  and  C_25
    2  A    between atoms: N_6  and  C_15
    3  A    between atoms: C_15  and  C_25
                            x       y       z     vdW  Elec       q    Type
                         _______ _______ _______ _____ _____    ______ ____

>  <TORSDO>
F 3

$$$$
=
 OpenBabel11052422183D

 25 28  0  0  1  0  0  0  0  0999 V2000
  160.9880  205.1370  150.8900 C   0  0  0  0  0  0  0  0  0  0  0  0
  160.7800  204.6480  149.6720 C   0  0  0  0  0  0  0  0  0  0  0  0
  160.5440  202.9320  151.9770 C   0  0  0  0  0  3  0  0  0  0  0  0
  161.2890  206.4660  151.3770 C   0  0  0  0  0  0  0  0  0  0  0  0
  160.7590  205.0080  147.2850 N   0  0  0  0  0  0  0  0  0  0  0  0
  161.4100  208.8570  152.8890 C   0  0  0  0  0  2  0  0  0  0  0  0
  160.3540  202.4190  150.7940 N   0  0  0  0  0  0  0  0  0  0  0  0
  161.3140  206.3650  152.7050 C   0  0  0  0  0  0  0  0  0  0  0  0
  161.6350  207.5200  153.6080 C   0  0  0  0  0  2  0  0  0  0  0  0
  161.4240  202.4020  148.5610 C   0  0  0  0  0  0  0  0  0  0  0  0
  161.5390  200.9190  148.7060 C   0  0  0  0  0  1  0  0  0  0  0  0
  160.7890  205.5030  148.5710 O   0  0  0  0  0  0  0  0  0  0  0  0
  162.0450  208.8360  151.4930 C   0  0  0  0  0  2  0  0  0  0  0  0
  160.8970  204.3390  152.0740 C   0  0  2  0  0  3  0  0  0  0  0  0
  161.0810  205.0240  153.1560 N   0  0  0  0  0  0  0  0  0  0  0  0
  162.0140  202.9250  147.4710 C   0  0  0  0  0  3  0  0  0  0  0  0
  161.3990  207.7560  150.6190 C   0  0  0  0  0  2  0  0  0  0  0  0
  162.0410  204.3640  147.0480 C   0  0  0  0  0  2  0  0  0  0  0  0
  160.4920  203.1520  149.5070 C   0  0  0  0  0  0  0  0  0  0  0  0
  160.6070  206.1270  146.3460 C   0  0  0  0  0  2  0  0  0  0  0  0
  159.8600  204.2670  144.8620 C   0  0  0  0  0  1  0  0  0  0  0  0
  160.3780  205.6920  144.8920 C   0  0  2  0  0  3  0  0  0  0  0  0
  161.6250  205.8020  144.0760 C   0  0  0  0  0  0  0  0  0  0  0  0
  161.5390  205.8220  142.6910 O   0  0  0  0  0  0  0  0  0  0  0  0
  162.7530  205.8720  144.6340 O   0  0  0  0  0  1  0  0  0  0  0  0
  1  4  2  0  0  0  0
  1 14  1  0  0  0  0
  2  1  1  0  0  0  0
  4  8  1  0  0  0  0
  5 12  1  0  0  0  0
  6  9  1  0  0  0  0
  7  3  2  0  0  0  0
  8 15  2  0  0  0  0
  8  9  1  0  0  0  0
 10 11  1  0  0  0  0
 10 19  1  0  0  0  0
 12  2  1  0  0  0  0
 13  6  1  0  0  0  0
 14  3  1  1  0  0  0
 14 15  1  0  0  0  0
 16 10  2  0  0  0  0
 17  4  1  0  0  0  0
 17 13  1  0  0  0  0
 18  5  1  0  0  0  0
 18 16  1  0  0  0  0
 19  2  2  0  0  0  0
 19  7  1  0  0  0  0
 20  5  1  0  0  0  0
 22 21  1  1  0  0  0
 22 20  1  0  0  0  0
 23 25  1  0  0  0  0
 23 22  1  0  0  0  0
 24 23  2  0  0  0  0
M  END
>  <MODEL>
5

>  <REMARK>
 VINA RESULT:      -6.6      2.880      7.321
  Name = 
  3 active torsions:
  status: ('A' for Active; 'I' for Inactive)
    1  A    between atoms: C_2  and  C_25
    2  A    between atoms: N_6  and  C_15
    3  A    between atoms: C_15  and  C_25
                            x       y       z     vdW  Elec       q    Type
                         _______ _______ _______ _____ _____    ______ ____

>  <TORSDO>
F 3

$$$$
=
 OpenBabel11052422183D

 25 28  0  0  1  0  0  0  0  0999 V2000
  161.2730  207.8350  151.9560 C   0  0  0  0  0  0  0  0  0  0  0  0
  161.5360  209.1350  151.8840 C   0  0  0  0  0  0  0  0  0  0  0  0
  161.2190  207.8660  154.4540 C   0  0  0  0  0  3  0  0  0  0  0  0
  161.1430  206.8010  150.9510 C   0  0  0  0  0  0  0  0  0  0  0  0
  161.8900  211.0910  150.5140 N   0  0  0  0  0  0  0  0  0  0  0  0
  161.2470  204.3660  149.5100 C   0  0  0  0  0  2  0  0  0  0  0  0
  161.4550  209.1470  154.4140 N   0  0  0  0  0  0  0  0  0  0  0  0
  160.9500  205.6670  151.6240 C   0  0  0  0  0  0  0  0  0  0  0  0
  160.7230  204.3450  150.9530 C   0  0  0  0  0  2  0  0  0  0  0  0
  160.6600  211.1680  153.2240 C   0  0  0  0  0  0  0  0  0  0  0  0
  160.2850  211.7210  154.5610 C   0  0  0  0  0  1  0  0  0  0  0  0
  161.7940  209.7220  150.6470 O   0  0  0  0  0  0  0  0  0  0  0  0
  160.7820  205.6330  148.7810 C   0  0  0  0  0  2  0  0  0  0  0  0
  161.0940  207.1450  153.1970 C   0  0  0  0  0  0  0  0  0  0  0  0
  160.9030  205.8750  153.0420 N   0  0  0  0  0  0  0  0  0  0  0  0
  160.2930  211.9130  152.1650 C   0  0  0  0  0  3  0  0  0  0  0  0
  161.3360  206.8870  149.4670 C   0  0  0  0  0  2  0  0  0  0  0  0
  160.5540  211.6300  150.7150 C   0  0  0  0  0  2  0  0  0  0  0  0
  161.5890  209.9590  153.1750 C   0  0  2  0  0  3  0  0  0  0  0  0
  162.3310  211.4090  149.1500 C   0  0  0  0  0  2  0  0  0  0  0  0
  160.7790  211.6160  147.2100 C   0  0  0  0  0  1  0  0  0  0  0  0
  161.3830  212.3490  148.3920 C   0  0  2  0  0  3  0  0  0  0  0  0
  162.0810  213.5850  147.9270 C   0  0  0  0  0  0  0  0  0  0  0  0
  163.4170  213.7810  148.2490 O   0  0  0  0  0  1  0  0  0  0  0  0
  161.4680  214.4530  147.2490 O   0  0  0  0  0  0  0  0  0  0  0  0
  1 14  1  0  0  0  0
  2  1  2  0  0  0  0
  4  8  2  0  0  0  0
  4  1  1  0  0  0  0
  5 12  1  0  0  0  0
  5 18  1  0  0  0  0
  6  9  1  0  0  0  0
  7  3  2  0  0  0  0
  8 15  1  0  0  0  0
  9  8  1  0  0  0  0
 10 11  1  0  0  0  0
 12  2  1  0  0  0  0
 13 17  1  0  0  0  0
 13  6  1  0  0  0  0
 14  3  1  0  0  0  0
 15 14  2  0  0  0  0
 16 10  2  0  0  0  0
 17  4  1  0  0  0  0
 18 16  1  0  0  0  0
 19  2  1  6  0  0  0
 19 10  1  0  0  0  0
 19  7  1  0  0  0  0
 20  5  1  0  0  0  0
 22 21  1  6  0  0  0
 22 20  1  0  0  0  0
 23 24  1  0  0  0  0
 23 22  1  0  0  0  0
 25 23  2  0  0  0  0
M  END
>  <MODEL>
6

>  <REMARK>
 VINA RESULT:      -6.3      3.106      5.805
  Name = 
  3 active torsions:
  status: ('A' for Active; 'I' for Inactive)
    1  A    between atoms: C_2  and  C_25
    2  A    between atoms: N_6  and  C_15
    3  A    between atoms: C_15  and  C_25
                            x       y       z     vdW  Elec       q    Type
                         _______ _______ _______ _____ _____    ______ ____

>  <TORSDO>
F 3

$$$$
=
 OpenBabel11052422183D

 25 28  0  0  1  0  0  0  0  0999 V2000
  161.1320  206.1080  150.7590 C   0  0  0  0  0  0  0  0  0  0  0  0
  160.8640  205.2130  149.8140 C   0  0  0  0  0  0  0  0  0  0  0  0
  160.6550  204.4830  152.5960 C   0  0  0  0  0  3  0  0  0  0  0  0
  161.4940  207.5080  150.7120 C   0  0  0  0  0  0  0  0  0  0  0  0
  160.7680  204.6650  147.4650 N   0  0  0  0  0  0  0  0  0  0  0  0
  161.7480  210.2810  151.2270 C   0  0  0  0  0  2  0  0  0  0  0  0
  160.4060  203.5780  151.6920 N   0  0  0  0  0  0  0  0  0  0  0  0
  161.5630  207.9050  151.9820 C   0  0  0  0  0  0  0  0  0  0  0  0
  161.9550  209.2960  152.3850 C   0  0  0  0  0  2  0  0  0  0  0  0
  161.3930  202.6890  149.6020 C   0  0  0  0  0  0  0  0  0  0  0  0
  161.4650  201.3610  150.2840 C   0  0  0  0  0  1  0  0  0  0  0  0
  160.8610  205.5990  148.4750 O   0  0  0  0  0  0  0  0  0  0  0  0
  162.3310  209.7180  149.9240 C   0  0  0  0  0  2  0  0  0  0  0  0
  161.0580  205.8090  152.1560 C   0  0  2  0  0  3  0  0  0  0  0  0
  161.3030  206.8360  152.9030 N   0  0  0  0  0  0  0  0  0  0  0  0
  161.9600  202.7460  148.3830 C   0  0  0  0  0  3  0  0  0  0  0  0
  161.6180  208.4200  149.5280 C   0  0  0  0  0  2  0  0  0  0  0  0
  162.0190  203.9240  147.4560 C   0  0  0  0  0  2  0  0  0  0  0  0
  160.5210  203.7760  150.2220 C   0  0  0  0  0  0  0  0  0  0  0  0
  160.6190  205.3630  146.1810 C   0  0  0  0  0  2  0  0  0  0  0  0
  161.2060  205.4510  143.7600 C   0  0  0  0  0  1  0  0  0  0  0  0
  161.0870  204.5450  144.9700 C   0  0  2  0  0  3  0  0  0  0  0  0
  160.1590  203.4110  144.6730 C   0  0  0  0  0  0  0  0  0  0  0  0
  160.4540  202.1410  145.1490 O   0  0  0  0  0  1  0  0  0  0  0  0
  159.1150  203.5970  143.9920 O   0  0  0  0  0  0  0  0  0  0  0  0
  1 14  1  0  0  0  0
  2 19  2  0  0  0  0
  2  1  1  0  0  0  0
  4  1  2  0  0  0  0
  4  8  1  0  0  0  0
  5 12  1  0  0  0  0
  6  9  1  0  0  0  0
  7  3  2  0  0  0  0
  8  9  1  0  0  0  0
  8 15  2  0  0  0  0
 10 19  1  0  0  0  0
 10 11  1  0  0  0  0
 12  2  1  0  0  0  0
 13  6  1  0  0  0  0
 14  3  1  6  0  0  0
 14 15  1  0  0  0  0
 16 10  2  0  0  0  0
 17 13  1  0  0  0  0
 17  4  1  0  0  0  0
 18  5  1  0  0  0  0
 18 16  1  0  0  0  0
 19  7  1  0  0  0  0
 20  5  1  0  0  0  0
 22 21  1  6  0  0  0
 22 20  1  0  0  0  0
 23 22  1  0  0  0  0
 23 24  1  0  0  0  0
 25 23  2  0  0  0  0
M  END
>  <MODEL>
7

>  <REMARK>
 VINA RESULT:      -6.3      2.887      7.581
  Name = 
  3 active torsions:
  status: ('A' for Active; 'I' for Inactive)
    1  A    between atoms: C_2  and  C_25
    2  A    between atoms: N_6  and  C_15
    3  A    between atoms: C_15  and  C_25
                            x       y       z     vdW  Elec       q    Type
                         _______ _______ _______ _____ _____    ______ ____

>  <TORSDO>
F 3

$$$$
=
 OpenBabel11052422183D

 25 28  0  0  1  0  0  0  0  0999 V2000
  160.4070  210.4530  152.8110 C   0  0  0  0  0  0  0  0  0  0  0  0
  160.1580  211.7110  152.4650 C   0  0  0  0  0  0  0  0  0  0  0  0
  159.6070  210.8150  155.1500 C   0  0  0  0  0  3  0  0  0  0  0  0
  160.9890  209.3350  152.1000 C   0  0  0  0  0  0  0  0  0  0  0  0
  160.1220  213.4050  150.7450 N   0  0  0  0  0  0  0  0  0  0  0  0
  162.4430  207.0130  151.3830 C   0  0  0  0  0  2  0  0  0  0  0  0
  159.3330  212.0500  154.8340 N   0  0  0  0  0  0  0  0  0  0  0  0
  161.0570  208.3410  152.9850 C   0  0  0  0  0  0  0  0  0  0  0  0
  161.5660  206.9720  152.6420 C   0  0  0  0  0  2  0  0  0  0  0  0
  158.2130  213.3220  153.0290 C   0  0  0  0  0  0  0  0  0  0  0  0
  157.2770  213.8400  154.0720 C   0  0  0  0  0  1  0  0  0  0  0  0
  160.5250  212.1670  151.2000 O   0  0  0  0  0  0  0  0  0  0  0  0
  161.7660  207.8280  150.2750 C   0  0  0  0  0  2  0  0  0  0  0  0
  160.1480  209.9410  154.1220 C   0  0  0  0  0  0  0  0  0  0  0  0
  160.5160  208.7090  154.2610 N   0  0  0  0  0  0  0  0  0  0  0  0
  157.9210  213.6700  151.7630 C   0  0  0  0  0  3  0  0  0  0  0  0
  161.5650  209.2820  150.7160 C   0  0  0  0  0  2  0  0  0  0  0  0
  158.6870  213.3260  150.5190 C   0  0  0  0  0  2  0  0  0  0  0  0
  159.5050  212.6510  153.4840 C   0  0  2  0  0  3  0  0  0  0  0  0
  160.7900  213.6850  149.4670 C   0  0  0  0  0  2  0  0  0  0  0  0
  162.4650  212.1410  148.4550 C   0  0  0  0  0  1  0  0  0  0  0  0
  160.9850  212.4460  148.5830 C   0  0  2  0  0  3  0  0  0  0  0  0
  160.3800  212.6310  147.2280 C   0  0  0  0  0  0  0  0  0  0  0  0
  161.1950  212.9550  146.1520 O   0  0  0  0  0  0  0  0  0  0  0  0
  159.1390  212.4980  147.0550 O   0  0  0  0  0  1  0  0  0  0  0  0
  1 14  1  0  0  0  0
  2  1  2  0  0  0  0
  4  1  1  0  0  0  0
  4  8  2  0  0  0  0
  5 12  1  0  0  0  0
  6  9  1  0  0  0  0
  7  3  2  0  0  0  0
  8 15  1  0  0  0  0
  9  8  1  0  0  0  0
 10 19  1  0  0  0  0
 10 11  1  0  0  0  0
 12  2  1  0  0  0  0
 13 17  1  0  0  0  0
 13  6  1  0  0  0  0
 14 15  2  0  0  0  0
 14  3  1  0  0  0  0
 16 10  2  0  0  0  0
 17  4  1  0  0  0  0
 18  5  1  0  0  0  0
 18 16  1  0  0  0  0
 19  2  1  6  0  0  0
 19  7  1  0  0  0  0
 20  5  1  0  0  0  0
 22 21  1  6  0  0  0
 22 20  1  0  0  0  0
 23 22  1  0  0  0  0
 24 23  2  0  0  0  0
 25 23  1  0  0  0  0
M  END
>  <MODEL>
8

>  <REMARK>
 VINA RESULT:      -6.1      4.098      7.363
  Name = 
  3 active torsions:
  status: ('A' for Active; 'I' for Inactive)
    1  A    between atoms: C_2  and  C_25
    2  A    between atoms: N_6  and  C_15
    3  A    between atoms: C_15  and  C_25
                            x       y       z     vdW  Elec       q    Type
                         _______ _______ _______ _____ _____    ______ ____

>  <TORSDO>
F 3

$$$$
=
 OpenBabel11052422183D

 25 28  0  0  1  0  0  0  0  0999 V2000
  161.2480  203.8810  148.2210 C   0  0  0  0  0  0  0  0  0  0  0  0
  161.5810  204.3440  149.4210 C   0  0  0  0  0  0  0  0  0  0  0  0
  160.9420  201.5530  149.0760 C   0  0  0  0  0  3  0  0  0  0  0  0
  161.1700  204.5000  146.9150 C   0  0  0  0  0  0  0  0  0  0  0  0
  162.1700  206.2300  150.8090 N   0  0  0  0  0  0  0  0  0  0  0  0
  161.2980  205.0440  144.1390 C   0  0  0  0  0  2  0  0  0  0  0  0
  161.2440  201.9830  150.2700 N   0  0  0  0  0  0  0  0  0  0  0  0
  160.8530  203.5200  146.0700 C   0  0  0  0  0  0  0  0  0  0  0  0
  160.6300  203.7420  144.6030 C   0  0  0  0  0  2  0  0  0  0  0  0
  160.6760  203.8500  151.7930 C   0  0  0  0  0  0  0  0  0  0  0  0
  160.1950  202.8190  152.7620 C   0  0  0  0  0  1  0  0  0  0  0  0
  161.9930  205.6680  149.5620 O   0  0  0  0  0  0  0  0  0  0  0  0
  160.9730  206.1940  145.1000 C   0  0  0  0  0  2  0  0  0  0  0  0
  160.9100  202.5110  147.9830 C   0  0  0  0  0  0  0  0  0  0  0  0
  160.6730  202.2620  146.7360 N   0  0  0  0  0  0  0  0  0  0  0  0
  160.4570  205.1280  152.1510 C   0  0  0  0  0  3  0  0  0  0  0  0
  161.5160  205.9000  146.5020 C   0  0  0  0  0  2  0  0  0  0  0  0
  160.8490  206.3680  151.4020 C   0  0  0  0  0  2  0  0  0  0  0  0
  161.5440  203.3970  150.6240 C   0  0  2  0  0  3  0  0  0  0  0  0
  162.7630  207.5640  150.6520 C   0  0  0  0  0  2  0  0  0  0  0  0
  161.9500  208.8270  148.6620 C   0  0  0  0  0  1  0  0  0  0  0  0
  161.7760  208.6290  150.1550 C   0  0  2  0  0  3  0  0  0  0  0  0
  161.9570  209.9300  150.8690 C   0  0  0  0  0  0  0  0  0  0  0  0
  161.9080  211.1180  150.1520 O   0  0  0  0  0  0  0  0  0  0  0  0
  162.1580  209.9580  152.1130 O   0  0  0  0  0  1  0  0  0  0  0  0
  1  2  2  0  0  0  0
  2 12  1  0  0  0  0
  3  7  2  0  0  0  0
  4  1  1  0  0  0  0
  5 18  1  0  0  0  0
  6  9  1  0  0  0  0
  6 13  1  0  0  0  0
  7 19  1  0  0  0  0
  8 15  1  0  0  0  0
  8  4  2  0  0  0  0
  9  8  1  0  0  0  0
 10 16  2  0  0  0  0
 10 11  1  0  0  0  0
 12  5  1  0  0  0  0
 13 17  1  0  0  0  0
 14  1  1  0  0  0  0
 14  3  1  0  0  0  0
 15 14  2  0  0  0  0
 17  4  1  0  0  0  0
 18 16  1  0  0  0  0
 19  2  1  6  0  0  0
 19 10  1  0  0  0  0
 20  5  1  0  0  0  0
 22 21  1  6  0  0  0
 22 20  1  0  0  0  0
 22 23  1  0  0  0  0
 23 25  1  0  0  0  0
 24 23  2  0  0  0  0
M  END
>  <MODEL>
9

>  <REMARK>
 VINA RESULT:      -6.1      2.286      4.744
  Name = 
  3 active torsions:
  status: ('A' for Active; 'I' for Inactive)
    1  A    between atoms: C_2  and  C_25
    2  A    between atoms: N_6  and  C_15
    3  A    between atoms: C_15  and  C_25
                            x       y       z     vdW  Elec       q    Type
                         _______ _______ _______ _____ _____    ______ ____

>  <TORSDO>
F 3

$$$$
