=
 OpenBabel11052421593D

 30 35  0  0  1  0  0  0  0  0999 V2000
  159.8870  210.6490  153.6060 C   0  0  2  0  0  3  0  0  0  0  0  0
  160.4310  208.1440  153.6740 C   0  0  0  0  0  2  0  0  0  0  0  0
  160.7130  212.3960  156.9030 C   0  0  0  0  0  2  0  0  0  0  0  0
  157.6790  211.7030  153.0180 C   0  0  0  0  0  0  0  0  0  0  0  0
  159.0150  211.5400  152.8370 N   0  0  0  0  0  0  0  0  0  0  0  0
  158.1770  214.1160  150.5900 C   0  0  0  0  0  3  0  0  0  0  0  0
  155.6520  211.8340  154.6140 C   0  0  0  0  0  2  0  0  0  0  0  0
  158.1750  213.0970  151.5240 C   0  0  0  0  0  0  0  0  0  0  0  0
  160.5570  212.7680  151.3440 C   0  0  0  0  0  3  0  0  0  0  0  0
  158.3550  212.6290  155.8950 C   0  0  2  0  0  3  0  0  0  0  0  0
  159.8280  213.0630  155.8430 C   0  0  1  0  0  3  0  0  0  0  0  0
  159.3170  212.4380  151.8840 C   0  0  0  0  0  0  0  0  0  0  0  0
  157.1180  212.6430  152.2060 N   0  0  0  0  0  0  0  0  0  0  0  0
  161.6050  208.3430  154.6240 C   0  0  0  0  0  2  0  0  0  0  0  0
  157.6700  212.9860  157.2290 C   0  0  0  0  0  2  0  0  0  0  0  0
  155.5550  213.7210  156.2700 O   0  0  0  0  0  0  0  0  0  0  0  0
  160.5900  213.7810  150.3420 C   0  0  0  0  0  3  0  0  0  0  0  0
  160.1560  209.3670  152.7990 C   0  0  0  0  0  2  0  0  0  0  0  0
  160.2780  210.9530  157.2440 C   0  0  0  0  0  2  0  0  0  0  0  0
  162.3480  209.0010  156.9610 C   0  0  0  0  0  1  0  0  0  0  0  0
  159.3950  214.4500  149.9750 C   0  0  0  0  0  3  0  0  0  0  0  0
  159.2600  210.3000  154.9820 C   0  0  2  0  0  3  0  0  0  0  0  0
  157.0120  211.1630  154.2560 C   0  0  2  0  0  3  0  0  0  0  0  0
  159.9120  214.4490  155.9820 O   0  0  0  0  0  1  0  0  0  0  0  0
  158.0360  211.1790  155.4070 C   0  0  2  0  0  3  0  0  0  0  0  0
  156.1550  212.7930  157.1430 C   0  0  0  0  0  2  0  0  0  0  0  0
  154.8630  214.1210  154.0110 C   0  0  0  0  0  1  0  0  0  0  0  0
  161.3370  209.1810  155.8710 C   0  0  0  0  0  0  0  0  0  0  0  0
  160.3310  210.0890  156.0260 C   0  0  0  0  0  0  0  0  0  0  0  0
  155.7790  213.3410  154.9240 C   0  0  2  0  0  3  0  0  0  0  0  0
  1 18  1  6  0  0  0
  1 22  1  0  0  0  0
  2 14  1  0  0  0  0
  3 19  1  0  0  0  0
  4 23  1  0  0  0  0
  5  4  1  0  0  0  0
  5  1  1  0  0  0  0
  6  8  1  0  0  0  0
  7 30  1  0  0  0  0
  8 12  2  0  0  0  0
  8 13  1  0  0  0  0
  9 12  1  0  0  0  0
 10 15  1  1  0  0  0
 11 10  1  0  0  0  0
 11 24  1  1  0  0  0
 11  3  1  0  0  0  0
 12  5  1  0  0  0  0
 13  4  2  0  0  0  0
 14 28  1  0  0  0  0
 16 26  1  0  0  0  0
 17  9  2  0  0  0  0
 18  2  1  0  0  0  0
 21 17  1  0  0  0  0
 21  6  2  0  0  0  0
 22 25  1  0  0  0  0
 22 29  1  1  0  0  0
 23  7  1  1  0  0  0
 23 25  1  0  0  0  0
 25 10  1  0  0  0  0
 26 15  1  0  0  0  0
 27 30  1  0  0  0  0
 28 29  2  0  0  0  0
 28 20  1  0  0  0  0
 29 19  1  0  0  0  0
 30 16  1  0  0  0  0
M  END
>  <MODEL>
1

>  <REMARK>
 VINA RESULT:      -3.6      0.000      0.000
  Name = 
  0 active torsions:
  status: ('A' for Active; 'I' for Inactive)
                            x       y       z     vdW  Elec       q    Type
                         _______ _______ _______ _____ _____    ______ ____

>  <TORSDO>
F 0

$$$$
=
 OpenBabel11052421593D

 30 35  0  0  1  0  0  0  0  0999 V2000
  160.7670  212.2970  139.8350 C   0  0  2  0  0  3  0  0  0  0  0  0
  162.9660  212.8540  138.6420 C   0  0  0  0  0  2  0  0  0  0  0  0
  159.0460  209.2300  138.3380 C   0  0  0  0  0  2  0  0  0  0  0  0
  158.8120  213.8390  140.2050 C   0  0  0  0  0  0  0  0  0  0  0  0
  159.7800  213.0020  140.6590 N   0  0  0  0  0  0  0  0  0  0  0  0
  157.9410  213.7940  143.5520 C   0  0  0  0  0  3  0  0  0  0  0  0
  157.0740  214.4530  138.3970 C   0  0  0  0  0  2  0  0  0  0  0  0
  158.4580  213.7060  142.2740 C   0  0  0  0  0  0  0  0  0  0  0  0
  160.1750  212.1530  142.9480 C   0  0  0  0  0  3  0  0  0  0  0  0
  157.7370  211.4350  138.5750 C   0  0  2  0  0  3  0  0  0  0  0  0
  158.3010  210.1890  139.2740 C   0  0  1  0  0  3  0  0  0  0  0  0
  159.5390  212.9240  141.9780 C   0  0  0  0  0  0  0  0  0  0  0  0
  157.9870  214.3150  141.1800 N   0  0  0  0  0  0  0  0  0  0  0  0
  163.2590  211.3920  138.3270 C   0  0  0  0  0  2  0  0  0  0  0  0
  156.6990  211.0950  137.4880 C   0  0  0  0  0  2  0  0  0  0  0  0
  155.1420  212.8930  138.0170 O   0  0  0  0  0  0  0  0  0  0  0  0
  159.6990  212.2570  144.2870 C   0  0  0  0  0  3  0  0  0  0  0  0
  162.1140  213.0360  139.8970 C   0  0  0  0  0  2  0  0  0  0  0  0
  159.7860  209.9500  137.1880 C   0  0  0  0  0  2  0  0  0  0  0  0
  162.5730  209.3330  137.0110 C   0  0  0  0  0  1  0  0  0  0  0  0
  158.5810  213.0770  144.5780 C   0  0  0  0  0  3  0  0  0  0  0  0
  160.2850  212.1730  138.3650 C   0  0  2  0  0  3  0  0  0  0  0  0
  158.4890  213.8940  138.7360 C   0  0  2  0  0  3  0  0  0  0  0  0
  157.2660  209.4990  139.9070 O   0  0  0  0  0  1  0  0  0  0  0  0
  158.7750  212.5110  138.1200 C   0  0  2  0  0  3  0  0  0  0  0  0
  155.9650  212.3510  137.0110 C   0  0  0  0  0  2  0  0  0  0  0  0
  155.0370  214.4510  139.8350 C   0  0  0  0  0  1  0  0  0  0  0  0
  162.1280  210.5950  137.6820 C   0  0  0  0  0  0  0  0  0  0  0  0
  160.8000  210.9020  137.7320 C   0  0  0  0  0  0  0  0  0  0  0  0
  155.9260  213.5920  138.9660 C   0  0  2  0  0  3  0  0  0  0  0  0
  1 18  1  6  0  0  0
  1  5  1  0  0  0  0
  2 18  1  0  0  0  0
  3 11  1  0  0  0  0
  4  5  1  0  0  0  0
  4 13  2  0  0  0  0
  5 12  1  0  0  0  0
  6 21  1  0  0  0  0
  7 30  1  0  0  0  0
  8  6  2  0  0  0  0
  9 17  1  0  0  0  0
 10 15  1  6  0  0  0
 10 11  1  0  0  0  0
 11 24  1  6  0  0  0
 12  8  1  0  0  0  0
 12  9  2  0  0  0  0
 13  8  1  0  0  0  0
 14  2  1  0  0  0  0
 16 30  1  0  0  0  0
 17 21  2  0  0  0  0
 19 29  1  0  0  0  0
 19  3  1  0  0  0  0
 20 28  1  0  0  0  0
 22 29  1  1  0  0  0
 22  1  1  0  0  0  0
 23  7  1  1  0  0  0
 23  4  1  0  0  0  0
 25 22  1  0  0  0  0
 25 10  1  0  0  0  0
 25 23  1  0  0  0  0
 26 15  1  0  0  0  0
 26 16  1  0  0  0  0
 28 29  2  0  0  0  0
 28 14  1  0  0  0  0
 30 27  1  0  0  0  0
M  END
>  <MODEL>
2

>  <REMARK>
 VINA RESULT:      -2.9     11.731     15.417
  Name = 
  0 active torsions:
  status: ('A' for Active; 'I' for Inactive)
                            x       y       z     vdW  Elec       q    Type
                         _______ _______ _______ _____ _____    ______ ____

>  <TORSDO>
F 0

$$$$
=
 OpenBabel11052421593D

 30 35  0  0  1  0  0  0  0  0999 V2000
  161.0740  210.3670  151.3530 C   0  0  2  0  0  3  0  0  0  0  0  0
  162.3360  211.9040  149.7340 C   0  0  0  0  0  2  0  0  0  0  0  0
  157.7840  211.9070  152.5400 C   0  0  0  0  0  2  0  0  0  0  0  0
  161.9570  209.3620  153.4850 C   0  0  0  0  0  0  0  0  0  0  0  0
  161.3950  209.2560  152.2530 N   0  0  0  0  0  0  0  0  0  0  0  0
  161.3780  205.9520  153.4640 C   0  0  0  0  0  3  0  0  0  0  0  0
  162.2020  210.6460  155.7120 C   0  0  0  0  0  2  0  0  0  0  0  0
  161.5510  207.3090  153.2720 C   0  0  0  0  0  0  0  0  0  0  0  0
  160.5000  207.2570  151.1030 C   0  0  0  0  0  3  0  0  0  0  0  0
  159.4950  211.0690  154.2730 C   0  0  2  0  0  3  0  0  0  0  0  0
  158.4060  210.7010  153.2530 C   0  0  1  0  0  3  0  0  0  0  0  0
  161.1380  207.9420  152.1330 C   0  0  0  0  0  0  0  0  0  0  0  0
  162.0920  208.1740  154.1380 N   0  0  0  0  0  0  0  0  0  0  0  0
  161.0500  212.4890  149.1620 C   0  0  0  0  0  2  0  0  0  0  0  0
  158.9680  211.9480  155.4230 C   0  0  0  0  0  2  0  0  0  0  0  0
  160.1950  210.8360  157.2100 O   0  0  0  0  0  0  0  0  0  0  0  0
  160.3490  205.8480  151.2440 C   0  0  0  0  0  3  0  0  0  0  0  0
  162.1580  210.4820  150.2690 C   0  0  0  0  0  2  0  0  0  0  0  0
  158.7810  213.0670  152.3170 C   0  0  0  0  0  2  0  0  0  0  0  0
  159.0020  213.9240  149.5980 C   0  0  0  0  0  1  0  0  0  0  0  0
  160.7880  205.2060  152.4290 C   0  0  0  0  0  3  0  0  0  0  0  0
  160.9440  211.7020  152.1330 C   0  0  2  0  0  3  0  0  0  0  0  0
  162.0430  210.7030  154.1630 C   0  0  2  0  0  3  0  0  0  0  0  0
  157.3980  209.9740  153.8870 O   0  0  0  0  0  1  0  0  0  0  0  0
  160.8570  211.5660  153.6910 C   0  0  2  0  0  3  0  0  0  0  0  0
  159.9980  212.0630  156.5490 C   0  0  0  0  0  2  0  0  0  0  0  0
  161.4960  208.8240  157.2610 C   0  0  0  0  0  1  0  0  0  0  0  0
  160.0220  212.9920  150.1730 C   0  0  0  0  0  0  0  0  0  0  0  0
  159.9330  212.6140  151.4800 C   0  0  0  0  0  0  0  0  0  0  0  0
  161.0050  209.9810  156.4230 C   0  0  2  0  0  3  0  0  0  0  0  0
  1 18  1  6  0  0  0
  1 22  1  0  0  0  0
  1  5  1  0  0  0  0
  2 18  1  0  0  0  0
  3 11  1  0  0  0  0
  4 13  2  0  0  0  0
  4 23  1  0  0  0  0
  5  4  1  0  0  0  0
  7 30  1  0  0  0  0
  8  6  1  0  0  0  0
  8 13  1  0  0  0  0
  9 17  2  0  0  0  0
  9 12  1  0  0  0  0
 10 15  1  1  0  0  0
 11 24  1  1  0  0  0
 11 10  1  0  0  0  0
 12  5  1  0  0  0  0
 12  8  2  0  0  0  0
 14  2  1  0  0  0  0
 14 28  1  0  0  0  0
 15 26  1  0  0  0  0
 17 21  1  0  0  0  0
 19  3  1  0  0  0  0
 20 28  1  0  0  0  0
 21  6  2  0  0  0  0
 22 29  1  6  0  0  0
 22 25  1  0  0  0  0
 23  7  1  1  0  0  0
 25 23  1  0  0  0  0
 25 10  1  0  0  0  0
 26 16  1  0  0  0  0
 28 29  2  0  0  0  0
 29 19  1  0  0  0  0
 30 16  1  0  0  0  0
 30 27  1  0  0  0  0
M  END
>  <MODEL>
3

>  <REMARK>
 VINA RESULT:      -0.6      2.312      5.982
  Name = 
  0 active torsions:
  status: ('A' for Active; 'I' for Inactive)
                            x       y       z     vdW  Elec       q    Type
                         _______ _______ _______ _____ _____    ______ ____

>  <TORSDO>
F 0

$$$$
