=
 OpenBabel11062410273D

 43 48  0  0  1  0  0  0  0  0999 V2000
  161.4990  203.9990  145.8840 C   0  0  0  0  0  0  0  0  0  0  0  0
  161.2830  206.4220  150.3950 C   0  0  0  0  0  0  0  0  0  0  0  0
  161.9140  209.1600  149.7750 C   0  0  0  0  0  0  0  0  0  0  0  0
  161.2360  204.5430  148.3320 C   0  0  0  0  0  0  0  0  0  0  0  0
  161.7740  205.4210  145.6390 C   0  0  0  0  0  3  0  0  0  0  0  0
  161.5030  203.1960  144.9150 O   0  0  0  0  0  0  0  0  0  0  0  0
  161.5030  205.8940  148.0290 C   0  0  0  0  0  0  0  0  0  0  0  0
  161.2180  203.4790  147.2660 C   0  0  0  0  0  2  0  0  0  0  0  0
  161.7750  206.3020  146.6360 C   0  0  0  0  0  3  0  0  0  0  0  0
  161.7250  208.2710  148.7910 C   0  0  0  0  0  3  0  0  0  0  0  0
  161.5100  206.8380  149.0700 C   0  0  0  0  0  0  0  0  0  0  0  0
  160.9810  205.0770  150.6350 C   0  0  0  0  0  3  0  0  0  0  0  0
  161.2100  207.4530  151.5050 C   0  0  2  0  0  3  0  0  0  0  0  0
  162.0470  208.7050  151.2000 C   0  0  0  0  0  2  0  0  0  0  0  0
  160.9750  204.1780  149.6150 N   0  0  0  0  0  0  0  0  0  0  0  0
  162.1650  210.6060  149.4620 C   0  0  2  0  0  3  0  0  0  0  0  0
  161.7240  211.4750  150.6240 C   0  0  0  0  0  1  0  0  0  0  0  0
  161.4480  211.0110  148.2580 N   0  0  0  0  0  2  0  0  0  0  0  0
  161.5820  212.3060  147.6700 C   0  0  0  0  0  0  0  0  0  0  0  0
  162.1500  213.2410  148.2940 O   0  0  0  0  0  0  0  0  0  0  0  0
  161.1240  212.5190  146.2720 C   0  0  0  0  0  2  0  0  0  0  0  0
  159.7300  213.1230  146.2930 C   0  0  2  0  0  3  0  0  0  0  0  0
  157.5540  212.3910  145.6650 O   0  0  0  0  0  0  0  0  0  0  0  0
  159.0020  212.7280  147.5300 C   0  0  0  0  0  2  0  0  0  0  0  0
  158.8740  212.5430  145.1980 C   0  0  1  0  0  3  0  0  0  0  0  0
  157.5750  212.6140  147.0560 C   0  0  0  0  0  2  0  0  0  0  0  0
  159.8000  213.1480  142.8980 N   0  0  0  0  0  0  0  0  0  0  0  0
  158.9090  213.4300  143.9880 C   0  0  0  0  0  0  0  0  0  0  0  0
  160.6600  212.2050  140.3680 C   0  0  0  0  0  2  0  0  0  0  0  0
  160.6310  211.2470  141.5680 C   0  0  0  0  0  2  0  0  0  0  0  0
  160.9490  213.6490  140.7670 C   0  0  0  0  0  2  0  0  0  0  0  0
  160.6490  211.9560  142.9250 C   0  0  0  0  0  2  0  0  0  0  0  0
  159.9250  214.1130  141.7990 C   0  0  0  0  0  2  0  0  0  0  0  0
  158.1720  214.4530  143.9510 O   0  0  0  0  0  0  0  0  0  0  0  0
  161.5400  206.8980  152.9010 C   0  0  0  0  0  2  0  0  0  0  0  0
  160.6160  209.9270  154.9950 C   0  0  0  0  0  3  0  0  0  0  0  0
  160.0310  209.3300  156.1180 C   0  0  0  0  0  0  0  0  0  0  0  0
  160.4230  207.1420  155.1430 C   0  0  0  0  0  3  0  0  0  0  0  0
  161.1030  209.1360  153.9500 C   0  0  0  0  0  3  0  0  0  0  0  0
  161.0100  207.7420  154.0220 C   0  0  0  0  0  0  0  0  0  0  0  0
  159.9350  207.9330  156.1860 C   0  0  0  0  0  3  0  0  0  0  0  0
  159.3330  211.5940  157.0220 C   0  0  0  0  0  1  0  0  0  0  0  0
  159.5370  210.1610  157.1710 N   0  0  0  0  0  2  0  0  0  0  0  0
  1  8  1  0  0  0  0
  2 12  1  0  0  0  0
  2 13  1  0  0  0  0
  3 14  1  0  0  0  0
  4 15  1  0  0  0  0
  5  1  1  0  0  0  0
  5  9  2  0  0  0  0
  6  1  2  0  0  0  0
  7  4  2  0  0  0  0
  7 11  1  0  0  0  0
  8  4  1  0  0  0  0
  9  7  1  0  0  0  0
 10 11  1  0  0  0  0
 10  3  2  0  0  0  0
 11  2  2  0  0  0  0
 13 35  1  1  0  0  0
 14 13  1  0  0  0  0
 15 12  2  0  0  0  0
 16  3  1  0  0  0  0
 16 17  1  1  0  0  0
 18 16  1  0  0  0  0
 19 18  1  0  0  0  0
 19 20  2  0  0  0  0
 21 19  1  0  0  0  0
 22 21  1  1  0  0  0
 22 24  1  0  0  0  0
 23 26  1  0  0  0  0
 25 28  1  6  0  0  0
 25 23  1  0  0  0  0
 25 22  1  0  0  0  0
 26 24  1  0  0  0  0
 27 32  1  0  0  0  0
 27 28  1  0  0  0  0
 29 31  1  0  0  0  0
 29 30  1  0  0  0  0
 30 32  1  0  0  0  0
 31 33  1  0  0  0  0
 33 27  1  0  0  0  0
 34 28  2  0  0  0  0
 35 40  1  0  0  0  0
 36 37  1  0  0  0  0
 37 41  2  0  0  0  0
 37 43  1  0  0  0  0
 38 41  1  0  0  0  0
 39 40  1  0  0  0  0
 39 36  2  0  0  0  0
 40 38  2  0  0  0  0
 42 43  1  0  0  0  0
M  END
>  <MODEL>
1

>  <REMARK>
 VINA RESULT:      -9.5      0.000      0.000
  Name = 
  8 active torsions:
  status: ('A' for Active; 'I' for Inactive)
    1  A    between atoms: C_1  and  C_34
    2  A    between atoms: C_1  and  C_35
    3  A    between atoms: C_2  and  N_6
    4  A    between atoms: C_2  and  C_13
    5  A    between atoms: C_3  and  C_4
    6  A    between atoms: C_3  and  C_12
    7  A    between atoms: C_14  and  C_22
    8  A    between atoms: C_19  and  N_37
                            x       y       z     vdW  Elec       q    Type
                         _______ _______ _______ _____ _____    ______ ____

>  <TORSDO>
F 8

$$$$
=
 OpenBabel11062410273D

 43 48  0  0  1  0  0  0  0  0999 V2000
  162.3260  212.7800  147.1890 C   0  0  0  0  0  0  0  0  0  0  0  0
  159.8880  212.9870  151.6920 C   0  0  0  0  0  0  0  0  0  0  0  0
  160.3770  210.4190  152.8960 C   0  0  0  0  0  0  0  0  0  0  0  0
  160.9610  213.5260  149.1730 C   0  0  0  0  0  0  0  0  0  0  0  0
  162.5650  211.5080  147.8840 C   0  0  0  0  0  3  0  0  0  0  0  0
  162.8270  212.9620  146.0480 O   0  0  0  0  0  0  0  0  0  0  0  0
  161.2310  212.2860  149.7860 C   0  0  0  0  0  0  0  0  0  0  0  0
  161.4930  213.8680  147.8060 C   0  0  0  0  0  2  0  0  0  0  0  0
  162.0570  211.2790  149.0910 C   0  0  0  0  0  3  0  0  0  0  0  0
  161.0080  210.7670  151.7670 C   0  0  0  0  0  3  0  0  0  0  0  0
  160.7010  212.0260  151.0620 C   0  0  0  0  0  0  0  0  0  0  0  0
  159.6860  214.2170  151.0570 C   0  0  0  0  0  3  0  0  0  0  0  0
  159.3850  212.7390  153.1010 C   0  0  2  0  0  3  0  0  0  0  0  0
  159.2320  211.2420  153.4150 C   0  0  0  0  0  2  0  0  0  0  0  0
  160.2100  214.4530  149.8250 N   0  0  0  0  0  0  0  0  0  0  0  0
  160.6840  209.1160  153.5740 C   0  0  2  0  0  3  0  0  0  0  0  0
  161.4140  209.3670  154.8800 C   0  0  0  0  0  1  0  0  0  0  0  0
  161.5020  208.2640  152.7200 N   0  0  0  0  0  2  0  0  0  0  0  0
  161.5430  206.8410  152.8490 C   0  0  0  0  0  0  0  0  0  0  0  0
  161.0500  206.2720  153.8590 O   0  0  0  0  0  0  0  0  0  0  0  0
  162.0940  206.0270  151.7340 C   0  0  0  0  0  2  0  0  0  0  0  0
  160.9830  205.1700  151.1500 C   0  0  2  0  0  3  0  0  0  0  0  0
  160.8750  203.3160  149.6620 O   0  0  0  0  0  0  0  0  0  0  0  0
  160.7820  203.9390  151.9630 C   0  0  0  0  0  2  0  0  0  0  0  0
  161.3740  204.6250  149.8020 C   0  0  1  0  0  3  0  0  0  0  0  0
  160.3980  202.9140  150.9250 C   0  0  0  0  0  2  0  0  0  0  0  0
  161.1930  205.2670  147.3380 N   0  0  0  0  0  0  0  0  0  0  0  0
  160.8490  205.5110  148.7120 C   0  0  0  0  0  0  0  0  0  0  0  0
  160.9120  204.3600  144.6680 C   0  0  0  0  0  2  0  0  0  0  0  0
  161.4400  203.4020  145.7460 C   0  0  0  0  0  2  0  0  0  0  0  0
  161.2890  205.8150  144.9290 C   0  0  0  0  0  2  0  0  0  0  0  0
  162.0150  204.1110  146.9760 C   0  0  0  0  0  2  0  0  0  0  0  0
  160.7940  206.2350  146.3100 C   0  0  0  0  0  2  0  0  0  0  0  0
  160.1300  206.5030  149.0140 O   0  0  0  0  0  0  0  0  0  0  0  0
  158.1010  213.5080  153.4540 C   0  0  0  0  0  2  0  0  0  0  0  0
  155.4650  211.2270  154.9600 C   0  0  0  0  0  3  0  0  0  0  0  0
  155.6110  211.4860  156.3270 C   0  0  0  0  0  0  0  0  0  0  0  0
  157.3870  213.0630  155.8250 C   0  0  0  0  0  3  0  0  0  0  0  0
  156.2760  211.8820  154.0280 C   0  0  0  0  0  3  0  0  0  0  0  0
  157.2370  212.8030  154.4580 C   0  0  0  0  0  0  0  0  0  0  0  0
  156.5770  212.4070  156.7570 C   0  0  0  0  0  3  0  0  0  0  0  0
  153.9270  209.6750  156.8900 C   0  0  0  0  0  1  0  0  0  0  0  0
  154.7720  210.8000  157.2600 N   0  0  0  0  0  2  0  0  0  0  0  0
  1  8  1  0  0  0  0
  1  5  1  0  0  0  0
  2 13  1  0  0  0  0
  3 14  1  0  0  0  0
  3 16  1  0  0  0  0
  4  7  1  0  0  0  0
  4 15  2  0  0  0  0
  5  9  2  0  0  0  0
  6  1  2  0  0  0  0
  7 11  2  0  0  0  0
  8  4  1  0  0  0  0
  9  7  1  0  0  0  0
 10  3  2  0  0  0  0
 11  2  1  0  0  0  0
 11 10  1  0  0  0  0
 12  2  2  0  0  0  0
 13 14  1  0  0  0  0
 13 35  1  6  0  0  0
 15 12  1  0  0  0  0
 16 17  1  1  0  0  0
 18 19  1  0  0  0  0
 18 16  1  0  0  0  0
 19 20  2  0  0  0  0
 21 19  1  0  0  0  0
 22 21  1  1  0  0  0
 22 24  1  0  0  0  0
 23 25  1  0  0  0  0
 23 26  1  0  0  0  0
 25 28  1  6  0  0  0
 25 22  1  0  0  0  0
 26 24  1  0  0  0  0
 27 28  1  0  0  0  0
 28 34  2  0  0  0  0
 29 31  1  0  0  0  0
 29 30  1  0  0  0  0
 30 32  1  0  0  0  0
 31 33  1  0  0  0  0
 32 27  1  0  0  0  0
 33 27  1  0  0  0  0
 35 40  1  0  0  0  0
 36 37  1  0  0  0  0
 37 41  2  0  0  0  0
 37 43  1  0  0  0  0
 38 41  1  0  0  0  0
 39 40  1  0  0  0  0
 39 36  2  0  0  0  0
 40 38  2  0  0  0  0
 42 43  1  0  0  0  0
M  END
>  <MODEL>
2

>  <REMARK>
 VINA RESULT:      -8.7      3.408      7.780
  Name = 
  8 active torsions:
  status: ('A' for Active; 'I' for Inactive)
    1  A    between atoms: C_1  and  C_34
    2  A    between atoms: C_1  and  C_35
    3  A    between atoms: C_2  and  N_6
    4  A    between atoms: C_2  and  C_13
    5  A    between atoms: C_3  and  C_4
    6  A    between atoms: C_3  and  C_12
    7  A    between atoms: C_14  and  C_22
    8  A    between atoms: C_19  and  N_37
                            x       y       z     vdW  Elec       q    Type
                         _______ _______ _______ _____ _____    ______ ____

>  <TORSDO>
F 8

$$$$
=
 OpenBabel11062410273D

 43 48  0  0  1  0  0  0  0  0999 V2000
  161.2070  200.6170  148.1700 C   0  0  0  0  0  0  0  0  0  0  0  0
  161.2000  204.7340  151.2230 C   0  0  0  0  0  0  0  0  0  0  0  0
  161.2660  206.9720  149.4160 C   0  0  0  0  0  0  0  0  0  0  0  0
  161.1920  202.1480  150.1740 C   0  0  0  0  0  0  0  0  0  0  0  0
  161.2000  201.8090  147.3110 C   0  0  0  0  0  3  0  0  0  0  0  0
  161.2150  199.4760  147.6400 O   0  0  0  0  0  0  0  0  0  0  0  0
  161.1820  203.2490  149.2940 C   0  0  0  0  0  0  0  0  0  0  0  0
  161.2090  200.7290  149.6700 C   0  0  0  0  0  2  0  0  0  0  0  0
  161.1880  203.0310  147.8340 C   0  0  0  0  0  3  0  0  0  0  0  0
  161.0990  205.7290  148.9460 C   0  0  0  0  0  3  0  0  0  0  0  0
  161.1700  204.5490  149.8280 C   0  0  0  0  0  0  0  0  0  0  0  0
  161.1660  203.6060  152.0510 C   0  0  0  0  0  3  0  0  0  0  0  0
  161.1050  206.1340  151.7990 C   0  0  2  0  0  3  0  0  0  0  0  0
  161.6680  207.2000  150.8460 C   0  0  0  0  0  2  0  0  0  0  0  0
  161.1730  202.3570  151.5170 N   0  0  0  0  0  0  0  0  0  0  0  0
  161.2230  208.1530  148.4910 C   0  0  2  0  0  3  0  0  0  0  0  0
  161.7940  207.7770  147.1370 C   0  0  0  0  0  1  0  0  0  0  0  0
  161.9780  209.2730  149.0400 N   0  0  0  0  0  2  0  0  0  0  0  0
  161.8280  210.6160  148.5750 C   0  0  0  0  0  0  0  0  0  0  0  0
  161.2030  210.8630  147.5100 O   0  0  0  0  0  0  0  0  0  0  0  0
  162.3400  211.7350  149.4100 C   0  0  0  0  0  2  0  0  0  0  0  0
  161.5520  212.9930  149.0900 C   0  0  2  0  0  3  0  0  0  0  0  0
  159.8210  213.5680  147.5620 O   0  0  0  0  0  0  0  0  0  0  0  0
  160.2650  213.0160  149.8390 C   0  0  0  0  0  2  0  0  0  0  0  0
  161.1060  213.0000  147.6520 C   0  0  1  0  0  3  0  0  0  0  0  0
  159.3310  213.7030  148.8750 C   0  0  0  0  0  2  0  0  0  0  0  0
  162.0350  213.6860  145.3760 N   0  0  0  0  0  0  0  0  0  0  0  0
  162.0840  213.7640  146.8090 C   0  0  0  0  0  0  0  0  0  0  0  0
  161.4490  214.4450  142.7090 C   0  0  0  0  0  2  0  0  0  0  0  0
  160.4020  213.6770  143.5300 C   0  0  0  0  0  2  0  0  0  0  0  0
  162.8830  214.0840  143.0880 C   0  0  0  0  0  2  0  0  0  0  0  0
  160.9910  212.9030  144.7130 C   0  0  0  0  0  2  0  0  0  0  0  0
  163.0950  214.3170  144.5810 C   0  0  0  0  0  2  0  0  0  0  0  0
  162.9800  214.4510  147.3720 O   0  0  0  0  0  0  0  0  0  0  0  0
  161.7110  206.2780  153.2040 C   0  0  0  0  0  2  0  0  0  0  0  0
  160.4750  209.6810  154.3480 C   0  0  0  0  0  3  0  0  0  0  0  0
  159.8650  209.3680  155.5670 C   0  0  0  0  0  0  0  0  0  0  0  0
  160.4540  207.0350  155.2480 C   0  0  0  0  0  3  0  0  0  0  0  0
  161.0720  208.6770  153.5800 C   0  0  0  0  0  3  0  0  0  0  0  0
  161.0640  207.3520  154.0290 C   0  0  0  0  0  0  0  0  0  0  0  0
  159.8560  208.0390  156.0140 C   0  0  0  0  0  3  0  0  0  0  0  0
  158.1220  211.1860  155.8570 C   0  0  0  0  0  1  0  0  0  0  0  0
  159.2590  210.4130  156.3320 N   0  0  0  0  0  2  0  0  0  0  0  0
  1  8  1  0  0  0  0
  2 13  1  0  0  0  0
  2 12  1  0  0  0  0
  3 14  1  0  0  0  0
  4 15  1  0  0  0  0
  5  9  2  0  0  0  0
  5  1  1  0  0  0  0
  6  1  2  0  0  0  0
  7 11  1  0  0  0  0
  7  4  2  0  0  0  0
  8  4  1  0  0  0  0
  9  7  1  0  0  0  0
 10  3  2  0  0  0  0
 10 11  1  0  0  0  0
 11  2  2  0  0  0  0
 13 35  1  1  0  0  0
 14 13  1  0  0  0  0
 15 12  2  0  0  0  0
 16 17  1  6  0  0  0
 16 18  1  0  0  0  0
 16  3  1  0  0  0  0
 19 18  1  0  0  0  0
 19 21  1  0  0  0  0
 20 19  2  0  0  0  0
 22 21  1  1  0  0  0
 22 24  1  0  0  0  0
 23 25  1  0  0  0  0
 23 26  1  0  0  0  0
 25 28  1  6  0  0  0
 25 22  1  0  0  0  0
 26 24  1  0  0  0  0
 27 28  1  0  0  0  0
 28 34  2  0  0  0  0
 29 31  1  0  0  0  0
 29 30  1  0  0  0  0
 30 32  1  0  0  0  0
 31 33  1  0  0  0  0
 32 27  1  0  0  0  0
 33 27  1  0  0  0  0
 35 40  1  0  0  0  0
 36 37  1  0  0  0  0
 37 41  2  0  0  0  0
 37 43  1  0  0  0  0
 38 41  1  0  0  0  0
 39 40  1  0  0  0  0
 39 36  2  0  0  0  0
 40 38  2  0  0  0  0
 42 43  1  0  0  0  0
M  END
>  <MODEL>
3

>  <REMARK>
 VINA RESULT:      -8.0      1.961      2.914
  Name = 
  8 active torsions:
  status: ('A' for Active; 'I' for Inactive)
    1  A    between atoms: C_1  and  C_34
    2  A    between atoms: C_1  and  C_35
    3  A    between atoms: C_2  and  N_6
    4  A    between atoms: C_2  and  C_13
    5  A    between atoms: C_3  and  C_4
    6  A    between atoms: C_3  and  C_12
    7  A    between atoms: C_14  and  C_22
    8  A    between atoms: C_19  and  N_37
                            x       y       z     vdW  Elec       q    Type
                         _______ _______ _______ _____ _____    ______ ____

>  <TORSDO>
F 8

$$$$
=
 OpenBabel11062410273D

 43 48  0  0  1  0  0  0  0  0999 V2000
  161.1660  200.5360  146.6760 C   0  0  0  0  0  0  0  0  0  0  0  0
  160.9390  203.8130  150.6100 C   0  0  0  0  0  0  0  0  0  0  0  0
  161.3610  206.3990  149.4200 C   0  0  0  0  0  0  0  0  0  0  0  0
  160.9510  201.5520  148.9740 C   0  0  0  0  0  0  0  0  0  0  0  0
  161.3350  201.8920  146.1370 C   0  0  0  0  0  3  0  0  0  0  0  0
  161.1920  199.5530  145.8900 O   0  0  0  0  0  0  0  0  0  0  0  0
  161.1140  202.8260  148.3910 C   0  0  0  0  0  0  0  0  0  0  0  0
  160.9690  200.2940  148.1470 C   0  0  0  0  0  2  0  0  0  0  0  0
  161.3100  202.9560  146.9340 C   0  0  0  0  0  3  0  0  0  0  0  0
  161.1990  205.3180  148.6470 C   0  0  0  0  0  3  0  0  0  0  0  0
  161.0920  203.9620  149.2190 C   0  0  0  0  0  0  0  0  0  0  0  0
  160.7380  202.5290  151.1300 C   0  0  0  0  0  3  0  0  0  0  0  0
  160.8330  205.0430  151.4910 C   0  0  2  0  0  3  0  0  0  0  0  0
  161.5730  206.2540  150.9010 C   0  0  0  0  0  2  0  0  0  0  0  0
  160.7580  201.4430  150.3150 N   0  0  0  0  0  0  0  0  0  0  0  0
  161.5010  207.7630  148.8100 C   0  0  2  0  0  3  0  0  0  0  0  0
  162.7040  207.8000  147.8870 C   0  0  0  0  0  1  0  0  0  0  0  0
  161.6530  208.7820  149.8420 N   0  0  0  0  0  2  0  0  0  0  0  0
  161.6730  210.1820  149.5570 C   0  0  0  0  0  0  0  0  0  0  0  0
  161.7920  210.5970  148.3740 O   0  0  0  0  0  0  0  0  0  0  0  0
  161.4600  211.1510  150.6650 C   0  0  0  0  0  2  0  0  0  0  0  0
  160.4660  212.2080  150.2140 C   0  0  2  0  0  3  0  0  0  0  0  0
  159.9420  214.4350  150.8710 O   0  0  0  0  0  0  0  0  0  0  0  0
  161.0900  213.1370  149.2320 C   0  0  0  0  0  2  0  0  0  0  0  0
  160.0950  213.1210  151.3530 C   0  0  1  0  0  3  0  0  0  0  0  0
  160.4240  214.4530  149.5480 C   0  0  0  0  0  2  0  0  0  0  0  0
  158.8220  212.2590  153.3910 N   0  0  0  0  0  0  0  0  0  0  0  0
  158.8310  212.6460  152.0070 C   0  0  0  0  0  0  0  0  0  0  0  0
  158.4090  212.4640  156.1870 C   0  0  0  0  0  2  0  0  0  0  0  0
  159.7170  212.9810  155.5700 C   0  0  0  0  0  2  0  0  0  0  0  0
  157.8230  211.2770  155.4280 C   0  0  0  0  0  2  0  0  0  0  0  0
  160.0360  212.3760  154.2000 C   0  0  0  0  0  2  0  0  0  0  0  0
  157.6140  211.6540  153.9640 C   0  0  0  0  0  2  0  0  0  0  0  0
  157.7770  212.5530  151.3210 O   0  0  0  0  0  0  0  0  0  0  0  0
  161.2470  204.8060  152.9530 C   0  0  0  0  0  2  0  0  0  0  0  0
  159.9360  207.0830  155.6930 C   0  0  0  0  0  3  0  0  0  0  0  0
  160.6790  208.2490  155.4760 C   0  0  0  0  0  0  0  0  0  0  0  0
  161.8010  207.1700  153.6130 C   0  0  0  0  0  3  0  0  0  0  0  0
  160.1230  205.9650  154.8760 C   0  0  0  0  0  3  0  0  0  0  0  0
  161.0540  206.0060  153.8320 C   0  0  0  0  0  0  0  0  0  0  0  0
  161.6140  208.2870  154.4320 C   0  0  0  0  0  3  0  0  0  0  0  0
  161.5510  210.0420  157.0420 C   0  0  0  0  0  1  0  0  0  0  0  0
  160.4710  209.3770  156.3290 N   0  0  0  0  0  2  0  0  0  0  0  0
  1  8  1  0  0  0  0
  2 12  1  0  0  0  0
  2 13  1  0  0  0  0
  3 14  1  0  0  0  0
  4 15  1  0  0  0  0
  5  1  1  0  0  0  0
  5  9  2  0  0  0  0
  6  1  2  0  0  0  0
  7  4  2  0  0  0  0
  7 11  1  0  0  0  0
  8  4  1  0  0  0  0
  9  7  1  0  0  0  0
 10 11  1  0  0  0  0
 10  3  2  0  0  0  0
 11  2  2  0  0  0  0
 13 35  1  1  0  0  0
 14 13  1  0  0  0  0
 15 12  2  0  0  0  0
 16 17  1  6  0  0  0
 16  3  1  0  0  0  0
 16 18  1  0  0  0  0
 19 18  1  0  0  0  0
 19 21  1  0  0  0  0
 20 19  2  0  0  0  0
 22 21  1  1  0  0  0
 22 25  1  0  0  0  0
 23 25  1  0  0  0  0
 24 26  1  0  0  0  0
 24 22  1  0  0  0  0
 25 28  1  6  0  0  0
 26 23  1  0  0  0  0
 27 33  1  0  0  0  0
 27 32  1  0  0  0  0
 28 27  1  0  0  0  0
 30 29  1  0  0  0  0
 31 29  1  0  0  0  0
 32 30  1  0  0  0  0
 33 31  1  0  0  0  0
 34 28  2  0  0  0  0
 35 40  1  0  0  0  0
 37 36  1  0  0  0  0
 37 43  1  0  0  0  0
 38 40  2  0  0  0  0
 38 41  1  0  0  0  0
 39 36  2  0  0  0  0
 40 39  1  0  0  0  0
 41 37  2  0  0  0  0
 43 42  1  0  0  0  0
M  END
>  <MODEL>
4

>  <REMARK>
 VINA RESULT:      -7.7      3.837      6.085
  Name = 
  8 active torsions:
  status: ('A' for Active; 'I' for Inactive)
    1  A    between atoms: C_1  and  C_34
    2  A    between atoms: C_1  and  C_35
    3  A    between atoms: C_2  and  N_6
    4  A    between atoms: C_2  and  C_13
    5  A    between atoms: C_3  and  C_4
    6  A    between atoms: C_3  and  C_12
    7  A    between atoms: C_14  and  C_22
    8  A    between atoms: C_19  and  N_37
                            x       y       z     vdW  Elec       q    Type
                         _______ _______ _______ _____ _____    ______ ____

>  <TORSDO>
F 8

$$$$
=
 OpenBabel11062410273D

 43 48  0  0  1  0  0  0  0  0999 V2000
  161.2600  200.1290  146.9660 C   0  0  0  0  0  0  0  0  0  0  0  0
  161.0030  203.7930  150.5400 C   0  0  0  0  0  0  0  0  0  0  0  0
  160.9940  206.2550  149.0510 C   0  0  0  0  0  0  0  0  0  0  0  0
  161.1360  201.3740  149.1550 C   0  0  0  0  0  0  0  0  0  0  0  0
  161.2120  201.4240  146.2740 C   0  0  0  0  0  3  0  0  0  0  0  0
  161.3320  199.0710  146.2870 O   0  0  0  0  0  0  0  0  0  0  0  0
  161.0900  202.5820  148.4300 C   0  0  0  0  0  0  0  0  0  0  0  0
  161.2300  200.0380  148.4660 C   0  0  0  0  0  2  0  0  0  0  0  0
  161.1320  202.5630  146.9540 C   0  0  0  0  0  3  0  0  0  0  0  0
  160.8940  205.0800  148.4150 C   0  0  0  0  0  3  0  0  0  0  0  0
  161.0070  203.7970  149.1330 C   0  0  0  0  0  0  0  0  0  0  0  0
  161.0080  202.5640  151.2090 C   0  0  0  0  0  3  0  0  0  0  0  0
  160.8300  205.0970  151.2950 C   0  0  2  0  0  3  0  0  0  0  0  0
  161.3590  206.3060  150.5070 C   0  0  0  0  0  2  0  0  0  0  0  0
  161.0840  201.3990  150.5130 N   0  0  0  0  0  0  0  0  0  0  0  0
  160.9110  207.5470  148.2910 C   0  0  2  0  0  3  0  0  0  0  0  0
  161.8880  207.5340  147.1320 C   0  0  0  0  0  1  0  0  0  0  0  0
  161.2050  208.6810  149.1580 N   0  0  0  0  0  2  0  0  0  0  0  0
  162.1970  209.6620  148.8480 C   0  0  0  0  0  0  0  0  0  0  0  0
  163.0260  209.4680  147.9200 O   0  0  0  0  0  0  0  0  0  0  0  0
  162.1850  210.9610  149.5720 C   0  0  0  0  0  2  0  0  0  0  0  0
  161.8460  212.0720  148.5930 C   0  0  2  0  0  3  0  0  0  0  0  0
  161.8560  214.4510  148.6570 O   0  0  0  0  0  0  0  0  0  0  0  0
  163.0680  212.5460  147.8880 C   0  0  0  0  0  2  0  0  0  0  0  0
  161.3740  213.3050  149.3180 C   0  0  1  0  0  3  0  0  0  0  0  0
  162.7950  214.0180  147.7010 C   0  0  0  0  0  2  0  0  0  0  0  0
  159.0870  213.4200  148.1910 N   0  0  0  0  0  0  0  0  0  0  0  0
  159.8760  213.3240  149.3880 C   0  0  0  0  0  0  0  0  0  0  0  0
  157.4700  212.5800  146.0210 C   0  0  0  0  0  2  0  0  0  0  0  0
  159.0000  212.5240  145.8970 C   0  0  0  0  0  2  0  0  0  0  0  0
  156.9880  213.7160  146.9190 C   0  0  0  0  0  2  0  0  0  0  0  0
  159.7340  213.4430  146.8780 C   0  0  0  0  0  2  0  0  0  0  0  0
  157.6330  213.5920  148.2960 C   0  0  0  0  0  2  0  0  0  0  0  0
  159.3090  213.2920  150.5140 O   0  0  0  0  0  0  0  0  0  0  0  0
  161.4040  205.0780  152.7220 C   0  0  0  0  0  2  0  0  0  0  0  0
  160.4550  207.4050  155.5670 C   0  0  0  0  0  3  0  0  0  0  0  0
  160.5710  208.6610  154.9600 C   0  0  0  0  0  0  0  0  0  0  0  0
  161.2360  207.5820  152.8890 C   0  0  0  0  0  3  0  0  0  0  0  0
  160.7290  206.2430  154.8410 C   0  0  0  0  0  3  0  0  0  0  0  0
  161.1180  206.3280  153.5000 C   0  0  0  0  0  0  0  0  0  0  0  0
  160.9650  208.7450  153.6170 C   0  0  0  0  0  3  0  0  0  0  0  0
  161.1600  210.9990  155.7420 C   0  0  0  0  0  1  0  0  0  0  0  0
  160.2900  209.8340  155.7260 N   0  0  0  0  0  2  0  0  0  0  0  0
  1  8  1  0  0  0  0
  2 12  1  0  0  0  0
  2 13  1  0  0  0  0
  3 14  1  0  0  0  0
  4 15  1  0  0  0  0
  5  9  2  0  0  0  0
  5  1  1  0  0  0  0
  6  1  2  0  0  0  0
  7 11  1  0  0  0  0
  7  4  2  0  0  0  0
  8  4  1  0  0  0  0
  9  7  1  0  0  0  0
 10  3  2  0  0  0  0
 10 11  1  0  0  0  0
 11  2  2  0  0  0  0
 13 35  1  1  0  0  0
 14 13  1  0  0  0  0
 15 12  2  0  0  0  0
 16 17  1  6  0  0  0
 16  3  1  0  0  0  0
 16 18  1  0  0  0  0
 19 18  1  0  0  0  0
 19 21  1  0  0  0  0
 20 19  2  0  0  0  0
 22 25  1  0  0  0  0
 22 21  1  1  0  0  0
 23 25  1  0  0  0  0
 24 22  1  0  0  0  0
 25 28  1  6  0  0  0
 26 24  1  0  0  0  0
 26 23  1  0  0  0  0
 27 33  1  0  0  0  0
 27 28  1  0  0  0  0
 28 34  2  0  0  0  0
 29 31  1  0  0  0  0
 30 29  1  0  0  0  0
 30 32  1  0  0  0  0
 31 33  1  0  0  0  0
 32 27  1  0  0  0  0
 35 40  1  0  0  0  0
 37 36  1  0  0  0  0
 37 43  1  0  0  0  0
 38 40  2  0  0  0  0
 38 41  1  0  0  0  0
 39 36  2  0  0  0  0
 40 39  1  0  0  0  0
 41 37  2  0  0  0  0
 43 42  1  0  0  0  0
M  END
>  <MODEL>
5

>  <REMARK>
 VINA RESULT:      -7.5      2.644      4.034
  Name = 
  8 active torsions:
  status: ('A' for Active; 'I' for Inactive)
    1  A    between atoms: C_1  and  C_34
    2  A    between atoms: C_1  and  C_35
    3  A    between atoms: C_2  and  N_6
    4  A    between atoms: C_2  and  C_13
    5  A    between atoms: C_3  and  C_4
    6  A    between atoms: C_3  and  C_12
    7  A    between atoms: C_14  and  C_22
    8  A    between atoms: C_19  and  N_37
                            x       y       z     vdW  Elec       q    Type
                         _______ _______ _______ _____ _____    ______ ____

>  <TORSDO>
F 8

$$$$
=
 OpenBabel11062410273D

 43 48  0  0  1  0  0  0  0  0999 V2000
  161.1350  203.2690  146.5920 C   0  0  0  0  0  0  0  0  0  0  0  0
  161.4180  206.8760  150.2220 C   0  0  0  0  0  0  0  0  0  0  0  0
  161.9550  209.3090  148.7820 C   0  0  0  0  0  0  0  0  0  0  0  0
  161.1500  204.4910  148.7980 C   0  0  0  0  0  0  0  0  0  0  0  0
  161.3700  204.5560  145.9240 C   0  0  0  0  0  3  0  0  0  0  0  0
  161.0350  202.2250  145.8970 O   0  0  0  0  0  0  0  0  0  0  0  0
  161.3710  205.6930  148.0950 C   0  0  0  0  0  0  0  0  0  0  0  0
  161.0180  203.1700  148.0870 C   0  0  0  0  0  2  0  0  0  0  0  0
  161.4790  205.6820  146.6220 C   0  0  0  0  0  3  0  0  0  0  0  0
  161.6610  208.1820  148.1200 C   0  0  0  0  0  3  0  0  0  0  0  0
  161.4900  206.8940  148.8170 C   0  0  0  0  0  0  0  0  0  0  0  0
  161.1550  205.6620  150.8670 C   0  0  0  0  0  3  0  0  0  0  0  0
  161.4640  208.1810  150.9940 C   0  0  2  0  0  3  0  0  0  0  0  0
  162.2530  209.2730  150.2540 C   0  0  0  0  0  2  0  0  0  0  0  0
  161.0390  204.5120  150.1520 N   0  0  0  0  0  0  0  0  0  0  0  0
  162.1570  210.6000  148.0440 C   0  0  2  0  0  3  0  0  0  0  0  0
  163.5530  211.1350  148.3030 C   0  0  0  0  0  1  0  0  0  0  0  0
  161.1750  211.5960  148.4570 N   0  0  0  0  0  2  0  0  0  0  0  0
  161.2830  212.9810  148.1250 C   0  0  0  0  0  0  0  0  0  0  0  0
  162.3530  213.4490  147.6540 O   0  0  0  0  0  0  0  0  0  0  0  0
  160.0860  213.8540  148.2540 C   0  0  0  0  0  2  0  0  0  0  0  0
  158.9100  213.0160  148.7270 C   0  0  2  0  0  3  0  0  0  0  0  0
  156.6270  213.4390  149.2520 O   0  0  0  0  0  0  0  0  0  0  0  0
  158.0810  212.5690  147.5740 C   0  0  0  0  0  2  0  0  0  0  0  0
  157.9460  213.8450  149.5340 C   0  0  1  0  0  3  0  0  0  0  0  0
  156.6850  212.5700  148.1450 C   0  0  0  0  0  2  0  0  0  0  0  0
  157.2480  214.0340  151.9810 N   0  0  0  0  0  0  0  0  0  0  0  0
  158.2420  213.7070  150.9980 C   0  0  0  0  0  0  0  0  0  0  0  0
  155.1990  213.6340  153.8980 C   0  0  0  0  0  2  0  0  0  0  0  0
  154.8370  213.7540  152.4100 C   0  0  0  0  0  2  0  0  0  0  0  0
  156.4300  214.4510  154.2780 C   0  0  0  0  0  2  0  0  0  0  0  0
  155.9080  214.4530  151.5680 C   0  0  0  0  0  2  0  0  0  0  0  0
  157.6110  214.0380  153.4030 C   0  0  0  0  0  2  0  0  0  0  0  0
  159.3910  213.3340  151.3640 O   0  0  0  0  0  0  0  0  0  0  0  0
  161.9550  208.0360  152.4440 C   0  0  0  0  0  2  0  0  0  0  0  0
  159.9820  210.8140  154.1180 C   0  0  0  0  0  3  0  0  0  0  0  0
  159.5540  210.1900  155.2950 C   0  0  0  0  0  0  0  0  0  0  0  0
  160.6880  208.1560  154.6140 C   0  0  0  0  0  3  0  0  0  0  0  0
  160.7590  210.1120  153.1920 C   0  0  0  0  0  3  0  0  0  0  0  0
  161.1160  208.7830  153.4380 C   0  0  0  0  0  0  0  0  0  0  0  0
  159.9100  208.8560  155.5400 C   0  0  0  0  0  3  0  0  0  0  0  0
  157.3910  211.3440  155.9440 C   0  0  0  0  0  1  0  0  0  0  0  0
  158.7560  210.9280  156.2250 N   0  0  0  0  0  2  0  0  0  0  0  0
  1  8  1  0  0  0  0
  2 12  1  0  0  0  0
  2 13  1  0  0  0  0
  3 14  1  0  0  0  0
  4 15  1  0  0  0  0
  5  1  1  0  0  0  0
  5  9  2  0  0  0  0
  6  1  2  0  0  0  0
  7  4  2  0  0  0  0
  7 11  1  0  0  0  0
  8  4  1  0  0  0  0
  9  7  1  0  0  0  0
 10  3  2  0  0  0  0
 10 11  1  0  0  0  0
 11  2  2  0  0  0  0
 13 35  1  1  0  0  0
 14 13  1  0  0  0  0
 15 12  2  0  0  0  0
 16 17  1  1  0  0  0
 16 18  1  0  0  0  0
 16  3  1  0  0  0  0
 19 21  1  0  0  0  0
 19 18  1  0  0  0  0
 20 19  2  0  0  0  0
 22 21  1  6  0  0  0
 22 25  1  0  0  0  0
 23 25  1  0  0  0  0
 24 26  1  0  0  0  0
 24 22  1  0  0  0  0
 25 28  1  1  0  0  0
 26 23  1  0  0  0  0
 27 33  1  0  0  0  0
 28 34  2  0  0  0  0
 28 27  1  0  0  0  0
 29 31  1  0  0  0  0
 30 29  1  0  0  0  0
 32 27  1  0  0  0  0
 32 30  1  0  0  0  0
 33 31  1  0  0  0  0
 35 40  1  0  0  0  0
 36 37  1  0  0  0  0
 37 41  2  0  0  0  0
 37 43  1  0  0  0  0
 38 41  1  0  0  0  0
 39 40  1  0  0  0  0
 39 36  2  0  0  0  0
 40 38  2  0  0  0  0
 42 43  1  0  0  0  0
M  END
>  <MODEL>
6

>  <REMARK>
 VINA RESULT:      -6.9      2.927      5.081
  Name = 
  8 active torsions:
  status: ('A' for Active; 'I' for Inactive)
    1  A    between atoms: C_1  and  C_34
    2  A    between atoms: C_1  and  C_35
    3  A    between atoms: C_2  and  N_6
    4  A    between atoms: C_2  and  C_13
    5  A    between atoms: C_3  and  C_4
    6  A    between atoms: C_3  and  C_12
    7  A    between atoms: C_14  and  C_22
    8  A    between atoms: C_19  and  N_37
                            x       y       z     vdW  Elec       q    Type
                         _______ _______ _______ _____ _____    ______ ____

>  <TORSDO>
F 8

$$$$
