=
 OpenBabel11052422483D

 28 29  0  0  1  0  0  0  0  0999 V2000
  161.3210  207.9830  154.4780 C   0  0  0  0  0  1  0  0  0  0  0  0
  160.8330  207.0840  153.4420 N   0  0  0  0  0  0  0  0  0  0  0  0
  160.8880  207.7660  152.1440 C   0  0  0  0  0  2  0  0  0  0  0  0
  161.5850  209.1330  152.2100 C   0  0  0  0  0  2  0  0  0  0  0  0
  162.3720  209.4350  150.9420 C   0  0  2  0  0  3  0  0  0  0  0  0
  161.8410  210.5480  150.2870 O   0  0  0  0  0  1  0  0  0  0  0  0
  162.3880  208.2320  150.0140 C   0  0  0  0  0  2  0  0  0  0  0  0
  161.6080  208.4920  148.8880 O   0  0  0  0  0  0  0  0  0  0  0  0
  161.0510  207.2580  148.5570 C   0  0  0  0  0  2  0  0  0  0  0  0
  162.0330  206.4570  147.7160 C   0  0  0  0  0  2  0  0  0  0  0  0
  161.6820  206.4360  146.2270 C   0  0  2  0  0  3  0  0  0  0  0  0
  160.2200  206.0990  145.9680 C   0  0  0  0  0  1  0  0  0  0  0  0
  163.4260  204.5830  146.1360 C   0  0  0  0  0  1  0  0  0  0  0  0
  162.6550  205.6380  145.3570 C   0  0  0  0  0  2  0  0  0  0  0  0
  161.6940  205.9740  153.4040 N   0  0  0  0  0  2  0  0  0  0  0  0
  161.7860  205.5320  152.0180 C   0  0  0  0  0  2  0  0  0  0  0  0
  160.7280  204.5740  151.7180 N   0  0  0  0  0  2  0  0  0  0  0  0
  160.7970  202.8490  147.1410 C   0  0  0  0  0  3  0  0  0  0  0  0
  161.1420  201.3380  149.0160 C   0  0  0  0  0  0  0  0  0  0  0  0
  160.7680  203.7090  149.4050 C   0  0  0  0  0  3  0  0  0  0  0  0
  161.1790  200.4860  146.7490 C   0  0  0  0  0  0  0  0  0  0  0  0
  160.9020  202.6390  148.5170 C   0  0  0  0  0  0  0  0  0  0  0  0
  161.0960  202.2040  151.2750 C   0  0  0  0  0  3  0  0  0  0  0  0
  161.2830  200.2670  148.1280 C   0  0  0  0  0  3  0  0  0  0  0  0
  161.2360  201.1270  150.3930 C   0  0  0  0  0  3  0  0  0  0  0  0
  161.3170  199.4220  145.8690 O   0  0  0  0  0  1  0  0  0  0  0  0
  160.9350  201.7720  146.2580 C   0  0  0  0  0  3  0  0  0  0  0  0
  160.8650  203.4960  150.7890 C   0  0  0  0  0  0  0  0  0  0  0  0
  2  1  1  0  0  0  0
  3  4  1  0  0  0  0
  3  2  1  0  0  0  0
  5  6  1  6  0  0  0
  5  4  1  0  0  0  0
  7  5  1  0  0  0  0
  8  7  1  0  0  0  0
  9  8  1  0  0  0  0
 10  9  1  0  0  0  0
 11 12  1  1  0  0  0
 11 10  1  0  0  0  0
 14 13  1  0  0  0  0
 14 11  1  0  0  0  0
 15  2  1  0  0  0  0
 16 15  1  0  0  0  0
 17 16  1  0  0  0  0
 18 22  1  0  0  0  0
 19 25  1  0  0  0  0
 20 28  2  0  0  0  0
 21 24  2  0  0  0  0
 22 19  2  0  0  0  0
 22 20  1  0  0  0  0
 24 19  1  0  0  0  0
 25 23  2  0  0  0  0
 26 21  1  0  0  0  0
 27 21  1  0  0  0  0
 27 18  2  0  0  0  0
 28 23  1  0  0  0  0
 28 17  1  0  0  0  0
M  END
>  <MODEL>
1

>  <REMARK>
 VINA RESULT:      -7.0      0.000      0.000
  Name = 
  13 active torsions:
  status: ('A' for Active; 'I' for Inactive)
    1  A    between atoms: C_1  and  C_2
    2  A    between atoms: C_1  and  C_26
    3  A    between atoms: C_2  and  O_3
    4  A    between atoms: O_3  and  C_7
    5  A    between atoms: C_5  and  N_20
    6  A    between atoms: C_5  and  N_27
    7  A    between atoms: C_6  and  C_11
    8  A    between atoms: C_6  and  C_28
    9  A    between atoms: C_7  and  C_28
   10  A    between atoms: C_19  and  N_21
   11  A    between atoms: C_19  and  C_26
   12  A    between atoms: N_20  and  C_25
   13  A    between atoms: N_21  and  N_27
                            x       y       z     vdW  Elec       q    Type
                         _______ _______ _______ _____ _____    ______ ____

>  <TORSDO>
F 13

$$$$
=
 OpenBabel11052422483D

 28 29  0  0  1  0  0  0  0  0999 V2000
  160.4710  206.3200  147.7720 C   0  0  0  0  0  1  0  0  0  0  0  0
  161.9170  206.1730  147.6920 N   0  0  0  0  0  0  0  0  0  0  0  0
  162.3160  206.0810  146.2830 C   0  0  0  0  0  2  0  0  0  0  0  0
  162.8280  204.6870  145.8910 C   0  0  0  0  0  2  0  0  0  0  0  0
  161.8150  203.9220  145.0500 C   0  0  2  0  0  3  0  0  0  0  0  0
  161.1850  204.7750  144.1420 O   0  0  0  0  0  1  0  0  0  0  0  0
  160.7860  203.2350  145.9320 C   0  0  0  0  0  2  0  0  0  0  0  0
  160.9860  201.8560  145.9090 O   0  0  0  0  0  0  0  0  0  0  0  0
  161.0730  201.4940  147.2520 C   0  0  0  0  0  2  0  0  0  0  0  0
  160.8200  202.7080  148.1320 C   0  0  0  0  0  2  0  0  0  0  0  0
  161.0840  202.4490  149.6170 C   0  0  2  0  0  3  0  0  0  0  0  0
  160.5940  201.0830  150.0750 C   0  0  0  0  0  1  0  0  0  0  0  0
  160.9520  203.3070  152.0110 C   0  0  0  0  0  1  0  0  0  0  0  0
  160.6640  203.5910  150.5450 C   0  0  0  0  0  2  0  0  0  0  0  0
  162.4930  207.3280  148.2480 N   0  0  0  0  0  2  0  0  0  0  0  0
  161.6470  207.7550  149.3560 C   0  0  0  0  0  2  0  0  0  0  0  0
  162.2480  207.3760  150.6300 N   0  0  0  0  0  2  0  0  0  0  0  0
  160.9730  210.8280  153.8530 C   0  0  0  0  0  3  0  0  0  0  0  0
  160.7180  208.4770  154.4240 C   0  0  0  0  0  0  0  0  0  0  0  0
  161.5990  209.1220  152.2510 C   0  0  0  0  0  3  0  0  0  0  0  0
  160.0850  210.1870  156.0170 C   0  0  0  0  0  0  0  0  0  0  0  0
  161.0980  209.4810  153.5050 C   0  0  0  0  0  0  0  0  0  0  0  0
  161.3610  206.7800  152.8230 C   0  0  0  0  0  3  0  0  0  0  0  0
  160.2100  208.8360  155.6760 C   0  0  0  0  0  3  0  0  0  0  0  0
  160.8530  207.1310  154.0790 C   0  0  0  0  0  3  0  0  0  0  0  0
  159.5810  210.5420  157.2600 O   0  0  0  0  0  1  0  0  0  0  0  0
  160.4670  211.1800  155.1090 C   0  0  0  0  0  3  0  0  0  0  0  0
  161.7330  207.7690  151.9050 C   0  0  0  0  0  0  0  0  0  0  0  0
  2  1  1  0  0  0  0
  2 15  1  0  0  0  0
  3  2  1  0  0  0  0
  4  3  1  0  0  0  0
  5  6  1  6  0  0  0
  5  4  1  0  0  0  0
  5  7  1  0  0  0  0
  8  7  1  0  0  0  0
  8  9  1  0  0  0  0
  9 10  1  0  0  0  0
 10 11  1  0  0  0  0
 11 12  1  1  0  0  0
 11 14  1  0  0  0  0
 14 13  1  0  0  0  0
 15 16  1  0  0  0  0
 16 17  1  0  0  0  0
 17 28  1  0  0  0  0
 18 27  1  0  0  0  0
 19 24  2  0  0  0  0
 20 22  1  0  0  0  0
 21 26  1  0  0  0  0
 22 18  2  0  0  0  0
 22 19  1  0  0  0  0
 23 25  2  0  0  0  0
 24 21  1  0  0  0  0
 25 19  1  0  0  0  0
 27 21  2  0  0  0  0
 28 20  2  0  0  0  0
 28 23  1  0  0  0  0
M  END
>  <MODEL>
2

>  <REMARK>
 VINA RESULT:      -6.8      2.632      8.012
  Name = 
  13 active torsions:
  status: ('A' for Active; 'I' for Inactive)
    1  A    between atoms: C_1  and  C_2
    2  A    between atoms: C_1  and  C_26
    3  A    between atoms: C_2  and  O_3
    4  A    between atoms: O_3  and  C_7
    5  A    between atoms: C_5  and  N_20
    6  A    between atoms: C_5  and  N_27
    7  A    between atoms: C_6  and  C_11
    8  A    between atoms: C_6  and  C_28
    9  A    between atoms: C_7  and  C_28
   10  A    between atoms: C_19  and  N_21
   11  A    between atoms: C_19  and  C_26
   12  A    between atoms: N_20  and  C_25
   13  A    between atoms: N_21  and  N_27
                            x       y       z     vdW  Elec       q    Type
                         _______ _______ _______ _____ _____    ______ ____

>  <TORSDO>
F 13

$$$$
=
 OpenBabel11052422483D

 28 29  0  0  1  0  0  0  0  0999 V2000
  163.1040  205.2370  146.3790 C   0  0  0  0  0  1  0  0  0  0  0  0
  161.8880  205.8070  145.8170 N   0  0  0  0  0  0  0  0  0  0  0  0
  160.9830  204.7220  145.4220 C   0  0  0  0  0  2  0  0  0  0  0  0
  161.5950  203.3260  145.6150 C   0  0  0  0  0  2  0  0  0  0  0  0
  160.6080  202.2170  145.2760 C   0  0  2  0  0  3  0  0  0  0  0  0
  159.4140  202.7520  144.7870 O   0  0  0  0  0  1  0  0  0  0  0  0
  160.3370  201.3420  146.4890 C   0  0  0  0  0  2  0  0  0  0  0  0
  161.5340  201.0620  147.1470 O   0  0  0  0  0  0  0  0  0  0  0  0
  161.1480  200.7240  148.4430 C   0  0  0  0  0  2  0  0  0  0  0  0
  159.9950  201.6120  148.8860 C   0  0  0  0  0  2  0  0  0  0  0  0
  160.4240  202.7440  149.8220 C   0  0  2  0  0  3  0  0  0  0  0  0
  161.1170  203.8850  149.0900 C   0  0  0  0  0  1  0  0  0  0  0  0
  160.9050  203.1640  152.2870 C   0  0  0  0  0  1  0  0  0  0  0  0
  161.1690  202.2820  151.0760 C   0  0  0  0  0  2  0  0  0  0  0  0
  161.2680  206.5630  146.8260 N   0  0  0  0  0  2  0  0  0  0  0  0
  162.3110  207.0390  147.7260 C   0  0  0  0  0  2  0  0  0  0  0  0
  161.8110  208.1330  148.5520 N   0  0  0  0  0  2  0  0  0  0  0  0
  161.5050  210.1780  152.9850 C   0  0  0  0  0  3  0  0  0  0  0  0
  161.1650  207.7830  152.7240 C   0  0  0  0  0  0  0  0  0  0  0  0
  161.6510  209.1710  150.7870 C   0  0  0  0  0  3  0  0  0  0  0  0
  161.0120  208.7970  154.9170 C   0  0  0  0  0  0  0  0  0  0  0  0
  161.4410  209.0510  152.1630 C   0  0  0  0  0  0  0  0  0  0  0  0
  161.3280  206.7840  150.5260 C   0  0  0  0  0  3  0  0  0  0  0  0
  160.9490  207.6640  154.1000 C   0  0  0  0  0  3  0  0  0  0  0  0
  161.1120  206.6560  151.9020 C   0  0  0  0  0  3  0  0  0  0  0  0
  160.7970  208.6770  156.2830 O   0  0  0  0  0  1  0  0  0  0  0  0
  161.2910  210.0500  154.3620 C   0  0  0  0  0  3  0  0  0  0  0  0
  161.5960  208.0370  149.9620 C   0  0  0  0  0  0  0  0  0  0  0  0
  2  1  1  0  0  0  0
  2 15  1  0  0  0  0
  3  4  1  0  0  0  0
  3  2  1  0  0  0  0
  5  6  1  1  0  0  0
  5  4  1  0  0  0  0
  5  7  1  0  0  0  0
  7  8  1  0  0  0  0
  8  9  1  0  0  0  0
  9 10  1  0  0  0  0
 10 11  1  0  0  0  0
 11 12  1  6  0  0  0
 11 14  1  0  0  0  0
 14 13  1  0  0  0  0
 15 16  1  0  0  0  0
 16 17  1  0  0  0  0
 17 28  1  0  0  0  0
 18 27  1  0  0  0  0
 19 24  2  0  0  0  0
 20 22  1  0  0  0  0
 21 26  1  0  0  0  0
 22 19  1  0  0  0  0
 22 18  2  0  0  0  0
 23 25  2  0  0  0  0
 24 21  1  0  0  0  0
 25 19  1  0  0  0  0
 27 21  2  0  0  0  0
 28 23  1  0  0  0  0
 28 20  2  0  0  0  0
M  END
>  <MODEL>
3

>  <REMARK>
 VINA RESULT:      -6.8      2.697      7.869
  Name = 
  13 active torsions:
  status: ('A' for Active; 'I' for Inactive)
    1  A    between atoms: C_1  and  C_2
    2  A    between atoms: C_1  and  C_26
    3  A    between atoms: C_2  and  O_3
    4  A    between atoms: O_3  and  C_7
    5  A    between atoms: C_5  and  N_20
    6  A    between atoms: C_5  and  N_27
    7  A    between atoms: C_6  and  C_11
    8  A    between atoms: C_6  and  C_28
    9  A    between atoms: C_7  and  C_28
   10  A    between atoms: C_19  and  N_21
   11  A    between atoms: C_19  and  C_26
   12  A    between atoms: N_20  and  C_25
   13  A    between atoms: N_21  and  N_27
                            x       y       z     vdW  Elec       q    Type
                         _______ _______ _______ _____ _____    ______ ____

>  <TORSDO>
F 13

$$$$
=
 OpenBabel11052422483D

 28 29  0  0  1  0  0  0  0  0999 V2000
  162.0830  210.8260  150.1440 C   0  0  0  0  0  1  0  0  0  0  0  0
  162.0430  210.1350  151.4250 N   0  0  0  0  0  0  0  0  0  0  0  0
  160.6790  210.1900  151.9620 C   0  0  0  0  0  2  0  0  0  0  0  0
  160.4200  211.4320  152.8260 C   0  0  0  0  0  2  0  0  0  0  0  0
  158.9790  211.4980  153.3160 C   0  0  2  0  0  3  0  0  0  0  0  0
  158.3020  212.5590  152.7120 O   0  0  0  0  0  1  0  0  0  0  0  0
  158.9260  211.6300  154.8290 C   0  0  0  0  0  2  0  0  0  0  0  0
  159.0980  210.3790  155.4200 O   0  0  0  0  0  0  0  0  0  0  0  0
  160.1800  210.5470  156.2830 C   0  0  0  0  0  2  0  0  0  0  0  0
  161.0990  209.3380  156.1990 C   0  0  0  0  0  2  0  0  0  0  0  0
  160.4750  208.1500  155.4630 C   0  0  2  0  0  3  0  0  0  0  0  0
  159.9800  207.0640  156.4070 C   0  0  0  0  0  1  0  0  0  0  0  0
  160.9220  206.2040  153.8830 C   0  0  0  0  0  1  0  0  0  0  0  0
  161.3140  207.6120  154.3020 C   0  0  0  0  0  2  0  0  0  0  0  0
  162.3820  208.7920  151.1940 N   0  0  0  0  0  2  0  0  0  0  0  0
  161.7400  208.3800  149.9520 C   0  0  0  0  0  2  0  0  0  0  0  0
  160.8490  207.2500  150.1890 N   0  0  0  0  0  2  0  0  0  0  0  0
  160.8100  202.3610  150.3430 C   0  0  0  0  0  3  0  0  0  0  0  0
  161.2650  203.5090  148.2460 C   0  0  0  0  0  0  0  0  0  0  0  0
  160.8220  204.7820  150.2700 C   0  0  0  0  0  3  0  0  0  0  0  0
  161.2440  201.0880  148.3240 C   0  0  0  0  0  0  0  0  0  0  0  0
  160.9640  203.5500  149.6270 C   0  0  0  0  0  0  0  0  0  0  0  0
  161.2900  205.9280  148.1870 C   0  0  0  0  0  3  0  0  0  0  0  0
  161.4010  202.2760  147.6010 C   0  0  0  0  0  3  0  0  0  0  0  0
  161.4290  204.6980  147.5340 C   0  0  0  0  0  3  0  0  0  0  0  0
  161.3800  199.8660  147.6820 O   0  0  0  0  0  1  0  0  0  0  0  0
  160.9510  201.1310  149.6910 C   0  0  0  0  0  3  0  0  0  0  0  0
  160.9840  205.9770  149.5520 C   0  0  0  0  0  0  0  0  0  0  0  0
  1  2  1  0  0  0  0
  2  3  1  0  0  0  0
  3  4  1  0  0  0  0
  4  5  1  0  0  0  0
  5  6  1  6  0  0  0
  5  7  1  0  0  0  0
  7  8  1  0  0  0  0
  8  9  1  0  0  0  0
 10  9  1  0  0  0  0
 11 10  1  0  0  0  0
 11 12  1  1  0  0  0
 13 14  1  0  0  0  0
 14 11  1  0  0  0  0
 15  2  1  0  0  0  0
 16 17  1  0  0  0  0
 16 15  1  0  0  0  0
 19 22  1  0  0  0  0
 21 27  2  0  0  0  0
 22 20  1  0  0  0  0
 22 18  2  0  0  0  0
 23 28  1  0  0  0  0
 24 19  2  0  0  0  0
 24 21  1  0  0  0  0
 25 23  2  0  0  0  0
 25 19  1  0  0  0  0
 26 21  1  0  0  0  0
 27 18  1  0  0  0  0
 28 17  1  0  0  0  0
 28 20  2  0  0  0  0
M  END
>  <MODEL>
4

>  <REMARK>
 VINA RESULT:      -6.8      2.539      5.461
  Name = 
  13 active torsions:
  status: ('A' for Active; 'I' for Inactive)
    1  A    between atoms: C_1  and  C_2
    2  A    between atoms: C_1  and  C_26
    3  A    between atoms: C_2  and  O_3
    4  A    between atoms: O_3  and  C_7
    5  A    between atoms: C_5  and  N_20
    6  A    between atoms: C_5  and  N_27
    7  A    between atoms: C_6  and  C_11
    8  A    between atoms: C_6  and  C_28
    9  A    between atoms: C_7  and  C_28
   10  A    between atoms: C_19  and  N_21
   11  A    between atoms: C_19  and  C_26
   12  A    between atoms: N_20  and  C_25
   13  A    between atoms: N_21  and  N_27
                            x       y       z     vdW  Elec       q    Type
                         _______ _______ _______ _____ _____    ______ ____

>  <TORSDO>
F 13

$$$$
=
 OpenBabel11052422483D

 28 29  0  0  1  0  0  0  0  0999 V2000
  161.9770  208.7190  150.2560 C   0  0  0  0  0  1  0  0  0  0  0  0
  161.9330  208.9200  151.6970 N   0  0  0  0  0  0  0  0  0  0  0  0
  161.2480  210.1830  151.9890 C   0  0  0  0  0  2  0  0  0  0  0  0
  160.1630  210.0460  153.0670 C   0  0  0  0  0  2  0  0  0  0  0  0
  159.2660  211.2760  153.1370 C   0  0  2  0  0  3  0  0  0  0  0  0
  159.6390  212.2120  152.1700 O   0  0  0  0  0  1  0  0  0  0  0  0
  159.3090  211.9000  154.5210 C   0  0  0  0  0  2  0  0  0  0  0  0
  158.9970  210.9410  155.4840 O   0  0  0  0  0  0  0  0  0  0  0  0
  159.9860  211.0860  156.4540 C   0  0  0  0  0  2  0  0  0  0  0  0
  160.1690  209.7750  157.2050 C   0  0  0  0  0  2  0  0  0  0  0  0
  161.4920  209.0740  156.8910 C   0  0  2  0  0  3  0  0  0  0  0  0
  162.6290  210.0490  156.6220 C   0  0  0  0  0  1  0  0  0  0  0  0
  160.0200  207.2900  155.8240 C   0  0  0  0  0  1  0  0  0  0  0  0
  161.3860  207.9590  155.8480 C   0  0  0  0  0  2  0  0  0  0  0  0
  161.1870  207.8650  152.2500 N   0  0  0  0  0  2  0  0  0  0  0  0
  162.0600  206.7010  152.3320 C   0  0  0  0  0  2  0  0  0  0  0  0
  161.2700  205.4790  152.4400 N   0  0  0  0  0  2  0  0  0  0  0  0
  161.3350  204.2330  147.7100 C   0  0  0  0  0  3  0  0  0  0  0  0
  160.9450  202.5360  149.4090 C   0  0  0  0  0  0  0  0  0  0  0  0
  161.3100  204.8540  150.0510 C   0  0  0  0  0  3  0  0  0  0  0  0
  160.9800  201.9210  147.0680 C   0  0  0  0  0  0  0  0  0  0  0  0
  161.1990  203.8810  149.0540 C   0  0  0  0  0  0  0  0  0  0  0  0
  160.9070  203.1690  151.7450 C   0  0  0  0  0  3  0  0  0  0  0  0
  160.8400  201.5620  148.4130 C   0  0  0  0  0  3  0  0  0  0  0  0
  160.7990  202.1880  150.7540 C   0  0  0  0  0  3  0  0  0  0  0  0
  160.8750  200.9530  146.0790 O   0  0  0  0  0  1  0  0  0  0  0  0
  161.2250  203.2520  146.7170 C   0  0  0  0  0  3  0  0  0  0  0  0
  161.1640  204.5010  151.4020 C   0  0  0  0  0  0  0  0  0  0  0  0
  1  2  1  0  0  0  0
  2  3  1  0  0  0  0
  2 15  1  0  0  0  0
  3  4  1  0  0  0  0
  4  5  1  0  0  0  0
  5  6  1  6  0  0  0
  5  7  1  0  0  0  0
  7  8  1  0  0  0  0
  8  9  1  0  0  0  0
  9 10  1  0  0  0  0
 11 12  1  6  0  0  0
 11 10  1  0  0  0  0
 13 14  1  0  0  0  0
 14 11  1  0  0  0  0
 15 16  1  0  0  0  0
 16 17  1  0  0  0  0
 18 22  1  0  0  0  0
 19 25  1  0  0  0  0
 20 28  2  0  0  0  0
 21 24  2  0  0  0  0
 22 19  2  0  0  0  0
 22 20  1  0  0  0  0
 24 19  1  0  0  0  0
 25 23  2  0  0  0  0
 26 21  1  0  0  0  0
 27 21  1  0  0  0  0
 27 18  2  0  0  0  0
 28 23  1  0  0  0  0
 28 17  1  0  0  0  0
M  END
>  <MODEL>
5

>  <REMARK>
 VINA RESULT:      -6.8      2.368      5.550
  Name = 
  13 active torsions:
  status: ('A' for Active; 'I' for Inactive)
    1  A    between atoms: C_1  and  C_2
    2  A    between atoms: C_1  and  C_26
    3  A    between atoms: C_2  and  O_3
    4  A    between atoms: O_3  and  C_7
    5  A    between atoms: C_5  and  N_20
    6  A    between atoms: C_5  and  N_27
    7  A    between atoms: C_6  and  C_11
    8  A    between atoms: C_6  and  C_28
    9  A    between atoms: C_7  and  C_28
   10  A    between atoms: C_19  and  N_21
   11  A    between atoms: C_19  and  C_26
   12  A    between atoms: N_20  and  C_25
   13  A    between atoms: N_21  and  N_27
                            x       y       z     vdW  Elec       q    Type
                         _______ _______ _______ _____ _____    ______ ____

>  <TORSDO>
F 13

$$$$
=
 OpenBabel11052422483D

 28 29  0  0  1  0  0  0  0  0999 V2000
  161.9360  210.4820  150.4530 C   0  0  0  0  0  1  0  0  0  0  0  0
  162.4990  209.6090  151.4720 N   0  0  0  0  0  0  0  0  0  0  0  0
  161.7450  209.7720  152.7200 C   0  0  0  0  0  2  0  0  0  0  0  0
  160.8520  208.5660  153.0470 C   0  0  0  0  0  2  0  0  0  0  0  0
  161.1960  207.9490  154.3960 C   0  0  2  0  0  3  0  0  0  0  0  0
  160.3400  206.8840  154.6830 O   0  0  0  0  0  1  0  0  0  0  0  0
  161.1350  208.9900  155.5010 C   0  0  0  0  0  2  0  0  0  0  0  0
  159.8110  209.1950  155.8860 O   0  0  0  0  0  0  0  0  0  0  0  0
  159.8680  210.2670  156.7750 C   0  0  0  0  0  2  0  0  0  0  0  0
  159.0470  211.4290  156.2380 C   0  0  0  0  0  2  0  0  0  0  0  0
  157.9500  210.9980  155.2610 C   0  0  2  0  0  3  0  0  0  0  0  0
  158.1970  211.4870  153.8410 C   0  0  0  0  0  1  0  0  0  0  0  0
  155.4680  210.5350  154.9320 C   0  0  0  0  0  1  0  0  0  0  0  0
  156.5250  211.2550  155.7550 C   0  0  0  0  0  2  0  0  0  0  0  0
  162.3500  208.2840  151.0270 N   0  0  0  0  0  2  0  0  0  0  0  0
  161.9640  208.3310  149.6220 C   0  0  0  0  0  2  0  0  0  0  0  0
  160.8510  207.4230  149.3690 N   0  0  0  0  0  2  0  0  0  0  0  0
  160.7030  202.5750  150.0060 C   0  0  0  0  0  3  0  0  0  0  0  0
  161.3180  203.4990  147.8410 C   0  0  0  0  0  0  0  0  0  0  0  0
  160.7680  204.9760  149.6930 C   0  0  0  0  0  3  0  0  0  0  0  0
  161.2420  201.1000  148.1570 C   0  0  0  0  0  0  0  0  0  0  0  0
  160.9270  203.6840  149.1870 C   0  0  0  0  0  0  0  0  0  0  0  0
  161.3960  205.9000  147.5430 C   0  0  0  0  0  3  0  0  0  0  0  0
  161.4710  202.2070  147.3320 C   0  0  0  0  0  3  0  0  0  0  0  0
  161.5530  204.6090  147.0270 C   0  0  0  0  0  3  0  0  0  0  0  0
  161.3950  199.8170  147.6520 O   0  0  0  0  0  1  0  0  0  0  0  0
  160.8610  201.2840  149.4900 C   0  0  0  0  0  3  0  0  0  0  0  0
  161.0020  206.0900  148.8730 C   0  0  0  0  0  0  0  0  0  0  0  0
  1  2  1  0  0  0  0
  2  3  1  0  0  0  0
  3  4  1  0  0  0  0
  4  5  1  0  0  0  0
  5  6  1  1  0  0  0
  5  7  1  0  0  0  0
  7  8  1  0  0  0  0
  8  9  1  0  0  0  0
 10  9  1  0  0  0  0
 11 12  1  6  0  0  0
 11 14  1  0  0  0  0
 11 10  1  0  0  0  0
 13 14  1  0  0  0  0
 15  2  1  0  0  0  0
 16 15  1  0  0  0  0
 17 16  1  0  0  0  0
 19 22  1  0  0  0  0
 21 27  2  0  0  0  0
 22 20  1  0  0  0  0
 22 18  2  0  0  0  0
 23 28  1  0  0  0  0
 24 19  2  0  0  0  0
 24 21  1  0  0  0  0
 25 23  2  0  0  0  0
 25 19  1  0  0  0  0
 26 21  1  0  0  0  0
 27 18  1  0  0  0  0
 28 17  1  0  0  0  0
 28 20  2  0  0  0  0
M  END
>  <MODEL>
6

>  <REMARK>
 VINA RESULT:      -6.7      3.163      6.170
  Name = 
  13 active torsions:
  status: ('A' for Active; 'I' for Inactive)
    1  A    between atoms: C_1  and  C_2
    2  A    between atoms: C_1  and  C_26
    3  A    between atoms: C_2  and  O_3
    4  A    between atoms: O_3  and  C_7
    5  A    between atoms: C_5  and  N_20
    6  A    between atoms: C_5  and  N_27
    7  A    between atoms: C_6  and  C_11
    8  A    between atoms: C_6  and  C_28
    9  A    between atoms: C_7  and  C_28
   10  A    between atoms: C_19  and  N_21
   11  A    between atoms: C_19  and  C_26
   12  A    between atoms: N_20  and  C_25
   13  A    between atoms: N_21  and  N_27
                            x       y       z     vdW  Elec       q    Type
                         _______ _______ _______ _____ _____    ______ ____

>  <TORSDO>
F 13

$$$$
=
 OpenBabel11052422483D

 28 29  0  0  1  0  0  0  0  0999 V2000
  162.2500  209.9760  151.2240 C   0  0  0  0  0  1  0  0  0  0  0  0
  162.2510  208.7600  152.0250 N   0  0  0  0  0  0  0  0  0  0  0  0
  160.9740  208.6500  152.7390 C   0  0  0  0  0  2  0  0  0  0  0  0
  160.8840  207.3980  153.6240 C   0  0  0  0  0  2  0  0  0  0  0  0
  160.8370  207.7480  155.1060 C   0  0  2  0  0  3  0  0  0  0  0  0
  159.7240  207.1640  155.7140 O   0  0  0  0  0  1  0  0  0  0  0  0
  160.8220  209.2540  155.3070 C   0  0  0  0  0  2  0  0  0  0  0  0
  159.7090  209.6190  156.0640 O   0  0  0  0  0  0  0  0  0  0  0  0
  159.7670  211.0110  156.1180 C   0  0  0  0  0  2  0  0  0  0  0  0
  160.3740  211.5540  154.8340 C   0  0  0  0  0  2  0  0  0  0  0  0
  159.3520  212.2280  153.9150 C   0  0  2  0  0  3  0  0  0  0  0  0
  157.9470  211.6680  154.0830 C   0  0  0  0  0  1  0  0  0  0  0  0
  158.8860  213.2430  151.6270 C   0  0  0  0  0  1  0  0  0  0  0  0
  159.7920  212.3430  152.4540 C   0  0  0  0  0  2  0  0  0  0  0  0
  162.3690  207.6710  151.1450 N   0  0  0  0  0  2  0  0  0  0  0  0
  161.9730  208.1290  149.8180 C   0  0  0  0  0  2  0  0  0  0  0  0
  160.8700  207.3220  149.3100 N   0  0  0  0  0  2  0  0  0  0  0  0
  160.7540  202.4630  149.8650 C   0  0  0  0  0  3  0  0  0  0  0  0
  161.3360  203.4270  147.7090 C   0  0  0  0  0  0  0  0  0  0  0  0
  160.8040  204.8690  149.5930 C   0  0  0  0  0  3  0  0  0  0  0  0
  161.2750  201.0220  147.9850 C   0  0  0  0  0  0  0  0  0  0  0  0
  160.9620  203.5870  149.0630 C   0  0  0  0  0  0  0  0  0  0  0  0
  161.3990  205.8330  147.4510 C   0  0  0  0  0  3  0  0  0  0  0  0
  161.4880  202.1440  147.1760 C   0  0  0  0  0  3  0  0  0  0  0  0
  161.5540  204.5520  146.9100 C   0  0  0  0  0  3  0  0  0  0  0  0
  161.4280  199.7490  147.4550 O   0  0  0  0  0  1  0  0  0  0  0  0
  160.9110  201.1810  149.3250 C   0  0  0  0  0  3  0  0  0  0  0  0
  161.0210  205.9980  148.7890 C   0  0  0  0  0  0  0  0  0  0  0  0
  1  2  1  0  0  0  0
  2  3  1  0  0  0  0
  3  4  1  0  0  0  0
  4  5  1  0  0  0  0
  5  7  1  0  0  0  0
  5  6  1  6  0  0  0
  7  8  1  0  0  0  0
  8  9  1  0  0  0  0
 10  9  1  0  0  0  0
 11 12  1  6  0  0  0
 11 10  1  0  0  0  0
 13 14  1  0  0  0  0
 14 11  1  0  0  0  0
 15  2  1  0  0  0  0
 16 15  1  0  0  0  0
 17 16  1  0  0  0  0
 19 22  1  0  0  0  0
 21 27  2  0  0  0  0
 22 20  1  0  0  0  0
 22 18  2  0  0  0  0
 23 28  1  0  0  0  0
 24 19  2  0  0  0  0
 24 21  1  0  0  0  0
 25 23  2  0  0  0  0
 25 19  1  0  0  0  0
 26 21  1  0  0  0  0
 27 18  1  0  0  0  0
 28 17  1  0  0  0  0
 28 20  2  0  0  0  0
M  END
>  <MODEL>
7

>  <REMARK>
 VINA RESULT:      -6.7      2.926      5.660
  Name = 
  13 active torsions:
  status: ('A' for Active; 'I' for Inactive)
    1  A    between atoms: C_1  and  C_2
    2  A    between atoms: C_1  and  C_26
    3  A    between atoms: C_2  and  O_3
    4  A    between atoms: O_3  and  C_7
    5  A    between atoms: C_5  and  N_20
    6  A    between atoms: C_5  and  N_27
    7  A    between atoms: C_6  and  C_11
    8  A    between atoms: C_6  and  C_28
    9  A    between atoms: C_7  and  C_28
   10  A    between atoms: C_19  and  N_21
   11  A    between atoms: C_19  and  C_26
   12  A    between atoms: N_20  and  C_25
   13  A    between atoms: N_21  and  N_27
                            x       y       z     vdW  Elec       q    Type
                         _______ _______ _______ _____ _____    ______ ____

>  <TORSDO>
F 13

$$$$
=
 OpenBabel11052422483D

 28 29  0  0  1  0  0  0  0  0999 V2000
  160.4270  205.0250  144.8790 C   0  0  0  0  0  1  0  0  0  0  0  0
  161.8630  204.7920  144.8160 N   0  0  0  0  0  0  0  0  0  0  0  0
  162.5430  205.7090  145.7370 C   0  0  0  0  0  2  0  0  0  0  0  0
  161.5710  206.5710  146.5560 C   0  0  0  0  0  2  0  0  0  0  0  0
  162.2940  207.4160  147.5970 C   0  0  2  0  0  3  0  0  0  0  0  0
  163.2550  206.6560  148.2670 O   0  0  0  0  0  1  0  0  0  0  0  0
  161.3100  208.0170  148.5870 C   0  0  0  0  0  2  0  0  0  0  0  0
  161.9390  209.0080  149.3390 O   0  0  0  0  0  0  0  0  0  0  0  0
  161.6980  208.6460  150.6630 C   0  0  0  0  0  2  0  0  0  0  0  0
  162.1750  209.7500  151.5950 C   0  0  0  0  0  2  0  0  0  0  0  0
  161.3110  209.9030  152.8490 C   0  0  2  0  0  3  0  0  0  0  0  0
  161.0400  208.5770  153.5460 C   0  0  0  0  0  1  0  0  0  0  0  0
  159.3480  211.0850  153.9590 C   0  0  0  0  0  1  0  0  0  0  0  0
  160.0560  210.7570  152.6540 C   0  0  0  0  0  2  0  0  0  0  0  0
  162.0970  203.4730  145.2400 N   0  0  0  0  0  2  0  0  0  0  0  0
  160.8040  202.8130  145.3730 C   0  0  0  0  0  2  0  0  0  0  0  0
  160.8440  201.8230  146.4430 N   0  0  0  0  0  2  0  0  0  0  0  0
  160.9500  205.1080  150.0660 C   0  0  0  0  0  3  0  0  0  0  0  0
  161.0260  202.7300  150.5770 C   0  0  0  0  0  0  0  0  0  0  0  0
  160.8910  203.4850  148.2690 C   0  0  0  0  0  3  0  0  0  0  0  0
  161.0750  204.3580  152.3700 C   0  0  0  0  0  0  0  0  0  0  0  0
  160.9550  203.7800  149.6330 C   0  0  0  0  0  0  0  0  0  0  0  0
  160.9820  201.1170  148.7740 C   0  0  0  0  0  3  0  0  0  0  0  0
  161.0830  203.0250  151.9420 C   0  0  0  0  0  3  0  0  0  0  0  0
  161.0410  201.4040  150.1420 C   0  0  0  0  0  3  0  0  0  0  0  0
  161.1330  204.6490  153.7250 O   0  0  0  0  0  1  0  0  0  0  0  0
  161.0110  205.3950  151.4350 C   0  0  0  0  0  3  0  0  0  0  0  0
  160.9040  202.1510  147.8340 C   0  0  0  0  0  0  0  0  0  0  0  0
  2  1  1  0  0  0  0
  2 15  1  0  0  0  0
  2  3  1  0  0  0  0
  3  4  1  0  0  0  0
  4  5  1  0  0  0  0
  5  6  1  1  0  0  0
  5  7  1  0  0  0  0
  7  8  1  0  0  0  0
  8  9  1  0  0  0  0
  9 10  1  0  0  0  0
 10 11  1  0  0  0  0
 11 12  1  6  0  0  0
 14 11  1  0  0  0  0
 14 13  1  0  0  0  0
 15 16  1  0  0  0  0
 16 17  1  0  0  0  0
 17 28  1  0  0  0  0
 18 27  1  0  0  0  0
 19 24  2  0  0  0  0
 20 22  1  0  0  0  0
 21 26  1  0  0  0  0
 22 18  2  0  0  0  0
 22 19  1  0  0  0  0
 23 25  2  0  0  0  0
 24 21  1  0  0  0  0
 25 19  1  0  0  0  0
 27 21  2  0  0  0  0
 28 20  2  0  0  0  0
 28 23  1  0  0  0  0
M  END
>  <MODEL>
8

>  <REMARK>
 VINA RESULT:      -6.6      3.099      6.174
  Name = 
  13 active torsions:
  status: ('A' for Active; 'I' for Inactive)
    1  A    between atoms: C_1  and  C_2
    2  A    between atoms: C_1  and  C_26
    3  A    between atoms: C_2  and  O_3
    4  A    between atoms: O_3  and  C_7
    5  A    between atoms: C_5  and  N_20
    6  A    between atoms: C_5  and  N_27
    7  A    between atoms: C_6  and  C_11
    8  A    between atoms: C_6  and  C_28
    9  A    between atoms: C_7  and  C_28
   10  A    between atoms: C_19  and  N_21
   11  A    between atoms: C_19  and  C_26
   12  A    between atoms: N_20  and  C_25
   13  A    between atoms: N_21  and  N_27
                            x       y       z     vdW  Elec       q    Type
                         _______ _______ _______ _____ _____    ______ ____

>  <TORSDO>
F 13

$$$$
=
 OpenBabel11052422483D

 28 29  0  0  1  0  0  0  0  0999 V2000
  160.4370  203.2530  150.3520 C   0  0  0  0  0  1  0  0  0  0  0  0
  161.4820  204.2480  150.5440 N   0  0  0  0  0  0  0  0  0  0  0  0
  160.9680  205.5690  150.1660 C   0  0  0  0  0  2  0  0  0  0  0  0
  160.7890  205.7360  148.6500 C   0  0  0  0  0  2  0  0  0  0  0  0
  161.9190  206.5450  148.0260 C   0  0  2  0  0  3  0  0  0  0  0  0
  161.5390  207.8790  147.8680 O   0  0  0  0  0  1  0  0  0  0  0  0
  162.3360  205.9510  146.6910 C   0  0  0  0  0  2  0  0  0  0  0  0
  162.5780  204.5860  146.8340 O   0  0  0  0  0  0  0  0  0  0  0  0
  162.4020  204.0650  145.5530 C   0  0  0  0  0  2  0  0  0  0  0  0
  160.9840  203.5370  145.4010 C   0  0  0  0  0  2  0  0  0  0  0  0
  160.8420  202.0600  145.7760 C   0  0  2  0  0  3  0  0  0  0  0  0
  159.8560  201.3160  144.8860 C   0  0  0  0  0  1  0  0  0  0  0  0
  161.5040  200.6820  147.8130 C   0  0  0  0  0  1  0  0  0  0  0  0
  160.6300  201.8020  147.2690 C   0  0  0  0  0  2  0  0  0  0  0  0
  161.8070  204.2650  151.9110 N   0  0  0  0  0  2  0  0  0  0  0  0
  162.0510  205.6510  152.2910 C   0  0  0  0  0  2  0  0  0  0  0  0
  161.4120  205.9490  153.5680 N   0  0  0  0  0  2  0  0  0  0  0  0
  160.5190  210.6480  152.5420 C   0  0  0  0  0  3  0  0  0  0  0  0
  160.0780  209.7850  154.7730 C   0  0  0  0  0  0  0  0  0  0  0  0
  160.9570  208.3190  153.0430 C   0  0  0  0  0  3  0  0  0  0  0  0
  159.6340  212.1100  154.2630 C   0  0  0  0  0  0  0  0  0  0  0  0
  160.5200  209.5830  153.4450 C   0  0  0  0  0  0  0  0  0  0  0  0
  160.5330  207.4600  155.2690 C   0  0  0  0  0  3  0  0  0  0  0  0
  159.6340  211.0480  155.1740 C   0  0  0  0  0  3  0  0  0  0  0  0
  160.0890  208.7220  155.6790 C   0  0  0  0  0  3  0  0  0  0  0  0
  159.1940  213.3640  154.6620 O   0  0  0  0  0  1  0  0  0  0  0  0
  160.0770  211.9110  152.9510 C   0  0  0  0  0  3  0  0  0  0  0  0
  160.9650  207.2510  153.9540 C   0  0  0  0  0  0  0  0  0  0  0  0
  1  2  1  0  0  0  0
  2 15  1  0  0  0  0
  3  2  1  0  0  0  0
  4  3  1  0  0  0  0
  5  6  1  6  0  0  0
  5  4  1  0  0  0  0
  7  8  1  0  0  0  0
  7  5  1  0  0  0  0
  9  8  1  0  0  0  0
 10  9  1  0  0  0  0
 10 11  1  0  0  0  0
 11 12  1  6  0  0  0
 11 14  1  0  0  0  0
 14 13  1  0  0  0  0
 15 16  1  0  0  0  0
 16 17  1  0  0  0  0
 17 28  1  0  0  0  0
 18 27  2  0  0  0  0
 18 22  1  0  0  0  0
 19 24  1  0  0  0  0
 19 25  1  0  0  0  0
 20 22  1  0  0  0  0
 20 28  2  0  0  0  0
 21 26  1  0  0  0  0
 21 24  2  0  0  0  0
 22 19  2  0  0  0  0
 23 25  2  0  0  0  0
 27 21  1  0  0  0  0
 28 23  1  0  0  0  0
M  END
>  <MODEL>
9

>  <REMARK>
 VINA RESULT:      -6.6      2.205      7.411
  Name = 
  13 active torsions:
  status: ('A' for Active; 'I' for Inactive)
    1  A    between atoms: C_1  and  C_2
    2  A    between atoms: C_1  and  C_26
    3  A    between atoms: C_2  and  O_3
    4  A    between atoms: O_3  and  C_7
    5  A    between atoms: C_5  and  N_20
    6  A    between atoms: C_5  and  N_27
    7  A    between atoms: C_6  and  C_11
    8  A    between atoms: C_6  and  C_28
    9  A    between atoms: C_7  and  C_28
   10  A    between atoms: C_19  and  N_21
   11  A    between atoms: C_19  and  C_26
   12  A    between atoms: N_20  and  C_25
   13  A    between atoms: N_21  and  N_27
                            x       y       z     vdW  Elec       q    Type
                         _______ _______ _______ _____ _____    ______ ____

>  <TORSDO>
F 13

$$$$
