=
 OpenBabel11052422043D

 30 31  0  0  1  0  0  0  0  0999 V2000
  160.2990  205.5560  151.3130 C   0  0  1  0  0  3  0  0  0  0  0  0
  161.1910  207.4000  153.3970 C   0  0  0  0  0  2  0  0  0  0  0  0
  160.8810  208.2700  152.1960 C   0  0  0  0  0  0  0  0  0  0  0  0
  159.5290  204.5140  150.7730 O   0  0  0  0  0  1  0  0  0  0  0  0
  162.0130  206.1270  153.0550 C   0  0  0  0  0  2  0  0  0  0  0  0
  161.2860  205.1490  152.2580 N   0  0  0  0  0  0  0  0  0  0  0  0
  161.3280  207.8290  150.8230 C   0  0  2  0  0  3  0  0  0  0  0  0
  160.1180  209.1780  152.3360 O   0  0  0  0  0  0  0  0  0  0  0  0
  160.7830  206.5230  150.1550 C   0  0  1  0  0  3  0  0  0  0  0  0
  162.3430  204.1900  151.6380 C   0  0  0  0  0  2  0  0  0  0  0  0
  161.9230  202.8870  151.7060 O   0  0  0  0  0  1  0  0  0  0  0  0
  162.5230  208.5340  150.2000 C   0  0  0  0  0  2  0  0  0  0  0  0
  162.0000  209.4130  149.0170 C   0  0  0  0  0  2  0  0  0  0  0  0
  162.1610  210.8790  149.3520 N   0  0  0  0  0  2  0  0  0  0  0  0
  161.8110  211.6880  148.1080 C   0  0  0  0  0  3  0  0  0  0  0  0
  161.4750  213.1310  148.4460 C   0  0  0  0  0  2  0  0  0  0  0  0
  162.8880  212.8030  147.9690 C   0  0  0  0  0  2  0  0  0  0  0  0
  161.7900  205.8960  149.1600 C   0  0  0  0  0  2  0  0  0  0  0  0
  161.8740  205.7810  147.6170 C   0  0  0  0  0  2  0  0  0  0  0  0
  161.7790  204.3860  146.9790 C   0  0  2  0  0  0  0  0  0  0  0  0
  163.0940  204.3040  146.1340 C   0  0  0  0  0  1  0  0  0  0  0  0
  160.6180  204.3870  146.1300 O   0  0  0  0  0  0  0  0  0  0  0  0
  160.7500  203.6230  144.9310 C   0  0  0  0  0  2  0  0  0  0  0  0
  159.6990  202.5310  144.4230 C   0  0  0  0  0  2  0  0  0  0  0  0
  159.8630  201.2350  144.8000 O   0  0  0  0  0  1  0  0  0  0  0  0
  161.6180  203.1370  148.0820 C   0  0  0  0  0  2  0  0  0  0  0  0
  159.7600  201.9230  149.1500 O   0  0  0  0  0  1  0  0  0  0  0  0
  160.6360  201.9030  148.0400 C   0  0  2  0  0  3  0  0  0  0  0  0
  161.5570  199.8610  147.1100 O   0  0  0  0  0  1  0  0  0  0  0  0
  161.5550  200.7220  148.2040 C   0  0  0  0  0  2  0  0  0  0  0  0
  1  4  1  6  0  0  0
  1  6  1  0  0  0  0
  3  8  2  0  0  0  0
  3  2  1  0  0  0  0
  5  2  1  0  0  0  0
  6  5  1  0  0  0  0
  7 12  1  1  0  0  0
  7  3  1  0  0  0  0
  9 18  1  1  0  0  0
  9  7  1  0  0  0  0
  9  1  1  0  0  0  0
 10 11  1  0  0  0  0
 10  6  1  0  0  0  0
 13 14  1  0  0  0  0
 13 12  1  0  0  0  0
 15 16  1  0  0  0  0
 15 14  1  0  0  0  0
 17 15  1  0  0  0  0
 17 16  1  0  0  0  0
 19 18  1  0  0  0  0
 20 21  1  6  0  0  0
 20 19  1  0  0  0  0
 20 26  1  0  0  0  0
 22 20  1  0  0  0  0
 23 22  1  0  0  0  0
 24 25  1  0  0  0  0
 24 23  1  0  0  0  0
 28 26  1  0  0  0  0
 28 30  1  0  0  0  0
 28 27  1  1  0  0  0
 29 30  1  0  0  0  0
M  END
>  <MODEL>
1

>  <REMARK>
 VINA RESULT:      -5.2      0.000      0.000
  Name = 
  14 active torsions:
  status: ('A' for Active; 'I' for Inactive)
    1  A    between atoms: C_1  and  C_4
    2  A    between atoms: C_1  and  C_22
    3  A    between atoms: C_4  and  O_8
    4  A    between atoms: C_4  and  C_12
    5  A    between atoms: C_7  and  C_23
    6  A    between atoms: C_7  and  C_25
    7  A    between atoms: O_8  and  C_27
    8  A    between atoms: C_10  and  N_15
    9  A    between atoms: C_12  and  C_21
   10  A    between atoms: C_13  and  C_27
   11  A    between atoms: C_14  and  N_20
   12  A    between atoms: N_15  and  C_25
   13  A    between atoms: C_17  and  C_21
   14  A    between atoms: C_22  and  C_29
                            x       y       z     vdW  Elec       q    Type
                         _______ _______ _______ _____ _____    ______ ____

>  <TORSDO>
F 14

$$$$
=
 OpenBabel11052422043D

 30 31  0  0  1  0  0  0  0  0999 V2000
  161.2520  210.3790  153.5970 C   0  0  1  0  0  3  0  0  0  0  0  0
  160.4670  209.7150  156.3320 C   0  0  0  0  0  2  0  0  0  0  0  0
  161.3060  208.5450  155.8600 C   0  0  0  0  0  0  0  0  0  0  0  0
  161.7860  211.1870  152.5810 O   0  0  0  0  0  1  0  0  0  0  0  0
  159.4130  210.1920  155.2950 C   0  0  0  0  0  2  0  0  0  0  0  0
  159.9890  210.8020  154.1050 N   0  0  0  0  0  0  0  0  0  0  0  0
  161.0990  207.9950  154.4700 C   0  0  2  0  0  3  0  0  0  0  0  0
  162.2460  208.2190  156.5210 O   0  0  0  0  0  0  0  0  0  0  0  0
  161.3770  208.8520  153.1900 C   0  0  1  0  0  3  0  0  0  0  0  0
  158.8810  210.8040  153.0130 C   0  0  0  0  0  2  0  0  0  0  0  0
  157.9820  211.8170  153.2270 O   0  0  0  0  0  1  0  0  0  0  0  0
  160.3590  206.6740  154.3270 C   0  0  0  0  0  2  0  0  0  0  0  0
  161.3530  205.6290  153.7210 C   0  0  0  0  0  2  0  0  0  0  0  0
  160.6430  204.7770  152.6940 N   0  0  0  0  0  2  0  0  0  0  0  0
  161.7010  204.1150  151.8170 C   0  0  0  0  0  3  0  0  0  0  0  0
  161.3330  202.6830  151.4690 C   0  0  0  0  0  2  0  0  0  0  0  0
  161.0260  203.7830  150.4550 C   0  0  0  0  0  2  0  0  0  0  0  0
  160.5050  208.4250  151.9840 C   0  0  0  0  0  2  0  0  0  0  0  0
  160.7550  207.6130  150.6880 C   0  0  0  0  0  2  0  0  0  0  0  0
  162.0470  207.8740  149.8970 C   0  0  2  0  0  0  0  0  0  0  0  0
  163.1110  207.0470  150.6940 C   0  0  0  0  0  1  0  0  0  0  0  0
  162.3190  209.2830  149.9820 O   0  0  0  0  0  0  0  0  0  0  0  0
  161.9400  210.0400  148.8330 C   0  0  0  0  0  2  0  0  0  0  0  0
  162.2390  211.5960  148.6230 C   0  0  0  0  0  2  0  0  0  0  0  0
  161.2100  212.4810  148.7040 O   0  0  0  0  0  1  0  0  0  0  0  0
  161.9580  207.4560  148.2790 C   0  0  0  0  0  2  0  0  0  0  0  0
  162.7000  205.6190  146.8170 O   0  0  0  0  0  1  0  0  0  0  0  0
  161.6340  206.0520  147.6370 C   0  0  2  0  0  3  0  0  0  0  0  0
  160.7240  206.1470  145.3910 O   0  0  0  0  0  1  0  0  0  0  0  0
  160.4580  206.3410  146.7430 C   0  0  0  0  0  2  0  0  0  0  0  0
  1  4  1  6  0  0  0
  1  6  1  0  0  0  0
  3  2  1  0  0  0  0
  3  8  2  0  0  0  0
  5  2  1  0  0  0  0
  6  5  1  0  0  0  0
  7 12  1  1  0  0  0
  7  3  1  0  0  0  0
  9 18  1  6  0  0  0
  9  1  1  0  0  0  0
  9  7  1  0  0  0  0
 10 11  1  0  0  0  0
 10  6  1  0  0  0  0
 13 12  1  0  0  0  0
 14 13  1  0  0  0  0
 15 14  1  0  0  0  0
 16 15  1  0  0  0  0
 17 16  1  0  0  0  0
 17 15  1  0  0  0  0
 19 18  1  0  0  0  0
 20 22  1  0  0  0  0
 20 19  1  0  0  0  0
 20 21  1  1  0  0  0
 23 22  1  0  0  0  0
 24 25  1  0  0  0  0
 24 23  1  0  0  0  0
 26 20  1  0  0  0  0
 28 27  1  6  0  0  0
 28 26  1  0  0  0  0
 29 30  1  0  0  0  0
 30 28  1  0  0  0  0
M  END
>  <MODEL>
2

>  <REMARK>
 VINA RESULT:      -5.1      3.035      6.701
  Name = 
  14 active torsions:
  status: ('A' for Active; 'I' for Inactive)
    1  A    between atoms: C_1  and  C_4
    2  A    between atoms: C_1  and  C_22
    3  A    between atoms: C_4  and  O_8
    4  A    between atoms: C_4  and  C_12
    5  A    between atoms: C_7  and  C_23
    6  A    between atoms: C_7  and  C_25
    7  A    between atoms: O_8  and  C_27
    8  A    between atoms: C_10  and  N_15
    9  A    between atoms: C_12  and  C_21
   10  A    between atoms: C_13  and  C_27
   11  A    between atoms: C_14  and  N_20
   12  A    between atoms: N_15  and  C_25
   13  A    between atoms: C_17  and  C_21
   14  A    between atoms: C_22  and  C_29
                            x       y       z     vdW  Elec       q    Type
                         _______ _______ _______ _____ _____    ______ ____

>  <TORSDO>
F 14

$$$$
=
 OpenBabel11052422043D

 30 31  0  0  1  0  0  0  0  0999 V2000
  159.7110  209.6090  155.6990 C   0  0  1  0  0  3  0  0  0  0  0  0
  159.5040  212.5080  155.9890 C   0  0  0  0  0  2  0  0  0  0  0  0
  158.7320  212.1750  154.7290 C   0  0  0  0  0  0  0  0  0  0  0  0
  159.6240  208.2730  156.1210 O   0  0  0  0  0  1  0  0  0  0  0  0
  160.8800  211.7940  156.0910 C   0  0  0  0  0  2  0  0  0  0  0  0
  160.7860  210.3530  156.2670 N   0  0  0  0  0  0  0  0  0  0  0  0
  159.3070  211.1850  153.7450 C   0  0  2  0  0  3  0  0  0  0  0  0
  157.6000  212.5450  154.6430 O   0  0  0  0  0  0  0  0  0  0  0  0
  159.5500  209.6850  154.1250 C   0  0  1  0  0  3  0  0  0  0  0  0
  162.1780  209.7580  155.9030 C   0  0  0  0  0  2  0  0  0  0  0  0
  163.0530  210.7470  155.5320 O   0  0  0  0  0  1  0  0  0  0  0  0
  159.8980  211.7240  152.4520 C   0  0  0  0  0  2  0  0  0  0  0  0
  159.3660  213.1810  152.2500 C   0  0  0  0  0  2  0  0  0  0  0  0
  158.4110  213.2230  151.0780 N   0  0  0  0  0  2  0  0  0  0  0  0
  158.9260  214.2640  150.0890 C   0  0  0  0  0  3  0  0  0  0  0  0
  160.1890  213.8000  149.3850 C   0  0  0  0  0  2  0  0  0  0  0  0
  158.8500  213.6250  148.6720 C   0  0  0  0  0  2  0  0  0  0  0  0
  160.7060  209.0450  153.3180 C   0  0  0  0  0  2  0  0  0  0  0  0
  160.8140  208.3150  151.9560 C   0  0  0  0  0  2  0  0  0  0  0  0
  161.4430  206.9120  151.9240 C   0  0  2  0  0  0  0  0  0  0  0  0
  161.6520  206.5960  153.4430 C   0  0  0  0  0  1  0  0  0  0  0  0
  162.7030  207.0280  151.2410 O   0  0  0  0  0  0  0  0  0  0  0  0
  162.6930  207.8860  150.1010 C   0  0  0  0  0  2  0  0  0  0  0  0
  162.4850  207.3990  148.5930 C   0  0  0  0  0  2  0  0  0  0  0  0
  161.2360  207.4370  148.0560 O   0  0  0  0  0  1  0  0  0  0  0  0
  160.5210  205.7640  151.1270 C   0  0  0  0  0  2  0  0  0  0  0  0
  161.9790  203.8460  151.6340 O   0  0  0  0  0  1  0  0  0  0  0  0
  160.7950  204.2200  150.9590 C   0  0  2  0  0  3  0  0  0  0  0  0
  160.6170  202.8500  148.9660 O   0  0  0  0  0  1  0  0  0  0  0  0
  161.0440  204.0700  149.4830 C   0  0  0  0  0  2  0  0  0  0  0  0
  1  4  1  6  0  0  0
  1  6  1  0  0  0  0
  2  5  1  0  0  0  0
  3  2  1  0  0  0  0
  5  6  1  0  0  0  0
  7 12  1  1  0  0  0
  7  9  1  0  0  0  0
  7  3  1  0  0  0  0
  8  3  2  0  0  0  0
  9 18  1  6  0  0  0
  9  1  1  0  0  0  0
 10  6  1  0  0  0  0
 11 10  1  0  0  0  0
 13 12  1  0  0  0  0
 14 13  1  0  0  0  0
 15 14  1  0  0  0  0
 16 15  1  0  0  0  0
 17 16  1  0  0  0  0
 17 15  1  0  0  0  0
 19 18  1  0  0  0  0
 20 19  1  0  0  0  0
 20 21  1  1  0  0  0
 22 20  1  0  0  0  0
 23 22  1  0  0  0  0
 24 23  1  0  0  0  0
 25 24  1  0  0  0  0
 26 20  1  0  0  0  0
 28 26  1  0  0  0  0
 28 27  1  1  0  0  0
 29 30  1  0  0  0  0
 30 28  1  0  0  0  0
M  END
>  <MODEL>
3

>  <REMARK>
 VINA RESULT:      -5.0      3.432      5.622
  Name = 
  14 active torsions:
  status: ('A' for Active; 'I' for Inactive)
    1  A    between atoms: C_1  and  C_4
    2  A    between atoms: C_1  and  C_22
    3  A    between atoms: C_4  and  O_8
    4  A    between atoms: C_4  and  C_12
    5  A    between atoms: C_7  and  C_23
    6  A    between atoms: C_7  and  C_25
    7  A    between atoms: O_8  and  C_27
    8  A    between atoms: C_10  and  N_15
    9  A    between atoms: C_12  and  C_21
   10  A    between atoms: C_13  and  C_27
   11  A    between atoms: C_14  and  N_20
   12  A    between atoms: N_15  and  C_25
   13  A    between atoms: C_17  and  C_21
   14  A    between atoms: C_22  and  C_29
                            x       y       z     vdW  Elec       q    Type
                         _______ _______ _______ _____ _____    ______ ____

>  <TORSDO>
F 14

$$$$
=
 OpenBabel11052422043D

 30 31  0  0  1  0  0  0  0  0999 V2000
  160.5320  206.4360  151.4260 C   0  0  1  0  0  3  0  0  0  0  0  0
  160.9350  208.2380  153.6900 C   0  0  0  0  0  2  0  0  0  0  0  0
  160.6740  209.1390  152.5010 C   0  0  0  0  0  0  0  0  0  0  0  0
  159.9640  205.3490  150.7430 O   0  0  0  0  0  1  0  0  0  0  0  0
  161.9400  207.0880  153.3990 C   0  0  0  0  0  2  0  0  0  0  0  0
  161.4370  206.0860  152.4710 N   0  0  0  0  0  0  0  0  0  0  0  0
  161.3350  208.8360  151.1780 C   0  0  2  0  0  3  0  0  0  0  0  0
  159.7960  209.9450  152.5840 O   0  0  0  0  0  0  0  0  0  0  0  0
  161.0360  207.5200  150.3850 C   0  0  1  0  0  3  0  0  0  0  0  0
  162.6690  205.2920  151.9480 C   0  0  0  0  0  2  0  0  0  0  0  0
  162.3330  203.9920  151.6670 O   0  0  0  0  0  1  0  0  0  0  0  0
  162.5040  209.7080  150.7480 C   0  0  0  0  0  2  0  0  0  0  0  0
  161.9260  210.9470  149.9890 C   0  0  0  0  0  2  0  0  0  0  0  0
  162.1130  210.7730  148.4980 N   0  0  0  0  0  2  0  0  0  0  0  0
  161.5120  211.9910  147.8030 C   0  0  0  0  0  3  0  0  0  0  0  0
  161.9330  213.2890  148.4700 C   0  0  0  0  0  2  0  0  0  0  0  0
  162.6970  212.8230  147.2330 C   0  0  0  0  0  2  0  0  0  0  0  0
  162.2250  207.0730  149.5000 C   0  0  0  0  0  2  0  0  0  0  0  0
  162.4110  206.7670  147.9930 C   0  0  0  0  0  2  0  0  0  0  0  0
  161.5380  205.6740  147.3540 C   0  0  2  0  0  0  0  0  0  0  0  0
  160.2930  206.4790  146.8520 C   0  0  0  0  0  1  0  0  0  0  0  0
  161.1740  204.7570  148.4000 O   0  0  0  0  0  0  0  0  0  0  0  0
  161.6310  203.4180  148.2130 C   0  0  0  0  0  3  0  0  0  0  0  0
  160.8560  202.1100  148.7050 C   0  0  0  0  0  3  0  0  0  0  0  0
  161.4220  200.8910  148.4970 O   0  0  0  0  0  1  0  0  0  0  0  0
  162.3010  204.8070  146.1420 C   0  0  0  0  0  2  0  0  0  0  0  0
  161.4730  205.7210  144.0100 O   0  0  0  0  0  1  0  0  0  0  0  0
  161.8050  204.5170  144.6730 C   0  0  2  0  0  3  0  0  0  0  0  0
  160.7360  202.4050  145.1980 O   0  0  0  0  0  1  0  0  0  0  0  0
  160.5300  203.7450  144.8830 C   0  0  0  0  0  2  0  0  0  0  0  0
  1  4  1  6  0  0  0
  1  6  1  0  0  0  0
  3  8  2  0  0  0  0
  3  2  1  0  0  0  0
  5  2  1  0  0  0  0
  6  5  1  0  0  0  0
  7 12  1  1  0  0  0
  7  3  1  0  0  0  0
  9 18  1  1  0  0  0
  9  7  1  0  0  0  0
  9  1  1  0  0  0  0
 10  6  1  0  0  0  0
 11 10  1  0  0  0  0
 13 12  1  0  0  0  0
 14 13  1  0  0  0  0
 15 16  1  0  0  0  0
 15 14  1  0  0  0  0
 17 15  1  0  0  0  0
 17 16  1  0  0  0  0
 19 18  1  0  0  0  0
 20 21  1  6  0  0  0
 20 19  1  0  0  0  0
 20 22  1  0  0  0  0
 23 22  1  0  0  0  0
 23 24  2  0  0  0  0
 25 24  1  0  0  0  0
 26 20  1  0  0  0  0
 28 27  1  1  0  0  0
 28 30  1  0  0  0  0
 28 26  1  0  0  0  0
 30 29  1  0  0  0  0
M  END
>  <MODEL>
4

>  <REMARK>
 VINA RESULT:      -4.9      1.228      2.528
  Name = 
  14 active torsions:
  status: ('A' for Active; 'I' for Inactive)
    1  A    between atoms: C_1  and  C_4
    2  A    between atoms: C_1  and  C_22
    3  A    between atoms: C_4  and  O_8
    4  A    between atoms: C_4  and  C_12
    5  A    between atoms: C_7  and  C_23
    6  A    between atoms: C_7  and  C_25
    7  A    between atoms: O_8  and  C_27
    8  A    between atoms: C_10  and  N_15
    9  A    between atoms: C_12  and  C_21
   10  A    between atoms: C_13  and  C_27
   11  A    between atoms: C_14  and  N_20
   12  A    between atoms: N_15  and  C_25
   13  A    between atoms: C_17  and  C_21
   14  A    between atoms: C_22  and  C_29
                            x       y       z     vdW  Elec       q    Type
                         _______ _______ _______ _____ _____    ______ ____

>  <TORSDO>
F 14

$$$$
=
 OpenBabel11052422043D

 30 31  0  0  1  0  0  0  0  0999 V2000
  162.4520  209.2870  152.0890 C   0  0  1  0  0  3  0  0  0  0  0  0
  161.1880  206.8260  153.0290 C   0  0  0  0  0  2  0  0  0  0  0  0
  161.8390  206.4650  151.7090 C   0  0  0  0  0  0  0  0  0  0  0  0
  163.2660  210.4260  152.1920 O   0  0  0  0  0  1  0  0  0  0  0  0
  160.3990  208.1640  152.9950 C   0  0  0  0  0  2  0  0  0  0  0  0
  161.2390  209.3420  152.8350 N   0  0  0  0  0  0  0  0  0  0  0  0
  161.7190  207.4100  150.5370 C   0  0  2  0  0  3  0  0  0  0  0  0
  162.5980  205.5440  151.6850 O   0  0  0  0  0  0  0  0  0  0  0  0
  162.3310  208.8510  150.5700 C   0  0  1  0  0  3  0  0  0  0  0  0
  160.3110  210.5040  152.3750 C   0  0  0  0  0  2  0  0  0  0  0  0
  160.3730  211.5580  153.2500 O   0  0  0  0  0  1  0  0  0  0  0  0
  160.7630  207.0390  149.4150 C   0  0  0  0  0  2  0  0  0  0  0  0
  161.6150  206.6910  148.1510 C   0  0  0  0  0  2  0  0  0  0  0  0
  161.6120  205.1960  147.9220 N   0  0  0  0  0  2  0  0  0  0  0  0
  161.3680  204.9470  146.4370 C   0  0  0  0  0  3  0  0  0  0  0  0
  162.2760  205.7960  145.5640 C   0  0  0  0  0  2  0  0  0  0  0  0
  162.6800  204.3510  145.8510 C   0  0  0  0  0  2  0  0  0  0  0  0
  161.5640  209.8450  149.6640 C   0  0  0  0  0  2  0  0  0  0  0  0
  161.8930  210.6070  148.3550 C   0  0  0  0  0  2  0  0  0  0  0  0
  161.6380  212.1220  148.3060 C   0  0  2  0  0  0  0  0  0  0  0  0
  163.0480  212.6950  147.9370 C   0  0  0  0  0  1  0  0  0  0  0  0
  161.2450  212.5300  149.6280 O   0  0  0  0  0  0  0  0  0  0  0  0
  160.2680  213.5680  149.6720 C   0  0  0  0  0  2  0  0  0  0  0  0
  159.0730  213.6540  150.7300 C   0  0  0  0  0  2  0  0  0  0  0  0
  157.8690  213.1070  150.4090 O   0  0  0  0  0  1  0  0  0  0  0  0
  160.4340  212.5820  147.2390 C   0  0  0  0  0  2  0  0  0  0  0  0
  161.0440  213.0670  144.9030 O   0  0  0  0  0  1  0  0  0  0  0  0
  160.2690  212.2080  145.7150 C   0  0  2  0  0  3  0  0  0  0  0  0
  158.0330  212.5540  146.5870 O   0  0  0  0  0  1  0  0  0  0  0  0
  158.8190  212.5050  145.4400 C   0  0  0  0  0  2  0  0  0  0  0  0
  1  4  1  6  0  0  0
  1  6  1  0  0  0  0
  3  2  1  0  0  0  0
  5  2  1  0  0  0  0
  6  5  1  0  0  0  0
  7 12  1  1  0  0  0
  7  9  1  0  0  0  0
  7  3  1  0  0  0  0
  8  3  2  0  0  0  0
  9 18  1  6  0  0  0
  9  1  1  0  0  0  0
 10  6  1  0  0  0  0
 10 11  1  0  0  0  0
 13 12  1  0  0  0  0
 14 13  1  0  0  0  0
 15 14  1  0  0  0  0
 16 17  1  0  0  0  0
 16 15  1  0  0  0  0
 17 15  1  0  0  0  0
 19 18  1  0  0  0  0
 20 21  1  6  0  0  0
 20 19  1  0  0  0  0
 20 22  1  0  0  0  0
 22 23  1  0  0  0  0
 23 24  1  0  0  0  0
 25 24  1  0  0  0  0
 26 20  1  0  0  0  0
 28 27  1  6  0  0  0
 28 26  1  0  0  0  0
 30 28  1  0  0  0  0
 30 29  1  0  0  0  0
M  END
>  <MODEL>
5

>  <REMARK>
 VINA RESULT:      -4.8      3.289      7.914
  Name = 
  14 active torsions:
  status: ('A' for Active; 'I' for Inactive)
    1  A    between atoms: C_1  and  C_4
    2  A    between atoms: C_1  and  C_22
    3  A    between atoms: C_4  and  O_8
    4  A    between atoms: C_4  and  C_12
    5  A    between atoms: C_7  and  C_23
    6  A    between atoms: C_7  and  C_25
    7  A    between atoms: O_8  and  C_27
    8  A    between atoms: C_10  and  N_15
    9  A    between atoms: C_12  and  C_21
   10  A    between atoms: C_13  and  C_27
   11  A    between atoms: C_14  and  N_20
   12  A    between atoms: N_15  and  C_25
   13  A    between atoms: C_17  and  C_21
   14  A    between atoms: C_22  and  C_29
                            x       y       z     vdW  Elec       q    Type
                         _______ _______ _______ _____ _____    ______ ____

>  <TORSDO>
F 14

$$$$
=
 OpenBabel11052422043D

 30 31  0  0  1  0  0  0  0  0999 V2000
  162.3710  205.1370  151.4590 C   0  0  1  0  0  3  0  0  0  0  0  0
  160.5000  203.1580  150.4020 C   0  0  0  0  0  2  0  0  0  0  0  0
  161.0630  203.8680  149.1870 C   0  0  0  0  0  0  0  0  0  0  0  0
  163.4480  205.5900  152.2380 O   0  0  0  0  0  1  0  0  0  0  0  0
  160.0810  204.1150  151.5510 C   0  0  0  0  0  2  0  0  0  0  0  0
  161.1980  204.7940  152.1920 N   0  0  0  0  0  0  0  0  0  0  0  0
  161.2130  205.3710  149.2070 C   0  0  2  0  0  3  0  0  0  0  0  0
  161.5610  203.2090  148.3250 O   0  0  0  0  0  0  0  0  0  0  0  0
  162.1730  206.0930  150.2110 C   0  0  1  0  0  3  0  0  0  0  0  0
  160.6080  206.0050  152.9710 C   0  0  0  0  0  2  0  0  0  0  0  0
  161.1780  206.1150  154.2140 O   0  0  0  0  0  1  0  0  0  0  0  0
  160.2160  206.1990  148.4130 C   0  0  0  0  0  2  0  0  0  0  0  0
  160.9130  206.6510  147.0880 C   0  0  0  0  0  2  0  0  0  0  0  0
  160.1730  206.0860  145.8960 N   0  0  0  0  0  2  0  0  0  0  0  0
  161.2080  205.6100  144.8820 C   0  0  0  0  0  3  0  0  0  0  0  0
  162.3240  204.8180  145.5420 C   0  0  0  0  0  2  0  0  0  0  0  0
  161.1740  204.0540  144.8900 C   0  0  0  0  0  2  0  0  0  0  0  0
  161.7050  207.5290  150.5560 C   0  0  0  0  0  2  0  0  0  0  0  0
  162.4210  208.8510  150.9290 C   0  0  0  0  0  2  0  0  0  0  0  0
  161.6680  209.8730  151.7960 C   0  0  2  0  0  0  0  0  0  0  0  0
  160.3320  209.1250  152.1250 C   0  0  0  0  0  1  0  0  0  0  0  0
  161.4250  211.0280  150.9750 O   0  0  0  0  0  0  0  0  0  0  0  0
  161.9570  210.9500  149.6530 C   0  0  0  0  0  2  0  0  0  0  0  0
  162.0080  212.1650  148.6160 C   0  0  0  0  0  2  0  0  0  0  0  0
  163.1850  212.4560  148.0010 O   0  0  0  0  0  1  0  0  0  0  0  0
  162.5050  210.3670  153.1580 C   0  0  0  0  0  2  0  0  0  0  0  0
  161.5260  209.2950  155.1480 O   0  0  0  0  0  1  0  0  0  0  0  0
  161.9780  210.5330  154.6360 C   0  0  2  0  0  3  0  0  0  0  0  0
  160.3730  212.0320  155.6640 O   0  0  0  0  0  1  0  0  0  0  0  0
  160.7780  211.4270  154.4780 C   0  0  0  0  0  2  0  0  0  0  0  0
  1  6  1  0  0  0  0
  1  4  1  1  0  0  0
  2  5  1  0  0  0  0
  3  7  1  0  0  0  0
  3  2  1  0  0  0  0
  5  6  1  0  0  0  0
  6 10  1  0  0  0  0
  7 12  1  1  0  0  0
  7  9  1  0  0  0  0
  8  3  2  0  0  0  0
  9 18  1  1  0  0  0
  9  1  1  0  0  0  0
 10 11  1  0  0  0  0
 13 12  1  0  0  0  0
 14 13  1  0  0  0  0
 15 17  1  0  0  0  0
 15 16  1  0  0  0  0
 15 14  1  0  0  0  0
 17 16  1  0  0  0  0
 18 19  1  0  0  0  0
 19 20  1  0  0  0  0
 20 21  1  1  0  0  0
 20 26  1  0  0  0  0
 22 20  1  0  0  0  0
 23 22  1  0  0  0  0
 24 23  1  0  0  0  0
 25 24  1  0  0  0  0
 26 28  1  0  0  0  0
 28 27  1  6  0  0  0
 30 28  1  0  0  0  0
 30 29  1  0  0  0  0
M  END
>  <MODEL>
6

>  <REMARK>
 VINA RESULT:      -4.7      2.666      7.490
  Name = 
  14 active torsions:
  status: ('A' for Active; 'I' for Inactive)
    1  A    between atoms: C_1  and  C_4
    2  A    between atoms: C_1  and  C_22
    3  A    between atoms: C_4  and  O_8
    4  A    between atoms: C_4  and  C_12
    5  A    between atoms: C_7  and  C_23
    6  A    between atoms: C_7  and  C_25
    7  A    between atoms: O_8  and  C_27
    8  A    between atoms: C_10  and  N_15
    9  A    between atoms: C_12  and  C_21
   10  A    between atoms: C_13  and  C_27
   11  A    between atoms: C_14  and  N_20
   12  A    between atoms: N_15  and  C_25
   13  A    between atoms: C_17  and  C_21
   14  A    between atoms: C_22  and  C_29
                            x       y       z     vdW  Elec       q    Type
                         _______ _______ _______ _____ _____    ______ ____

>  <TORSDO>
F 14

$$$$
=
 OpenBabel11052422043D

 30 31  0  0  1  0  0  0  0  0999 V2000
  162.3860  205.2720  151.5830 C   0  0  1  0  0  3  0  0  0  0  0  0
  160.5720  203.2100  150.5860 C   0  0  0  0  0  2  0  0  0  0  0  0
  161.1240  203.8910  149.3510 C   0  0  0  0  0  0  0  0  0  0  0  0
  163.4460  205.7790  152.3510 O   0  0  0  0  0  1  0  0  0  0  0  0
  160.1210  204.1970  151.6990 C   0  0  0  0  0  2  0  0  0  0  0  0
  161.2170  204.9250  152.3220 N   0  0  0  0  0  0  0  0  0  0  0  0
  161.2360  205.3970  149.3180 C   0  0  2  0  0  3  0  0  0  0  0  0
  161.6430  203.2140  148.5150 O   0  0  0  0  0  0  0  0  0  0  0  0
  162.1720  206.1780  150.3010 C   0  0  1  0  0  3  0  0  0  0  0  0
  160.5930  206.1490  153.0540 C   0  0  0  0  0  2  0  0  0  0  0  0
  161.0920  206.2670  154.3260 O   0  0  0  0  0  1  0  0  0  0  0  0
  160.2240  206.1710  148.4900 C   0  0  0  0  0  2  0  0  0  0  0  0
  160.9530  206.7010  147.2110 C   0  0  0  0  0  2  0  0  0  0  0  0
  160.5370  205.8880  146.0060 N   0  0  0  0  0  2  0  0  0  0  0  0
  161.7820  205.6180  145.1670 C   0  0  0  0  0  3  0  0  0  0  0  0
  162.9020  205.0110  145.9950 C   0  0  0  0  0  2  0  0  0  0  0  0
  162.0130  204.0790  145.1740 C   0  0  0  0  0  2  0  0  0  0  0  0
  161.6670  207.6120  150.5920 C   0  0  0  0  0  2  0  0  0  0  0  0
  162.0100  209.0230  150.0500 C   0  0  0  0  0  2  0  0  0  0  0  0
  161.7510  210.2380  150.9540 C   0  0  2  0  0  0  0  0  0  0  0  0
  163.0060  210.2430  151.8900 C   0  0  0  0  0  1  0  0  0  0  0  0
  160.5520  209.9660  151.6980 O   0  0  0  0  0  0  0  0  0  0  0  0
  160.4880  210.5830  152.9830 C   0  0  0  0  0  2  0  0  0  0  0  0
  160.3340  209.7990  154.3670 C   0  0  0  0  0  2  0  0  0  0  0  0
  159.8520  210.4640  155.4510 O   0  0  0  0  0  1  0  0  0  0  0  0
  161.5360  211.6770  150.1250 C   0  0  0  0  0  2  0  0  0  0  0  0
  163.0740  212.2500  148.2890 O   0  0  0  0  0  1  0  0  0  0  0  0
  161.7210  211.9680  148.5850 C   0  0  2  0  0  3  0  0  0  0  0  0
  161.4750  214.0710  147.4030 O   0  0  0  0  0  1  0  0  0  0  0  0
  160.9340  213.2330  148.3740 C   0  0  0  0  0  2  0  0  0  0  0  0
  1  6  1  0  0  0  0
  1  4  1  1  0  0  0
  2  5  1  0  0  0  0
  3  2  1  0  0  0  0
  5  6  1  0  0  0  0
  6 10  1  0  0  0  0
  7 12  1  1  0  0  0
  7  3  1  0  0  0  0
  7  9  1  0  0  0  0
  8  3  2  0  0  0  0
  9 18  1  1  0  0  0
  9  1  1  0  0  0  0
 10 11  1  0  0  0  0
 13 12  1  0  0  0  0
 14 13  1  0  0  0  0
 15 17  1  0  0  0  0
 15 16  1  0  0  0  0
 15 14  1  0  0  0  0
 17 16  1  0  0  0  0
 19 18  1  0  0  0  0
 19 20  1  0  0  0  0
 20 22  1  0  0  0  0
 20 21  1  1  0  0  0
 22 23  1  0  0  0  0
 23 24  1  0  0  0  0
 24 25  1  0  0  0  0
 26 20  1  0  0  0  0
 28 27  1  1  0  0  0
 28 26  1  0  0  0  0
 29 30  1  0  0  0  0
 30 28  1  0  0  0  0
M  END
>  <MODEL>
7

>  <REMARK>
 VINA RESULT:      -4.6      2.719      7.678
  Name = 
  14 active torsions:
  status: ('A' for Active; 'I' for Inactive)
    1  A    between atoms: C_1  and  C_4
    2  A    between atoms: C_1  and  C_22
    3  A    between atoms: C_4  and  O_8
    4  A    between atoms: C_4  and  C_12
    5  A    between atoms: C_7  and  C_23
    6  A    between atoms: C_7  and  C_25
    7  A    between atoms: O_8  and  C_27
    8  A    between atoms: C_10  and  N_15
    9  A    between atoms: C_12  and  C_21
   10  A    between atoms: C_13  and  C_27
   11  A    between atoms: C_14  and  N_20
   12  A    between atoms: N_15  and  C_25
   13  A    between atoms: C_17  and  C_21
   14  A    between atoms: C_22  and  C_29
                            x       y       z     vdW  Elec       q    Type
                         _______ _______ _______ _____ _____    ______ ____

>  <TORSDO>
F 14

$$$$
=
 OpenBabel11052422043D

 30 31  0  0  1  0  0  0  0  0999 V2000
  162.3680  205.3080  151.5190 C   0  0  1  0  0  3  0  0  0  0  0  0
  160.8350  203.1420  150.2960 C   0  0  0  0  0  2  0  0  0  0  0  0
  161.3220  203.9920  149.1400 C   0  0  0  0  0  0  0  0  0  0  0  0
  163.3450  205.8660  152.3580 O   0  0  0  0  0  1  0  0  0  0  0  0
  160.2490  203.9640  151.4770 C   0  0  0  0  0  2  0  0  0  0  0  0
  161.2370  204.7590  152.1910 N   0  0  0  0  0  0  0  0  0  0  0  0
  161.2520  205.4970  149.2420 C   0  0  2  0  0  3  0  0  0  0  0  0
  161.9350  203.4590  148.2640 O   0  0  0  0  0  0  0  0  0  0  0  0
  162.0680  206.2930  150.3150 C   0  0  1  0  0  3  0  0  0  0  0  0
  160.4560  205.8280  153.0090 C   0  0  0  0  0  2  0  0  0  0  0  0
  160.8860  205.8620  154.3110 O   0  0  0  0  0  1  0  0  0  0  0  0
  160.1680  206.2160  148.4550 C   0  0  0  0  0  2  0  0  0  0  0  0
  160.8080  206.7530  147.1330 C   0  0  0  0  0  2  0  0  0  0  0  0
  160.0660  206.1970  145.9380 N   0  0  0  0  0  2  0  0  0  0  0  0
  161.0960  205.8210  144.8770 C   0  0  0  0  0  3  0  0  0  0  0  0
  162.3140  205.1460  145.4850 C   0  0  0  0  0  2  0  0  0  0  0  0
  161.2160  204.2700  144.8850 C   0  0  0  0  0  2  0  0  0  0  0  0
  161.3870  207.6250  150.7150 C   0  0  0  0  0  2  0  0  0  0  0  0
  160.9590  208.2730  152.0550 C   0  0  0  0  0  2  0  0  0  0  0  0
  161.2160  209.7750  152.2580 C   0  0  2  0  0  0  0  0  0  0  0  0
  162.0940  210.1440  151.0150 C   0  0  0  0  0  1  0  0  0  0  0  0
  161.9610  209.9180  153.4790 O   0  0  0  0  0  0  0  0  0  0  0  0
  161.2650  209.5220  154.6590 C   0  0  0  0  0  2  0  0  0  0  0  0
  161.9560  209.1980  156.0630 C   0  0  0  0  0  2  0  0  0  0  0  0
  161.5760  208.0830  156.7430 O   0  0  0  0  0  1  0  0  0  0  0  0
  159.8250  210.6980  152.3850 C   0  0  0  0  0  2  0  0  0  0  0  0
  159.7790  212.5940  153.9560 O   0  0  0  0  0  1  0  0  0  0  0  0
  159.6890  212.2570  152.5870 C   0  0  2  0  0  3  0  0  0  0  0  0
  158.1910  213.5770  151.2090 O   0  0  0  0  0  1  0  0  0  0  0  0
  158.2810  212.5440  152.1370 C   0  0  0  0  0  2  0  0  0  0  0  0
  1  6  1  0  0  0  0
  1  4  1  1  0  0  0
  2  5  1  0  0  0  0
  3  7  1  0  0  0  0
  3  2  1  0  0  0  0
  5  6  1  0  0  0  0
  6 10  1  0  0  0  0
  7 12  1  1  0  0  0
  7  9  1  0  0  0  0
  8  3  2  0  0  0  0
  9 18  1  1  0  0  0
  9  1  1  0  0  0  0
 10 11  1  0  0  0  0
 13 12  1  0  0  0  0
 14 13  1  0  0  0  0
 15 17  1  0  0  0  0
 15 16  1  0  0  0  0
 15 14  1  0  0  0  0
 17 16  1  0  0  0  0
 18 19  1  0  0  0  0
 19 20  1  0  0  0  0
 20 21  1  6  0  0  0
 20 26  1  0  0  0  0
 20 22  1  0  0  0  0
 22 23  1  0  0  0  0
 23 24  1  0  0  0  0
 24 25  1  0  0  0  0
 26 28  1  0  0  0  0
 28 27  1  1  0  0  0
 29 30  1  0  0  0  0
 30 28  1  0  0  0  0
M  END
>  <MODEL>
8

>  <REMARK>
 VINA RESULT:      -4.5      2.821      7.986
  Name = 
  14 active torsions:
  status: ('A' for Active; 'I' for Inactive)
    1  A    between atoms: C_1  and  C_4
    2  A    between atoms: C_1  and  C_22
    3  A    between atoms: C_4  and  O_8
    4  A    between atoms: C_4  and  C_12
    5  A    between atoms: C_7  and  C_23
    6  A    between atoms: C_7  and  C_25
    7  A    between atoms: O_8  and  C_27
    8  A    between atoms: C_10  and  N_15
    9  A    between atoms: C_12  and  C_21
   10  A    between atoms: C_13  and  C_27
   11  A    between atoms: C_14  and  N_20
   12  A    between atoms: N_15  and  C_25
   13  A    between atoms: C_17  and  C_21
   14  A    between atoms: C_22  and  C_29
                            x       y       z     vdW  Elec       q    Type
                         _______ _______ _______ _____ _____    ______ ____

>  <TORSDO>
F 14

$$$$
=
 OpenBabel11052422043D

 30 31  0  0  1  0  0  0  0  0999 V2000
  159.6820  209.6750  155.8620 C   0  0  1  0  0  3  0  0  0  0  0  0
  159.4990  212.3300  157.0680 C   0  0  0  0  0  2  0  0  0  0  0  0
  158.6110  212.3840  155.8420 C   0  0  0  0  0  0  0  0  0  0  0  0
  159.6390  208.2720  155.8470 O   0  0  0  0  0  1  0  0  0  0  0  0
  160.8800  211.6640  156.8150 C   0  0  0  0  0  2  0  0  0  0  0  0
  160.8060  210.2370  156.5360 N   0  0  0  0  0  0  0  0  0  0  0  0
  159.0910  211.7710  154.5480 C   0  0  2  0  0  3  0  0  0  0  0  0
  157.4750  212.7270  155.9790 O   0  0  0  0  0  0  0  0  0  0  0  0
  159.3720  210.2370  154.4130 C   0  0  1  0  0  3  0  0  0  0  0  0
  162.1570  209.8310  155.8790 C   0  0  0  0  0  2  0  0  0  0  0  0
  162.9990  210.9090  155.7820 O   0  0  0  0  0  1  0  0  0  0  0  0
  159.5560  212.7070  153.4440 C   0  0  0  0  0  2  0  0  0  0  0  0
  158.2880  213.2320  152.6930 C   0  0  0  0  0  2  0  0  0  0  0  0
  158.5890  213.3880  151.2190 N   0  0  0  0  0  2  0  0  0  0  0  0
  157.3580  213.9870  150.5470 C   0  0  0  0  0  3  0  0  0  0  0  0
  157.6540  214.4490  149.1310 C   0  0  0  0  0  2  0  0  0  0  0  0
  157.0120  213.0790  149.3320 C   0  0  0  0  0  2  0  0  0  0  0  0
  160.4470  209.9190  153.3440 C   0  0  0  0  0  3  0  0  0  0  0  0
  160.4700  209.1050  152.0270 C   0  0  0  0  0  3  0  0  0  0  0  0
  161.8010  208.9750  151.2690 C   0  0  2  0  0  0  0  0  0  0  0  0
  162.7510  209.9190  152.0800 C   0  0  0  0  0  1  0  0  0  0  0  0
  161.5830  209.4790  149.9400 O   0  0  0  0  0  0  0  0  0  0  0  0
  161.8990  210.8590  149.7600 C   0  0  0  0  0  2  0  0  0  0  0  0
  161.9990  211.5970  148.3460 C   0  0  0  0  0  2  0  0  0  0  0  0
  163.2260  211.9280  147.8610 O   0  0  0  0  0  1  0  0  0  0  0  0
  162.3710  207.4060  151.1450 C   0  0  0  0  0  2  0  0  0  0  0  0
  160.6650  206.6160  149.5540 O   0  0  0  0  0  1  0  0  0  0  0  0
  161.8460  206.2330  150.2290 C   0  0  2  0  0  3  0  0  0  0  0  0
  161.0500  205.6530  152.4450 O   0  0  0  0  0  1  0  0  0  0  0  0
  161.4790  205.1590  151.2180 C   0  0  0  0  0  2  0  0  0  0  0  0
  1  4  1  6  0  0  0
  1  6  1  0  0  0  0
  3  8  2  0  0  0  0
  3  2  1  0  0  0  0
  5  2  1  0  0  0  0
  6  5  1  0  0  0  0
  7 12  1  1  0  0  0
  7  3  1  0  0  0  0
  9 18  1  6  0  0  0
  9  7  1  0  0  0  0
  9  1  1  0  0  0  0
 10  6  1  0  0  0  0
 11 10  1  0  0  0  0
 13 12  1  0  0  0  0
 14 13  1  0  0  0  0
 15 14  1  0  0  0  0
 16 17  1  0  0  0  0
 16 15  1  0  0  0  0
 17 15  1  0  0  0  0
 19 18  2  0  0  0  0
 20 19  1  0  0  0  0
 20 21  1  1  0  0  0
 22 20  1  0  0  0  0
 23 22  1  0  0  0  0
 24 23  1  0  0  0  0
 25 24  1  0  0  0  0
 26 20  1  0  0  0  0
 28 27  1  1  0  0  0
 28 26  1  0  0  0  0
 28 30  1  0  0  0  0
 30 29  1  0  0  0  0
M  END
>  <MODEL>
9

>  <REMARK>
 VINA RESULT:      -4.1      4.041      6.735
  Name = 
  14 active torsions:
  status: ('A' for Active; 'I' for Inactive)
    1  A    between atoms: C_1  and  C_4
    2  A    between atoms: C_1  and  C_22
    3  A    between atoms: C_4  and  O_8
    4  A    between atoms: C_4  and  C_12
    5  A    between atoms: C_7  and  C_23
    6  A    between atoms: C_7  and  C_25
    7  A    between atoms: O_8  and  C_27
    8  A    between atoms: C_10  and  N_15
    9  A    between atoms: C_12  and  C_21
   10  A    between atoms: C_13  and  C_27
   11  A    between atoms: C_14  and  N_20
   12  A    between atoms: N_15  and  C_25
   13  A    between atoms: C_17  and  C_21
   14  A    between atoms: C_22  and  C_29
                            x       y       z     vdW  Elec       q    Type
                         _______ _______ _______ _____ _____    ______ ____

>  <TORSDO>
F 14

$$$$
