=
 OpenBabel11062409333D

 34 38  0  0  1  0  0  0  0  0999 V2000
  161.4570  210.3820  152.5070 C   0  0  1  0  0  0  0  0  0  0  0  0
  159.4650  212.9710  150.2000 C   0  0  0  0  0  2  0  0  0  0  0  0
  159.3090  212.3780  152.5480 C   0  0  0  0  0  3  0  0  0  0  0  0
  162.9340  209.9970  152.5430 C   0  0  0  0  0  1  0  0  0  0  0  0
  161.4590  210.4370  155.0790 C   0  0  0  0  0  3  0  0  0  0  0  0
  159.5640  211.5570  156.2820 C   0  0  0  0  0  2  0  0  0  0  0  0
  160.7820  210.6610  156.2170 C   0  0  0  0  0  3  0  0  0  0  0  0
  159.6570  211.6190  153.7940 C   0  0  1  0  0  3  0  0  0  0  0  0
  161.1190  211.1610  153.7950 C   0  0  2  0  0  3  0  0  0  0  0  0
  159.3990  212.4450  155.0450 C   0  0  0  0  0  2  0  0  0  0  0  0
  160.5920  213.6820  149.4650 C   0  0  0  0  0  2  0  0  0  0  0  0
  161.2100  212.7560  148.4240 C   0  0  2  0  0  3  0  0  0  0  0  0
  162.1910  211.7670  149.0470 C   0  0  0  0  0  2  0  0  0  0  0  0
  159.9640  212.2040  151.3890 C   0  0  0  0  0  0  0  0  0  0  0  0
  161.4850  210.7520  149.9330 C   0  0  0  0  0  2  0  0  0  0  0  0
  161.2260  211.3500  151.3160 C   0  0  2  0  0  3  0  0  0  0  0  0
  161.8890  213.5440  147.4060 N   0  0  0  0  0  0  0  0  0  0  0  0
  161.6750  213.2960  146.0690 O   0  0  0  0  0  0  0  0  0  0  0  0
  162.6710  214.4530  147.7480 O   0  0  0  0  0  0  0  0  0  0  0  0
  160.5650  209.1240  152.4260 C   0  0  0  0  0  2  0  0  0  0  0  0
  161.1760  207.8760  153.0540 C   0  0  0  0  0  2  0  0  0  0  0  0
  161.5780  204.4130  151.7080 C   0  0  0  0  0  2  0  0  0  0  0  0
  160.7330  206.9620  150.7730 C   0  0  0  0  0  3  0  0  0  0  0  0
  160.8990  203.8190  147.9640 C   0  0  0  0  0  2  0  0  0  0  0  0
  161.5380  203.6620  149.3430 C   0  0  0  0  0  2  0  0  0  0  0  0
  160.8140  204.5090  150.3870 C   0  0  2  0  0  3  0  0  0  0  0  0
  160.2400  206.2140  148.5040 C   0  0  0  0  0  2  0  0  0  0  0  0
  160.6730  205.9420  149.9120 C   0  0  0  0  0  0  0  0  0  0  0  0
  160.9250  205.2800  147.5010 C   0  0  1  0  0  3  0  0  0  0  0  0
  161.0200  206.7430  152.1600 N   0  0  0  0  0  0  0  0  0  0  0  0
  161.0010  205.3950  152.7180 C   0  0  0  0  0  2  0  0  0  0  0  0
  162.3040  205.7430  147.1460 C   0  0  0  0  0  0  0  0  0  0  0  0
  163.0670  204.9880  146.3720 C   0  0  0  0  0  2  0  0  0  0  0  0
  162.7970  206.9500  147.6290 O   0  0  0  0  0  1  0  0  0  0  0  0
  1  4  1  1  0  0  0
  1  9  1  0  0  0  0
  2 14  1  0  0  0  0
  5  7  2  0  0  0  0
  7  6  1  0  0  0  0
  8  3  1  6  0  0  0
  8  9  1  0  0  0  0
  8 10  1  0  0  0  0
  9  5  1  1  0  0  0
 10  6  1  0  0  0  0
 11  2  1  0  0  0  0
 12 17  1  6  0  0  0
 12 13  1  0  0  0  0
 12 11  1  0  0  0  0
 13 15  1  0  0  0  0
 14  3  2  0  0  0  0
 16 15  1  6  0  0  0
 16 14  1  0  0  0  0
 16  1  1  0  0  0  0
 17 19  2  0  0  0  0
 18 17  2  0  0  0  0
 20  1  1  0  0  0  0
 20 21  1  0  0  0  0
 22 31  1  0  0  0  0
 23 30  1  0  0  0  0
 24 25  1  0  0  0  0
 26 25  1  6  0  0  0
 26 22  1  0  0  0  0
 27 28  1  0  0  0  0
 28 26  1  0  0  0  0
 28 23  2  0  0  0  0
 29 32  1  1  0  0  0
 29 24  1  0  0  0  0
 29 27  1  0  0  0  0
 30 31  1  0  0  0  0
 30 21  1  0  0  0  0
 32 34  1  0  0  0  0
 33 32  2  0  0  0  0
M  END
>  <MODEL>
1

>  <REMARK>
 VINA RESULT:      -7.3      0.000      0.000
  Name = 
  5 active torsions:
  status: ('A' for Active; 'I' for Inactive)
    1  A    between atoms: C_1  and  C_8
    2  A    between atoms: N_3  and  C_25
    3  A    between atoms: C_8  and  C_18
    4  A    between atoms: C_11  and  C_29
    5  A    between atoms: C_18  and  N_30
                            x       y       z     vdW  Elec       q    Type
                         _______ _______ _______ _____ _____    ______ ____

>  <TORSDO>
F 5

$$$$
=
 OpenBabel11062409333D

 34 38  0  0  1  0  0  0  0  0999 V2000
  161.0710  212.9310  147.5060 C   0  0  1  0  0  0  0  0  0  0  0  0
  159.6450  212.8810  143.7710 C   0  0  0  0  0  2  0  0  0  0  0  0
  158.5850  212.9850  145.9520 C   0  0  0  0  0  3  0  0  0  0  0  0
  162.2970  213.6170  148.1060 C   0  0  0  0  0  1  0  0  0  0  0  0
  159.7150  213.6610  149.5660 C   0  0  0  0  0  3  0  0  0  0  0  0
  157.2100  213.5630  149.4820 C   0  0  0  0  0  2  0  0  0  0  0  0
  158.5340  213.6900  150.2040 C   0  0  0  0  0  3  0  0  0  0  0  0
  158.5380  213.0000  147.4520 C   0  0  1  0  0  3  0  0  0  0  0  0
  159.8040  213.6150  148.0570 C   0  0  2  0  0  3  0  0  0  0  0  0
  157.3260  213.7600  147.9670 C   0  0  0  0  0  2  0  0  0  0  0  0
  160.5150  213.9200  143.0790 C   0  0  0  0  0  2  0  0  0  0  0  0
  161.9250  213.3760  142.8760 C   0  0  2  0  0  3  0  0  0  0  0  0
  162.7630  213.4680  144.1480 C   0  0  0  0  0  2  0  0  0  0  0  0
  159.7390  212.9720  145.2660 C   0  0  0  0  0  0  0  0  0  0  0  0
  162.2570  212.5240  145.2280 C   0  0  0  0  0  2  0  0  0  0  0  0
  161.0800  213.1560  145.9710 C   0  0  2  0  0  3  0  0  0  0  0  0
  162.5830  214.1050  141.8020 N   0  0  0  0  0  0  0  0  0  0  0  0
  161.9040  214.4140  140.6460 O   0  0  0  0  0  0  0  0  0  0  0  0
  163.7740  214.4530  141.9310 O   0  0  0  0  0  0  0  0  0  0  0  0
  161.0450  211.4340  147.8840 C   0  0  0  0  0  2  0  0  0  0  0  0
  162.2370  210.9700  148.7140 C   0  0  0  0  0  2  0  0  0  0  0  0
  162.5580  208.0650  151.0420 C   0  0  0  0  0  2  0  0  0  0  0  0
  161.2790  208.6680  148.5750 C   0  0  0  0  0  3  0  0  0  0  0  0
  160.9540  204.7170  150.0160 C   0  0  0  0  0  2  0  0  0  0  0  0
  161.9510  205.6920  150.6420 C   0  0  0  0  0  2  0  0  0  0  0  0
  161.4630  207.1340  150.5210 C   0  0  2  0  0  3  0  0  0  0  0  0
  160.2620  206.4670  148.3080 C   0  0  0  0  0  2  0  0  0  0  0  0
  161.0780  207.4520  149.0890 C   0  0  0  0  0  0  0  0  0  0  0  0
  160.7300  205.0250  148.5320 C   0  0  1  0  0  3  0  0  0  0  0  0
  161.9450  209.6880  149.3300 N   0  0  0  0  0  0  0  0  0  0  0  0
  162.1910  209.5150  150.7580 C   0  0  0  0  0  2  0  0  0  0  0  0
  161.9190  204.6790  147.6900 C   0  0  0  0  0  0  0  0  0  0  0  0
  162.1270  203.4190  147.3400 C   0  0  0  0  0  2  0  0  0  0  0  0
  162.8130  205.6610  147.2810 O   0  0  0  0  0  1  0  0  0  0  0  0
  1 20  1  0  0  0  0
  1  9  1  0  0  0  0
  1  4  1  1  0  0  0
  2 14  1  0  0  0  0
  5  7  2  0  0  0  0
  6  7  1  0  0  0  0
  8  3  1  6  0  0  0
  8 10  1  0  0  0  0
  8  9  1  0  0  0  0
  9  5  1  1  0  0  0
 10  6  1  0  0  0  0
 11  2  1  0  0  0  0
 12 17  1  6  0  0  0
 12 11  1  0  0  0  0
 12 13  1  0  0  0  0
 13 15  1  0  0  0  0
 14  3  2  0  0  0  0
 14 16  1  0  0  0  0
 16 15  1  6  0  0  0
 16  1  1  0  0  0  0
 17 19  2  0  0  0  0
 18 17  2  0  0  0  0
 20 21  1  0  0  0  0
 21 30  1  0  0  0  0
 23 28  2  0  0  0  0
 23 30  1  0  0  0  0
 24 25  1  0  0  0  0
 26 25  1  6  0  0  0
 26 22  1  0  0  0  0
 27 29  1  0  0  0  0
 27 28  1  0  0  0  0
 28 26  1  0  0  0  0
 29 32  1  6  0  0  0
 29 24  1  0  0  0  0
 30 31  1  0  0  0  0
 31 22  1  0  0  0  0
 33 32  2  0  0  0  0
 34 32  1  0  0  0  0
M  END
>  <MODEL>
2

>  <REMARK>
 VINA RESULT:      -6.6      3.039      5.096
  Name = 
  5 active torsions:
  status: ('A' for Active; 'I' for Inactive)
    1  A    between atoms: C_1  and  C_8
    2  A    between atoms: N_3  and  C_25
    3  A    between atoms: C_8  and  C_18
    4  A    between atoms: C_11  and  C_29
    5  A    between atoms: C_18  and  N_30
                            x       y       z     vdW  Elec       q    Type
                         _______ _______ _______ _____ _____    ______ ____

>  <TORSDO>
F 5

$$$$
=
 OpenBabel11062409333D

 34 38  0  0  1  0  0  0  0  0999 V2000
  160.9070  213.1190  147.1390 C   0  0  1  0  0  0  0  0  0  0  0  0
  159.6350  212.6160  143.3820 C   0  0  0  0  0  2  0  0  0  0  0  0
  158.4940  212.7180  145.5220 C   0  0  0  0  0  3  0  0  0  0  0  0
  162.0030  214.0090  147.7200 C   0  0  0  0  0  1  0  0  0  0  0  0
  159.3900  213.7890  149.1060 C   0  0  0  0  0  3  0  0  0  0  0  0
  156.9270  213.3350  148.9640 C   0  0  0  0  0  2  0  0  0  0  0  0
  158.1940  213.6950  149.7080 C   0  0  0  0  0  3  0  0  0  0  0  0
  158.3920  212.8280  147.0140 C   0  0  1  0  0  3  0  0  0  0  0  0
  159.5380  213.6540  147.6060 C   0  0  2  0  0  3  0  0  0  0  0  0
  157.0680  213.4430  147.4420 C   0  0  0  0  0  2  0  0  0  0  0  0
  160.3780  213.7170  142.6400 C   0  0  0  0  0  2  0  0  0  0  0  0
  161.8560  213.3650  142.5130 C   0  0  2  0  0  3  0  0  0  0  0  0
  162.6270  213.6590  143.7960 C   0  0  0  0  0  2  0  0  0  0  0  0
  159.6630  212.8200  144.8680 C   0  0  0  0  0  0  0  0  0  0  0  0
  162.2180  212.7290  144.9280 C   0  0  0  0  0  2  0  0  0  0  0  0
  160.9390  213.2380  145.5920 C   0  0  2  0  0  3  0  0  0  0  0  0
  162.4440  214.1040  141.4070 N   0  0  0  0  0  0  0  0  0  0  0  0
  161.6940  214.4210  140.2970 O   0  0  0  0  0  0  0  0  0  0  0  0
  163.6400  214.4530  141.4650 O   0  0  0  0  0  0  0  0  0  0  0  0
  161.0730  211.6610  147.6230 C   0  0  0  0  0  2  0  0  0  0  0  0
  162.4010  211.3740  148.3170 C   0  0  0  0  0  2  0  0  0  0  0  0
  161.2430  208.1860  149.8870 C   0  0  0  0  0  2  0  0  0  0  0  0
  162.2800  210.7000  150.7190 C   0  0  0  0  0  3  0  0  0  0  0  0
  161.1360  207.9770  153.7300 C   0  0  0  0  0  2  0  0  0  0  0  0
  160.7400  207.7350  152.2740 C   0  0  0  0  0  2  0  0  0  0  0  0
  161.7610  208.3450  151.3170 C   0  0  2  0  0  3  0  0  0  0  0  0
  162.2360  210.1810  153.1020 C   0  0  0  0  0  2  0  0  0  0  0  0
  162.0290  209.7950  151.6690 C   0  0  0  0  0  0  0  0  0  0  0  0
  161.2480  209.4750  154.0360 C   0  0  1  0  0  3  0  0  0  0  0  0
  162.2190  210.3500  149.3300 N   0  0  0  0  0  0  0  0  0  0  0  0
  162.1350  208.9520  148.9190 C   0  0  0  0  0  2  0  0  0  0  0  0
  159.9130  210.1530  154.0670 C   0  0  0  0  0  0  0  0  0  0  0  0
  159.2260  210.1930  155.1970 C   0  0  0  0  0  2  0  0  0  0  0  0
  159.3820  210.7320  152.9200 O   0  0  0  0  0  1  0  0  0  0  0  0
  1  9  1  0  0  0  0
  1 20  1  0  0  0  0
  1  4  1  1  0  0  0
  2 14  1  0  0  0  0
  5  7  2  0  0  0  0
  6  7  1  0  0  0  0
  8  3  1  6  0  0  0
  8 10  1  0  0  0  0
  8  9  1  0  0  0  0
  9  5  1  1  0  0  0
 10  6  1  0  0  0  0
 11  2  1  0  0  0  0
 12 17  1  6  0  0  0
 12 11  1  0  0  0  0
 12 13  1  0  0  0  0
 13 15  1  0  0  0  0
 14  3  2  0  0  0  0
 14 16  1  0  0  0  0
 16 15  1  6  0  0  0
 16  1  1  0  0  0  0
 17 19  2  0  0  0  0
 18 17  2  0  0  0  0
 20 21  1  0  0  0  0
 21 30  1  0  0  0  0
 23 28  2  0  0  0  0
 24 29  1  0  0  0  0
 25 24  1  0  0  0  0
 26 22  1  6  0  0  0
 26 28  1  0  0  0  0
 26 25  1  0  0  0  0
 27 29  1  0  0  0  0
 28 27  1  0  0  0  0
 29 32  1  6  0  0  0
 30 23  1  0  0  0  0
 31 30  1  0  0  0  0
 31 22  1  0  0  0  0
 32 33  2  0  0  0  0
 34 32  1  0  0  0  0
M  END
>  <MODEL>
3

>  <REMARK>
 VINA RESULT:      -6.5      3.465      6.537
  Name = 
  5 active torsions:
  status: ('A' for Active; 'I' for Inactive)
    1  A    between atoms: C_1  and  C_8
    2  A    between atoms: N_3  and  C_25
    3  A    between atoms: C_8  and  C_18
    4  A    between atoms: C_11  and  C_29
    5  A    between atoms: C_18  and  N_30
                            x       y       z     vdW  Elec       q    Type
                         _______ _______ _______ _____ _____    ______ ____

>  <TORSDO>
F 5

$$$$
=
 OpenBabel11062409333D

 34 38  0  0  1  0  0  0  0  0999 V2000
  161.7420  206.6650  151.8030 C   0  0  1  0  0  0  0  0  0  0  0  0
  160.1730  204.7980  148.6340 C   0  0  0  0  0  2  0  0  0  0  0  0
  160.7870  207.1060  149.0660 C   0  0  0  0  0  3  0  0  0  0  0  0
  162.8150  206.2290  152.7980 C   0  0  0  0  0  1  0  0  0  0  0  0
  162.8340  208.9930  151.7200 C   0  0  0  0  0  3  0  0  0  0  0  0
  162.2230  210.5670  149.8650 C   0  0  0  0  0  2  0  0  0  0  0  0
  162.8410  210.2330  151.2050 C   0  0  0  0  0  3  0  0  0  0  0  0
  161.2900  208.2580  149.8840 C   0  0  1  0  0  3  0  0  0  0  0  0
  162.3070  207.8100  150.9380 C   0  0  2  0  0  3  0  0  0  0  0  0
  161.9240  209.3310  149.0110 C   0  0  0  0  0  2  0  0  0  0  0  0
  161.0720  203.5780  148.5010 C   0  0  0  0  0  2  0  0  0  0  0  0
  160.7800  202.5820  149.6180 C   0  0  2  0  0  3  0  0  0  0  0  0
  161.4530  202.9800  150.9290 C   0  0  0  0  0  2  0  0  0  0  0  0
  160.7730  205.8450  149.5260 C   0  0  0  0  0  0  0  0  0  0  0  0
  160.8410  204.2420  151.5180 C   0  0  0  0  0  2  0  0  0  0  0  0
  161.4400  205.4790  150.8480 C   0  0  2  0  0  3  0  0  0  0  0  0
  161.2240  201.2540  149.2230 N   0  0  0  0  0  0  0  0  0  0  0  0
  161.3140  200.9120  147.8930 O   0  0  0  0  0  0  0  0  0  0  0  0
  161.5270  200.4190  150.0980 O   0  0  0  0  0  0  0  0  0  0  0  0
  160.4810  207.1640  152.5420 C   0  0  0  0  0  2  0  0  0  0  0  0
  160.5340  207.0050  154.0580 C   0  0  0  0  0  2  0  0  0  0  0  0
  160.8060  209.5490  156.7820 C   0  0  0  0  0  2  0  0  0  0  0  0
  160.2210  209.4820  153.9990 C   0  0  0  0  0  3  0  0  0  0  0  0
  159.9410  213.2090  155.9540 C   0  0  0  0  0  2  0  0  0  0  0  0
  160.0660  211.9180  156.7600 C   0  0  0  0  0  2  0  0  0  0  0  0
  160.8320  210.8520  155.9800 C   0  0  2  0  0  3  0  0  0  0  0  0
  159.8980  211.8890  153.7810 C   0  0  0  0  0  2  0  0  0  0  0  0
  160.2470  210.6780  154.5920 C   0  0  0  0  0  0  0  0  0  0  0  0
  159.2140  212.9700  154.6260 C   0  0  1  0  0  3  0  0  0  0  0  0
  160.6640  208.3060  154.6890 N   0  0  0  0  0  0  0  0  0  0  0  0
  161.3880  208.4130  155.9510 C   0  0  0  0  0  2  0  0  0  0  0  0
  157.7530  212.6990  154.8150 C   0  0  0  0  0  0  0  0  0  0  0  0
  157.0280  213.5180  155.5610 C   0  0  0  0  0  2  0  0  0  0  0  0
  157.1510  211.5930  154.2270 O   0  0  0  0  0  1  0  0  0  0  0  0
  1 20  1  0  0  0  0
  1  4  1  1  0  0  0
  2 14  1  0  0  0  0
  3 14  2  0  0  0  0
  3  8  1  0  0  0  0
  6  7  1  0  0  0  0
  7  5  2  0  0  0  0
  8 10  1  6  0  0  0
  8  9  1  0  0  0  0
  9  5  1  1  0  0  0
  9  1  1  0  0  0  0
 10  6  1  0  0  0  0
 11  2  1  0  0  0  0
 11 12  1  0  0  0  0
 12 17  1  6  0  0  0
 12 13  1  0  0  0  0
 13 15  1  0  0  0  0
 14 16  1  0  0  0  0
 16 15  1  1  0  0  0
 16  1  1  0  0  0  0
 17 19  2  0  0  0  0
 18 17  2  0  0  0  0
 20 21  1  0  0  0  0
 21 30  1  0  0  0  0
 23 28  2  0  0  0  0
 23 30  1  0  0  0  0
 24 25  1  0  0  0  0
 26 25  1  1  0  0  0
 26 22  1  0  0  0  0
 27 28  1  0  0  0  0
 27 29  1  0  0  0  0
 28 26  1  0  0  0  0
 29 32  1  1  0  0  0
 29 24  1  0  0  0  0
 30 31  1  0  0  0  0
 31 22  1  0  0  0  0
 32 33  2  0  0  0  0
 34 32  1  0  0  0  0
M  END
>  <MODEL>
4

>  <REMARK>
 VINA RESULT:      -6.2      3.396      8.326
  Name = 
  5 active torsions:
  status: ('A' for Active; 'I' for Inactive)
    1  A    between atoms: C_1  and  C_8
    2  A    between atoms: N_3  and  C_25
    3  A    between atoms: C_8  and  C_18
    4  A    between atoms: C_11  and  C_29
    5  A    between atoms: C_18  and  N_30
                            x       y       z     vdW  Elec       q    Type
                         _______ _______ _______ _____ _____    ______ ____

>  <TORSDO>
F 5

$$$$
=
 OpenBabel11062409333D

 34 38  0  0  1  0  0  0  0  0999 V2000
  161.1310  206.8230  150.6970 C   0  0  1  0  0  0  0  0  0  0  0  0
  162.0140  203.0380  151.6360 C   0  0  0  0  0  2  0  0  0  0  0  0
  161.8060  205.0700  152.9480 C   0  0  0  0  0  3  0  0  0  0  0  0
  160.1320  207.4060  149.6990 C   0  0  0  0  0  1  0  0  0  0  0  0
  160.3950  208.6060  152.3990 C   0  0  0  0  0  3  0  0  0  0  0  0
  161.0060  208.3190  154.8150 C   0  0  0  0  0  2  0  0  0  0  0  0
  160.5110  209.1230  153.6330 C   0  0  0  0  0  3  0  0  0  0  0  0
  161.5810  206.5350  153.1740 C   0  0  1  0  0  3  0  0  0  0  0  0
  160.6420  207.1390  152.1250 C   0  0  2  0  0  3  0  0  0  0  0  0
  161.0140  206.8080  154.5590 C   0  0  0  0  0  2  0  0  0  0  0  0
  160.9340  202.2620  150.8960 C   0  0  0  0  0  2  0  0  0  0  0  0
  161.2060  202.2770  149.3960 C   0  0  2  0  0  3  0  0  0  0  0  0
  160.7620  203.5840  148.7470 C   0  0  0  0  0  2  0  0  0  0  0  0
  161.6870  204.4990  151.7380 C   0  0  0  0  0  0  0  0  0  0  0  0
  161.6210  204.7580  149.1940 C   0  0  0  0  0  2  0  0  0  0  0  0
  161.1370  205.2780  150.5480 C   0  0  2  0  0  3  0  0  0  0  0  0
  160.5260  201.1590  148.7610 N   0  0  0  0  0  0  0  0  0  0  0  0
  161.2060  200.3130  147.9160 O   0  0  0  0  0  0  0  0  0  0  0  0
  159.3150  200.9650  148.9870 O   0  0  0  0  0  0  0  0  0  0  0  0
  162.5310  207.4410  150.4910 C   0  0  0  0  0  2  0  0  0  0  0  0
  162.7060  208.1870  149.1720 C   0  0  0  0  0  2  0  0  0  0  0  0
  161.3010  211.2670  150.7540 C   0  0  0  0  0  2  0  0  0  0  0  0
  162.2320  210.4370  148.1990 C   0  0  0  0  0  3  0  0  0  0  0  0
  160.6370  214.3290  148.5160 C   0  0  0  0  0  2  0  0  0  0  0  0
  160.4540  213.3200  149.6490 C   0  0  0  0  0  2  0  0  0  0  0  0
  161.6090  212.3230  149.6920 C   0  0  2  0  0  3  0  0  0  0  0  0
  161.8390  212.5840  147.1110 C   0  0  0  0  0  2  0  0  0  0  0  0
  161.8370  211.7070  148.3250 C   0  0  0  0  0  0  0  0  0  0  0  0
  160.7190  213.6290  147.1540 C   0  0  1  0  0  3  0  0  0  0  0  0
  162.3690  209.5880  149.3450 N   0  0  0  0  0  0  0  0  0  0  0  0
  162.3310  210.1470  150.6920 C   0  0  0  0  0  2  0  0  0  0  0  0
  159.4010  213.0660  146.7210 C   0  0  0  0  0  0  0  0  0  0  0  0
  159.3570  212.2040  145.7170 C   0  0  0  0  0  2  0  0  0  0  0  0
  158.2210  213.4450  147.3520 O   0  0  0  0  0  1  0  0  0  0  0  0
  1  4  1  6  0  0  0
  1  9  1  0  0  0  0
  2 14  1  0  0  0  0
  5  7  2  0  0  0  0
  7  6  1  0  0  0  0
  8  3  1  6  0  0  0
  8 10  1  0  0  0  0
  9  5  1  6  0  0  0
  9  8  1  0  0  0  0
 10  6  1  0  0  0  0
 11  2  1  0  0  0  0
 12 17  1  6  0  0  0
 12 11  1  0  0  0  0
 13 15  1  0  0  0  0
 13 12  1  0  0  0  0
 14  3  2  0  0  0  0
 16 15  1  6  0  0  0
 16  1  1  0  0  0  0
 16 14  1  0  0  0  0
 17 19  2  0  0  0  0
 18 17  2  0  0  0  0
 20  1  1  0  0  0  0
 21 30  1  0  0  0  0
 21 20  1  0  0  0  0
 23 28  2  0  0  0  0
 23 30  1  0  0  0  0
 24 25  1  0  0  0  0
 26 25  1  6  0  0  0
 26 22  1  0  0  0  0
 27 29  1  0  0  0  0
 27 28  1  0  0  0  0
 28 26  1  0  0  0  0
 29 32  1  1  0  0  0
 29 24  1  0  0  0  0
 30 31  1  0  0  0  0
 31 22  1  0  0  0  0
 32 34  1  0  0  0  0
 33 32  2  0  0  0  0
M  END
>  <MODEL>
5

>  <REMARK>
 VINA RESULT:      -5.6      2.648      7.769
  Name = 
  5 active torsions:
  status: ('A' for Active; 'I' for Inactive)
    1  A    between atoms: C_1  and  C_8
    2  A    between atoms: N_3  and  C_25
    3  A    between atoms: C_8  and  C_18
    4  A    between atoms: C_11  and  C_29
    5  A    between atoms: C_18  and  N_30
                            x       y       z     vdW  Elec       q    Type
                         _______ _______ _______ _____ _____    ______ ____

>  <TORSDO>
F 5

$$$$
=
 OpenBabel11062409333D

 34 38  0  0  1  0  0  0  0  0999 V2000
  161.1010  205.7980  149.2800 C   0  0  1  0  0  0  0  0  0  0  0  0
  161.8580  201.9160  148.6910 C   0  0  0  0  0  2  0  0  0  0  0  0
  161.7450  203.3030  150.6790 C   0  0  0  0  0  3  0  0  0  0  0  0
  160.1080  206.7430  148.6060 C   0  0  0  0  0  1  0  0  0  0  0  0
  160.4570  206.8210  151.5510 C   0  0  0  0  0  3  0  0  0  0  0  0
  161.0950  205.6210  153.6600 C   0  0  0  0  0  2  0  0  0  0  0  0
  160.6110  206.8280  152.8850 C   0  0  0  0  0  3  0  0  0  0  0  0
  161.5780  204.5790  151.4500 C   0  0  1  0  0  3  0  0  0  0  0  0
  160.6460  205.5610  150.7350 C   0  0  2  0  0  3  0  0  0  0  0  0
  161.0430  204.3220  152.8500 C   0  0  0  0  0  2  0  0  0  0  0  0
  160.7390  201.5100  147.7430 C   0  0  0  0  0  2  0  0  0  0  0  0
  160.9880  202.0850  146.3530 C   0  0  2  0  0  3  0  0  0  0  0  0
  160.5830  203.5530  146.2600 C   0  0  0  0  0  2  0  0  0  0  0  0
  161.5870  203.2380  149.3470 C   0  0  0  0  0  0  0  0  0  0  0  0
  161.4900  204.4440  147.0940 C   0  0  0  0  0  2  0  0  0  0  0  0
  161.0470  204.4260  148.5570 C   0  0  2  0  0  3  0  0  0  0  0  0
  160.2570  201.3110  145.3610 N   0  0  0  0  0  0  0  0  0  0  0  0
  160.4560  199.9540  145.2450 O   0  0  0  0  0  0  0  0  0  0  0  0
  159.4420  201.8830  144.6100 O   0  0  0  0  0  0  0  0  0  0  0  0
  162.5190  206.4080  149.2850 C   0  0  0  0  0  2  0  0  0  0  0  0
  162.7060  207.5810  148.3280 C   0  0  0  0  0  2  0  0  0  0  0  0
  161.4110  209.8990  150.9580 C   0  0  0  0  0  2  0  0  0  0  0  0
  162.2990  210.0450  148.2610 C   0  0  0  0  0  3  0  0  0  0  0  0
  160.8310  213.5880  150.0170 C   0  0  0  0  0  2  0  0  0  0  0  0
  160.6230  212.2380  150.7020 C   0  0  0  0  0  2  0  0  0  0  0  0
  161.7450  211.2630  150.3540 C   0  0  2  0  0  3  0  0  0  0  0  0
  161.9670  212.4510  148.0470 C   0  0  0  0  0  2  0  0  0  0  0  0
  161.9450  211.1880  148.8520 C   0  0  0  0  0  0  0  0  0  0  0  0
  160.8820  213.4370  148.4920 C   0  0  1  0  0  3  0  0  0  0  0  0
  162.4160  208.8290  149.0110 N   0  0  0  0  0  0  0  0  0  0  0  0
  162.4040  208.8530  150.4700 C   0  0  0  0  0  2  0  0  0  0  0  0
  159.5440  213.1090  147.9050 C   0  0  0  0  0  0  0  0  0  0  0  0
  159.4730  212.5790  146.6940 C   0  0  0  0  0  2  0  0  0  0  0  0
  158.3740  213.3660  148.6110 O   0  0  0  0  0  1  0  0  0  0  0  0
  1  4  1  6  0  0  0
  1 20  1  0  0  0  0
  1  9  1  0  0  0  0
  2 14  1  0  0  0  0
  5  7  2  0  0  0  0
  7  6  1  0  0  0  0
  8  3  1  6  0  0  0
  8 10  1  0  0  0  0
  9  8  1  0  0  0  0
  9  5  1  1  0  0  0
 10  6  1  0  0  0  0
 11  2  1  0  0  0  0
 12 17  1  6  0  0  0
 12 11  1  0  0  0  0
 13 12  1  0  0  0  0
 13 15  1  0  0  0  0
 14  3  2  0  0  0  0
 16 15  1  6  0  0  0
 16  1  1  0  0  0  0
 16 14  1  0  0  0  0
 18 17  2  0  0  0  0
 19 17  2  0  0  0  0
 21 30  1  0  0  0  0
 21 20  1  0  0  0  0
 23 28  2  0  0  0  0
 23 30  1  0  0  0  0
 24 25  1  0  0  0  0
 26 25  1  6  0  0  0
 26 22  1  0  0  0  0
 27 29  1  0  0  0  0
 27 28  1  0  0  0  0
 28 26  1  0  0  0  0
 29 32  1  1  0  0  0
 29 24  1  0  0  0  0
 30 31  1  0  0  0  0
 31 22  1  0  0  0  0
 32 34  1  0  0  0  0
 33 32  2  0  0  0  0
M  END
>  <MODEL>
6

>  <REMARK>
 VINA RESULT:      -5.5      2.856      8.220
  Name = 
  5 active torsions:
  status: ('A' for Active; 'I' for Inactive)
    1  A    between atoms: C_1  and  C_8
    2  A    between atoms: N_3  and  C_25
    3  A    between atoms: C_8  and  C_18
    4  A    between atoms: C_11  and  C_29
    5  A    between atoms: C_18  and  N_30
                            x       y       z     vdW  Elec       q    Type
                         _______ _______ _______ _____ _____    ______ ____

>  <TORSDO>
F 5

$$$$
=
 OpenBabel11062409333D

 34 38  0  0  1  0  0  0  0  0999 V2000
  160.9970  205.5170  149.3950 C   0  0  1  0  0  0  0  0  0  0  0  0
  162.4000  203.4040  146.3030 C   0  0  0  0  0  2  0  0  0  0  0  0
  161.9620  202.8570  148.6270 C   0  0  0  0  0  3  0  0  0  0  0  0
  159.9020  206.5790  149.4740 C   0  0  0  0  0  1  0  0  0  0  0  0
  160.0810  204.4810  151.5630 C   0  0  0  0  0  3  0  0  0  0  0  0
  160.7930  202.1640  152.2100 C   0  0  0  0  0  2  0  0  0  0  0  0
  160.1620  203.5110  152.4880 C   0  0  0  0  0  3  0  0  0  0  0  0
  161.5520  203.1310  150.0440 C   0  0  1  0  0  3  0  0  0  0  0  0
  160.5120  204.2520  150.1310 C   0  0  2  0  0  3  0  0  0  0  0  0
  160.9930  201.8870  150.7170 C   0  0  0  0  0  2  0  0  0  0  0  0
  161.4110  203.7520  145.2000 C   0  0  0  0  0  2  0  0  0  0  0  0
  161.6360  205.1820  144.7210 C   0  0  2  0  0  3  0  0  0  0  0  0
  161.0050  206.2060  145.6590 C   0  0  0  0  0  2  0  0  0  0  0  0
  161.8860  203.7860  147.6610 C   0  0  0  0  0  0  0  0  0  0  0  0
  161.7120  206.2520  147.0050 C   0  0  0  0  0  2  0  0  0  0  0  0
  161.2030  205.1280  147.9060 C   0  0  2  0  0  3  0  0  0  0  0  0
  161.0920  205.3430  143.3810 N   0  0  0  0  0  0  0  0  0  0  0  0
  161.6820  206.2030  142.4830 O   0  0  0  0  0  0  0  0  0  0  0  0
  160.0810  204.6950  143.0430 O   0  0  0  0  0  0  0  0  0  0  0  0
  162.2970  206.0240  150.0570 C   0  0  0  0  0  2  0  0  0  0  0  0
  162.3320  207.5270  150.3130 C   0  0  0  0  0  2  0  0  0  0  0  0
  161.0540  206.9420  153.7760 C   0  0  0  0  0  2  0  0  0  0  0  0
  161.7350  209.1490  152.1160 C   0  0  0  0  0  3  0  0  0  0  0  0
  160.1300  210.0030  155.9220 C   0  0  0  0  0  2  0  0  0  0  0  0
  160.0740  208.5850  155.3570 C   0  0  0  0  0  2  0  0  0  0  0  0
  161.2400  208.3230  154.4060 C   0  0  2  0  0  3  0  0  0  0  0  0
  161.2070  210.8510  153.7810 C   0  0  0  0  0  2  0  0  0  0  0  0
  161.3380  209.4190  153.3620 C   0  0  0  0  0  0  0  0  0  0  0  0
  160.0840  211.0510  154.8040 C   0  0  1  0  0  3  0  0  0  0  0  0
  161.9970  207.8030  151.6980 N   0  0  0  0  0  0  0  0  0  0  0  0
  162.0870  206.7250  152.6780 C   0  0  0  0  0  2  0  0  0  0  0  0
  158.7360  211.1370  154.1560 C   0  0  0  0  0  0  0  0  0  0  0  0
  157.6550  211.2570  154.9110 C   0  0  0  0  0  2  0  0  0  0  0  0
  158.6050  211.0810  152.7740 O   0  0  0  0  0  1  0  0  0  0  0  0
  1  4  1  1  0  0  0
  1 20  1  0  0  0  0
  1  9  1  0  0  0  0
  2 14  1  0  0  0  0
  5  7  2  0  0  0  0
  6  7  1  0  0  0  0
  8  3  1  6  0  0  0
  8  9  1  0  0  0  0
  8 10  1  0  0  0  0
  9  5  1  1  0  0  0
 10  6  1  0  0  0  0
 11  2  1  0  0  0  0
 12 17  1  6  0  0  0
 12 11  1  0  0  0  0
 12 13  1  0  0  0  0
 13 15  1  0  0  0  0
 14 16  1  0  0  0  0
 14  3  2  0  0  0  0
 16 15  1  1  0  0  0
 16  1  1  0  0  0  0
 18 17  2  0  0  0  0
 19 17  2  0  0  0  0
 20 21  1  0  0  0  0
 21 30  1  0  0  0  0
 23 28  2  0  0  0  0
 25 24  1  0  0  0  0
 26 22  1  6  0  0  0
 26 25  1  0  0  0  0
 27 29  1  0  0  0  0
 28 27  1  0  0  0  0
 28 26  1  0  0  0  0
 29 32  1  6  0  0  0
 29 24  1  0  0  0  0
 30 23  1  0  0  0  0
 30 31  1  0  0  0  0
 31 22  1  0  0  0  0
 32 33  2  0  0  0  0
 34 32  1  0  0  0  0
M  END
>  <MODEL>
7

>  <REMARK>
 VINA RESULT:      -4.8      3.175      7.992
  Name = 
  5 active torsions:
  status: ('A' for Active; 'I' for Inactive)
    1  A    between atoms: C_1  and  C_8
    2  A    between atoms: N_3  and  C_25
    3  A    between atoms: C_8  and  C_18
    4  A    between atoms: C_11  and  C_29
    5  A    between atoms: C_18  and  N_30
                            x       y       z     vdW  Elec       q    Type
                         _______ _______ _______ _____ _____    ______ ____

>  <TORSDO>
F 5

$$$$
=
 OpenBabel11062409333D

 34 38  0  0  1  0  0  0  0  0999 V2000
  161.1960  210.3580  152.5740 C   0  0  1  0  0  0  0  0  0  0  0  0
  159.3030  213.1690  150.4510 C   0  0  0  0  0  2  0  0  0  0  0  0
  159.0620  212.3630  152.7280 C   0  0  0  0  0  3  0  0  0  0  0  0
  162.6680  209.9550  152.6240 C   0  0  0  0  0  1  0  0  0  0  0  0
  161.1100  210.1750  155.1380 C   0  0  0  0  0  3  0  0  0  0  0  0
  159.1830  211.1980  156.3760 C   0  0  0  0  0  2  0  0  0  0  0  0
  160.3960  210.3000  156.2690 C   0  0  0  0  0  3  0  0  0  0  0  0
  159.3620  211.4890  153.9090 C   0  0  1  0  0  3  0  0  0  0  0  0
  160.8190  211.0170  153.9160 C   0  0  2  0  0  3  0  0  0  0  0  0
  159.0660  212.1980  155.2220 C   0  0  0  0  0  2  0  0  0  0  0  0
  160.4600  213.9330  149.8240 C   0  0  0  0  0  2  0  0  0  0  0  0
  161.1070  213.1010  148.7220 C   0  0  2  0  0  3  0  0  0  0  0  0
  162.0580  212.0480  149.2840 C   0  0  0  0  0  2  0  0  0  0  0  0
  159.7550  212.2900  151.5800 C   0  0  0  0  0  0  0  0  0  0  0  0
  161.3150  210.9630  150.0480 C   0  0  0  0  0  2  0  0  0  0  0  0
  161.0130  211.4340  151.4710 C   0  0  2  0  0  3  0  0  0  0  0  0
  161.8260  213.9720  147.8050 N   0  0  0  0  0  0  0  0  0  0  0  0
  161.2780  214.3150  146.5900 O   0  0  0  0  0  0  0  0  0  0  0  0
  162.9480  214.4120  148.1240 O   0  0  0  0  0  0  0  0  0  0  0  0
  160.2980  209.1210  152.3470 C   0  0  0  0  0  2  0  0  0  0  0  0
  160.9550  207.7910  152.7020 C   0  0  0  0  0  2  0  0  0  0  0  0
  160.8400  206.8340  149.0910 C   0  0  0  0  0  2  0  0  0  0  0  0
  161.4620  205.6160  151.5840 C   0  0  0  0  0  3  0  0  0  0  0  0
  161.5480  203.1680  148.1500 C   0  0  0  0  0  2  0  0  0  0  0  0
  160.9320  204.5640  148.0930 C   0  0  0  0  0  2  0  0  0  0  0  0
  161.5870  205.5000  149.1060 C   0  0  2  0  0  3  0  0  0  0  0  0
  162.0050  203.4350  150.6370 C   0  0  0  0  0  2  0  0  0  0  0  0
  161.6040  204.8710  150.4850 C   0  0  0  0  0  0  0  0  0  0  0  0
  161.3970  202.5490  149.5450 C   0  0  1  0  0  3  0  0  0  0  0  0
  161.2020  207.0230  151.4950 N   0  0  0  0  0  0  0  0  0  0  0  0
  161.3370  207.7240  150.2220 C   0  0  0  0  0  2  0  0  0  0  0  0
  159.9820  202.1650  149.8500 C   0  0  0  0  0  0  0  0  0  0  0  0
  159.3420  201.3360  149.0410 C   0  0  0  0  0  2  0  0  0  0  0  0
  159.3290  202.6780  150.9640 O   0  0  0  0  0  1  0  0  0  0  0  0
  1  4  1  1  0  0  0
  1  9  1  0  0  0  0
  2 14  1  0  0  0  0
  5  7  2  0  0  0  0
  7  6  1  0  0  0  0
  8  3  1  6  0  0  0
  8  9  1  0  0  0  0
  8 10  1  0  0  0  0
  9  5  1  1  0  0  0
 10  6  1  0  0  0  0
 11  2  1  0  0  0  0
 12 17  1  6  0  0  0
 12 13  1  0  0  0  0
 12 11  1  0  0  0  0
 13 15  1  0  0  0  0
 14  3  2  0  0  0  0
 16 15  1  6  0  0  0
 16 14  1  0  0  0  0
 16  1  1  0  0  0  0
 17 19  2  0  0  0  0
 18 17  2  0  0  0  0
 20  1  1  0  0  0  0
 20 21  1  0  0  0  0
 22 26  1  0  0  0  0
 22 31  1  0  0  0  0
 24 29  1  0  0  0  0
 25 24  1  0  0  0  0
 26 25  1  6  0  0  0
 26 28  1  0  0  0  0
 28 27  1  0  0  0  0
 28 23  2  0  0  0  0
 29 32  1  1  0  0  0
 29 27  1  0  0  0  0
 30 23  1  0  0  0  0
 30 21  1  0  0  0  0
 31 30  1  0  0  0  0
 32 34  1  0  0  0  0
 33 32  2  0  0  0  0
M  END
>  <MODEL>
8

>  <REMARK>
 VINA RESULT:      -4.6      1.458      2.242
  Name = 
  5 active torsions:
  status: ('A' for Active; 'I' for Inactive)
    1  A    between atoms: C_1  and  C_8
    2  A    between atoms: N_3  and  C_25
    3  A    between atoms: C_8  and  C_18
    4  A    between atoms: C_11  and  C_29
    5  A    between atoms: C_18  and  N_30
                            x       y       z     vdW  Elec       q    Type
                         _______ _______ _______ _____ _____    ______ ____

>  <TORSDO>
F 5

$$$$
=
 OpenBabel11062409333D

 34 38  0  0  1  0  0  0  0  0999 V2000
  161.1800  212.9200  147.7300 C   0  0  1  0  0  0  0  0  0  0  0  0
  158.7610  212.9020  144.5460 C   0  0  0  0  0  2  0  0  0  0  0  0
  158.3840  213.2640  146.9160 C   0  0  0  0  0  3  0  0  0  0  0  0
  162.6020  213.4470  147.9110 C   0  0  0  0  0  1  0  0  0  0  0  0
  160.5660  213.9370  150.0110 C   0  0  0  0  0  3  0  0  0  0  0  0
  158.1470  214.2020  150.6240 C   0  0  0  0  0  2  0  0  0  0  0  0
  159.6260  214.1690  150.9420 C   0  0  0  0  0  3  0  0  0  0  0  0
  158.7650  213.3560  148.3640 C   0  0  1  0  0  3  0  0  0  0  0  0
  160.2170  213.8070  148.5450 C   0  0  2  0  0  3  0  0  0  0  0  0
  157.8540  214.3090  149.1240 C   0  0  0  0  0  2  0  0  0  0  0  0
  159.5250  213.7690  143.5560 C   0  0  0  0  0  2  0  0  0  0  0  0
  160.7390  213.0160  143.0220 C   0  0  2  0  0  3  0  0  0  0  0  0
  161.9070  213.0440  144.0040 C   0  0  0  0  0  2  0  0  0  0  0  0
  159.2850  213.0490  145.9440 C   0  0  0  0  0  0  0  0  0  0  0  0
  161.6110  212.2360  145.2580 C   0  0  0  0  0  2  0  0  0  0  0  0
  160.7820  213.0680  146.2370 C   0  0  2  0  0  3  0  0  0  0  0  0
  161.1540  213.5890  141.7510 N   0  0  0  0  0  0  0  0  0  0  0  0
  162.3240  213.1860  141.1490 O   0  0  0  0  0  0  0  0  0  0  0  0
  160.4410  214.4520  141.2010 O   0  0  0  0  0  0  0  0  0  0  0  0
  161.0700  211.4620  148.2280 C   0  0  0  0  0  2  0  0  0  0  0  0
  162.3530  210.9040  148.8370 C   0  0  0  0  0  2  0  0  0  0  0  0
  161.2060  208.1420  151.0770 C   0  0  0  0  0  2  0  0  0  0  0  0
  161.7500  210.9270  151.2600 C   0  0  0  0  0  3  0  0  0  0  0  0
  160.2320  209.0140  154.6990 C   0  0  0  0  0  2  0  0  0  0  0  0
  160.2140  208.3060  153.3460 C   0  0  0  0  0  2  0  0  0  0  0  0
  161.3590  208.7850  152.4570 C   0  0  2  0  0  3  0  0  0  0  0  0
  161.2080  211.1040  153.6310 C   0  0  0  0  0  2  0  0  0  0  0  0
  161.3820  210.3000  152.3800 C   0  0  0  0  0  0  0  0  0  0  0  0
  160.1110  210.5340  154.5360 C   0  0  1  0  0  3  0  0  0  0  0  0
  162.0500  210.1930  150.0660 N   0  0  0  0  0  0  0  0  0  0  0  0
  162.2120  208.7440  150.1060 C   0  0  0  0  0  2  0  0  0  0  0  0
  158.7420  210.9540  154.0990 C   0  0  0  0  0  0  0  0  0  0  0  0
  158.5160  211.2190  152.8220 C   0  0  0  0  0  2  0  0  0  0  0  0
  157.7080  211.0810  155.0190 O   0  0  0  0  0  1  0  0  0  0  0  0
  1  4  1  1  0  0  0
  1 20  1  0  0  0  0
  1  9  1  0  0  0  0
  2 14  1  0  0  0  0
  5  7  2  0  0  0  0
  6  7  1  0  0  0  0
  8  3  1  6  0  0  0
  8  9  1  0  0  0  0
  8 10  1  0  0  0  0
  9  5  1  1  0  0  0
 10  6  1  0  0  0  0
 11  2  1  0  0  0  0
 12 17  1  6  0  0  0
 12 11  1  0  0  0  0
 12 13  1  0  0  0  0
 13 15  1  0  0  0  0
 14 16  1  0  0  0  0
 14  3  2  0  0  0  0
 16 15  1  6  0  0  0
 16  1  1  0  0  0  0
 18 17  2  0  0  0  0
 19 17  2  0  0  0  0
 20 21  1  0  0  0  0
 21 30  1  0  0  0  0
 23 28  2  0  0  0  0
 25 24  1  0  0  0  0
 26 22  1  6  0  0  0
 26 25  1  0  0  0  0
 27 29  1  0  0  0  0
 28 26  1  0  0  0  0
 28 27  1  0  0  0  0
 29 32  1  6  0  0  0
 29 24  1  0  0  0  0
 30 31  1  0  0  0  0
 30 23  1  0  0  0  0
 31 22  1  0  0  0  0
 32 34  1  0  0  0  0
 33 32  2  0  0  0  0
M  END
>  <MODEL>
9

>  <REMARK>
 VINA RESULT:      -4.5      3.405      6.272
  Name = 
  5 active torsions:
  status: ('A' for Active; 'I' for Inactive)
    1  A    between atoms: C_1  and  C_8
    2  A    between atoms: N_3  and  C_25
    3  A    between atoms: C_8  and  C_18
    4  A    between atoms: C_11  and  C_29
    5  A    between atoms: C_18  and  N_30
                            x       y       z     vdW  Elec       q    Type
                         _______ _______ _______ _____ _____    ______ ____

>  <TORSDO>
F 5

$$$$
