=
 OpenBabel11062409183D

 37 45  0  0  1  0  0  0  0  0999 V2000
  161.5740  208.2210  153.2010 O   0  0  0  0  0  0  0  0  0  0  0  0
  159.7820  210.3100  157.0000 C   0  0  0  0  0  2  0  0  0  0  0  0
  159.2610  212.1020  153.1290 C   0  0  0  0  0  0  0  0  0  0  0  0
  161.6590  207.0090  152.4860 C   0  0  0  0  0  0  0  0  0  0  0  0
  161.1040  211.0490  149.8970 C   0  0  0  0  0  2  0  0  0  0  0  0
  159.0360  212.3680  155.5960 C   0  0  1  0  0  3  0  0  0  0  0  0
  159.9820  211.3130  152.0860 C   0  0  1  0  0  3  0  0  0  0  0  0
  160.4200  206.1500  152.3680 C   0  0  0  0  0  2  0  0  0  0  0  0
  159.5270  211.6540  154.3520 C   0  0  0  0  0  0  0  0  0  0  0  0
  160.6460  212.0880  150.9330 C   0  0  2  0  0  3  0  0  0  0  0  0
  157.8020  213.1880  155.3200 C   0  0  0  0  0  3  0  0  0  0  0  0
  162.6760  206.8740  151.5080 O   0  0  0  0  0  0  0  0  0  0  0  0
  160.5310  210.5480  154.3320 C   0  0  2  0  0  3  0  0  0  0  0  0
  161.9910  209.6020  156.1330 C   0  0  0  0  0  2  0  0  0  0  0  0
  158.9590  214.4050  152.3160 C   0  0  0  0  0  3  0  0  0  0  0  0
  161.5170  205.7910  153.3660 C   0  0  0  0  0  2  0  0  0  0  0  0
  157.4580  213.5710  154.0800 C   0  0  0  0  0  3  0  0  0  0  0  0
  161.6650  210.8390  155.3200 C   0  0  2  0  0  3  0  0  0  0  0  0
  162.5780  207.9270  150.5600 C   0  0  2  0  0  3  0  0  0  0  0  0
  162.4750  210.4830  150.2620 C   0  0  0  0  0  2  0  0  0  0  0  0
  158.2620  213.2000  152.8570 C   0  0  2  0  0  3  0  0  0  0  0  0
  161.0500  210.5810  152.8960 C   0  0  1  0  0  3  0  0  0  0  0  0
  158.7830  211.4570  156.8070 C   0  0  0  0  0  2  0  0  0  0  0  0
  159.7150  213.1460  150.2920 C   0  0  1  0  0  3  0  0  0  0  0  0
  161.2370  210.7390  156.7940 C   0  0  1  0  0  3  0  0  0  0  0  0
  162.4480  209.2950  151.2430 C   0  0  1  0  0  3  0  0  0  0  0  0
  161.2960  209.2210  152.2530 C   0  0  1  0  0  3  0  0  0  0  0  0
  159.6150  214.3780  151.1520 C   0  0  0  0  0  3  0  0  0  0  0  0
  161.4260  214.0800  148.6700 C   0  0  0  0  0  3  0  0  0  0  0  0
  160.1430  213.5610  148.9120 C   0  0  0  0  0  0  0  0  0  0  0  0
  159.2430  213.4220  147.8500 C   0  0  0  0  0  3  0  0  0  0  0  0
  158.7420  213.6590  145.5310 F   0  0  0  0  0  0  0  0  0  0  0  0
  160.8950  214.3120  146.3190 C   0  0  0  0  0  3  0  0  0  0  0  0
  159.6180  213.7950  146.5560 C   0  0  0  0  0  0  0  0  0  0  0  0
  161.7990  214.4530  147.3760 C   0  0  0  0  0  3  0  0  0  0  0  0
  161.4670  207.6640  149.5430 C   0  0  0  0  0  2  0  0  0  0  0  0
  162.0640  207.3270  148.1910 C   0  0  0  0  0  1  0  0  0  0  0  0
  3  9  2  0  0  0  0
  4  1  1  0  0  0  0
  4 16  1  0  0  0  0
  5 20  1  0  0  0  0
  6 11  1  6  0  0  0
  6 23  1  0  0  0  0
  7 22  1  0  0  0  0
  7  3  1  1  0  0  0
  8  4  1  0  0  0  0
  8 16  1  0  0  0  0
  9  6  1  0  0  0  0
 10  5  1  6  0  0  0
 10  7  1  0  0  0  0
 12  4  1  0  0  0  0
 13  9  1  6  0  0  0
 13 18  1  0  0  0  0
 14 25  1  0  0  0  0
 17 11  2  0  0  0  0
 18 14  1  1  0  0  0
 18 25  1  0  0  0  0
 19 36  1  6  0  0  0
 19 26  1  0  0  0  0
 19 12  1  0  0  0  0
 20 26  1  0  0  0  0
 21 15  1  1  0  0  0
 21  3  1  0  0  0  0
 21 17  1  0  0  0  0
 22 13  1  0  0  0  0
 23  2  1  0  0  0  0
 24 10  1  0  0  0  0
 24 28  1  0  0  0  0
 25  2  1  0  0  0  0
 26 27  1  0  0  0  0
 27 22  1  0  0  0  0
 27  1  1  0  0  0  0
 28 15  2  0  0  0  0
 29 30  1  0  0  0  0
 30 24  1  0  0  0  0
 31 30  2  0  0  0  0
 32 34  1  0  0  0  0
 33 34  2  0  0  0  0
 33 35  1  0  0  0  0
 34 31  1  0  0  0  0
 35 29  2  0  0  0  0
 37 36  1  0  0  0  0
M  END
>  <MODEL>
1

>  <REMARK>
 VINA RESULT:      -6.4      0.000      0.000
  Name = 
  2 active torsions:
  status: ('A' for Active; 'I' for Inactive)
    1  A    between atoms: C_6  and  C_31
    2  A    between atoms: C_11  and  C_26
                            x       y       z     vdW  Elec       q    Type
                         _______ _______ _______ _____ _____    ______ ____

>  <TORSDO>
F 2

$$$$
=
 OpenBabel11062409183D

 37 45  0  0  1  0  0  0  0  0999 V2000
  161.5540  208.1600  153.3780 O   0  0  0  0  0  0  0  0  0  0  0  0
  159.7730  210.1000  157.2610 C   0  0  0  0  0  2  0  0  0  0  0  0
  159.1480  211.9840  153.4500 C   0  0  0  0  0  0  0  0  0  0  0  0
  161.6560  206.9700  152.6280 C   0  0  0  0  0  0  0  0  0  0  0  0
  160.9640  211.0660  150.1620 C   0  0  0  0  0  2  0  0  0  0  0  0
  158.9560  212.1760  155.9270 C   0  0  1  0  0  3  0  0  0  0  0  0
  159.8710  211.2420  152.3750 C   0  0  1  0  0  3  0  0  0  0  0  0
  160.4360  206.0860  152.5050 C   0  0  0  0  0  2  0  0  0  0  0  0
  159.4440  211.5090  154.6560 C   0  0  0  0  0  0  0  0  0  0  0  0
  160.4980  212.0640  151.2330 C   0  0  2  0  0  3  0  0  0  0  0  0
  157.6990  212.9730  155.6930 C   0  0  0  0  0  3  0  0  0  0  0  0
  162.6600  206.8870  151.6310 O   0  0  0  0  0  0  0  0  0  0  0  0
  160.4740  210.4290  154.5900 C   0  0  2  0  0  3  0  0  0  0  0  0
  161.9840  209.4690  156.3400 C   0  0  0  0  0  2  0  0  0  0  0  0
  158.7780  214.3010  152.7060 C   0  0  0  0  0  3  0  0  0  0  0  0
  161.5570  205.7260  153.4750 C   0  0  0  0  0  2  0  0  0  0  0  0
  157.3260  213.3820  154.4700 C   0  0  0  0  0  3  0  0  0  0  0  0
  161.6160  210.7200  155.5680 C   0  0  2  0  0  3  0  0  0  0  0  0
  162.5220  207.9640  150.7150 C   0  0  2  0  0  3  0  0  0  0  0  0
  162.3540  210.5240  150.4900 C   0  0  0  0  0  2  0  0  0  0  0  0
  158.1190  213.0650  153.2240 C   0  0  2  0  0  3  0  0  0  0  0  0
  160.9690  210.5140  153.1470 C   0  0  1  0  0  3  0  0  0  0  0  0
  158.7450  211.2270  157.1160 C   0  0  0  0  0  2  0  0  0  0  0  0
  159.5320  213.1170  150.6370 C   0  0  1  0  0  3  0  0  0  0  0  0
  161.2140  210.5680  157.0450 C   0  0  1  0  0  3  0  0  0  0  0  0
  162.3710  209.3080  151.4380 C   0  0  1  0  0  3  0  0  0  0  0  0
  161.2370  209.1790  152.4620 C   0  0  1  0  0  3  0  0  0  0  0  0
  159.4160  214.3230  151.5330 C   0  0  0  0  0  3  0  0  0  0  0  0
  158.9680  213.8060  148.2630 C   0  0  0  0  0  3  0  0  0  0  0  0
  159.9280  213.5810  149.2630 C   0  0  0  0  0  0  0  0  0  0  0  0
  161.2820  213.7940  148.9800 C   0  0  0  0  0  3  0  0  0  0  0  0
  162.9880  214.4340  147.4430 F   0  0  0  0  0  0  0  0  0  0  0  0
  160.7170  214.4520  146.7190 C   0  0  0  0  0  3  0  0  0  0  0  0
  161.6760  214.2290  147.7110 C   0  0  0  0  0  0  0  0  0  0  0  0
  159.3630  214.2400  146.9950 C   0  0  0  0  0  3  0  0  0  0  0  0
  161.4010  207.7020  149.7070 C   0  0  0  0  0  2  0  0  0  0  0  0
  161.9840  207.4480  148.3310 C   0  0  0  0  0  1  0  0  0  0  0  0
  3  9  2  0  0  0  0
  4  1  1  0  0  0  0
  4 16  1  0  0  0  0
  5 20  1  0  0  0  0
  6 11  1  6  0  0  0
  6 23  1  0  0  0  0
  7 22  1  0  0  0  0
  7  3  1  1  0  0  0
  8  4  1  0  0  0  0
  8 16  1  0  0  0  0
  9  6  1  0  0  0  0
 10  5  1  6  0  0  0
 10  7  1  0  0  0  0
 12  4  1  0  0  0  0
 13  9  1  6  0  0  0
 13 18  1  0  0  0  0
 14 25  1  0  0  0  0
 17 11  2  0  0  0  0
 18 14  1  6  0  0  0
 18 25  1  0  0  0  0
 19 36  1  1  0  0  0
 19 26  1  0  0  0  0
 19 12  1  0  0  0  0
 20 26  1  0  0  0  0
 21 15  1  1  0  0  0
 21  3  1  0  0  0  0
 21 17  1  0  0  0  0
 22 13  1  0  0  0  0
 23  2  1  0  0  0  0
 24 10  1  0  0  0  0
 24 28  1  0  0  0  0
 25  2  1  0  0  0  0
 26 27  1  0  0  0  0
 27 22  1  0  0  0  0
 27  1  1  0  0  0  0
 28 15  2  0  0  0  0
 29 30  1  0  0  0  0
 30 24  1  0  0  0  0
 31 30  2  0  0  0  0
 32 34  1  0  0  0  0
 33 35  1  0  0  0  0
 33 34  2  0  0  0  0
 34 31  1  0  0  0  0
 35 29  2  0  0  0  0
 37 36  1  0  0  0  0
M  END
>  <MODEL>
2

>  <REMARK>
 VINA RESULT:      -6.3      0.850      1.154
  Name = 
  2 active torsions:
  status: ('A' for Active; 'I' for Inactive)
    1  A    between atoms: C_6  and  C_31
    2  A    between atoms: C_11  and  C_26
                            x       y       z     vdW  Elec       q    Type
                         _______ _______ _______ _____ _____    ______ ____

>  <TORSDO>
F 2

$$$$
