=
 OpenBabel11052422153D

 25 28  0  0  0  0  0  0  0  0999 V2000
  161.4260  205.2900  149.1590 C   0  0  0  0  0  0  0  0  0  0  0  0
  161.4360  206.2180  150.2140 C   0  0  0  0  0  0  0  0  0  0  0  0
  161.9540  207.0490  147.5520 C   0  0  0  0  0  3  0  0  0  0  0  0
  161.1780  203.9080  149.2210 C   0  0  0  0  0  0  0  0  0  0  0  0
  160.7410  201.1620  148.9490 C   0  0  0  0  0  3  0  0  0  0  0  0
  161.9660  207.9820  148.5980 C   0  0  0  0  0  3  0  0  0  0  0  0
  161.2480  203.2910  147.9720 C   0  0  0  0  0  0  0  0  0  0  0  0
  161.0350  201.9260  147.8090 C   0  0  0  0  0  3  0  0  0  0  0  0
  161.7100  208.4920  150.9900 C   0  0  0  0  0  0  0  0  0  0  0  0
  161.9830  209.9440  150.7760 C   0  0  0  0  0  1  0  0  0  0  0  0
  161.1900  205.8390  151.4950 N   0  0  0  0  0  0  0  0  0  0  0  0
  160.6670  201.7690  150.2150 C   0  0  0  0  0  3  0  0  0  0  0  0
  161.6830  205.7190  147.8560 C   0  0  0  0  0  0  0  0  0  0  0  0
  161.6120  204.4230  146.7780 S   0  0  0  0  0  0  0  0  0  0  0  0
  161.4560  208.0530  152.2510 N   0  0  0  0  0  0  0  0  0  0  0  0
  160.8850  203.1490  150.3590 C   0  0  0  0  0  3  0  0  0  0  0  0
  161.2050  206.7430  152.5090 C   0  0  0  0  0  0  0  0  0  0  0  0
  161.7100  207.5790  149.9250 C   0  0  0  0  0  0  0  0  0  0  0  0
  160.9060  206.3040  153.8980 C   0  0  0  0  0  2  0  0  0  0  0  0
  160.9780  207.4920  154.8370 C   0  0  0  0  0  2  0  0  0  0  0  0
  159.9410  207.3330  155.9330 C   0  0  0  0  0  2  0  0  0  0  0  0
  160.4570  207.9140  157.2370 C   0  0  0  0  0  2  0  0  0  0  0  0
  161.8150  208.5630  157.0260 C   0  0  0  0  0  2  0  0  0  0  0  0
  162.7520  210.7120  155.8380 C   0  0  0  0  0  1  0  0  0  0  0  0
  161.6820  210.3590  157.2610 S   0  0  0  0  0  0  0  0  0  0  0  0
  1  4  1  0  0  0  0
  1  2  2  0  0  0  0
  2 11  1  0  0  0  0
  3 13  2  0  0  0  0
  3  6  1  0  0  0  0
  4 16  1  0  0  0  0
  5 12  1  0  0  0  0
  6 18  2  0  0  0  0
  7  4  2  0  0  0  0
  8  7  1  0  0  0  0
  8  5  2  0  0  0  0
  9 15  2  0  0  0  0
 10  9  1  0  0  0  0
 11 17  2  0  0  0  0
 12 16  2  0  0  0  0
 13  1  1  0  0  0  0
 14 13  1  0  0  0  0
 14  7  1  0  0  0  0
 15 17  1  0  0  0  0
 17 19  1  0  0  0  0
 18  2  1  0  0  0  0
 18  9  1  0  0  0  0
 19 20  1  0  0  0  0
 20 21  1  0  0  0  0
 21 22  1  0  0  0  0
 23 22  1  0  0  0  0
 23 25  1  0  0  0  0
 24 25  1  0  0  0  0
M  END
>  <MODEL>
1

>  <REMARK>
 VINA RESULT:      -9.2      0.000      0.000
  Name = 
  6 active torsions:
  status: ('A' for Active; 'I' for Inactive)
    1  A    between atoms: C_2  and  S_12
    2  A    between atoms: C_2  and  C_25
    3  A    between atoms: C_6  and  C_15
    4  A    between atoms: C_6  and  C_23
    5  A    between atoms: C_15  and  C_21
    6  A    between atoms: C_21  and  C_25
                            x       y       z     vdW  Elec       q    Type
                         _______ _______ _______ _____ _____    ______ ____

>  <TORSDO>
F 6

$$$$
=
 OpenBabel11052422153D

 25 28  0  0  0  0  0  0  0  0999 V2000
  161.1290  204.3040  149.7220 C   0  0  0  0  0  0  0  0  0  0  0  0
  161.3110  205.6340  150.1360 C   0  0  0  0  0  0  0  0  0  0  0  0
  160.7800  203.5920  152.0310 C   0  0  0  0  0  3  0  0  0  0  0  0
  161.1750  203.7860  148.4160 C   0  0  0  0  0  0  0  0  0  0  0  0
  161.1890  202.4030  145.9880 C   0  0  0  0  0  3  0  0  0  0  0  0
  160.9620  204.9160  152.4510 C   0  0  0  0  0  3  0  0  0  0  0  0
  160.9480  202.4110  148.3740 C   0  0  0  0  0  0  0  0  0  0  0  0
  160.9500  201.6980  147.1780 C   0  0  0  0  0  3  0  0  0  0  0  0
  161.4160  207.2720  151.9120 C   0  0  0  0  0  0  0  0  0  0  0  0
  161.3490  207.6810  153.3460 C   0  0  0  0  0  1  0  0  0  0  0  0
  161.5670  206.6260  149.2430 N   0  0  0  0  0  0  0  0  0  0  0  0
  161.4180  203.7910  146.0150 C   0  0  0  0  0  3  0  0  0  0  0  0
  160.8690  203.3130  150.6710 C   0  0  0  0  0  0  0  0  0  0  0  0
  160.6910  201.8100  149.9260 S   0  0  0  0  0  0  0  0  0  0  0  0
  161.6690  208.2210  150.9720 N   0  0  0  0  0  0  0  0  0  0  0  0
  161.4130  204.4920  147.2320 C   0  0  0  0  0  3  0  0  0  0  0  0
  161.7390  207.9100  149.6510 C   0  0  0  0  0  0  0  0  0  0  0  0
  161.2260  205.9390  151.5170 C   0  0  0  0  0  0  0  0  0  0  0  0
  162.0430  208.9710  148.6540 C   0  0  0  0  0  2  0  0  0  0  0  0
  162.0940  210.3210  149.3420 C   0  0  0  0  0  2  0  0  0  0  0  0
  161.7750  211.4120  148.3370 C   0  0  0  0  0  2  0  0  0  0  0  0
  162.9840  212.3040  148.1250 C   0  0  0  0  0  2  0  0  0  0  0  0
  162.5810  213.5790  147.4050 C   0  0  0  0  0  2  0  0  0  0  0  0
  162.6950  213.3440  144.7890 C   0  0  0  0  0  1  0  0  0  0  0  0
  161.4160  213.1890  146.0680 S   0  0  0  0  0  0  0  0  0  0  0  0
  1  2  2  0  0  0  0
  1 13  1  0  0  0  0
  2 18  1  0  0  0  0
  3  6  1  0  0  0  0
  4  1  1  0  0  0  0
  5 12  2  0  0  0  0
  5  8  1  0  0  0  0
  7  4  1  0  0  0  0
  7 14  1  0  0  0  0
  8  7  2  0  0  0  0
  9 10  1  0  0  0  0
 11 17  2  0  0  0  0
 11  2  1  0  0  0  0
 12 16  1  0  0  0  0
 13  3  2  0  0  0  0
 14 13  1  0  0  0  0
 15  9  2  0  0  0  0
 16  4  2  0  0  0  0
 17 15  1  0  0  0  0
 18  9  1  0  0  0  0
 18  6  2  0  0  0  0
 19 20  1  0  0  0  0
 19 17  1  0  0  0  0
 21 20  1  0  0  0  0
 22 21  1  0  0  0  0
 23 22  1  0  0  0  0
 24 25  1  0  0  0  0
 25 23  1  0  0  0  0
M  END
>  <MODEL>
2

>  <REMARK>
 VINA RESULT:      -8.9      3.066      5.723
  Name = 
  6 active torsions:
  status: ('A' for Active; 'I' for Inactive)
    1  A    between atoms: C_2  and  S_12
    2  A    between atoms: C_2  and  C_25
    3  A    between atoms: C_6  and  C_15
    4  A    between atoms: C_6  and  C_23
    5  A    between atoms: C_15  and  C_21
    6  A    between atoms: C_21  and  C_25
                            x       y       z     vdW  Elec       q    Type
                         _______ _______ _______ _____ _____    ______ ____

>  <TORSDO>
F 6

$$$$
=
 OpenBabel11052422153D

 25 28  0  0  0  0  0  0  0  0999 V2000
  161.2830  204.3970  149.1350 C   0  0  0  0  0  0  0  0  0  0  0  0
  161.3810  205.3870  150.1290 C   0  0  0  0  0  0  0  0  0  0  0  0
  160.8470  202.6900  150.8240 C   0  0  0  0  0  3  0  0  0  0  0  0
  161.4200  204.5460  147.7450 C   0  0  0  0  0  0  0  0  0  0  0  0
  161.6240  204.4480  144.9600 C   0  0  0  0  0  3  0  0  0  0  0  0
  160.9450  203.6700  151.8210 C   0  0  0  0  0  3  0  0  0  0  0  0
  161.2600  203.3440  147.0560 C   0  0  0  0  0  0  0  0  0  0  0  0
  161.3570  203.2680  145.6700 C   0  0  0  0  0  3  0  0  0  0  0  0
  161.3170  206.0150  152.4630 C   0  0  0  0  0  0  0  0  0  0  0  0
  161.1560  205.7110  153.9150 C   0  0  0  0  0  1  0  0  0  0  0  0
  161.6360  206.6840  149.8140 N   0  0  0  0  0  0  0  0  0  0  0  0
  161.7880  205.6690  145.6410 C   0  0  0  0  0  3  0  0  0  0  0  0
  161.0190  203.0760  149.4990 C   0  0  0  0  0  0  0  0  0  0  0  0
  160.9510  202.0870  148.1340 S   0  0  0  0  0  0  0  0  0  0  0  0
  161.5750  207.2960  152.0880 N   0  0  0  0  0  0  0  0  0  0  0  0
  161.6860  205.7250  147.0400 C   0  0  0  0  0  3  0  0  0  0  0  0
  161.7270  207.6340  150.7800 C   0  0  0  0  0  0  0  0  0  0  0  0
  161.2100  205.0140  151.4850 C   0  0  0  0  0  0  0  0  0  0  0  0
  162.0340  209.0420  150.4100 C   0  0  0  0  0  2  0  0  0  0  0  0
  162.2290  209.8710  151.6640 C   0  0  0  0  0  2  0  0  0  0  0  0
  161.0090  210.7440  151.8880 C   0  0  0  0  0  2  0  0  0  0  0  0
  160.4690  210.5470  153.2920 C   0  0  0  0  0  2  0  0  0  0  0  0
  161.6030  210.5680  154.3030 C   0  0  0  0  0  2  0  0  0  0  0  0
  162.5810  209.9640  156.6670 C   0  0  0  0  0  1  0  0  0  0  0  0
  161.3610  209.2500  155.5280 S   0  0  0  0  0  0  0  0  0  0  0  0
  1 13  1  0  0  0  0
  1  2  2  0  0  0  0
  2 18  1  0  0  0  0
  3  6  1  0  0  0  0
  4  1  1  0  0  0  0
  5 12  2  0  0  0  0
  5  8  1  0  0  0  0
  7  4  1  0  0  0  0
  7 14  1  0  0  0  0
  8  7  2  0  0  0  0
  9 10  1  0  0  0  0
 11  2  1  0  0  0  0
 11 17  2  0  0  0  0
 12 16  1  0  0  0  0
 13  3  2  0  0  0  0
 14 13  1  0  0  0  0
 15  9  2  0  0  0  0
 16  4  2  0  0  0  0
 17 15  1  0  0  0  0
 18  6  2  0  0  0  0
 18  9  1  0  0  0  0
 19 17  1  0  0  0  0
 19 20  1  0  0  0  0
 20 21  1  0  0  0  0
 21 22  1  0  0  0  0
 22 23  1  0  0  0  0
 23 25  1  0  0  0  0
 25 24  1  0  0  0  0
M  END
>  <MODEL>
3

>  <REMARK>
 VINA RESULT:      -8.8      1.642      3.661
  Name = 
  6 active torsions:
  status: ('A' for Active; 'I' for Inactive)
    1  A    between atoms: C_2  and  S_12
    2  A    between atoms: C_2  and  C_25
    3  A    between atoms: C_6  and  C_15
    4  A    between atoms: C_6  and  C_23
    5  A    between atoms: C_15  and  C_21
    6  A    between atoms: C_21  and  C_25
                            x       y       z     vdW  Elec       q    Type
                         _______ _______ _______ _____ _____    ______ ____

>  <TORSDO>
F 6

$$$$
=
 OpenBabel11052422153D

 25 28  0  0  0  0  0  0  0  0999 V2000
  161.4270  207.5780  151.1340 C   0  0  0  0  0  0  0  0  0  0  0  0
  161.3710  206.4670  150.2750 C   0  0  0  0  0  0  0  0  0  0  0  0
  162.0080  209.0420  149.2700 C   0  0  0  0  0  3  0  0  0  0  0  0
  161.2010  207.6150  152.5210 C   0  0  0  0  0  0  0  0  0  0  0  0
  160.8290  208.0810  155.2510 C   0  0  0  0  0  3  0  0  0  0  0  0
  161.9550  207.9390  148.4060 C   0  0  0  0  0  3  0  0  0  0  0  0
  161.3430  208.8950  153.0560 C   0  0  0  0  0  0  0  0  0  0  0  0
  161.1630  209.1540  154.4110 C   0  0  0  0  0  3  0  0  0  0  0  0
  161.5830  205.5330  148.0550 C   0  0  0  0  0  0  0  0  0  0  0  0
  161.8570  205.6390  146.5910 C   0  0  0  0  0  1  0  0  0  0  0  0
  161.0670  205.2260  150.7390 N   0  0  0  0  0  0  0  0  0  0  0  0
  160.6820  206.7840  154.7260 C   0  0  0  0  0  3  0  0  0  0  0  0
  161.7420  208.8360  150.6200 C   0  0  0  0  0  0  0  0  0  0  0  0
  161.7460  209.9950  151.8450 S   0  0  0  0  0  0  0  0  0  0  0  0
  161.2750  204.3170  148.5760 N   0  0  0  0  0  0  0  0  0  0  0  0
  160.8680  206.5430  153.3560 C   0  0  0  0  0  3  0  0  0  0  0  0
  161.0120  204.1590  149.9000 C   0  0  0  0  0  0  0  0  0  0  0  0
  161.6390  206.6550  148.8960 C   0  0  0  0  0  0  0  0  0  0  0  0
  160.7040  202.8070  150.4390 C   0  0  0  0  0  2  0  0  0  0  0  0
  160.1960  201.9150  149.3250 C   0  0  0  0  0  2  0  0  0  0  0  0
  161.2610  200.8950  148.9690 C   0  0  0  0  0  2  0  0  0  0  0  0
  161.1780  200.5360  147.4970 C   0  0  0  0  0  2  0  0  0  0  0  0
  160.8360  201.7640  146.6710 C   0  0  0  0  0  2  0  0  0  0  0  0
  159.8590  202.9750  144.5510 C   0  0  0  0  0  1  0  0  0  0  0  0
  160.0500  201.2590  145.1130 S   0  0  0  0  0  0  0  0  0  0  0  0
  1  4  1  0  0  0  0
  2 11  1  0  0  0  0
  2  1  1  0  0  0  0
  3 13  1  0  0  0  0
  4  7  2  0  0  0  0
  4 16  1  0  0  0  0
  6 18  1  0  0  0  0
  6  3  2  0  0  0  0
  7  8  1  0  0  0  0
  8  5  2  0  0  0  0
  9 15  2  0  0  0  0
  9 18  1  0  0  0  0
 10  9  1  0  0  0  0
 12  5  1  0  0  0  0
 13  1  2  0  0  0  0
 13 14  1  0  0  0  0
 14  7  1  0  0  0  0
 15 17  1  0  0  0  0
 16 12  2  0  0  0  0
 17 19  1  0  0  0  0
 17 11  2  0  0  0  0
 18  2  2  0  0  0  0
 20 19  1  0  0  0  0
 21 20  1  0  0  0  0
 22 21  1  0  0  0  0
 23 22  1  0  0  0  0
 24 25  1  0  0  0  0
 25 23  1  0  0  0  0
M  END
>  <MODEL>
4

>  <REMARK>
 VINA RESULT:      -8.6      1.912      7.563
  Name = 
  6 active torsions:
  status: ('A' for Active; 'I' for Inactive)
    1  A    between atoms: C_2  and  S_12
    2  A    between atoms: C_2  and  C_25
    3  A    between atoms: C_6  and  C_15
    4  A    between atoms: C_6  and  C_23
    5  A    between atoms: C_15  and  C_21
    6  A    between atoms: C_21  and  C_25
                            x       y       z     vdW  Elec       q    Type
                         _______ _______ _______ _____ _____    ______ ____

>  <TORSDO>
F 6

$$$$
=
 OpenBabel11052422153D

 25 28  0  0  0  0  0  0  0  0999 V2000
  161.1380  206.5090  151.9080 C   0  0  0  0  0  0  0  0  0  0  0  0
  161.1760  205.7820  150.7060 C   0  0  0  0  0  0  0  0  0  0  0  0
  160.8320  204.4520  153.1870 C   0  0  0  0  0  3  0  0  0  0  0  0
  161.2510  207.8980  152.0880 C   0  0  0  0  0  0  0  0  0  0  0  0
  161.4330  210.5840  152.8350 C   0  0  0  0  0  3  0  0  0  0  0  0
  160.8680  203.7210  151.9920 C   0  0  0  0  0  3  0  0  0  0  0  0
  161.1680  208.2760  153.4270 C   0  0  0  0  0  0  0  0  0  0  0  0
  161.2560  209.6070  153.8260 C   0  0  0  0  0  3  0  0  0  0  0  0
  161.0730  203.6660  149.5410 C   0  0  0  0  0  0  0  0  0  0  0  0
  160.9300  202.1800  149.4980 C   0  0  0  0  0  1  0  0  0  0  0  0
  161.3400  206.4030  149.5080 N   0  0  0  0  0  0  0  0  0  0  0  0
  161.5190  210.2180  151.4800 C   0  0  0  0  0  3  0  0  0  0  0  0
  160.9680  205.8350  153.1190 C   0  0  0  0  0  0  0  0  0  0  0  0
  160.9560  206.9230  154.4080 S   0  0  0  0  0  0  0  0  0  0  0  0
  161.2390  204.3410  148.3740 N   0  0  0  0  0  0  0  0  0  0  0  0
  161.4280  208.8700  151.0980 C   0  0  0  0  0  3  0  0  0  0  0  0
  161.3780  205.6930  148.3510 C   0  0  0  0  0  0  0  0  0  0  0  0
  161.0390  204.3730  150.7530 C   0  0  0  0  0  0  0  0  0  0  0  0
  161.5320  206.4000  147.0510 C   0  0  0  0  0  2  0  0  0  0  0  0
  162.1340  205.4610  146.0250 C   0  0  0  0  0  2  0  0  0  0  0  0
  161.3320  205.5370  144.7390 C   0  0  0  0  0  2  0  0  0  0  0  0
  160.4620  204.3030  144.5860 C   0  0  0  0  0  2  0  0  0  0  0  0
  161.1090  203.1110  145.2690 C   0  0  0  0  0  2  0  0  0  0  0  0
  160.9860  200.7120  146.3370 C   0  0  0  0  0  1  0  0  0  0  0  0
  160.0370  201.6530  145.1090 S   0  0  0  0  0  0  0  0  0  0  0  0
  1  4  1  0  0  0  0
  1 13  2  0  0  0  0
  2 18  2  0  0  0  0
  2  1  1  0  0  0  0
  4  7  1  0  0  0  0
  5  8  1  0  0  0  0
  6  3  2  0  0  0  0
  7  8  2  0  0  0  0
  7 14  1  0  0  0  0
  9 18  1  0  0  0  0
 10  9  1  0  0  0  0
 11  2  1  0  0  0  0
 12  5  2  0  0  0  0
 13  3  1  0  0  0  0
 13 14  1  0  0  0  0
 15  9  2  0  0  0  0
 16 12  1  0  0  0  0
 16  4  2  0  0  0  0
 17 15  1  0  0  0  0
 17 11  2  0  0  0  0
 18  6  1  0  0  0  0
 19 17  1  0  0  0  0
 20 19  1  0  0  0  0
 21 20  1  0  0  0  0
 22 21  1  0  0  0  0
 22 23  1  0  0  0  0
 25 23  1  0  0  0  0
 25 24  1  0  0  0  0
M  END
>  <MODEL>
5

>  <REMARK>
 VINA RESULT:      -8.3      2.149      8.325
  Name = 
  6 active torsions:
  status: ('A' for Active; 'I' for Inactive)
    1  A    between atoms: C_2  and  S_12
    2  A    between atoms: C_2  and  C_25
    3  A    between atoms: C_6  and  C_15
    4  A    between atoms: C_6  and  C_23
    5  A    between atoms: C_15  and  C_21
    6  A    between atoms: C_21  and  C_25
                            x       y       z     vdW  Elec       q    Type
                         _______ _______ _______ _____ _____    ______ ____

>  <TORSDO>
F 6

$$$$
=
 OpenBabel11052422153D

 25 28  0  0  0  0  0  0  0  0999 V2000
  161.2290  205.0070  150.1900 C   0  0  0  0  0  0  0  0  0  0  0  0
  161.3820  206.3750  150.4770 C   0  0  0  0  0  0  0  0  0  0  0  0
  160.9510  204.5010  152.5620 C   0  0  0  0  0  3  0  0  0  0  0  0
  161.2600  204.3740  148.9360 C   0  0  0  0  0  0  0  0  0  0  0  0
  161.2590  202.7750  146.6450 C   0  0  0  0  0  3  0  0  0  0  0  0
  161.1040  205.8630  152.8560 C   0  0  0  0  0  3  0  0  0  0  0  0
  161.0710  202.9950  149.0250 C   0  0  0  0  0  0  0  0  0  0  0  0
  161.0670  202.1760  147.8990 C   0  0  0  0  0  3  0  0  0  0  0  0
  161.4800  208.1710  152.0930 C   0  0  0  0  0  0  0  0  0  0  0  0
  161.4330  208.7080  153.4850 C   0  0  0  0  0  1  0  0  0  0  0  0
  161.5900  207.2870  149.4910 N   0  0  0  0  0  0  0  0  0  0  0  0
  161.4500  204.1650  146.5400 C   0  0  0  0  0  3  0  0  0  0  0  0
  161.0170  204.1020  151.2310 C   0  0  0  0  0  0  0  0  0  0  0  0
  160.8660  202.5320  150.6310 S   0  0  0  0  0  0  0  0  0  0  0  0
  161.6850  209.0360  151.0650 N   0  0  0  0  0  0  0  0  0  0  0  0
  161.4510  204.9740  147.6870 C   0  0  0  0  0  3  0  0  0  0  0  0
  161.7340  208.6060  149.7760 C   0  0  0  0  0  0  0  0  0  0  0  0
  161.3190  206.8030  151.8260 C   0  0  0  0  0  0  0  0  0  0  0  0
  161.9870  209.5800  148.6800 C   0  0  0  0  0  2  0  0  0  0  0  0
  162.1680  210.9680  149.2580 C   0  0  0  0  0  2  0  0  0  0  0  0
  162.2170  211.9830  148.1320 C   0  0  0  0  0  2  0  0  0  0  0  0
  160.9180  212.7650  148.0680 C   0  0  0  0  0  2  0  0  0  0  0  0
  160.1650  212.4360  146.7900 C   0  0  0  0  0  2  0  0  0  0  0  0
  158.5130  213.5930  148.4760 C   0  0  0  0  0  1  0  0  0  0  0  0
  158.6730  213.4650  146.6720 S   0  0  0  0  0  0  0  0  0  0  0  0
  1  2  2  0  0  0  0
  1 13  1  0  0  0  0
  2 18  1  0  0  0  0
  3  6  1  0  0  0  0
  4  7  1  0  0  0  0
  4  1  1  0  0  0  0
  5  8  1  0  0  0  0
  7 14  1  0  0  0  0
  8  7  2  0  0  0  0
  9 10  1  0  0  0  0
 11 17  2  0  0  0  0
 11  2  1  0  0  0  0
 12  5  2  0  0  0  0
 12 16  1  0  0  0  0
 13  3  2  0  0  0  0
 14 13  1  0  0  0  0
 15  9  2  0  0  0  0
 16  4  2  0  0  0  0
 17 15  1  0  0  0  0
 18  9  1  0  0  0  0
 18  6  2  0  0  0  0
 19 20  1  0  0  0  0
 19 17  1  0  0  0  0
 21 20  1  0  0  0  0
 22 21  1  0  0  0  0
 23 22  1  0  0  0  0
 25 23  1  0  0  0  0
 25 24  1  0  0  0  0
M  END
>  <MODEL>
6

>  <REMARK>
 VINA RESULT:      -8.2      3.032      5.582
  Name = 
  6 active torsions:
  status: ('A' for Active; 'I' for Inactive)
    1  A    between atoms: C_2  and  S_12
    2  A    between atoms: C_2  and  C_25
    3  A    between atoms: C_6  and  C_15
    4  A    between atoms: C_6  and  C_23
    5  A    between atoms: C_15  and  C_21
    6  A    between atoms: C_21  and  C_25
                            x       y       z     vdW  Elec       q    Type
                         _______ _______ _______ _____ _____    ______ ____

>  <TORSDO>
F 6

$$$$
=
 OpenBabel11052422153D

 25 28  0  0  0  0  0  0  0  0999 V2000
  161.2820  204.7500  149.6050 C   0  0  0  0  0  0  0  0  0  0  0  0
  161.3540  205.7460  150.5940 C   0  0  0  0  0  0  0  0  0  0  0  0
  160.8210  203.0500  151.2960 C   0  0  0  0  0  3  0  0  0  0  0  0
  161.4480  204.8900  148.2170 C   0  0  0  0  0  0  0  0  0  0  0  0
  161.7130  204.7760  145.4380 C   0  0  0  0  0  3  0  0  0  0  0  0
  160.8910  204.0380  152.2870 C   0  0  0  0  0  3  0  0  0  0  0  0
  161.3100  203.6830  147.5330 C   0  0  0  0  0  0  0  0  0  0  0  0
  161.4370  203.5990  146.1490 C   0  0  0  0  0  3  0  0  0  0  0  0
  161.2360  206.3890  152.9220 C   0  0  0  0  0  0  0  0  0  0  0  0
  161.0460  206.0920  154.3730 C   0  0  0  0  0  1  0  0  0  0  0  0
  161.6080  207.0420  150.2770 N   0  0  0  0  0  0  0  0  0  0  0  0
  161.8540  206.0020  146.1140 C   0  0  0  0  0  3  0  0  0  0  0  0
  161.0190  203.4290  149.9720 C   0  0  0  0  0  0  0  0  0  0  0  0
  160.9850  202.4310  148.6120 S   0  0  0  0  0  0  0  0  0  0  0  0
  161.4950  207.6680  152.5440 N   0  0  0  0  0  0  0  0  0  0  0  0
  161.7230  206.0660  147.5100 C   0  0  0  0  0  3  0  0  0  0  0  0
  161.6730  207.9990  151.2380 C   0  0  0  0  0  0  0  0  0  0  0  0
  161.1560  205.3810  151.9490 C   0  0  0  0  0  0  0  0  0  0  0  0
  161.9790  209.4060  150.8660 C   0  0  0  0  0  2  0  0  0  0  0  0
  161.7620  210.3130  152.0610 C   0  0  0  0  0  2  0  0  0  0  0  0
  160.2950  210.6880  152.1510 C   0  0  0  0  0  2  0  0  0  0  0  0
  160.1380  212.0610  152.7770 C   0  0  0  0  0  2  0  0  0  0  0  0
  158.7310  212.2360  153.3240 C   0  0  0  0  0  2  0  0  0  0  0  0
  160.0020  212.0310  155.6160 C   0  0  0  0  0  1  0  0  0  0  0  0
  158.5400  211.2730  154.8520 S   0  0  0  0  0  0  0  0  0  0  0  0
  1 13  1  0  0  0  0
  1  2  2  0  0  0  0
  2 18  1  0  0  0  0
  3  6  1  0  0  0  0
  4  1  1  0  0  0  0
  5 12  2  0  0  0  0
  5  8  1  0  0  0  0
  7  4  1  0  0  0  0
  7 14  1  0  0  0  0
  8  7  2  0  0  0  0
  9 10  1  0  0  0  0
 11  2  1  0  0  0  0
 11 17  2  0  0  0  0
 12 16  1  0  0  0  0
 13  3  2  0  0  0  0
 14 13  1  0  0  0  0
 15  9  2  0  0  0  0
 16  4  2  0  0  0  0
 17 15  1  0  0  0  0
 18  6  2  0  0  0  0
 18  9  1  0  0  0  0
 19 17  1  0  0  0  0
 19 20  1  0  0  0  0
 20 21  1  0  0  0  0
 21 22  1  0  0  0  0
 22 23  1  0  0  0  0
 23 25  1  0  0  0  0
 25 24  1  0  0  0  0
M  END
>  <MODEL>
7

>  <REMARK>
 VINA RESULT:      -7.9      2.029      3.914
  Name = 
  6 active torsions:
  status: ('A' for Active; 'I' for Inactive)
    1  A    between atoms: C_2  and  S_12
    2  A    between atoms: C_2  and  C_25
    3  A    between atoms: C_6  and  C_15
    4  A    between atoms: C_6  and  C_23
    5  A    between atoms: C_15  and  C_21
    6  A    between atoms: C_21  and  C_25
                            x       y       z     vdW  Elec       q    Type
                         _______ _______ _______ _____ _____    ______ ____

>  <TORSDO>
F 6

$$$$
=
 OpenBabel11052422153D

 25 28  0  0  0  0  0  0  0  0999 V2000
  160.8080  208.1840  153.0650 C   0  0  0  0  0  0  0  0  0  0  0  0
  161.0220  207.3040  151.9910 C   0  0  0  0  0  0  0  0  0  0  0  0
  161.0030  206.3470  154.6610 C   0  0  0  0  0  3  0  0  0  0  0  0
  160.5830  209.5710  153.0200 C   0  0  0  0  0  0  0  0  0  0  0  0
  160.1140  212.3080  153.3300 C   0  0  0  0  0  3  0  0  0  0  0  0
  161.2160  205.4630  153.5950 C   0  0  0  0  0  3  0  0  0  0  0  0
  160.4100  210.1290  154.2860 C   0  0  0  0  0  0  0  0  0  0  0  0
  160.1750  211.4890  154.4680 C   0  0  0  0  0  3  0  0  0  0  0  0
  161.4330  205.0640  151.1780 C   0  0  0  0  0  0  0  0  0  0  0  0
  161.6510  203.6000  151.3730 C   0  0  0  0  0  1  0  0  0  0  0  0
  161.0340  207.7440  150.7050 N   0  0  0  0  0  0  0  0  0  0  0  0
  160.2870  211.7580  152.0460 C   0  0  0  0  0  3  0  0  0  0  0  0
  160.8030  207.6930  154.3720 C   0  0  0  0  0  0  0  0  0  0  0  0
  160.5280  208.9410  155.4740 S   0  0  0  0  0  0  0  0  0  0  0  0
  161.4330  205.5620  149.9130 N   0  0  0  0  0  0  0  0  0  0  0  0
  160.5240  210.3840  151.8840 C   0  0  0  0  0  3  0  0  0  0  0  0
  161.2430  206.8860  149.6730 C   0  0  0  0  0  0  0  0  0  0  0  0
  161.2270  205.9280  152.2640 C   0  0  0  0  0  0  0  0  0  0  0  0
  161.2250  207.3910  148.2740 C   0  0  0  0  0  2  0  0  0  0  0  0
  160.9190  206.2520  147.3220 C   0  0  0  0  0  2  0  0  0  0  0  0
  162.1970  205.8130  146.6320 C   0  0  0  0  0  2  0  0  0  0  0  0
  162.3000  204.2990  146.6230 C   0  0  0  0  0  2  0  0  0  0  0  0
  161.4470  203.7170  145.5090 C   0  0  0  0  0  2  0  0  0  0  0  0
  161.0450  202.4370  147.7700 C   0  0  0  0  0  1  0  0  0  0  0  0
  160.8180  202.0870  146.0030 S   0  0  0  0  0  0  0  0  0  0  0  0
  1 13  2  0  0  0  0
  2 18  2  0  0  0  0
  2  1  1  0  0  0  0
  4  1  1  0  0  0  0
  4  7  1  0  0  0  0
  5  8  1  0  0  0  0
  6  3  2  0  0  0  0
  7  8  2  0  0  0  0
  7 14  1  0  0  0  0
  9 10  1  0  0  0  0
  9 18  1  0  0  0  0
 11  2  1  0  0  0  0
 12  5  2  0  0  0  0
 13  3  1  0  0  0  0
 13 14  1  0  0  0  0
 15  9  2  0  0  0  0
 16 12  1  0  0  0  0
 16  4  2  0  0  0  0
 17 15  1  0  0  0  0
 17 11  2  0  0  0  0
 18  6  1  0  0  0  0
 19 17  1  0  0  0  0
 20 19  1  0  0  0  0
 21 20  1  0  0  0  0
 22 21  1  0  0  0  0
 23 25  1  0  0  0  0
 23 22  1  0  0  0  0
 25 24  1  0  0  0  0
M  END
>  <MODEL>
8

>  <REMARK>
 VINA RESULT:      -7.5      1.935      8.287
  Name = 
  6 active torsions:
  status: ('A' for Active; 'I' for Inactive)
    1  A    between atoms: C_2  and  S_12
    2  A    between atoms: C_2  and  C_25
    3  A    between atoms: C_6  and  C_15
    4  A    between atoms: C_6  and  C_23
    5  A    between atoms: C_15  and  C_21
    6  A    between atoms: C_21  and  C_25
                            x       y       z     vdW  Elec       q    Type
                         _______ _______ _______ _____ _____    ______ ____

>  <TORSDO>
F 6

$$$$
=
 OpenBabel11052422153D

 25 28  0  0  0  0  0  0  0  0999 V2000
  161.1390  203.3930  148.4060 C   0  0  0  0  0  0  0  0  0  0  0  0
  161.3010  204.5360  147.6040 C   0  0  0  0  0  0  0  0  0  0  0  0
  161.0280  201.9710  146.4250 C   0  0  0  0  0  3  0  0  0  0  0  0
  161.0860  203.3160  149.8090 C   0  0  0  0  0  0  0  0  0  0  0  0
  160.9340  202.7700  152.5440 C   0  0  0  0  0  3  0  0  0  0  0  0
  161.1870  203.1060  145.6190 C   0  0  0  0  0  3  0  0  0  0  0  0
  160.9160  202.0120  150.2700 C   0  0  0  0  0  0  0  0  0  0  0  0
  160.8370  201.7120  151.6270 C   0  0  0  0  0  3  0  0  0  0  0  0
  161.4800  205.5390  145.4110 C   0  0  0  0  0  0  0  0  0  0  0  0
  161.5100  205.4740  143.9200 C   0  0  0  0  0  1  0  0  0  0  0  0
  161.4320  205.7730  148.1510 N   0  0  0  0  0  0  0  0  0  0  0  0
  161.1070  204.0910  152.0930 C   0  0  0  0  0  3  0  0  0  0  0  0
  161.0070  202.1400  147.8060 C   0  0  0  0  0  0  0  0  0  0  0  0
  160.8270  200.9370  148.9750 S   0  0  0  0  0  0  0  0  0  0  0  0
  161.6070  206.7500  146.0160 N   0  0  0  0  0  0  0  0  0  0  0  0
  161.1840  204.3730  150.7200 C   0  0  0  0  0  3  0  0  0  0  0  0
  161.5900  206.8720  147.3690 C   0  0  0  0  0  0  0  0  0  0  0  0
  161.3240  204.3860  146.1950 C   0  0  0  0  0  0  0  0  0  0  0  0
  161.7060  208.2170  147.9940 C   0  0  0  0  0  2  0  0  0  0  0  0
  162.3460  208.0940  149.3620 C   0  0  0  0  0  2  0  0  0  0  0  0
  161.2690  208.1370  150.4290 C   0  0  0  0  0  2  0  0  0  0  0  0
  161.8540  207.7860  151.7850 C   0  0  0  0  0  2  0  0  0  0  0  0
  161.0670  208.4660  152.8930 C   0  0  0  0  0  2  0  0  0  0  0  0
  161.2930  210.7670  154.1430 C   0  0  0  0  0  1  0  0  0  0  0  0
  160.8100  210.2160  152.4820 S   0  0  0  0  0  0  0  0  0  0  0  0
  1  4  1  0  0  0  0
  2 11  1  0  0  0  0
  2  1  1  0  0  0  0
  3 13  1  0  0  0  0
  4  7  2  0  0  0  0
  4 16  1  0  0  0  0
  6 18  1  0  0  0  0
  6  3  2  0  0  0  0
  7  8  1  0  0  0  0
  8  5  2  0  0  0  0
  9 15  2  0  0  0  0
  9 18  1  0  0  0  0
 10  9  1  0  0  0  0
 12  5  1  0  0  0  0
 13  1  2  0  0  0  0
 13 14  1  0  0  0  0
 14  7  1  0  0  0  0
 15 17  1  0  0  0  0
 16 12  2  0  0  0  0
 17 19  1  0  0  0  0
 17 11  2  0  0  0  0
 18  2  2  0  0  0  0
 19 20  1  0  0  0  0
 20 21  1  0  0  0  0
 21 22  1  0  0  0  0
 22 23  1  0  0  0  0
 25 23  1  0  0  0  0
 25 24  1  0  0  0  0
M  END
>  <MODEL>
9

>  <REMARK>
 VINA RESULT:      -7.4      2.479      4.676
  Name = 
  6 active torsions:
  status: ('A' for Active; 'I' for Inactive)
    1  A    between atoms: C_2  and  S_12
    2  A    between atoms: C_2  and  C_25
    3  A    between atoms: C_6  and  C_15
    4  A    between atoms: C_6  and  C_23
    5  A    between atoms: C_15  and  C_21
    6  A    between atoms: C_21  and  C_25
                            x       y       z     vdW  Elec       q    Type
                         _______ _______ _______ _____ _____    ______ ____

>  <TORSDO>
F 6

$$$$
