=
 OpenBabel11062408353D

 32 34  0  0  1  0  0  0  0  0999 V2000
  161.5790  207.3330  152.8070 C   0  0  0  0  0  2  0  0  0  0  0  0
  160.8320  208.4270  153.2700 O   0  0  0  0  0  0  0  0  0  0  0  0
  160.9770  208.5220  154.6710 C   0  0  2  0  0  3  0  0  0  0  0  0
  160.4150  207.3340  155.4530 C   0  0  0  0  0  1  0  0  0  0  0  0
  160.6870  209.9170  155.2520 C   0  0  2  0  0  3  0  0  0  0  0  0
  161.3220  210.0740  156.4850 O   0  0  0  0  0  1  0  0  0  0  0  0
  159.2010  210.2820  155.3480 C   0  0  0  0  0  2  0  0  0  0  0  0
  158.9410  211.6280  154.8490 N   0  0  0  0  0  0  0  0  0  0  0  0
  157.6580  211.6130  154.2750 N   0  0  0  0  0  0  0  0  0  0  0  0
  156.7780  211.1860  155.2580 O   0  0  0  0  0  0  0  0  0  0  0  0
  156.8360  212.5240  155.0380 C   0  0  2  0  0  3  0  0  0  0  0  0
  155.7400  212.9120  154.2700 O   0  0  0  0  0  1  0  0  0  0  0  0
  159.8830  211.8550  153.7620 C   0  0  0  0  0  2  0  0  0  0  0  0
  159.1590  211.7580  152.4300 C   0  0  0  0  0  2  0  0  0  0  0  0
  158.9510  214.2220  152.1220 C   0  0  0  0  0  1  0  0  0  0  0  0
  159.5190  212.9380  151.5460 C   0  0  0  0  0  2  0  0  0  0  0  0
  161.2260  207.0340  151.3570 C   0  0  2  0  0  3  0  0  0  0  0  0
  160.7560  205.5850  151.1980 C   0  0  2  0  0  3  0  0  0  0  0  0
  161.2730  204.6630  152.3230 C   0  0  0  0  0  2  0  0  0  0  0  0
  160.6120  201.5990  148.5570 C   0  0  1  0  0  3  0  0  0  0  0  0
  161.1100  205.0470  149.8040 C   0  0  0  0  0  2  0  0  0  0  0  0
  160.8010  201.0880  150.3090 S   0  0  0  0  0  0  0  0  0  0  0  0
  161.2800  202.7710  150.7210 C   0  0  2  0  0  3  0  0  0  0  0  0
  160.8300  203.2120  152.1050 C   0  0  0  0  0  2  0  0  0  0  0  0
  160.8780  203.0290  148.4010 N   0  0  0  0  0  2  0  0  0  0  0  0
  161.5660  200.8070  147.6870 C   0  0  0  0  0  1  0  0  0  0  0  0
  160.5970  203.6210  149.6930 C   0  0  2  0  0  3  0  0  0  0  0  0
  162.4020  207.3570  150.4390 C   0  0  0  0  0  2  0  0  0  0  0  0
  162.1110  208.5510  149.5940 C   0  0  0  0  0  0  0  0  0  0  0  0
  161.6380  208.3890  148.4020 N   0  0  0  0  0  2  0  0  0  0  0  0
  161.9550  211.0640  149.3980 C   0  0  0  0  0  1  0  0  0  0  0  0
  162.2670  209.8590  150.1480 N   0  0  0  0  0  2  0  0  0  0  0  0
  1  2  1  0  0  0  0
  2  3  1  0  0  0  0
  3  5  1  0  0  0  0
  3  4  1  1  0  0  0
  5  7  1  0  0  0  0
  5  6  1  1  0  0  0
  8  7  1  0  0  0  0
  9  8  1  0  0  0  0
  9 11  1  0  0  0  0
  9 10  1  0  0  0  0
 11 12  1  6  0  0  0
 11 10  1  0  0  0  0
 13  8  1  0  0  0  0
 14 13  1  0  0  0  0
 16 15  1  0  0  0  0
 16 14  1  0  0  0  0
 17 28  1  6  0  0  0
 17  1  1  0  0  0  0
 18 17  1  1  0  0  0
 18 19  1  0  0  0  0
 20 26  1  6  0  0  0
 20 22  1  0  0  0  0
 21 18  1  0  0  0  0
 22 23  1  0  0  0  0
 23 24  1  1  0  0  0
 24 19  1  0  0  0  0
 25 20  1  0  0  0  0
 25 27  1  0  0  0  0
 27 21  1  6  0  0  0
 27 23  1  0  0  0  0
 29 32  1  0  0  0  0
 29 28  1  0  0  0  0
 30 29  2  0  0  0  0
 31 32  1  0  0  0  0
M  END
>  <MODEL>
1

>  <REMARK>
 VINA RESULT:      -6.6      0.000      0.000
  Name = 
  13 active torsions:
  status: ('A' for Active; 'I' for Inactive)
    1  A    between atoms: O_1  and  C_4
    2  A    between atoms: O_1  and  C_5
    3  A    between atoms: C_2  and  C_14
    4  A    between atoms: N_3  and  N_20
    5  A    between atoms: C_4  and  C_24
    6  A    between atoms: C_5  and  C_14
    7  A    between atoms: C_13  and  C_30
    8  A    between atoms: C_14  and  C_30
    9  A    between atoms: C_15  and  N_20
   10  A    between atoms: C_15  and  C_26
   11  A    between atoms: C_16  and  N_20
   12  A    between atoms: C_16  and  C_24
   13  A    between atoms: C_19  and  C_26
                            x       y       z     vdW  Elec       q    Type
                         _______ _______ _______ _____ _____    ______ ____

>  <TORSDO>
F 13

$$$$
=
 OpenBabel11062408353D

 32 34  0  0  1  0  0  0  0  0999 V2000
  161.5950  207.0310  153.0850 C   0  0  0  0  0  2  0  0  0  0  0  0
  160.7990  208.0270  153.6710 O   0  0  0  0  0  0  0  0  0  0  0  0
  160.9930  208.0050  155.0690 C   0  0  2  0  0  3  0  0  0  0  0  0
  159.8960  207.2840  155.8540 C   0  0  0  0  0  1  0  0  0  0  0  0
  161.4960  209.3300  155.6660 C   0  0  2  0  0  3  0  0  0  0  0  0
  162.3400  209.0880  156.7510 O   0  0  0  0  0  1  0  0  0  0  0  0
  160.3960  210.3320  156.0390 C   0  0  0  0  0  2  0  0  0  0  0  0
  159.4920  210.5830  154.9220 N   0  0  0  0  0  0  0  0  0  0  0  0
  159.8770  211.8070  154.3490 N   0  0  0  0  0  0  0  0  0  0  0  0
  160.9010  211.5330  153.4550 O   0  0  0  0  0  0  0  0  0  0  0  0
  159.6640  211.6990  152.9240 C   0  0  2  0  0  3  0  0  0  0  0  0
  159.5670  212.9760  152.3720 O   0  0  0  0  0  1  0  0  0  0  0  0
  158.1700  210.7890  155.4980 C   0  0  0  0  0  2  0  0  0  0  0  0
  158.1620  212.0690  156.3140 C   0  0  0  0  0  2  0  0  0  0  0  0
  156.2890  212.5070  154.7310 C   0  0  0  0  0  1  0  0  0  0  0  0
  156.8650  212.8260  156.0980 C   0  0  0  0  0  2  0  0  0  0  0  0
  161.2410  206.8760  151.6120 C   0  0  2  0  0  3  0  0  0  0  0  0
  160.7320  205.4610  151.3210 C   0  0  2  0  0  3  0  0  0  0  0  0
  161.1720  204.4360  152.3880 C   0  0  0  0  0  2  0  0  0  0  0  0
  160.5740  201.7000  148.3680 C   0  0  1  0  0  3  0  0  0  0  0  0
  161.1270  205.0220  149.9030 C   0  0  0  0  0  2  0  0  0  0  0  0
  160.6720  201.0480  150.0800 S   0  0  0  0  0  0  0  0  0  0  0  0
  161.1860  202.6760  150.6430 C   0  0  2  0  0  3  0  0  0  0  0  0
  160.6920  203.0240  152.0390 C   0  0  0  0  0  2  0  0  0  0  0  0
  160.8910  203.1280  148.3370 N   0  0  0  0  0  2  0  0  0  0  0  0
  161.5380  200.9460  147.4760 C   0  0  0  0  0  1  0  0  0  0  0  0
  160.5750  203.6270  149.6590 C   0  0  2  0  0  3  0  0  0  0  0  0
  162.4290  207.2490  150.7300 C   0  0  0  0  0  2  0  0  0  0  0  0
  162.1520  208.4940  149.9570 C   0  0  0  0  0  0  0  0  0  0  0  0
  161.8420  208.4130  148.7040 N   0  0  0  0  0  2  0  0  0  0  0  0
  161.8300  210.9990  149.9530 C   0  0  0  0  0  1  0  0  0  0  0  0
  162.1390  209.7530  150.6330 N   0  0  0  0  0  2  0  0  0  0  0  0
  1  2  1  0  0  0  0
  2  3  1  0  0  0  0
  3  5  1  0  0  0  0
  3  4  1  1  0  0  0
  5  7  1  0  0  0  0
  5  6  1  1  0  0  0
  8 13  1  0  0  0  0
  8  7  1  0  0  0  0
  9  8  1  0  0  0  0
 10  9  1  0  0  0  0
 11 12  1  6  0  0  0
 11 10  1  0  0  0  0
 11  9  1  0  0  0  0
 13 14  1  0  0  0  0
 15 16  1  0  0  0  0
 16 14  1  0  0  0  0
 17 28  1  6  0  0  0
 17  1  1  0  0  0  0
 18 17  1  1  0  0  0
 18 19  1  0  0  0  0
 20 26  1  6  0  0  0
 20 22  1  0  0  0  0
 21 18  1  0  0  0  0
 22 23  1  0  0  0  0
 23 24  1  1  0  0  0
 24 19  1  0  0  0  0
 25 20  1  0  0  0  0
 25 27  1  0  0  0  0
 27 21  1  6  0  0  0
 27 23  1  0  0  0  0
 29 32  1  0  0  0  0
 29 28  1  0  0  0  0
 30 29  2  0  0  0  0
 31 32  1  0  0  0  0
M  END
>  <MODEL>
2

>  <REMARK>
 VINA RESULT:      -6.5      1.406      2.046
  Name = 
  13 active torsions:
  status: ('A' for Active; 'I' for Inactive)
    1  A    between atoms: O_1  and  C_4
    2  A    between atoms: O_1  and  C_5
    3  A    between atoms: C_2  and  C_14
    4  A    between atoms: N_3  and  N_20
    5  A    between atoms: C_4  and  C_24
    6  A    between atoms: C_5  and  C_14
    7  A    between atoms: C_13  and  C_30
    8  A    between atoms: C_14  and  C_30
    9  A    between atoms: C_15  and  N_20
   10  A    between atoms: C_15  and  C_26
   11  A    between atoms: C_16  and  N_20
   12  A    between atoms: C_16  and  C_24
   13  A    between atoms: C_19  and  C_26
                            x       y       z     vdW  Elec       q    Type
                         _______ _______ _______ _____ _____    ______ ____

>  <TORSDO>
F 13

$$$$
=
 OpenBabel11062408353D

 32 34  0  0  1  0  0  0  0  0999 V2000
  161.6200  207.7750  150.9250 C   0  0  0  0  0  2  0  0  0  0  0  0
  162.4930  207.0930  150.0630 O   0  0  0  0  0  0  0  0  0  0  0  0
  162.3610  207.6250  148.7620 C   0  0  2  0  0  3  0  0  0  0  0  0
  161.8690  209.0720  148.7110 C   0  0  0  0  0  1  0  0  0  0  0  0
  161.7420  206.6610  147.7360 C   0  0  2  0  0  3  0  0  0  0  0  0
  160.7560  207.3080  146.9900 O   0  0  0  0  0  1  0  0  0  0  0  0
  161.2150  205.3440  148.3200 C   0  0  0  0  0  2  0  0  0  0  0  0
  161.4750  204.2160  147.4320 N   0  0  0  0  0  0  0  0  0  0  0  0
  161.6290  203.0810  148.2450 N   0  0  0  0  0  0  0  0  0  0  0  0
  160.3620  202.7090  148.6690 O   0  0  0  0  0  0  0  0  0  0  0  0
  160.8820  202.0080  147.6300 C   0  0  2  0  0  3  0  0  0  0  0  0
  161.3600  200.7840  148.0950 O   0  0  0  0  0  1  0  0  0  0  0  0
  162.7690  204.4660  146.8140 C   0  0  0  0  0  2  0  0  0  0  0  0
  162.6780  204.2190  145.3180 C   0  0  0  0  0  2  0  0  0  0  0  0
  161.1610  205.5860  143.8910 C   0  0  0  0  0  1  0  0  0  0  0  0
  161.2500  204.4030  144.8380 C   0  0  0  0  0  2  0  0  0  0  0  0
  161.2480  206.8880  152.1050 C   0  0  2  0  0  3  0  0  0  0  0  0
  161.3170  207.6710  153.4190 C   0  0  2  0  0  3  0  0  0  0  0  0
  160.4590  207.0390  154.5360 C   0  0  0  0  0  2  0  0  0  0  0  0
  160.6220  211.7770  155.7740 C   0  0  1  0  0  3  0  0  0  0  0  0
  160.9680  209.1490  153.1910 C   0  0  0  0  0  2  0  0  0  0  0  0
  160.1300  210.4120  156.8970 S   0  0  0  0  0  0  0  0  0  0  0  0
  160.0920  209.2990  155.4850 C   0  0  2  0  0  3  0  0  0  0  0  0
  160.5080  207.8750  155.8200 C   0  0  0  0  0  2  0  0  0  0  0  0
  160.7750  211.2920  154.4020 N   0  0  0  0  0  2  0  0  0  0  0  0
  159.5790  212.8730  155.8120 C   0  0  0  0  0  1  0  0  0  0  0  0
  161.0790  209.8810  154.5190 C   0  0  2  0  0  3  0  0  0  0  0  0
  162.1250  205.6390  152.1370 C   0  0  0  0  0  2  0  0  0  0  0  0
  161.3210  204.4130  151.8660 C   0  0  0  0  0  0  0  0  0  0  0  0
  160.0720  204.5240  151.5540 N   0  0  0  0  0  2  0  0  0  0  0  0
  161.2530  201.9060  151.5610 C   0  0  0  0  0  1  0  0  0  0  0  0
  161.9640  203.1370  151.8630 N   0  0  0  0  0  2  0  0  0  0  0  0
  2  1  1  0  0  0  0
  3  4  1  1  0  0  0
  3  2  1  0  0  0  0
  5  6  1  1  0  0  0
  5  7  1  0  0  0  0
  5  3  1  0  0  0  0
  8  9  1  0  0  0  0
  8  7  1  0  0  0  0
  9 10  1  0  0  0  0
 11 12  1  1  0  0  0
 11  9  1  0  0  0  0
 11 10  1  0  0  0  0
 13  8  1  0  0  0  0
 14 13  1  0  0  0  0
 15 16  1  0  0  0  0
 16 14  1  0  0  0  0
 17  1  1  6  0  0  0
 17 28  1  0  0  0  0
 18 17  1  6  0  0  0
 18 19  1  0  0  0  0
 19 24  1  0  0  0  0
 20 26  1  6  0  0  0
 20 22  1  0  0  0  0
 21 18  1  0  0  0  0
 23 24  1  1  0  0  0
 23 22  1  0  0  0  0
 25 27  1  0  0  0  0
 25 20  1  0  0  0  0
 27 21  1  6  0  0  0
 27 23  1  0  0  0  0
 29 28  1  0  0  0  0
 30 29  2  0  0  0  0
 31 32  1  0  0  0  0
 32 29  1  0  0  0  0
M  END
>  <MODEL>
3

>  <REMARK>
 VINA RESULT:      -6.5      3.999      9.070
  Name = 
  13 active torsions:
  status: ('A' for Active; 'I' for Inactive)
    1  A    between atoms: O_1  and  C_4
    2  A    between atoms: O_1  and  C_5
    3  A    between atoms: C_2  and  C_14
    4  A    between atoms: N_3  and  N_20
    5  A    between atoms: C_4  and  C_24
    6  A    between atoms: C_5  and  C_14
    7  A    between atoms: C_13  and  C_30
    8  A    between atoms: C_14  and  C_30
    9  A    between atoms: C_15  and  N_20
   10  A    between atoms: C_15  and  C_26
   11  A    between atoms: C_16  and  N_20
   12  A    between atoms: C_16  and  C_24
   13  A    between atoms: C_19  and  C_26
                            x       y       z     vdW  Elec       q    Type
                         _______ _______ _______ _____ _____    ______ ____

>  <TORSDO>
F 13

$$$$
=
 OpenBabel11062408353D

 32 34  0  0  1  0  0  0  0  0999 V2000
  160.9930  207.9020  152.8040 C   0  0  0  0  0  2  0  0  0  0  0  0
  161.6670  209.1290  152.8960 O   0  0  0  0  0  0  0  0  0  0  0  0
  160.8150  210.0760  153.5040 C   0  0  2  0  0  3  0  0  0  0  0  0
  159.7590  210.6740  152.5730 C   0  0  0  0  0  1  0  0  0  0  0  0
  161.5240  211.0620  154.4490 C   0  0  2  0  0  3  0  0  0  0  0  0
  162.7710  210.5630  154.8280 O   0  0  0  0  0  1  0  0  0  0  0  0
  160.7050  211.4870  155.6740 C   0  0  0  0  0  2  0  0  0  0  0  0
  159.7330  210.4680  156.0550 N   0  0  0  0  0  0  0  0  0  0  0  0
  158.5570  211.1420  156.4270 N   0  0  0  0  0  0  0  0  0  0  0  0
  158.2690  212.0450  155.4160 O   0  0  0  0  0  0  0  0  0  0  0  0
  157.5710  210.8820  155.4030 C   0  0  2  0  0  3  0  0  0  0  0  0
  156.2960  211.1030  155.9200 O   0  0  0  0  0  1  0  0  0  0  0  0
  160.2490  209.8340  157.2600 C   0  0  0  0  0  2  0  0  0  0  0  0
  161.0520  208.6010  156.8850 C   0  0  0  0  0  2  0  0  0  0  0  0
  159.4430  206.9300  155.9740 C   0  0  0  0  0  1  0  0  0  0  0  0
  160.2600  207.3410  157.1850 C   0  0  0  0  0  2  0  0  0  0  0  0
  161.0500  207.3790  151.3750 C   0  0  2  0  0  3  0  0  0  0  0  0
  160.6590  205.8990  151.3210 C   0  0  2  0  0  3  0  0  0  0  0  0
  161.3400  205.0600  152.4240 C   0  0  0  0  0  2  0  0  0  0  0  0
  160.5140  201.7960  148.8640 C   0  0  1  0  0  3  0  0  0  0  0  0
  160.9100  205.3210  149.9200 C   0  0  0  0  0  2  0  0  0  0  0  0
  160.9030  201.3770  150.6080 S   0  0  0  0  0  0  0  0  0  0  0  0
  161.3120  203.1020  150.9040 C   0  0  2  0  0  3  0  0  0  0  0  0
  160.9700  203.5780  152.3080 C   0  0  0  0  0  2  0  0  0  0  0  0
  160.6720  203.2310  148.6270 N   0  0  0  0  0  2  0  0  0  0  0  0
  161.4270  201.0240  147.9350 C   0  0  0  0  0  1  0  0  0  0  0  0
  160.4800  203.8630  149.9160 C   0  0  2  0  0  3  0  0  0  0  0  0
  162.4260  207.6290  150.7650 C   0  0  0  0  0  2  0  0  0  0  0  0
  162.3310  208.5320  149.5810 C   0  0  0  0  0  0  0  0  0  0  0  0
  162.3580  208.0290  148.3910 N   0  0  0  0  0  2  0  0  0  0  0  0
  161.9650  210.8600  148.6730 C   0  0  0  0  0  1  0  0  0  0  0  0
  162.1160  209.9300  149.7790 N   0  0  0  0  0  2  0  0  0  0  0  0
  1  2  1  0  0  0  0
  2  3  1  0  0  0  0
  3  4  1  6  0  0  0
  3  5  1  0  0  0  0
  5  6  1  1  0  0  0
  5  7  1  0  0  0  0
  7  8  1  0  0  0  0
  8  9  1  0  0  0  0
  8 13  1  0  0  0  0
 10  9  1  0  0  0  0
 11 10  1  0  0  0  0
 11 12  1  1  0  0  0
 11  9  1  0  0  0  0
 14 16  1  0  0  0  0
 14 13  1  0  0  0  0
 15 16  1  0  0  0  0
 17 28  1  1  0  0  0
 17  1  1  0  0  0  0
 18 17  1  6  0  0  0
 18 19  1  0  0  0  0
 20 26  1  6  0  0  0
 20 22  1  0  0  0  0
 21 18  1  0  0  0  0
 22 23  1  0  0  0  0
 23 24  1  1  0  0  0
 24 19  1  0  0  0  0
 25 20  1  0  0  0  0
 25 27  1  0  0  0  0
 27 21  1  6  0  0  0
 27 23  1  0  0  0  0
 29 32  1  0  0  0  0
 29 28  1  0  0  0  0
 30 29  2  0  0  0  0
 31 32  1  0  0  0  0
M  END
>  <MODEL>
4

>  <REMARK>
 VINA RESULT:      -6.4      1.415      2.761
  Name = 
  13 active torsions:
  status: ('A' for Active; 'I' for Inactive)
    1  A    between atoms: O_1  and  C_4
    2  A    between atoms: O_1  and  C_5
    3  A    between atoms: C_2  and  C_14
    4  A    between atoms: N_3  and  N_20
    5  A    between atoms: C_4  and  C_24
    6  A    between atoms: C_5  and  C_14
    7  A    between atoms: C_13  and  C_30
    8  A    between atoms: C_14  and  C_30
    9  A    between atoms: C_15  and  N_20
   10  A    between atoms: C_15  and  C_26
   11  A    between atoms: C_16  and  N_20
   12  A    between atoms: C_16  and  C_24
   13  A    between atoms: C_19  and  C_26
                            x       y       z     vdW  Elec       q    Type
                         _______ _______ _______ _____ _____    ______ ____

>  <TORSDO>
F 13

$$$$
=
 OpenBabel11062408353D

 32 34  0  0  1  0  0  0  0  0999 V2000
  161.8420  209.4160  152.4900 C   0  0  0  0  0  2  0  0  0  0  0  0
  161.2440  208.7930  151.3840 O   0  0  0  0  0  0  0  0  0  0  0  0
  162.0860  208.9460  150.2610 C   0  0  2  0  0  3  0  0  0  0  0  0
  161.8620  210.2350  149.4690 C   0  0  0  0  0  1  0  0  0  0  0  0
  162.2880  207.6660  149.4330 C   0  0  2  0  0  3  0  0  0  0  0  0
  162.7560  207.9790  148.1560 O   0  0  0  0  0  1  0  0  0  0  0  0
  161.0660  206.7420  149.3590 C   0  0  0  0  0  2  0  0  0  0  0  0
  161.4530  205.3440  149.2000 N   0  0  0  0  0  0  0  0  0  0  0  0
  160.8770  204.8930  148.0010 N   0  0  0  0  0  0  0  0  0  0  0  0
  161.6000  205.4610  146.9630 O   0  0  0  0  0  0  0  0  0  0  0  0
  161.9000  204.1750  147.2760 C   0  0  2  0  0  3  0  0  0  0  0  0
  161.3020  203.3230  146.3500 O   0  0  0  0  0  1  0  0  0  0  0  0
  160.8040  204.6110  150.2780 C   0  0  0  0  0  2  0  0  0  0  0  0
  161.7550  204.4820  151.4540 C   0  0  0  0  0  2  0  0  0  0  0  0
  161.3690  205.9230  153.4500 C   0  0  0  0  0  1  0  0  0  0  0  0
  160.9990  204.6210  152.7630 C   0  0  0  0  0  2  0  0  0  0  0  0
  160.8140  209.6260  153.5930 C   0  0  2  0  0  3  0  0  0  0  0  0
  159.7300  210.6120  153.1470 C   0  0  2  0  0  3  0  0  0  0  0  0
  160.3080  211.8570  152.4420 C   0  0  0  0  0  2  0  0  0  0  0  0
  156.0760  213.4730  154.3090 C   0  0  1  0  0  3  0  0  0  0  0  0
  158.8180  210.9880  154.3240 C   0  0  0  0  0  2  0  0  0  0  0  0
  157.0430  214.3230  153.0000 S   0  0  0  0  0  0  0  0  0  0  0  0
  158.4030  213.1880  153.3040 C   0  0  2  0  0  3  0  0  0  0  0  0
  159.2030  212.8460  152.0570 C   0  0  0  0  0  2  0  0  0  0  0  0
  156.8290  212.3480  154.8630 N   0  0  0  0  0  2  0  0  0  0  0  0
  155.7390  214.4520  155.4140 C   0  0  0  0  0  1  0  0  0  0  0  0
  157.7480  211.9420  153.8190 C   0  0  2  0  0  3  0  0  0  0  0  0
  161.4940  210.0710  154.8850 C   0  0  0  0  0  2  0  0  0  0  0  0
  161.3890  209.0180  155.9360 C   0  0  0  0  0  0  0  0  0  0  0  0
  162.2360  209.0040  156.9130 N   0  0  0  0  0  2  0  0  0  0  0  0
  160.1070  207.0760  156.9180 C   0  0  0  0  0  1  0  0  0  0  0  0
  160.2980  208.0960  155.9010 N   0  0  0  0  0  2  0  0  0  0  0  0
  2  1  1  0  0  0  0
  3  4  1  6  0  0  0
  3  2  1  0  0  0  0
  5  6  1  6  0  0  0
  5  3  1  0  0  0  0
  7  5  1  0  0  0  0
  8  7  1  0  0  0  0
  8 13  1  0  0  0  0
  9  8  1  0  0  0  0
 10 11  1  0  0  0  0
 10  9  1  0  0  0  0
 11 12  1  6  0  0  0
 11  9  1  0  0  0  0
 13 14  1  0  0  0  0
 14 16  1  0  0  0  0
 16 15  1  0  0  0  0
 17  1  1  6  0  0  0
 17 28  1  0  0  0  0
 18 17  1  1  0  0  0
 18 21  1  0  0  0  0
 19 18  1  0  0  0  0
 20 25  1  0  0  0  0
 20 26  1  1  0  0  0
 22 23  1  0  0  0  0
 22 20  1  0  0  0  0
 23 24  1  6  0  0  0
 23 27  1  0  0  0  0
 24 19  1  0  0  0  0
 27 21  1  1  0  0  0
 27 25  1  0  0  0  0
 28 29  1  0  0  0  0
 29 30  2  0  0  0  0
 32 29  1  0  0  0  0
 32 31  1  0  0  0  0
M  END
>  <MODEL>
5

>  <REMARK>
 VINA RESULT:      -6.3      3.748      9.189
  Name = 
  13 active torsions:
  status: ('A' for Active; 'I' for Inactive)
    1  A    between atoms: O_1  and  C_4
    2  A    between atoms: O_1  and  C_5
    3  A    between atoms: C_2  and  C_14
    4  A    between atoms: N_3  and  N_20
    5  A    between atoms: C_4  and  C_24
    6  A    between atoms: C_5  and  C_14
    7  A    between atoms: C_13  and  C_30
    8  A    between atoms: C_14  and  C_30
    9  A    between atoms: C_15  and  N_20
   10  A    between atoms: C_15  and  C_26
   11  A    between atoms: C_16  and  N_20
   12  A    between atoms: C_16  and  C_24
   13  A    between atoms: C_19  and  C_26
                            x       y       z     vdW  Elec       q    Type
                         _______ _______ _______ _____ _____    ______ ____

>  <TORSDO>
F 13

$$$$
=
 OpenBabel11062408353D

 32 34  0  0  1  0  0  0  0  0999 V2000
  161.2260  209.7630  152.0820 C   0  0  0  0  0  2  0  0  0  0  0  0
  162.1160  208.6860  151.9560 O   0  0  0  0  0  0  0  0  0  0  0  0
  161.4450  207.6050  151.3450 C   0  0  2  0  0  3  0  0  0  0  0  0
  161.2550  206.3820  152.2420 C   0  0  0  0  0  1  0  0  0  0  0  0
  161.8740  207.3240  149.8940 C   0  0  2  0  0  3  0  0  0  0  0  0
  162.0180  208.5190  149.1870 O   0  0  0  0  0  1  0  0  0  0  0  0
  160.9780  206.3390  149.1330 C   0  0  0  0  0  2  0  0  0  0  0  0
  161.7300  205.1850  148.6510 N   0  0  0  0  0  0  0  0  0  0  0  0
  161.4270  205.0390  147.2870 N   0  0  0  0  0  0  0  0  0  0  0  0
  161.8260  206.2060  146.6540 O   0  0  0  0  0  0  0  0  0  0  0  0
  162.6690  205.1480  146.5580 C   0  0  2  0  0  3  0  0  0  0  0  0
  162.5250  204.5570  145.3040 O   0  0  0  0  0  1  0  0  0  0  0  0
  161.1780  204.0200  149.3290 C   0  0  0  0  0  2  0  0  0  0  0  0
  160.9540  202.9030  148.3250 C   0  0  0  0  0  2  0  0  0  0  0  0
  160.9790  201.3060  150.2380 C   0  0  0  0  0  1  0  0  0  0  0  0
  160.2410  201.7360  148.9830 C   0  0  0  0  0  2  0  0  0  0  0  0
  160.7350  209.8740  153.5180 C   0  0  2  0  0  3  0  0  0  0  0  0
  159.9800  211.1880  153.7380 C   0  0  2  0  0  3  0  0  0  0  0  0
  159.0820  211.1590  154.9930 C   0  0  0  0  0  2  0  0  0  0  0  0
  156.8840  214.4480  152.1020 C   0  0  1  0  0  3  0  0  0  0  0  0
  159.1960  211.5830  152.4780 C   0  0  0  0  0  2  0  0  0  0  0  0
  156.5770  214.2550  153.9010 S   0  0  0  0  0  0  0  0  0  0  0  0
  157.5240  212.7270  153.8720 C   0  0  2  0  0  3  0  0  0  0  0  0
  158.3020  212.4680  155.1530 C   0  0  0  0  0  2  0  0  0  0  0  0
  157.7290  213.3640  151.6000 N   0  0  0  0  0  2  0  0  0  0  0  0
  155.5670  214.4530  151.3550 C   0  0  0  0  0  1  0  0  0  0  0  0
  158.4920  212.9030  152.7420 C   0  0  2  0  0  3  0  0  0  0  0  0
  161.8950  209.7100  154.4980 C   0  0  0  0  0  2  0  0  0  0  0  0
  161.4790  208.9220  155.6930 C   0  0  0  0  0  0  0  0  0  0  0  0
  161.8800  209.2840  156.8680 N   0  0  0  0  0  2  0  0  0  0  0  0
  160.0830  207.0520  156.6610 C   0  0  0  0  0  1  0  0  0  0  0  0
  160.5670  207.8330  155.5350 N   0  0  0  0  0  2  0  0  0  0  0  0
  2  1  1  0  0  0  0
  3  2  1  0  0  0  0
  3  4  1  1  0  0  0
  5  6  1  6  0  0  0
  5  3  1  0  0  0  0
  7  5  1  0  0  0  0
  8  7  1  0  0  0  0
  8 13  1  0  0  0  0
  9  8  1  0  0  0  0
 10  9  1  0  0  0  0
 11 12  1  6  0  0  0
 11 10  1  0  0  0  0
 11  9  1  0  0  0  0
 14 16  1  0  0  0  0
 14 13  1  0  0  0  0
 16 15  1  0  0  0  0
 17  1  1  6  0  0  0
 17 28  1  0  0  0  0
 18 17  1  6  0  0  0
 18 19  1  0  0  0  0
 19 24  1  0  0  0  0
 20 26  1  6  0  0  0
 20 22  1  0  0  0  0
 21 18  1  0  0  0  0
 23 22  1  0  0  0  0
 23 24  1  1  0  0  0
 25 20  1  0  0  0  0
 25 27  1  0  0  0  0
 27 21  1  6  0  0  0
 27 23  1  0  0  0  0
 28 29  1  0  0  0  0
 29 30  2  0  0  0  0
 32 29  1  0  0  0  0
 32 31  1  0  0  0  0
M  END
>  <MODEL>
6

>  <REMARK>
 VINA RESULT:      -6.2      3.851      9.404
  Name = 
  13 active torsions:
  status: ('A' for Active; 'I' for Inactive)
    1  A    between atoms: O_1  and  C_4
    2  A    between atoms: O_1  and  C_5
    3  A    between atoms: C_2  and  C_14
    4  A    between atoms: N_3  and  N_20
    5  A    between atoms: C_4  and  C_24
    6  A    between atoms: C_5  and  C_14
    7  A    between atoms: C_13  and  C_30
    8  A    between atoms: C_14  and  C_30
    9  A    between atoms: C_15  and  N_20
   10  A    between atoms: C_15  and  C_26
   11  A    between atoms: C_16  and  N_20
   12  A    between atoms: C_16  and  C_24
   13  A    between atoms: C_19  and  C_26
                            x       y       z     vdW  Elec       q    Type
                         _______ _______ _______ _____ _____    ______ ____

>  <TORSDO>
F 13

$$$$
=
 OpenBabel11062408353D

 32 34  0  0  1  0  0  0  0  0999 V2000
  162.0300  208.0550  150.8640 C   0  0  0  0  0  2  0  0  0  0  0  0
  162.7720  207.3080  149.9360 O   0  0  0  0  0  0  0  0  0  0  0  0
  162.2860  207.5750  148.6380 C   0  0  2  0  0  3  0  0  0  0  0  0
  161.8540  209.0240  148.4040 C   0  0  0  0  0  1  0  0  0  0  0  0
  161.3590  206.4890  148.0660 C   0  0  2  0  0  3  0  0  0  0  0  0
  160.0900  206.5790  148.6410 O   0  0  0  0  0  1  0  0  0  0  0  0
  161.9030  205.0590  148.1560 C   0  0  0  0  0  2  0  0  0  0  0  0
  162.0150  204.4380  146.8410 N   0  0  0  0  0  0  0  0  0  0  0  0
  161.5790  205.3870  145.9010 N   0  0  0  0  0  0  0  0  0  0  0  0
  162.7080  205.8680  145.2540 O   0  0  0  0  0  0  0  0  0  0  0  0
  161.9920  204.9210  144.5970 C   0  0  2  0  0  3  0  0  0  0  0  0
  161.2120  205.5320  143.6170 O   0  0  0  0  0  1  0  0  0  0  0  0
  161.0480  203.3500  146.8140 C   0  0  0  0  0  2  0  0  0  0  0  0
  160.8850  202.7760  148.2100 C   0  0  0  0  0  2  0  0  0  0  0  0
  161.5860  200.3860  148.2900 C   0  0  0  0  0  1  0  0  0  0  0  0
  160.4110  201.3360  148.1390 C   0  0  0  0  0  2  0  0  0  0  0  0
  161.4910  207.1440  151.9590 C   0  0  2  0  0  3  0  0  0  0  0  0
  161.4640  207.8700  153.3070 C   0  0  2  0  0  3  0  0  0  0  0  0
  160.6360  207.1190  154.3720 C   0  0  0  0  0  2  0  0  0  0  0  0
  160.3750  211.7940  155.8180 C   0  0  1  0  0  3  0  0  0  0  0  0
  160.9980  209.3230  153.1340 C   0  0  0  0  0  2  0  0  0  0  0  0
  159.9720  210.3430  156.8680 S   0  0  0  0  0  0  0  0  0  0  0  0
  160.0600  209.2960  155.4090 C   0  0  2  0  0  3  0  0  0  0  0  0
  160.5850  207.8970  155.6920 C   0  0  0  0  0  2  0  0  0  0  0  0
  160.5990  211.3860  154.4320 N   0  0  0  0  0  2  0  0  0  0  0  0
  159.2430  212.7970  155.8760 C   0  0  0  0  0  1  0  0  0  0  0  0
  161.0170  210.0000  154.4950 C   0  0  2  0  0  3  0  0  0  0  0  0
  162.2930  205.8470  152.0240 C   0  0  0  0  0  2  0  0  0  0  0  0
  161.4210  204.6650  151.7680 C   0  0  0  0  0  0  0  0  0  0  0  0
  160.2080  204.8430  151.3560 N   0  0  0  0  0  2  0  0  0  0  0  0
  161.1880  202.1550  151.6110 C   0  0  0  0  0  1  0  0  0  0  0  0
  161.9660  203.3500  151.8900 N   0  0  0  0  0  2  0  0  0  0  0  0
  2  1  1  0  0  0  0
  3  4  1  1  0  0  0
  3  2  1  0  0  0  0
  5  7  1  0  0  0  0
  5  3  1  0  0  0  0
  5  6  1  1  0  0  0
  8  7  1  0  0  0  0
  9  8  1  0  0  0  0
 10  9  1  0  0  0  0
 11 12  1  6  0  0  0
 11 10  1  0  0  0  0
 11  9  1  0  0  0  0
 13  8  1  0  0  0  0
 13 14  1  0  0  0  0
 16 14  1  0  0  0  0
 16 15  1  0  0  0  0
 17  1  1  6  0  0  0
 17 28  1  0  0  0  0
 18 17  1  6  0  0  0
 18 19  1  0  0  0  0
 19 24  1  0  0  0  0
 20 26  1  6  0  0  0
 20 22  1  0  0  0  0
 21 18  1  0  0  0  0
 23 24  1  1  0  0  0
 23 22  1  0  0  0  0
 25 27  1  0  0  0  0
 25 20  1  0  0  0  0
 27 21  1  6  0  0  0
 27 23  1  0  0  0  0
 29 32  1  0  0  0  0
 29 28  1  0  0  0  0
 30 29  2  0  0  0  0
 31 32  1  0  0  0  0
M  END
>  <MODEL>
7

>  <REMARK>
 VINA RESULT:      -6.2      3.955      9.237
  Name = 
  13 active torsions:
  status: ('A' for Active; 'I' for Inactive)
    1  A    between atoms: O_1  and  C_4
    2  A    between atoms: O_1  and  C_5
    3  A    between atoms: C_2  and  C_14
    4  A    between atoms: N_3  and  N_20
    5  A    between atoms: C_4  and  C_24
    6  A    between atoms: C_5  and  C_14
    7  A    between atoms: C_13  and  C_30
    8  A    between atoms: C_14  and  C_30
    9  A    between atoms: C_15  and  N_20
   10  A    between atoms: C_15  and  C_26
   11  A    between atoms: C_16  and  N_20
   12  A    between atoms: C_16  and  C_24
   13  A    between atoms: C_19  and  C_26
                            x       y       z     vdW  Elec       q    Type
                         _______ _______ _______ _____ _____    ______ ____

>  <TORSDO>
F 13

$$$$
=
 OpenBabel11062408353D

 32 34  0  0  1  0  0  0  0  0999 V2000
  161.5290  209.2220  152.2990 C   0  0  0  0  0  2  0  0  0  0  0  0
  160.6150  208.3760  151.6530 O   0  0  0  0  0  0  0  0  0  0  0  0
  161.1890  207.0920  151.5260 C   0  0  2  0  0  3  0  0  0  0  0  0
  161.9840  206.6260  152.7460 C   0  0  0  0  0  1  0  0  0  0  0  0
  161.8220  206.8080  150.1530 C   0  0  2  0  0  3  0  0  0  0  0  0
  162.4300  207.9590  149.6480 O   0  0  0  0  0  1  0  0  0  0  0  0
  160.8750  206.1870  149.1190 C   0  0  0  0  0  2  0  0  0  0  0  0
  161.5270  205.1290  148.3550 N   0  0  0  0  0  0  0  0  0  0  0  0
  161.0180  205.1930  147.0470 N   0  0  0  0  0  0  0  0  0  0  0  0
  160.8690  206.5360  146.7340 O   0  0  0  0  0  0  0  0  0  0  0  0
  161.9770  205.9220  146.2490 C   0  0  2  0  0  3  0  0  0  0  0  0
  161.7840  205.6210  144.9020 O   0  0  0  0  0  1  0  0  0  0  0  0
  161.0670  203.8680  148.9210 C   0  0  0  0  0  2  0  0  0  0  0  0
  161.1080  202.7850  147.8570 C   0  0  0  0  0  2  0  0  0  0  0  0
  160.6730  201.5350  149.9680 C   0  0  0  0  0  1  0  0  0  0  0  0
  161.0240  201.4110  148.4970 C   0  0  0  0  0  2  0  0  0  0  0  0
  160.8800  209.8630  153.5180 C   0  0  2  0  0  3  0  0  0  0  0  0
  160.2690  211.2210  153.1610 C   0  0  2  0  0  3  0  0  0  0  0  0
  158.7870  211.3360  153.5760 C   0  0  0  0  0  2  0  0  0  0  0  0
  159.1580  214.4500  149.8100 C   0  0  1  0  0  3  0  0  0  0  0  0
  160.4770  211.5360  151.6720 C   0  0  0  0  0  2  0  0  0  0  0  0
  157.7820  214.4260  151.0260 S   0  0  0  0  0  0  0  0  0  0  0  0
  158.4060  212.8640  151.6610 C   0  0  2  0  0  3  0  0  0  0  0  0
  158.1920  212.6850  153.1560 C   0  0  0  0  0  2  0  0  0  0  0  0
  160.0340  213.2930  149.9950 N   0  0  0  0  0  2  0  0  0  0  0  0
  158.5980  214.4440  148.4040 C   0  0  0  0  0  1  0  0  0  0  0  0
  159.8780  212.9020  151.3810 C   0  0  2  0  0  3  0  0  0  0  0  0
  161.8800  209.9700  154.6670 C   0  0  0  0  0  2  0  0  0  0  0  0
  161.5710  208.9810  155.7400 C   0  0  0  0  0  0  0  0  0  0  0  0
  162.3330  208.9120  156.7830 N   0  0  0  0  0  2  0  0  0  0  0  0
  159.9980  207.2430  156.6780 C   0  0  0  0  0  1  0  0  0  0  0  0
  160.3850  208.1900  155.6470 N   0  0  0  0  0  2  0  0  0  0  0  0
  2  1  1  0  0  0  0
  3  2  1  0  0  0  0
  3  4  1  1  0  0  0
  5  6  1  6  0  0  0
  5  3  1  0  0  0  0
  7  5  1  0  0  0  0
  8 13  1  0  0  0  0
  8  7  1  0  0  0  0
  9  8  1  0  0  0  0
 10  9  1  0  0  0  0
 11 12  1  6  0  0  0
 11 10  1  0  0  0  0
 11  9  1  0  0  0  0
 14 16  1  0  0  0  0
 14 13  1  0  0  0  0
 16 15  1  0  0  0  0
 17  1  1  6  0  0  0
 17 28  1  0  0  0  0
 18 17  1  6  0  0  0
 18 19  1  0  0  0  0
 20 26  1  6  0  0  0
 20 25  1  0  0  0  0
 20 22  1  0  0  0  0
 21 18  1  0  0  0  0
 22 23  1  0  0  0  0
 23 24  1  1  0  0  0
 24 19  1  0  0  0  0
 25 27  1  0  0  0  0
 27 23  1  0  0  0  0
 27 21  1  6  0  0  0
 28 29  1  0  0  0  0
 29 30  2  0  0  0  0
 32 29  1  0  0  0  0
 32 31  1  0  0  0  0
M  END
>  <MODEL>
8

>  <REMARK>
 VINA RESULT:      -6.1      3.784      9.122
  Name = 
  13 active torsions:
  status: ('A' for Active; 'I' for Inactive)
    1  A    between atoms: O_1  and  C_4
    2  A    between atoms: O_1  and  C_5
    3  A    between atoms: C_2  and  C_14
    4  A    between atoms: N_3  and  N_20
    5  A    between atoms: C_4  and  C_24
    6  A    between atoms: C_5  and  C_14
    7  A    between atoms: C_13  and  C_30
    8  A    between atoms: C_14  and  C_30
    9  A    between atoms: C_15  and  N_20
   10  A    between atoms: C_15  and  C_26
   11  A    between atoms: C_16  and  N_20
   12  A    between atoms: C_16  and  C_24
   13  A    between atoms: C_19  and  C_26
                            x       y       z     vdW  Elec       q    Type
                         _______ _______ _______ _____ _____    ______ ____

>  <TORSDO>
F 13

$$$$
=
 OpenBabel11062408353D

 32 34  0  0  1  0  0  0  0  0999 V2000
  161.6550  208.8750  151.8590 C   0  0  0  0  0  2  0  0  0  0  0  0
  160.6740  207.9820  151.4020 O   0  0  0  0  0  0  0  0  0  0  0  0
  161.2980  206.7790  151.0050 C   0  0  2  0  0  3  0  0  0  0  0  0
  162.4450  206.3280  151.9090 C   0  0  0  0  0  1  0  0  0  0  0  0
  161.5350  206.6510  149.4910 C   0  0  2  0  0  3  0  0  0  0  0  0
  161.2090  207.8440  148.8430 O   0  0  0  0  0  1  0  0  0  0  0  0
  160.8420  205.4560  148.8250 C   0  0  0  0  0  2  0  0  0  0  0  0
  161.6970  204.8210  147.8280 N   0  0  0  0  0  0  0  0  0  0  0  0
  161.1680  205.1460  146.5670 N   0  0  0  0  0  0  0  0  0  0  0  0
  161.9430  206.1740  146.0530 O   0  0  0  0  0  0  0  0  0  0  0  0
  162.2130  204.9260  145.5940 C   0  0  2  0  0  3  0  0  0  0  0  0
  161.6440  204.7670  144.3310 O   0  0  0  0  0  1  0  0  0  0  0  0
  161.5290  203.3840  147.9940 C   0  0  0  0  0  2  0  0  0  0  0  0
  160.8300  203.1010  149.3120 C   0  0  0  0  0  2  0  0  0  0  0  0
  161.2020  200.8390  148.3340 C   0  0  0  0  0  1  0  0  0  0  0  0
  160.7810  201.6060  149.5740 C   0  0  0  0  0  2  0  0  0  0  0  0
  161.0000  210.0840  152.5120 C   0  0  2  0  0  3  0  0  0  0  0  0
  161.1660  211.3320  151.6390 C   0  0  2  0  0  3  0  0  0  0  0  0
  159.9210  212.2450  151.6590 C   0  0  0  0  0  2  0  0  0  0  0  0
  161.9740  213.2220  147.3190 C   0  0  1  0  0  3  0  0  0  0  0  0
  161.5730  210.9460  150.2100 C   0  0  0  0  0  2  0  0  0  0  0  0
  160.7140  214.2690  148.1480 S   0  0  0  0  0  0  0  0  0  0  0  0
  160.4440  212.9530  149.3420 C   0  0  2  0  0  3  0  0  0  0  0  0
  160.0990  213.4540  150.7360 C   0  0  0  0  0  2  0  0  0  0  0  0
  162.1460  211.9560  148.0300 N   0  0  0  0  0  2  0  0  0  0  0  0
  161.5530  212.9490  145.8910 C   0  0  0  0  0  1  0  0  0  0  0  0
  161.7500  212.2190  149.3990 C   0  0  2  0  0  3  0  0  0  0  0  0
  161.5450  210.2970  153.9220 C   0  0  0  0  0  2  0  0  0  0  0  0
  160.7370  209.5470  154.9270 C   0  0  0  0  0  0  0  0  0  0  0  0
  159.8620  210.1770  155.6410 N   0  0  0  0  0  2  0  0  0  0  0  0
  160.0830  207.3290  155.9420 C   0  0  0  0  0  1  0  0  0  0  0  0
  160.8720  208.1280  155.0200 N   0  0  0  0  0  2  0  0  0  0  0  0
  2  1  1  0  0  0  0
  3  2  1  0  0  0  0
  3  4  1  1  0  0  0
  5  6  1  6  0  0  0
  5  3  1  0  0  0  0
  7  5  1  0  0  0  0
  8 13  1  0  0  0  0
  8  7  1  0  0  0  0
  9  8  1  0  0  0  0
 10  9  1  0  0  0  0
 11 12  1  6  0  0  0
 11 10  1  0  0  0  0
 11  9  1  0  0  0  0
 13 14  1  0  0  0  0
 14 16  1  0  0  0  0
 15 16  1  0  0  0  0
 17  1  1  6  0  0  0
 17 28  1  0  0  0  0
 18 19  1  0  0  0  0
 18 17  1  1  0  0  0
 20 26  1  6  0  0  0
 20 25  1  0  0  0  0
 20 22  1  0  0  0  0
 21 18  1  0  0  0  0
 22 23  1  0  0  0  0
 23 27  1  0  0  0  0
 23 24  1  1  0  0  0
 24 19  1  0  0  0  0
 25 27  1  0  0  0  0
 27 21  1  1  0  0  0
 28 29  1  0  0  0  0
 29 32  1  0  0  0  0
 29 30  2  0  0  0  0
 32 31  1  0  0  0  0
M  END
>  <MODEL>
9

>  <REMARK>
 VINA RESULT:      -5.9      3.865      9.104
  Name = 
  13 active torsions:
  status: ('A' for Active; 'I' for Inactive)
    1  A    between atoms: O_1  and  C_4
    2  A    between atoms: O_1  and  C_5
    3  A    between atoms: C_2  and  C_14
    4  A    between atoms: N_3  and  N_20
    5  A    between atoms: C_4  and  C_24
    6  A    between atoms: C_5  and  C_14
    7  A    between atoms: C_13  and  C_30
    8  A    between atoms: C_14  and  C_30
    9  A    between atoms: C_15  and  N_20
   10  A    between atoms: C_15  and  C_26
   11  A    between atoms: C_16  and  N_20
   12  A    between atoms: C_16  and  C_24
   13  A    between atoms: C_19  and  C_26
                            x       y       z     vdW  Elec       q    Type
                         _______ _______ _______ _____ _____    ______ ____

>  <TORSDO>
F 13

$$$$
