=
 OpenBabel11062410573D

 32 37  0  0  1  0  0  0  0  0999 V2000
  160.6910  212.6580  144.2870 C   0  0  2  0  0  3  0  0  0  0  0  0
  160.0040  211.2650  140.1430 C   0  0  1  0  0  3  0  0  0  0  0  0
  162.9810  211.3640  137.5600 C   0  0  0  0  0  2  0  0  0  0  0  0
  157.6030  211.9920  139.6440 C   0  0  1  0  0  3  0  0  0  0  0  0
  156.7430  212.7580  138.6830 C   0  0  0  0  0  0  0  0  0  0  0  0
  160.0420  213.5170  141.3670 C   0  0  0  0  0  2  0  0  0  0  0  0
  162.6470  211.4590  140.8700 S   0  0  0  0  0  0  0  0  0  0  0  0
  155.0790  213.7150  137.7600 C   0  0  0  0  0  0  0  0  0  0  0  0
  161.8350  212.3910  143.3190 C   0  0  0  0  0  2  0  0  0  0  0  0
  161.6700  210.7410  137.1040 C   0  0  0  0  0  2  0  0  0  0  0  0
  161.4160  210.9900  139.6090 C   0  0  2  0  0  3  0  0  0  0  0  0
  161.6900  211.6930  138.2780 C   0  0  0  0  0  0  0  0  0  0  0  0
  159.5620  213.1090  138.4100 C   0  0  1  0  0  3  0  0  0  0  0  0
  153.6800  214.1330  137.4800 C   0  0  0  0  0  1  0  0  0  0  0  0
  159.8500  213.8430  143.8760 C   0  0  0  0  0  3  0  0  0  0  0  0
  161.3650  211.5220  142.1520 C   0  0  1  0  0  3  0  0  0  0  0  0
  155.4100  212.8990  138.7830 N   0  0  0  0  0  2  0  0  0  0  0  0
  159.5330  214.1870  142.6150 C   0  0  0  0  0  3  0  0  0  0  0  0
  161.0290  213.0350  137.9570 C   0  0  1  0  0  3  0  0  0  0  0  0
  158.6740  213.5310  137.2350 C   0  0  0  0  0  2  0  0  0  0  0  0
  160.0690  211.9910  141.4930 C   0  0  2  0  0  3  0  0  0  0  0  0
  157.0380  210.7400  139.8890 O   0  0  0  0  0  1  0  0  0  0  0  0
  156.1760  214.1160  137.0110 C   0  0  0  0  0  3  0  0  0  0  0  0
  159.0280  211.8180  139.0850 C   0  0  1  0  0  3  0  0  0  0  0  0
  157.2370  213.5040  137.6420 C   0  0  0  0  0  0  0  0  0  0  0  0
  162.6910  214.4520  137.5910 C   0  0  0  0  0  1  0  0  0  0  0  0
  161.7510  214.0730  138.5510 O   0  0  0  0  0  0  0  0  0  0  0  0
  161.2230  212.8810  145.6200 N   0  0  0  0  0  2  0  0  0  0  0  0
  160.4450  212.0600  146.5330 C   0  0  0  0  0  2  0  0  0  0  0  0
  161.0760  212.0670  147.8840 C   0  0  0  0  0  0  0  0  0  0  0  0
  161.9660  211.2750  148.1500 O   0  0  0  0  0  0  0  0  0  0  0  0
  160.6320  213.0560  148.9040 C   0  0  0  0  0  1  0  0  0  0  0  0
  1 28  1  1  0  0  0
  2 21  1  0  0  0  0
  3 12  1  0  0  0  0
  4 22  1  0  0  0  0
  5 17  1  0  0  0  0
  5  4  1  0  0  0  0
  6 21  1  0  0  0  0
  6 18  1  0  0  0  0
  7 16  1  0  0  0  0
  8 17  1  0  0  0  0
  9  1  1  0  0  0  0
 10  3  1  0  0  0  0
 10 12  1  0  0  0  0
 11  2  1  0  0  0  0
 11  7  1  0  0  0  0
 12 11  1  0  0  0  0
 13 24  1  0  0  0  0
 14  8  1  0  0  0  0
 15  1  1  0  0  0  0
 16  9  1  0  0  0  0
 18 15  2  0  0  0  0
 19 12  1  0  0  0  0
 19 13  1  0  0  0  0
 19 27  1  0  0  0  0
 20 25  1  0  0  0  0
 20 13  1  0  0  0  0
 21 16  1  0  0  0  0
 23 25  1  0  0  0  0
 23  8  2  0  0  0  0
 24  4  1  0  0  0  0
 24  2  1  0  0  0  0
 25  5  2  0  0  0  0
 26 27  1  0  0  0  0
 28 29  1  0  0  0  0
 29 30  1  0  0  0  0
 30 31  2  0  0  0  0
 30 32  1  0  0  0  0
M  END
>  <MODEL>
1

>  <REMARK>
 VINA RESULT:      -3.5      0.000      0.000
  Name = 
  4 active torsions:
  status: ('A' for Active; 'I' for Inactive)
    1  A    between atoms: C_1  and  C_10
    2  A    between atoms: C_2  and  N_24
    3  A    between atoms: C_10  and  N_24
    4  A    between atoms: O_25  and  C_26
                            x       y       z     vdW  Elec       q    Type
                         _______ _______ _______ _____ _____    ______ ____

>  <TORSDO>
F 4

$$$$
=
 OpenBabel11062410573D

 32 37  0  0  1  0  0  0  0  0999 V2000
  161.6620  205.1420  151.8230 C   0  0  2  0  0  3  0  0  0  0  0  0
  162.0660  209.3540  153.1160 C   0  0  1  0  0  3  0  0  0  0  0  0
  160.1010  210.5870  156.3030 C   0  0  0  0  0  2  0  0  0  0  0  0
  162.2620  210.6520  150.9200 C   0  0  1  0  0  3  0  0  0  0  0  0
  161.6830  211.7830  150.1240 C   0  0  0  0  0  0  0  0  0  0  0  0
  160.3990  207.9850  151.7320 C   0  0  0  0  0  2  0  0  0  0  0  0
  161.0250  207.6620  155.0130 S   0  0  0  0  0  0  0  0  0  0  0  0
  161.2690  213.1660  148.5580 C   0  0  0  0  0  0  0  0  0  0  0  0
  161.1800  205.6240  153.1840 C   0  0  0  0  0  2  0  0  0  0  0  0
  161.0550  211.5690  155.6370 C   0  0  0  0  0  2  0  0  0  0  0  0
  161.5990  209.3370  154.5770 C   0  0  2  0  0  3  0  0  0  0  0  0
  160.5210  210.3840  154.8640 C   0  0  0  0  0  0  0  0  0  0  0  0
  160.1700  210.9270  152.3880 C   0  0  1  0  0  3  0  0  0  0  0  0
  161.3910  213.9130  147.2780 C   0  0  0  0  0  1  0  0  0  0  0  0
  160.8530  205.7180  150.6860 C   0  0  0  0  0  3  0  0  0  0  0  0
  161.8240  206.9640  153.5420 C   0  0  1  0  0  3  0  0  0  0  0  0
  162.1220  212.1840  148.9190 N   0  0  0  0  0  0  0  0  0  0  0  0
  160.3460  206.9620  150.6280 C   0  0  0  0  0  3  0  0  0  0  0  0
  159.5250  210.7940  153.7760 C   0  0  1  0  0  3  0  0  0  0  0  0
  159.8470  212.3020  151.7930 C   0  0  0  0  0  2  0  0  0  0  0  0
  161.7600  208.0150  152.4350 C   0  0  2  0  0  3  0  0  0  0  0  0
  163.6520  210.7690  150.9660 O   0  0  0  0  0  1  0  0  0  0  0  0
  160.2790  213.3970  149.5020 C   0  0  0  0  0  3  0  0  0  0  0  0
  161.6940  210.6410  152.3520 C   0  0  1  0  0  3  0  0  0  0  0  0
  160.5560  212.4770  150.4890 C   0  0  1  0  0  3  0  0  0  0  0  0
  157.3580  210.5620  154.1670 C   0  0  0  0  0  1  0  0  0  0  0  0
  158.4820  209.8670  153.7170 O   0  0  0  0  0  0  0  0  0  0  0  0
  161.6040  203.6910  151.7730 N   0  0  0  0  0  2  0  0  0  0  0  0
  160.4800  203.3380  150.9210 C   0  0  0  0  0  2  0  0  0  0  0  0
  160.8700  202.2340  149.9970 C   0  0  0  0  0  0  0  0  0  0  0  0
  161.1950  201.1460  150.4440 O   0  0  0  0  0  0  0  0  0  0  0  0
  160.8420  202.4560  148.5250 C   0  0  0  0  0  1  0  0  0  0  0  0
  1 28  1  1  0  0  0
  1  9  1  0  0  0  0
  2 11  1  0  0  0  0
  4 22  1  0  0  0  0
  4 24  1  0  0  0  0
  5 25  1  0  0  0  0
  5  4  1  0  0  0  0
  6 21  1  0  0  0  0
  8 17  1  0  0  0  0
  8 23  2  0  0  0  0
  9 16  1  0  0  0  0
 10  3  1  0  0  0  0
 11 12  1  0  0  0  0
 11  7  1  0  0  0  0
 12 10  1  0  0  0  0
 12  3  1  0  0  0  0
 13 19  1  0  0  0  0
 14  8  1  0  0  0  0
 15  1  1  0  0  0  0
 16  7  1  0  0  0  0
 17  5  2  0  0  0  0
 18 15  2  0  0  0  0
 18  6  1  0  0  0  0
 19 12  1  0  0  0  0
 20 13  1  0  0  0  0
 21  2  1  0  0  0  0
 21 16  1  0  0  0  0
 23 25  1  0  0  0  0
 24 13  1  0  0  0  0
 24  2  1  0  0  0  0
 25 20  1  0  0  0  0
 27 19  1  0  0  0  0
 27 26  1  0  0  0  0
 29 28  1  0  0  0  0
 30 31  2  0  0  0  0
 30 29  1  0  0  0  0
 32 30  1  0  0  0  0
M  END
>  <MODEL>
2

>  <REMARK>
 VINA RESULT:      -2.8      8.823     13.434
  Name = 
  4 active torsions:
  status: ('A' for Active; 'I' for Inactive)
    1  A    between atoms: C_1  and  C_10
    2  A    between atoms: C_2  and  N_24
    3  A    between atoms: C_10  and  N_24
    4  A    between atoms: O_25  and  C_26
                            x       y       z     vdW  Elec       q    Type
                         _______ _______ _______ _____ _____    ______ ____

>  <TORSDO>
F 4

$$$$
=
 OpenBabel11062410573D

 32 37  0  0  1  0  0  0  0  0999 V2000
  161.9790  207.3580  152.9350 C   0  0  2  0  0  3  0  0  0  0  0  0
  160.8870  211.5710  153.7390 C   0  0  1  0  0  3  0  0  0  0  0  0
  159.2590  212.5100  157.2040 C   0  0  0  0  0  2  0  0  0  0  0  0
  160.1040  212.4430  151.4650 C   0  0  1  0  0  3  0  0  0  0  0  0
  158.9720  213.1180  150.7490 C   0  0  0  0  0  0  0  0  0  0  0  0
  159.6820  209.4570  152.9300 C   0  0  0  0  0  2  0  0  0  0  0  0
  161.0160  209.9690  155.9670 S   0  0  0  0  0  0  0  0  0  0  0  0
  157.7340  213.9500  149.2280 C   0  0  0  0  0  0  0  0  0  0  0  0
  161.6220  207.8530  154.3290 C   0  0  0  0  0  2  0  0  0  0  0  0
  159.5810  213.6450  156.2440 C   0  0  0  0  0  2  0  0  0  0  0  0
  160.7630  211.6330  155.2670 C   0  0  2  0  0  3  0  0  0  0  0  0
  159.4330  212.2320  155.7270 C   0  0  0  0  0  0  0  0  0  0  0  0
  158.4130  212.1640  153.3810 C   0  0  1  0  0  3  0  0  0  0  0  0
  157.2880  214.4530  147.9030 C   0  0  0  0  0  1  0  0  0  0  0  0
  160.8010  207.3820  151.9920 C   0  0  0  0  0  3  0  0  0  0  0  0
  161.7230  209.3770  154.4050 C   0  0  1  0  0  3  0  0  0  0  0  0
  158.9640  213.4380  149.4440 N   0  0  0  0  0  0  0  0  0  0  0  0
  159.8320  208.3150  151.9620 C   0  0  0  0  0  3  0  0  0  0  0  0
  158.1640  212.0420  154.8920 C   0  0  1  0  0  3  0  0  0  0  0  0
  157.4500  213.1910  152.7760 C   0  0  0  0  0  2  0  0  0  0  0  0
  161.0220  210.1180  153.2670 C   0  0  2  0  0  3  0  0  0  0  0  0
  161.3060  213.0800  151.1530 O   0  0  0  0  0  1  0  0  0  0  0  0
  156.9420  213.9530  150.3680 C   0  0  0  0  0  3  0  0  0  0  0  0
  159.8830  212.4700  152.9890 C   0  0  1  0  0  3  0  0  0  0  0  0
  157.7560  213.3900  151.3260 C   0  0  1  0  0  3  0  0  0  0  0  0
  156.2490  211.0620  155.4140 C   0  0  0  0  0  1  0  0  0  0  0  0
  157.5970  210.7960  155.1700 O   0  0  0  0  0  0  0  0  0  0  0  0
  162.5060  206.0070  153.0190 N   0  0  0  0  0  2  0  0  0  0  0  0
  162.4530  205.4450  151.6790 C   0  0  0  0  0  2  0  0  0  0  0  0
  161.4140  204.3770  151.6180 C   0  0  0  0  0  0  0  0  0  0  0  0
  161.1040  203.7630  152.6260 O   0  0  0  0  0  0  0  0  0  0  0  0
  160.7380  204.0750  150.3260 C   0  0  0  0  0  1  0  0  0  0  0  0
  1 28  1  1  0  0  0
  1  9  1  0  0  0  0
  2 11  1  0  0  0  0
  4 24  1  0  0  0  0
  5 25  1  0  0  0  0
  5  4  1  0  0  0  0
  6 21  1  0  0  0  0
  8 17  1  0  0  0  0
  8 23  2  0  0  0  0
  9 16  1  0  0  0  0
 10  3  1  0  0  0  0
 11 12  1  0  0  0  0
 11  7  1  0  0  0  0
 12 10  1  0  0  0  0
 12  3  1  0  0  0  0
 13 19  1  0  0  0  0
 14  8  1  0  0  0  0
 15  1  1  0  0  0  0
 16  7  1  0  0  0  0
 17  5  2  0  0  0  0
 18 15  2  0  0  0  0
 18  6  1  0  0  0  0
 19 27  1  0  0  0  0
 19 12  1  0  0  0  0
 20 13  1  0  0  0  0
 21  2  1  0  0  0  0
 21 16  1  0  0  0  0
 22  4  1  0  0  0  0
 23 25  1  0  0  0  0
 24 13  1  0  0  0  0
 24  2  1  0  0  0  0
 25 20  1  0  0  0  0
 27 26  1  0  0  0  0
 29 28  1  0  0  0  0
 30 29  1  0  0  0  0
 30 31  2  0  0  0  0
 32 30  1  0  0  0  0
M  END
>  <MODEL>
3

>  <REMARK>
 VINA RESULT:      -1.5      9.352     13.609
  Name = 
  4 active torsions:
  status: ('A' for Active; 'I' for Inactive)
    1  A    between atoms: C_1  and  C_10
    2  A    between atoms: C_2  and  N_24
    3  A    between atoms: C_10  and  N_24
    4  A    between atoms: O_25  and  C_26
                            x       y       z     vdW  Elec       q    Type
                         _______ _______ _______ _____ _____    ______ ____

>  <TORSDO>
F 4

$$$$
