=
 OpenBabel11052422163D

 25 28  0  0  1  0  0  0  0  0999 V2000
  161.4680  205.2280  148.6520 C   0  0  0  0  0  0  0  0  0  0  0  0
  161.5160  206.2330  149.6200 C   0  0  0  0  0  0  0  0  0  0  0  0
  160.8800  203.5850  150.3010 C   0  0  0  0  0  3  0  0  0  0  0  0
  161.8070  205.2560  147.2060 C   0  0  1  0  0  3  0  0  0  0  0  0
  161.9560  209.8800  150.1490 C   0  0  0  0  0  0  0  0  0  0  0  0
  160.7990  204.4050  144.6450 C   0  0  0  0  0  3  0  0  0  0  0  0
  160.9070  204.5630  151.2510 N   0  0  0  0  0  0  0  0  0  0  0  0
  161.5190  203.8180  146.8560 C   0  0  0  0  0  0  0  0  0  0  0  0
  161.2510  203.4470  145.4650 C   0  0  0  0  0  3  0  0  0  0  0  0
  161.2290  206.8830  152.0260 C   0  0  0  0  0  0  0  0  0  0  0  0
  160.9480  206.5010  153.4380 C   0  0  0  0  0  1  0  0  0  0  0  0
  162.1590  211.1480  149.9170 C   0  0  0  0  0  3  0  0  0  0  0  0
  161.9240  207.6340  149.2500 C   0  0  0  0  0  2  0  0  0  0  0  0
  160.5320  205.7790  145.1500 C   0  0  0  0  0  3  0  0  0  0  0  0
  161.1810  203.9310  148.9890 C   0  0  0  0  0  0  0  0  0  0  0  0
  161.1750  203.0730  147.8610 N   0  0  0  0  0  0  0  0  0  0  0  0
  161.4710  208.1640  151.7470 C   0  0  0  0  0  3  0  0  0  0  0  0
  160.9420  206.1650  146.3700 C   0  0  0  0  0  3  0  0  0  0  0  0
  161.7540  208.6130  150.3750 C   0  0  0  0  0  0  0  0  0  0  0  0
  161.2170  205.8650  150.9540 C   0  0  0  0  0  0  0  0  0  0  0  0
  161.9050  211.7230  148.5640 C   0  0  2  0  0  3  0  0  0  0  0  0
  163.1060  212.1290  147.9780 O   0  0  0  0  0  1  0  0  0  0  0  0
  160.9700  212.8820  148.6660 C   0  0  0  0  0  0  0  0  0  0  0  0
  160.4560  213.2420  149.9050 O   0  0  0  0  0  1  0  0  0  0  0  0
  160.6580  213.5460  147.6430 O   0  0  0  0  0  0  0  0  0  0  0  0
  1 15  2  0  0  0  0
  1  2  1  0  0  0  0
  2 20  2  0  0  0  0
  3  7  2  0  0  0  0
  4 18  1  6  0  0  0
  4  1  1  0  0  0  0
  5 19  2  0  0  0  0
  6 14  1  0  0  0  0
  6  9  2  0  0  0  0
  8  4  1  0  0  0  0
  8 16  2  0  0  0  0
  9  8  1  0  0  0  0
 10 11  1  0  0  0  0
 12  5  2  0  0  0  0
 13  2  1  0  0  0  0
 13 19  1  0  0  0  0
 14 18  2  0  0  0  0
 15  3  1  0  0  0  0
 16 15  1  0  0  0  0
 17 10  2  0  0  0  0
 19 17  1  0  0  0  0
 20  7  1  0  0  0  0
 20 10  1  0  0  0  0
 21 22  1  1  0  0  0
 21 23  1  0  0  0  0
 21 12  1  0  0  0  0
 23 24  1  0  0  0  0
 25 23  2  0  0  0  0
M  END
>  <MODEL>
1

>  <REMARK>
 VINA RESULT:     -10.4      0.000      0.000
  Name = 
  2 active torsions:
  status: ('A' for Active; 'I' for Inactive)
    1  A    between atoms: C_2  and  C_21
    2  A    between atoms: C_15  and  C_21
                            x       y       z     vdW  Elec       q    Type
                         _______ _______ _______ _____ _____    ______ ____

>  <TORSDO>
F 2

$$$$
=
 OpenBabel11052422163D

 25 28  0  0  1  0  0  0  0  0999 V2000
  161.1350  205.3560  149.4590 C   0  0  0  0  0  0  0  0  0  0  0  0
  161.2620  206.6530  149.9590 C   0  0  0  0  0  0  0  0  0  0  0  0
  161.8880  206.0530  147.2890 C   0  0  0  0  0  3  0  0  0  0  0  0
  160.5960  204.1220  150.0890 C   0  0  1  0  0  3  0  0  0  0  0  0
  161.0400  208.7300  153.0280 C   0  0  0  0  0  0  0  0  0  0  0  0
  161.1990  201.3260  150.4270 C   0  0  0  0  0  3  0  0  0  0  0  0
  162.0320  207.3200  147.7720 N   0  0  0  0  0  0  0  0  0  0  0  0
  160.7770  203.1610  148.9410 C   0  0  0  0  0  0  0  0  0  0  0  0
  160.8320  201.7200  149.2010 C   0  0  0  0  0  3  0  0  0  0  0  0
  161.9120  209.0400  149.5380 C   0  0  0  0  0  0  0  0  0  0  0  0
  162.3740  210.1020  148.6020 C   0  0  0  0  0  1  0  0  0  0  0  0
  160.8540  209.0870  154.2690 C   0  0  0  0  0  3  0  0  0  0  0  0
  160.8600  206.9720  151.3740 C   0  0  0  0  0  2  0  0  0  0  0  0
  161.5860  202.3190  151.4640 C   0  0  0  0  0  3  0  0  0  0  0  0
  161.4170  205.0690  148.1490 C   0  0  0  0  0  0  0  0  0  0  0  0
  161.2310  203.6960  147.8500 N   0  0  0  0  0  0  0  0  0  0  0  0
  161.6800  209.3660  150.8100 C   0  0  0  0  0  3  0  0  0  0  0  0
  161.3670  203.6330  151.2870 C   0  0  0  0  0  3  0  0  0  0  0  0
  161.2230  208.3680  151.7900 C   0  0  0  0  0  0  0  0  0  0  0  0
  161.7330  207.6490  149.0700 C   0  0  0  0  0  0  0  0  0  0  0  0
  160.9350  208.0820  155.3690 C   0  0  2  0  0  3  0  0  0  0  0  0
  159.7870  207.2880  155.3850 O   0  0  0  0  0  1  0  0  0  0  0  0
  161.0970  208.7720  156.6830 C   0  0  0  0  0  0  0  0  0  0  0  0
  162.3570  208.8590  157.2610 O   0  0  0  0  0  0  0  0  0  0  0  0
  160.1070  209.2910  157.2610 O   0  0  0  0  0  1  0  0  0  0  0  0
  1  2  1  0  0  0  0
  1  4  1  0  0  0  0
  2 13  1  0  0  0  0
  3  7  2  0  0  0  0
  3 15  1  0  0  0  0
  4 18  1  1  0  0  0
  5 12  2  0  0  0  0
  6 14  1  0  0  0  0
  7 20  1  0  0  0  0
  8  9  1  0  0  0  0
  8  4  1  0  0  0  0
  9  6  2  0  0  0  0
 10 17  2  0  0  0  0
 11 10  1  0  0  0  0
 12 21  1  0  0  0  0
 13 19  1  0  0  0  0
 15  1  2  0  0  0  0
 16 15  1  0  0  0  0
 16  8  2  0  0  0  0
 17 19  1  0  0  0  0
 18 14  2  0  0  0  0
 19  5  2  0  0  0  0
 20 10  1  0  0  0  0
 20  2  2  0  0  0  0
 21 22  1  1  0  0  0
 21 23  1  0  0  0  0
 23 24  2  0  0  0  0
 23 25  1  0  0  0  0
M  END
>  <MODEL>
2

>  <REMARK>
 VINA RESULT:      -9.9      3.613      5.377
  Name = 
  2 active torsions:
  status: ('A' for Active; 'I' for Inactive)
    1  A    between atoms: C_2  and  C_21
    2  A    between atoms: C_15  and  C_21
                            x       y       z     vdW  Elec       q    Type
                         _______ _______ _______ _____ _____    ______ ____

>  <TORSDO>
F 2

$$$$
=
 OpenBabel11052422163D

 25 28  0  0  1  0  0  0  0  0999 V2000
  160.9710  205.9590  151.1650 C   0  0  0  0  0  0  0  0  0  0  0  0
  161.0210  204.8260  150.3520 C   0  0  0  0  0  0  0  0  0  0  0  0
  160.8350  204.6090  153.1450 C   0  0  0  0  0  3  0  0  0  0  0  0
  160.8970  207.4020  150.8150 C   0  0  1  0  0  3  0  0  0  0  0  0
  161.4490  203.6450  146.8590 C   0  0  0  0  0  0  0  0  0  0  0  0
  162.0670  209.9430  151.5020 C   0  0  0  0  0  3  0  0  0  0  0  0
  160.9010  203.4950  152.3610 N   0  0  0  0  0  0  0  0  0  0  0  0
  160.8620  207.9910  152.2020 C   0  0  0  0  0  0  0  0  0  0  0  0
  161.2540  209.3870  152.4100 C   0  0  0  0  0  3  0  0  0  0  0  0
  161.0600  202.3220  150.1960 C   0  0  0  0  0  0  0  0  0  0  0  0
  160.9930  200.9900  150.8580 C   0  0  0  0  0  1  0  0  0  0  0  0
  161.6190  203.6450  145.5660 C   0  0  0  0  0  3  0  0  0  0  0  0
  161.0540  204.9580  148.8530 C   0  0  0  0  0  2  0  0  0  0  0  0
  162.5890  209.1500  150.3570 C   0  0  0  0  0  3  0  0  0  0  0  0
  160.8560  205.8530  152.5260 C   0  0  0  0  0  0  0  0  0  0  0  0
  160.8300  207.1190  153.1630 N   0  0  0  0  0  0  0  0  0  0  0  0
  161.2040  202.3700  148.8710 C   0  0  0  0  0  3  0  0  0  0  0  0
  162.0930  207.9350  150.0680 C   0  0  0  0  0  3  0  0  0  0  0  0
  161.2780  203.6500  148.1510 C   0  0  0  0  0  0  0  0  0  0  0  0
  160.9900  203.5640  150.9940 C   0  0  0  0  0  0  0  0  0  0  0  0
  162.2340  204.8180  144.8800 C   0  0  2  0  0  3  0  0  0  0  0  0
  162.9260  205.6090  145.8000 O   0  0  0  0  0  1  0  0  0  0  0  0
  161.1780  205.6280  144.2030 C   0  0  0  0  0  0  0  0  0  0  0  0
  160.1180  206.1310  144.9450 O   0  0  0  0  0  1  0  0  0  0  0  0
  161.2520  205.8760  142.9710 O   0  0  0  0  0  0  0  0  0  0  0  0
  1 15  1  0  0  0  0
  2 20  1  0  0  0  0
  2  1  2  0  0  0  0
  4 18  1  1  0  0  0
  4  1  1  0  0  0  0
  4  8  1  0  0  0  0
  5 19  2  0  0  0  0
  6  9  2  0  0  0  0
  7  3  1  0  0  0  0
  8  9  1  0  0  0  0
  8 16  2  0  0  0  0
 10 11  1  0  0  0  0
 10 20  1  0  0  0  0
 12  5  2  0  0  0  0
 13  2  1  0  0  0  0
 14  6  1  0  0  0  0
 15  3  2  0  0  0  0
 15 16  1  0  0  0  0
 17 10  2  0  0  0  0
 18 14  2  0  0  0  0
 19 13  1  0  0  0  0
 19 17  1  0  0  0  0
 20  7  2  0  0  0  0
 21 12  1  0  0  0  0
 21 22  1  1  0  0  0
 23 21  1  0  0  0  0
 23 24  1  0  0  0  0
 25 23  2  0  0  0  0
M  END
>  <MODEL>
3

>  <REMARK>
 VINA RESULT:      -9.5      3.232      6.262
  Name = 
  2 active torsions:
  status: ('A' for Active; 'I' for Inactive)
    1  A    between atoms: C_2  and  C_21
    2  A    between atoms: C_15  and  C_21
                            x       y       z     vdW  Elec       q    Type
                         _______ _______ _______ _____ _____    ______ ____

>  <TORSDO>
F 2

$$$$
=
 OpenBabel11052422163D

 25 28  0  0  1  0  0  0  0  0999 V2000
  161.3550  204.2120  148.1300 C   0  0  0  0  0  0  0  0  0  0  0  0
  161.2650  204.5300  149.4860 C   0  0  0  0  0  0  0  0  0  0  0  0
  160.8910  201.9000  148.5790 C   0  0  0  0  0  3  0  0  0  0  0  0
  161.7360  205.0470  146.9610 C   0  0  1  0  0  3  0  0  0  0  0  0
  161.2960  207.3250  151.9290 C   0  0  0  0  0  0  0  0  0  0  0  0
  160.9080  205.6540  144.2700 C   0  0  0  0  0  3  0  0  0  0  0  0
  160.7840  202.2030  149.9050 N   0  0  0  0  0  0  0  0  0  0  0  0
  161.6140  204.0130  145.8700 C   0  0  0  0  0  0  0  0  0  0  0  0
  161.4320  204.4400  144.4810 C   0  0  0  0  0  3  0  0  0  0  0  0
  160.8310  203.7460  151.8300 C   0  0  0  0  0  0  0  0  0  0  0  0
  160.5470  202.6390  152.7850 C   0  0  0  0  0  1  0  0  0  0  0  0
  161.3700  208.5260  152.4340 C   0  0  0  0  0  3  0  0  0  0  0  0
  161.5320  205.9330  149.9640 C   0  0  0  0  0  2  0  0  0  0  0  0
  160.4800  206.5090  145.4090 C   0  0  0  0  0  3  0  0  0  0  0  0
  161.1970  202.9240  147.6910 C   0  0  0  0  0  0  0  0  0  0  0  0
  161.3190  202.8190  146.2830 N   0  0  0  0  0  0  0  0  0  0  0  0
  160.9450  204.9870  152.3060 C   0  0  0  0  0  3  0  0  0  0  0  0
  160.8070  206.1990  146.6750 C   0  0  0  0  0  3  0  0  0  0  0  0
  161.2230  206.1280  151.4200 C   0  0  0  0  0  0  0  0  0  0  0  0
  160.9620  203.4760  150.3820 C   0  0  0  0  0  0  0  0  0  0  0  0
  161.1010  209.7240  151.5870 C   0  0  2  0  0  3  0  0  0  0  0  0
  162.1980  209.9940  150.7660 O   0  0  0  0  0  1  0  0  0  0  0  0
  160.8050  210.9060  152.4490 C   0  0  0  0  0  0  0  0  0  0  0  0
  161.2680  210.9340  153.7580 O   0  0  0  0  0  1  0  0  0  0  0  0
  160.1580  211.8860  151.9930 O   0  0  0  0  0  0  0  0  0  0  0  0
  1  2  1  0  0  0  0
  2 13  1  0  0  0  0
  2 20  2  0  0  0  0
  3  7  2  0  0  0  0
  4 18  1  6  0  0  0
  4  1  1  0  0  0  0
  5 12  2  0  0  0  0
  6  9  2  0  0  0  0
  6 14  1  0  0  0  0
  7 20  1  0  0  0  0
  8 16  2  0  0  0  0
  8  4  1  0  0  0  0
  9  8  1  0  0  0  0
 10 17  2  0  0  0  0
 10 11  1  0  0  0  0
 13 19  1  0  0  0  0
 14 18  2  0  0  0  0
 15  1  2  0  0  0  0
 15  3  1  0  0  0  0
 16 15  1  0  0  0  0
 19  5  2  0  0  0  0
 19 17  1  0  0  0  0
 20 10  1  0  0  0  0
 21 22  1  1  0  0  0
 21 12  1  0  0  0  0
 21 23  1  0  0  0  0
 23 24  1  0  0  0  0
 25 23  2  0  0  0  0
M  END
>  <MODEL>
4

>  <REMARK>
 VINA RESULT:      -9.3      2.078      2.783
  Name = 
  2 active torsions:
  status: ('A' for Active; 'I' for Inactive)
    1  A    between atoms: C_2  and  C_21
    2  A    between atoms: C_15  and  C_21
                            x       y       z     vdW  Elec       q    Type
                         _______ _______ _______ _____ _____    ______ ____

>  <TORSDO>
F 2

$$$$
=
 OpenBabel11052422163D

 25 28  0  0  1  0  0  0  0  0999 V2000
  161.0310  206.4330  151.2620 C   0  0  0  0  0  0  0  0  0  0  0  0
  161.0570  205.1990  150.6110 C   0  0  0  0  0  0  0  0  0  0  0  0
  161.1620  205.3710  153.4110 C   0  0  0  0  0  3  0  0  0  0  0  0
  160.8490  207.8080  150.7280 C   0  0  1  0  0  3  0  0  0  0  0  0
  161.1940  203.5540  147.2860 C   0  0  0  0  0  0  0  0  0  0  0  0
  161.9510  210.4620  150.9350 C   0  0  0  0  0  3  0  0  0  0  0  0
  161.2060  204.1610  152.7840 N   0  0  0  0  0  0  0  0  0  0  0  0
  160.9220  208.5860  152.0180 C   0  0  0  0  0  0  0  0  0  0  0  0
  161.2620  210.0100  151.9920 C   0  0  0  0  0  3  0  0  0  0  0  0
  161.2080  202.7010  150.7940 C   0  0  0  0  0  0  0  0  0  0  0  0
  161.2750  201.4740  151.6360 C   0  0  0  0  0  1  0  0  0  0  0  0
  161.2350  203.3780  145.9940 C   0  0  0  0  0  3  0  0  0  0  0  0
  160.9340  205.1200  149.1130 C   0  0  0  0  0  2  0  0  0  0  0  0
  162.3950  209.5350  149.8600 C   0  0  0  0  0  3  0  0  0  0  0  0
  161.0570  206.5150  152.6300 C   0  0  0  0  0  0  0  0  0  0  0  0
  161.0310  207.8570  153.0870 N   0  0  0  0  0  0  0  0  0  0  0  0
  161.2160  202.5670  149.4680 C   0  0  0  0  0  3  0  0  0  0  0  0
  161.9360  208.2740  149.7930 C   0  0  0  0  0  3  0  0  0  0  0  0
  161.1530  203.7350  148.5760 C   0  0  0  0  0  0  0  0  0  0  0  0
  161.1540  204.0400  151.4190 C   0  0  0  0  0  0  0  0  0  0  0  0
  161.7170  204.4650  145.0940 C   0  0  2  0  0  3  0  0  0  0  0  0
  163.1130  204.4640  145.0390 O   0  0  0  0  0  1  0  0  0  0  0  0
  161.2260  205.7890  145.5780 C   0  0  0  0  0  0  0  0  0  0  0  0
  162.0490  206.5780  146.3690 O   0  0  0  0  0  1  0  0  0  0  0  0
  160.0810  206.2030  145.2570 O   0  0  0  0  0  0  0  0  0  0  0  0
  1 15  1  0  0  0  0
  2  1  2  0  0  0  0
  2 20  1  0  0  0  0
  4 18  1  6  0  0  0
  4  1  1  0  0  0  0
  4  8  1  0  0  0  0
  5 19  2  0  0  0  0
  6  9  2  0  0  0  0
  7  3  1  0  0  0  0
  8 16  2  0  0  0  0
  9  8  1  0  0  0  0
 10 20  1  0  0  0  0
 10 11  1  0  0  0  0
 12  5  2  0  0  0  0
 13  2  1  0  0  0  0
 14  6  1  0  0  0  0
 15 16  1  0  0  0  0
 15  3  2  0  0  0  0
 17 10  2  0  0  0  0
 18 14  2  0  0  0  0
 19 13  1  0  0  0  0
 19 17  1  0  0  0  0
 20  7  2  0  0  0  0
 21 22  1  1  0  0  0
 21 23  1  0  0  0  0
 21 12  1  0  0  0  0
 23 24  1  0  0  0  0
 25 23  2  0  0  0  0
M  END
>  <MODEL>
5

>  <REMARK>
 VINA RESULT:      -9.2      2.886      6.150
  Name = 
  2 active torsions:
  status: ('A' for Active; 'I' for Inactive)
    1  A    between atoms: C_2  and  C_21
    2  A    between atoms: C_15  and  C_21
                            x       y       z     vdW  Elec       q    Type
                         _______ _______ _______ _____ _____    ______ ____

>  <TORSDO>
F 2

$$$$
=
 OpenBabel11052422163D

 25 28  0  0  1  0  0  0  0  0999 V2000
  161.4620  208.5050  153.4310 C   0  0  0  0  0  0  0  0  0  0  0  0
  161.5340  208.0610  152.1100 C   0  0  0  0  0  0  0  0  0  0  0  0
  161.6550  210.7950  152.7370 C   0  0  0  0  0  3  0  0  0  0  0  0
  161.4210  207.7470  154.7090 C   0  0  1  0  0  3  0  0  0  0  0  0
  161.3140  205.0680  149.9260 C   0  0  0  0  0  0  0  0  0  0  0  0
  160.0160  207.6540  157.2220 C   0  0  0  0  0  3  0  0  0  0  0  0
  161.7090  210.3730  151.4410 N   0  0  0  0  0  0  0  0  0  0  0  0
  161.3650  208.9000  155.6790 C   0  0  0  0  0  0  0  0  0  0  0  0
  160.8470  208.6880  157.0320 C   0  0  0  0  0  3  0  0  0  0  0  0
  161.7170  208.6470  149.6770 C   0  0  0  0  0  0  0  0  0  0  0  0
  161.8790  209.6720  148.6090 C   0  0  0  0  0  1  0  0  0  0  0  0
  161.1830  203.8310  149.5320 C   0  0  0  0  0  3  0  0  0  0  0  0
  161.5340  206.5890  151.7950 C   0  0  0  0  0  2  0  0  0  0  0  0
  159.5990  206.7910  156.0850 C   0  0  0  0  0  3  0  0  0  0  0  0
  161.5460  209.8380  153.7380 C   0  0  0  0  0  0  0  0  0  0  0  0
  161.4420  210.0750  155.1320 N   0  0  0  0  0  0  0  0  0  0  0  0
  161.6090  207.3660  149.3230 C   0  0  0  0  0  3  0  0  0  0  0  0
  160.2070  206.8730  154.8890 C   0  0  0  0  0  3  0  0  0  0  0  0
  161.4450  206.3010  150.3240 C   0  0  0  0  0  0  0  0  0  0  0  0
  161.6560  209.0460  151.0990 C   0  0  0  0  0  0  0  0  0  0  0  0
  160.4900  202.8290  150.3930 C   0  0  2  0  0  3  0  0  0  0  0  0
  161.2600  202.5470  151.5240 O   0  0  0  0  0  1  0  0  0  0  0  0
  160.2370  201.5770  149.6220 C   0  0  0  0  0  0  0  0  0  0  0  0
  161.3110  200.8180  149.1740 O   0  0  0  0  0  0  0  0  0  0  0  0
  159.0610  201.1920  149.3910 O   0  0  0  0  0  1  0  0  0  0  0  0
  1 15  1  0  0  0  0
  1  4  1  0  0  0  0
  2  1  2  0  0  0  0
  3 15  2  0  0  0  0
  4 18  1  6  0  0  0
  4  8  1  0  0  0  0
  5 19  2  0  0  0  0
  7  3  1  0  0  0  0
  8  9  1  0  0  0  0
  9  6  2  0  0  0  0
 10 20  1  0  0  0  0
 11 10  1  0  0  0  0
 12  5  2  0  0  0  0
 12 21  1  0  0  0  0
 13  2  1  0  0  0  0
 14  6  1  0  0  0  0
 15 16  1  0  0  0  0
 16  8  2  0  0  0  0
 17 10  2  0  0  0  0
 17 19  1  0  0  0  0
 18 14  2  0  0  0  0
 19 13  1  0  0  0  0
 20  7  2  0  0  0  0
 20  2  1  0  0  0  0
 21 22  1  1  0  0  0
 23 21  1  0  0  0  0
 24 23  2  0  0  0  0
 25 23  1  0  0  0  0
M  END
>  <MODEL>
6

>  <REMARK>
 VINA RESULT:      -8.3      4.813      8.425
  Name = 
  2 active torsions:
  status: ('A' for Active; 'I' for Inactive)
    1  A    between atoms: C_2  and  C_21
    2  A    between atoms: C_15  and  C_21
                            x       y       z     vdW  Elec       q    Type
                         _______ _______ _______ _____ _____    ______ ____

>  <TORSDO>
F 2

$$$$
=
 OpenBabel11052422163D

 25 28  0  0  1  0  0  0  0  0999 V2000
  161.3110  207.2120  152.2810 C   0  0  0  0  0  0  0  0  0  0  0  0
  161.2050  208.6030  152.3280 C   0  0  0  0  0  0  0  0  0  0  0  0
  160.6710  207.0250  154.5870 C   0  0  0  0  0  3  0  0  0  0  0  0
  161.7840  206.3110  151.1980 C   0  0  1  0  0  3  0  0  0  0  0  0
  161.3660  211.7020  150.2920 C   0  0  0  0  0  0  0  0  0  0  0  0
  161.0780  203.8720  149.8380 C   0  0  0  0  0  3  0  0  0  0  0  0
  160.5480  208.3820  154.6390 N   0  0  0  0  0  0  0  0  0  0  0  0
  161.6200  204.9830  151.8930 C   0  0  0  0  0  0  0  0  0  0  0  0
  161.5080  203.7560  151.1010 C   0  0  0  0  0  3  0  0  0  0  0  0
  160.6500  210.6490  153.6700 C   0  0  0  0  0  0  0  0  0  0  0  0
  160.2610  211.2720  154.9650 C   0  0  0  0  0  1  0  0  0  0  0  0
  161.5110  212.5100  149.2770 C   0  0  0  0  0  3  0  0  0  0  0  0
  161.5580  209.4390  151.1270 C   0  0  0  0  0  2  0  0  0  0  0  0
  160.6800  205.1940  149.2850 C   0  0  0  0  0  3  0  0  0  0  0  0
  161.0750  206.4440  153.3910 C   0  0  0  0  0  0  0  0  0  0  0  0
  161.2280  205.0600  153.1280 N   0  0  0  0  0  0  0  0  0  0  0  0
  160.8380  211.4390  152.6120 C   0  0  0  0  0  3  0  0  0  0  0  0
  160.9480  206.3340  149.9440 C   0  0  0  0  0  3  0  0  0  0  0  0
  161.2220  210.8930  151.3020 C   0  0  0  0  0  0  0  0  0  0  0  0
  160.8030  209.1830  153.5560 C   0  0  0  0  0  0  0  0  0  0  0  0
  161.3520  212.0110  147.8800 C   0  0  2  0  0  3  0  0  0  0  0  0
  162.4520  212.3820  147.1050 O   0  0  0  0  0  1  0  0  0  0  0  0
  160.0980  212.5540  147.2800 C   0  0  0  0  0  0  0  0  0  0  0  0
  159.7320  212.1750  145.9960 O   0  0  0  0  0  0  0  0  0  0  0  0
  159.3600  213.3360  147.9360 O   0  0  0  0  0  1  0  0  0  0  0  0
  1  2  2  0  0  0  0
  1 15  1  0  0  0  0
  2 20  1  0  0  0  0
  3  7  1  0  0  0  0
  4 18  1  6  0  0  0
  4  8  1  0  0  0  0
  4  1  1  0  0  0  0
  5 19  2  0  0  0  0
  6  9  2  0  0  0  0
  8 16  2  0  0  0  0
  9  8  1  0  0  0  0
 10 11  1  0  0  0  0
 12  5  2  0  0  0  0
 13 19  1  0  0  0  0
 13  2  1  0  0  0  0
 14  6  1  0  0  0  0
 14 18  2  0  0  0  0
 15  3  2  0  0  0  0
 16 15  1  0  0  0  0
 17 10  2  0  0  0  0
 19 17  1  0  0  0  0
 20 10  1  0  0  0  0
 20  7  2  0  0  0  0
 21 22  1  6  0  0  0
 21 12  1  0  0  0  0
 23 21  1  0  0  0  0
 23 25  1  0  0  0  0
 24 23  2  0  0  0  0
M  END
>  <MODEL>
7

>  <REMARK>
 VINA RESULT:      -7.8      2.343      3.966
  Name = 
  2 active torsions:
  status: ('A' for Active; 'I' for Inactive)
    1  A    between atoms: C_2  and  C_21
    2  A    between atoms: C_15  and  C_21
                            x       y       z     vdW  Elec       q    Type
                         _______ _______ _______ _____ _____    ______ ____

>  <TORSDO>
F 2

$$$$
=
 OpenBabel11052422163D

 25 28  0  0  1  0  0  0  0  0999 V2000
  161.7870  208.7730  150.4310 C   0  0  0  0  0  0  0  0  0  0  0  0
  161.5980  207.8140  151.4280 C   0  0  0  0  0  0  0  0  0  0  0  0
  161.7440  207.0900  148.7200 C   0  0  0  0  0  3  0  0  0  0  0  0
  162.0440  210.2340  150.5260 C   0  0  1  0  0  3  0  0  0  0  0  0
  161.0400  207.3270  155.0650 C   0  0  0  0  0  0  0  0  0  0  0  0
  161.2010  212.7410  149.3850 C   0  0  0  0  0  3  0  0  0  0  0  0
  161.5410  206.1470  149.6850 N   0  0  0  0  0  0  0  0  0  0  0  0
  162.1480  210.5620  149.0580 C   0  0  0  0  0  0  0  0  0  0  0  0
  161.9330  211.9370  148.6020 C   0  0  0  0  0  3  0  0  0  0  0  0
  161.2450  205.4020  152.0180 C   0  0  0  0  0  0  0  0  0  0  0  0
  161.1410  203.9760  151.5990 C   0  0  0  0  0  1  0  0  0  0  0  0
  160.8760  207.5750  156.3360 C   0  0  0  0  0  3  0  0  0  0  0  0
  161.5880  208.2110  152.8810 C   0  0  0  0  0  2  0  0  0  0  0  0
  160.5880  212.2320  150.6410 C   0  0  0  0  0  3  0  0  0  0  0  0
  161.8830  208.4160  149.1120 C   0  0  0  0  0  0  0  0  0  0  0  0
  162.0650  209.5380  148.2650 N   0  0  0  0  0  0  0  0  0  0  0  0
  161.1140  205.6980  153.3110 C   0  0  0  0  0  3  0  0  0  0  0  0
  160.9280  211.0340  151.1470 C   0  0  0  0  0  3  0  0  0  0  0  0
  161.2040  207.0840  153.7960 C   0  0  0  0  0  0  0  0  0  0  0  0
  161.4680  206.4660  151.0170 C   0  0  0  0  0  0  0  0  0  0  0  0
  160.4170  208.9180  156.7950 C   0  0  2  0  0  3  0  0  0  0  0  0
  159.3340  209.3480  156.0260 O   0  0  0  0  0  1  0  0  0  0  0  0
  161.5340  209.9030  156.7000 C   0  0  0  0  0  0  0  0  0  0  0  0
  162.7680  209.5980  157.2600 O   0  0  0  0  0  1  0  0  0  0  0  0
  161.3740  210.9970  156.0990 O   0  0  0  0  0  0  0  0  0  0  0  0
  1  4  1  0  0  0  0
  1  2  1  0  0  0  0
  2 13  1  0  0  0  0
  3 15  1  0  0  0  0
  3  7  2  0  0  0  0
  4 18  1  6  0  0  0
  5 12  2  0  0  0  0
  6 14  1  0  0  0  0
  7 20  1  0  0  0  0
  8  4  1  0  0  0  0
  9  8  1  0  0  0  0
  9  6  2  0  0  0  0
 10 17  2  0  0  0  0
 11 10  1  0  0  0  0
 12 21  1  0  0  0  0
 13 19  1  0  0  0  0
 14 18  2  0  0  0  0
 15  1  2  0  0  0  0
 16  8  2  0  0  0  0
 16 15  1  0  0  0  0
 17 19  1  0  0  0  0
 19  5  2  0  0  0  0
 20  2  2  0  0  0  0
 20 10  1  0  0  0  0
 21 22  1  6  0  0  0
 23 21  1  0  0  0  0
 23 24  1  0  0  0  0
 25 23  2  0  0  0  0
M  END
>  <MODEL>
8

>  <REMARK>
 VINA RESULT:      -7.6      3.588      6.359
  Name = 
  2 active torsions:
  status: ('A' for Active; 'I' for Inactive)
    1  A    between atoms: C_2  and  C_21
    2  A    between atoms: C_15  and  C_21
                            x       y       z     vdW  Elec       q    Type
                         _______ _______ _______ _____ _____    ______ ____

>  <TORSDO>
F 2

$$$$
=
 OpenBabel11052422163D

 25 28  0  0  1  0  0  0  0  0999 V2000
  161.0320  207.7650  153.0080 C   0  0  0  0  0  0  0  0  0  0  0  0
  160.6940  209.0920  153.2800 C   0  0  0  0  0  0  0  0  0  0  0  0
  160.5420  207.1140  155.2660 C   0  0  0  0  0  3  0  0  0  0  0  0
  161.5990  207.1390  151.7850 C   0  0  1  0  0  3  0  0  0  0  0  0
  160.2330  212.4500  151.7660 C   0  0  0  0  0  0  0  0  0  0  0  0
  161.2530  204.8560  150.0640 C   0  0  0  0  0  3  0  0  0  0  0  0
  160.1930  208.4040  155.5380 N   0  0  0  0  0  0  0  0  0  0  0  0
  161.6950  205.7120  152.2600 C   0  0  0  0  0  0  0  0  0  0  0  0
  161.7550  204.6220  151.2830 C   0  0  0  0  0  3  0  0  0  0  0  0
  159.8650  210.7760  154.9440 C   0  0  0  0  0  0  0  0  0  0  0  0
  159.4370  211.1130  156.3300 C   0  0  0  0  0  1  0  0  0  0  0  0
  160.1910  213.4170  150.8920 C   0  0  0  0  0  3  0  0  0  0  0  0
  160.8440  210.1530  152.2230 C   0  0  0  0  0  2  0  0  0  0  0  0
  160.6110  206.1580  149.7390 C   0  0  0  0  0  3  0  0  0  0  0  0
  160.9810  206.8050  153.9840 C   0  0  0  0  0  0  0  0  0  0  0  0
  161.3540  205.5270  153.4990 N   0  0  0  0  0  0  0  0  0  0  0  0
  159.8670  211.7420  154.0240 C   0  0  0  0  0  3  0  0  0  0  0  0
  160.7130  207.2110  150.5680 C   0  0  0  0  0  3  0  0  0  0  0  0
  160.2760  211.4800  152.6360 C   0  0  0  0  0  0  0  0  0  0  0  0
  160.2580  209.3960  154.5930 C   0  0  0  0  0  0  0  0  0  0  0  0
  160.0540  213.1210  149.4370 C   0  0  2  0  0  3  0  0  0  0  0  0
  161.1100  213.6930  148.7240 O   0  0  0  0  0  1  0  0  0  0  0  0
  158.7520  213.6430  148.9270 C   0  0  0  0  0  0  0  0  0  0  0  0
  157.5690  213.2600  149.5470 O   0  0  0  0  0  1  0  0  0  0  0  0
  158.7180  214.4420  147.9550 O   0  0  0  0  0  0  0  0  0  0  0  0
  1  2  2  0  0  0  0
  1 15  1  0  0  0  0
  2 20  1  0  0  0  0
  3  7  1  0  0  0  0
  4 18  1  6  0  0  0
  4  8  1  0  0  0  0
  4  1  1  0  0  0  0
  5 19  2  0  0  0  0
  6  9  2  0  0  0  0
  8 16  2  0  0  0  0
  9  8  1  0  0  0  0
 10 11  1  0  0  0  0
 12  5  2  0  0  0  0
 13 19  1  0  0  0  0
 13  2  1  0  0  0  0
 14  6  1  0  0  0  0
 14 18  2  0  0  0  0
 15  3  2  0  0  0  0
 16 15  1  0  0  0  0
 17 10  2  0  0  0  0
 19 17  1  0  0  0  0
 20 10  1  0  0  0  0
 20  7  2  0  0  0  0
 21 22  1  6  0  0  0
 21 12  1  0  0  0  0
 23 21  1  0  0  0  0
 23 24  1  0  0  0  0
 25 23  2  0  0  0  0
M  END
>  <MODEL>
9

>  <REMARK>
 VINA RESULT:      -7.6      2.811      4.660
  Name = 
  2 active torsions:
  status: ('A' for Active; 'I' for Inactive)
    1  A    between atoms: C_2  and  C_21
    2  A    between atoms: C_15  and  C_21
                            x       y       z     vdW  Elec       q    Type
                         _______ _______ _______ _____ _____    ______ ____

>  <TORSDO>
F 2

$$$$
