=
 OpenBabel11062408293D

 32 36  0  0  1  0  0  0  0  0999 V2000
  161.3590  207.3780  150.9010 O   0  0  0  0  0  0  0  0  0  0  0  0
  161.0800  205.4110  149.5910 C   0  0  0  0  0  0  0  0  0  0  0  0
  161.9020  208.0050  152.0670 C   0  0  2  0  0  3  0  0  0  0  0  0
  161.2040  205.9880  150.7980 C   0  0  0  0  0  0  0  0  0  0  0  0
  160.9530  203.9730  149.4710 N   0  0  0  0  0  0  0  0  0  0  0  0
  161.7170  205.6860  144.6300 C   0  0  0  0  0  2  0  0  0  0  0  0
  161.0210  206.2760  148.3610 C   0  0  0  0  0  2  0  0  0  0  0  0
  161.3440  203.4740  145.7270 C   0  0  0  0  0  2  0  0  0  0  0  0
  160.8910  204.1720  147.0070 C   0  0  1  0  0  3  0  0  0  0  0  0
  161.1040  205.1670  152.0640 C   0  0  1  0  0  3  0  0  0  0  0  0
  161.3050  203.3250  148.2020 C   0  0  0  0  0  2  0  0  0  0  0  0
  161.5030  203.7150  151.8410 C   0  0  0  0  0  2  0  0  0  0  0  0
  161.9220  205.7870  153.1870 C   0  0  0  0  0  2  0  0  0  0  0  0
  161.5480  205.5520  147.1280 C   0  0  1  0  0  3  0  0  0  0  0  0
  160.6850  203.1720  150.6810 C   0  0  2  0  0  3  0  0  0  0  0  0
  161.5370  207.2500  153.3430 C   0  0  0  0  0  2  0  0  0  0  0  0
  161.0240  204.3330  144.5100 C   0  0  0  0  0  2  0  0  0  0  0  0
  161.2500  206.4000  145.8940 C   0  0  0  0  0  2  0  0  0  0  0  0
  160.9710  201.6840  150.5090 C   0  0  0  0  0  2  0  0  0  0  0  0
  159.8430  201.0230  149.7400 C   0  0  0  0  0  1  0  0  0  0  0  0
  161.4520  209.4600  152.1550 C   0  0  1  0  0  3  0  0  0  0  0  0
  161.5850  210.1210  150.7970 C   0  0  0  0  0  1  0  0  0  0  0  0
  160.1220  209.5370  152.5870 O   0  0  0  0  0  0  0  0  0  0  0  0
  159.8850  210.7470  154.7190 C   0  0  2  0  0  0  0  0  0  0  0  0
  157.0250  212.6170  153.9480 O   0  0  0  0  0  0  0  0  0  0  0  0
  159.6910  209.3330  155.2510 C   0  0  0  0  0  1  0  0  0  0  0  0
  158.7280  211.4910  152.6610 C   0  0  0  0  0  2  0  0  0  0  0  0
  158.7430  211.5200  155.0440 O   0  0  0  0  0  0  0  0  0  0  0  0
  159.9960  210.8030  153.1700 C   0  0  2  0  0  3  0  0  0  0  0  0
  158.0810  211.9350  153.9100 C   0  0  0  0  0  0  0  0  0  0  0  0
  161.1260  211.3480  155.3680 C   0  0  0  0  0  2  0  0  0  0  0  0
  162.1480  210.4010  155.4610 O   0  0  0  0  0  1  0  0  0  0  0  0
  1  3  1  0  0  0  0
  2  4  2  0  0  0  0
  3 21  1  1  0  0  0
  3 16  1  0  0  0  0
  4  1  1  0  0  0  0
  4 10  1  0  0  0  0
  5  2  1  0  0  0  0
  5 15  1  0  0  0  0
  6 18  1  0  0  0  0
  7  2  1  0  0  0  0
  9  8  1  6  0  0  0
  9 14  1  0  0  0  0
  9 11  1  0  0  0  0
 10 12  1  6  0  0  0
 10 13  1  0  0  0  0
 11  5  1  0  0  0  0
 13 16  1  0  0  0  0
 14 18  1  6  0  0  0
 14  7  1  0  0  0  0
 15 19  1  6  0  0  0
 15 12  1  0  0  0  0
 17  6  1  0  0  0  0
 17  8  1  0  0  0  0
 20 19  1  0  0  0  0
 21 22  1  6  0  0  0
 21 23  1  0  0  0  0
 24 28  1  0  0  0  0
 24 26  1  1  0  0  0
 24 31  1  0  0  0  0
 27 29  1  0  0  0  0
 27 30  1  0  0  0  0
 29 23  1  6  0  0  0
 29 24  1  0  0  0  0
 30 25  2  0  0  0  0
 30 28  1  0  0  0  0
 31 32  1  0  0  0  0
M  END
>  <MODEL>
1

>  <REMARK>
 VINA RESULT:      -9.3      0.000      0.000
  Name = 
  5 active torsions:
  status: ('A' for Active; 'I' for Inactive)
    1  A    between atoms: C_3  and  C_22
    2  A    between atoms: C_4  and  C_24
    3  A    between atoms: C_13  and  C_29
    4  A    between atoms: O_16  and  C_20
    5  A    between atoms: O_16  and  C_24
                            x       y       z     vdW  Elec       q    Type
                         _______ _______ _______ _____ _____    ______ ____

>  <TORSDO>
F 5

$$$$
=
 OpenBabel11062408293D

 32 36  0  0  1  0  0  0  0  0999 V2000
  160.7930  208.0950  151.0870 O   0  0  0  0  0  0  0  0  0  0  0  0
  160.5710  209.2730  153.1430 C   0  0  0  0  0  0  0  0  0  0  0  0
  160.7290  206.8570  150.3720 C   0  0  2  0  0  3  0  0  0  0  0  0
  160.9100  208.1530  152.4830 C   0  0  0  0  0  0  0  0  0  0  0  0
  160.6570  209.3310  154.5880 N   0  0  0  0  0  0  0  0  0  0  0  0
  158.0910  213.6240  153.1960 C   0  0  0  0  0  2  0  0  0  0  0  0
  160.1500  210.4900  152.3660 C   0  0  0  0  0  2  0  0  0  0  0  0
  158.8760  212.6000  155.3340 C   0  0  0  0  0  2  0  0  0  0  0  0
  159.7750  211.6400  154.5590 C   0  0  1  0  0  3  0  0  0  0  0  0
  161.4930  206.9650  153.2180 C   0  0  1  0  0  3  0  0  0  0  0  0
  159.8550  210.3230  155.3140 C   0  0  0  0  0  2  0  0  0  0  0  0
  161.0530  206.9180  154.6740 C   0  0  0  0  0  2  0  0  0  0  0  0
  161.1570  205.6620  152.5080 C   0  0  0  0  0  2  0  0  0  0  0  0
  159.2000  211.3750  153.1620 C   0  0  1  0  0  3  0  0  0  0  0  0
  161.3740  208.2610  155.3090 C   0  0  2  0  0  3  0  0  0  0  0  0
  161.5590  205.7660  151.0450 C   0  0  0  0  0  2  0  0  0  0  0  0
  158.7000  213.9050  154.5660 C   0  0  0  0  0  2  0  0  0  0  0  0
  158.9980  212.6860  152.4050 C   0  0  0  0  0  2  0  0  0  0  0  0
  161.0580  208.2080  156.8000 C   0  0  0  0  0  2  0  0  0  0  0  0
  160.1130  207.0580  157.0910 C   0  0  0  0  0  1  0  0  0  0  0  0
  161.1640  207.0490  148.9230 C   0  0  1  0  0  3  0  0  0  0  0  0
  162.6510  206.7790  148.7940 C   0  0  0  0  0  1  0  0  0  0  0  0
  160.4560  206.1850  148.0790 O   0  0  0  0  0  0  0  0  0  0  0  0
  161.3920  205.0110  146.1270 C   0  0  2  0  0  0  0  0  0  0  0  0
  160.9300  201.7150  147.2230 O   0  0  0  0  0  0  0  0  0  0  0  0
  160.2280  205.6990  145.4270 C   0  0  0  0  0  1  0  0  0  0  0  0
  161.0620  203.8710  148.3000 C   0  0  0  0  0  2  0  0  0  0  0  0
  161.2760  203.6110  145.9410 O   0  0  0  0  0  0  0  0  0  0  0  0
  161.3870  205.2250  147.6660 C   0  0  2  0  0  3  0  0  0  0  0  0
  161.0820  202.9610  147.1400 C   0  0  0  0  0  0  0  0  0  0  0  0
  162.6960  205.5140  145.5200 C   0  0  0  0  0  2  0  0  0  0  0  0
  163.7810  204.7630  145.9770 O   0  0  0  0  0  1  0  0  0  0  0  0
  1  4  1  0  0  0  0
  2  5  1  0  0  0  0
  3 21  1  6  0  0  0
  3 16  1  0  0  0  0
  3  1  1  0  0  0  0
  4  2  2  0  0  0  0
  4 10  1  0  0  0  0
  5 15  1  0  0  0  0
  5 11  1  0  0  0  0
  6 17  1  0  0  0  0
  7  2  1  0  0  0  0
  9 11  1  1  0  0  0
  9  8  1  0  0  0  0
 10 13  1  6  0  0  0
 10 12  1  0  0  0  0
 12 15  1  0  0  0  0
 14  7  1  6  0  0  0
 14  9  1  0  0  0  0
 15 19  1  1  0  0  0
 16 13  1  0  0  0  0
 17  8  1  0  0  0  0
 18 14  1  0  0  0  0
 18  6  1  0  0  0  0
 19 20  1  0  0  0  0
 21 22  1  1  0  0  0
 23 21  1  0  0  0  0
 24 26  1  6  0  0  0
 24 29  1  0  0  0  0
 28 24  1  0  0  0  0
 28 30  1  0  0  0  0
 29 23  1  6  0  0  0
 29 27  1  0  0  0  0
 30 25  2  0  0  0  0
 30 27  1  0  0  0  0
 31 32  1  0  0  0  0
 31 24  1  0  0  0  0
M  END
>  <MODEL>
2

>  <REMARK>
 VINA RESULT:      -8.9      2.734      8.741
  Name = 
  5 active torsions:
  status: ('A' for Active; 'I' for Inactive)
    1  A    between atoms: C_3  and  C_22
    2  A    between atoms: C_4  and  C_24
    3  A    between atoms: C_13  and  C_29
    4  A    between atoms: O_16  and  C_20
    5  A    between atoms: O_16  and  C_24
                            x       y       z     vdW  Elec       q    Type
                         _______ _______ _______ _____ _____    ______ ____

>  <TORSDO>
F 5

$$$$
=
 OpenBabel11062408293D

 32 36  0  0  1  0  0  0  0  0999 V2000
  160.9160  208.0230  151.2120 O   0  0  0  0  0  0  0  0  0  0  0  0
  160.6020  209.2320  153.2380 C   0  0  0  0  0  0  0  0  0  0  0  0
  160.8710  206.7770  150.5100 C   0  0  2  0  0  3  0  0  0  0  0  0
  160.9580  208.0980  152.6110 C   0  0  0  0  0  0  0  0  0  0  0  0
  160.6090  209.3090  154.6840 N   0  0  0  0  0  0  0  0  0  0  0  0
  158.1960  213.6230  153.0990 C   0  0  0  0  0  2  0  0  0  0  0  0
  160.2440  210.4450  152.4230 C   0  0  0  0  0  2  0  0  0  0  0  0
  158.8440  212.6150  155.2900 C   0  0  0  0  0  2  0  0  0  0  0  0
  159.7680  211.6310  154.5770 C   0  0  1  0  0  3  0  0  0  0  0  0
  161.4790  206.9110  153.3920 C   0  0  1  0  0  3  0  0  0  0  0  0
  159.7840  210.3220  155.3530 C   0  0  0  0  0  2  0  0  0  0  0  0
  160.9590  206.8900  154.8230 C   0  0  0  0  0  2  0  0  0  0  0  0
  161.1610  205.6040  152.6820 C   0  0  0  0  0  2  0  0  0  0  0  0
  159.2670  211.3560  153.1550 C   0  0  1  0  0  3  0  0  0  0  0  0
  161.2660  208.2370  155.4570 C   0  0  2  0  0  3  0  0  0  0  0  0
  161.6440  205.6820  151.2410 C   0  0  0  0  0  2  0  0  0  0  0  0
  158.7330  213.9120  154.4970 C   0  0  0  0  0  2  0  0  0  0  0  0
  159.1290  212.6600  152.3720 C   0  0  0  0  0  2  0  0  0  0  0  0
  160.8680  208.2080  156.9290 C   0  0  0  0  0  2  0  0  0  0  0  0
  160.1230  206.9260  157.2430 C   0  0  0  0  0  1  0  0  0  0  0  0
  161.3890  206.9420  149.0850 C   0  0  1  0  0  3  0  0  0  0  0  0
  162.3630  208.1030  149.0240 C   0  0  0  0  0  1  0  0  0  0  0  0
  162.0260  205.7710  148.6560 O   0  0  0  0  0  0  0  0  0  0  0  0
  161.9210  204.3660  146.6360 C   0  0  2  0  0  0  0  0  0  0  0  0
  160.1500  206.5620  144.5580 O   0  0  0  0  0  0  0  0  0  0  0  0
  163.4340  204.5220  146.7120 C   0  0  0  0  0  1  0  0  0  0  0  0
  160.4350  206.3220  146.9430 C   0  0  0  0  0  2  0  0  0  0  0  0
  161.4730  204.8510  145.3820 O   0  0  0  0  0  0  0  0  0  0  0  0
  161.1690  205.2140  147.6990 C   0  0  2  0  0  3  0  0  0  0  0  0
  160.6520  205.9470  145.5340 C   0  0  0  0  0  0  0  0  0  0  0  0
  161.5720  202.8900  146.7810 C   0  0  0  0  0  2  0  0  0  0  0  0
  160.9360  202.4130  145.6330 O   0  0  0  0  0  1  0  0  0  0  0  0
  1  4  1  0  0  0  0
  2  5  1  0  0  0  0
  3 21  1  6  0  0  0
  3  1  1  0  0  0  0
  3 16  1  0  0  0  0
  4  2  2  0  0  0  0
  4 10  1  0  0  0  0
  5 11  1  0  0  0  0
  5 15  1  0  0  0  0
  6 17  1  0  0  0  0
  7 14  1  0  0  0  0
  7  2  1  0  0  0  0
  9  8  1  1  0  0  0
  9 11  1  0  0  0  0
 10 13  1  6  0  0  0
 10 12  1  0  0  0  0
 12 15  1  0  0  0  0
 14 18  1  6  0  0  0
 14  9  1  0  0  0  0
 15 19  1  1  0  0  0
 16 13  1  0  0  0  0
 17  8  1  0  0  0  0
 18  6  1  0  0  0  0
 19 20  1  0  0  0  0
 21 22  1  1  0  0  0
 23 21  1  0  0  0  0
 24 26  1  1  0  0  0
 24 31  1  0  0  0  0
 24 29  1  0  0  0  0
 25 30  2  0  0  0  0
 27 29  1  0  0  0  0
 28 30  1  0  0  0  0
 28 24  1  0  0  0  0
 29 23  1  1  0  0  0
 30 27  1  0  0  0  0
 32 31  1  0  0  0  0
M  END
>  <MODEL>
3

>  <REMARK>
 VINA RESULT:      -8.5      2.828      8.646
  Name = 
  5 active torsions:
  status: ('A' for Active; 'I' for Inactive)
    1  A    between atoms: C_3  and  C_22
    2  A    between atoms: C_4  and  C_24
    3  A    between atoms: C_13  and  C_29
    4  A    between atoms: O_16  and  C_20
    5  A    between atoms: O_16  and  C_24
                            x       y       z     vdW  Elec       q    Type
                         _______ _______ _______ _____ _____    ______ ____

>  <TORSDO>
F 5

$$$$
=
 OpenBabel11062408293D

 32 36  0  0  1  0  0  0  0  0999 V2000
  161.4370  207.1720  151.1200 O   0  0  0  0  0  0  0  0  0  0  0  0
  161.1430  205.3180  149.6580 C   0  0  0  0  0  0  0  0  0  0  0  0
  161.9000  207.6800  152.3750 C   0  0  2  0  0  3  0  0  0  0  0  0
  161.1830  205.8100  150.9070 C   0  0  0  0  0  0  0  0  0  0  0  0
  160.9140  203.9060  149.4280 N   0  0  0  0  0  0  0  0  0  0  0  0
  162.3310  205.8270  144.8180 C   0  0  0  0  0  2  0  0  0  0  0  0
  161.2860  206.2550  148.4900 C   0  0  0  0  0  2  0  0  0  0  0  0
  161.6640  203.5950  145.7200 C   0  0  0  0  0  2  0  0  0  0  0  0
  161.1340  204.2540  146.9910 C   0  0  1  0  0  3  0  0  0  0  0  0
  160.8810  204.9270  152.0990 C   0  0  1  0  0  3  0  0  0  0  0  0
  161.3480  203.3050  148.1610 C   0  0  0  0  0  2  0  0  0  0  0  0
  161.1830  203.4610  151.8200 C   0  0  0  0  0  2  0  0  0  0  0  0
  161.6210  205.4060  153.3380 C   0  0  0  0  0  2  0  0  0  0  0  0
  161.8840  205.5620  147.2720 C   0  0  1  0  0  3  0  0  0  0  0  0
  160.4530  203.0620  150.5480 C   0  0  2  0  0  3  0  0  0  0  0  0
  161.3400  206.8860  153.5530 C   0  0  0  0  0  2  0  0  0  0  0  0
  161.5480  204.5490  144.5370 C   0  0  0  0  0  2  0  0  0  0  0  0
  161.7900  206.5040  146.0740 C   0  0  0  0  0  2  0  0  0  0  0  0
  160.6350  201.5670  150.3060 C   0  0  0  0  0  2  0  0  0  0  0  0
  159.4910  201.0320  149.4670 C   0  0  0  0  0  1  0  0  0  0  0  0
  161.5620  209.1600  152.5150 C   0  0  1  0  0  3  0  0  0  0  0  0
  162.2010  209.9420  151.3820 C   0  0  0  0  0  1  0  0  0  0  0  0
  160.1750  209.3520  152.4940 O   0  0  0  0  0  0  0  0  0  0  0  0
  159.4090  211.3280  153.7470 C   0  0  2  0  0  0  0  0  0  0  0  0
  161.9590  211.4520  156.1460 O   0  0  0  0  0  0  0  0  0  0  0  0
  159.6580  212.0070  152.4070 C   0  0  0  0  0  1  0  0  0  0  0  0
  161.0660  209.7480  154.6890 C   0  0  0  0  0  2  0  0  0  0  0  0
  160.1960  211.9660  154.7370 O   0  0  0  0  0  0  0  0  0  0  0  0
  159.8500  209.8380  153.7650 C   0  0  2  0  0  3  0  0  0  0  0  0
  161.1310  211.1040  155.2650 C   0  0  0  0  0  0  0  0  0  0  0  0
  157.9300  211.4540  154.0930 C   0  0  0  0  0  2  0  0  0  0  0  0
  157.6540  210.8550  155.3250 O   0  0  0  0  0  1  0  0  0  0  0  0
  1  3  1  0  0  0  0
  2  4  2  0  0  0  0
  3 21  1  1  0  0  0
  3 16  1  0  0  0  0
  4  1  1  0  0  0  0
  4 10  1  0  0  0  0
  5  2  1  0  0  0  0
  5 15  1  0  0  0  0
  6 18  1  0  0  0  0
  7  2  1  0  0  0  0
  9  8  1  6  0  0  0
  9 14  1  0  0  0  0
  9 11  1  0  0  0  0
 10 12  1  6  0  0  0
 10 13  1  0  0  0  0
 11  5  1  0  0  0  0
 13 16  1  0  0  0  0
 14 18  1  6  0  0  0
 14  7  1  0  0  0  0
 15 19  1  6  0  0  0
 15 12  1  0  0  0  0
 17  6  1  0  0  0  0
 17  8  1  0  0  0  0
 20 19  1  0  0  0  0
 21 22  1  6  0  0  0
 23 21  1  0  0  0  0
 24 26  1  6  0  0  0
 24 29  1  0  0  0  0
 24 31  1  0  0  0  0
 24 28  1  0  0  0  0
 27 30  1  0  0  0  0
 28 30  1  0  0  0  0
 29 23  1  6  0  0  0
 29 27  1  0  0  0  0
 30 25  2  0  0  0  0
 31 32  1  0  0  0  0
M  END
>  <MODEL>
4

>  <REMARK>
 VINA RESULT:      -8.0      0.775      1.869
  Name = 
  5 active torsions:
  status: ('A' for Active; 'I' for Inactive)
    1  A    between atoms: C_3  and  C_22
    2  A    between atoms: C_4  and  C_24
    3  A    between atoms: C_13  and  C_29
    4  A    between atoms: O_16  and  C_20
    5  A    between atoms: O_16  and  C_24
                            x       y       z     vdW  Elec       q    Type
                         _______ _______ _______ _____ _____    ______ ____

>  <TORSDO>
F 5

$$$$
=
 OpenBabel11062408293D

 32 36  0  0  1  0  0  0  0  0999 V2000
  161.5790  207.3060  151.0030 O   0  0  0  0  0  0  0  0  0  0  0  0
  161.7220  205.6340  149.3170 C   0  0  0  0  0  0  0  0  0  0  0  0
  161.2370  208.6450  151.3740 C   0  0  2  0  0  3  0  0  0  0  0  0
  161.8010  206.9270  149.6720 C   0  0  0  0  0  0  0  0  0  0  0  0
  161.9170  205.2350  147.9380 N   0  0  0  0  0  0  0  0  0  0  0  0
  160.1060  201.0050  150.3410 C   0  0  0  0  0  2  0  0  0  0  0  0
  161.4820  204.5900  150.3730 C   0  0  0  0  0  2  0  0  0  0  0  0
  160.8310  201.5980  148.0260 C   0  0  0  0  0  2  0  0  0  0  0  0
  161.4800  202.8790  148.5440 C   0  0  1  0  0  3  0  0  0  0  0  0
  162.2010  207.9850  148.6670 C   0  0  1  0  0  3  0  0  0  0  0  0
  161.3650  203.9560  147.4760 C   0  0  0  0  0  2  0  0  0  0  0  0
  161.8620  207.5800  147.2400 C   0  0  0  0  0  2  0  0  0  0  0  0
  161.5810  209.3300  149.0100 C   0  0  0  0  0  2  0  0  0  0  0  0
  160.7710  203.3650  149.8150 C   0  0  1  0  0  3  0  0  0  0  0  0
  162.4700  206.2110  146.9790 C   0  0  2  0  0  3  0  0  0  0  0  0
  161.8930  209.6760  150.4590 C   0  0  0  0  0  2  0  0  0  0  0  0
  160.8490  200.5180  149.1010 C   0  0  0  0  0  2  0  0  0  0  0  0
  160.7650  202.2700  150.8790 C   0  0  0  0  0  2  0  0  0  0  0  0
  162.2530  205.8290  145.5190 C   0  0  0  0  0  2  0  0  0  0  0  0
  160.8310  206.1480  145.1020 C   0  0  0  0  0  1  0  0  0  0  0  0
  161.5990  208.9110  152.8310 C   0  0  1  0  0  3  0  0  0  0  0  0
  162.1340  210.3220  152.9780 C   0  0  0  0  0  1  0  0  0  0  0  0
  160.4780  208.7450  153.6540 O   0  0  0  0  0  0  0  0  0  0  0  0
  160.6090  208.8680  156.1100 C   0  0  2  0  0  0  0  0  0  0  0  0
  158.2880  211.4390  156.6330 O   0  0  0  0  0  0  0  0  0  0  0  0
  160.0810  207.4440  155.9940 C   0  0  0  0  0  1  0  0  0  0  0  0
  159.6200  210.6940  154.7640 C   0  0  0  0  0  2  0  0  0  0  0  0
  159.7060  209.6290  156.8930 O   0  0  0  0  0  0  0  0  0  0  0  0
  160.6890  209.6000  154.7420 C   0  0  2  0  0  3  0  0  0  0  0  0
  159.1380  210.6440  156.1560 C   0  0  0  0  0  0  0  0  0  0  0  0
  161.9780  208.8300  156.7790 C   0  0  0  0  0  2  0  0  0  0  0  0
  162.7120  209.9790  156.4760 O   0  0  0  0  0  1  0  0  0  0  0  0
  1  3  1  0  0  0  0
  2  4  2  0  0  0  0
  2  7  1  0  0  0  0
  3 21  1  1  0  0  0
  4  1  1  0  0  0  0
  5  2  1  0  0  0  0
  6 18  1  0  0  0  0
  8  9  1  0  0  0  0
  8 17  1  0  0  0  0
  9 11  1  6  0  0  0
  9 14  1  0  0  0  0
 10 12  1  6  0  0  0
 10 13  1  0  0  0  0
 10  4  1  0  0  0  0
 11  5  1  0  0  0  0
 13 16  1  0  0  0  0
 14  7  1  1  0  0  0
 14 18  1  0  0  0  0
 15 19  1  6  0  0  0
 15 12  1  0  0  0  0
 15  5  1  0  0  0  0
 16  3  1  0  0  0  0
 17  6  1  0  0  0  0
 20 19  1  0  0  0  0
 21 22  1  6  0  0  0
 21 23  1  0  0  0  0
 24 26  1  6  0  0  0
 24 31  1  0  0  0  0
 24 28  1  0  0  0  0
 27 30  1  0  0  0  0
 29 23  1  6  0  0  0
 29 27  1  0  0  0  0
 29 24  1  0  0  0  0
 30 25  2  0  0  0  0
 30 28  1  0  0  0  0
 32 31  1  0  0  0  0
M  END
>  <MODEL>
5

>  <REMARK>
 VINA RESULT:      -8.0      1.558      3.804
  Name = 
  5 active torsions:
  status: ('A' for Active; 'I' for Inactive)
    1  A    between atoms: C_3  and  C_22
    2  A    between atoms: C_4  and  C_24
    3  A    between atoms: C_13  and  C_29
    4  A    between atoms: O_16  and  C_20
    5  A    between atoms: O_16  and  C_24
                            x       y       z     vdW  Elec       q    Type
                         _______ _______ _______ _____ _____    ______ ____

>  <TORSDO>
F 5

$$$$
=
 OpenBabel11062408293D

 32 36  0  0  1  0  0  0  0  0999 V2000
  161.3920  206.5370  150.6780 O   0  0  0  0  0  0  0  0  0  0  0  0
  160.9800  208.3570  152.1540 C   0  0  0  0  0  0  0  0  0  0  0  0
  162.0880  206.0160  149.5420 C   0  0  2  0  0  3  0  0  0  0  0  0
  161.2710  207.9130  150.9200 C   0  0  0  0  0  0  0  0  0  0  0  0
  160.8860  209.7780  152.4230 N   0  0  0  0  0  0  0  0  0  0  0  0
  160.8240  207.4990  157.0870 C   0  0  0  0  0  2  0  0  0  0  0  0
  160.6990  207.3660  153.2500 C   0  0  0  0  0  2  0  0  0  0  0  0
  160.7030  209.8360  156.2140 C   0  0  0  0  0  2  0  0  0  0  0  0
  160.4330  209.3090  154.8070 C   0  0  1  0  0  3  0  0  0  0  0  0
  161.3990  208.8740  149.7590 C   0  0  1  0  0  3  0  0  0  0  0  0
  161.0570  210.2610  153.7980 C   0  0  0  0  0  2  0  0  0  0  0  0
  161.8080  210.2690  150.2100 C   0  0  0  0  0  2  0  0  0  0  0  0
  162.3610  208.3410  148.7080 C   0  0  0  0  0  2  0  0  0  0  0  0
  161.0520  207.9190  154.6250 C   0  0  1  0  0  3  0  0  0  0  0  0
  160.8380  210.7210  151.2890 C   0  0  2  0  0  3  0  0  0  0  0  0
  161.9540  206.9260  148.3230 C   0  0  0  0  0  2  0  0  0  0  0  0
  160.1670  208.8640  157.2590 C   0  0  0  0  0  2  0  0  0  0  0  0
  160.5360  206.9550  155.6910 C   0  0  0  0  0  2  0  0  0  0  0  0
  161.1450  212.1640  151.6770 C   0  0  0  0  0  2  0  0  0  0  0  0
  160.0740  213.0890  151.1310 C   0  0  0  0  0  1  0  0  0  0  0  0
  161.6080  204.6060  149.2150 C   0  0  1  0  0  3  0  0  0  0  0  0
  160.7930  204.0600  150.3730 C   0  0  0  0  0  1  0  0  0  0  0  0
  160.8280  204.6100  148.0530 O   0  0  0  0  0  0  0  0  0  0  0  0
  161.4990  204.3410  145.6980 C   0  0  2  0  0  0  0  0  0  0  0  0
  160.2190  201.1270  145.1490 O   0  0  0  0  0  0  0  0  0  0  0  0
  160.5560  205.5240  145.5200 C   0  0  0  0  0  1  0  0  0  0  0  0
  160.8460  202.4060  147.0970 C   0  0  0  0  0  2  0  0  0  0  0  0
  161.0500  203.2710  144.8860 O   0  0  0  0  0  0  0  0  0  0  0  0
  161.5070  203.7840  147.1490 C   0  0  2  0  0  3  0  0  0  0  0  0
  160.6730  202.1880  145.6490 C   0  0  0  0  0  0  0  0  0  0  0  0
  162.9010  204.7650  145.2780 C   0  0  0  0  0  2  0  0  0  0  0  0
  163.7850  204.7030  146.3590 O   0  0  0  0  0  1  0  0  0  0  0  0
  1  4  1  0  0  0  0
  2  5  1  0  0  0  0
  2  7  1  0  0  0  0
  3 21  1  6  0  0  0
  3  1  1  0  0  0  0
  4  2  2  0  0  0  0
  5 11  1  0  0  0  0
  6 17  1  0  0  0  0
  8 17  1  0  0  0  0
  9 11  1  6  0  0  0
  9  8  1  0  0  0  0
 10 13  1  6  0  0  0
 10 12  1  0  0  0  0
 10  4  1  0  0  0  0
 12 15  1  0  0  0  0
 14  7  1  6  0  0  0
 14  9  1  0  0  0  0
 14 18  1  0  0  0  0
 15 19  1  1  0  0  0
 15  5  1  0  0  0  0
 16 13  1  0  0  0  0
 16  3  1  0  0  0  0
 18  6  1  0  0  0  0
 20 19  1  0  0  0  0
 21 22  1  1  0  0  0
 23 21  1  0  0  0  0
 24 26  1  6  0  0  0
 24 29  1  0  0  0  0
 25 30  2  0  0  0  0
 27 29  1  0  0  0  0
 28 30  1  0  0  0  0
 28 24  1  0  0  0  0
 29 23  1  1  0  0  0
 30 27  1  0  0  0  0
 31 24  1  0  0  0  0
 31 32  1  0  0  0  0
M  END
>  <MODEL>
6

>  <REMARK>
 VINA RESULT:      -7.3      2.993      9.252
  Name = 
  5 active torsions:
  status: ('A' for Active; 'I' for Inactive)
    1  A    between atoms: C_3  and  C_22
    2  A    between atoms: C_4  and  C_24
    3  A    between atoms: C_13  and  C_29
    4  A    between atoms: O_16  and  C_20
    5  A    between atoms: O_16  and  C_24
                            x       y       z     vdW  Elec       q    Type
                         _______ _______ _______ _____ _____    ______ ____

>  <TORSDO>
F 5

$$$$
=
 OpenBabel11062408293D

 32 36  0  0  1  0  0  0  0  0999 V2000
  161.3660  204.5110  149.7880 O   0  0  0  0  0  0  0  0  0  0  0  0
  161.6890  206.5560  150.9610 C   0  0  0  0  0  0  0  0  0  0  0  0
  160.7260  203.2330  149.7080 C   0  0  2  0  0  3  0  0  0  0  0  0
  161.4570  205.2330  150.9860 C   0  0  0  0  0  0  0  0  0  0  0  0
  161.7510  207.3170  152.1910 N   0  0  0  0  0  0  0  0  0  0  0  0
  161.6470  210.8590  148.3970 C   0  0  0  0  0  2  0  0  0  0  0  0
  161.9370  207.2370  149.6430 C   0  0  0  0  0  2  0  0  0  0  0  0
  161.7710  210.8840  150.8910 C   0  0  0  0  0  2  0  0  0  0  0  0
  162.1090  209.3960  150.9020 C   0  0  1  0  0  3  0  0  0  0  0  0
  161.3650  204.4870  152.2990 C   0  0  1  0  0  3  0  0  0  0  0  0
  161.5140  208.7650  152.1520 C   0  0  0  0  0  2  0  0  0  0  0  0
  160.9160  205.3870  153.4420 C   0  0  0  0  0  2  0  0  0  0  0  0
  160.4560  203.2730  152.1780 C   0  0  0  0  0  2  0  0  0  0  0  0
  161.5180  208.7020  149.6690 C   0  0  1  0  0  3  0  0  0  0  0  0
  161.8340  206.5980  153.4770 C   0  0  2  0  0  3  0  0  0  0  0  0
  160.8990  202.4270  150.9940 C   0  0  0  0  0  2  0  0  0  0  0  0
  162.2760  211.5370  149.6100 C   0  0  0  0  0  2  0  0  0  0  0  0
  162.0020  209.3760  148.3870 C   0  0  0  0  0  2  0  0  0  0  0  0
  161.4900  207.4610  154.6870 C   0  0  0  0  0  2  0  0  0  0  0  0
  160.1650  207.0230  155.2800 C   0  0  0  0  0  1  0  0  0  0  0  0
  161.2410  202.4470  148.5070 C   0  0  1  0  0  3  0  0  0  0  0  0
  161.0450  200.9620  148.7430 C   0  0  0  0  0  1  0  0  0  0  0  0
  160.5630  202.8300  147.3430 O   0  0  0  0  0  0  0  0  0  0  0  0
  160.8680  204.3740  145.4480 C   0  0  2  0  0  0  0  0  0  0  0  0
  164.3700  204.4370  145.3780 O   0  0  0  0  0  0  0  0  0  0  0  0
  160.1600  203.2520  144.7000 C   0  0  0  0  0  1  0  0  0  0  0  0
  162.7040  203.8730  147.0310 C   0  0  0  0  0  2  0  0  0  0  0  0
  162.1250  204.6090  144.8390 O   0  0  0  0  0  0  0  0  0  0  0  0
  161.1840  204.0130  146.9260 C   0  0  2  0  0  3  0  0  0  0  0  0
  163.1600  204.3250  145.7030 C   0  0  0  0  0  0  0  0  0  0  0  0
  160.0080  205.6300  145.3750 C   0  0  0  0  0  2  0  0  0  0  0  0
  160.3630  206.5360  146.3780 O   0  0  0  0  0  1  0  0  0  0  0  0
  1  4  1  0  0  0  0
  2  4  2  0  0  0  0
  2  5  1  0  0  0  0
  3 21  1  6  0  0  0
  3  1  1  0  0  0  0
  3 16  1  0  0  0  0
  4 10  1  0  0  0  0
  5 15  1  0  0  0  0
  6 17  1  0  0  0  0
  7 14  1  0  0  0  0
  7  2  1  0  0  0  0
  9  8  1  6  0  0  0
  9 11  1  0  0  0  0
 10 13  1  6  0  0  0
 10 12  1  0  0  0  0
 11  5  1  0  0  0  0
 12 15  1  0  0  0  0
 14 18  1  6  0  0  0
 14  9  1  0  0  0  0
 15 19  1  1  0  0  0
 16 13  1  0  0  0  0
 17  8  1  0  0  0  0
 18  6  1  0  0  0  0
 19 20  1  0  0  0  0
 21 22  1  1  0  0  0
 23 21  1  0  0  0  0
 24 26  1  6  0  0  0
 24 29  1  0  0  0  0
 25 30  2  0  0  0  0
 28 24  1  0  0  0  0
 28 30  1  0  0  0  0
 29 27  1  0  0  0  0
 29 23  1  6  0  0  0
 30 27  1  0  0  0  0
 31 24  1  0  0  0  0
 31 32  1  0  0  0  0
M  END
>  <MODEL>
7

>  <REMARK>
 VINA RESULT:      -7.2      3.625      7.921
  Name = 
  5 active torsions:
  status: ('A' for Active; 'I' for Inactive)
    1  A    between atoms: C_3  and  C_22
    2  A    between atoms: C_4  and  C_24
    3  A    between atoms: C_13  and  C_29
    4  A    between atoms: O_16  and  C_20
    5  A    between atoms: O_16  and  C_24
                            x       y       z     vdW  Elec       q    Type
                         _______ _______ _______ _____ _____    ______ ____

>  <TORSDO>
F 5

$$$$
=
 OpenBabel11062408293D

 32 36  0  0  1  0  0  0  0  0999 V2000
  161.9870  210.4050  150.5700 O   0  0  0  0  0  0  0  0  0  0  0  0
  161.6290  208.7070  152.1990 C   0  0  0  0  0  0  0  0  0  0  0  0
  161.8160  210.8690  149.2280 C   0  0  2  0  0  3  0  0  0  0  0  0
  161.8600  209.0540  150.9210 C   0  0  0  0  0  0  0  0  0  0  0  0
  161.4630  207.3160  152.5670 N   0  0  0  0  0  0  0  0  0  0  0  0
  160.0670  210.0190  156.7730 C   0  0  0  0  0  2  0  0  0  0  0  0
  161.5980  209.7740  153.2600 C   0  0  0  0  0  2  0  0  0  0  0  0
  160.2400  207.6070  156.1500 C   0  0  0  0  0  2  0  0  0  0  0  0
  161.0620  207.9730  154.9160 C   0  0  1  0  0  3  0  0  0  0  0  0
  162.0600  207.9980  149.8560 C   0  0  1  0  0  3  0  0  0  0  0  0
  160.7490  206.9820  153.8050 C   0  0  0  0  0  2  0  0  0  0  0  0
  161.3640  206.6900  150.2030 C   0  0  0  0  0  2  0  0  0  0  0  0
  161.6140  208.5040  148.4920 C   0  0  0  0  0  2  0  0  0  0  0  0
  160.7090  209.3850  154.4340 C   0  0  1  0  0  3  0  0  0  0  0  0
  161.8180  206.2680  151.5910 C   0  0  2  0  0  3  0  0  0  0  0  0
  162.2850  209.8380  148.2030 C   0  0  0  0  0  2  0  0  0  0  0  0
  160.4610  208.6290  157.2600 C   0  0  0  0  0  2  0  0  0  0  0  0
  160.9030  210.4020  155.5560 C   0  0  0  0  0  2  0  0  0  0  0  0
  161.2340  204.8980  151.9220 C   0  0  0  0  0  2  0  0  0  0  0  0
  160.8440  204.1760  150.6470 C   0  0  0  0  0  1  0  0  0  0  0  0
  162.5340  212.1980  149.0210 C   0  0  1  0  0  3  0  0  0  0  0  0
  163.2890  212.1750  147.7050 C   0  0  0  0  0  1  0  0  0  0  0  0
  161.6170  213.2560  149.0170 O   0  0  0  0  0  0  0  0  0  0  0  0
  159.9320  213.2520  147.2210 C   0  0  2  0  0  0  0  0  0  0  0  0
  157.0840  213.8540  149.1690 O   0  0  0  0  0  0  0  0  0  0  0  0
  160.7430  214.4530  146.7530 C   0  0  0  0  0  1  0  0  0  0  0  0
  159.3010  213.0060  149.6010 C   0  0  0  0  0  2  0  0  0  0  0  0
  158.5890  213.6560  147.4220 O   0  0  0  0  0  0  0  0  0  0  0  0
  160.4070  212.6960  148.5920 C   0  0  2  0  0  3  0  0  0  0  0  0
  158.2240  213.5350  148.7450 C   0  0  0  0  0  0  0  0  0  0  0  0
  159.9980  212.1690  146.1500 C   0  0  0  0  0  2  0  0  0  0  0  0
  158.8710  212.2130  145.3270 O   0  0  0  0  0  1  0  0  0  0  0  0
  1  4  1  0  0  0  0
  2  5  1  0  0  0  0
  2  7  1  0  0  0  0
  3 21  1  1  0  0  0
  3  1  1  0  0  0  0
  4  2  2  0  0  0  0
  5 11  1  0  0  0  0
  6 17  1  0  0  0  0
  8 17  1  0  0  0  0
  9 11  1  6  0  0  0
  9  8  1  0  0  0  0
 10 13  1  6  0  0  0
 10 12  1  0  0  0  0
 10  4  1  0  0  0  0
 12 15  1  0  0  0  0
 14  7  1  6  0  0  0
 14  9  1  0  0  0  0
 14 18  1  0  0  0  0
 15 19  1  1  0  0  0
 15  5  1  0  0  0  0
 16 13  1  0  0  0  0
 16  3  1  0  0  0  0
 18  6  1  0  0  0  0
 20 19  1  0  0  0  0
 21 22  1  6  0  0  0
 23 21  1  0  0  0  0
 24 26  1  6  0  0  0
 24 28  1  0  0  0  0
 24 29  1  0  0  0  0
 28 30  1  0  0  0  0
 29 23  1  1  0  0  0
 29 27  1  0  0  0  0
 30 25  2  0  0  0  0
 30 27  1  0  0  0  0
 31 24  1  0  0  0  0
 32 31  1  0  0  0  0
M  END
>  <MODEL>
8

>  <REMARK>
 VINA RESULT:      -7.1      3.509      7.062
  Name = 
  5 active torsions:
  status: ('A' for Active; 'I' for Inactive)
    1  A    between atoms: C_3  and  C_22
    2  A    between atoms: C_4  and  C_24
    3  A    between atoms: C_13  and  C_29
    4  A    between atoms: O_16  and  C_20
    5  A    between atoms: O_16  and  C_24
                            x       y       z     vdW  Elec       q    Type
                         _______ _______ _______ _____ _____    ______ ____

>  <TORSDO>
F 5

$$$$
=
 OpenBabel11062408293D

 32 36  0  0  1  0  0  0  0  0999 V2000
  161.4480  209.3070  149.4020 O   0  0  0  0  0  0  0  0  0  0  0  0
  161.2670  206.9350  149.4560 C   0  0  0  0  0  0  0  0  0  0  0  0
  161.9460  210.5110  149.9940 C   0  0  2  0  0  3  0  0  0  0  0  0
  161.3490  208.1040  150.1140 C   0  0  0  0  0  0  0  0  0  0  0  0
  161.1980  205.6840  150.1820 N   0  0  0  0  0  0  0  0  0  0  0  0
  161.9750  204.3470  145.2270 C   0  0  0  0  0  2  0  0  0  0  0  0
  161.1940  206.9360  147.9540 C   0  0  0  0  0  2  0  0  0  0  0  0
  161.6700  203.1480  147.3960 C   0  0  0  0  0  2  0  0  0  0  0  0
  161.1700  204.4340  148.0500 C   0  0  1  0  0  3  0  0  0  0  0  0
  161.2600  208.1520  151.6240 C   0  0  1  0  0  3  0  0  0  0  0  0
  161.5970  204.4410  149.5100 C   0  0  0  0  0  2  0  0  0  0  0  0
  161.7190  206.8520  152.2690 C   0  0  0  0  0  2  0  0  0  0  0  0
  162.0350  209.3360  152.1820 C   0  0  0  0  0  2  0  0  0  0  0  0
  161.7700  205.6610  147.3530 C   0  0  1  0  0  3  0  0  0  0  0  0
  160.9410  205.7090  151.6350 C   0  0  2  0  0  3  0  0  0  0  0  0
  161.5900  210.6080  151.4760 C   0  0  0  0  0  2  0  0  0  0  0  0
  161.3370  203.1410  145.9090 C   0  0  0  0  0  2  0  0  0  0  0  0
  161.4600  205.6360  145.8580 C   0  0  0  0  0  2  0  0  0  0  0  0
  161.2880  204.4040  152.3440 C   0  0  0  0  0  2  0  0  0  0  0  0
  160.3860  203.2890  151.8520 C   0  0  0  0  0  1  0  0  0  0  0  0
  161.4380  211.7340  149.2370 C   0  0  1  0  0  3  0  0  0  0  0  0
  161.3070  212.9080  150.1880 C   0  0  0  0  0  1  0  0  0  0  0  0
  162.3160  212.0670  148.1980 O   0  0  0  0  0  0  0  0  0  0  0  0
  161.8660  213.5560  146.2880 C   0  0  2  0  0  0  0  0  0  0  0  0
  158.4470  214.0930  146.8330 O   0  0  0  0  0  0  0  0  0  0  0  0
  162.8550  214.4470  147.0290 C   0  0  0  0  0  1  0  0  0  0  0  0
  160.0410  212.4120  147.5080 C   0  0  0  0  0  2  0  0  0  0  0  0
  160.6460  214.2580  146.1290 O   0  0  0  0  0  0  0  0  0  0  0  0
  161.5020  212.2680  147.0770 C   0  0  2  0  0  3  0  0  0  0  0  0
  159.6210  213.6400  146.8100 C   0  0  0  0  0  0  0  0  0  0  0  0
  162.4490  213.2030  144.9260 C   0  0  0  0  0  2  0  0  0  0  0  0
  163.2010  214.2640  144.4160 O   0  0  0  0  0  1  0  0  0  0  0  0
  1  3  1  0  0  0  0
  1  4  1  0  0  0  0
  2  4  2  0  0  0  0
  2  5  1  0  0  0  0
  3 21  1  6  0  0  0
  3 16  1  0  0  0  0
  4 10  1  0  0  0  0
  5 15  1  0  0  0  0
  6 18  1  0  0  0  0
  6 17  1  0  0  0  0
  7  2  1  0  0  0  0
  9  8  1  6  0  0  0
  9 11  1  0  0  0  0
 10 13  1  1  0  0  0
 10 12  1  0  0  0  0
 11  5  1  0  0  0  0
 14 18  1  6  0  0  0
 14  7  1  0  0  0  0
 14  9  1  0  0  0  0
 15 12  1  0  0  0  0
 15 19  1  1  0  0  0
 16 13  1  0  0  0  0
 17  8  1  0  0  0  0
 20 19  1  0  0  0  0
 21 22  1  1  0  0  0
 23 21  1  0  0  0  0
 24 26  1  1  0  0  0
 24 29  1  0  0  0  0
 28 24  1  0  0  0  0
 28 30  1  0  0  0  0
 29 27  1  0  0  0  0
 29 23  1  1  0  0  0
 30 25  2  0  0  0  0
 30 27  1  0  0  0  0
 31 24  1  0  0  0  0
 32 31  1  0  0  0  0
M  END
>  <MODEL>
9

>  <REMARK>
 VINA RESULT:      -7.0      3.808      5.246
  Name = 
  5 active torsions:
  status: ('A' for Active; 'I' for Inactive)
    1  A    between atoms: C_3  and  C_22
    2  A    between atoms: C_4  and  C_24
    3  A    between atoms: C_13  and  C_29
    4  A    between atoms: O_16  and  C_20
    5  A    between atoms: O_16  and  C_24
                            x       y       z     vdW  Elec       q    Type
                         _______ _______ _______ _____ _____    ______ ____

>  <TORSDO>
F 5

$$$$
