=
 OpenBabel11062408053D

 34 40  0  0  1  0  0  0  0  0999 V2000
  161.1180  206.9960  153.7430 C   0  0  0  0  0  0  0  0  0  0  0  0
  161.5640  209.2440  152.8450 C   0  0  0  0  0  0  0  0  0  0  0  0
  161.4420  207.3260  151.3640 C   0  0  0  0  0  0  0  0  0  0  0  0
  161.7490  207.8860  149.0770 C   0  0  0  0  0  0  0  0  0  0  0  0
  161.2430  208.9140  155.2270 C   0  0  0  0  0  3  0  0  0  0  0  0
  161.4960  209.7660  154.1390 C   0  0  0  0  0  3  0  0  0  0  0  0
  161.8560  209.4900  150.5280 C   0  0  0  0  0  0  0  0  0  0  0  0
  161.3750  207.8480  152.6600 C   0  0  2  0  0  3  0  0  0  0  0  0
  161.9750  209.0460  148.3340 C   0  0  0  0  0  3  0  0  0  0  0  0
  161.0540  207.5360  155.0310 C   0  0  0  0  0  3  0  0  0  0  0  0
  161.2600  205.9570  151.0950 C   0  0  0  0  0  0  0  0  0  0  0  0
  160.9260  205.6290  153.5070 C   0  0  0  0  0  3  0  0  0  0  0  0
  161.8020  210.0580  151.7650 N   0  0  0  0  0  0  0  0  0  0  0  0
  161.5430  206.4720  148.6190 C   0  0  0  0  0  3  0  0  0  0  0  0
  161.3250  205.5050  149.7990 C   0  0  0  0  0  0  0  0  0  0  0  0
  162.0550  210.0730  149.2930 C   0  0  0  0  0  0  0  0  0  0  0  0
  161.6820  208.1840  150.3660 N   0  0  0  0  0  0  0  0  0  0  0  0
  160.9940  205.1160  152.1980 C   0  0  0  0  0  3  0  0  0  0  0  0
  160.9950  202.2880  147.7930 C   0  0  0  0  0  0  0  0  0  0  0  0
  160.8020  201.3540  148.8130 C   0  0  0  0  0  3  0  0  0  0  0  0
  161.1720  204.0690  149.4440 C   0  0  0  0  0  0  0  0  0  0  0  0
  160.7830  201.7700  150.1470 C   0  0  0  0  0  3  0  0  0  0  0  0
  161.1730  203.6390  148.1070 C   0  0  0  0  0  3  0  0  0  0  0  0
  160.9630  203.1210  150.4600 C   0  0  0  0  0  3  0  0  0  0  0  0
  161.0070  201.8770  146.4680 O   0  0  0  0  0  1  0  0  0  0  0  0
  162.2320  211.5250  149.0140 C   0  0  0  0  0  2  0  0  0  0  0  0
  160.9490  212.1000  148.4410 C   0  0  0  0  0  2  0  0  0  0  0  0
  158.8770  212.1080  146.4700 F   0  0  0  0  0  0  0  0  0  0  0  0
  161.1690  212.5370  147.0320 C   0  0  0  0  0  0  0  0  0  0  0  0
  160.1170  212.5130  146.1010 C   0  0  0  0  0  0  0  0  0  0  0  0
  161.6210  213.3250  144.3830 C   0  0  0  0  0  3  0  0  0  0  0  0
  162.6690  213.3440  145.3080 C   0  0  0  0  0  3  0  0  0  0  0  0
  162.4440  212.9490  146.6290 C   0  0  0  0  0  3  0  0  0  0  0  0
  160.3470  212.9090  144.7800 C   0  0  0  0  0  3  0  0  0  0  0  0
  1 10  2  0  0  0  0
  2  6  1  0  0  0  0
  4 17  1  0  0  0  0
  6  5  2  0  0  0  0
  7 13  1  0  0  0  0
  8  3  1  6  0  0  0
  8  2  1  0  0  0  0
  8  1  1  0  0  0  0
  9  4  2  0  0  0  0
  9 16  1  0  0  0  0
 10  5  1  0  0  0  0
 11  3  2  0  0  0  0
 11 18  1  0  0  0  0
 12  1  1  0  0  0  0
 13  2  2  0  0  0  0
 14  4  1  0  0  0  0
 14 15  2  0  0  0  0
 15 11  1  0  0  0  0
 16  7  2  0  0  0  0
 17  7  1  0  0  0  0
 17  3  1  0  0  0  0
 18 12  2  0  0  0  0
 19 23  2  0  0  0  0
 19 20  1  0  0  0  0
 20 22  2  0  0  0  0
 21 15  1  0  0  0  0
 21 24  2  0  0  0  0
 22 24  1  0  0  0  0
 23 21  1  0  0  0  0
 25 19  1  0  0  0  0
 26 16  1  0  0  0  0
 27 26  1  0  0  0  0
 29 27  1  0  0  0  0
 30 28  1  0  0  0  0
 30 29  2  0  0  0  0
 31 34  2  0  0  0  0
 31 32  1  0  0  0  0
 32 33  2  0  0  0  0
 33 29  1  0  0  0  0
 34 30  1  0  0  0  0
M  END
>  <MODEL>
1

>  <REMARK>
 VINA RESULT:     -11.7      0.000      0.000
  Name = 
  4 active torsions:
  status: ('A' for Active; 'I' for Inactive)
    1  A    between atoms: C_3  and  C_13
    2  A    between atoms: C_3  and  C_17
    3  A    between atoms: C_12  and  C_28
    4  A    between atoms: C_17  and  C_29
                            x       y       z     vdW  Elec       q    Type
                         _______ _______ _______ _____ _____    ______ ____

>  <TORSDO>
F 4

$$$$
=
 OpenBabel11062408053D

 34 40  0  0  1  0  0  0  0  0999 V2000
  161.0470  206.8610  153.8440 C   0  0  0  0  0  0  0  0  0  0  0  0
  161.4790  209.1270  152.9890 C   0  0  0  0  0  0  0  0  0  0  0  0
  161.3850  207.2330  151.4740 C   0  0  0  0  0  0  0  0  0  0  0  0
  161.7040  207.8350  149.1990 C   0  0  0  0  0  0  0  0  0  0  0  0
  161.1440  208.7540  155.3620 C   0  0  0  0  0  3  0  0  0  0  0  0
  161.3970  209.6260  154.2910 C   0  0  0  0  0  3  0  0  0  0  0  0
  161.7850  209.4150  150.6790 C   0  0  0  0  0  0  0  0  0  0  0  0
  161.3040  207.7330  152.7780 C   0  0  2  0  0  3  0  0  0  0  0  0
  161.9240  209.0100  148.4770 C   0  0  0  0  0  3  0  0  0  0  0  0
  160.9680  207.3770  155.1410 C   0  0  0  0  0  3  0  0  0  0  0  0
  161.2180  205.8680  151.1800 C   0  0  0  0  0  0  0  0  0  0  0  0
  160.8700  205.4950  153.5840 C   0  0  0  0  0  3  0  0  0  0  0  0
  161.7170  209.9620  151.9240 N   0  0  0  0  0  0  0  0  0  0  0  0
  161.5140  206.4280  148.7160 C   0  0  0  0  0  3  0  0  0  0  0  0
  161.2960  205.4380  149.8770 C   0  0  0  0  0  0  0  0  0  0  0  0
  161.9880  210.0220  149.4550 C   0  0  0  0  0  0  0  0  0  0  0  0
  161.6240  208.1110  150.4920 N   0  0  0  0  0  0  0  0  0  0  0  0
  160.9520  205.0060  152.2670 C   0  0  0  0  0  3  0  0  0  0  0  0
  161.0170  202.2530  147.8150 C   0  0  0  0  0  0  0  0  0  0  0  0
  160.8190  201.3010  148.8170 C   0  0  0  0  0  3  0  0  0  0  0  0
  161.1590  204.0080  149.4970 C   0  0  0  0  0  0  0  0  0  0  0  0
  160.7810  201.6950  150.1570 C   0  0  0  0  0  3  0  0  0  0  0  0
  161.1800  203.6000  148.1530 C   0  0  0  0  0  3  0  0  0  0  0  0
  160.9460  203.0420  150.4940 C   0  0  0  0  0  3  0  0  0  0  0  0
  161.0490  201.8640  146.4840 O   0  0  0  0  0  1  0  0  0  0  0  0
  162.1530  211.4800  149.2020 C   0  0  0  0  0  2  0  0  0  0  0  0
  161.7320  211.8070  147.7810 C   0  0  0  0  0  2  0  0  0  0  0  0
  159.8390  211.7870  145.6370 F   0  0  0  0  0  0  0  0  0  0  0  0
  160.4850  212.6240  147.7910 C   0  0  0  0  0  0  0  0  0  0  0  0
  159.5910  212.5840  146.7070 C   0  0  0  0  0  0  0  0  0  0  0  0
  158.1690  214.1980  147.8210 C   0  0  0  0  0  3  0  0  0  0  0  0
  159.0600  214.2430  148.8980 C   0  0  0  0  0  3  0  0  0  0  0  0
  160.2170  213.4590  148.8810 C   0  0  0  0  0  3  0  0  0  0  0  0
  158.4360  213.3700  146.7280 C   0  0  0  0  0  3  0  0  0  0  0  0
  1 10  2  0  0  0  0
  2  6  1  0  0  0  0
  4 17  1  0  0  0  0
  6  5  2  0  0  0  0
  7 13  1  0  0  0  0
  8  3  1  6  0  0  0
  8  2  1  0  0  0  0
  8  1  1  0  0  0  0
  9  4  2  0  0  0  0
  9 16  1  0  0  0  0
 10  5  1  0  0  0  0
 11  3  2  0  0  0  0
 11 18  1  0  0  0  0
 12  1  1  0  0  0  0
 13  2  2  0  0  0  0
 14  4  1  0  0  0  0
 14 15  2  0  0  0  0
 15 11  1  0  0  0  0
 16  7  2  0  0  0  0
 17  7  1  0  0  0  0
 17  3  1  0  0  0  0
 18 12  2  0  0  0  0
 19 23  2  0  0  0  0
 19 20  1  0  0  0  0
 20 22  2  0  0  0  0
 21 15  1  0  0  0  0
 21 24  2  0  0  0  0
 22 24  1  0  0  0  0
 23 21  1  0  0  0  0
 25 19  1  0  0  0  0
 26 16  1  0  0  0  0
 27 29  1  0  0  0  0
 27 26  1  0  0  0  0
 28 30  1  0  0  0  0
 29 33  1  0  0  0  0
 30 34  1  0  0  0  0
 30 29  2  0  0  0  0
 31 32  1  0  0  0  0
 33 32  2  0  0  0  0
 34 31  2  0  0  0  0
M  END
>  <MODEL>
2

>  <REMARK>
 VINA RESULT:     -11.6      0.969      1.479
  Name = 
  4 active torsions:
  status: ('A' for Active; 'I' for Inactive)
    1  A    between atoms: C_3  and  C_13
    2  A    between atoms: C_3  and  C_17
    3  A    between atoms: C_12  and  C_28
    4  A    between atoms: C_17  and  C_29
                            x       y       z     vdW  Elec       q    Type
                         _______ _______ _______ _____ _____    ______ ____

>  <TORSDO>
F 4

$$$$
=
 OpenBabel11062408053D

 34 40  0  0  1  0  0  0  0  0999 V2000
  161.8580  208.5130  148.9700 C   0  0  0  0  0  0  0  0  0  0  0  0
  161.7230  209.3520  151.2800 C   0  0  0  0  0  0  0  0  0  0  0  0
  161.4570  206.9860  150.8080 C   0  0  0  0  0  0  0  0  0  0  0  0
  161.1140  205.6740  152.7570 C   0  0  0  0  0  0  0  0  0  0  0  0
  162.1210  210.8810  149.4400 C   0  0  0  0  0  3  0  0  0  0  0  0
  161.9460  210.6500  150.8140 C   0  0  0  0  0  3  0  0  0  0  0  0
  161.3440  207.8120  153.0120 C   0  0  0  0  0  0  0  0  0  0  0  0
  161.6780  208.2860  150.3410 C   0  0  2  0  0  3  0  0  0  0  0  0
  161.0330  205.8960  154.1340 C   0  0  0  0  0  3  0  0  0  0  0  0
  162.0790  209.8190  148.5210 C   0  0  0  0  0  3  0  0  0  0  0  0
  161.4040  205.8760  149.9460 C   0  0  0  0  0  0  0  0  0  0  0  0
  161.8170  207.4280  148.0850 C   0  0  0  0  0  3  0  0  0  0  0  0
  161.5570  209.1000  152.6200 N   0  0  0  0  0  0  0  0  0  0  0  0
  161.0670  204.3900  151.9830 C   0  0  0  0  0  3  0  0  0  0  0  0
  161.1960  204.6210  150.4650 C   0  0  0  0  0  0  0  0  0  0  0  0
  161.1700  207.2890  154.2780 C   0  0  0  0  0  0  0  0  0  0  0  0
  161.3000  206.8240  152.1270 N   0  0  0  0  0  0  0  0  0  0  0  0
  161.5950  206.1240  148.5680 C   0  0  0  0  0  3  0  0  0  0  0  0
  161.0800  202.3370  147.4240 C   0  0  0  0  0  0  0  0  0  0  0  0
  160.8340  201.1010  148.0250 C   0  0  0  0  0  3  0  0  0  0  0  0
  161.0990  203.4080  149.6100 C   0  0  0  0  0  0  0  0  0  0  0  0
  160.7110  201.0130  149.4140 C   0  0  0  0  0  3  0  0  0  0  0  0
  161.2060  203.4860  148.2110 C   0  0  0  0  0  3  0  0  0  0  0  0
  160.8390  202.1610  150.2010 C   0  0  0  0  0  3  0  0  0  0  0  0
  161.1960  202.4270  146.0440 O   0  0  0  0  0  1  0  0  0  0  0  0
  161.2110  208.0400  155.5630 C   0  0  0  0  0  2  0  0  0  0  0  0
  159.8360  208.6050  155.8750 C   0  0  0  0  0  2  0  0  0  0  0  0
  159.0490  210.3550  153.7540 F   0  0  0  0  0  0  0  0  0  0  0  0
  159.9050  210.0910  155.9800 C   0  0  0  0  0  0  0  0  0  0  0  0
  159.5130  210.9050  154.9040 C   0  0  0  0  0  0  0  0  0  0  0  0
  160.0810  212.8770  156.1920 C   0  0  0  0  0  3  0  0  0  0  0  0
  160.4760  212.0680  157.2610 C   0  0  0  0  0  3  0  0  0  0  0  0
  160.3900  210.6770  157.1540 C   0  0  0  0  0  3  0  0  0  0  0  0
  159.6010  212.2960  155.0150 C   0  0  0  0  0  3  0  0  0  0  0  0
  2 13  2  0  0  0  0
  3 17  1  0  0  0  0
  4  9  2  0  0  0  0
  5  6  2  0  0  0  0
  6  2  1  0  0  0  0
  7 16  2  0  0  0  0
  8  1  1  1  0  0  0
  8  3  1  0  0  0  0
  8  2  1  0  0  0  0
  9 16  1  0  0  0  0
 10  1  2  0  0  0  0
 10  5  1  0  0  0  0
 11 15  1  0  0  0  0
 11  3  2  0  0  0  0
 12 18  2  0  0  0  0
 12  1  1  0  0  0  0
 13  7  1  0  0  0  0
 14  4  1  0  0  0  0
 15 14  2  0  0  0  0
 16 26  1  0  0  0  0
 17  4  1  0  0  0  0
 17  7  1  0  0  0  0
 18 11  1  0  0  0  0
 19 20  2  0  0  0  0
 19 23  1  0  0  0  0
 20 22  1  0  0  0  0
 21 24  1  0  0  0  0
 21 15  1  0  0  0  0
 22 24  2  0  0  0  0
 23 21  2  0  0  0  0
 25 19  1  0  0  0  0
 26 27  1  0  0  0  0
 27 29  1  0  0  0  0
 28 30  1  0  0  0  0
 29 33  1  0  0  0  0
 30 34  1  0  0  0  0
 30 29  2  0  0  0  0
 31 32  1  0  0  0  0
 33 32  2  0  0  0  0
 34 31  2  0  0  0  0
M  END
>  <MODEL>
3

>  <REMARK>
 VINA RESULT:     -11.6      2.440      5.897
  Name = 
  4 active torsions:
  status: ('A' for Active; 'I' for Inactive)
    1  A    between atoms: C_3  and  C_13
    2  A    between atoms: C_3  and  C_17
    3  A    between atoms: C_12  and  C_28
    4  A    between atoms: C_17  and  C_29
                            x       y       z     vdW  Elec       q    Type
                         _______ _______ _______ _____ _____    ______ ____

>  <TORSDO>
F 4

$$$$
=
 OpenBabel11062408053D

 34 40  0  0  1  0  0  0  0  0999 V2000
  161.0960  206.9470  153.5070 C   0  0  0  0  0  0  0  0  0  0  0  0
  161.5440  209.2660  152.8150 C   0  0  0  0  0  0  0  0  0  0  0  0
  161.4360  207.4850  151.1700 C   0  0  0  0  0  0  0  0  0  0  0  0
  161.7590  208.2450  148.9430 C   0  0  0  0  0  0  0  0  0  0  0  0
  161.2060  208.7260  155.1560 C   0  0  0  0  0  3  0  0  0  0  0  0
  161.4650  209.6710  154.1490 C   0  0  0  0  0  3  0  0  0  0  0  0
  161.8520  209.7150  150.5310 C   0  0  0  0  0  0  0  0  0  0  0  0
  161.3590  207.8910  152.5060 C   0  0  2  0  0  3  0  0  0  0  0  0
  161.9880  209.4670  148.3070 C   0  0  0  0  0  3  0  0  0  0  0  0
  161.0210  207.3710  154.8380 C   0  0  0  0  0  3  0  0  0  0  0  0
  161.2600  206.1460  150.7790 C   0  0  0  0  0  0  0  0  0  0  0  0
  160.9090  205.6050  153.1510 C   0  0  0  0  0  3  0  0  0  0  0  0
  161.7880  210.1730  151.8130 N   0  0  0  0  0  0  0  0  0  0  0  0
  161.5600  206.8770  148.3610 C   0  0  0  0  0  3  0  0  0  0  0  0
  161.3350  205.8090  149.4490 C   0  0  0  0  0  0  0  0  0  0  0  0
  162.0590  210.4060  149.3540 C   0  0  0  0  0  0  0  0  0  0  0  0
  161.6820  208.4290  150.2530 N   0  0  0  0  0  0  0  0  0  0  0  0
  160.9880  205.2100  151.8020 C   0  0  0  0  0  3  0  0  0  0  0  0
  160.7090  202.0570  149.3710 C   0  0  0  0  0  0  0  0  0  0  0  0
  160.9950  201.7650  148.0360 C   0  0  0  0  0  3  0  0  0  0  0  0
  161.1870  204.4100  148.9680 C   0  0  0  0  0  0  0  0  0  0  0  0
  161.3860  202.7850  147.1660 C   0  0  0  0  0  3  0  0  0  0  0  0
  160.8100  203.3720  149.8360 C   0  0  0  0  0  3  0  0  0  0  0  0
  161.4860  204.1000  147.6310 C   0  0  0  0  0  3  0  0  0  0  0  0
  160.3260  201.0430  150.2380 O   0  0  0  0  0  1  0  0  0  0  0  0
  162.2340  211.8770  149.2050 C   0  0  0  0  0  2  0  0  0  0  0  0
  160.9410  212.5040  148.7170 C   0  0  0  0  0  2  0  0  0  0  0  0
  162.9460  214.1430  147.5050 F   0  0  0  0  0  0  0  0  0  0  0  0
  161.0120  212.7480  147.2480 C   0  0  0  0  0  0  0  0  0  0  0  0
  162.0140  213.5700  146.7050 C   0  0  0  0  0  0  0  0  0  0  0  0
  161.0980  213.2200  144.4890 C   0  0  0  0  0  3  0  0  0  0  0  0
  160.0970  212.4070  145.0290 C   0  0  0  0  0  3  0  0  0  0  0  0
  160.0530  212.1730  146.4060 C   0  0  0  0  0  3  0  0  0  0  0  0
  162.0540  213.8010  145.3270 C   0  0  0  0  0  3  0  0  0  0  0  0
  1 10  2  0  0  0  0
  2  6  1  0  0  0  0
  4 17  1  0  0  0  0
  6  5  2  0  0  0  0
  7 13  1  0  0  0  0
  8  3  1  6  0  0  0
  8  2  1  0  0  0  0
  8  1  1  0  0  0  0
  9  4  2  0  0  0  0
  9 16  1  0  0  0  0
 10  5  1  0  0  0  0
 11  3  2  0  0  0  0
 11 18  1  0  0  0  0
 12  1  1  0  0  0  0
 13  2  2  0  0  0  0
 14  4  1  0  0  0  0
 14 15  2  0  0  0  0
 15 11  1  0  0  0  0
 16  7  2  0  0  0  0
 17  7  1  0  0  0  0
 17  3  1  0  0  0  0
 18 12  2  0  0  0  0
 19 23  1  0  0  0  0
 19 25  1  0  0  0  0
 20 19  2  0  0  0  0
 21 15  1  0  0  0  0
 21 23  2  0  0  0  0
 22 24  2  0  0  0  0
 22 20  1  0  0  0  0
 24 21  1  0  0  0  0
 26 16  1  0  0  0  0
 27 26  1  0  0  0  0
 29 27  1  0  0  0  0
 30 29  1  0  0  0  0
 30 28  1  0  0  0  0
 31 32  2  0  0  0  0
 31 34  1  0  0  0  0
 32 33  1  0  0  0  0
 33 29  2  0  0  0  0
 34 30  2  0  0  0  0
M  END
>  <MODEL>
4

>  <REMARK>
 VINA RESULT:     -11.3      1.146      1.620
  Name = 
  4 active torsions:
  status: ('A' for Active; 'I' for Inactive)
    1  A    between atoms: C_3  and  C_13
    2  A    between atoms: C_3  and  C_17
    3  A    between atoms: C_12  and  C_28
    4  A    between atoms: C_17  and  C_29
                            x       y       z     vdW  Elec       q    Type
                         _______ _______ _______ _____ _____    ______ ____

>  <TORSDO>
F 4

$$$$
=
 OpenBabel11062408053D

 34 40  0  0  1  0  0  0  0  0999 V2000
  160.9980  205.7640  152.9270 C   0  0  0  0  0  0  0  0  0  0  0  0
  161.4940  208.1090  152.3690 C   0  0  0  0  0  0  0  0  0  0  0  0
  161.4190  206.4170  150.6320 C   0  0  0  0  0  0  0  0  0  0  0  0
  161.8220  207.2860  148.4590 C   0  0  0  0  0  0  0  0  0  0  0  0
  161.0750  207.4550  154.6670 C   0  0  0  0  0  3  0  0  0  0  0  0
  161.3770  208.4470  153.7200 C   0  0  0  0  0  3  0  0  0  0  0  0
  161.8810  208.6710  150.1230 C   0  0  0  0  0  0  0  0  0  0  0  0
  161.3040  206.7540  151.9840 C   0  0  2  0  0  3  0  0  0  0  0  0
  162.0850  208.5350  147.8940 C   0  0  0  0  0  3  0  0  0  0  0  0
  160.8850  206.1200  154.2740 C   0  0  0  0  0  3  0  0  0  0  0  0
  161.2400  205.1010  150.1670 C   0  0  0  0  0  0  0  0  0  0  0  0
  160.8070  204.4440  152.4950 C   0  0  0  0  0  3  0  0  0  0  0  0
  161.7810  209.0630  151.4240 N   0  0  0  0  0  0  0  0  0  0  0  0
  161.6260  205.9520  147.8000 C   0  0  0  0  0  3  0  0  0  0  0  0
  161.3540  204.8330  148.8240 C   0  0  0  0  0  0  0  0  0  0  0  0
  162.1330  209.4180  148.9900 C   0  0  0  0  0  0  0  0  0  0  0  0
  161.7050  207.4020  149.7730 N   0  0  0  0  0  0  0  0  0  0  0  0
  160.9250  204.1180  151.1310 C   0  0  0  0  0  3  0  0  0  0  0  0
  160.7600  201.9530  146.4100 C   0  0  0  0  0  0  0  0  0  0  0  0
  160.8580  200.8570  147.2700 C   0  0  0  0  0  3  0  0  0  0  0  0
  161.2060  203.4620  148.2680 C   0  0  0  0  0  0  0  0  0  0  0  0
  161.1200  201.0550  148.6270 C   0  0  0  0  0  3  0  0  0  0  0  0
  160.9270  203.2490  146.9070 C   0  0  0  0  0  3  0  0  0  0  0  0
  161.2890  202.3520  149.1240 C   0  0  0  0  0  3  0  0  0  0  0  0
  160.4920  201.7560  145.0620 O   0  0  0  0  0  1  0  0  0  0  0  0
  162.3300  210.8930  148.9230 C   0  0  0  0  0  2  0  0  0  0  0  0
  161.0210  211.5720  148.5610 C   0  0  0  0  0  2  0  0  0  0  0  0
  163.2560  213.2280  147.8970 F   0  0  0  0  0  0  0  0  0  0  0  0
  161.1530  212.2730  147.2510 C   0  0  0  0  0  0  0  0  0  0  0  0
  162.2690  213.0820  146.9790 C   0  0  0  0  0  0  0  0  0  0  0  0
  161.3540  213.6080  144.7980 C   0  0  0  0  0  3  0  0  0  0  0  0
  160.2410  212.8070  145.0700 C   0  0  0  0  0  3  0  0  0  0  0  0
  160.1400  212.1420  146.2950 C   0  0  0  0  0  3  0  0  0  0  0  0
  162.3660  213.7450  145.7530 C   0  0  0  0  0  3  0  0  0  0  0  0
  1 10  2  0  0  0  0
  2  6  1  0  0  0  0
  4 17  1  0  0  0  0
  6  5  2  0  0  0  0
  7 13  1  0  0  0  0
  8  3  1  6  0  0  0
  8  2  1  0  0  0  0
  8  1  1  0  0  0  0
  9  4  2  0  0  0  0
  9 16  1  0  0  0  0
 10  5  1  0  0  0  0
 11  3  2  0  0  0  0
 11 18  1  0  0  0  0
 12  1  1  0  0  0  0
 13  2  2  0  0  0  0
 14  4  1  0  0  0  0
 14 15  2  0  0  0  0
 15 11  1  0  0  0  0
 16  7  2  0  0  0  0
 17  7  1  0  0  0  0
 17  3  1  0  0  0  0
 18 12  2  0  0  0  0
 19 23  2  0  0  0  0
 19 20  1  0  0  0  0
 20 22  2  0  0  0  0
 21 15  1  0  0  0  0
 21 24  2  0  0  0  0
 22 24  1  0  0  0  0
 23 21  1  0  0  0  0
 25 19  1  0  0  0  0
 26 16  1  0  0  0  0
 27 26  1  0  0  0  0
 29 27  1  0  0  0  0
 30 29  1  0  0  0  0
 30 28  1  0  0  0  0
 31 32  2  0  0  0  0
 31 34  1  0  0  0  0
 32 33  1  0  0  0  0
 33 29  2  0  0  0  0
 34 30  2  0  0  0  0
M  END
>  <MODEL>
5

>  <REMARK>
 VINA RESULT:     -10.7      1.186      1.628
  Name = 
  4 active torsions:
  status: ('A' for Active; 'I' for Inactive)
    1  A    between atoms: C_3  and  C_13
    2  A    between atoms: C_3  and  C_17
    3  A    between atoms: C_12  and  C_28
    4  A    between atoms: C_17  and  C_29
                            x       y       z     vdW  Elec       q    Type
                         _______ _______ _______ _____ _____    ______ ____

>  <TORSDO>
F 4

$$$$
=
 OpenBabel11062408053D

 34 40  0  0  0  0  0  0  0  0999 V2000
  161.5890  210.4180  150.3620 C   0  0  0  0  0  0  0  0  0  0  0  0
  161.9770  208.0250  149.9380 C   0  0  0  0  0  0  0  0  0  0  0  0
  161.2540  208.7900  152.1240 C   0  0  0  0  0  0  0  0  0  0  0  0
  160.9520  207.0240  153.6830 C   0  0  0  0  0  0  0  0  0  0  0  0
  162.3160  209.6550  148.1740 C   0  0  0  0  0  3  0  0  0  0  0  0
  162.3310  208.3240  148.6200 C   0  0  0  0  0  3  0  0  0  0  0  0
  161.6220  206.5030  151.6900 C   0  0  0  0  0  0  0  0  0  0  0  0
  161.6090  209.0890  150.8050 C   0  0  0  0  0  0  0  0  0  0  0  0
  161.0690  205.6320  153.6810 C   0  0  0  0  0  3  0  0  0  0  0  0
  161.9460  210.6990  149.0390 C   0  0  0  0  0  3  0  0  0  0  0  0
  160.8720  209.7830  153.0440 C   0  0  0  0  0  0  0  0  0  0  0  0
  161.2070  211.4310  151.2510 C   0  0  0  0  0  3  0  0  0  0  0  0
  161.9770  206.7300  150.3940 N   0  0  0  0  0  0  0  0  0  0  0  0
  160.4890  207.9510  154.7670 C   0  0  0  0  0  2  0  0  0  0  0  0
  160.5220  209.4270  154.3240 C   0  0  0  0  0  0  0  0  0  0  0  0
  161.5170  205.3150  152.3850 C   0  0  0  0  0  0  0  0  0  0  0  0
  161.2830  207.5040  152.4940 N   0  0  0  0  0  0  0  0  0  0  0  0
  160.8500  211.1160  152.5770 C   0  0  0  0  0  3  0  0  0  0  0  0
  158.4490  211.7030  156.5600 C   0  0  0  0  0  0  0  0  0  0  0  0
  159.4520  212.3770  157.2600 C   0  0  0  0  0  3  0  0  0  0  0  0
  160.1360  210.4260  155.3550 C   0  0  0  0  0  0  0  0  0  0  0  0
  160.7950  212.0880  157.0080 C   0  0  0  0  0  3  0  0  0  0  0  0
  158.7900  210.7370  155.6080 C   0  0  0  0  0  3  0  0  0  0  0  0
  161.1350  211.1200  156.0570 C   0  0  0  0  0  3  0  0  0  0  0  0
  157.1150  211.9950  156.8060 O   0  0  0  0  0  1  0  0  0  0  0  0
  161.7470  203.9460  151.8440 C   0  0  0  0  0  2  0  0  0  0  0  0
  160.4700  203.4190  151.2150 C   0  0  0  0  0  2  0  0  0  0  0  0
  160.7560  204.7830  148.7170 F   0  0  0  0  0  0  0  0  0  0  0  0
  160.7810  202.7170  149.9360 C   0  0  0  0  0  0  0  0  0  0  0  0
  160.9030  203.4350  148.7340 C   0  0  0  0  0  0  0  0  0  0  0  0
  161.3280  201.3670  147.5440 C   0  0  0  0  0  3  0  0  0  0  0  0
  161.2020  200.6520  148.7390 C   0  0  0  0  0  3  0  0  0  0  0  0
  160.9270  201.3260  149.9320 C   0  0  0  0  0  3  0  0  0  0  0  0
  161.1780  202.7570  147.5430 C   0  0  0  0  0  3  0  0  0  0  0  0
  1  8  1  0  0  0  0
  1 12  1  0  0  0  0
  2 13  2  0  0  0  0
  2  8  1  0  0  0  0
  3 17  1  0  0  0  0
  3 11  1  0  0  0  0
  4 14  1  0  0  0  0
  5  6  2  0  0  0  0
  5 10  1  0  0  0  0
  6  2  1  0  0  0  0
  7 16  2  0  0  0  0
  7 17  1  0  0  0  0
  8  3  2  0  0  0  0
  9  4  2  0  0  0  0
 10  1  2  0  0  0  0
 11 15  2  0  0  0  0
 12 18  2  0  0  0  0
 13  7  1  0  0  0  0
 15 14  1  0  0  0  0
 15 21  1  0  0  0  0
 16  9  1  0  0  0  0
 17  4  1  0  0  0  0
 18 11  1  0  0  0  0
 19 25  1  0  0  0  0
 19 20  1  0  0  0  0
 21 23  1  0  0  0  0
 21 24  2  0  0  0  0
 22 20  2  0  0  0  0
 23 19  2  0  0  0  0
 24 22  1  0  0  0  0
 26 16  1  0  0  0  0
 27 26  1  0  0  0  0
 28 30  1  0  0  0  0
 29 27  1  0  0  0  0
 30 29  2  0  0  0  0
 31 32  1  0  0  0  0
 32 33  2  0  0  0  0
 33 29  1  0  0  0  0
 34 31  2  0  0  0  0
 34 30  1  0  0  0  0
M  END
>  <MODEL>
6

>  <REMARK>
 VINA RESULT:     -10.5      3.561      8.560
  Name = 
  4 active torsions:
  status: ('A' for Active; 'I' for Inactive)
    1  A    between atoms: C_3  and  C_13
    2  A    between atoms: C_3  and  C_17
    3  A    between atoms: C_12  and  C_28
    4  A    between atoms: C_17  and  C_29
                            x       y       z     vdW  Elec       q    Type
                         _______ _______ _______ _____ _____    ______ ____

>  <TORSDO>
F 4

$$$$
=
 OpenBabel11062408053D

 34 40  0  0  1  0  0  0  0  0999 V2000
  160.6230  209.8730  154.3280 C   0  0  0  0  0  0  0  0  0  0  0  0
  160.7430  207.4190  154.1850 C   0  0  0  0  0  0  0  0  0  0  0  0
  161.2000  208.7930  152.2380 C   0  0  0  0  0  0  0  0  0  0  0  0
  161.7820  207.5280  150.3140 C   0  0  0  0  0  0  0  0  0  0  0  0
  160.1620  208.5010  156.2770 C   0  0  0  0  0  3  0  0  0  0  0  0
  160.3950  207.3310  155.5360 C   0  0  0  0  0  3  0  0  0  0  0  0
  161.3190  206.4420  152.1300 C   0  0  0  0  0  0  0  0  0  0  0  0
  160.8510  208.7050  153.5890 C   0  0  2  0  0  3  0  0  0  0  0  0
  161.9470  206.1790  149.9930 C   0  0  0  0  0  3  0  0  0  0  0  0
  160.2760  209.7660  155.6780 C   0  0  0  0  0  3  0  0  0  0  0  0
  161.3340  210.0260  151.5750 C   0  0  0  0  0  0  0  0  0  0  0  0
  160.7540  211.1180  153.6980 C   0  0  0  0  0  3  0  0  0  0  0  0
  160.9830  206.2900  153.4420 N   0  0  0  0  0  0  0  0  0  0  0  0
  162.0010  208.7520  149.4750 C   0  0  0  0  0  3  0  0  0  0  0  0
  161.6920  210.0490  150.2480 C   0  0  0  0  0  0  0  0  0  0  0  0
  161.6290  205.4900  151.1790 C   0  0  0  0  0  0  0  0  0  0  0  0
  161.4140  207.6470  151.5810 N   0  0  0  0  0  0  0  0  0  0  0  0
  161.1080  211.1930  152.3380 C   0  0  0  0  0  3  0  0  0  0  0  0
  160.9580  213.4760  148.7650 C   0  0  0  0  0  0  0  0  0  0  0  0
  162.0730  213.6570  147.9440 C   0  0  0  0  0  3  0  0  0  0  0  0
  161.8230  211.3140  149.4770 C   0  0  0  0  0  0  0  0  0  0  0  0
  163.0590  212.6700  147.8770 C   0  0  0  0  0  3  0  0  0  0  0  0
  160.8310  212.3080  149.5230 C   0  0  0  0  0  3  0  0  0  0  0  0
  162.9320  211.5030  148.6370 C   0  0  0  0  0  3  0  0  0  0  0  0
  159.9740  214.4530  148.8270 O   0  0  0  0  0  1  0  0  0  0  0  0
  161.7040  204.0170  151.3880 C   0  0  0  0  0  2  0  0  0  0  0  0
  160.4520  203.3550  150.8420 C   0  0  0  0  0  2  0  0  0  0  0  0
  160.7700  200.5230  150.5950 F   0  0  0  0  0  0  0  0  0  0  0  0
  160.7530  202.6800  149.5460 C   0  0  0  0  0  0  0  0  0  0  0  0
  160.9070  201.2860  149.4820 C   0  0  0  0  0  0  0  0  0  0  0  0
  161.3560  201.4460  147.1060 C   0  0  0  0  0  3  0  0  0  0  0  0
  161.2070  202.8340  147.1700 C   0  0  0  0  0  3  0  0  0  0  0  0
  160.9080  203.4510  148.3880 C   0  0  0  0  0  3  0  0  0  0  0  0
  161.2070  200.6730  148.2610 C   0  0  0  0  0  3  0  0  0  0  0  0
  1 10  2  0  0  0  0
  2  6  1  0  0  0  0
  4 17  1  0  0  0  0
  6  5  2  0  0  0  0
  7 13  1  0  0  0  0
  8  3  1  1  0  0  0
  8  2  1  0  0  0  0
  8  1  1  0  0  0  0
  9  4  2  0  0  0  0
  9 16  1  0  0  0  0
 10  5  1  0  0  0  0
 11  3  2  0  0  0  0
 11 18  1  0  0  0  0
 12  1  1  0  0  0  0
 13  2  2  0  0  0  0
 14 15  2  0  0  0  0
 14  4  1  0  0  0  0
 15 11  1  0  0  0  0
 16 26  1  0  0  0  0
 16  7  2  0  0  0  0
 17  7  1  0  0  0  0
 17  3  1  0  0  0  0
 18 12  2  0  0  0  0
 19 25  1  0  0  0  0
 19 23  1  0  0  0  0
 20 19  2  0  0  0  0
 21 23  2  0  0  0  0
 21 15  1  0  0  0  0
 22 20  1  0  0  0  0
 22 24  2  0  0  0  0
 24 21  1  0  0  0  0
 27 26  1  0  0  0  0
 29 27  1  0  0  0  0
 30 29  1  0  0  0  0
 30 28  1  0  0  0  0
 31 32  2  0  0  0  0
 31 34  1  0  0  0  0
 32 33  1  0  0  0  0
 33 29  2  0  0  0  0
 34 30  2  0  0  0  0
M  END
>  <MODEL>
7

>  <REMARK>
 VINA RESULT:     -10.4      3.425      7.789
  Name = 
  4 active torsions:
  status: ('A' for Active; 'I' for Inactive)
    1  A    between atoms: C_3  and  C_13
    2  A    between atoms: C_3  and  C_17
    3  A    between atoms: C_12  and  C_28
    4  A    between atoms: C_17  and  C_29
                            x       y       z     vdW  Elec       q    Type
                         _______ _______ _______ _____ _____    ______ ____

>  <TORSDO>
F 4

$$$$
=
 OpenBabel11062408053D

 34 40  0  0  0  0  0  0  0  0999 V2000
  160.9080  204.3780  152.3620 C   0  0  0  0  0  0  0  0  0  0  0  0
  161.2060  204.0350  149.9430 C   0  0  0  0  0  0  0  0  0  0  0  0
  161.2280  206.2720  150.8850 C   0  0  0  0  0  0  0  0  0  0  0  0
  161.5950  207.9680  149.2640 C   0  0  0  0  0  0  0  0  0  0  0  0
  160.8820  202.1400  151.4210 C   0  0  0  0  0  3  0  0  0  0  0  0
  161.0890  202.6560  150.1310 C   0  0  0  0  0  3  0  0  0  0  0  0
  161.5230  205.9160  148.5740 C   0  0  0  0  0  0  0  0  0  0  0  0
  161.1100  204.8910  151.0730 C   0  0  0  0  0  0  0  0  0  0  0  0
  161.8180  208.0300  147.8860 C   0  0  0  0  0  3  0  0  0  0  0  0
  160.7930  202.9950  152.5320 C   0  0  0  0  0  3  0  0  0  0  0  0
  161.1510  207.1860  151.9510 C   0  0  0  0  0  0  0  0  0  0  0  0
  160.8330  205.2620  153.4460 C   0  0  0  0  0  3  0  0  0  0  0  0
  161.4170  204.5630  148.6930 N   0  0  0  0  0  0  0  0  0  0  0  0
  161.5740  209.0640  150.2880 C   0  0  0  0  0  2  0  0  0  0  0  0
  161.2870  208.5310  151.7050 C   0  0  0  0  0  0  0  0  0  0  0  0
  161.7540  206.6910  147.4550 C   0  0  0  0  0  0  0  0  0  0  0  0
  161.4280  206.7080  149.6350 N   0  0  0  0  0  0  0  0  0  0  0  0
  160.9550  206.6490  153.2430 C   0  0  0  0  0  3  0  0  0  0  0  0
  162.0310  210.6060  154.8060 C   0  0  0  0  0  0  0  0  0  0  0  0
  160.9200  211.4530  154.8350 C   0  0  0  0  0  3  0  0  0  0  0  0
  161.1870  209.5540  152.7780 C   0  0  0  0  0  0  0  0  0  0  0  0
  159.9380  211.3510  153.8470 C   0  0  0  0  0  3  0  0  0  0  0  0
  162.1600  209.6580  153.7870 C   0  0  0  0  0  3  0  0  0  0  0  0
  160.0690  210.4030  152.8270 C   0  0  0  0  0  3  0  0  0  0  0  0
  163.0040  210.7030  155.7900 O   0  0  0  0  0  1  0  0  0  0  0  0
  161.9820  206.2030  146.0670 C   0  0  0  0  0  2  0  0  0  0  0  0
  162.5920  204.8140  146.1020 C   0  0  0  0  0  2  0  0  0  0  0  0
  160.6750  205.3140  144.0400 F   0  0  0  0  0  0  0  0  0  0  0  0
  161.5880  203.8020  145.6630 C   0  0  0  0  0  0  0  0  0  0  0  0
  160.6630  204.1030  144.6500 C   0  0  0  0  0  0  0  0  0  0  0  0
  159.6900  201.8960  144.8860 C   0  0  0  0  0  3  0  0  0  0  0  0
  160.6070  201.5980  145.8970 C   0  0  0  0  0  3  0  0  0  0  0  0
  161.5540  202.5500  146.2860 C   0  0  0  0  0  3  0  0  0  0  0  0
  159.7180  203.1480  144.2640 C   0  0  0  0  0  3  0  0  0  0  0  0
  1 10  2  0  0  0  0
  1 12  1  0  0  0  0
  2  6  1  0  0  0  0
  2  8  1  0  0  0  0
  3  8  2  0  0  0  0
  3 11  1  0  0  0  0
  4 17  1  0  0  0  0
  4 14  1  0  0  0  0
  5 10  1  0  0  0  0
  6  5  2  0  0  0  0
  7 13  1  0  0  0  0
  7 17  1  0  0  0  0
  8  1  1  0  0  0  0
  9  4  2  0  0  0  0
 11 18  1  0  0  0  0
 13  2  2  0  0  0  0
 14 15  1  0  0  0  0
 15 11  2  0  0  0  0
 15 21  1  0  0  0  0
 16  9  1  0  0  0  0
 16  7  2  0  0  0  0
 17  3  1  0  0  0  0
 18 12  2  0  0  0  0
 19 20  1  0  0  0  0
 19 25  1  0  0  0  0
 21 24  2  0  0  0  0
 21 23  1  0  0  0  0
 22 20  2  0  0  0  0
 23 19  2  0  0  0  0
 24 22  1  0  0  0  0
 26 27  1  0  0  0  0
 26 16  1  0  0  0  0
 28 30  1  0  0  0  0
 29 27  1  0  0  0  0
 29 33  1  0  0  0  0
 30 29  2  0  0  0  0
 31 32  1  0  0  0  0
 32 33  2  0  0  0  0
 34 30  1  0  0  0  0
 34 31  2  0  0  0  0
M  END
>  <MODEL>
8

>  <REMARK>
 VINA RESULT:     -10.3      3.747      7.286
  Name = 
  4 active torsions:
  status: ('A' for Active; 'I' for Inactive)
    1  A    between atoms: C_3  and  C_13
    2  A    between atoms: C_3  and  C_17
    3  A    between atoms: C_12  and  C_28
    4  A    between atoms: C_17  and  C_29
                            x       y       z     vdW  Elec       q    Type
                         _______ _______ _______ _____ _____    ______ ____

>  <TORSDO>
F 4

$$$$
=
 OpenBabel11062408053D

 34 40  0  0  1  0  0  0  0  0999 V2000
  160.9210  206.0690  153.1150 C   0  0  0  0  0  0  0  0  0  0  0  0
  161.3060  208.4250  152.5160 C   0  0  0  0  0  0  0  0  0  0  0  0
  161.2860  206.7040  150.8050 C   0  0  0  0  0  0  0  0  0  0  0  0
  161.6240  207.5560  148.6140 C   0  0  0  0  0  0  0  0  0  0  0  0
  160.9450  207.7890  154.8290 C   0  0  0  0  0  3  0  0  0  0  0  0
  161.1910  208.7780  153.8630 C   0  0  0  0  0  3  0  0  0  0  0  0
  161.6410  208.9680  150.2560 C   0  0  0  0  0  0  0  0  0  0  0  0
  161.1720  207.0580  152.1530 C   0  0  2  0  0  3  0  0  0  0  0  0
  161.8250  208.8070  148.0270 C   0  0  0  0  0  3  0  0  0  0  0  0
  160.8090  206.4410  154.4580 C   0  0  0  0  0  3  0  0  0  0  0  0
  161.1600  205.3750  150.3630 C   0  0  0  0  0  0  0  0  0  0  0  0
  160.7850  204.7360  152.7060 C   0  0  0  0  0  3  0  0  0  0  0  0
  161.5390  209.3760  151.5530 N   0  0  0  0  0  0  0  0  0  0  0  0
  161.4800  206.2050  147.9790 C   0  0  0  0  0  3  0  0  0  0  0  0
  161.2700  205.0910  149.0230 C   0  0  0  0  0  0  0  0  0  0  0  0
  161.8460  209.7080  149.1090 C   0  0  0  0  0  0  0  0  0  0  0  0
  161.5170  207.6880  149.9280 N   0  0  0  0  0  0  0  0  0  0  0  0
  160.9000  204.3940  151.3450 C   0  0  0  0  0  3  0  0  0  0  0  0
  160.9450  202.1500  146.6310 C   0  0  0  0  0  0  0  0  0  0  0  0
  160.9250  201.0770  147.5250 C   0  0  0  0  0  3  0  0  0  0  0  0
  161.1770  203.7060  148.4890 C   0  0  0  0  0  0  0  0  0  0  0  0
  161.0210  201.3110  148.8990 C   0  0  0  0  0  3  0  0  0  0  0  0
  161.0640  203.4570  147.1110 C   0  0  0  0  0  3  0  0  0  0  0  0
  161.1410  202.6200  149.3780 C   0  0  0  0  0  3  0  0  0  0  0  0
  160.8430  201.9180  145.2670 O   0  0  0  0  0  1  0  0  0  0  0  0
  161.9760  211.1890  149.0180 C   0  0  0  0  0  2  0  0  0  0  0  0
  161.7300  211.6410  147.5900 C   0  0  0  0  0  2  0  0  0  0  0  0
  160.8650  213.2190  149.8120 F   0  0  0  0  0  0  0  0  0  0  0  0
  160.5410  212.5400  147.5350 C   0  0  0  0  0  0  0  0  0  0  0  0
  160.1550  213.2880  148.6590 C   0  0  0  0  0  0  0  0  0  0  0  0
  158.2820  214.1900  147.4130 C   0  0  0  0  0  3  0  0  0  0  0  0
  158.6630  213.4420  146.2960 C   0  0  0  0  0  3  0  0  0  0  0  0
  159.7900  212.6170  146.3570 C   0  0  0  0  0  3  0  0  0  0  0  0
  159.0270  214.1120  148.5930 C   0  0  0  0  0  3  0  0  0  0  0  0
  1 10  2  0  0  0  0
  2  6  1  0  0  0  0
  4 17  1  0  0  0  0
  6  5  2  0  0  0  0
  7 13  1  0  0  0  0
  8  3  1  6  0  0  0
  8  2  1  0  0  0  0
  8  1  1  0  0  0  0
  9  4  2  0  0  0  0
  9 16  1  0  0  0  0
 10  5  1  0  0  0  0
 11  3  2  0  0  0  0
 11 18  1  0  0  0  0
 12  1  1  0  0  0  0
 13  2  2  0  0  0  0
 14  4  1  0  0  0  0
 14 15  2  0  0  0  0
 15 11  1  0  0  0  0
 16  7  2  0  0  0  0
 17  7  1  0  0  0  0
 17  3  1  0  0  0  0
 18 12  2  0  0  0  0
 19 23  2  0  0  0  0
 19 20  1  0  0  0  0
 20 22  2  0  0  0  0
 21 15  1  0  0  0  0
 21 24  2  0  0  0  0
 22 24  1  0  0  0  0
 23 21  1  0  0  0  0
 25 19  1  0  0  0  0
 26 16  1  0  0  0  0
 27 26  1  0  0  0  0
 29 27  1  0  0  0  0
 29 30  1  0  0  0  0
 30 28  1  0  0  0  0
 31 34  1  0  0  0  0
 32 33  1  0  0  0  0
 32 31  2  0  0  0  0
 33 29  2  0  0  0  0
 34 30  2  0  0  0  0
M  END
>  <MODEL>
9

>  <REMARK>
 VINA RESULT:     -10.3      1.310      1.831
  Name = 
  4 active torsions:
  status: ('A' for Active; 'I' for Inactive)
    1  A    between atoms: C_3  and  C_13
    2  A    between atoms: C_3  and  C_17
    3  A    between atoms: C_12  and  C_28
    4  A    between atoms: C_17  and  C_29
                            x       y       z     vdW  Elec       q    Type
                         _______ _______ _______ _____ _____    ______ ____

>  <TORSDO>
F 4

$$$$
