=
 OpenBabel11052423063D

 27 31  0  0  1  0  0  0  0  0999 V2000
  162.6340  209.1880  150.1690 O   0  0  0  0  0  0  0  0  0  0  0  0
  161.1030  210.0040  151.8060 C   0  0  0  0  0  0  0  0  0  0  0  0
  161.2250  207.5080  151.9900 N   0  0  0  0  0  2  0  0  0  0  0  0
  160.2850  210.0010  156.0100 C   0  0  0  0  0  2  0  0  0  0  0  0
  161.4600  208.2190  157.2010 N   0  0  0  0  0  1  0  0  0  0  0  0
  160.8700  211.2450  152.4430 C   0  0  0  0  0  3  0  0  0  0  0  0
  160.6670  207.8870  154.9500 C   0  0  0  0  0  0  0  0  0  0  0  0
  160.3730  205.4740  148.9900 C   0  0  0  0  0  2  0  0  0  0  0  0
  160.7890  206.6530  154.7340 O   0  0  0  0  0  0  0  0  0  0  0  0
  161.3530  205.3690  147.8180 C   0  0  0  0  0  2  0  0  0  0  0  0
  160.7820  208.9200  153.9460 C   0  0  0  0  0  0  0  0  0  0  0  0
  161.4570  209.9400  150.3350 C   0  0  1  0  0  3  0  0  0  0  0  0
  160.3660  208.4860  156.2840 C   0  0  2  0  0  3  0  0  0  0  0  0
  160.5620  210.1320  154.5470 C   0  0  0  0  0  0  0  0  0  0  0  0
  162.3040  207.8660  149.7870 C   0  0  2  0  0  3  0  0  0  0  0  0
  161.0370  208.8080  152.5720 C   0  0  0  0  0  0  0  0  0  0  0  0
  161.0500  205.7320  150.3290 C   0  0  0  0  0  2  0  0  0  0  0  0
  160.5940  211.3150  153.8150 C   0  0  0  0  0  3  0  0  0  0  0  0
  162.5280  206.3540  147.8320 C   0  0  0  0  0  2  0  0  0  0  0  0
  162.1380  207.7570  148.2740 C   0  0  0  0  0  2  0  0  0  0  0  0
  161.1280  207.2330  150.5620 C   0  0  1  0  0  3  0  0  0  0  0  0
  161.8370  213.7340  148.3450 C   0  0  0  0  0  3  0  0  0  0  0  0
  161.5850  211.2730  149.6570 C   0  0  0  0  0  0  0  0  0  0  0  0
  162.6230  211.4780  148.7410 C   0  0  0  0  0  3  0  0  0  0  0  0
  162.7500  212.7070  148.0870 C   0  0  0  0  0  3  0  0  0  0  0  0
  160.7970  213.5330  149.2560 C   0  0  0  0  0  3  0  0  0  0  0  0
  160.6680  212.3030  149.9100 C   0  0  0  0  0  3  0  0  0  0  0  0
  1 12  1  0  0  0  0
  2  6  2  0  0  0  0
  2 16  1  0  0  0  0
  3 16  1  0  0  0  0
  4 13  1  0  0  0  0
  6 18  1  0  0  0  0
  7 13  1  0  0  0  0
  8 17  1  0  0  0  0
  9  7  2  0  0  0  0
 10 19  1  0  0  0  0
 10  8  1  0  0  0  0
 11 14  1  0  0  0  0
 11  7  1  0  0  0  0
 12 23  1  1  0  0  0
 12  2  1  0  0  0  0
 13  5  1  1  0  0  0
 14  4  1  0  0  0  0
 15 20  1  6  0  0  0
 15  1  1  0  0  0  0
 15 21  1  0  0  0  0
 16 11  2  0  0  0  0
 18 14  2  0  0  0  0
 19 20  1  0  0  0  0
 21 17  1  1  0  0  0
 21  3  1  0  0  0  0
 22 26  1  0  0  0  0
 23 27  1  0  0  0  0
 24 23  2  0  0  0  0
 25 22  2  0  0  0  0
 25 24  1  0  0  0  0
 26 27  2  0  0  0  0
M  END
>  <MODEL>
1

>  <REMARK>
 VINA RESULT:      -7.3      0.000      0.000
  Name = 
  1 active torsions:
  status: ('A' for Active; 'I' for Inactive)
    1  A    between atoms: C_9  and  C_15
                            x       y       z     vdW  Elec       q    Type
                         _______ _______ _______ _____ _____    ______ ____

>  <TORSDO>
F 1

$$$$
=
 OpenBabel11052423063D

 27 31  0  0  1  0  0  0  0  0999 V2000
  160.0080  210.2690  152.4440 O   0  0  0  0  0  0  0  0  0  0  0  0
  161.3470  208.7790  151.1500 C   0  0  0  0  0  0  0  0  0  0  0  0
  161.0810  207.8290  153.4540 N   0  0  0  0  0  2  0  0  0  0  0  0
  161.6010  204.7210  149.8040 C   0  0  0  0  0  2  0  0  0  0  0  0
  160.1940  203.2030  151.1040 N   0  0  0  0  0  1  0  0  0  0  0  0
  161.5540  208.5430  149.7710 C   0  0  0  0  0  3  0  0  0  0  0  0
  161.2610  205.0970  152.1440 C   0  0  0  0  0  0  0  0  0  0  0  0
  162.2240  209.8760  156.3470 C   0  0  0  0  0  2  0  0  0  0  0  0
  161.1090  204.9240  153.3820 O   0  0  0  0  0  0  0  0  0  0  0  0
  161.4030  211.0800  156.8210 C   0  0  0  0  0  2  0  0  0  0  0  0
  161.3300  206.3830  151.4890 C   0  0  0  0  0  0  0  0  0  0  0  0
  161.1890  210.1880  151.6830 C   0  0  1  0  0  3  0  0  0  0  0  0
  161.4120  203.9940  151.1490 C   0  0  2  0  0  3  0  0  0  0  0  0
  161.5260  206.1730  150.1490 C   0  0  0  0  0  0  0  0  0  0  0  0
  160.3220  210.1610  153.8200 C   0  0  2  0  0  3  0  0  0  0  0  0
  161.2530  207.6710  152.0360 C   0  0  0  0  0  0  0  0  0  0  0  0
  161.3890  208.7980  155.6710 C   0  0  0  0  0  2  0  0  0  0  0  0
  161.6490  207.2400  149.2650 C   0  0  0  0  0  3  0  0  0  0  0  0
  160.2860  211.5450  155.8800 C   0  0  0  0  0  2  0  0  0  0  0  0
  160.6810  211.5220  154.4100 C   0  0  0  0  0  2  0  0  0  0  0  0
  161.3530  209.0670  154.1740 C   0  0  1  0  0  3  0  0  0  0  0  0
  161.2600  213.3140  148.7290 C   0  0  0  0  0  3  0  0  0  0  0  0
  161.2150  211.2650  150.6380 C   0  0  0  0  0  0  0  0  0  0  0  0
  160.3480  212.3570  150.7590 C   0  0  0  0  0  3  0  0  0  0  0  0
  160.3690  213.3790  149.8050 C   0  0  0  0  0  3  0  0  0  0  0  0
  162.1300  212.2270  148.6070 C   0  0  0  0  0  3  0  0  0  0  0  0
  162.1100  211.2050  149.5600 C   0  0  0  0  0  3  0  0  0  0  0  0
  1 15  1  0  0  0  0
  2 12  1  0  0  0  0
  2 16  1  0  0  0  0
  3 21  1  0  0  0  0
  4 14  1  0  0  0  0
  4 13  1  0  0  0  0
  6  2  2  0  0  0  0
  7  9  2  0  0  0  0
  8 10  1  0  0  0  0
 11 16  2  0  0  0  0
 11  7  1  0  0  0  0
 12 23  1  6  0  0  0
 12  1  1  0  0  0  0
 13  5  1  6  0  0  0
 13  7  1  0  0  0  0
 14 11  1  0  0  0  0
 15 21  1  0  0  0  0
 15 20  1  6  0  0  0
 16  3  1  0  0  0  0
 17  8  1  0  0  0  0
 18  6  1  0  0  0  0
 18 14  2  0  0  0  0
 19 10  1  0  0  0  0
 20 19  1  0  0  0  0
 21 17  1  1  0  0  0
 22 25  1  0  0  0  0
 23 24  1  0  0  0  0
 25 24  2  0  0  0  0
 26 22  2  0  0  0  0
 26 27  1  0  0  0  0
 27 23  2  0  0  0  0
M  END
>  <MODEL>
2

>  <REMARK>
 VINA RESULT:      -7.3      1.658      5.351
  Name = 
  1 active torsions:
  status: ('A' for Active; 'I' for Inactive)
    1  A    between atoms: C_9  and  C_15
                            x       y       z     vdW  Elec       q    Type
                         _______ _______ _______ _____ _____    ______ ____

>  <TORSDO>
F 1

$$$$
=
 OpenBabel11052423063D

 27 31  0  0  1  0  0  0  0  0999 V2000
  162.5240  207.6530  151.6600 O   0  0  0  0  0  0  0  0  0  0  0  0
  160.9280  205.8910  151.4730 C   0  0  0  0  0  0  0  0  0  0  0  0
  161.6820  206.5420  149.1740 N   0  0  0  0  0  2  0  0  0  0  0  0
  160.3640  201.9570  149.8770 C   0  0  0  0  0  2  0  0  0  0  0  0
  162.0110  201.3860  148.1630 N   0  0  0  0  0  1  0  0  0  0  0  0
  160.4250  204.8860  152.3320 C   0  0  0  0  0  3  0  0  0  0  0  0
  161.2060  203.6450  148.4020 C   0  0  0  0  0  0  0  0  0  0  0  0
  161.2060  210.0740  148.0960 C   0  0  0  0  0  2  0  0  0  0  0  0
  161.6220  204.2540  147.3810 O   0  0  0  0  0  0  0  0  0  0  0  0
  162.1170  211.1810  148.6360 C   0  0  0  0  0  2  0  0  0  0  0  0
  161.0040  204.2450  149.7010 C   0  0  0  0  0  0  0  0  0  0  0  0
  161.2060  207.2870  151.9890 C   0  0  1  0  0  3  0  0  0  0  0  0
  160.8370  202.1980  148.4300 C   0  0  2  0  0  3  0  0  0  0  0  0
  160.5200  203.2830  150.5490 C   0  0  0  0  0  0  0  0  0  0  0  0
  162.5160  208.4630  150.5000 C   0  0  2  0  0  3  0  0  0  0  0  0
  161.2050  205.5680  150.1170 C   0  0  0  0  0  0  0  0  0  0  0  0
  161.8680  208.7040  148.0610 C   0  0  0  0  0  2  0  0  0  0  0  0
  160.2150  203.5790  151.8730 C   0  0  0  0  0  3  0  0  0  0  0  0
  163.0060  210.8010  149.8260 C   0  0  0  0  0  2  0  0  0  0  0  0
  162.3010  209.9320  150.8570 C   0  0  0  0  0  2  0  0  0  0  0  0
  161.5800  207.9830  149.3690 C   0  0  1  0  0  3  0  0  0  0  0  0
  160.4630  207.8770  156.1850 C   0  0  0  0  0  3  0  0  0  0  0  0
  160.9600  207.4790  153.4570 C   0  0  0  0  0  0  0  0  0  0  0  0
  160.8310  208.7760  153.9660 C   0  0  0  0  0  3  0  0  0  0  0  0
  160.5850  208.9760  155.3280 C   0  0  0  0  0  3  0  0  0  0  0  0
  160.5880  206.5790  155.6800 C   0  0  0  0  0  3  0  0  0  0  0  0
  160.8330  206.3800  154.3190 C   0  0  0  0  0  3  0  0  0  0  0  0
  1 12  1  0  0  0  0
  2 12  1  0  0  0  0
  2  6  1  0  0  0  0
  3 21  1  0  0  0  0
  3 16  1  0  0  0  0
  4 14  1  0  0  0  0
  7 13  1  0  0  0  0
  7 11  1  0  0  0  0
  8 10  1  0  0  0  0
  9  7  2  0  0  0  0
 10 19  1  0  0  0  0
 11 16  1  0  0  0  0
 11 14  2  0  0  0  0
 12 23  1  1  0  0  0
 13  5  1  1  0  0  0
 13  4  1  0  0  0  0
 14 18  1  0  0  0  0
 15 20  1  1  0  0  0
 15  1  1  0  0  0  0
 16  2  2  0  0  0  0
 17  8  1  0  0  0  0
 18  6  2  0  0  0  0
 19 20  1  0  0  0  0
 21 17  1  6  0  0  0
 21 15  1  0  0  0  0
 23 24  2  0  0  0  0
 23 27  1  0  0  0  0
 24 25  1  0  0  0  0
 25 22  2  0  0  0  0
 26 22  1  0  0  0  0
 27 26  2  0  0  0  0
M  END
>  <MODEL>
3

>  <REMARK>
 VINA RESULT:      -6.1      2.513      6.692
  Name = 
  1 active torsions:
  status: ('A' for Active; 'I' for Inactive)
    1  A    between atoms: C_9  and  C_15
                            x       y       z     vdW  Elec       q    Type
                         _______ _______ _______ _____ _____    ______ ____

>  <TORSDO>
F 1

$$$$
=
 OpenBabel11052423063D

 27 31  0  0  1  0  0  0  0  0999 V2000
  160.2670  212.2350  154.7830 O   0  0  0  0  0  0  0  0  0  0  0  0
  160.6360  210.9560  152.8040 C   0  0  0  0  0  0  0  0  0  0  0  0
  159.3030  212.9930  152.2100 N   0  0  0  0  0  2  0  0  0  0  0  0
  162.2500  211.1930  148.8440 C   0  0  0  0  0  2  0  0  0  0  0  0
  162.5060  213.4950  148.0620 N   0  0  0  0  0  1  0  0  0  0  0  0
  161.5600  209.9650  152.3970 C   0  0  0  0  0  3  0  0  0  0  0  0
  160.6800  212.8750  149.5070 C   0  0  0  0  0  0  0  0  0  0  0  0
  156.0370  213.5230  153.9180 C   0  0  0  0  0  2  0  0  0  0  0  0
  159.9030  213.8660  149.5030 O   0  0  0  0  0  0  0  0  0  0  0  0
  155.9890  213.9970  155.3740 C   0  0  0  0  0  2  0  0  0  0  0  0
  160.8650  211.9720  150.6190 C   0  0  0  0  0  0  0  0  0  0  0  0
  160.0740  210.9640  154.2100 C   0  0  1  0  0  3  0  0  0  0  0  0
  161.5270  212.4610  148.3490 C   0  0  2  0  0  3  0  0  0  0  0  0
  161.7620  211.0050  150.2440 C   0  0  0  0  0  0  0  0  0  0  0  0
  159.0740  212.9890  154.6780 C   0  0  2  0  0  3  0  0  0  0  0  0
  160.2630  211.9740  151.8850 C   0  0  0  0  0  0  0  0  0  0  0  0
  157.2870  213.9700  153.1730 C   0  0  0  0  0  2  0  0  0  0  0  0
  162.1240  209.9820  151.1150 C   0  0  0  0  0  3  0  0  0  0  0  0
  157.3160  213.9540  156.1400 C   0  0  0  0  0  2  0  0  0  0  0  0
  158.1420  212.7090  155.8540 C   0  0  0  0  0  2  0  0  0  0  0  0
  158.3560  212.8970  153.3140 C   0  0  1  0  0  3  0  0  0  0  0  0
  161.6130  207.8590  156.7570 C   0  0  0  0  0  3  0  0  0  0  0  0
  160.6140  209.8940  155.1130 C   0  0  0  0  0  0  0  0  0  0  0  0
  160.0060  208.6330  155.1190 C   0  0  0  0  0  3  0  0  0  0  0  0
  160.5030  207.6180  155.9410 C   0  0  0  0  0  3  0  0  0  0  0  0
  162.2260  209.1160  156.7510 C   0  0  0  0  0  3  0  0  0  0  0  0
  161.7290  210.1310  155.9290 C   0  0  0  0  0  3  0  0  0  0  0  0
  2 12  1  0  0  0  0
  3 21  1  0  0  0  0
  4 14  1  0  0  0  0
  6  2  1  0  0  0  0
  7 11  1  0  0  0  0
  8 10  1  0  0  0  0
  9  7  2  0  0  0  0
 10 19  1  0  0  0  0
 11 16  1  0  0  0  0
 12  1  1  0  0  0  0
 12 23  1  1  0  0  0
 13  5  1  1  0  0  0
 13  4  1  0  0  0  0
 13  7  1  0  0  0  0
 14 11  2  0  0  0  0
 14 18  1  0  0  0  0
 15  1  1  0  0  0  0
 15 20  1  1  0  0  0
 16  3  1  0  0  0  0
 16  2  2  0  0  0  0
 17  8  1  0  0  0  0
 18  6  2  0  0  0  0
 20 19  1  0  0  0  0
 21 17  1  6  0  0  0
 21 15  1  0  0  0  0
 23 24  2  0  0  0  0
 23 27  1  0  0  0  0
 24 25  1  0  0  0  0
 25 22  2  0  0  0  0
 26 22  1  0  0  0  0
 27 26  2  0  0  0  0
M  END
>  <MODEL>
4

>  <REMARK>
 VINA RESULT:      -6.1      3.298      7.850
  Name = 
  1 active torsions:
  status: ('A' for Active; 'I' for Inactive)
    1  A    between atoms: C_9  and  C_15
                            x       y       z     vdW  Elec       q    Type
                         _______ _______ _______ _____ _____    ______ ____

>  <TORSDO>
F 1

$$$$
=
 OpenBabel11052423063D

 27 31  0  0  1  0  0  0  0  0999 V2000
  159.6350  211.0500  152.0130 O   0  0  0  0  0  0  0  0  0  0  0  0
  161.3340  209.4790  151.4330 C   0  0  0  0  0  0  0  0  0  0  0  0
  160.5550  208.9990  153.7660 N   0  0  0  0  0  2  0  0  0  0  0  0
  162.1400  205.2840  151.1310 C   0  0  0  0  0  2  0  0  0  0  0  0
  160.5390  203.9210  152.3780 N   0  0  0  0  0  1  0  0  0  0  0  0
  161.8920  208.9910  150.2290 C   0  0  0  0  0  3  0  0  0  0  0  0
  161.2060  206.0920  153.1830 C   0  0  0  0  0  0  0  0  0  0  0  0
  160.8260  211.7060  156.3090 C   0  0  0  0  0  2  0  0  0  0  0  0
  160.7610  206.1610  154.3590 O   0  0  0  0  0  0  0  0  0  0  0  0
  159.8480  212.8850  156.2960 C   0  0  0  0  0  2  0  0  0  0  0  0
  161.3650  207.2160  152.2900 C   0  0  0  0  0  0  0  0  0  0  0  0
  160.9710  210.9420  151.5840 C   0  0  1  0  0  3  0  0  0  0  0  0
  161.6610  204.8310  152.5240 C   0  0  2  0  0  3  0  0  0  0  0  0
  161.9010  206.7590  151.1140 C   0  0  0  0  0  0  0  0  0  0  0  0
  159.6010  211.2600  153.4120 C   0  0  2  0  0  3  0  0  0  0  0  0
  161.0840  208.5740  152.5000 C   0  0  0  0  0  0  0  0  0  0  0  0
  160.2470  210.4290  155.7180 C   0  0  0  0  0  2  0  0  0  0  0  0
  162.1810  207.6290  150.0650 C   0  0  0  0  0  3  0  0  0  0  0  0
  158.9770  213.0240  155.0420 C   0  0  0  0  0  2  0  0  0  0  0  0
  159.7260  212.7430  153.7480 C   0  0  0  0  0  2  0  0  0  0  0  0
  160.5710  210.3800  154.2320 C   0  0  1  0  0  3  0  0  0  0  0  0
  161.6250  213.2950  148.0430 C   0  0  0  0  0  3  0  0  0  0  0  0
  161.1980  211.7790  150.3590 C   0  0  0  0  0  0  0  0  0  0  0  0
  162.1480  211.3700  149.4170 C   0  0  0  0  0  3  0  0  0  0  0  0
  162.3630  212.1280  148.2610 C   0  0  0  0  0  3  0  0  0  0  0  0
  160.6720  213.7050  148.9800 C   0  0  0  0  0  3  0  0  0  0  0  0
  160.4560  212.9480  150.1350 C   0  0  0  0  0  3  0  0  0  0  0  0
  1 15  1  0  0  0  0
  2 12  1  0  0  0  0
  2 16  1  0  0  0  0
  3 21  1  0  0  0  0
  4 13  1  0  0  0  0
  6  2  2  0  0  0  0
  7  9  2  0  0  0  0
 10  8  1  0  0  0  0
 11 16  2  0  0  0  0
 11  7  1  0  0  0  0
 12 23  1  6  0  0  0
 12  1  1  0  0  0  0
 13  5  1  6  0  0  0
 13  7  1  0  0  0  0
 14  4  1  0  0  0  0
 14 11  1  0  0  0  0
 15 20  1  6  0  0  0
 15 21  1  0  0  0  0
 16  3  1  0  0  0  0
 17  8  1  0  0  0  0
 18  6  1  0  0  0  0
 18 14  2  0  0  0  0
 19 10  1  0  0  0  0
 20 19  1  0  0  0  0
 21 17  1  1  0  0  0
 22 25  2  0  0  0  0
 22 26  1  0  0  0  0
 24 23  2  0  0  0  0
 25 24  1  0  0  0  0
 26 27  2  0  0  0  0
 27 23  1  0  0  0  0
M  END
>  <MODEL>
5

>  <REMARK>
 VINA RESULT:      -6.0      1.792      5.196
  Name = 
  1 active torsions:
  status: ('A' for Active; 'I' for Inactive)
    1  A    between atoms: C_9  and  C_15
                            x       y       z     vdW  Elec       q    Type
                         _______ _______ _______ _____ _____    ______ ____

>  <TORSDO>
F 1

$$$$
=
 OpenBabel11052423063D

 27 31  0  0  1  0  0  0  0  0999 V2000
  162.1220  206.4760  152.6760 O   0  0  0  0  0  0  0  0  0  0  0  0
  161.2870  207.3320  150.6120 C   0  0  0  0  0  0  0  0  0  0  0  0
  161.3380  209.1900  152.2930 N   0  0  0  0  0  2  0  0  0  0  0  0
  161.9580  210.3560  147.6550 C   0  0  0  0  0  2  0  0  0  0  0  0
  163.3780  212.1730  148.4650 N   0  0  0  0  0  1  0  0  0  0  0  0
  161.3490  206.9380  149.2540 C   0  0  0  0  0  3  0  0  0  0  0  0
  161.8460  211.0460  149.9450 C   0  0  0  0  0  0  0  0  0  0  0  0
  159.4070  208.7670  155.4480 C   0  0  0  0  0  2  0  0  0  0  0  0
  161.8240  211.7440  150.9930 O   0  0  0  0  0  0  0  0  0  0  0  0
  159.9210  207.8400  156.5550 C   0  0  0  0  0  2  0  0  0  0  0  0
  161.6630  209.6140  149.8990 C   0  0  0  0  0  0  0  0  0  0  0  0
  161.1110  206.3050  151.7110 C   0  0  1  0  0  3  0  0  0  0  0  0
  162.0510  211.5930  148.5710 C   0  0  2  0  0  3  0  0  0  0  0  0
  161.7240  209.2140  148.5890 C   0  0  0  0  0  0  0  0  0  0  0  0
  161.6140  207.2170  153.7690 C   0  0  2  0  0  3  0  0  0  0  0  0
  161.4260  208.7070  150.9420 C   0  0  0  0  0  0  0  0  0  0  0  0
  160.5140  209.3510  154.5820 C   0  0  0  0  0  2  0  0  0  0  0  0
  161.5630  207.8780  148.2370 C   0  0  0  0  0  3  0  0  0  0  0  0
  161.0770  206.9100  156.1730 C   0  0  0  0  0  2  0  0  0  0  0  0
  160.9340  206.3030  154.7840 C   0  0  0  0  0  2  0  0  0  0  0  0
  160.7430  208.4360  153.3890 C   0  0  1  0  0  3  0  0  0  0  0  0
  160.9580  202.2060  150.4170 C   0  0  0  0  0  3  0  0  0  0  0  0
  161.0680  204.8800  151.2440 C   0  0  0  0  0  0  0  0  0  0  0  0
  161.2570  203.8490  152.1710 C   0  0  0  0  0  3  0  0  0  0  0  0
  161.2030  202.5140  151.7590 C   0  0  0  0  0  3  0  0  0  0  0  0
  160.7650  203.2320  149.4880 C   0  0  0  0  0  3  0  0  0  0  0  0
  160.8170  204.5670  149.9000 C   0  0  0  0  0  3  0  0  0  0  0  0
  1 15  1  0  0  0  0
  2 16  1  0  0  0  0
  2 12  1  0  0  0  0
  3 21  1  0  0  0  0
  4 13  1  0  0  0  0
  4 14  1  0  0  0  0
  6  2  2  0  0  0  0
  7  9  2  0  0  0  0
  8 10  1  0  0  0  0
 11  7  1  0  0  0  0
 11 16  2  0  0  0  0
 12 23  1  6  0  0  0
 12  1  1  0  0  0  0
 13  5  1  1  0  0  0
 13  7  1  0  0  0  0
 14 11  1  0  0  0  0
 15 20  1  1  0  0  0
 16  3  1  0  0  0  0
 17  8  1  0  0  0  0
 18 14  2  0  0  0  0
 18  6  1  0  0  0  0
 19 10  1  0  0  0  0
 20 19  1  0  0  0  0
 21 15  1  0  0  0  0
 21 17  1  1  0  0  0
 22 25  1  0  0  0  0
 23 24  1  0  0  0  0
 25 24  2  0  0  0  0
 26 27  1  0  0  0  0
 26 22  2  0  0  0  0
 27 23  2  0  0  0  0
M  END
>  <MODEL>
6

>  <REMARK>
 VINA RESULT:      -6.0      2.109      7.051
  Name = 
  1 active torsions:
  status: ('A' for Active; 'I' for Inactive)
    1  A    between atoms: C_9  and  C_15
                            x       y       z     vdW  Elec       q    Type
                         _______ _______ _______ _____ _____    ______ ____

>  <TORSDO>
F 1

$$$$
=
 OpenBabel11052423063D

 27 31  0  0  1  0  0  0  0  0999 V2000
  158.6960  211.6080  152.6890 O   0  0  0  0  0  0  0  0  0  0  0  0
  160.6880  210.4440  152.0800 C   0  0  0  0  0  0  0  0  0  0  0  0
  160.0360  209.7670  154.4030 N   0  0  0  0  0  2  0  0  0  0  0  0
  162.3620  206.5210  151.7000 C   0  0  0  0  0  2  0  0  0  0  0  0
  161.0900  204.8270  152.9200 N   0  0  0  0  0  1  0  0  0  0  0  0
  161.3320  210.1070  150.8670 C   0  0  0  0  0  3  0  0  0  0  0  0
  161.2860  207.0750  153.7660 C   0  0  0  0  0  0  0  0  0  0  0  0
  159.7360  212.4230  156.9960 C   0  0  0  0  0  2  0  0  0  0  0  0
  160.8400  207.0260  154.9430 O   0  0  0  0  0  0  0  0  0  0  0  0
  158.5310  213.3680  157.0050 C   0  0  0  0  0  2  0  0  0  0  0  0
  161.2000  208.2240  152.8940 C   0  0  0  0  0  0  0  0  0  0  0  0
  160.0230  211.7940  152.2580 C   0  0  1  0  0  3  0  0  0  0  0  0
  161.9950  205.9520  153.0840 C   0  0  2  0  0  3  0  0  0  0  0  0
  161.8160  207.9120  151.7100 C   0  0  0  0  0  0  0  0  0  0  0  0
  158.6240  211.7810  154.0910 C   0  0  2  0  0  3  0  0  0  0  0  0
  160.6380  209.4870  153.1290 C   0  0  0  0  0  0  0  0  0  0  0  0
  159.4390  211.0630  156.3810 C   0  0  0  0  0  2  0  0  0  0  0  0
  161.9020  208.8410  150.6780 C   0  0  0  0  0  3  0  0  0  0  0  0
  157.6460  213.3420  155.7540 C   0  0  0  0  0  2  0  0  0  0  0  0
  158.4330  213.2510  154.4550 C   0  0  0  0  0  2  0  0  0  0  0  0
  159.7600  211.1110  154.8950 C   0  0  1  0  0  3  0  0  0  0  0  0
  160.1570  214.2980  148.7630 C   0  0  0  0  0  3  0  0  0  0  0  0
  160.0630  212.6820  151.0490 C   0  0  0  0  0  0  0  0  0  0  0  0
  161.1420  212.5840  150.1620 C   0  0  0  0  0  3  0  0  0  0  0  0
  161.1890  213.3910  149.0220 C   0  0  0  0  0  3  0  0  0  0  0  0
  159.0760  214.3970  149.6440 C   0  0  0  0  0  3  0  0  0  0  0  0
  159.0270  213.5890  150.7840 C   0  0  0  0  0  3  0  0  0  0  0  0
  1 15  1  0  0  0  0
  2 12  1  0  0  0  0
  2 16  1  0  0  0  0
  3 21  1  0  0  0  0
  4 14  1  0  0  0  0
  4 13  1  0  0  0  0
  6  2  2  0  0  0  0
  7  9  2  0  0  0  0
  8 10  1  0  0  0  0
 11 16  2  0  0  0  0
 11  7  1  0  0  0  0
 12 23  1  6  0  0  0
 12  1  1  0  0  0  0
 13  5  1  6  0  0  0
 13  7  1  0  0  0  0
 14 11  1  0  0  0  0
 15 20  1  6  0  0  0
 15 21  1  0  0  0  0
 16  3  1  0  0  0  0
 17  8  1  0  0  0  0
 18  6  1  0  0  0  0
 18 14  2  0  0  0  0
 19 10  1  0  0  0  0
 20 19  1  0  0  0  0
 21 17  1  1  0  0  0
 22 25  2  0  0  0  0
 22 26  1  0  0  0  0
 24 23  2  0  0  0  0
 25 24  1  0  0  0  0
 26 27  2  0  0  0  0
 27 23  1  0  0  0  0
M  END
>  <MODEL>
7

>  <REMARK>
 VINA RESULT:      -5.8      2.275      5.580
  Name = 
  1 active torsions:
  status: ('A' for Active; 'I' for Inactive)
    1  A    between atoms: C_9  and  C_15
                            x       y       z     vdW  Elec       q    Type
                         _______ _______ _______ _____ _____    ______ ____

>  <TORSDO>
F 1

$$$$
=
 OpenBabel11052423063D

 27 31  0  0  1  0  0  0  0  0999 V2000
  160.9550  211.5140  139.4140 O   0  0  0  0  0  0  0  0  0  0  0  0
  158.8290  210.4700  139.1350 C   0  0  0  0  0  0  0  0  0  0  0  0
  158.5490  212.4920  140.5880 N   0  0  0  0  0  2  0  0  0  0  0  0
  154.8210  211.1980  137.8160 C   0  0  0  0  0  2  0  0  0  0  0  0
  154.2780  213.5800  137.7080 N   0  0  0  0  0  1  0  0  0  0  0  0
  158.2580  209.5720  138.2030 C   0  0  0  0  0  3  0  0  0  0  0  0
  155.7640  212.7250  139.4020 C   0  0  0  0  0  0  0  0  0  0  0  0
  160.5160  212.6830  143.7430 C   0  0  0  0  0  2  0  0  0  0  0  0
  155.9190  213.6730  140.2160 O   0  0  0  0  0  0  0  0  0  0  0  0
  162.0150  212.9990  143.7070 C   0  0  0  0  0  2  0  0  0  0  0  0
  156.7570  211.7190  139.1020 C   0  0  0  0  0  0  0  0  0  0  0  0
  160.2620  210.3030  139.5960 C   0  0  1  0  0  3  0  0  0  0  0  0
  154.5150  212.4760  138.6220 C   0  0  2  0  0  3  0  0  0  0  0  0
  156.2210  210.8420  138.1960 C   0  0  0  0  0  0  0  0  0  0  0  0
  161.0120  212.2180  140.6410 C   0  0  2  0  0  3  0  0  0  0  0  0
  158.0530  211.5600  139.6130 C   0  0  0  0  0  0  0  0  0  0  0  0
  159.7430  213.2650  142.5680 C   0  0  0  0  0  2  0  0  0  0  0  0
  156.9500  209.7510  137.7320 C   0  0  0  0  0  3  0  0  0  0  0  0
  162.6830  212.9380  142.3290 C   0  0  0  0  0  2  0  0  0  0  0  0
  162.2090  211.7710  141.4760 C   0  0  0  0  0  2  0  0  0  0  0  0
  159.6960  212.2360  141.4490 C   0  0  1  0  0  3  0  0  0  0  0  0
  162.3630  207.0200  137.7760 C   0  0  0  0  0  3  0  0  0  0  0  0
  161.0060  209.1710  138.9520 C   0  0  0  0  0  0  0  0  0  0  0  0
  161.3260  208.0410  139.7130 C   0  0  0  0  0  3  0  0  0  0  0  0
  162.0040  206.9680  139.1270 C   0  0  0  0  0  3  0  0  0  0  0  0
  162.0420  208.1460  137.0110 C   0  0  0  0  0  3  0  0  0  0  0  0
  161.3620  209.2180  137.5960 C   0  0  0  0  0  3  0  0  0  0  0  0
  1 12  1  0  0  0  0
  1 15  1  0  0  0  0
  2 12  1  0  0  0  0
  2 16  1  0  0  0  0
  3 21  1  0  0  0  0
  4 14  1  0  0  0  0
  4 13  1  0  0  0  0
  6  2  2  0  0  0  0
  7  9  2  0  0  0  0
 10  8  1  0  0  0  0
 11  7  1  0  0  0  0
 11 16  2  0  0  0  0
 12 23  1  6  0  0  0
 13  5  1  6  0  0  0
 13  7  1  0  0  0  0
 14 11  1  0  0  0  0
 15 21  1  0  0  0  0
 15 20  1  1  0  0  0
 16  3  1  0  0  0  0
 17  8  1  0  0  0  0
 18 14  2  0  0  0  0
 18  6  1  0  0  0  0
 19 10  1  0  0  0  0
 20 19  1  0  0  0  0
 21 17  1  1  0  0  0
 22 25  1  0  0  0  0
 23 24  1  0  0  0  0
 25 24  2  0  0  0  0
 26 27  1  0  0  0  0
 26 22  2  0  0  0  0
 27 23  2  0  0  0  0
M  END
>  <MODEL>
8

>  <REMARK>
 VINA RESULT:      -5.8     10.212     13.581
  Name = 
  1 active torsions:
  status: ('A' for Active; 'I' for Inactive)
    1  A    between atoms: C_9  and  C_15
                            x       y       z     vdW  Elec       q    Type
                         _______ _______ _______ _____ _____    ______ ____

>  <TORSDO>
F 1

$$$$
=
 OpenBabel11052423063D

 27 31  0  0  1  0  0  0  0  0999 V2000
  160.2920  208.5200  151.6450 O   0  0  0  0  0  0  0  0  0  0  0  0
  161.5280  206.9990  150.2860 C   0  0  0  0  0  0  0  0  0  0  0  0
  160.8860  205.8400  152.4130 N   0  0  0  0  0  2  0  0  0  0  0  0
  161.3300  203.1390  148.4430 C   0  0  0  0  0  2  0  0  0  0  0  0
  159.5870  201.7190  149.4050 N   0  0  0  0  0  1  0  0  0  0  0  0
  161.8430  206.8970  148.9100 C   0  0  0  0  0  3  0  0  0  0  0  0
  160.8030  203.2860  150.7750 C   0  0  0  0  0  0  0  0  0  0  0  0
  162.0030  207.3270  155.6380 C   0  0  0  0  0  2  0  0  0  0  0  0
  160.4980  202.9950  151.9610 O   0  0  0  0  0  0  0  0  0  0  0  0
  161.3210  208.5820  156.1940 C   0  0  0  0  0  2  0  0  0  0  0  0
  161.1270  204.6130  150.3030 C   0  0  0  0  0  0  0  0  0  0  0  0
  161.5210  208.3430  150.9840 C   0  0  1  0  0  3  0  0  0  0  0  0
  160.8950  202.2970  149.6590 C   0  0  2  0  0  3  0  0  0  0  0  0
  161.4310  204.5330  148.9690 C   0  0  0  0  0  0  0  0  0  0  0  0
  160.4400  208.2030  153.0160 C   0  0  2  0  0  3  0  0  0  0  0  0
  161.1810  205.8240  151.0070 C   0  0  0  0  0  0  0  0  0  0  0  0
  161.0970  206.4810  154.7560 C   0  0  0  0  0  2  0  0  0  0  0  0
  161.8000  205.6640  148.2470 C   0  0  0  0  0  3  0  0  0  0  0  0
  160.3890  209.3240  155.2300 C   0  0  0  0  0  2  0  0  0  0  0  0
  160.9290  209.4110  153.8100 C   0  0  0  0  0  2  0  0  0  0  0  0
  161.2580  206.9270  153.3100 C   0  0  1  0  0  3  0  0  0  0  0  0
  162.3260  211.6900  148.4040 C   0  0  0  0  0  3  0  0  0  0  0  0
  161.8140  209.5170  150.0970 C   0  0  0  0  0  0  0  0  0  0  0  0
  161.9540  209.3170  148.7190 C   0  0  0  0  0  3  0  0  0  0  0  0
  162.2110  210.4010  147.8740 C   0  0  0  0  0  3  0  0  0  0  0  0
  162.1830  211.8950  149.7790 C   0  0  0  0  0  3  0  0  0  0  0  0
  161.9250  210.8120  150.6240 C   0  0  0  0  0  3  0  0  0  0  0  0
  1 15  1  0  0  0  0
  2 12  1  0  0  0  0
  2 16  1  0  0  0  0
  3 21  1  0  0  0  0
  4 14  1  0  0  0  0
  4 13  1  0  0  0  0
  6  2  2  0  0  0  0
  7  9  2  0  0  0  0
  8 10  1  0  0  0  0
 11  7  1  0  0  0  0
 11 16  2  0  0  0  0
 12 23  1  6  0  0  0
 12  1  1  0  0  0  0
 13  5  1  6  0  0  0
 13  7  1  0  0  0  0
 14 11  1  0  0  0  0
 15 21  1  0  0  0  0
 15 20  1  1  0  0  0
 16  3  1  0  0  0  0
 17  8  1  0  0  0  0
 18  6  1  0  0  0  0
 18 14  2  0  0  0  0
 19 10  1  0  0  0  0
 20 19  1  0  0  0  0
 21 17  1  1  0  0  0
 22 26  1  0  0  0  0
 23 27  1  0  0  0  0
 24 23  2  0  0  0  0
 25 22  2  0  0  0  0
 25 24  1  0  0  0  0
 26 27  2  0  0  0  0
M  END
>  <MODEL>
9

>  <REMARK>
 VINA RESULT:      -5.7      2.144      5.730
  Name = 
  1 active torsions:
  status: ('A' for Active; 'I' for Inactive)
    1  A    between atoms: C_9  and  C_15
                            x       y       z     vdW  Elec       q    Type
                         _______ _______ _______ _____ _____    ______ ____

>  <TORSDO>
F 1

$$$$
