=
 OpenBabel11052422073D

 25 28  0  0  1  0  0  0  0  0999 V2000
  161.2760  208.8910  153.3800 C   0  0  0  0  0  0  0  0  0  0  0  0
  161.4330  207.8500  152.4610 C   0  0  0  0  0  0  0  0  0  0  0  0
  160.9690  207.3300  155.1710 C   0  0  0  0  0  3  0  0  0  0  0  0
  161.3620  210.3710  153.2050 C   0  0  2  0  0  3  0  0  0  0  0  0
  160.9630  207.2590  148.7900 N   0  0  0  0  0  2  0  0  0  0  0  0
  158.8090  211.3670  154.0190 C   0  0  0  0  0  2  0  0  0  0  0  0
  161.1110  206.3040  154.2800 N   0  0  0  0  0  0  0  0  0  0  0  0
  161.1890  210.9380  154.5890 N   0  0  1  0  0  0  0  0  0  0  0  0
  160.0480  211.8510  154.7660 C   0  0  0  0  0  2  0  0  0  0  0  0
  161.5480  205.3870  151.9880 C   0  0  1  0  0  3  0  0  0  0  0  0
  160.7550  204.1550  152.3870 C   0  0  0  0  0  1  0  0  0  0  0  0
  161.7760  208.1040  151.0230 C   0  0  0  0  0  2  0  0  0  0  0  0
  159.1440  211.3030  152.5680 C   0  0  0  0  0  3  0  0  0  0  0  0
  161.0530  208.6320  154.6900 C   0  0  0  0  0  0  0  0  0  0  0  0
  160.9820  209.8250  155.4320 N   0  0  0  0  0  2  0  0  0  0  0  0
  161.1900  205.7660  150.6170 N   0  0  0  0  0  0  0  0  0  0  0  0
  160.3410  210.8470  152.1920 C   0  0  0  0  0  3  0  0  0  0  0  0
  161.2970  206.9780  150.1500 C   0  0  0  0  0  0  0  0  0  0  0  0
  161.3240  206.5290  152.9450 C   0  0  0  0  0  0  0  0  0  0  0  0
  160.4880  206.2310  147.8760 C   0  0  0  0  0  2  0  0  0  0  0  0
  161.3850  206.1710  146.6480 C   0  0  2  0  0  3  0  0  0  0  0  0
  160.5180  206.1500  145.3990 C   0  0  0  0  0  1  0  0  0  0  0  0
  162.2750  204.9290  146.6980 C   0  0  2  0  0  3  0  0  0  0  0  0
  162.4060  204.3760  145.4220 O   0  0  0  0  0  1  0  0  0  0  0  0
  161.6830  203.8800  147.6230 C   0  0  0  0  0  1  0  0  0  0  0  0
  1 14  1  0  0  0  0
  2 19  1  0  0  0  0
  2  1  2  0  0  0  0
  4 17  1  6  0  0  0
  4  1  1  0  0  0  0
  4  8  1  0  0  0  0
  5 18  1  0  0  0  0
  6  9  1  0  0  0  0
  7  3  1  0  0  0  0
  8  9  1  6  0  0  0
  8 15  1  0  0  0  0
 10 11  1  1  0  0  0
 10 19  1  0  0  0  0
 12  2  1  0  0  0  0
 13  6  1  0  0  0  0
 14  3  2  0  0  0  0
 14 15  1  0  0  0  0
 16 10  1  0  0  0  0
 17 13  2  0  0  0  0
 18 16  2  0  0  0  0
 18 12  1  0  0  0  0
 19  7  2  0  0  0  0
 20  5  1  0  0  0  0
 21 22  1  6  0  0  0
 21 23  1  0  0  0  0
 21 20  1  0  0  0  0
 23 25  1  1  0  0  0
 24 23  1  0  0  0  0
M  END
>  <MODEL>
1

>  <REMARK>
 VINA RESULT:      -8.8      0.000      0.000
  Name = 
  3 active torsions:
  status: ('A' for Active; 'I' for Inactive)
    1  A    between atoms: C_2  and  C_21
    2  A    between atoms: N_6  and  C_15
    3  A    between atoms: C_15  and  C_21
                            x       y       z     vdW  Elec       q    Type
                         _______ _______ _______ _____ _____    ______ ____

>  <TORSDO>
F 3

$$$$
=
 OpenBabel11052422073D

 25 28  0  0  1  0  0  0  0  0999 V2000
  160.8160  209.5860  153.8740 C   0  0  0  0  0  0  0  0  0  0  0  0
  161.4330  208.6100  153.0900 C   0  0  0  0  0  0  0  0  0  0  0  0
  160.0590  207.9290  155.4290 C   0  0  0  0  0  3  0  0  0  0  0  0
  160.7760  211.0720  153.7340 C   0  0  2  0  0  3  0  0  0  0  0  0
  162.4480  208.1150  149.5150 N   0  0  0  0  0  2  0  0  0  0  0  0
  158.0010  211.7260  153.5210 C   0  0  0  0  0  2  0  0  0  0  0  0
  160.6500  206.9640  154.6650 N   0  0  0  0  0  0  0  0  0  0  0  0
  160.0290  211.5580  154.9480 N   0  0  1  0  0  0  0  0  0  0  0  0
  158.8000  212.3220  154.6760 C   0  0  0  0  0  2  0  0  0  0  0  0
  162.0230  206.1980  152.7120 C   0  0  1  0  0  3  0  0  0  0  0  0
  161.2980  204.8660  152.7920 C   0  0  0  0  0  1  0  0  0  0  0  0
  162.2540  208.9600  151.8840 C   0  0  0  0  0  2  0  0  0  0  0  0
  158.8600  211.7610  152.3030 C   0  0  0  0  0  3  0  0  0  0  0  0
  160.1540  209.2500  155.0060 C   0  0  0  0  0  0  0  0  0  0  0  0
  159.6620  210.3960  155.6590 N   0  0  0  0  0  2  0  0  0  0  0  0
  162.1590  206.5870  151.3050 N   0  0  0  0  0  0  0  0  0  0  0  0
  160.1580  211.4650  152.4080 C   0  0  0  0  0  3  0  0  0  0  0  0
  162.2810  207.8210  150.9030 C   0  0  0  0  0  0  0  0  0  0  0  0
  161.3170  207.2660  153.5060 C   0  0  0  0  0  0  0  0  0  0  0  0
  162.4820  207.0760  148.4970 C   0  0  0  0  0  2  0  0  0  0  0  0
  161.1430  207.0100  147.7760 C   0  0  2  0  0  3  0  0  0  0  0  0
  160.1570  206.2280  148.6300 C   0  0  0  0  0  1  0  0  0  0  0  0
  161.3070  206.3460  146.4090 C   0  0  2  0  0  3  0  0  0  0  0  0
  160.0740  206.2750  145.7560 O   0  0  0  0  0  1  0  0  0  0  0  0
  161.8590  204.9390  146.5570 C   0  0  0  0  0  1  0  0  0  0  0  0
  1 14  1  0  0  0  0
  2 19  1  0  0  0  0
  2  1  2  0  0  0  0
  4 17  1  6  0  0  0
  4  1  1  0  0  0  0
  4  8  1  0  0  0  0
  5 18  1  0  0  0  0
  6  9  1  0  0  0  0
  7  3  1  0  0  0  0
  8  9  1  6  0  0  0
  8 15  1  0  0  0  0
 10 11  1  6  0  0  0
 10 19  1  0  0  0  0
 12  2  1  0  0  0  0
 13 17  2  0  0  0  0
 13  6  1  0  0  0  0
 14  3  2  0  0  0  0
 14 15  1  0  0  0  0
 16 10  1  0  0  0  0
 18 16  2  0  0  0  0
 18 12  1  0  0  0  0
 19  7  2  0  0  0  0
 20  5  1  0  0  0  0
 21 20  1  0  0  0  0
 21 22  1  1  0  0  0
 23 25  1  1  0  0  0
 23 21  1  0  0  0  0
 24 23  1  0  0  0  0
M  END
>  <MODEL>
2

>  <REMARK>
 VINA RESULT:      -7.6      1.235      1.535
  Name = 
  3 active torsions:
  status: ('A' for Active; 'I' for Inactive)
    1  A    between atoms: C_2  and  C_21
    2  A    between atoms: N_6  and  C_15
    3  A    between atoms: C_15  and  C_21
                            x       y       z     vdW  Elec       q    Type
                         _______ _______ _______ _____ _____    ______ ____

>  <TORSDO>
F 3

$$$$
=
 OpenBabel11052422073D

 25 28  0  0  1  0  0  0  0  0999 V2000
  160.9910  204.7940  148.4280 C   0  0  0  0  0  0  0  0  0  0  0  0
  160.8910  205.5950  149.5680 C   0  0  0  0  0  0  0  0  0  0  0  0
  161.1040  202.8120  149.7690 C   0  0  0  0  0  3  0  0  0  0  0  0
  160.9540  205.1470  146.9780 C   0  0  2  0  0  3  0  0  0  0  0  0
  161.6660  209.1150  150.5960 N   0  0  0  0  0  2  0  0  0  0  0  0
  163.4470  204.2310  145.9230 C   0  0  0  0  0  2  0  0  0  0  0  0
  161.0180  203.5860  150.8910 N   0  0  0  0  0  0  0  0  0  0  0  0
  161.0170  203.8290  146.2530 N   0  0  1  0  0  0  0  0  0  0  0  0
  162.1590  203.6580  145.3390 C   0  0  0  0  0  2  0  0  0  0  0  0
  160.7620  205.7850  152.0690 C   0  0  1  0  0  3  0  0  0  0  0  0
  161.4890  205.1750  153.2540 C   0  0  0  0  0  1  0  0  0  0  0  0
  160.6810  207.0770  149.4820 C   0  0  0  0  0  2  0  0  0  0  0  0
  163.2390  205.6890  146.1550 C   0  0  0  0  0  3  0  0  0  0  0  0
  161.0920  203.4480  148.5320 C   0  0  0  0  0  0  0  0  0  0  0  0
  161.1250  202.8470  147.2610 N   0  0  0  0  0  2  0  0  0  0  0  0
  161.2470  207.1530  151.8590 N   0  0  0  0  0  0  0  0  0  0  0  0
  162.0690  206.1140  146.6370 C   0  0  0  0  0  3  0  0  0  0  0  0
  161.2080  207.7660  150.7090 C   0  0  0  0  0  0  0  0  0  0  0  0
  160.9270  204.9520  150.8240 C   0  0  0  0  0  0  0  0  0  0  0  0
  162.1950  209.8560  151.7310 C   0  0  0  0  0  2  0  0  0  0  0  0
  161.0650  210.2430  152.6730 C   0  0  2  0  0  3  0  0  0  0  0  0
  160.4640  211.5620  152.2120 C   0  0  0  0  0  1  0  0  0  0  0  0
  161.5840  210.3660  154.1060 C   0  0  2  0  0  3  0  0  0  0  0  0
  161.4770  209.1400  154.7660 O   0  0  0  0  0  1  0  0  0  0  0  0
  160.7890  211.4040  154.8780 C   0  0  0  0  0  1  0  0  0  0  0  0
  1 14  2  0  0  0  0
  1  2  1  0  0  0  0
  2 19  2  0  0  0  0
  3  7  2  0  0  0  0
  4 17  1  6  0  0  0
  4  1  1  0  0  0  0
  5 18  1  0  0  0  0
  5 20  1  0  0  0  0
  6 13  1  0  0  0  0
  8  9  1  6  0  0  0
  8  4  1  0  0  0  0
  8 15  1  0  0  0  0
  9  6  1  0  0  0  0
 10 11  1  1  0  0  0
 12  2  1  0  0  0  0
 12 18  1  0  0  0  0
 13 17  2  0  0  0  0
 14  3  1  0  0  0  0
 15 14  1  0  0  0  0
 16 10  1  0  0  0  0
 18 16  2  0  0  0  0
 19  7  1  0  0  0  0
 19 10  1  0  0  0  0
 20 21  1  0  0  0  0
 21 22  1  6  0  0  0
 21 23  1  0  0  0  0
 23 24  1  0  0  0  0
 23 25  1  1  0  0  0
M  END
>  <MODEL>
3

>  <REMARK>
 VINA RESULT:      -7.2      2.891      7.553
  Name = 
  3 active torsions:
  status: ('A' for Active; 'I' for Inactive)
    1  A    between atoms: C_2  and  C_21
    2  A    between atoms: N_6  and  C_15
    3  A    between atoms: C_15  and  C_21
                            x       y       z     vdW  Elec       q    Type
                         _______ _______ _______ _____ _____    ______ ____

>  <TORSDO>
F 3

$$$$
=
 OpenBabel11052422073D

 25 28  0  0  1  0  0  0  0  0999 V2000
  161.5370  208.9150  152.8880 C   0  0  0  0  0  0  0  0  0  0  0  0
  161.8210  209.0670  151.5290 C   0  0  0  0  0  0  0  0  0  0  0  0
  161.0310  206.5940  152.5730 C   0  0  0  0  0  3  0  0  0  0  0  0
  161.6240  209.8840  154.0200 C   0  0  2  0  0  3  0  0  0  0  0  0
  161.8200  211.7900  148.9530 N   0  0  0  0  0  2  0  0  0  0  0  0
  158.9770  210.0210  155.0890 C   0  0  0  0  0  2  0  0  0  0  0  0
  161.2970  206.7330  151.2410 N   0  0  0  0  0  0  0  0  0  0  0  0
  161.2730  209.0840  155.2460 N   0  0  1  0  0  0  0  0  0  0  0  0
  160.1060  209.5620  156.0070 C   0  0  0  0  0  2  0  0  0  0  0  0
  162.0270  208.0560  149.2390 C   0  0  1  0  0  3  0  0  0  0  0  0
  161.2080  207.1090  148.3800 C   0  0  0  0  0  1  0  0  0  0  0  0
  162.3370  210.3570  150.9640 C   0  0  0  0  0  2  0  0  0  0  0  0
  159.4910  211.1430  154.2540 C   0  0  0  0  0  3  0  0  0  0  0  0
  161.1570  207.7150  153.3870 C   0  0  0  0  0  0  0  0  0  0  0  0
  160.9780  207.7850  154.7810 N   0  0  0  0  0  2  0  0  0  0  0  0
  161.8370  209.4280  148.7590 N   0  0  0  0  0  0  0  0  0  0  0  0
  160.7310  211.0810  153.7650 C   0  0  0  0  0  3  0  0  0  0  0  0
  161.9850  210.4840  149.5080 C   0  0  0  0  0  0  0  0  0  0  0  0
  161.6710  207.9360  150.6980 C   0  0  0  0  0  0  0  0  0  0  0  0
  161.4760  212.0060  147.5560 C   0  0  0  0  0  2  0  0  0  0  0  0
  162.4780  212.9540  146.9140 C   0  0  2  0  0  3  0  0  0  0  0  0
  162.7020  214.1410  147.8390 C   0  0  0  0  0  1  0  0  0  0  0  0
  161.9660  213.4300  145.5540 C   0  0  2  0  0  3  0  0  0  0  0  0
  160.8800  212.6520  145.1470 O   0  0  0  0  0  1  0  0  0  0  0  0
  163.0570  213.3280  144.5030 C   0  0  0  0  0  1  0  0  0  0  0  0
  1 14  1  0  0  0  0
  1  4  1  0  0  0  0
  2  1  2  0  0  0  0
  3 14  2  0  0  0  0
  4 17  1  6  0  0  0
  4  8  1  0  0  0  0
  5 18  1  0  0  0  0
  6  9  1  0  0  0  0
  7  3  1  0  0  0  0
  8  9  1  6  0  0  0
 10 11  1  6  0  0  0
 10 19  1  0  0  0  0
 12  2  1  0  0  0  0
 13  6  1  0  0  0  0
 14 15  1  0  0  0  0
 15  8  1  0  0  0  0
 16 10  1  0  0  0  0
 16 18  2  0  0  0  0
 17 13  2  0  0  0  0
 18 12  1  0  0  0  0
 19  7  2  0  0  0  0
 19  2  1  0  0  0  0
 20  5  1  0  0  0  0
 21 20  1  0  0  0  0
 21 22  1  1  0  0  0
 23 25  1  6  0  0  0
 23 21  1  0  0  0  0
 24 23  1  0  0  0  0
M  END
>  <MODEL>
4

>  <REMARK>
 VINA RESULT:      -6.8      3.688      4.703
  Name = 
  3 active torsions:
  status: ('A' for Active; 'I' for Inactive)
    1  A    between atoms: C_2  and  C_21
    2  A    between atoms: N_6  and  C_15
    3  A    between atoms: C_15  and  C_21
                            x       y       z     vdW  Elec       q    Type
                         _______ _______ _______ _____ _____    ______ ____

>  <TORSDO>
F 3

$$$$
=
 OpenBabel11052422073D

 25 28  0  0  1  0  0  0  0  0999 V2000
  160.8920  204.0960  147.7660 C   0  0  0  0  0  0  0  0  0  0  0  0
  160.7460  204.4510  149.1090 C   0  0  0  0  0  0  0  0  0  0  0  0
  161.1230  201.7840  148.3500 C   0  0  0  0  0  3  0  0  0  0  0  0
  160.8330  204.9220  146.5240 C   0  0  2  0  0  3  0  0  0  0  0  0
  161.3130  207.4430  151.2940 N   0  0  0  0  0  2  0  0  0  0  0  0
  163.3760  204.5630  145.2680 C   0  0  0  0  0  2  0  0  0  0  0  0
  160.9920  202.1200  149.6670 N   0  0  0  0  0  0  0  0  0  0  0  0
  160.9740  203.9380  145.3930 N   0  0  1  0  0  0  0  0  0  0  0  0
  162.1230  204.1540  144.4990 C   0  0  0  0  0  2  0  0  0  0  0  0
  160.6080  203.7650  151.5210 C   0  0  1  0  0  3  0  0  0  0  0  0
  161.3710  202.8270  152.4400 C   0  0  0  0  0  1  0  0  0  0  0  0
  160.4490  205.8590  149.5310 C   0  0  0  0  0  2  0  0  0  0  0  0
  163.0820  205.8390  145.9800 C   0  0  0  0  0  3  0  0  0  0  0  0
  161.0720  202.8040  147.4050 C   0  0  0  0  0  0  0  0  0  0  0  0
  161.1390  202.6780  146.0060 N   0  0  0  0  0  2  0  0  0  0  0  0
  161.0120  205.1470  151.8010 N   0  0  0  0  0  0  0  0  0  0  0  0
  161.8890  206.0070  146.5560 C   0  0  0  0  0  3  0  0  0  0  0  0
  160.9360  206.1140  150.9300 C   0  0  0  0  0  0  0  0  0  0  0  0
  160.8210  203.4200  150.0690 C   0  0  0  0  0  0  0  0  0  0  0  0
  161.7990  207.7790  152.6240 C   0  0  0  0  0  2  0  0  0  0  0  0
  160.8950  208.8240  153.2600 C   0  0  2  0  0  3  0  0  0  0  0  0
  161.5760  210.1820  153.1830 C   0  0  0  0  0  1  0  0  0  0  0  0
  160.5990  208.4600  154.7140 C   0  0  2  0  0  3  0  0  0  0  0  0
  161.5890  208.9750  155.5540 O   0  0  0  0  0  1  0  0  0  0  0  0
  160.5500  206.9520  154.8920 C   0  0  0  0  0  1  0  0  0  0  0  0
  1  2  1  0  0  0  0
  2 12  1  0  0  0  0
  2 19  2  0  0  0  0
  3  7  2  0  0  0  0
  4 17  1  1  0  0  0
  4  1  1  0  0  0  0
  5 20  1  0  0  0  0
  6 13  1  0  0  0  0
  7 19  1  0  0  0  0
  8  9  1  1  0  0  0
  8 15  1  0  0  0  0
  8  4  1  0  0  0  0
  9  6  1  0  0  0  0
 10 16  1  0  0  0  0
 10 11  1  1  0  0  0
 12 18  1  0  0  0  0
 13 17  2  0  0  0  0
 14  1  2  0  0  0  0
 14  3  1  0  0  0  0
 15 14  1  0  0  0  0
 18  5  1  0  0  0  0
 18 16  2  0  0  0  0
 19 10  1  0  0  0  0
 20 21  1  0  0  0  0
 21 22  1  1  0  0  0
 21 23  1  0  0  0  0
 23 25  1  6  0  0  0
 23 24  1  0  0  0  0
M  END
>  <MODEL>
5

>  <REMARK>
 VINA RESULT:      -6.6      3.052      7.885
  Name = 
  3 active torsions:
  status: ('A' for Active; 'I' for Inactive)
    1  A    between atoms: C_2  and  C_21
    2  A    between atoms: N_6  and  C_15
    3  A    between atoms: C_15  and  C_21
                            x       y       z     vdW  Elec       q    Type
                         _______ _______ _______ _____ _____    ______ ____

>  <TORSDO>
F 3

$$$$
=
 OpenBabel11052422073D

 25 28  0  0  1  0  0  0  0  0999 V2000
  160.8110  209.3160  154.0460 C   0  0  0  0  0  0  0  0  0  0  0  0
  160.8520  208.3930  152.9980 C   0  0  0  0  0  0  0  0  0  0  0  0
  161.5190  211.0780  152.5860 C   0  0  0  0  0  3  0  0  0  0  0  0
  160.3970  209.1600  155.4720 C   0  0  2  0  0  3  0  0  0  0  0  0
  161.3020  204.7010  152.5330 N   0  0  0  0  0  2  0  0  0  0  0  0
  162.6980  209.8920  157.0010 C   0  0  0  0  0  2  0  0  0  0  0  0
  161.5720  210.1830  151.5560 N   0  0  0  0  0  0  0  0  0  0  0  0
  160.4920  210.5430  156.0600 N   0  0  1  0  0  0  0  0  0  0  0  0
  161.4120  210.6890  157.2000 C   0  0  0  0  0  2  0  0  0  0  0  0
  161.2620  207.8980  150.5710 C   0  0  1  0  0  3  0  0  0  0  0  0
  162.3190  208.2560  149.5410 C   0  0  0  0  0  1  0  0  0  0  0  0
  160.4080  206.9710  153.1740 C   0  0  0  0  0  2  0  0  0  0  0  0
  162.3310  208.4530  156.8690 C   0  0  0  0  0  3  0  0  0  0  0  0
  161.1340  210.6140  153.8390 C   0  0  0  0  0  0  0  0  0  0  0  0
  160.9690  211.3660  155.0170 N   0  0  0  0  0  2  0  0  0  0  0  0
  161.4760  206.5200  151.0220 N   0  0  0  0  0  0  0  0  0  0  0  0
  161.2500  208.1160  156.1620 C   0  0  0  0  0  3  0  0  0  0  0  0
  161.0890  206.0700  152.1830 C   0  0  0  0  0  0  0  0  0  0  0  0
  161.2650  208.8580  151.7320 C   0  0  0  0  0  0  0  0  0  0  0  0
  161.9560  203.7600  151.6360 C   0  0  0  0  0  2  0  0  0  0  0  0
  160.9280  203.1160  150.7170 C   0  0  2  0  0  3  0  0  0  0  0  0
  160.9800  201.6070  150.8940 C   0  0  0  0  0  1  0  0  0  0  0  0
  161.2060  203.4910  149.2610 C   0  0  2  0  0  3  0  0  0  0  0  0
  160.4630  204.6180  148.9010 O   0  0  0  0  0  1  0  0  0  0  0  0
  160.8350  202.3490  148.3310 C   0  0  0  0  0  1  0  0  0  0  0  0
  1  4  1  0  0  0  0
  2 12  1  0  0  0  0
  2  1  2  0  0  0  0
  3 14  2  0  0  0  0
  4  8  1  0  0  0  0
  4 17  1  1  0  0  0
  6  9  1  0  0  0  0
  7 19  2  0  0  0  0
  7  3  1  0  0  0  0
  8  9  1  1  0  0  0
 10 11  1  6  0  0  0
 10 16  1  0  0  0  0
 10 19  1  0  0  0  0
 13  6  1  0  0  0  0
 14  1  1  0  0  0  0
 14 15  1  0  0  0  0
 15  8  1  0  0  0  0
 16 18  2  0  0  0  0
 17 13  2  0  0  0  0
 18  5  1  0  0  0  0
 18 12  1  0  0  0  0
 19  2  1  0  0  0  0
 20  5  1  0  0  0  0
 21 22  1  6  0  0  0
 21 20  1  0  0  0  0
 23 25  1  6  0  0  0
 23 21  1  0  0  0  0
 24 23  1  0  0  0  0
M  END
>  <MODEL>
6

>  <REMARK>
 VINA RESULT:      -6.4      2.148      3.821
  Name = 
  3 active torsions:
  status: ('A' for Active; 'I' for Inactive)
    1  A    between atoms: C_2  and  C_21
    2  A    between atoms: N_6  and  C_15
    3  A    between atoms: C_15  and  C_21
                            x       y       z     vdW  Elec       q    Type
                         _______ _______ _______ _____ _____    ______ ____

>  <TORSDO>
F 3

$$$$
