=
 OpenBabel11052423143D

 27 31  0  0  1  0  0  0  0  0999 V2000
  160.6910  209.6770  152.0740 N   0  0  0  0  0  2  0  0  0  0  0  0
  161.4020  207.9800  150.5040 C   0  0  0  0  0  0  0  0  0  0  0  0
  161.8680  206.9760  152.6940 O   0  0  0  0  0  0  0  0  0  0  0  0
  160.7680  204.1430  148.9050 C   0  0  0  0  0  3  0  0  0  0  0  0
  160.7160  201.7470  149.1810 O   0  0  0  0  0  1  0  0  0  0  0  0
  161.0380  207.8140  149.1580 C   0  0  0  0  0  3  0  0  0  0  0  0
  161.4790  204.4270  151.5990 C   0  0  0  0  0  3  0  0  0  0  0  0
  160.5360  208.0200  155.9620 C   0  0  0  0  0  0  0  0  0  0  0  0
  161.2740  203.1550  151.0580 C   0  0  0  0  0  3  0  0  0  0  0  0
  160.5210  207.5290  157.2600 O   0  0  0  0  0  1  0  0  0  0  0  0
  161.3340  205.5700  150.7990 C   0  0  0  0  0  0  0  0  0  0  0  0
  161.6890  209.3360  151.0770 C   0  0  1  0  0  3  0  0  0  0  0  0
  160.9190  203.0130  149.7130 C   0  0  0  0  0  0  0  0  0  0  0  0
  160.9740  205.4190  149.4380 C   0  0  0  0  0  0  0  0  0  0  0  0
  160.5940  209.0300  153.3450 C   0  0  0  0  0  0  0  0  0  0  0  0
  161.5260  206.8550  151.3380 C   0  0  0  0  0  0  0  0  0  0  0  0
  161.2120  207.3250  154.9600 C   0  0  0  0  0  3  0  0  0  0  0  0
  160.8210  206.5420  148.6300 C   0  0  0  0  0  3  0  0  0  0  0  0
  159.8670  209.2050  155.6560 C   0  0  0  0  0  3  0  0  0  0  0  0
  159.9030  209.7060  154.3560 C   0  0  0  0  0  3  0  0  0  0  0  0
  161.2340  207.7970  153.6410 C   0  0  0  0  0  0  0  0  0  0  0  0
  162.0930  212.5280  148.2180 C   0  0  0  0  0  3  0  0  0  0  0  0
  161.8270  210.4350  150.0600 C   0  0  0  0  0  0  0  0  0  0  0  0
  161.1620  211.6480  150.2730 C   0  0  0  0  0  3  0  0  0  0  0  0
  161.2920  212.6920  149.3530 C   0  0  0  0  0  3  0  0  0  0  0  0
  162.7640  211.3210  148.0040 C   0  0  0  0  0  3  0  0  0  0  0  0
  162.6340  210.2760  148.9230 C   0  0  0  0  0  3  0  0  0  0  0  0
  1 15  1  0  0  0  0
  2 12  1  0  0  0  0
  2 16  1  0  0  0  0
  3 21  1  0  0  0  0
  4 14  1  0  0  0  0
  4 13  2  0  0  0  0
  5 13  1  0  0  0  0
  6  2  2  0  0  0  0
  8 10  1  0  0  0  0
  9  7  2  0  0  0  0
 11 16  2  0  0  0  0
 11  7  1  0  0  0  0
 12 23  1  6  0  0  0
 12  1  1  0  0  0  0
 13  9  1  0  0  0  0
 14 11  1  0  0  0  0
 15 21  2  0  0  0  0
 15 20  1  0  0  0  0
 16  3  1  0  0  0  0
 17  8  2  0  0  0  0
 18  6  1  0  0  0  0
 18 14  2  0  0  0  0
 19  8  1  0  0  0  0
 20 19  2  0  0  0  0
 21 17  1  0  0  0  0
 22 25  1  0  0  0  0
 23 24  1  0  0  0  0
 25 24  2  0  0  0  0
 26 22  2  0  0  0  0
 26 27  1  0  0  0  0
 27 23  2  0  0  0  0
M  END
>  <MODEL>
1

>  <REMARK>
 VINA RESULT:      -8.3      0.000      0.000
  Name = 
  1 active torsions:
  status: ('A' for Active; 'I' for Inactive)
    1  A    between atoms: C_9  and  C_15
                            x       y       z     vdW  Elec       q    Type
                         _______ _______ _______ _____ _____    ______ ____

>  <TORSDO>
F 1

$$$$
=
 OpenBabel11052423143D

 27 31  0  0  1  0  0  0  0  0999 V2000
  160.7980  210.6520  151.4330 N   0  0  0  0  0  2  0  0  0  0  0  0
  161.6260  208.8590  150.0380 C   0  0  0  0  0  0  0  0  0  0  0  0
  161.8740  207.9820  152.3160 O   0  0  0  0  0  0  0  0  0  0  0  0
  161.0860  204.9390  148.6140 C   0  0  0  0  0  3  0  0  0  0  0  0
  160.9750  202.5650  149.0220 O   0  0  0  0  0  1  0  0  0  0  0  0
  161.3840  208.6160  148.6750 C   0  0  0  0  0  3  0  0  0  0  0  0
  161.5510  205.3770  151.3400 C   0  0  0  0  0  3  0  0  0  0  0  0
  160.2630  209.2310  155.3810 C   0  0  0  0  0  0  0  0  0  0  0  0
  161.3780  204.0770  150.8580 C   0  0  0  0  0  3  0  0  0  0  0  0
  160.1220  208.8180  156.6980 O   0  0  0  0  0  1  0  0  0  0  0  0
  161.4960  206.4710  150.4650 C   0  0  0  0  0  0  0  0  0  0  0  0
  161.8780  210.2440  150.5540 C   0  0  1  0  0  3  0  0  0  0  0  0
  161.1470  203.8580  149.4970 C   0  0  0  0  0  0  0  0  0  0  0  0
  161.2600  206.2420  149.0880 C   0  0  0  0  0  0  0  0  0  0  0  0
  160.5750  210.0830  152.7250 C   0  0  0  0  0  0  0  0  0  0  0  0
  161.6560  207.7840  150.9440 C   0  0  0  0  0  0  0  0  0  0  0  0
  161.0180  208.4710  154.4870 C   0  0  0  0  0  3  0  0  0  0  0  0
  161.1980  207.3170  148.2050 C   0  0  0  0  0  3  0  0  0  0  0  0
  159.6420  210.4010  154.9460 C   0  0  0  0  0  3  0  0  0  0  0  0
  159.8040  210.8240  153.6270 C   0  0  0  0  0  3  0  0  0  0  0  0
  161.1670  208.8640  153.1510 C   0  0  0  0  0  0  0  0  0  0  0  0
  162.5660  213.2580  147.5590 C   0  0  0  0  0  3  0  0  0  0  0  0
  162.1240  211.2790  149.4930 C   0  0  0  0  0  0  0  0  0  0  0  0
  161.2120  212.3290  149.3400 C   0  0  0  0  0  3  0  0  0  0  0  0
  161.4310  213.3160  148.3740 C   0  0  0  0  0  3  0  0  0  0  0  0
  163.4830  212.2140  147.7120 C   0  0  0  0  0  3  0  0  0  0  0  0
  163.2660  211.2270  148.6770 C   0  0  0  0  0  3  0  0  0  0  0  0
  1 15  1  0  0  0  0
  2 12  1  0  0  0  0
  2 16  1  0  0  0  0
  3 21  1  0  0  0  0
  4 14  1  0  0  0  0
  4 13  2  0  0  0  0
  5 13  1  0  0  0  0
  6  2  2  0  0  0  0
  8 10  1  0  0  0  0
  9  7  2  0  0  0  0
 11 16  2  0  0  0  0
 11  7  1  0  0  0  0
 12 23  1  6  0  0  0
 12  1  1  0  0  0  0
 13  9  1  0  0  0  0
 14 11  1  0  0  0  0
 15 21  2  0  0  0  0
 15 20  1  0  0  0  0
 16  3  1  0  0  0  0
 17  8  2  0  0  0  0
 18  6  1  0  0  0  0
 18 14  2  0  0  0  0
 19  8  1  0  0  0  0
 20 19  2  0  0  0  0
 21 17  1  0  0  0  0
 22 26  2  0  0  0  0
 22 25  1  0  0  0  0
 24 23  1  0  0  0  0
 25 24  2  0  0  0  0
 26 27  1  0  0  0  0
 27 23  2  0  0  0  0
M  END
>  <MODEL>
2

>  <REMARK>
 VINA RESULT:      -8.3      0.954      1.119
  Name = 
  1 active torsions:
  status: ('A' for Active; 'I' for Inactive)
    1  A    between atoms: C_9  and  C_15
                            x       y       z     vdW  Elec       q    Type
                         _______ _______ _______ _____ _____    ______ ____

>  <TORSDO>
F 1

$$$$
=
 OpenBabel11052423143D

 27 31  0  0  1  0  0  0  0  0999 V2000
  160.9370  211.2150  151.0320 N   0  0  0  0  0  2  0  0  0  0  0  0
  161.7190  209.2070  149.9350 C   0  0  0  0  0  0  0  0  0  0  0  0
  162.0680  208.7390  152.3180 O   0  0  0  0  0  0  0  0  0  0  0  0
  161.1490  205.0990  149.2360 C   0  0  0  0  0  3  0  0  0  0  0  0
  161.0720  202.8320  150.0550 O   0  0  0  0  0  1  0  0  0  0  0  0
  161.4230  208.7310  148.6470 C   0  0  0  0  0  3  0  0  0  0  0  0
  161.7240  206.0040  151.8240 C   0  0  0  0  0  3  0  0  0  0  0  0
  160.5760  210.5010  155.1850 C   0  0  0  0  0  0  0  0  0  0  0  0
  161.5400  204.6400  151.5820 C   0  0  0  0  0  3  0  0  0  0  0  0
  160.4930  210.3230  156.5590 O   0  0  0  0  0  1  0  0  0  0  0  0
  161.6250  206.9300  150.7750 C   0  0  0  0  0  0  0  0  0  0  0  0
  161.9830  210.6600  150.1930 C   0  0  1  0  0  3  0  0  0  0  0  0
  161.2540  204.1880  150.2900 C   0  0  0  0  0  0  0  0  0  0  0  0
  161.3340  206.4650  149.4700 C   0  0  0  0  0  0  0  0  0  0  0  0
  160.7730  210.8790  152.4110 C   0  0  0  0  0  0  0  0  0  0  0  0
  161.7950  208.3060  151.0120 C   0  0  0  0  0  0  0  0  0  0  0  0
  161.2990  209.5970  154.4060 C   0  0  0  0  0  3  0  0  0  0  0  0
  161.2280  207.3700  148.4170 C   0  0  0  0  0  3  0  0  0  0  0  0
  159.9300  211.5780  154.5800 C   0  0  0  0  0  3  0  0  0  0  0  0
  160.0340  211.7660  153.2030 C   0  0  0  0  0  3  0  0  0  0  0  0
  161.3900  209.7520  153.0170 C   0  0  0  0  0  0  0  0  0  0  0  0
  162.5860  213.0040  146.6330 C   0  0  0  0  0  3  0  0  0  0  0  0
  162.1780  211.4950  148.9580 C   0  0  0  0  0  0  0  0  0  0  0  0
  163.4680  211.6480  148.4360 C   0  0  0  0  0  3  0  0  0  0  0  0
  163.6720  212.4020  147.2770 C   0  0  0  0  0  3  0  0  0  0  0  0
  161.2950  212.8490  147.1470 C   0  0  0  0  0  3  0  0  0  0  0  0
  161.0900  212.0960  148.3060 C   0  0  0  0  0  3  0  0  0  0  0  0
  1 15  1  0  0  0  0
  2 12  1  0  0  0  0
  2 16  1  0  0  0  0
  3 21  1  0  0  0  0
  4 14  1  0  0  0  0
  4 13  2  0  0  0  0
  5 13  1  0  0  0  0
  6  2  2  0  0  0  0
  8 10  1  0  0  0  0
  9  7  2  0  0  0  0
 11 16  2  0  0  0  0
 11  7  1  0  0  0  0
 12 23  1  6  0  0  0
 12  1  1  0  0  0  0
 13  9  1  0  0  0  0
 14 11  1  0  0  0  0
 15 21  2  0  0  0  0
 15 20  1  0  0  0  0
 16  3  1  0  0  0  0
 17  8  2  0  0  0  0
 18  6  1  0  0  0  0
 18 14  2  0  0  0  0
 19  8  1  0  0  0  0
 20 19  2  0  0  0  0
 21 17  1  0  0  0  0
 22 26  2  0  0  0  0
 22 25  1  0  0  0  0
 24 23  1  0  0  0  0
 25 24  2  0  0  0  0
 26 27  1  0  0  0  0
 27 23  2  0  0  0  0
M  END
>  <MODEL>
3

>  <REMARK>
 VINA RESULT:      -7.8      1.420      1.982
  Name = 
  1 active torsions:
  status: ('A' for Active; 'I' for Inactive)
    1  A    between atoms: C_9  and  C_15
                            x       y       z     vdW  Elec       q    Type
                         _______ _______ _______ _____ _____    ______ ____

>  <TORSDO>
F 1

$$$$
=
 OpenBabel11052423143D

 27 31  0  0  1  0  0  0  0  0999 V2000
  160.6680  206.9820  151.9200 N   0  0  0  0  0  2  0  0  0  0  0  0
  161.2150  209.3370  151.8820 C   0  0  0  0  0  0  0  0  0  0  0  0
  162.3500  208.4470  149.8970 O   0  0  0  0  0  0  0  0  0  0  0  0
  160.7860  213.0450  149.9440 C   0  0  0  0  0  3  0  0  0  0  0  0
  161.1600  214.4530  148.0230 O   0  0  0  0  0  1  0  0  0  0  0  0
  160.5590  210.4070  152.5140 C   0  0  0  0  0  3  0  0  0  0  0  0
  162.0880  210.9360  148.6410 C   0  0  0  0  0  3  0  0  0  0  0  0
  161.7230  205.2330  148.2170 C   0  0  0  0  0  0  0  0  0  0  0  0
  161.9470  212.1730  148.0060 C   0  0  0  0  0  3  0  0  0  0  0  0
  162.1020  204.6110  147.0360 O   0  0  0  0  0  1  0  0  0  0  0  0
  161.5810  210.7410  149.9340 C   0  0  0  0  0  0  0  0  0  0  0  0
  161.4290  208.0270  152.5800 C   0  0  1  0  0  3  0  0  0  0  0  0
  161.2970  213.2260  148.6570 C   0  0  0  0  0  0  0  0  0  0  0  0
  160.9240  211.8110  150.5860 C   0  0  0  0  0  0  0  0  0  0  0  0
  160.9840  206.4780  150.6210 C   0  0  0  0  0  0  0  0  0  0  0  0
  161.7060  209.4950  150.5740 C   0  0  0  0  0  0  0  0  0  0  0  0
  162.2280  206.4940  148.5340 C   0  0  0  0  0  3  0  0  0  0  0  0
  160.4110  211.6340  151.8690 C   0  0  0  0  0  3  0  0  0  0  0  0
  160.8320  204.6030  149.0830 C   0  0  0  0  0  3  0  0  0  0  0  0
  160.4710  205.2220  150.2790 C   0  0  0  0  0  3  0  0  0  0  0  0
  161.8540  207.1450  149.7170 C   0  0  0  0  0  0  0  0  0  0  0  0
  160.6410  208.0080  156.8110 C   0  0  0  0  0  3  0  0  0  0  0  0
  161.1480  208.0440  154.0560 C   0  0  0  0  0  0  0  0  0  0  0  0
  160.4560  206.9710  154.6300 C   0  0  0  0  0  3  0  0  0  0  0  0
  160.2020  206.9530  156.0050 C   0  0  0  0  0  3  0  0  0  0  0  0
  161.3370  209.0790  156.2440 C   0  0  0  0  0  3  0  0  0  0  0  0
  161.5920  209.0980  154.8700 C   0  0  0  0  0  3  0  0  0  0  0  0
  1 12  1  0  0  0  0
  2  6  1  0  0  0  0
  2 12  1  0  0  0  0
  3 16  1  0  0  0  0
  4 14  1  0  0  0  0
  5 13  1  0  0  0  0
  7 11  1  0  0  0  0
  8 17  2  0  0  0  0
  8 19  1  0  0  0  0
  9  7  2  0  0  0  0
  9 13  1  0  0  0  0
 10  8  1  0  0  0  0
 11 16  1  0  0  0  0
 11 14  2  0  0  0  0
 12 23  1  1  0  0  0
 13  4  2  0  0  0  0
 14 18  1  0  0  0  0
 15  1  1  0  0  0  0
 16  2  2  0  0  0  0
 17 21  1  0  0  0  0
 18  6  2  0  0  0  0
 19 20  2  0  0  0  0
 20 15  1  0  0  0  0
 21  3  1  0  0  0  0
 21 15  2  0  0  0  0
 23 24  2  0  0  0  0
 23 27  1  0  0  0  0
 24 25  1  0  0  0  0
 25 22  2  0  0  0  0
 26 22  1  0  0  0  0
 27 26  2  0  0  0  0
M  END
>  <MODEL>
4

>  <REMARK>
 VINA RESULT:      -7.7      2.255      7.098
  Name = 
  1 active torsions:
  status: ('A' for Active; 'I' for Inactive)
    1  A    between atoms: C_9  and  C_15
                            x       y       z     vdW  Elec       q    Type
                         _______ _______ _______ _____ _____    ______ ____

>  <TORSDO>
F 1

$$$$
=
 OpenBabel11052423143D

 27 31  0  0  1  0  0  0  0  0999 V2000
  162.3940  208.7980  148.6690 N   0  0  0  0  0  2  0  0  0  0  0  0
  161.6570  209.5490  150.8460 C   0  0  0  0  0  0  0  0  0  0  0  0
  160.5470  207.3780  150.5760 O   0  0  0  0  0  0  0  0  0  0  0  0
  161.7340  208.9630  155.0100 C   0  0  0  0  0  3  0  0  0  0  0  0
  161.1960  207.6220  156.9410 O   0  0  0  0  0  1  0  0  0  0  0  0
  162.2410  210.5030  151.6960 C   0  0  0  0  0  3  0  0  0  0  0  0
  160.5730  207.0260  153.3540 C   0  0  0  0  0  3  0  0  0  0  0  0
  161.3860  204.7200  148.1710 C   0  0  0  0  0  0  0  0  0  0  0  0
  160.5960  206.8420  154.7390 C   0  0  0  0  0  3  0  0  0  0  0  0
  161.0280  203.3990  147.9480 O   0  0  0  0  0  1  0  0  0  0  0  0
  161.1270  208.1810  152.7830 C   0  0  0  0  0  0  0  0  0  0  0  0
  161.5690  209.7670  149.3660 C   0  0  1  0  0  3  0  0  0  0  0  0
  161.1750  207.8100  155.5660 C   0  0  0  0  0  0  0  0  0  0  0  0
  161.7130  209.1550  153.6260 C   0  0  0  0  0  0  0  0  0  0  0  0
  162.0860  207.4040  148.6020 C   0  0  0  0  0  0  0  0  0  0  0  0
  161.1210  208.3680  151.3880 C   0  0  0  0  0  0  0  0  0  0  0  0
  160.7900  205.4410  149.2070 C   0  0  0  0  0  3  0  0  0  0  0  0
  162.2720  210.3060  153.0760 C   0  0  0  0  0  3  0  0  0  0  0  0
  162.3490  205.3280  147.3670 C   0  0  0  0  0  3  0  0  0  0  0  0
  162.6900  206.6630  147.5800 C   0  0  0  0  0  3  0  0  0  0  0  0
  161.1410  206.7730  149.4560 C   0  0  0  0  0  0  0  0  0  0  0  0
  162.4990  213.7440  148.0080 C   0  0  0  0  0  3  0  0  0  0  0  0
  161.8870  211.1650  148.9130 C   0  0  0  0  0  0  0  0  0  0  0  0
  163.0560  211.3930  148.1770 C   0  0  0  0  0  3  0  0  0  0  0  0
  163.3630  212.6810  147.7270 C   0  0  0  0  0  3  0  0  0  0  0  0
  161.3280  213.5200  148.7370 C   0  0  0  0  0  3  0  0  0  0  0  0
  161.0200  212.2340  149.1880 C   0  0  0  0  0  3  0  0  0  0  0  0
  1 12  1  0  0  0  0
  2 16  2  0  0  0  0
  2  6  1  0  0  0  0
  3 16  1  0  0  0  0
  4 13  1  0  0  0  0
  6 18  2  0  0  0  0
  7  9  1  0  0  0  0
  8 17  1  0  0  0  0
  9 13  2  0  0  0  0
 10  8  1  0  0  0  0
 11  7  2  0  0  0  0
 11 14  1  0  0  0  0
 12 23  1  1  0  0  0
 12  2  1  0  0  0  0
 13  5  1  0  0  0  0
 14  4  2  0  0  0  0
 15  1  1  0  0  0  0
 15 21  1  0  0  0  0
 16 11  1  0  0  0  0
 17 21  2  0  0  0  0
 18 14  1  0  0  0  0
 19 20  1  0  0  0  0
 19  8  2  0  0  0  0
 20 15  2  0  0  0  0
 21  3  1  0  0  0  0
 22 26  1  0  0  0  0
 23 27  1  0  0  0  0
 24 23  2  0  0  0  0
 25 22  2  0  0  0  0
 25 24  1  0  0  0  0
 26 27  2  0  0  0  0
M  END
>  <MODEL>
5

>  <REMARK>
 VINA RESULT:      -7.4      1.669      5.512
  Name = 
  1 active torsions:
  status: ('A' for Active; 'I' for Inactive)
    1  A    between atoms: C_9  and  C_15
                            x       y       z     vdW  Elec       q    Type
                         _______ _______ _______ _____ _____    ______ ____

>  <TORSDO>
F 1

$$$$
=
 OpenBabel11052423143D

 27 31  0  0  1  0  0  0  0  0999 V2000
  161.4810  206.4910  153.1170 N   0  0  0  0  0  2  0  0  0  0  0  0
  161.3490  207.4920  150.9190 C   0  0  0  0  0  0  0  0  0  0  0  0
  160.3390  209.1800  152.3860 O   0  0  0  0  0  0  0  0  0  0  0  0
  162.6390  210.5460  148.3330 C   0  0  0  0  0  3  0  0  0  0  0  0
  162.7530  212.8850  147.7550 O   0  0  0  0  0  1  0  0  0  0  0  0
  162.0910  207.1910  149.7650 C   0  0  0  0  0  3  0  0  0  0  0  0
  161.1740  211.1950  150.6290 C   0  0  0  0  0  3  0  0  0  0  0  0
  160.6190  209.4160  156.0490 C   0  0  0  0  0  0  0  0  0  0  0  0
  161.6000  212.2030  149.7610 C   0  0  0  0  0  3  0  0  0  0  0  0
  160.2930  210.3320  157.0380 O   0  0  0  0  0  1  0  0  0  0  0  0
  161.4730  209.8520  150.3580 C   0  0  0  0  0  0  0  0  0  0  0  0
  160.8310  206.4120  151.8210 C   0  0  1  0  0  3  0  0  0  0  0  0
  162.3310  211.8790  148.6140 C   0  0  0  0  0  0  0  0  0  0  0  0
  162.2140  209.5320  149.1950 C   0  0  0  0  0  0  0  0  0  0  0  0
  161.2500  207.5480  154.0510 C   0  0  0  0  0  0  0  0  0  0  0  0
  161.0600  208.8310  151.2330 C   0  0  0  0  0  0  0  0  0  0  0  0
  160.2990  209.6820  154.7170 C   0  0  0  0  0  3  0  0  0  0  0  0
  162.5250  208.2040  148.9120 C   0  0  0  0  0  3  0  0  0  0  0  0
  161.2760  208.2320  156.3820 C   0  0  0  0  0  3  0  0  0  0  0  0
  161.5830  207.3040  155.3880 C   0  0  0  0  0  3  0  0  0  0  0  0
  160.6270  208.7750  153.7000 C   0  0  0  0  0  0  0  0  0  0  0  0
  161.0550  202.4050  150.2660 C   0  0  0  0  0  3  0  0  0  0  0  0
  160.9230  205.0210  151.2600 C   0  0  0  0  0  0  0  0  0  0  0  0
  161.1410  203.9470  152.1320 C   0  0  0  0  0  3  0  0  0  0  0  0
  161.2090  202.6420  151.6360 C   0  0  0  0  0  3  0  0  0  0  0  0
  160.8310  203.4730  149.3930 C   0  0  0  0  0  3  0  0  0  0  0  0
  160.7630  204.7780  149.8870 C   0  0  0  0  0  3  0  0  0  0  0  0
  1 15  1  0  0  0  0
  2 16  1  0  0  0  0
  2 12  1  0  0  0  0
  3 21  1  0  0  0  0
  4 13  2  0  0  0  0
  4 14  1  0  0  0  0
  5 13  1  0  0  0  0
  6  2  2  0  0  0  0
  8 19  1  0  0  0  0
  8 10  1  0  0  0  0
  9  7  2  0  0  0  0
 11  7  1  0  0  0  0
 11 16  2  0  0  0  0
 12 23  1  6  0  0  0
 12  1  1  0  0  0  0
 13  9  1  0  0  0  0
 14 11  1  0  0  0  0
 15 20  1  0  0  0  0
 16  3  1  0  0  0  0
 17  8  2  0  0  0  0
 18 14  2  0  0  0  0
 18  6  1  0  0  0  0
 20 19  2  0  0  0  0
 21 15  2  0  0  0  0
 21 17  1  0  0  0  0
 22 25  1  0  0  0  0
 23 24  1  0  0  0  0
 25 24  2  0  0  0  0
 26 27  1  0  0  0  0
 26 22  2  0  0  0  0
 27 23  2  0  0  0  0
M  END
>  <MODEL>
6

>  <REMARK>
 VINA RESULT:      -7.4      2.009      5.805
  Name = 
  1 active torsions:
  status: ('A' for Active; 'I' for Inactive)
    1  A    between atoms: C_9  and  C_15
                            x       y       z     vdW  Elec       q    Type
                         _______ _______ _______ _____ _____    ______ ____

>  <TORSDO>
F 1

$$$$
=
 OpenBabel11052423143D

 27 31  0  0  1  0  0  0  0  0999 V2000
  161.4780  208.7960  153.5180 N   0  0  0  0  0  2  0  0  0  0  0  0
  161.2500  209.3800  151.1830 C   0  0  0  0  0  0  0  0  0  0  0  0
  160.1430  211.2300  152.3540 O   0  0  0  0  0  0  0  0  0  0  0  0
  162.2940  212.0080  148.0700 C   0  0  0  0  0  3  0  0  0  0  0  0
  162.2380  214.2090  147.0870 O   0  0  0  0  0  1  0  0  0  0  0  0
  161.9980  208.9300  150.0830 C   0  0  0  0  0  3  0  0  0  0  0  0
  160.8150  212.9530  150.2510 C   0  0  0  0  0  3  0  0  0  0  0  0
  160.4490  212.1290  155.9100 C   0  0  0  0  0  0  0  0  0  0  0  0
  161.1590  213.8180  149.2090 C   0  0  0  0  0  3  0  0  0  0  0  0
  160.0710  213.1820  156.7300 O   0  0  0  0  0  1  0  0  0  0  0  0
  161.2040  211.6070  150.2130 C   0  0  0  0  0  0  0  0  0  0  0  0
  160.8200  208.4460  152.2730 C   0  0  1  0  0  3  0  0  0  0  0  0
  161.8980  213.3460  148.1200 C   0  0  0  0  0  0  0  0  0  0  0  0
  161.9520  211.1360  149.1070 C   0  0  0  0  0  0  0  0  0  0  0  0
  161.1850  209.9830  154.2580 C   0  0  0  0  0  0  0  0  0  0  0  0
  160.8720  210.7320  151.2630 C   0  0  0  0  0  0  0  0  0  0  0  0
  160.0960  212.1330  154.5610 C   0  0  0  0  0  3  0  0  0  0  0  0
  162.3500  209.8020  149.0540 C   0  0  0  0  0  3  0  0  0  0  0  0
  161.1910  211.0690  156.4310 C   0  0  0  0  0  3  0  0  0  0  0  0
  161.5500  210.0020  155.6090 C   0  0  0  0  0  3  0  0  0  0  0  0
  160.4730  211.0850  153.7120 C   0  0  0  0  0  0  0  0  0  0  0  0
  161.3030  204.2500  151.4410 C   0  0  0  0  0  3  0  0  0  0  0  0
  161.0020  206.9860  151.9630 C   0  0  0  0  0  0  0  0  0  0  0  0
  161.2790  206.0970  153.0080 C   0  0  0  0  0  3  0  0  0  0  0  0
  161.4310  204.7320  152.7480 C   0  0  0  0  0  3  0  0  0  0  0  0
  161.0200  205.1330  150.3950 C   0  0  0  0  0  3  0  0  0  0  0  0
  160.8680  206.4980  150.6540 C   0  0  0  0  0  3  0  0  0  0  0  0
  1 15  1  0  0  0  0
  2 16  1  0  0  0  0
  2 12  1  0  0  0  0
  3 21  1  0  0  0  0
  4 13  2  0  0  0  0
  4 14  1  0  0  0  0
  5 13  1  0  0  0  0
  6  2  2  0  0  0  0
  8 19  1  0  0  0  0
  8 10  1  0  0  0  0
  9  7  2  0  0  0  0
 11  7  1  0  0  0  0
 11 16  2  0  0  0  0
 12 23  1  6  0  0  0
 12  1  1  0  0  0  0
 13  9  1  0  0  0  0
 14 11  1  0  0  0  0
 15 20  1  0  0  0  0
 16  3  1  0  0  0  0
 17  8  2  0  0  0  0
 18 14  2  0  0  0  0
 18  6  1  0  0  0  0
 20 19  2  0  0  0  0
 21 15  2  0  0  0  0
 21 17  1  0  0  0  0
 22 25  1  0  0  0  0
 23 24  1  0  0  0  0
 25 24  2  0  0  0  0
 26 27  1  0  0  0  0
 26 22  2  0  0  0  0
 27 23  2  0  0  0  0
M  END
>  <MODEL>
7

>  <REMARK>
 VINA RESULT:      -6.9      2.730      6.193
  Name = 
  1 active torsions:
  status: ('A' for Active; 'I' for Inactive)
    1  A    between atoms: C_9  and  C_15
                            x       y       z     vdW  Elec       q    Type
                         _______ _______ _______ _____ _____    ______ ____

>  <TORSDO>
F 1

$$$$
=
 OpenBabel11052423143D

 27 31  0  0  1  0  0  0  0  0999 V2000
  161.9550  208.6100  152.6350 N   0  0  0  0  0  2  0  0  0  0  0  0
  161.0220  206.4080  152.2770 C   0  0  0  0  0  0  0  0  0  0  0  0
  160.6800  207.5390  150.1270 O   0  0  0  0  0  0  0  0  0  0  0  0
  161.3030  202.7250  150.2670 C   0  0  0  0  0  3  0  0  0  0  0  0
  161.2400  201.4530  148.2190 O   0  0  0  0  0  1  0  0  0  0  0  0
  161.2660  205.2190  152.9850 C   0  0  0  0  0  3  0  0  0  0  0  0
  160.8310  205.0710  148.8130 C   0  0  0  0  0  3  0  0  0  0  0  0
  162.3320  210.6010  148.9230 C   0  0  0  0  0  0  0  0  0  0  0  0
  160.9190  203.8420  148.1530 C   0  0  0  0  0  3  0  0  0  0  0  0
  162.4240  211.3070  147.7320 O   0  0  0  0  0  1  0  0  0  0  0  0
  160.9760  205.1400  150.2060 C   0  0  0  0  0  0  0  0  0  0  0  0
  160.8610  207.7210  152.9820 C   0  0  1  0  0  3  0  0  0  0  0  0
  161.1540  202.6710  148.8790 C   0  0  0  0  0  0  0  0  0  0  0  0
  161.2150  203.9500  150.9340 C   0  0  0  0  0  0  0  0  0  0  0  0
  162.1180  209.1910  151.3400 C   0  0  0  0  0  0  0  0  0  0  0  0
  160.9030  206.3740  150.8770 C   0  0  0  0  0  0  0  0  0  0  0  0
  161.5370  209.4560  148.9960 C   0  0  0  0  0  3  0  0  0  0  0  0
  161.3650  204.0000  152.3180 C   0  0  0  0  0  3  0  0  0  0  0  0
  163.0400  211.0280  150.0450 C   0  0  0  0  0  3  0  0  0  0  0  0
  162.9270  210.3290  151.2460 C   0  0  0  0  0  3  0  0  0  0  0  0
  161.4350  208.7230  150.1850 C   0  0  0  0  0  0  0  0  0  0  0  0
  160.4310  207.5050  157.2590 C   0  0  0  0  0  3  0  0  0  0  0  0
  160.7040  207.6230  154.4740 C   0  0  0  0  0  0  0  0  0  0  0  0
  161.6860  208.1790  155.3010 C   0  0  0  0  0  3  0  0  0  0  0  0
  161.5510  208.1180  156.6910 C   0  0  0  0  0  3  0  0  0  0  0  0
  159.4440  206.9530  156.4370 C   0  0  0  0  0  3  0  0  0  0  0  0
  159.5770  207.0120  155.0480 C   0  0  0  0  0  3  0  0  0  0  0  0
  1 12  1  0  0  0  0
  2 12  1  0  0  0  0
  2  6  1  0  0  0  0
  3 21  1  0  0  0  0
  3 16  1  0  0  0  0
  4 14  1  0  0  0  0
  5 13  1  0  0  0  0
  7 11  1  0  0  0  0
  8 17  2  0  0  0  0
  8 19  1  0  0  0  0
  9  7  2  0  0  0  0
  9 13  1  0  0  0  0
 10  8  1  0  0  0  0
 11 16  1  0  0  0  0
 11 14  2  0  0  0  0
 12 23  1  1  0  0  0
 13  4  2  0  0  0  0
 14 18  1  0  0  0  0
 15  1  1  0  0  0  0
 16  2  2  0  0  0  0
 17 21  1  0  0  0  0
 18  6  2  0  0  0  0
 19 20  2  0  0  0  0
 20 15  1  0  0  0  0
 21 15  2  0  0  0  0
 23 27  2  0  0  0  0
 23 24  1  0  0  0  0
 24 25  2  0  0  0  0
 25 22  1  0  0  0  0
 26 22  2  0  0  0  0
 27 26  1  0  0  0  0
M  END
>  <MODEL>
8

>  <REMARK>
 VINA RESULT:      -6.9      1.969      5.433
  Name = 
  1 active torsions:
  status: ('A' for Active; 'I' for Inactive)
    1  A    between atoms: C_9  and  C_15
                            x       y       z     vdW  Elec       q    Type
                         _______ _______ _______ _____ _____    ______ ____

>  <TORSDO>
F 1

$$$$
=
 OpenBabel11052423143D

 27 31  0  0  1  0  0  0  0  0999 V2000
  161.2460  208.8880  148.1510 N   0  0  0  0  0  2  0  0  0  0  0  0
  161.7040  207.9890  150.3490 C   0  0  0  0  0  0  0  0  0  0  0  0
  162.5780  210.2790  150.4660 O   0  0  0  0  0  0  0  0  0  0  0  0
  160.8850  208.1180  154.4720 C   0  0  0  0  0  3  0  0  0  0  0  0
  160.9390  209.2930  156.5770 O   0  0  0  0  0  1  0  0  0  0  0  0
  161.1090  206.8950  150.9980 C   0  0  0  0  0  3  0  0  0  0  0  0
  162.0600  210.3280  153.2170 C   0  0  0  0  0  3  0  0  0  0  0  0
  161.8290  213.0770  148.1940 C   0  0  0  0  0  0  0  0  0  0  0  0
  161.7910  210.3600  154.5880 C   0  0  0  0  0  3  0  0  0  0  0  0
  162.0580  214.4440  148.1530 O   0  0  0  0  0  1  0  0  0  0  0  0
  161.7470  209.1900  152.4600 C   0  0  0  0  0  0  0  0  0  0  0  0
  162.0570  207.9390  148.8930 C   0  0  1  0  0  3  0  0  0  0  0  0
  161.2040  209.2570  155.2140 C   0  0  0  0  0  0  0  0  0  0  0  0
  161.1520  208.0770  153.1000 C   0  0  0  0  0  0  0  0  0  0  0  0
  161.3940  210.3050  148.2610 C   0  0  0  0  0  0  0  0  0  0  0  0
  162.0020  209.1550  151.0770 C   0  0  0  0  0  0  0  0  0  0  0  0
  162.3310  212.3160  149.2500 C   0  0  0  0  0  3  0  0  0  0  0  0
  160.8310  206.9400  152.3630 C   0  0  0  0  0  3  0  0  0  0  0  0
  161.0890  212.4620  147.1850 C   0  0  0  0  0  3  0  0  0  0  0  0
  160.8790  211.0840  147.2180 C   0  0  0  0  0  3  0  0  0  0  0  0
  162.1050  210.9350  149.3170 C   0  0  0  0  0  0  0  0  0  0  0  0
  161.9200  204.0280  147.1020 C   0  0  0  0  0  3  0  0  0  0  0  0
  161.9850  206.5730  148.2710 C   0  0  0  0  0  0  0  0  0  0  0  0
  162.7030  206.3200  147.0960 C   0  0  0  0  0  3  0  0  0  0  0  0
  162.6700  205.0510  146.5120 C   0  0  0  0  0  3  0  0  0  0  0  0
  161.2060  204.2740  148.2780 C   0  0  0  0  0  3  0  0  0  0  0  0
  161.2390  205.5420  148.8640 C   0  0  0  0  0  3  0  0  0  0  0  0
  1 15  1  0  0  0  0
  1 12  1  0  0  0  0
  2  6  2  0  0  0  0
  2 16  1  0  0  0  0
  3 16  1  0  0  0  0
  4 13  2  0  0  0  0
  6 18  1  0  0  0  0
  7  9  2  0  0  0  0
  8 17  1  0  0  0  0
  9 13  1  0  0  0  0
 10  8  1  0  0  0  0
 11 14  1  0  0  0  0
 11  7  1  0  0  0  0
 12 23  1  6  0  0  0
 12  2  1  0  0  0  0
 13  5  1  0  0  0  0
 14  4  1  0  0  0  0
 15 21  1  0  0  0  0
 16 11  2  0  0  0  0
 17 21  2  0  0  0  0
 18 14  2  0  0  0  0
 19 20  1  0  0  0  0
 19  8  2  0  0  0  0
 20 15  2  0  0  0  0
 21  3  1  0  0  0  0
 22 26  1  0  0  0  0
 23 27  1  0  0  0  0
 24 23  2  0  0  0  0
 25 24  1  0  0  0  0
 25 22  2  0  0  0  0
 26 27  2  0  0  0  0
M  END
>  <MODEL>
9

>  <REMARK>
 VINA RESULT:      -6.2      2.457      6.617
  Name = 
  1 active torsions:
  status: ('A' for Active; 'I' for Inactive)
    1  A    between atoms: C_9  and  C_15
                            x       y       z     vdW  Elec       q    Type
                         _______ _______ _______ _____ _____    ______ ____

>  <TORSDO>
F 1

$$$$
