=
 OpenBabel11052421453D

 30 33  0  0  1  0  0  0  0  0999 V2000
  157.7090  211.5120  154.6160 C   0  0  0  0  0  0  0  0  0  0  0  0
  158.8610  212.4260  154.2160 C   0  0  1  0  0  3  0  0  0  0  0  0
  157.9530  210.3010  155.1310 C   0  0  0  0  0  3  0  0  0  0  0  0
  161.5900  210.5870  155.7320 O   0  0  0  0  0  0  0  0  0  0  0  0
  160.3940  210.8810  155.4670 C   0  0  0  0  0  0  0  0  0  0  0  0
  159.4980  208.5560  155.7180 C   0  0  0  0  0  3  0  0  0  0  0  0
  159.3200  209.8520  155.4340 C   0  0  0  0  0  0  0  0  0  0  0  0
  160.0360  212.3180  155.2040 C   0  0  2  0  0  3  0  0  0  0  0  0
  156.0810  213.3920  154.9860 C   0  0  0  0  0  0  0  0  0  0  0  0
  155.5600  213.7090  156.3610 C   0  0  0  0  0  2  0  0  0  0  0  0
  156.4220  214.3070  154.2500 O   0  0  0  0  0  0  0  0  0  0  0  0
  155.2990  210.9790  155.1830 C   0  0  0  0  0  2  0  0  0  0  0  0
  154.1550  210.2540  157.2600 C   0  0  0  0  0  1  0  0  0  0  0  0
  156.2790  211.9660  154.5340 C   0  0  2  0  0  3  0  0  0  0  0  0
  154.5520  212.6680  156.8400 C   0  0  0  0  0  2  0  0  0  0  0  0
  155.1140  211.2640  156.6690 C   0  0  2  0  0  3  0  0  0  0  0  0
  160.8640  213.7370  157.2070 C   0  0  0  0  0  2  0  0  0  0  0  0
  159.9590  214.4530  156.3910 O   0  0  0  0  0  0  0  0  0  0  0  0
  158.6260  212.7690  157.2600 O   0  0  0  0  0  1  0  0  0  0  0  0
  159.7580  213.0690  156.5020 C   0  0  1  0  0  0  0  0  0  0  0  0
  160.5260  212.9690  152.4740 O   0  0  0  0  0  0  0  0  0  0  0  0
  159.4550  212.8220  150.3390 C   0  0  0  0  0  1  0  0  0  0  0  0
  159.3850  212.2130  152.7810 C   0  0  2  0  0  0  0  0  0  0  0  0
  159.3460  213.3100  151.7750 C   0  0  1  0  0  3  0  0  0  0  0  0
  161.8360  210.7390  152.5740 O   0  0  0  0  0  0  0  0  0  0  0  0
  160.7690  210.1530  152.2520 C   0  0  0  0  0  0  0  0  0  0  0  0
  160.8150  208.7320  151.8170 C   0  0  0  0  0  1  0  0  0  0  0  0
  159.5160  210.8380  152.3040 N   0  0  0  0  0  2  0  0  0  0  0  0
  161.2480  207.0040  154.9270 C   0  0  0  0  0  1  0  0  0  0  0  0
  160.8030  207.9120  156.0580 C   0  0  0  0  0  2  0  0  0  0  0  0
  1  3  2  0  0  0  0
  2  1  1  1  0  0  0
  2  8  1  0  0  0  0
  3  7  1  0  0  0  0
  5  4  2  0  0  0  0
  6 30  1  0  0  0  0
  7  5  1  0  0  0  0
  7  6  2  0  0  0  0
  8  5  1  1  0  0  0
  8 20  1  0  0  0  0
  9 10  1  0  0  0  0
 10 15  1  0  0  0  0
 11  9  2  0  0  0  0
 12 16  1  0  0  0  0
 14  1  1  1  0  0  0
 14  9  1  0  0  0  0
 14 12  1  0  0  0  0
 16 15  1  0  0  0  0
 16 13  1  6  0  0  0
 18 20  1  0  0  0  0
 18 17  1  0  0  0  0
 20 17  1  0  0  0  0
 20 19  1  1  0  0  0
 21 23  1  0  0  0  0
 23 28  1  6  0  0  0
 23  2  1  0  0  0  0
 24 22  1  6  0  0  0
 24 21  1  0  0  0  0
 24 23  1  0  0  0  0
 26 28  1  0  0  0  0
 26 25  2  0  0  0  0
 27 26  1  0  0  0  0
 29 30  1  0  0  0  0
M  END
>  <MODEL>
1

>  <REMARK>
 VINA RESULT:      -2.8      0.000      0.000
  Name = 
  5 active torsions:
  status: ('A' for Active; 'I' for Inactive)
    1  A    between atoms: C_1  and  C_22
    2  A    between atoms: C_4  and  C_23
    3  A    between atoms: C_9  and  C_21
    4  A    between atoms: C_13  and  C_30
    5  A    between atoms: C_23  and  N_25
                            x       y       z     vdW  Elec       q    Type
                         _______ _______ _______ _____ _____    ______ ____

>  <TORSDO>
F 5

$$$$
=
 OpenBabel11052421453D

 30 33  0  0  1  0  0  0  0  0999 V2000
  161.1600  210.0810  153.6100 C   0  0  0  0  0  0  0  0  0  0  0  0
  160.3030  210.3430  154.8420 C   0  0  1  0  0  3  0  0  0  0  0  0
  162.4760  210.3240  153.6360 C   0  0  0  0  0  3  0  0  0  0  0  0
  162.9460  210.8880  157.2600 O   0  0  0  0  0  0  0  0  0  0  0  0
  162.4310  210.5710  156.1550 C   0  0  0  0  0  0  0  0  0  0  0  0
  164.4150  211.1920  154.7600 C   0  0  0  0  0  3  0  0  0  0  0  0
  163.1600  210.7410  154.8690 C   0  0  0  0  0  0  0  0  0  0  0  0
  161.0490  209.9760  156.1370 C   0  0  2  0  0  3  0  0  0  0  0  0
  161.0420  208.0390  152.1470 C   0  0  0  0  0  0  0  0  0  0  0  0
  162.1420  207.7160  151.1740 C   0  0  0  0  0  2  0  0  0  0  0  0
  160.5620  207.1430  152.8260 O   0  0  0  0  0  0  0  0  0  0  0  0
  160.7410  210.3510  151.1270 C   0  0  0  0  0  2  0  0  0  0  0  0
  162.1750  211.0140  149.2160 C   0  0  0  0  0  1  0  0  0  0  0  0
  160.5850  209.4610  152.3680 C   0  0  2  0  0  3  0  0  0  0  0  0
  162.1250  208.6490  149.9670 C   0  0  0  0  0  2  0  0  0  0  0  0
  162.0670  210.1010  150.4170 C   0  0  2  0  0  3  0  0  0  0  0  0
  160.1070  207.8400  157.2610 C   0  0  0  0  0  2  0  0  0  0  0  0
  159.9610  207.8050  155.8560 O   0  0  0  0  0  0  0  0  0  0  0  0
  162.2630  207.7510  156.1220 O   0  0  0  0  0  1  0  0  0  0  0  0
  161.0890  208.4680  156.3620 C   0  0  1  0  0  0  0  0  0  0  0  0
  160.2620  212.4890  156.0650 O   0  0  0  0  0  0  0  0  0  0  0  0
  158.0870  213.4550  155.8120 C   0  0  0  0  0  1  0  0  0  0  0  0
  159.7650  211.7840  154.9590 C   0  0  2  0  0  0  0  0  0  0  0  0
  158.8810  212.1880  156.0870 C   0  0  1  0  0  3  0  0  0  0  0  0
  157.8150  211.7090  152.8580 O   0  0  0  0  0  0  0  0  0  0  0  0
  158.7550  212.5400  152.7580 C   0  0  0  0  0  0  0  0  0  0  0  0
  158.7980  213.4600  151.5910 C   0  0  0  0  0  1  0  0  0  0  0  0
  159.7760  212.6110  153.7540 N   0  0  0  0  0  2  0  0  0  0  0  0
  166.3980  212.5300  155.3720 C   0  0  0  0  0  1  0  0  0  0  0  0
  165.2750  211.6510  155.8920 C   0  0  0  0  0  2  0  0  0  0  0  0
  1  3  2  0  0  0  0
  2  1  1  6  0  0  0
  2 23  1  0  0  0  0
  2  8  1  0  0  0  0
  3  7  1  0  0  0  0
  5  4  2  0  0  0  0
  6  7  2  0  0  0  0
  6 30  1  0  0  0  0
  7  5  1  0  0  0  0
  8  5  1  6  0  0  0
  8 20  1  0  0  0  0
  9 14  1  0  0  0  0
  9 11  2  0  0  0  0
 10  9  1  0  0  0  0
 12 14  1  0  0  0  0
 14  1  1  1  0  0  0
 15 16  1  0  0  0  0
 15 10  1  0  0  0  0
 16 13  1  6  0  0  0
 16 12  1  0  0  0  0
 18 20  1  0  0  0  0
 18 17  1  0  0  0  0
 20 19  1  6  0  0  0
 20 17  1  0  0  0  0
 21 24  1  0  0  0  0
 23 28  1  6  0  0  0
 23 21  1  0  0  0  0
 23 24  1  0  0  0  0
 24 22  1  6  0  0  0
 26 25  2  0  0  0  0
 26 28  1  0  0  0  0
 27 26  1  0  0  0  0
 29 30  1  0  0  0  0
M  END
>  <MODEL>
2

>  <REMARK>
 VINA RESULT:      -2.6      2.529      6.124
  Name = 
  5 active torsions:
  status: ('A' for Active; 'I' for Inactive)
    1  A    between atoms: C_1  and  C_22
    2  A    between atoms: C_4  and  C_23
    3  A    between atoms: C_9  and  C_21
    4  A    between atoms: C_13  and  C_30
    5  A    between atoms: C_23  and  N_25
                            x       y       z     vdW  Elec       q    Type
                         _______ _______ _______ _____ _____    ______ ____

>  <TORSDO>
F 5

$$$$
=
 OpenBabel11052421453D

 30 33  0  0  1  0  0  0  0  0999 V2000
  158.8990  212.5300  153.4910 C   0  0  0  0  0  0  0  0  0  0  0  0
  158.6210  212.4420  154.9870 C   0  0  1  0  0  3  0  0  0  0  0  0
  159.3960  211.4770  152.8320 C   0  0  0  0  0  3  0  0  0  0  0  0
  159.0120  208.8670  155.4230 O   0  0  0  0  0  0  0  0  0  0  0  0
  158.9150  209.9560  154.7980 C   0  0  0  0  0  0  0  0  0  0  0  0
  160.3020  209.2510  152.8370 C   0  0  0  0  0  3  0  0  0  0  0  0
  159.5860  210.1750  153.4880 C   0  0  0  0  0  0  0  0  0  0  0  0
  158.0730  211.0590  155.3790 C   0  0  2  0  0  3  0  0  0  0  0  0
  157.1800  213.6700  152.0530 C   0  0  0  0  0  0  0  0  0  0  0  0
  157.0230  213.3130  150.6010 C   0  0  0  0  0  2  0  0  0  0  0  0
  156.1830  213.8200  152.7440 O   0  0  0  0  0  0  0  0  0  0  0  0
  159.6510  214.1760  151.7200 C   0  0  0  0  0  2  0  0  0  0  0  0
  160.6340  213.9180  149.4580 C   0  0  0  0  0  1  0  0  0  0  0  0
  158.5440  213.7540  152.6950 C   0  0  2  0  0  3  0  0  0  0  0  0
  158.1700  213.8560  149.7550 C   0  0  0  0  0  2  0  0  0  0  0  0
  159.5100  213.4800  150.3710 C   0  0  2  0  0  3  0  0  0  0  0  0
  155.5730  210.9240  156.0440 C   0  0  0  0  0  2  0  0  0  0  0  0
  155.8440  212.0530  155.2390 O   0  0  0  0  0  0  0  0  0  0  0  0
  156.2550  210.2930  153.7890 O   0  0  0  0  0  1  0  0  0  0  0  0
  156.6050  210.9000  154.9960 C   0  0  1  0  0  0  0  0  0  0  0  0
  159.5620  212.6660  157.2610 O   0  0  0  0  0  0  0  0  0  0  0  0
  161.1930  214.4170  157.2290 C   0  0  0  0  0  1  0  0  0  0  0  0
  159.8260  212.7830  155.8880 C   0  0  2  0  0  0  0  0  0  0  0  0
  159.8090  213.9730  156.7820 C   0  0  1  0  0  3  0  0  0  0  0  0
  161.0740  210.5850  157.2430 O   0  0  0  0  0  0  0  0  0  0  0  0
  161.6690  211.0760  156.2480 C   0  0  0  0  0  0  0  0  0  0  0  0
  162.9580  210.4860  155.8000 C   0  0  0  0  0  1  0  0  0  0  0  0
  161.1170  212.1910  155.5450 N   0  0  0  0  0  2  0  0  0  0  0  0
  161.0200  206.9830  152.1770 C   0  0  0  0  0  1  0  0  0  0  0  0
  160.5970  207.8720  153.3310 C   0  0  0  0  0  2  0  0  0  0  0  0
  2  1  1  6  0  0  0
  2  8  1  0  0  0  0
  2 23  1  0  0  0  0
  3  7  1  0  0  0  0
  3  1  2  0  0  0  0
  5  4  2  0  0  0  0
  6 30  1  0  0  0  0
  6  7  2  0  0  0  0
  7  5  1  0  0  0  0
  8  5  1  6  0  0  0
  9 14  1  0  0  0  0
  9 11  2  0  0  0  0
 10  9  1  0  0  0  0
 12 14  1  0  0  0  0
 14  1  1  6  0  0  0
 15 16  1  0  0  0  0
 15 10  1  0  0  0  0
 16 13  1  6  0  0  0
 16 12  1  0  0  0  0
 18 17  1  0  0  0  0
 20 19  1  6  0  0  0
 20 18  1  0  0  0  0
 20  8  1  0  0  0  0
 20 17  1  0  0  0  0
 23 28  1  6  0  0  0
 23 24  1  0  0  0  0
 23 21  1  0  0  0  0
 24 22  1  1  0  0  0
 24 21  1  0  0  0  0
 26 25  2  0  0  0  0
 27 26  1  0  0  0  0
 28 26  1  0  0  0  0
 29 30  1  0  0  0  0
M  END
>  <MODEL>
3

>  <REMARK>
 VINA RESULT:      -2.1      1.967      4.828
  Name = 
  5 active torsions:
  status: ('A' for Active; 'I' for Inactive)
    1  A    between atoms: C_1  and  C_22
    2  A    between atoms: C_4  and  C_23
    3  A    between atoms: C_9  and  C_21
    4  A    between atoms: C_13  and  C_30
    5  A    between atoms: C_23  and  N_25
                            x       y       z     vdW  Elec       q    Type
                         _______ _______ _______ _____ _____    ______ ____

>  <TORSDO>
F 5

$$$$
=
 OpenBabel11052421453D

 30 33  0  0  1  0  0  0  0  0999 V2000
  161.5060  209.5450  153.6910 C   0  0  0  0  0  0  0  0  0  0  0  0
  161.3690  209.3010  155.1880 C   0  0  1  0  0  3  0  0  0  0  0  0
  161.0370  210.6730  153.1430 C   0  0  0  0  0  3  0  0  0  0  0  0
  160.3180  212.6150  156.2080 O   0  0  0  0  0  0  0  0  0  0  0  0
  160.7440  211.7200  155.4300 C   0  0  0  0  0  0  0  0  0  0  0  0
  159.8190  212.7360  153.3370 C   0  0  0  0  0  3  0  0  0  0  0  0
  160.4790  211.7570  153.9670 C   0  0  0  0  0  0  0  0  0  0  0  0
  161.5710  210.5960  155.9930 C   0  0  2  0  0  3  0  0  0  0  0  0
  161.9220  208.7680  151.3360 C   0  0  0  0  0  0  0  0  0  0  0  0
  160.9490  207.8610  150.6340 C   0  0  0  0  0  2  0  0  0  0  0  0
  162.4030  209.7150  150.7290 O   0  0  0  0  0  0  0  0  0  0  0  0
  162.1410  207.1300  153.2710 C   0  0  0  0  0  2  0  0  0  0  0  0
  160.8510  205.0130  153.2020 C   0  0  0  0  0  1  0  0  0  0  0  0
  162.2450  208.5870  152.8000 C   0  0  2  0  0  3  0  0  0  0  0  0
  161.0110  206.4360  151.1740 C   0  0  0  0  0  2  0  0  0  0  0  0
  160.9130  206.4360  152.6930 C   0  0  2  0  0  3  0  0  0  0  0  0
  163.5240  211.7330  157.2610 C   0  0  0  0  0  2  0  0  0  0  0  0
  163.7150  210.3380  157.1390 O   0  0  0  0  0  0  0  0  0  0  0  0
  163.8290  211.0530  154.9380 O   0  0  0  0  0  1  0  0  0  0  0  0
  163.0440  210.9830  156.0890 C   0  0  1  0  0  0  0  0  0  0  0  0
  159.9610  208.3610  156.9880 O   0  0  0  0  0  0  0  0  0  0  0  0
  158.6240  206.6090  156.0570 C   0  0  0  0  0  1  0  0  0  0  0  0
  160.0420  208.6410  155.6160 C   0  0  2  0  0  0  0  0  0  0  0  0
  160.0040  207.2420  156.1250 C   0  0  1  0  0  3  0  0  0  0  0  0
  158.3790  210.4850  157.0510 O   0  0  0  0  0  0  0  0  0  0  0  0
  158.0340  210.1690  155.8830 C   0  0  0  0  0  0  0  0  0  0  0  0
  156.8160  210.7810  155.2880 C   0  0  0  0  0  1  0  0  0  0  0  0
  158.8010  209.2340  155.1220 N   0  0  0  0  0  2  0  0  0  0  0  0
  157.7400  214.0480  153.5680 C   0  0  0  0  0  1  0  0  0  0  0  0
  159.1910  213.9230  153.9940 C   0  0  0  0  0  2  0  0  0  0  0  0
  2  1  1  6  0  0  0
  2 23  1  0  0  0  0
  2  8  1  0  0  0  0
  3  1  2  0  0  0  0
  3  7  1  0  0  0  0
  5  4  2  0  0  0  0
  6  7  2  0  0  0  0
  6 30  1  0  0  0  0
  7  5  1  0  0  0  0
  8  5  1  6  0  0  0
  8 20  1  0  0  0  0
  9 14  1  0  0  0  0
 10 15  1  0  0  0  0
 10  9  1  0  0  0  0
 11  9  2  0  0  0  0
 14 12  1  0  0  0  0
 14  1  1  1  0  0  0
 15 16  1  0  0  0  0
 16 13  1  1  0  0  0
 16 12  1  0  0  0  0
 18 17  1  0  0  0  0
 20 19  1  6  0  0  0
 20 18  1  0  0  0  0
 20 17  1  0  0  0  0
 23 28  1  6  0  0  0
 23 24  1  0  0  0  0
 23 21  1  0  0  0  0
 24 22  1  6  0  0  0
 24 21  1  0  0  0  0
 26 25  2  0  0  0  0
 27 26  1  0  0  0  0
 28 26  1  0  0  0  0
 29 30  1  0  0  0  0
M  END
>  <MODEL>
4

>  <REMARK>
 VINA RESULT:      -1.5      2.256      6.335
  Name = 
  5 active torsions:
  status: ('A' for Active; 'I' for Inactive)
    1  A    between atoms: C_1  and  C_22
    2  A    between atoms: C_4  and  C_23
    3  A    between atoms: C_9  and  C_21
    4  A    between atoms: C_13  and  C_30
    5  A    between atoms: C_23  and  N_25
                            x       y       z     vdW  Elec       q    Type
                         _______ _______ _______ _____ _____    ______ ____

>  <TORSDO>
F 5

$$$$
=
 OpenBabel11052421453D

 30 33  0  0  1  0  0  0  0  0999 V2000
  159.4920  211.6520  154.9230 C   0  0  0  0  0  0  0  0  0  0  0  0
  160.8170  211.4540  154.1960 C   0  0  1  0  0  3  0  0  0  0  0  0
  158.8810  210.6150  155.5090 C   0  0  0  0  0  3  0  0  0  0  0  0
  161.5800  208.0950  155.3170 O   0  0  0  0  0  0  0  0  0  0  0  0
  160.9600  209.1900  155.2710 C   0  0  0  0  0  0  0  0  0  0  0  0
  158.7400  208.2590  155.9590 C   0  0  0  0  0  3  0  0  0  0  0  0
  159.5070  209.2860  155.5740 C   0  0  0  0  0  0  0  0  0  0  0  0
  161.7170  210.4440  154.9280 C   0  0  2  0  0  3  0  0  0  0  0  0
  158.6060  213.3740  156.5250 C   0  0  0  0  0  0  0  0  0  0  0  0
  157.2260  213.2520  157.1120 C   0  0  0  0  0  2  0  0  0  0  0  0
  159.5370  213.6990  157.2480 O   0  0  0  0  0  0  0  0  0  0  0  0
  157.6740  213.2410  154.1610 C   0  0  0  0  0  2  0  0  0  0  0  0
  155.2250  213.0090  153.8490 C   0  0  0  0  0  1  0  0  0  0  0  0
  158.8780  213.0130  155.0850 C   0  0  2  0  0  3  0  0  0  0  0  0
  156.1430  213.5680  156.0860 C   0  0  0  0  0  2  0  0  0  0  0  0
  156.3730  212.7770  154.8070 C   0  0  2  0  0  3  0  0  0  0  0  0
  163.2220  210.2200  157.0250 C   0  0  0  0  0  2  0  0  0  0  0  0
  163.7700  211.1100  156.0750 O   0  0  0  0  0  0  0  0  0  0  0  0
  161.8430  212.2110  156.7390 O   0  0  0  0  0  1  0  0  0  0  0  0
  162.3720  211.0550  156.1630 C   0  0  1  0  0  0  0  0  0  0  0  0
  160.8640  209.6620  152.4950 O   0  0  0  0  0  0  0  0  0  0  0  0
  161.6800  210.5920  150.4470 C   0  0  0  0  0  1  0  0  0  0  0  0
  160.6860  211.0360  152.7170 C   0  0  2  0  0  0  0  0  0  0  0  0
  161.8540  210.5140  151.9550 C   0  0  1  0  0  3  0  0  0  0  0  0
  160.4720  213.6570  151.5740 O   0  0  0  0  0  0  0  0  0  0  0  0
  159.5130  212.8610  151.4010 C   0  0  0  0  0  0  0  0  0  0  0  0
  158.3400  213.2910  150.5940 C   0  0  0  0  0  1  0  0  0  0  0  0
  159.5420  211.5500  151.9670 N   0  0  0  0  0  2  0  0  0  0  0  0
  160.1570  206.7090  157.2600 C   0  0  0  0  0  1  0  0  0  0  0  0
  159.1920  206.8410  156.0960 C   0  0  0  0  0  2  0  0  0  0  0  0
  1  3  2  0  0  0  0
  2  1  1  1  0  0  0
  2  8  1  0  0  0  0
  3  7  1  0  0  0  0
  5  4  2  0  0  0  0
  5  7  1  0  0  0  0
  6 30  1  0  0  0  0
  7  6  2  0  0  0  0
  8  5  1  1  0  0  0
  8 20  1  0  0  0  0
  9 10  1  0  0  0  0
  9 11  2  0  0  0  0
 12 16  1  0  0  0  0
 12 14  1  0  0  0  0
 14  1  1  1  0  0  0
 14  9  1  0  0  0  0
 15 10  1  0  0  0  0
 16 13  1  6  0  0  0
 16 15  1  0  0  0  0
 18 20  1  0  0  0  0
 18 17  1  0  0  0  0
 20 19  1  1  0  0  0
 20 17  1  0  0  0  0
 21 23  1  0  0  0  0
 23 28  1  6  0  0  0
 23  2  1  0  0  0  0
 24 22  1  6  0  0  0
 24 21  1  0  0  0  0
 24 23  1  0  0  0  0
 26 25  2  0  0  0  0
 26 28  1  0  0  0  0
 27 26  1  0  0  0  0
 30 29  1  0  0  0  0
M  END
>  <MODEL>
5

>  <REMARK>
 VINA RESULT:      -1.2      1.782      3.020
  Name = 
  5 active torsions:
  status: ('A' for Active; 'I' for Inactive)
    1  A    between atoms: C_1  and  C_22
    2  A    between atoms: C_4  and  C_23
    3  A    between atoms: C_9  and  C_21
    4  A    between atoms: C_13  and  C_30
    5  A    between atoms: C_23  and  N_25
                            x       y       z     vdW  Elec       q    Type
                         _______ _______ _______ _____ _____    ______ ____

>  <TORSDO>
F 5

$$$$
=
 OpenBabel11052421453D

 30 33  0  0  1  0  0  0  0  0999 V2000
  160.0760  210.7740  153.6120 C   0  0  0  0  0  0  0  0  0  0  0  0
  160.1190  212.2720  153.8890 C   0  0  1  0  0  3  0  0  0  0  0  0
  158.9330  210.0920  153.7530 C   0  0  0  0  0  3  0  0  0  0  0  0
  156.5600  212.9030  154.1350 O   0  0  0  0  0  0  0  0  0  0  0  0
  157.6090  212.2450  153.9030 C   0  0  0  0  0  0  0  0  0  0  0  0
  156.6270  210.0020  154.4260 C   0  0  0  0  0  3  0  0  0  0  0  0
  157.6650  210.7670  154.0680 C   0  0  0  0  0  0  0  0  0  0  0  0
  158.8330  212.9710  153.4160 C   0  0  2  0  0  3  0  0  0  0  0  0
  161.2680  209.8840  151.5860 C   0  0  0  0  0  0  0  0  0  0  0  0
  160.8380  208.5990  150.9330 C   0  0  0  0  0  2  0  0  0  0  0  0
  161.5460  210.8470  150.8850 O   0  0  0  0  0  0  0  0  0  0  0  0
  161.5390  208.7190  153.8310 C   0  0  0  0  0  2  0  0  0  0  0  0
  161.0610  206.2910  153.9900 C   0  0  0  0  0  1  0  0  0  0  0  0
  161.2740  210.0350  153.0870 C   0  0  2  0  0  3  0  0  0  0  0  0
  161.2280  207.3810  151.7650 C   0  0  0  0  0  2  0  0  0  0  0  0
  160.7770  207.5550  153.2080 C   0  0  2  0  0  3  0  0  0  0  0  0
  159.1720  214.4520  151.3170 C   0  0  0  0  0  2  0  0  0  0  0  0
  160.0800  213.3700  151.3520 O   0  0  0  0  0  0  0  0  0  0  0  0
  158.0390  212.3020  151.1040 O   0  0  0  0  0  1  0  0  0  0  0  0
  158.8080  213.1510  151.9010 C   0  0  1  0  0  0  0  0  0  0  0  0
  159.2670  212.5150  156.1960 O   0  0  0  0  0  0  0  0  0  0  0  0
  160.4390  214.3200  157.2420 C   0  0  0  0  0  1  0  0  0  0  0  0
  160.3870  212.6470  155.3610 C   0  0  2  0  0  0  0  0  0  0  0  0
  159.7360  213.8320  155.9860 C   0  0  1  0  0  3  0  0  0  0  0  0
  160.5410  210.1730  156.8010 O   0  0  0  0  0  0  0  0  0  0  0  0
  161.5970  210.8450  156.6740 C   0  0  0  0  0  0  0  0  0  0  0  0
  162.8710  210.3220  157.2350 C   0  0  0  0  0  1  0  0  0  0  0  0
  161.5860  212.1010  155.9930 N   0  0  0  0  0  2  0  0  0  0  0  0
  154.5000  209.4330  155.5430 C   0  0  0  0  0  1  0  0  0  0  0  0
  155.2610  210.4970  154.7730 C   0  0  0  0  0  2  0  0  0  0  0  0
  1  3  2  0  0  0  0
  2  1  1  1  0  0  0
  2 23  1  0  0  0  0
  3  7  1  0  0  0  0
  5  7  1  0  0  0  0
  5  4  2  0  0  0  0
  6 30  1  0  0  0  0
  7  6  2  0  0  0  0
  8  2  1  0  0  0  0
  8  5  1  6  0  0  0
  9 14  1  0  0  0  0
 10  9  1  0  0  0  0
 10 15  1  0  0  0  0
 11  9  2  0  0  0  0
 14  1  1  1  0  0  0
 14 12  1  0  0  0  0
 15 16  1  0  0  0  0
 16 12  1  0  0  0  0
 16 13  1  1  0  0  0
 17 18  1  0  0  0  0
 17 20  1  0  0  0  0
 18 20  1  0  0  0  0
 20 19  1  6  0  0  0
 20  8  1  0  0  0  0
 23 24  1  0  0  0  0
 23 28  1  1  0  0  0
 23 21  1  0  0  0  0
 24 21  1  0  0  0  0
 24 22  1  1  0  0  0
 26 25  2  0  0  0  0
 26 27  1  0  0  0  0
 28 26  1  0  0  0  0
 30 29  1  0  0  0  0
M  END
>  <MODEL>
6

>  <REMARK>
 VINA RESULT:      -1.0      1.850      5.701
  Name = 
  5 active torsions:
  status: ('A' for Active; 'I' for Inactive)
    1  A    between atoms: C_1  and  C_22
    2  A    between atoms: C_4  and  C_23
    3  A    between atoms: C_9  and  C_21
    4  A    between atoms: C_13  and  C_30
    5  A    between atoms: C_23  and  N_25
                            x       y       z     vdW  Elec       q    Type
                         _______ _______ _______ _____ _____    ______ ____

>  <TORSDO>
F 5

$$$$
=
 OpenBabel11052421453D

 30 33  0  0  1  0  0  0  0  0999 V2000
  161.5240  211.2670  148.6740 C   0  0  0  0  0  0  0  0  0  0  0  0
  161.4910  212.6840  149.2310 C   0  0  1  0  0  3  0  0  0  0  0  0
  160.9050  210.9770  147.5230 C   0  0  0  0  0  3  0  0  0  0  0  0
  160.1300  214.3950  146.3420 O   0  0  0  0  0  0  0  0  0  0  0  0
  160.6140  213.4380  147.0030 C   0  0  0  0  0  0  0  0  0  0  0  0
  159.4770  211.6260  145.7020 C   0  0  0  0  0  3  0  0  0  0  0  0
  160.2720  212.0220  146.7030 C   0  0  0  0  0  0  0  0  0  0  0  0
  161.5880  213.7340  148.1110 C   0  0  2  0  0  3  0  0  0  0  0  0
  161.9230  208.7930  148.8830 C   0  0  0  0  0  0  0  0  0  0  0  0
  161.0180  207.9280  149.7160 C   0  0  0  0  0  2  0  0  0  0  0  0
  162.2830  208.3970  147.7830 O   0  0  0  0  0  0  0  0  0  0  0  0
  162.3780  210.3240  150.8630 C   0  0  0  0  0  2  0  0  0  0  0  0
  161.3030  209.8200  153.0400 C   0  0  0  0  0  1  0  0  0  0  0  0
  162.3180  210.1770  149.3370 C   0  0  2  0  0  3  0  0  0  0  0  0
  161.2410  208.1450  151.2090 C   0  0  0  0  0  2  0  0  0  0  0  0
  161.2030  209.6300  151.5430 C   0  0  2  0  0  3  0  0  0  0  0  0
  164.0560  214.4510  148.4360 C   0  0  0  0  0  2  0  0  0  0  0  0
  163.9320  213.0560  148.2570 O   0  0  0  0  0  0  0  0  0  0  0  0
  163.2500  213.8870  146.2040 O   0  0  0  0  0  1  0  0  0  0  0  0
  163.0120  213.8690  147.5790 C   0  0  1  0  0  0  0  0  0  0  0  0
  160.1530  214.3550  150.4650 O   0  0  0  0  0  0  0  0  0  0  0  0
  159.1850  213.2820  152.3720 C   0  0  0  0  0  1  0  0  0  0  0  0
  160.2690  213.0010  150.1170 C   0  0  2  0  0  0  0  0  0  0  0  0
  160.4330  213.4610  151.5240 C   0  0  1  0  0  3  0  0  0  0  0  0
  158.1450  214.4470  148.8430 O   0  0  0  0  0  0  0  0  0  0  0  0
  157.9730  213.2190  149.0590 C   0  0  0  0  0  0  0  0  0  0  0  0
  156.7100  212.5680  148.6200 C   0  0  0  0  0  1  0  0  0  0  0  0
  158.9790  212.4450  149.7150 N   0  0  0  0  0  2  0  0  0  0  0  0
  159.5280  212.6540  143.4580 C   0  0  0  0  0  1  0  0  0  0  0  0
  158.7540  212.5310  144.7570 C   0  0  0  0  0  2  0  0  0  0  0  0
  2  1  1  6  0  0  0
  2 23  1  0  0  0  0
  3  1  2  0  0  0  0
  4  5  2  0  0  0  0
  6  7  2  0  0  0  0
  7  5  1  0  0  0  0
  7  3  1  0  0  0  0
  8  5  1  6  0  0  0
  8  2  1  0  0  0  0
  9 14  1  0  0  0  0
  9 10  1  0  0  0  0
 10 15  1  0  0  0  0
 11  9  2  0  0  0  0
 12 16  1  0  0  0  0
 14  1  1  1  0  0  0
 14 12  1  0  0  0  0
 15 16  1  0  0  0  0
 16 13  1  1  0  0  0
 18 17  1  0  0  0  0
 20 19  1  6  0  0  0
 20  8  1  0  0  0  0
 20 18  1  0  0  0  0
 20 17  1  0  0  0  0
 21 24  1  0  0  0  0
 23 28  1  6  0  0  0
 23 21  1  0  0  0  0
 23 24  1  0  0  0  0
 24 22  1  1  0  0  0
 25 26  2  0  0  0  0
 26 28  1  0  0  0  0
 27 26  1  0  0  0  0
 29 30  1  0  0  0  0
 30  6  1  0  0  0  0
M  END
>  <MODEL>
7

>  <REMARK>
 VINA RESULT:      -0.1      4.339      8.415
  Name = 
  5 active torsions:
  status: ('A' for Active; 'I' for Inactive)
    1  A    between atoms: C_1  and  C_22
    2  A    between atoms: C_4  and  C_23
    3  A    between atoms: C_9  and  C_21
    4  A    between atoms: C_13  and  C_30
    5  A    between atoms: C_23  and  N_25
                            x       y       z     vdW  Elec       q    Type
                         _______ _______ _______ _____ _____    ______ ____

>  <TORSDO>
F 5

$$$$
