=
 OpenBabel11052421533D

 30 32  0  0  1  0  0  0  0  0999 V2000
  160.6520  203.6320  150.1950 C   0  0  2  0  0  3  0  0  0  0  0  0
  161.4970  204.8060  150.4260 N   0  0  0  0  0  2  0  0  0  0  0  0
  161.0840  204.4850  152.8380 C   0  0  0  0  0  3  0  0  0  0  0  0
  160.9830  202.5720  151.2510 C   0  0  0  0  0  2  0  0  0  0  0  0
  161.0490  205.4440  151.6720 C   0  0  1  0  0  3  0  0  0  0  0  0
  161.0060  203.1620  152.6380 C   0  0  0  0  0  3  0  0  0  0  0  0
  161.8030  206.6690  151.9730 N   0  0  0  0  0  0  0  0  0  0  0  0
  162.3520  207.2490  150.7520 C   0  0  0  0  0  1  0  0  0  0  0  0
  160.8910  207.6490  152.5480 C   0  0  0  0  0  2  0  0  0  0  0  0
  159.7620  210.1290  155.9040 C   0  0  1  0  0  3  0  0  0  0  0  0
  160.3220  208.9630  156.7240 C   0  0  0  0  0  2  0  0  0  0  0  0
  160.3070  211.4320  156.4510 C   0  0  0  0  0  1  0  0  0  0  0  0
  161.2710  207.9450  153.9920 C   0  0  2  0  0  3  0  0  0  0  0  0
  159.9280  207.6400  156.1420 C   0  0  0  0  0  3  0  0  0  0  0  0
  160.0880  210.0160  154.4130 C   0  0  0  0  0  2  0  0  0  0  0  0
  160.3380  207.2100  154.9380 C   0  0  0  0  0  3  0  0  0  0  0  0
  161.3970  209.3940  154.2200 N   0  0  0  0  0  2  0  0  0  0  0  0
  161.6070  201.8880  148.8530 O   0  0  0  0  0  1  0  0  0  0  0  0
  160.8650  203.0720  148.7810 C   0  0  2  0  0  3  0  0  0  0  0  0
  164.1350  204.5940  146.3920 O   0  0  0  0  0  1  0  0  0  0  0  0
  160.8570  205.3960  147.6990 C   0  0  0  0  0  2  0  0  0  0  0  0
  162.0100  203.4770  146.5110 C   0  0  1  0  0  3  0  0  0  0  0  0
  162.2480  205.8360  145.5760 C   0  0  0  0  0  2  0  0  0  0  0  0
  162.9050  204.4600  145.7450 C   0  0  1  0  0  3  0  0  0  0  0  0
  161.6080  204.0720  147.8800 C   0  0  2  0  0  3  0  0  0  0  0  0
  161.5600  207.5970  147.0570 N   0  0  0  0  0  2  0  0  0  0  0  0
  161.6800  206.3350  146.8730 C   0  0  0  0  0  0  0  0  0  0  0  0
  160.8050  203.0900  145.6500 C   0  0  0  0  0  2  0  0  0  0  0  0
  159.6310  201.1830  144.5520 C   0  0  0  0  0  1  0  0  0  0  0  0
  160.5350  201.5960  145.6980 C   0  0  0  0  0  2  0  0  0  0  0  0
  1 19  1  6  0  0  0
  1  2  1  0  0  0  0
  1  4  1  0  0  0  0
  2  5  1  0  0  0  0
  4  6  1  0  0  0  0
  5  7  1  1  0  0  0
  5  3  1  0  0  0  0
  6  3  2  0  0  0  0
  7  9  1  0  0  0  0
  8  7  1  0  0  0  0
 10 12  1  1  0  0  0
 10 11  1  0  0  0  0
 13  9  1  6  0  0  0
 13 17  1  0  0  0  0
 13 16  1  0  0  0  0
 14 11  1  0  0  0  0
 15 10  1  0  0  0  0
 16 14  2  0  0  0  0
 17 15  1  0  0  0  0
 19 18  1  1  0  0  0
 21 25  1  0  0  0  0
 22 28  1  6  0  0  0
 22 25  1  0  0  0  0
 23 24  1  0  0  0  0
 23 27  1  0  0  0  0
 24 20  1  1  0  0  0
 24 22  1  0  0  0  0
 25 19  1  6  0  0  0
 27 26  2  0  0  0  0
 27 21  1  0  0  0  0
 28 30  1  0  0  0  0
 29 30  1  0  0  0  0
M  END
>  <MODEL>
1

>  <REMARK>
 VINA RESULT:      -7.9      0.000      0.000
  Name = 
  7 active torsions:
  status: ('A' for Active; 'I' for Inactive)
    1  A    between atoms: C_3  and  N_11
    2  A    between atoms: C_3  and  C_19
    3  A    between atoms: C_4  and  C_8
    4  A    between atoms: C_4  and  C_23
    5  A    between atoms: C_7  and  C_30
    6  A    between atoms: N_11  and  C_25
    7  A    between atoms: C_13  and  C_30
                            x       y       z     vdW  Elec       q    Type
                         _______ _______ _______ _____ _____    ______ ____

>  <TORSDO>
F 7

$$$$
=
 OpenBabel11052421533D

 30 32  0  0  1  0  0  0  0  0999 V2000
  161.6210  206.8690  150.3510 C   0  0  2  0  0  3  0  0  0  0  0  0
  160.7370  207.4210  151.3800 N   0  0  0  0  0  2  0  0  0  0  0  0
  161.9530  209.5530  151.1170 C   0  0  0  0  0  3  0  0  0  0  0  0
  161.8070  207.9170  149.2480 C   0  0  0  0  0  2  0  0  0  0  0  0
  161.4690  208.4900  152.0750 C   0  0  1  0  0  3  0  0  0  0  0  0
  162.1510  209.2680  149.8230 C   0  0  0  0  0  3  0  0  0  0  0  0
  160.6850  209.0820  153.1680 N   0  0  0  0  0  0  0  0  0  0  0  0
  161.1350  208.5720  154.4590 C   0  0  0  0  0  1  0  0  0  0  0  0
  160.9020  210.5230  153.1710 C   0  0  0  0  0  2  0  0  0  0  0  0
  158.7220  213.9380  154.6790 C   0  0  1  0  0  3  0  0  0  0  0  0
  158.0930  213.9270  153.2820 C   0  0  0  0  0  2  0  0  0  0  0  0
  157.6300  214.0850  155.7180 C   0  0  0  0  0  1  0  0  0  0  0  0
  159.5800  211.2600  153.0070 C   0  0  2  0  0  3  0  0  0  0  0  0
  159.1120  213.6430  152.2210 C   0  0  0  0  0  3  0  0  0  0  0  0
  159.5460  212.6800  154.9690 C   0  0  0  0  0  2  0  0  0  0  0  0
  159.7690  212.4760  152.1180 C   0  0  0  0  0  3  0  0  0  0  0  0
  158.9520  211.5160  154.3140 N   0  0  0  0  0  2  0  0  0  0  0  0
  161.5330  204.4760  150.4900 O   0  0  0  0  0  1  0  0  0  0  0  0
  161.0430  205.5710  149.7700 C   0  0  2  0  0  3  0  0  0  0  0  0
  163.5750  204.6220  146.3930 O   0  0  0  0  0  1  0  0  0  0  0  0
  160.3160  205.8830  147.3320 C   0  0  0  0  0  2  0  0  0  0  0  0
  161.8520  203.9590  147.9330 C   0  0  1  0  0  3  0  0  0  0  0  0
  161.3620  204.4350  145.4770 C   0  0  0  0  0  2  0  0  0  0  0  0
  162.3820  203.9050  146.4940 C   0  0  1  0  0  3  0  0  0  0  0  0
  161.4110  205.3980  148.2870 C   0  0  2  0  0  3  0  0  0  0  0  0
  160.3380  206.5610  145.0320 N   0  0  0  0  0  2  0  0  0  0  0  0
  160.7830  205.7480  145.9160 C   0  0  0  0  0  0  0  0  0  0  0  0
  160.7350  202.9290  148.1160 C   0  0  0  0  0  2  0  0  0  0  0  0
  160.8180  201.1210  149.8330 C   0  0  0  0  0  1  0  0  0  0  0  0
  161.2880  201.5550  148.4570 C   0  0  0  0  0  2  0  0  0  0  0  0
  1 19  1  6  0  0  0
  1  2  1  0  0  0  0
  2  5  1  0  0  0  0
  3  5  1  0  0  0  0
  4  6  1  0  0  0  0
  4  1  1  0  0  0  0
  5  7  1  1  0  0  0
  6  3  2  0  0  0  0
  7  9  1  0  0  0  0
  7  8  1  0  0  0  0
 10 15  1  0  0  0  0
 10 12  1  1  0  0  0
 11 10  1  0  0  0  0
 13  9  1  1  0  0  0
 13 17  1  0  0  0  0
 14 11  1  0  0  0  0
 16 14  2  0  0  0  0
 16 13  1  0  0  0  0
 17 15  1  0  0  0  0
 19 18  1  1  0  0  0
 21 25  1  0  0  0  0
 22 28  1  6  0  0  0
 22 25  1  0  0  0  0
 23 27  1  0  0  0  0
 23 24  1  0  0  0  0
 24 20  1  1  0  0  0
 24 22  1  0  0  0  0
 25 19  1  1  0  0  0
 26 27  2  0  0  0  0
 27 21  1  0  0  0  0
 28 30  1  0  0  0  0
 30 29  1  0  0  0  0
M  END
>  <MODEL>
2

>  <REMARK>
 VINA RESULT:      -7.6      2.250      3.852
  Name = 
  7 active torsions:
  status: ('A' for Active; 'I' for Inactive)
    1  A    between atoms: C_3  and  N_11
    2  A    between atoms: C_3  and  C_19
    3  A    between atoms: C_4  and  C_8
    4  A    between atoms: C_4  and  C_23
    5  A    between atoms: C_7  and  C_30
    6  A    between atoms: N_11  and  C_25
    7  A    between atoms: C_13  and  C_30
                            x       y       z     vdW  Elec       q    Type
                         _______ _______ _______ _____ _____    ______ ____

>  <TORSDO>
F 7

$$$$
=
 OpenBabel11052421533D

 30 32  0  0  1  0  0  0  0  0999 V2000
  161.3090  208.1900  154.0440 C   0  0  2  0  0  3  0  0  0  0  0  0
  160.8600  208.4810  152.6810 N   0  0  0  0  0  2  0  0  0  0  0  0
  161.5070  206.1710  152.0980 C   0  0  0  0  0  3  0  0  0  0  0  0
  160.8530  206.7760  154.4210 C   0  0  0  0  0  2  0  0  0  0  0  0
  161.6380  207.6380  151.7620 C   0  0  1  0  0  3  0  0  0  0  0  0
  161.1900  205.7810  153.3410 C   0  0  0  0  0  3  0  0  0  0  0  0
  161.3000  207.8880  150.3530 N   0  0  0  0  0  0  0  0  0  0  0  0
  161.6720  209.2450  149.9670 C   0  0  0  0  0  1  0  0  0  0  0  0
  162.0670  206.9730  149.5190 C   0  0  0  0  0  2  0  0  0  0  0  0
  161.9500  204.7460  145.8160 C   0  0  1  0  0  3  0  0  0  0  0  0
  160.9150  203.9020  146.5650 C   0  0  0  0  0  2  0  0  0  0  0  0
  161.4240  205.0730  144.4340 C   0  0  0  0  0  1  0  0  0  0  0  0
  161.1360  206.1180  148.6710 C   0  0  2  0  0  3  0  0  0  0  0  0
  161.3210  203.6650  147.9870 C   0  0  0  0  0  3  0  0  0  0  0  0
  162.3070  206.0390  146.5530 C   0  0  0  0  0  2  0  0  0  0  0  0
  161.4290  204.6460  148.8990 C   0  0  0  0  0  3  0  0  0  0  0  0
  161.1430  206.5600  147.2680 N   0  0  0  0  0  2  0  0  0  0  0  0
  159.9070  208.5820  155.9510 O   0  0  0  0  0  1  0  0  0  0  0  0
  160.7510  209.2210  155.0360 C   0  0  2  0  0  3  0  0  0  0  0  0
  157.2720  211.5510  153.9520 O   0  0  0  0  0  1  0  0  0  0  0  0
  160.8030  211.1080  153.3020 C   0  0  0  0  0  2  0  0  0  0  0  0
  159.2490  211.2950  155.2950 C   0  0  1  0  0  3  0  0  0  0  0  0
  159.0920  213.0280  153.4320 C   0  0  0  0  0  2  0  0  0  0  0  0
  158.3360  212.2540  154.5190 C   0  0  1  0  0  3  0  0  0  0  0  0
  159.9630  210.3310  154.3210 C   0  0  2  0  0  3  0  0  0  0  0  0
  160.2310  212.4490  151.3990 N   0  0  0  0  0  2  0  0  0  0  0  0
  159.9450  212.1140  152.6010 C   0  0  0  0  0  0  0  0  0  0  0  0
  160.2220  212.0930  156.1670 C   0  0  0  0  0  2  0  0  0  0  0  0
  160.1110  214.4530  156.9660 C   0  0  0  0  0  1  0  0  0  0  0  0
  159.4920  213.0720  157.0720 C   0  0  0  0  0  2  0  0  0  0  0  0
  1  4  1  0  0  0  0
  1 19  1  1  0  0  0
  2  1  1  0  0  0  0
  3  6  2  0  0  0  0
  5  7  1  6  0  0  0
  5  3  1  0  0  0  0
  5  2  1  0  0  0  0
  6  4  1  0  0  0  0
  8  7  1  0  0  0  0
  9  7  1  0  0  0  0
 10 12  1  6  0  0  0
 10 15  1  0  0  0  0
 10 11  1  0  0  0  0
 11 14  1  0  0  0  0
 13 16  1  0  0  0  0
 13  9  1  1  0  0  0
 14 16  2  0  0  0  0
 15 17  1  0  0  0  0
 17 13  1  0  0  0  0
 19 18  1  1  0  0  0
 21 25  1  0  0  0  0
 22 28  1  6  0  0  0
 23 24  1  0  0  0  0
 24 20  1  6  0  0  0
 24 22  1  0  0  0  0
 25 19  1  1  0  0  0
 25 22  1  0  0  0  0
 26 27  2  0  0  0  0
 27 21  1  0  0  0  0
 27 23  1  0  0  0  0
 28 30  1  0  0  0  0
 29 30  1  0  0  0  0
M  END
>  <MODEL>
3

>  <REMARK>
 VINA RESULT:      -7.4      3.323      9.434
  Name = 
  7 active torsions:
  status: ('A' for Active; 'I' for Inactive)
    1  A    between atoms: C_3  and  N_11
    2  A    between atoms: C_3  and  C_19
    3  A    between atoms: C_4  and  C_8
    4  A    between atoms: C_4  and  C_23
    5  A    between atoms: C_7  and  C_30
    6  A    between atoms: N_11  and  C_25
    7  A    between atoms: C_13  and  C_30
                            x       y       z     vdW  Elec       q    Type
                         _______ _______ _______ _____ _____    ______ ____

>  <TORSDO>
F 7

$$$$
=
 OpenBabel11052421533D

 30 32  0  0  1  0  0  0  0  0999 V2000
  160.3070  209.9100  152.8150 C   0  0  2  0  0  3  0  0  0  0  0  0
  160.8570  208.6090  153.2020 N   0  0  0  0  0  2  0  0  0  0  0  0
  161.8330  208.4770  150.9390 C   0  0  0  0  0  3  0  0  0  0  0  0
  161.3660  210.6730  152.0120 C   0  0  0  0  0  2  0  0  0  0  0  0
  160.9840  207.7940  151.9850 C   0  0  1  0  0  3  0  0  0  0  0  0
  161.9660  209.8110  150.9310 C   0  0  0  0  0  3  0  0  0  0  0  0
  161.4840  206.4410  152.2690 N   0  0  0  0  0  0  0  0  0  0  0  0
  161.3150  206.1170  153.6820 C   0  0  0  0  0  1  0  0  0  0  0  0
  160.6960  205.4830  151.5060 C   0  0  0  0  0  2  0  0  0  0  0  0
  160.6260  202.2630  148.6220 C   0  0  1  0  0  3  0  0  0  0  0  0
  161.5910  203.1710  147.8530 C   0  0  0  0  0  2  0  0  0  0  0  0
  161.1750  200.8520  148.6410 C   0  0  0  0  0  1  0  0  0  0  0  0
  161.5540  204.8230  150.4350 C   0  0  2  0  0  3  0  0  0  0  0  0
  161.1700  204.6070  147.9210 C   0  0  0  0  0  3  0  0  0  0  0  0
  160.3770  202.7410  150.0550 C   0  0  0  0  0  2  0  0  0  0  0  0
  161.1430  205.3170  149.0600 C   0  0  0  0  0  3  0  0  0  0  0  0
  161.5800  203.3610  150.6060 N   0  0  0  0  0  2  0  0  0  0  0  0
  159.5660  209.8400  155.0950 O   0  0  0  0  0  1  0  0  0  0  0  0
  159.8810  210.7150  154.0500 C   0  0  2  0  0  3  0  0  0  0  0  0
  155.8040  212.1090  154.4330 O   0  0  0  0  0  1  0  0  0  0  0  0
  158.8910  212.5870  152.6060 C   0  0  0  0  0  2  0  0  0  0  0  0
  158.1270  212.3370  155.0090 C   0  0  1  0  0  3  0  0  0  0  0  0
  156.9380  214.0090  153.4980 C   0  0  0  0  0  2  0  0  0  0  0  0
  156.8060  213.0480  154.6860 C   0  0  1  0  0  3  0  0  0  0  0  0
  158.6600  211.6030  153.7580 C   0  0  2  0  0  3  0  0  0  0  0  0
  157.4000  213.7770  151.1530 N   0  0  0  0  0  2  0  0  0  0  0  0
  157.6350  213.3570  152.3400 C   0  0  0  0  0  0  0  0  0  0  0  0
  159.1290  213.3380  155.5890 C   0  0  0  0  0  2  0  0  0  0  0  0
  160.6870  212.3380  157.2610 C   0  0  0  0  0  1  0  0  0  0  0  0
  159.3830  213.0880  157.0660 C   0  0  0  0  0  2  0  0  0  0  0  0
  1  2  1  0  0  0  0
  1 19  1  1  0  0  0
  3  5  1  0  0  0  0
  4  1  1  0  0  0  0
  5  7  1  1  0  0  0
  5  2  1  0  0  0  0
  6  3  2  0  0  0  0
  6  4  1  0  0  0  0
  7  8  1  0  0  0  0
  9  7  1  0  0  0  0
 10 12  1  1  0  0  0
 10 15  1  0  0  0  0
 11 14  1  0  0  0  0
 11 10  1  0  0  0  0
 13 17  1  0  0  0  0
 13  9  1  1  0  0  0
 14 16  2  0  0  0  0
 15 17  1  0  0  0  0
 16 13  1  0  0  0  0
 19 18  1  1  0  0  0
 21 25  1  0  0  0  0
 22 28  1  6  0  0  0
 23 24  1  0  0  0  0
 24 20  1  6  0  0  0
 24 22  1  0  0  0  0
 25 19  1  1  0  0  0
 25 22  1  0  0  0  0
 26 27  2  0  0  0  0
 27 21  1  0  0  0  0
 27 23  1  0  0  0  0
 28 30  1  0  0  0  0
 30 29  1  0  0  0  0
M  END
>  <MODEL>
4

>  <REMARK>
 VINA RESULT:      -7.4      3.923      9.819
  Name = 
  7 active torsions:
  status: ('A' for Active; 'I' for Inactive)
    1  A    between atoms: C_3  and  N_11
    2  A    between atoms: C_3  and  C_19
    3  A    between atoms: C_4  and  C_8
    4  A    between atoms: C_4  and  C_23
    5  A    between atoms: C_7  and  C_30
    6  A    between atoms: N_11  and  C_25
    7  A    between atoms: C_13  and  C_30
                            x       y       z     vdW  Elec       q    Type
                         _______ _______ _______ _____ _____    ______ ____

>  <TORSDO>
F 7

$$$$
=
 OpenBabel11052421533D

 30 32  0  0  1  0  0  0  0  0999 V2000
  161.2630  209.8390  152.8850 C   0  0  2  0  0  3  0  0  0  0  0  0
  161.6970  208.4580  153.1070 N   0  0  0  0  0  2  0  0  0  0  0  0
  161.6160  208.1610  150.6580 C   0  0  0  0  0  3  0  0  0  0  0  0
  162.0080  210.4000  151.6700 C   0  0  0  0  0  2  0  0  0  0  0  0
  161.1730  207.6390  152.0040 C   0  0  1  0  0  3  0  0  0  0  0  0
  161.9560  209.4480  150.5020 C   0  0  0  0  0  3  0  0  0  0  0  0
  161.5110  206.2170  152.1560 N   0  0  0  0  0  0  0  0  0  0  0  0
  161.2090  205.7570  153.5070 C   0  0  0  0  0  1  0  0  0  0  0  0
  160.6870  205.4410  151.2380 C   0  0  0  0  0  2  0  0  0  0  0  0
  160.6550  202.0940  148.5020 C   0  0  1  0  0  3  0  0  0  0  0  0
  161.6280  202.9670  147.7050 C   0  0  0  0  0  2  0  0  0  0  0  0
  161.2050  200.6860  148.5920 C   0  0  0  0  0  1  0  0  0  0  0  0
  161.5580  204.7350  150.2090 C   0  0  2  0  0  3  0  0  0  0  0  0
  161.2040  204.4050  147.7020 C   0  0  0  0  0  3  0  0  0  0  0  0
  160.3880  202.6360  149.9090 C   0  0  0  0  0  2  0  0  0  0  0  0
  161.1630  205.1660  148.8080 C   0  0  0  0  0  3  0  0  0  0  0  0
  161.5840  203.2820  150.4450 N   0  0  0  0  0  2  0  0  0  0  0  0
  162.1610  209.9320  155.1080 O   0  0  0  0  0  1  0  0  0  0  0  0
  161.5260  210.7020  154.1270 C   0  0  2  0  0  3  0  0  0  0  0  0
  157.2660  211.4060  154.3830 O   0  0  0  0  0  1  0  0  0  0  0  0
  160.4560  212.2540  155.8640 C   0  0  0  0  0  2  0  0  0  0  0  0
  159.2040  210.1830  155.1100 C   0  0  1  0  0  3  0  0  0  0  0  0
  158.0230  211.8670  156.6150 C   0  0  0  0  0  2  0  0  0  0  0  0
  157.8660  210.8240  155.5010 C   0  0  1  0  0  3  0  0  0  0  0  0
  160.2230  211.2750  154.7090 C   0  0  2  0  0  3  0  0  0  0  0  0
  159.1160  213.9960  156.8230 N   0  0  0  0  0  2  0  0  0  0  0  0
  159.1470  212.8180  156.3210 C   0  0  0  0  0  0  0  0  0  0  0  0
  159.7040  209.2860  156.2450 C   0  0  0  0  0  2  0  0  0  0  0  0
  160.1420  206.9530  157.0090 C   0  0  0  0  0  1  0  0  0  0  0  0
  159.5820  207.8130  155.8920 C   0  0  0  0  0  2  0  0  0  0  0  0
  1  2  1  0  0  0  0
  1 19  1  1  0  0  0
  3  5  1  0  0  0  0
  4  1  1  0  0  0  0
  5  7  1  1  0  0  0
  5  2  1  0  0  0  0
  6  3  2  0  0  0  0
  6  4  1  0  0  0  0
  7  8  1  0  0  0  0
  9  7  1  0  0  0  0
 10 12  1  1  0  0  0
 10 15  1  0  0  0  0
 11 10  1  0  0  0  0
 13 17  1  0  0  0  0
 13  9  1  1  0  0  0
 14 11  1  0  0  0  0
 14 16  2  0  0  0  0
 15 17  1  0  0  0  0
 16 13  1  0  0  0  0
 19 18  1  1  0  0  0
 21 27  1  0  0  0  0
 22 24  1  0  0  0  0
 22 28  1  1  0  0  0
 24 20  1  6  0  0  0
 24 23  1  0  0  0  0
 25 19  1  1  0  0  0
 25 22  1  0  0  0  0
 25 21  1  0  0  0  0
 27 23  1  0  0  0  0
 27 26  2  0  0  0  0
 30 28  1  0  0  0  0
 30 29  1  0  0  0  0
M  END
>  <MODEL>
5

>  <REMARK>
 VINA RESULT:      -7.2      3.363      9.489
  Name = 
  7 active torsions:
  status: ('A' for Active; 'I' for Inactive)
    1  A    between atoms: C_3  and  N_11
    2  A    between atoms: C_3  and  C_19
    3  A    between atoms: C_4  and  C_8
    4  A    between atoms: C_4  and  C_23
    5  A    between atoms: C_7  and  C_30
    6  A    between atoms: N_11  and  C_25
    7  A    between atoms: C_13  and  C_30
                            x       y       z     vdW  Elec       q    Type
                         _______ _______ _______ _____ _____    ______ ____

>  <TORSDO>
F 7

$$$$
=
 OpenBabel11052421533D

 30 32  0  0  1  0  0  0  0  0999 V2000
  161.1940  209.2270  151.6250 C   0  0  2  0  0  3  0  0  0  0  0  0
  161.5300  207.9480  150.9970 N   0  0  0  0  0  2  0  0  0  0  0  0
  161.9250  209.2070  148.9100 C   0  0  0  0  0  3  0  0  0  0  0  0
  162.1830  210.2910  151.1350 C   0  0  0  0  0  2  0  0  0  0  0  0
  161.2070  208.0510  149.5660 C   0  0  1  0  0  3  0  0  0  0  0  0
  162.3310  210.2580  149.6350 C   0  0  0  0  0  3  0  0  0  0  0  0
  161.4610  206.7950  148.8450 N   0  0  0  0  0  0  0  0  0  0  0  0
  162.6330  206.9230  147.9850 C   0  0  0  0  0  1  0  0  0  0  0  0
  161.7470  205.7490  149.8180 C   0  0  0  0  0  2  0  0  0  0  0  0
  161.2090  201.8170  148.1030 C   0  0  1  0  0  3  0  0  0  0  0  0
  160.2650  201.6230  149.2930 C   0  0  0  0  0  2  0  0  0  0  0  0
  160.5300  201.3280  146.8400 C   0  0  0  0  0  1  0  0  0  0  0  0
  160.7250  204.6260  149.7070 C   0  0  2  0  0  3  0  0  0  0  0  0
  160.8290  202.2180  150.5470 C   0  0  0  0  0  3  0  0  0  0  0  0
  161.6490  203.2720  147.9240 C   0  0  0  0  0  2  0  0  0  0  0  0
  161.0410  203.5330  150.7130 C   0  0  0  0  0  3  0  0  0  0  0  0
  160.5730  204.1840  148.3120 N   0  0  0  0  0  2  0  0  0  0  0  0
  160.8650  207.8210  153.5410 O   0  0  0  0  0  1  0  0  0  0  0  0
  161.2360  209.1140  153.1550 C   0  0  2  0  0  3  0  0  0  0  0  0
  158.1140  210.4580  155.8310 O   0  0  0  0  0  1  0  0  0  0  0  0
  160.3700  211.5260  153.2120 C   0  0  0  0  0  2  0  0  0  0  0  0
  160.4560  210.1870  155.3620 C   0  0  1  0  0  3  0  0  0  0  0  0
  159.3330  212.4750  155.3700 C   0  0  0  0  0  2  0  0  0  0  0  0
  159.3610  211.0680  155.9790 C   0  0  1  0  0  3  0  0  0  0  0  0
  160.2900  210.1250  153.8260 C   0  0  2  0  0  3  0  0  0  0  0  0
  158.8620  213.3910  153.2000 N   0  0  0  0  0  2  0  0  0  0  0  0
  159.3690  212.4240  153.8700 C   0  0  0  0  0  0  0  0  0  0  0  0
  161.8350  210.6910  155.7950 C   0  0  0  0  0  2  0  0  0  0  0  0
  161.9500  208.4550  156.8950 C   0  0  0  0  0  1  0  0  0  0  0  0
  162.3710  209.9100  156.9830 C   0  0  0  0  0  2  0  0  0  0  0  0
  1 19  1  1  0  0  0
  2  1  1  0  0  0  0
  3  5  1  0  0  0  0
  3  6  2  0  0  0  0
  4  1  1  0  0  0  0
  5  7  1  6  0  0  0
  5  2  1  0  0  0  0
  6  4  1  0  0  0  0
  7  9  1  0  0  0  0
  8  7  1  0  0  0  0
 10 12  1  6  0  0  0
 10 11  1  0  0  0  0
 11 14  1  0  0  0  0
 13  9  1  6  0  0  0
 13 16  1  0  0  0  0
 14 16  2  0  0  0  0
 15 10  1  0  0  0  0
 15 17  1  0  0  0  0
 17 13  1  0  0  0  0
 19 18  1  6  0  0  0
 21 25  1  0  0  0  0
 21 27  1  0  0  0  0
 22 28  1  6  0  0  0
 22 24  1  0  0  0  0
 23 24  1  0  0  0  0
 24 20  1  6  0  0  0
 25 19  1  6  0  0  0
 25 22  1  0  0  0  0
 26 27  2  0  0  0  0
 27 23  1  0  0  0  0
 28 30  1  0  0  0  0
 29 30  1  0  0  0  0
M  END
>  <MODEL>
6

>  <REMARK>
 VINA RESULT:      -7.1      3.195      9.218
  Name = 
  7 active torsions:
  status: ('A' for Active; 'I' for Inactive)
    1  A    between atoms: C_3  and  N_11
    2  A    between atoms: C_3  and  C_19
    3  A    between atoms: C_4  and  C_8
    4  A    between atoms: C_4  and  C_23
    5  A    between atoms: C_7  and  C_30
    6  A    between atoms: N_11  and  C_25
    7  A    between atoms: C_13  and  C_30
                            x       y       z     vdW  Elec       q    Type
                         _______ _______ _______ _____ _____    ______ ____

>  <TORSDO>
F 7

$$$$
=
 OpenBabel11052421533D

 30 32  0  0  1  0  0  0  0  0999 V2000
  160.9010  210.1670  152.9480 C   0  0  2  0  0  3  0  0  0  0  0  0
  161.3890  208.8390  153.3250 N   0  0  0  0  0  2  0  0  0  0  0  0
  161.6600  208.3820  150.9140 C   0  0  0  0  0  3  0  0  0  0  0  0
  161.7670  210.7030  151.8030 C   0  0  0  0  0  2  0  0  0  0  0  0
  161.0720  207.9150  152.2250 C   0  0  1  0  0  3  0  0  0  0  0  0
  161.9340  209.6780  150.7110 C   0  0  0  0  0  3  0  0  0  0  0  0
  161.4770  206.5340  152.5230 N   0  0  0  0  0  0  0  0  0  0  0  0
  161.2180  206.2120  153.9220 C   0  0  0  0  0  1  0  0  0  0  0  0
  160.6750  205.6280  151.7130 C   0  0  0  0  0  2  0  0  0  0  0  0
  160.6370  202.3560  148.8880 C   0  0  1  0  0  3  0  0  0  0  0  0
  161.5840  203.2630  148.0970 C   0  0  0  0  0  2  0  0  0  0  0  0
  161.2070  200.9530  148.9290 C   0  0  0  0  0  1  0  0  0  0  0  0
  161.5370  204.9610  150.6490 C   0  0  2  0  0  3  0  0  0  0  0  0
  161.1420  204.6940  148.1410 C   0  0  0  0  0  3  0  0  0  0  0  0
  160.3880  202.8560  150.3130 C   0  0  0  0  0  2  0  0  0  0  0  0
  161.1110  205.4250  149.2680 C   0  0  0  0  0  3  0  0  0  0  0  0
  161.5860  203.5030  150.8460 N   0  0  0  0  0  2  0  0  0  0  0  0
  161.3580  210.4320  155.2880 O   0  0  0  0  0  1  0  0  0  0  0  0
  160.9380  211.1250  154.1480 C   0  0  2  0  0  3  0  0  0  0  0  0
  158.1320  214.2030  155.3180 O   0  0  0  0  0  1  0  0  0  0  0  0
  158.4080  210.7420  154.2980 C   0  0  0  0  0  2  0  0  0  0  0  0
  159.2800  213.0090  153.5750 C   0  0  1  0  0  3  0  0  0  0  0  0
  156.7830  212.7180  153.9970 C   0  0  0  0  0  2  0  0  0  0  0  0
  157.9780  213.6800  154.0330 C   0  0  1  0  0  3  0  0  0  0  0  0
  159.5580  211.7460  154.4220 C   0  0  2  0  0  3  0  0  0  0  0  0
  156.1710  210.7080  155.1600 N   0  0  0  0  0  2  0  0  0  0  0  0
  157.1150  211.4080  154.6510 C   0  0  0  0  0  0  0  0  0  0  0  0
  159.2170  212.7210  152.0730 C   0  0  0  0  0  2  0  0  0  0  0  0
  159.9290  213.4660  149.8020 C   0  0  0  0  0  1  0  0  0  0  0  0
  159.7760  213.8730  151.2550 C   0  0  0  0  0  2  0  0  0  0  0  0
  1  2  1  0  0  0  0
  1 19  1  1  0  0  0
  3  5  1  0  0  0  0
  4  1  1  0  0  0  0
  5  7  1  1  0  0  0
  5  2  1  0  0  0  0
  6  3  2  0  0  0  0
  6  4  1  0  0  0  0
  7  8  1  0  0  0  0
  9  7  1  0  0  0  0
 10 12  1  1  0  0  0
 10 15  1  0  0  0  0
 11 14  1  0  0  0  0
 11 10  1  0  0  0  0
 13 17  1  0  0  0  0
 13  9  1  1  0  0  0
 14 16  2  0  0  0  0
 15 17  1  0  0  0  0
 16 13  1  0  0  0  0
 19 18  1  1  0  0  0
 21 25  1  0  0  0  0
 21 27  1  0  0  0  0
 22 28  1  6  0  0  0
 22 24  1  0  0  0  0
 22 25  1  0  0  0  0
 23 24  1  0  0  0  0
 23 27  1  0  0  0  0
 24 20  1  1  0  0  0
 25 19  1  6  0  0  0
 27 26  2  0  0  0  0
 29 30  1  0  0  0  0
 30 28  1  0  0  0  0
M  END
>  <MODEL>
7

>  <REMARK>
 VINA RESULT:      -7.0      4.180      9.392
  Name = 
  7 active torsions:
  status: ('A' for Active; 'I' for Inactive)
    1  A    between atoms: C_3  and  N_11
    2  A    between atoms: C_3  and  C_19
    3  A    between atoms: C_4  and  C_8
    4  A    between atoms: C_4  and  C_23
    5  A    between atoms: C_7  and  C_30
    6  A    between atoms: N_11  and  C_25
    7  A    between atoms: C_13  and  C_30
                            x       y       z     vdW  Elec       q    Type
                         _______ _______ _______ _____ _____    ______ ____

>  <TORSDO>
F 7

$$$$
=
 OpenBabel11052421533D

 30 32  0  0  1  0  0  0  0  0999 V2000
  160.8520  209.3850  152.9380 C   0  0  2  0  0  3  0  0  0  0  0  0
  160.6060  208.6810  151.6780 N   0  0  0  0  0  2  0  0  0  0  0  0
  161.5250  206.6620  152.7590 C   0  0  0  0  0  3  0  0  0  0  0  0
  160.4580  208.4660  154.1000 C   0  0  0  0  0  2  0  0  0  0  0  0
  161.5880  207.5930  151.5710 C   0  0  1  0  0  3  0  0  0  0  0  0
  161.0440  207.0870  153.9360 C   0  0  0  0  0  3  0  0  0  0  0  0
  161.4610  206.8480  150.3100 N   0  0  0  0  0  0  0  0  0  0  0  0
  162.3340  207.4150  149.2880 C   0  0  0  0  0  1  0  0  0  0  0  0
  161.8890  205.4740  150.5350 C   0  0  0  0  0  2  0  0  0  0  0  0
  161.3650  202.1710  147.7940 C   0  0  1  0  0  3  0  0  0  0  0  0
  160.2820  201.7500  148.7910 C   0  0  0  0  0  2  0  0  0  0  0  0
  160.8130  202.0790  146.3870 C   0  0  0  0  0  1  0  0  0  0  0  0
  160.8340  204.4990  150.0300 C   0  0  2  0  0  3  0  0  0  0  0  0
  160.7260  201.9550  150.2080 C   0  0  0  0  0  3  0  0  0  0  0  0
  161.8910  203.5860  148.0520 C   0  0  0  0  0  2  0  0  0  0  0  0
  160.9790  203.1630  150.7360 C   0  0  0  0  0  3  0  0  0  0  0  0
  160.8230  204.4460  148.5590 N   0  0  0  0  0  2  0  0  0  0  0  0
  160.4520  211.5300  151.9410 O   0  0  0  0  0  1  0  0  0  0  0  0
  160.0600  210.6990  152.9960 C   0  0  2  0  0  3  0  0  0  0  0  0
  159.8970  214.0160  155.7670 O   0  0  0  0  0  1  0  0  0  0  0  0
  161.1120  210.6360  155.3320 C   0  0  0  0  0  2  0  0  0  0  0  0
  158.9730  211.9460  154.9680 C   0  0  1  0  0  3  0  0  0  0  0  0
  160.1660  212.1180  157.2140 C   0  0  0  0  0  2  0  0  0  0  0  0
  159.2840  212.8320  156.1820 C   0  0  1  0  0  3  0  0  0  0  0  0
  160.2840  211.4400  154.3240 C   0  0  2  0  0  3  0  0  0  0  0  0
  162.4100  211.2640  157.2480 N   0  0  0  0  0  2  0  0  0  0  0  0
  161.3450  211.4560  156.5630 C   0  0  0  0  0  0  0  0  0  0  0  0
  158.0320  210.8110  155.3800 C   0  0  0  0  0  2  0  0  0  0  0  0
  155.5650  210.4450  155.3730 C   0  0  0  0  0  1  0  0  0  0  0  0
  156.6900  211.3390  155.8590 C   0  0  0  0  0  2  0  0  0  0  0  0
  1 19  1  6  0  0  0
  1  4  1  0  0  0  0
  2  1  1  0  0  0  0
  3  6  2  0  0  0  0
  5  7  1  6  0  0  0
  5  2  1  0  0  0  0
  5  3  1  0  0  0  0
  6  4  1  0  0  0  0
  7  9  1  0  0  0  0
  8  7  1  0  0  0  0
 10 12  1  6  0  0  0
 10 15  1  0  0  0  0
 10 11  1  0  0  0  0
 11 14  1  0  0  0  0
 13  9  1  6  0  0  0
 13 16  1  0  0  0  0
 14 16  2  0  0  0  0
 15 17  1  0  0  0  0
 17 13  1  0  0  0  0
 19 18  1  6  0  0  0
 21 27  1  0  0  0  0
 22 28  1  1  0  0  0
 22 24  1  0  0  0  0
 24 20  1  6  0  0  0
 24 23  1  0  0  0  0
 25 19  1  6  0  0  0
 25 22  1  0  0  0  0
 25 21  1  0  0  0  0
 27 23  1  0  0  0  0
 27 26  2  0  0  0  0
 28 30  1  0  0  0  0
 29 30  1  0  0  0  0
M  END
>  <MODEL>
8

>  <REMARK>
 VINA RESULT:      -7.0      3.570      9.602
  Name = 
  7 active torsions:
  status: ('A' for Active; 'I' for Inactive)
    1  A    between atoms: C_3  and  N_11
    2  A    between atoms: C_3  and  C_19
    3  A    between atoms: C_4  and  C_8
    4  A    between atoms: C_4  and  C_23
    5  A    between atoms: C_7  and  C_30
    6  A    between atoms: N_11  and  C_25
    7  A    between atoms: C_13  and  C_30
                            x       y       z     vdW  Elec       q    Type
                         _______ _______ _______ _____ _____    ______ ____

>  <TORSDO>
F 7

$$$$
=
 OpenBabel11052421533D

 30 32  0  0  1  0  0  0  0  0999 V2000
  160.8470  206.3450  150.6850 C   0  0  2  0  0  3  0  0  0  0  0  0
  161.7340  207.2330  149.9300 N   0  0  0  0  0  2  0  0  0  0  0  0
  161.7020  208.7390  151.8850 C   0  0  0  0  0  3  0  0  0  0  0  0
  161.3260  206.2930  152.1400 C   0  0  0  0  0  2  0  0  0  0  0  0
  161.4970  208.6070  150.3950 C   0  0  1  0  0  3  0  0  0  0  0  0
  161.5750  207.6740  152.6900 C   0  0  0  0  0  3  0  0  0  0  0  0
  162.3050  209.5920  149.6620 N   0  0  0  0  0  0  0  0  0  0  0  0
  162.6080  209.1110  148.3180 C   0  0  0  0  0  1  0  0  0  0  0  0
  161.5330  210.8180  149.5210 C   0  0  0  0  0  2  0  0  0  0  0  0
  160.4580  214.2620  147.1400 C   0  0  1  0  0  3  0  0  0  0  0  0
  161.9000  214.1420  146.6380 C   0  0  0  0  0  2  0  0  0  0  0  0
  159.5300  214.4470  145.9560 C   0  0  0  0  0  1  0  0  0  0  0  0
  161.8610  211.5060  148.2030 C   0  0  2  0  0  3  0  0  0  0  0  0
  162.8460  213.8180  147.7540 C   0  0  0  0  0  3  0  0  0  0  0  0
  160.0120  213.0500  147.9620 C   0  0  0  0  0  2  0  0  0  0  0  0
  162.8110  212.6660  148.4430 C   0  0  0  0  0  3  0  0  0  0  0  0
  160.6350  211.8290  147.4560 N   0  0  0  0  0  2  0  0  0  0  0  0
  161.6870  204.1000  150.7920 O   0  0  0  0  0  1  0  0  0  0  0  0
  160.8280  204.9380  150.0710 C   0  0  2  0  0  3  0  0  0  0  0  0
  163.5040  204.3690  146.7210 O   0  0  0  0  0  1  0  0  0  0  0  0
  160.2370  205.6000  147.6670 C   0  0  0  0  0  2  0  0  0  0  0  0
  161.6870  203.5620  148.0720 C   0  0  1  0  0  3  0  0  0  0  0  0
  161.3380  204.3810  145.6840 C   0  0  0  0  0  2  0  0  0  0  0  0
  162.2890  203.6850  146.6660 C   0  0  1  0  0  3  0  0  0  0  0  0
  161.2680  204.9540  148.5980 C   0  0  2  0  0  3  0  0  0  0  0  0
  160.3960  206.5810  145.4850 N   0  0  0  0  0  2  0  0  0  0  0  0
  160.7730  205.6420  146.2700 C   0  0  0  0  0  0  0  0  0  0  0  0
  160.5350  202.5550  148.0600 C   0  0  0  0  0  2  0  0  0  0  0  0
  160.9300  201.0230  149.9880 C   0  0  0  0  0  1  0  0  0  0  0  0
  160.9950  201.1690  148.4790 C   0  0  0  0  0  2  0  0  0  0  0  0
  1 19  1  6  0  0  0
  1  4  1  0  0  0  0
  2  5  1  0  0  0  0
  2  1  1  0  0  0  0
  3  6  2  0  0  0  0
  4  6  1  0  0  0  0
  5  7  1  6  0  0  0
  5  3  1  0  0  0  0
  8  7  1  0  0  0  0
  9  7  1  0  0  0  0
 10 12  1  6  0  0  0
 10 15  1  0  0  0  0
 11 10  1  0  0  0  0
 11 14  1  0  0  0  0
 13 16  1  0  0  0  0
 13  9  1  1  0  0  0
 14 16  2  0  0  0  0
 17 15  1  0  0  0  0
 17 13  1  0  0  0  0
 19 18  1  1  0  0  0
 21 25  1  0  0  0  0
 22 28  1  6  0  0  0
 22 25  1  0  0  0  0
 23 27  1  0  0  0  0
 23 24  1  0  0  0  0
 24 20  1  1  0  0  0
 24 22  1  0  0  0  0
 25 19  1  1  0  0  0
 26 27  2  0  0  0  0
 27 21  1  0  0  0  0
 28 30  1  0  0  0  0
 30 29  1  0  0  0  0
M  END
>  <MODEL>
9

>  <REMARK>
 VINA RESULT:      -6.8      3.887      5.445
  Name = 
  7 active torsions:
  status: ('A' for Active; 'I' for Inactive)
    1  A    between atoms: C_3  and  N_11
    2  A    between atoms: C_3  and  C_19
    3  A    between atoms: C_4  and  C_8
    4  A    between atoms: C_4  and  C_23
    5  A    between atoms: C_7  and  C_30
    6  A    between atoms: N_11  and  C_25
    7  A    between atoms: C_13  and  C_30
                            x       y       z     vdW  Elec       q    Type
                         _______ _______ _______ _____ _____    ______ ____

>  <TORSDO>
F 7

$$$$
