=
 OpenBabel11052423143D

 27 28  0  0  1  0  0  0  0  0999 V2000
  161.3920  204.9020  148.7500 C   0  0  1  0  0  3  0  0  0  0  0  0
  161.6640  205.4680  144.4920 C   0  0  0  0  0  3  0  0  0  0  0  0
  161.4760  205.1230  147.2670 C   0  0  0  0  0  0  0  0  0  0  0  0
  160.4460  205.7630  146.5620 C   0  0  0  0  0  3  0  0  0  0  0  0
  160.5400  205.9350  145.1780 C   0  0  0  0  0  3  0  0  0  0  0  0
  162.6930  204.8280  145.1890 C   0  0  0  0  0  3  0  0  0  0  0  0
  162.5990  204.6560  146.5730 C   0  0  0  0  0  3  0  0  0  0  0  0
  160.9610  206.0880  149.4950 N   0  0  0  0  0  0  0  0  0  0  0  0
  159.6030  206.2690  149.7910 N   0  0  0  0  0  1  0  0  0  0  0  0
  162.6540  208.8910  148.2270 O   0  0  0  0  0  0  0  0  0  0  0  0
  161.9080  207.1010  149.8840 C   0  0  0  0  0  0  0  0  0  0  0  0
  162.2920  208.0230  149.0310 C   0  0  0  0  0  0  0  0  0  0  0  0
  161.5220  206.0020  153.2940 C   0  0  0  0  0  3  0  0  0  0  0  0
  160.7150  208.1180  154.2790 C   0  0  0  0  0  2  0  0  0  0  0  0
  161.8020  208.0830  152.1190 N   0  0  0  0  0  0  0  0  0  0  0  0
  161.9520  209.5190  151.9410 C   0  0  0  0  0  1  0  0  0  0  0  0
  161.2760  207.4590  153.2740 C   0  0  0  0  0  0  0  0  0  0  0  0
  162.4650  207.0970  151.2840 C   0  0  1  0  0  3  0  0  0  0  0  0
  162.2480  205.7390  151.9700 C   0  0  0  0  0  3  0  0  0  0  0  0
  160.7390  203.5950  149.2420 C   0  0  0  0  0  2  0  0  0  0  0  0
  161.2050  202.2730  148.6130 C   0  0  2  0  0  3  0  0  0  0  0  0
  160.2220  201.7750  147.5590 C   0  0  0  0  0  2  0  0  0  0  0  0
  160.0900  201.8360  145.0700 C   0  0  0  0  0  1  0  0  0  0  0  0
  160.9280  201.4170  146.2630 C   0  0  0  0  0  2  0  0  0  0  0  0
  161.4660  201.2550  149.6190 N   0  0  0  0  0  2  0  0  0  0  0  0
  161.9760  202.0380  151.7470 O   0  0  0  0  0  1  0  0  0  0  0  0
  160.9280  201.7490  150.8750 C   0  0  0  0  0  2  0  0  0  0  0  0
  1 20  1  6  0  0  0
  1  8  1  0  0  0  0
  2  5  2  0  0  0  0
  2  6  1  0  0  0  0
  3  1  1  0  0  0  0
  4  3  2  0  0  0  0
  5  4  1  0  0  0  0
  6  7  2  0  0  0  0
  7  3  1  0  0  0  0
  8  9  1  0  0  0  0
  8 11  1  0  0  0  0
 10 12  2  0  0  0  0
 12 11  2  0  0  0  0
 15 17  1  0  0  0  0
 16 15  1  0  0  0  0
 17 13  1  0  0  0  0
 17 14  2  0  0  0  0
 18 11  1  6  0  0  0
 18 19  1  0  0  0  0
 18 15  1  0  0  0  0
 19 13  2  0  0  0  0
 21 22  1  6  0  0  0
 21 20  1  0  0  0  0
 21 25  1  0  0  0  0
 23 24  1  0  0  0  0
 24 22  1  0  0  0  0
 25 27  1  0  0  0  0
 27 26  1  0  0  0  0
M  END
>  <MODEL>
1

>  <REMARK>
 VINA RESULT:      -6.5      0.000      0.000
  Name = 
  10 active torsions:
  status: ('A' for Active; 'I' for Inactive)
    1  A    between atoms: C_1  and  C_15
    2  A    between atoms: C_1  and  C_18
    3  A    between atoms: N_2  and  C_14
    4  A    between atoms: N_2  and  C_15
    5  A    between atoms: C_9  and  C_15
    6  A    between atoms: C_14  and  C_17
    7  A    between atoms: C_18  and  C_24
    8  A    between atoms: C_18  and  N_26
    9  A    between atoms: C_20  and  N_26
   10  A    between atoms: C_22  and  C_24
                            x       y       z     vdW  Elec       q    Type
                         _______ _______ _______ _____ _____    ______ ____

>  <TORSDO>
F 10

$$$$
=
 OpenBabel11052423143D

 27 28  0  0  1  0  0  0  0  0999 V2000
  160.7880  206.4510  150.8670 C   0  0  1  0  0  3  0  0  0  0  0  0
  160.9440  202.1560  150.6430 C   0  0  0  0  0  3  0  0  0  0  0  0
  160.8570  204.9540  150.7680 C   0  0  0  0  0  0  0  0  0  0  0  0
  160.7600  204.2980  149.5320 C   0  0  0  0  0  3  0  0  0  0  0  0
  160.8040  202.9020  149.4700 C   0  0  0  0  0  3  0  0  0  0  0  0
  161.0400  202.8060  151.8780 C   0  0  0  0  0  3  0  0  0  0  0  0
  160.9950  204.2010  151.9390 C   0  0  0  0  0  3  0  0  0  0  0  0
  161.6910  207.0120  151.8770 N   0  0  0  0  0  0  0  0  0  0  0  0
  163.0230  206.5770  151.9390 N   0  0  0  0  0  1  0  0  0  0  0  0
  160.0140  210.0890  152.0920 O   0  0  0  0  0  0  0  0  0  0  0  0
  161.2180  207.9690  152.8420 C   0  0  0  0  0  0  0  0  0  0  0  0
  160.5980  209.0610  152.4560 C   0  0  0  0  0  0  0  0  0  0  0  0
  159.7360  207.3580  156.0690 C   0  0  0  0  0  3  0  0  0  0  0  0
  160.0210  209.6100  157.0440 C   0  0  0  0  0  2  0  0  0  0  0  0
  161.2720  208.9290  155.0890 N   0  0  0  0  0  0  0  0  0  0  0  0
  162.1890  210.0570  155.0280 C   0  0  0  0  0  1  0  0  0  0  0  0
  160.3080  208.7200  156.1020 C   0  0  0  0  0  0  0  0  0  0  0  0
  161.4410  207.7150  154.3110 C   0  0  1  0  0  3  0  0  0  0  0  0
  160.4240  206.7050  154.8660 C   0  0  0  0  0  3  0  0  0  0  0  0
  160.7590  207.2550  149.5520 C   0  0  0  0  0  2  0  0  0  0  0  0
  162.0780  207.8540  149.0420 C   0  0  2  0  0  3  0  0  0  0  0  0
  161.8750  209.2540  148.4730 C   0  0  0  0  0  2  0  0  0  0  0  0
  162.0150  211.7070  148.9010 C   0  0  0  0  0  1  0  0  0  0  0  0
  162.2550  210.3260  149.4820 C   0  0  0  0  0  2  0  0  0  0  0  0
  162.7360  206.9810  148.0820 N   0  0  0  0  0  2  0  0  0  0  0  0
  162.3570  206.0120  146.0040 O   0  0  0  0  0  1  0  0  0  0  0  0
  161.7310  206.5800  147.1120 C   0  0  0  0  0  2  0  0  0  0  0  0
  1 20  1  6  0  0  0
  1  8  1  0  0  0  0
  2  6  1  0  0  0  0
  3  1  1  0  0  0  0
  3  7  1  0  0  0  0
  4  3  2  0  0  0  0
  5  4  1  0  0  0  0
  5  2  2  0  0  0  0
  6  7  2  0  0  0  0
  8  9  1  0  0  0  0
  8 11  1  0  0  0  0
 10 12  2  0  0  0  0
 12 11  2  0  0  0  0
 13 17  1  0  0  0  0
 15 17  1  0  0  0  0
 16 15  1  0  0  0  0
 17 14  2  0  0  0  0
 18 11  1  6  0  0  0
 18 19  1  0  0  0  0
 18 15  1  0  0  0  0
 19 13  2  0  0  0  0
 21 22  1  6  0  0  0
 21 20  1  0  0  0  0
 22 24  1  0  0  0  0
 23 24  1  0  0  0  0
 25 21  1  0  0  0  0
 26 27  1  0  0  0  0
 27 25  1  0  0  0  0
M  END
>  <MODEL>
2

>  <REMARK>
 VINA RESULT:      -6.4      2.749      5.362
  Name = 
  10 active torsions:
  status: ('A' for Active; 'I' for Inactive)
    1  A    between atoms: C_1  and  C_15
    2  A    between atoms: C_1  and  C_18
    3  A    between atoms: N_2  and  C_14
    4  A    between atoms: N_2  and  C_15
    5  A    between atoms: C_9  and  C_15
    6  A    between atoms: C_14  and  C_17
    7  A    between atoms: C_18  and  C_24
    8  A    between atoms: C_18  and  N_26
    9  A    between atoms: C_20  and  N_26
   10  A    between atoms: C_22  and  C_24
                            x       y       z     vdW  Elec       q    Type
                         _______ _______ _______ _____ _____    ______ ____

>  <TORSDO>
F 10

$$$$
=
 OpenBabel11052423143D

 27 28  0  0  1  0  0  0  0  0999 V2000
  161.9120  204.9640  148.4100 C   0  0  1  0  0  3  0  0  0  0  0  0
  161.1960  205.8950  144.2700 C   0  0  0  0  0  3  0  0  0  0  0  0
  161.6520  205.3110  146.9720 C   0  0  0  0  0  0  0  0  0  0  0  0
  160.4620  205.9400  146.5750 C   0  0  0  0  0  3  0  0  0  0  0  0
  160.2360  206.2310  145.2270 C   0  0  0  0  0  3  0  0  0  0  0  0
  162.3830  205.2670  144.6610 C   0  0  0  0  0  3  0  0  0  0  0  0
  162.6090  204.9750  146.0080 C   0  0  0  0  0  3  0  0  0  0  0  0
  161.2400  205.8570  149.3590 N   0  0  0  0  0  0  0  0  0  0  0  0
  159.9180  205.5920  149.7470 N   0  0  0  0  0  1  0  0  0  0  0  0
  162.1530  209.1070  148.3960 O   0  0  0  0  0  0  0  0  0  0  0  0
  161.8980  207.0340  149.8600 C   0  0  0  0  0  0  0  0  0  0  0  0
  162.0300  208.1020  149.1070 C   0  0  0  0  0  0  0  0  0  0  0  0
  161.5100  205.9200  153.2650 C   0  0  0  0  0  3  0  0  0  0  0  0
  160.6590  208.0190  154.2500 C   0  0  0  0  0  2  0  0  0  0  0  0
  161.7610  208.0090  152.0970 N   0  0  0  0  0  0  0  0  0  0  0  0
  161.8860  209.4480  151.9240 C   0  0  0  0  0  1  0  0  0  0  0  0
  161.2380  207.3720  153.2470 C   0  0  0  0  0  0  0  0  0  0  0  0
  162.4460  207.0370  151.2640 C   0  0  1  0  0  3  0  0  0  0  0  0
  162.2500  205.6730  151.9460 C   0  0  0  0  0  3  0  0  0  0  0  0
  161.8450  203.4770  148.8100 C   0  0  0  0  0  2  0  0  0  0  0  0
  160.7490  202.6070  148.1760 C   0  0  2  0  0  3  0  0  0  0  0  0
  159.9810  201.8150  149.2290 C   0  0  0  0  0  2  0  0  0  0  0  0
  160.9020  202.3870  151.4750 C   0  0  0  0  0  1  0  0  0  0  0  0
  160.8910  201.3600  150.3570 C   0  0  0  0  0  2  0  0  0  0  0  0
  161.2800  201.7350  147.1390 N   0  0  0  0  0  2  0  0  0  0  0  0
  160.2770  200.9230  145.2070 O   0  0  0  0  0  1  0  0  0  0  0  0
  160.6060  202.0850  145.9010 C   0  0  0  0  0  2  0  0  0  0  0  0
  1 20  1  6  0  0  0
  1  8  1  0  0  0  0
  2  6  2  0  0  0  0
  2  5  1  0  0  0  0
  3  1  1  0  0  0  0
  4  3  1  0  0  0  0
  5  4  2  0  0  0  0
  6  7  1  0  0  0  0
  7  3  2  0  0  0  0
  8  9  1  0  0  0  0
  8 11  1  0  0  0  0
 10 12  2  0  0  0  0
 12 11  2  0  0  0  0
 15 17  1  0  0  0  0
 16 15  1  0  0  0  0
 17 13  1  0  0  0  0
 17 14  2  0  0  0  0
 18 11  1  6  0  0  0
 18 19  1  0  0  0  0
 18 15  1  0  0  0  0
 19 13  2  0  0  0  0
 21 20  1  1  0  0  0
 21 22  1  0  0  0  0
 22 24  1  0  0  0  0
 24 23  1  0  0  0  0
 25 21  1  0  0  0  0
 26 27  1  0  0  0  0
 27 25  1  0  0  0  0
M  END
>  <MODEL>
3

>  <REMARK>
 VINA RESULT:      -6.2      1.522      2.319
  Name = 
  10 active torsions:
  status: ('A' for Active; 'I' for Inactive)
    1  A    between atoms: C_1  and  C_15
    2  A    between atoms: C_1  and  C_18
    3  A    between atoms: N_2  and  C_14
    4  A    between atoms: N_2  and  C_15
    5  A    between atoms: C_9  and  C_15
    6  A    between atoms: C_14  and  C_17
    7  A    between atoms: C_18  and  C_24
    8  A    between atoms: C_18  and  N_26
    9  A    between atoms: C_20  and  N_26
   10  A    between atoms: C_22  and  C_24
                            x       y       z     vdW  Elec       q    Type
                         _______ _______ _______ _____ _____    ______ ____

>  <TORSDO>
F 10

$$$$
=
 OpenBabel11052423143D

 27 28  0  0  1  0  0  0  0  0999 V2000
  161.5290  205.6020  148.9080 C   0  0  1  0  0  3  0  0  0  0  0  0
  161.5350  205.6250  144.6050 C   0  0  0  0  0  3  0  0  0  0  0  0
  161.5170  205.6320  147.4070 C   0  0  0  0  0  0  0  0  0  0  0  0
  160.3800  206.0350  146.6920 C   0  0  0  0  0  3  0  0  0  0  0  0
  160.3900  206.0320  145.2940 C   0  0  0  0  0  3  0  0  0  0  0  0
  162.6710  205.2210  145.3130 C   0  0  0  0  0  3  0  0  0  0  0  0
  162.6610  205.2230  146.7100 C   0  0  0  0  0  3  0  0  0  0  0  0
  161.5340  206.9340  149.5200 N   0  0  0  0  0  0  0  0  0  0  0  0
  161.4240  208.0730  148.7100 N   0  0  0  0  0  1  0  0  0  0  0  0
  163.4460  205.7320  152.2080 O   0  0  0  0  0  0  0  0  0  0  0  0
  161.7010  207.0940  150.9410 C   0  0  0  0  0  0  0  0  0  0  0  0
  162.6000  206.3930  151.5940 C   0  0  0  0  0  0  0  0  0  0  0  0
  161.4910  210.2450  152.6760 C   0  0  0  0  0  3  0  0  0  0  0  0
  161.4540  209.3930  154.9940 C   0  0  0  0  0  2  0  0  0  0  0  0
  160.9880  207.9340  153.1220 N   0  0  0  0  0  0  0  0  0  0  0  0
  160.5230  206.7780  153.8730 C   0  0  0  0  0  1  0  0  0  0  0  0
  161.3510  209.1790  153.6890 C   0  0  0  0  0  0  0  0  0  0  0  0
  160.8320  208.0740  151.6850 C   0  0  1  0  0  3  0  0  0  0  0  0
  161.2110  209.5260  151.3520 C   0  0  0  0  0  3  0  0  0  0  0  0
  160.5860  204.6040  149.6110 C   0  0  0  0  0  2  0  0  0  0  0  0
  160.9040  203.1060  149.4960 C   0  0  2  0  0  3  0  0  0  0  0  0
  160.1900  202.4690  148.3090 C   0  0  0  0  0  2  0  0  0  0  0  0
  160.7780  202.0520  145.9220 C   0  0  0  0  0  1  0  0  0  0  0  0
  161.1720  201.7960  147.3650 C   0  0  0  0  0  2  0  0  0  0  0  0
  160.6180  202.3940  150.7320 N   0  0  0  0  0  2  0  0  0  0  0  0
  160.7130  203.5490  152.7470 O   0  0  0  0  0  1  0  0  0  0  0  0
  161.4870  202.9500  151.7560 C   0  0  0  0  0  2  0  0  0  0  0  0
  1  8  1  0  0  0  0
  1 20  1  1  0  0  0
  2  5  2  0  0  0  0
  2  6  1  0  0  0  0
  3  1  1  0  0  0  0
  4  3  2  0  0  0  0
  5  4  1  0  0  0  0
  6  7  2  0  0  0  0
  7  3  1  0  0  0  0
  8 11  1  0  0  0  0
  9  8  1  0  0  0  0
 11 12  2  0  0  0  0
 12 10  2  0  0  0  0
 13 17  1  0  0  0  0
 15 17  1  0  0  0  0
 15 16  1  0  0  0  0
 17 14  2  0  0  0  0
 18 11  1  6  0  0  0
 18 15  1  0  0  0  0
 19 18  1  0  0  0  0
 19 13  2  0  0  0  0
 21 22  1  6  0  0  0
 21 20  1  0  0  0  0
 21 25  1  0  0  0  0
 23 24  1  0  0  0  0
 24 22  1  0  0  0  0
 25 27  1  0  0  0  0
 27 26  1  0  0  0  0
M  END
>  <MODEL>
4

>  <REMARK>
 VINA RESULT:      -6.0      1.531      2.135
  Name = 
  10 active torsions:
  status: ('A' for Active; 'I' for Inactive)
    1  A    between atoms: C_1  and  C_15
    2  A    between atoms: C_1  and  C_18
    3  A    between atoms: N_2  and  C_14
    4  A    between atoms: N_2  and  C_15
    5  A    between atoms: C_9  and  C_15
    6  A    between atoms: C_14  and  C_17
    7  A    between atoms: C_18  and  C_24
    8  A    between atoms: C_18  and  N_26
    9  A    between atoms: C_20  and  N_26
   10  A    between atoms: C_22  and  C_24
                            x       y       z     vdW  Elec       q    Type
                         _______ _______ _______ _____ _____    ______ ____

>  <TORSDO>
F 10

$$$$
=
 OpenBabel11052423143D

 27 28  0  0  1  0  0  0  0  0999 V2000
  161.4180  206.3170  150.9710 C   0  0  1  0  0  3  0  0  0  0  0  0
  160.6850  202.0980  150.5490 C   0  0  0  0  0  3  0  0  0  0  0  0
  161.1470  204.8450  150.8440 C   0  0  0  0  0  0  0  0  0  0  0  0
  161.0540  204.0180  151.9730 C   0  0  0  0  0  3  0  0  0  0  0  0
  160.8240  202.6480  151.8250 C   0  0  0  0  0  3  0  0  0  0  0  0
  160.7770  202.9170  149.4200 C   0  0  0  0  0  3  0  0  0  0  0  0
  161.0090  204.2870  149.5680 C   0  0  0  0  0  3  0  0  0  0  0  0
  161.9740  206.7000  152.2720 N   0  0  0  0  0  0  0  0  0  0  0  0
  163.1140  206.0460  152.7610 N   0  0  0  0  0  1  0  0  0  0  0  0
  160.1060  209.6600  152.0020 O   0  0  0  0  0  0  0  0  0  0  0  0
  161.3360  207.7040  153.0820 C   0  0  0  0  0  0  0  0  0  0  0  0
  160.7030  208.7110  152.5270 C   0  0  0  0  0  0  0  0  0  0  0  0
  159.5160  207.4700  156.1830 C   0  0  0  0  0  3  0  0  0  0  0  0
  159.7840  209.8020  156.9510 C   0  0  0  0  0  2  0  0  0  0  0  0
  161.2000  208.8900  155.2140 N   0  0  0  0  0  0  0  0  0  0  0  0
  162.1580  209.9810  155.1360 C   0  0  0  0  0  1  0  0  0  0  0  0
  160.1310  208.8120  156.1380 C   0  0  0  0  0  0  0  0  0  0  0  0
  161.4020  207.5980  154.5840 C   0  0  1  0  0  3  0  0  0  0  0  0
  160.2980  206.6770  155.1300 C   0  0  0  0  0  3  0  0  0  0  0  0
  162.0940  207.0250  149.7800 C   0  0  0  0  0  2  0  0  0  0  0  0
  161.1930  207.6610  148.7110 C   0  0  2  0  0  3  0  0  0  0  0  0
  161.0200  206.7440  147.5040 C   0  0  0  0  0  2  0  0  0  0  0  0
  162.1550  205.0320  146.0910 C   0  0  0  0  0  1  0  0  0  0  0  0
  162.3580  206.2310  146.9990 C   0  0  0  0  0  2  0  0  0  0  0  0
  161.6670  208.9770  148.3140 N   0  0  0  0  0  2  0  0  0  0  0  0
  162.0840  210.9720  149.4300 O   0  0  0  0  0  1  0  0  0  0  0  0
  162.2570  209.5910  149.4910 C   0  0  0  0  0  2  0  0  0  0  0  0
  1 20  1  6  0  0  0
  1  8  1  0  0  0  0
  2  5  1  0  0  0  0
  3  1  1  0  0  0  0
  3  4  1  0  0  0  0
  5  4  2  0  0  0  0
  6  7  1  0  0  0  0
  6  2  2  0  0  0  0
  7  3  2  0  0  0  0
  8  9  1  0  0  0  0
  8 11  1  0  0  0  0
 10 12  2  0  0  0  0
 12 11  2  0  0  0  0
 15 17  1  0  0  0  0
 16 15  1  0  0  0  0
 17 13  1  0  0  0  0
 17 14  2  0  0  0  0
 18 11  1  6  0  0  0
 18 19  1  0  0  0  0
 18 15  1  0  0  0  0
 19 13  2  0  0  0  0
 21 22  1  6  0  0  0
 21 20  1  0  0  0  0
 23 24  1  0  0  0  0
 24 22  1  0  0  0  0
 25 21  1  0  0  0  0
 25 27  1  0  0  0  0
 26 27  1  0  0  0  0
M  END
>  <MODEL>
5

>  <REMARK>
 VINA RESULT:      -5.8      2.633      5.009
  Name = 
  10 active torsions:
  status: ('A' for Active; 'I' for Inactive)
    1  A    between atoms: C_1  and  C_15
    2  A    between atoms: C_1  and  C_18
    3  A    between atoms: N_2  and  C_14
    4  A    between atoms: N_2  and  C_15
    5  A    between atoms: C_9  and  C_15
    6  A    between atoms: C_14  and  C_17
    7  A    between atoms: C_18  and  C_24
    8  A    between atoms: C_18  and  N_26
    9  A    between atoms: C_20  and  N_26
   10  A    between atoms: C_22  and  C_24
                            x       y       z     vdW  Elec       q    Type
                         _______ _______ _______ _____ _____    ______ ____

>  <TORSDO>
F 10

$$$$
=
 OpenBabel11052423143D

 27 28  0  0  1  0  0  0  0  0999 V2000
  160.9480  204.6940  148.6590 C   0  0  1  0  0  3  0  0  0  0  0  0
  161.0500  201.0020  150.8680 C   0  0  0  0  0  3  0  0  0  0  0  0
  160.9700  203.4160  149.4490 C   0  0  0  0  0  0  0  0  0  0  0  0
  161.1700  203.4190  150.8370 C   0  0  0  0  0  3  0  0  0  0  0  0
  161.2090  202.2140  151.5450 C   0  0  0  0  0  3  0  0  0  0  0  0
  160.8520  200.9940  149.4840 C   0  0  0  0  0  3  0  0  0  0  0  0
  160.8130  202.1990  148.7770 C   0  0  0  0  0  3  0  0  0  0  0  0
  160.7960  205.8920  149.4880 N   0  0  0  0  0  0  0  0  0  0  0  0
  159.5710  206.1500  150.1210 N   0  0  0  0  0  1  0  0  0  0  0  0
  162.7570  208.1020  147.5910 O   0  0  0  0  0  0  0  0  0  0  0  0
  161.8710  206.8390  149.6230 C   0  0  0  0  0  0  0  0  0  0  0  0
  162.3270  207.4900  148.5770 C   0  0  0  0  0  0  0  0  0  0  0  0
  161.6310  206.3430  153.1840 C   0  0  0  0  0  3  0  0  0  0  0  0
  160.8330  208.5910  153.8220 C   0  0  0  0  0  2  0  0  0  0  0  0
  161.8370  208.1920  151.6580 N   0  0  0  0  0  0  0  0  0  0  0  0
  161.9600  209.5770  151.2300 C   0  0  0  0  0  1  0  0  0  0  0  0
  161.3640  207.7720  152.9240 C   0  0  0  0  0  0  0  0  0  0  0  0
  162.4810  207.0820  150.9790 C   0  0  1  0  0  3  0  0  0  0  0  0
  162.3100  205.8610  151.8980 C   0  0  0  0  0  3  0  0  0  0  0  0
  161.9840  204.8530  147.5280 C   0  0  0  0  0  2  0  0  0  0  0  0
  161.5200  204.6120  146.0840 C   0  0  2  0  0  3  0  0  0  0  0  0
  161.5840  203.1350  145.7130 C   0  0  0  0  0  2  0  0  0  0  0  0
  160.1300  201.1590  145.2620 C   0  0  0  0  0  1  0  0  0  0  0  0
  160.2800  202.6590  145.0930 C   0  0  0  0  0  2  0  0  0  0  0  0
  162.2580  205.4300  145.1330 N   0  0  0  0  0  2  0  0  0  0  0  0
  160.0800  206.2030  144.8850 O   0  0  0  0  0  1  0  0  0  0  0  0
  161.2850  205.9990  144.2160 C   0  0  0  0  0  2  0  0  0  0  0  0
  1 20  1  1  0  0  0
  1  3  1  0  0  0  0
  1  8  1  0  0  0  0
  2  5  1  0  0  0  0
  3  4  1  0  0  0  0
  4  5  2  0  0  0  0
  6  2  2  0  0  0  0
  7  3  2  0  0  0  0
  7  6  1  0  0  0  0
  8 11  1  0  0  0  0
  8  9  1  0  0  0  0
 10 12  2  0  0  0  0
 12 11  2  0  0  0  0
 15 17  1  0  0  0  0
 16 15  1  0  0  0  0
 17 13  1  0  0  0  0
 17 14  2  0  0  0  0
 18 11  1  6  0  0  0
 18 15  1  0  0  0  0
 18 19  1  0  0  0  0
 19 13  2  0  0  0  0
 21 22  1  6  0  0  0
 21 20  1  0  0  0  0
 24 23  1  0  0  0  0
 24 22  1  0  0  0  0
 25 21  1  0  0  0  0
 27 26  1  0  0  0  0
 27 25  1  0  0  0  0
M  END
>  <MODEL>
6

>  <REMARK>
 VINA RESULT:      -5.6      1.867      3.850
  Name = 
  10 active torsions:
  status: ('A' for Active; 'I' for Inactive)
    1  A    between atoms: C_1  and  C_15
    2  A    between atoms: C_1  and  C_18
    3  A    between atoms: N_2  and  C_14
    4  A    between atoms: N_2  and  C_15
    5  A    between atoms: C_9  and  C_15
    6  A    between atoms: C_14  and  C_17
    7  A    between atoms: C_18  and  C_24
    8  A    between atoms: C_18  and  N_26
    9  A    between atoms: C_20  and  N_26
   10  A    between atoms: C_22  and  C_24
                            x       y       z     vdW  Elec       q    Type
                         _______ _______ _______ _____ _____    ______ ____

>  <TORSDO>
F 10

$$$$
=
 OpenBabel11052423143D

 27 28  0  0  1  0  0  0  0  0999 V2000
  161.9150  205.5090  149.9170 C   0  0  1  0  0  3  0  0  0  0  0  0
  160.5960  201.4530  150.4890 C   0  0  0  0  0  3  0  0  0  0  0  0
  161.4460  204.1000  150.1400 C   0  0  0  0  0  0  0  0  0  0  0  0
  161.5820  203.4720  151.3870 C   0  0  0  0  0  3  0  0  0  0  0  0
  161.1570  202.1520  151.5600 C   0  0  0  0  0  3  0  0  0  0  0  0
  160.4590  202.0740  149.2430 C   0  0  0  0  0  3  0  0  0  0  0  0
  160.8850  203.3940  149.0700 C   0  0  0  0  0  3  0  0  0  0  0  0
  161.1040  206.2500  148.9460 N   0  0  0  0  0  0  0  0  0  0  0  0
  159.7070  206.1210  148.9650 N   0  0  0  0  0  1  0  0  0  0  0  0
  162.7030  209.3470  148.5330 O   0  0  0  0  0  0  0  0  0  0  0  0
  161.7220  207.0690  147.9380 C   0  0  0  0  0  0  0  0  0  0  0  0
  162.2280  208.2430  148.2440 C   0  0  0  0  0  0  0  0  0  0  0  0
  160.0800  205.2720  145.2810 C   0  0  0  0  0  3  0  0  0  0  0  0
  161.3480  203.1570  145.4220 C   0  0  0  0  0  2  0  0  0  0  0  0
  162.1770  205.1800  146.4570 N   0  0  0  0  0  0  0  0  0  0  0  0
  163.5080  204.7030  146.8010 C   0  0  0  0  0  1  0  0  0  0  0  0
  161.2100  204.4380  145.7400 C   0  0  0  0  0  0  0  0  0  0  0  0
  161.7840  206.5760  146.5160 C   0  0  1  0  0  3  0  0  0  0  0  0
  160.4110  206.6640  145.8310 C   0  0  0  0  0  3  0  0  0  0  0  0
  162.3020  206.3390  151.1570 C   0  0  0  0  0  2  0  0  0  0  0  0
  161.1990  206.6800  152.1710 C   0  0  2  0  0  3  0  0  0  0  0  0
  160.7840  208.1430  152.0770 C   0  0  0  0  0  2  0  0  0  0  0  0
  161.9560  210.2400  152.7470 C   0  0  0  0  0  1  0  0  0  0  0  0
  161.9770  209.0460  151.8110 C   0  0  0  0  0  2  0  0  0  0  0  0
  161.5800  206.3220  153.5280 N   0  0  0  0  0  2  0  0  0  0  0  0
  161.4760  207.7030  155.3940 O   0  0  0  0  0  1  0  0  0  0  0  0
  160.7080  207.0610  154.4250 C   0  0  0  0  0  2  0  0  0  0  0  0
  1  3  1  0  0  0  0
  1 20  1  1  0  0  0
  2  5  1  0  0  0  0
  3  4  1  0  0  0  0
  4  5  2  0  0  0  0
  6  2  2  0  0  0  0
  7  6  1  0  0  0  0
  7  3  2  0  0  0  0
  8  9  1  0  0  0  0
  8  1  1  0  0  0  0
 11 12  2  0  0  0  0
 11  8  1  0  0  0  0
 12 10  2  0  0  0  0
 13 17  1  0  0  0  0
 13 19  2  0  0  0  0
 14 17  2  0  0  0  0
 15 18  1  0  0  0  0
 15 16  1  0  0  0  0
 17 15  1  0  0  0  0
 18 11  1  1  0  0  0
 19 18  1  0  0  0  0
 21 20  1  6  0  0  0
 21 25  1  0  0  0  0
 22 21  1  0  0  0  0
 24 22  1  0  0  0  0
 24 23  1  0  0  0  0
 25 27  1  0  0  0  0
 27 26  1  0  0  0  0
M  END
>  <MODEL>
7

>  <REMARK>
 VINA RESULT:      -5.5      2.039      6.228
  Name = 
  10 active torsions:
  status: ('A' for Active; 'I' for Inactive)
    1  A    between atoms: C_1  and  C_15
    2  A    between atoms: C_1  and  C_18
    3  A    between atoms: N_2  and  C_14
    4  A    between atoms: N_2  and  C_15
    5  A    between atoms: C_9  and  C_15
    6  A    between atoms: C_14  and  C_17
    7  A    between atoms: C_18  and  C_24
    8  A    between atoms: C_18  and  N_26
    9  A    between atoms: C_20  and  N_26
   10  A    between atoms: C_22  and  C_24
                            x       y       z     vdW  Elec       q    Type
                         _______ _______ _______ _____ _____    ______ ____

>  <TORSDO>
F 10

$$$$
=
 OpenBabel11052423143D

 27 28  0  0  1  0  0  0  0  0999 V2000
  161.0740  207.8800  151.8980 C   0  0  1  0  0  3  0  0  0  0  0  0
  160.9220  203.6050  151.4270 C   0  0  0  0  0  3  0  0  0  0  0  0
  161.0290  206.3900  151.7090 C   0  0  0  0  0  0  0  0  0  0  0  0
  160.5980  205.8180  150.5030 C   0  0  0  0  0  3  0  0  0  0  0  0
  160.5450  204.4280  150.3630 C   0  0  0  0  0  3  0  0  0  0  0  0
  161.3510  204.1700  152.6320 C   0  0  0  0  0  3  0  0  0  0  0  0
  161.4040  205.5600  152.7720 C   0  0  0  0  0  3  0  0  0  0  0  0
  160.8520  208.3010  153.2840 N   0  0  0  0  0  0  0  0  0  0  0  0
  160.6170  207.3370  154.2760 N   0  0  0  0  0  1  0  0  0  0  0  0
  162.7160  210.7400  154.9880 O   0  0  0  0  0  0  0  0  0  0  0  0
  160.8210  209.6960  153.6370 C   0  0  0  0  0  0  0  0  0  0  0  0
  161.7960  210.2340  154.3330 C   0  0  0  0  0  0  0  0  0  0  0  0
  159.6390  212.9660  152.6930 C   0  0  0  0  0  3  0  0  0  0  0  0
  158.5180  213.5830  154.8060 C   0  0  0  0  0  2  0  0  0  0  0  0
  159.0950  211.2830  154.3250 N   0  0  0  0  0  0  0  0  0  0  0  0
  158.3800  210.6570  155.4270 C   0  0  0  0  0  1  0  0  0  0  0  0
  159.0750  212.6660  154.0250 C   0  0  0  0  0  0  0  0  0  0  0  0
  159.6520  210.5440  153.2070 C   0  0  1  0  0  3  0  0  0  0  0  0
  160.0750  211.5950  152.1670 C   0  0  0  0  0  3  0  0  0  0  0  0
  162.2020  208.6570  151.1900 C   0  0  0  0  0  2  0  0  0  0  0  0
  161.9070  209.2580  149.8080 C   0  0  2  0  0  3  0  0  0  0  0  0
  162.5270  208.4260  148.6900 C   0  0  0  0  0  2  0  0  0  0  0  0
  162.1740  206.3930  147.2890 C   0  0  0  0  0  1  0  0  0  0  0  0
  161.4940  207.5360  148.0200 C   0  0  0  0  0  2  0  0  0  0  0  0
  162.3180  210.6510  149.7230 N   0  0  0  0  0  2  0  0  0  0  0  0
  162.8300  212.0960  147.9760 O   0  0  0  0  0  1  0  0  0  0  0  0
  161.9210  211.1340  148.4110 C   0  0  0  0  0  2  0  0  0  0  0  0
  1 20  1  1  0  0  0
  1  8  1  0  0  0  0
  2  6  1  0  0  0  0
  3  1  1  0  0  0  0
  3  7  1  0  0  0  0
  4  3  2  0  0  0  0
  5  4  1  0  0  0  0
  5  2  2  0  0  0  0
  6  7  2  0  0  0  0
  8 11  1  0  0  0  0
  8  9  1  0  0  0  0
 11 12  2  0  0  0  0
 12 10  2  0  0  0  0
 13 17  1  0  0  0  0
 15 16  1  0  0  0  0
 17 15  1  0  0  0  0
 17 14  2  0  0  0  0
 18 11  1  1  0  0  0
 18 15  1  0  0  0  0
 19 13  2  0  0  0  0
 19 18  1  0  0  0  0
 21 22  1  6  0  0  0
 21 20  1  0  0  0  0
 23 24  1  0  0  0  0
 24 22  1  0  0  0  0
 25 21  1  0  0  0  0
 26 27  1  0  0  0  0
 27 25  1  0  0  0  0
M  END
>  <MODEL>
8

>  <REMARK>
 VINA RESULT:      -5.4      3.508      6.431
  Name = 
  10 active torsions:
  status: ('A' for Active; 'I' for Inactive)
    1  A    between atoms: C_1  and  C_15
    2  A    between atoms: C_1  and  C_18
    3  A    between atoms: N_2  and  C_14
    4  A    between atoms: N_2  and  C_15
    5  A    between atoms: C_9  and  C_15
    6  A    between atoms: C_14  and  C_17
    7  A    between atoms: C_18  and  C_24
    8  A    between atoms: C_18  and  N_26
    9  A    between atoms: C_20  and  N_26
   10  A    between atoms: C_22  and  C_24
                            x       y       z     vdW  Elec       q    Type
                         _______ _______ _______ _____ _____    ______ ____

>  <TORSDO>
F 10

$$$$
=
 OpenBabel11052423143D

 27 28  0  0  1  0  0  0  0  0999 V2000
  160.8060  205.9900  150.3720 C   0  0  1  0  0  3  0  0  0  0  0  0
  161.0380  201.6970  150.1850 C   0  0  0  0  0  3  0  0  0  0  0  0
  160.9000  204.4940  150.2850 C   0  0  0  0  0  0  0  0  0  0  0  0
  160.7690  203.8220  149.0600 C   0  0  0  0  0  3  0  0  0  0  0  0
  160.8390  202.4270  149.0110 C   0  0  0  0  0  3  0  0  0  0  0  0
  161.1670  202.3620  151.4090 C   0  0  0  0  0  3  0  0  0  0  0  0
  161.0970  203.7560  151.4580 C   0  0  0  0  0  3  0  0  0  0  0  0
  161.6680  206.5720  151.4050 N   0  0  0  0  0  0  0  0  0  0  0  0
  163.0470  206.6840  151.1780 N   0  0  0  0  0  1  0  0  0  0  0  0
  161.0920  205.3810  154.6560 O   0  0  0  0  0  0  0  0  0  0  0  0
  161.1270  206.9840  152.6730 C   0  0  0  0  0  0  0  0  0  0  0  0
  161.1090  206.1590  153.6950 C   0  0  0  0  0  0  0  0  0  0  0  0
  161.7930  210.5250  152.6770 C   0  0  0  0  0  3  0  0  0  0  0  0
  161.7650  210.9080  155.1170 C   0  0  0  0  0  2  0  0  0  0  0  0
  160.8170  208.8990  154.1590 N   0  0  0  0  0  0  0  0  0  0  0  0
  160.1690  208.3870  155.3560 C   0  0  0  0  0  1  0  0  0  0  0  0
  161.5020  210.1340  154.0720 C   0  0  0  0  0  0  0  0  0  0  0  0
  160.5720  208.3770  152.8260 C   0  0  1  0  0  3  0  0  0  0  0  0
  161.2430  209.3580  151.8510 C   0  0  0  0  0  3  0  0  0  0  0  0
  160.8050  206.7850  149.0500 C   0  0  0  0  0  2  0  0  0  0  0  0
  162.1100  206.8440  148.2420 C   0  0  2  0  0  3  0  0  0  0  0  0
  162.6480  208.2670  148.1480 C   0  0  0  0  0  2  0  0  0  0  0  0
  162.1830  210.6830  148.5560 C   0  0  0  0  0  1  0  0  0  0  0  0
  161.7040  209.2640  148.8000 C   0  0  0  0  0  2  0  0  0  0  0  0
  161.9600  206.2440  146.9250 N   0  0  0  0  0  2  0  0  0  0  0  0
  160.4310  206.0560  145.1850 O   0  0  0  0  0  1  0  0  0  0  0  0
  160.5880  206.4710  146.5060 C   0  0  0  0  0  2  0  0  0  0  0  0
  1 20  1  6  0  0  0
  1  8  1  0  0  0  0
  2  6  1  0  0  0  0
  3  1  1  0  0  0  0
  3  7  1  0  0  0  0
  4  3  2  0  0  0  0
  5  4  1  0  0  0  0
  5  2  2  0  0  0  0
  6  7  2  0  0  0  0
  8 11  1  0  0  0  0
  9  8  1  0  0  0  0
 11 12  2  0  0  0  0
 12 10  2  0  0  0  0
 13 17  1  0  0  0  0
 15 16  1  0  0  0  0
 17 15  1  0  0  0  0
 17 14  2  0  0  0  0
 18 11  1  1  0  0  0
 18 15  1  0  0  0  0
 19 13  2  0  0  0  0
 19 18  1  0  0  0  0
 21 22  1  6  0  0  0
 21 20  1  0  0  0  0
 22 24  1  0  0  0  0
 23 24  1  0  0  0  0
 25 21  1  0  0  0  0
 26 27  1  0  0  0  0
 27 25  1  0  0  0  0
M  END
>  <MODEL>
9

>  <REMARK>
 VINA RESULT:      -5.4      2.434      5.246
  Name = 
  10 active torsions:
  status: ('A' for Active; 'I' for Inactive)
    1  A    between atoms: C_1  and  C_15
    2  A    between atoms: C_1  and  C_18
    3  A    between atoms: N_2  and  C_14
    4  A    between atoms: N_2  and  C_15
    5  A    between atoms: C_9  and  C_15
    6  A    between atoms: C_14  and  C_17
    7  A    between atoms: C_18  and  C_24
    8  A    between atoms: C_18  and  N_26
    9  A    between atoms: C_20  and  N_26
   10  A    between atoms: C_22  and  C_24
                            x       y       z     vdW  Elec       q    Type
                         _______ _______ _______ _____ _____    ______ ____

>  <TORSDO>
F 10

$$$$
