=
 OpenBabel11062408213D

 32 37  0  0  1  0  0  0  0  0999 V2000
  161.7430  208.2860  152.4860 C   0  0  1  0  0  3  0  0  0  0  0  0
  162.1890  208.7850  150.0590 C   0  0  1  0  0  3  0  0  0  0  0  0
  159.0240  211.5720  154.6300 C   0  0  0  0  0  0  0  0  0  0  0  0
  160.8360  207.4620  153.4130 C   0  0  0  0  0  2  0  0  0  0  0  0
  161.4110  207.9240  151.0390 C   0  0  1  0  0  3  0  0  0  0  0  0
  161.9200  208.3790  148.5890 C   0  0  2  0  0  3  0  0  0  0  0  0
  161.6940  211.7800  157.2610 F   0  0  0  0  0  0  0  0  0  0  0  0
  157.7610  211.8680  155.0220 F   0  0  0  0  0  0  0  0  0  0  0  0
  161.8580  210.2520  150.3360 C   0  0  1  0  0  3  0  0  0  0  0  0
  161.8780  210.8090  147.8980 N   0  0  0  0  0  0  0  0  0  0  0  0
  161.7350  206.4510  150.8050 C   0  0  2  0  0  3  0  0  0  0  0  0
  162.1850  210.6960  155.2790 C   0  0  0  0  0  3  0  0  0  0  0  0
  160.5300  210.4050  153.2240 C   0  0  0  0  0  0  0  0  0  0  0  0
  161.2030  209.4980  147.8110 C   0  0  0  0  0  2  0  0  0  0  0  0
  161.6650  206.0340  149.3920 N   0  0  0  0  0  2  0  0  0  0  0  0
  160.1740  212.2700  155.3760 C   0  0  0  0  0  2  0  0  0  0  0  0
  161.7550  210.3310  153.9560 C   0  0  0  0  0  0  0  0  0  0  0  0
  160.8260  205.5990  151.6870 C   0  0  0  0  0  2  0  0  0  0  0  0
  159.1950  210.8680  153.4930 C   0  0  0  0  0  0  0  0  0  0  0  0
  158.1410  210.4210  152.7640 F   0  0  0  0  0  0  0  0  0  0  0  0
  162.3510  210.6410  151.6590 N   0  0  0  0  0  2  0  0  0  0  0  0
  161.3430  211.4760  155.9870 C   0  0  0  0  0  0  0  0  0  0  0  0
  161.6640  209.8200  152.6620 C   0  0  1  0  0  0  0  0  0  0  0  0
  162.4910  211.0790  149.2230 C   0  0  1  0  0  3  0  0  0  0  0  0
  161.1160  207.0640  148.4960 C   0  0  2  0  0  3  0  0  0  0  0  0
  161.0430  205.9630  153.1630 C   0  0  0  0  0  2  0  0  0  0  0  0
  162.5210  212.4340  149.5310 F   0  0  0  0  0  0  0  0  0  0  0  0
  161.1110  206.5430  147.0680 C   0  0  0  0  0  2  0  0  0  0  0  0
  162.3370  205.9400  146.7800 O   0  0  0  0  0  1  0  0  0  0  0  0
  160.8440  211.8020  147.6230 C   0  0  0  0  0  2  0  0  0  0  0  0
  162.3060  213.2980  146.3410 C   0  0  0  0  0  2  0  0  0  0  0  0
  161.1870  212.5830  146.3970 C   0  0  0  0  0  3  0  0  0  0  0  0
  1 23  1  0  0  0  0
  1  4  1  1  0  0  0
  2  9  1  0  0  0  0
  2  5  1  0  0  0  0
  3  8  1  0  0  0  0
  3 16  1  0  0  0  0
  5  1  1  0  0  0  0
  6  2  1  0  0  0  0
  9 21  1  0  0  0  0
 10 24  1  0  0  0  0
 11  5  1  0  0  0  0
 11 18  1  0  0  0  0
 12 22  2  0  0  0  0
 13 19  1  0  0  0  0
 13 17  2  0  0  0  0
 14 10  1  0  0  0  0
 14  6  1  0  0  0  0
 15 11  1  0  0  0  0
 16 22  1  0  0  0  0
 17 12  1  0  0  0  0
 18 26  1  0  0  0  0
 19  3  2  0  0  0  0
 20 19  1  0  0  0  0
 21 23  1  0  0  0  0
 22  7  1  0  0  0  0
 23 13  1  0  0  0  0
 23 17  1  0  0  0  0
 24 27  1  0  0  0  0
 24  9  1  0  0  0  0
 25  6  1  0  0  0  0
 25 15  1  0  0  0  0
 26  4  1  0  0  0  0
 28 25  1  0  0  0  0
 29 28  1  0  0  0  0
 30 10  1  0  0  0  0
 31 32  2  0  0  0  0
 32 30  1  0  0  0  0
M  END
>  <MODEL>
1

>  <REMARK>
 VINA RESULT:      -5.5      0.000      0.000
  Name = 
  3 active torsions:
  status: ('A' for Active; 'I' for Inactive)
    1  A    between atoms: C_11  and  N_12
    2  A    between atoms: C_11  and  C_31
    3  A    between atoms: C_13  and  CA_29
                            x       y       z     vdW  Elec       q    Type
                         _______ _______ _______ _____ _____    ______ ____

>  <TORSDO>
F 3

$$$$
=
 OpenBabel11062408213D

 32 37  0  0  1  0  0  0  0  0999 V2000
  160.8240  208.9900  154.8410 C   0  0  1  0  0  3  0  0  0  0  0  0
  161.8740  208.3100  152.6560 C   0  0  1  0  0  3  0  0  0  0  0  0
  157.9360  212.7710  154.4620 C   0  0  0  0  0  0  0  0  0  0  0  0
  159.6600  208.6580  155.7880 C   0  0  0  0  0  2  0  0  0  0  0  0
  160.8200  207.9760  153.6980 C   0  0  1  0  0  3  0  0  0  0  0  0
  161.9330  207.2490  151.5290 C   0  0  2  0  0  3  0  0  0  0  0  0
  159.9090  214.3110  157.2610 F   0  0  0  0  0  0  0  0  0  0  0  0
  156.6430  213.1600  154.3460 F   0  0  0  0  0  0  0  0  0  0  0  0
  161.6020  209.7190  152.1270 C   0  0  1  0  0  3  0  0  0  0  0  0
  162.2460  209.0650  149.8010 N   0  0  0  0  0  0  0  0  0  0  0  0
  161.0750  206.5820  154.2640 C   0  0  2  0  0  3  0  0  0  0  0  0
  160.7730  212.4460  156.2030 C   0  0  0  0  0  3  0  0  0  0  0  0
  159.6390  211.1510  154.1820 C   0  0  0  0  0  0  0  0  0  0  0  0
  161.5120  207.8390  150.1700 C   0  0  0  0  0  2  0  0  0  0  0  0
  161.3120  205.5470  153.2400 N   0  0  0  0  0  2  0  0  0  0  0  0
  158.9260  213.7890  155.0560 C   0  0  0  0  0  2  0  0  0  0  0  0
  160.6440  211.4830  155.1420 C   0  0  0  0  0  0  0  0  0  0  0  0
  159.9190  206.2040  155.1860 C   0  0  0  0  0  2  0  0  0  0  0  0
  158.3190  211.6240  153.8660 C   0  0  0  0  0  0  0  0  0  0  0  0
  157.4380  210.8410  153.1940 F   0  0  0  0  0  0  0  0  0  0  0  0
  161.7940  210.7050  153.1920 N   0  0  0  0  0  2  0  0  0  0  0  0
  159.8490  213.4290  156.2340 C   0  0  0  0  0  0  0  0  0  0  0  0
  160.8250  210.4210  154.2570 C   0  0  1  0  0  0  0  0  0  0  0  0
  162.5450  209.9530  150.9530 C   0  0  1  0  0  3  0  0  0  0  0  0
  161.0750  206.0100  151.8640 C   0  0  2  0  0  3  0  0  0  0  0  0
  159.8040  207.2280  156.3240 C   0  0  0  0  0  2  0  0  0  0  0  0
  162.6060  211.2940  150.5910 F   0  0  0  0  0  0  0  0  0  0  0  0
  161.3700  204.8790  150.8910 C   0  0  0  0  0  2  0  0  0  0  0  0
  161.5740  203.6910  151.5940 O   0  0  0  0  0  1  0  0  0  0  0  0
  161.3890  209.7650  148.8500 C   0  0  0  0  0  2  0  0  0  0  0  0
  161.4360  211.9590  147.7500 C   0  0  0  0  0  2  0  0  0  0  0  0
  162.1110  210.9320  148.2600 C   0  0  0  0  0  3  0  0  0  0  0  0
  1  4  1  1  0  0  0
  2  5  1  0  0  0  0
  3 16  1  0  0  0  0
  4 26  1  0  0  0  0
  5 11  1  0  0  0  0
  5  1  1  0  0  0  0
  6 25  1  0  0  0  0
  6  2  1  0  0  0  0
  8  3  1  0  0  0  0
  9  2  1  0  0  0  0
  9 21  1  0  0  0  0
 10 14  1  0  0  0  0
 10 24  1  0  0  0  0
 11 18  1  0  0  0  0
 12 22  2  0  0  0  0
 13 23  1  0  0  0  0
 13 17  2  0  0  0  0
 14  6  1  0  0  0  0
 15 11  1  0  0  0  0
 16 22  1  0  0  0  0
 17 12  1  0  0  0  0
 18 26  1  0  0  0  0
 19 13  1  0  0  0  0
 19  3  2  0  0  0  0
 20 19  1  0  0  0  0
 21 23  1  0  0  0  0
 22  7  1  0  0  0  0
 23  1  1  0  0  0  0
 23 17  1  0  0  0  0
 24  9  1  0  0  0  0
 25 15  1  0  0  0  0
 27 24  1  0  0  0  0
 28 29  1  0  0  0  0
 28 25  1  0  0  0  0
 30 10  1  0  0  0  0
 31 32  2  0  0  0  0
 32 30  1  0  0  0  0
M  END
>  <MODEL>
2

>  <REMARK>
 VINA RESULT:      -4.8      1.925      2.750
  Name = 
  3 active torsions:
  status: ('A' for Active; 'I' for Inactive)
    1  A    between atoms: C_11  and  N_12
    2  A    between atoms: C_11  and  C_31
    3  A    between atoms: C_13  and  CA_29
                            x       y       z     vdW  Elec       q    Type
                         _______ _______ _______ _____ _____    ______ ____

>  <TORSDO>
F 3

$$$$
=
 OpenBabel11062408213D

 32 37  0  0  1  0  0  0  0  0999 V2000
  161.4060  212.5720  149.5030 C   0  0  1  0  0  3  0  0  0  0  0  0
  161.7160  210.3270  150.5980 C   0  0  1  0  0  3  0  0  0  0  0  0
  159.6890  212.2950  145.0580 C   0  0  0  0  0  0  0  0  0  0  0  0
  160.4330  213.7580  149.4110 C   0  0  0  0  0  2  0  0  0  0  0  0
  160.8660  211.5840  150.5350 C   0  0  1  0  0  3  0  0  0  0  0  0
  161.2240  209.3480  151.6930 C   0  0  2  0  0  3  0  0  0  0  0  0
  162.5800  214.4520  144.0170 F   0  0  0  0  0  0  0  0  0  0  0  0
  158.5650  212.3820  144.3060 F   0  0  0  0  0  0  0  0  0  0  0  0
  161.7410  209.6910  149.2070 C   0  0  1  0  0  3  0  0  0  0  0  0
  161.6490  207.3820  150.1640 N   0  0  0  0  0  0  0  0  0  0  0  0
  160.8360  212.2570  151.9050 C   0  0  2  0  0  3  0  0  0  0  0  0
  162.6300  213.4850  146.1160 C   0  0  0  0  0  3  0  0  0  0  0  0
  160.7620  211.8940  147.1290 C   0  0  0  0  0  0  0  0  0  0  0  0
  160.6980  208.0330  151.0880 C   0  0  0  0  0  2  0  0  0  0  0  0
  160.5410  211.3410  153.0230 N   0  0  0  0  0  2  0  0  0  0  0  0
  161.0310  212.5580  144.3510 C   0  0  0  0  0  3  0  0  0  0  0  0
  162.0050  212.5940  147.0570 C   0  0  0  0  0  0  0  0  0  0  0  0
  159.8510  213.4230  151.8610 C   0  0  0  0  0  2  0  0  0  0  0  0
  159.5930  211.7810  146.3010 C   0  0  1  0  0  3  0  0  0  0  0  0
  158.4020  211.3920  146.8220 F   0  0  0  0  0  0  0  0  0  0  0  0
  162.4320  210.5700  148.2620 N   0  0  0  0  0  2  0  0  0  0  0  0
  162.0500  213.5720  144.9010 C   0  0  0  0  0  0  0  0  0  0  0  0
  161.6810  211.8280  148.1770 C   0  0  1  0  0  0  0  0  0  0  0  0
  162.4300  208.3380  149.3390 C   0  0  1  0  0  3  0  0  0  0  0  0
  160.1480  209.9900  152.5940 C   0  0  2  0  0  3  0  0  0  0  0  0
  160.2820  214.4280  150.7830 C   0  0  0  0  0  2  0  0  0  0  0  0
  162.7850  207.8100  148.1030 F   0  0  0  0  0  0  0  0  0  0  0  0
  159.8920  209.1250  153.8180 C   0  0  0  0  0  2  0  0  0  0  0  0
  160.0740  209.8790  154.9780 O   0  0  0  0  0  1  0  0  0  0  0  0
  160.8360  206.5350  149.2970 C   0  0  0  0  0  2  0  0  0  0  0  0
  161.3690  204.2030  148.7510 C   0  0  0  0  0  2  0  0  0  0  0  0
  161.0070  205.0980  149.6650 C   0  0  0  0  0  3  0  0  0  0  0  0
  1  4  1  6  0  0  0
  1  5  1  0  0  0  0
  2  6  1  0  0  0  0
  3 19  1  0  0  0  0
  4 26  1  0  0  0  0
  5  2  1  0  0  0  0
  5 11  1  0  0  0  0
  6 25  1  0  0  0  0
  7 22  1  0  0  0  0
  8  3  1  0  0  0  0
  9 24  1  0  0  0  0
  9  2  1  0  0  0  0
 10 14  1  0  0  0  0
 11 15  1  0  0  0  0
 12 17  1  0  0  0  0
 13 23  1  0  0  0  0
 14  6  1  0  0  0  0
 16 22  1  0  0  0  0
 16  3  2  0  0  0  0
 17 13  2  0  0  0  0
 17 23  1  0  0  0  0
 18 11  1  0  0  0  0
 19 20  1  0  0  0  0
 19 13  1  0  0  0  0
 21  9  1  0  0  0  0
 22 12  2  0  0  0  0
 23 21  1  0  0  0  0
 23  1  1  0  0  0  0
 24 10  1  0  0  0  0
 25 15  1  0  0  0  0
 25 28  1  0  0  0  0
 26 18  1  0  0  0  0
 27 24  1  0  0  0  0
 28 29  1  0  0  0  0
 30 32  1  0  0  0  0
 30 10  1  0  0  0  0
 31 32  2  0  0  0  0
M  END
>  <MODEL>
3

>  <REMARK>
 VINA RESULT:      -4.0      3.590      7.283
  Name = 
  3 active torsions:
  status: ('A' for Active; 'I' for Inactive)
    1  A    between atoms: C_11  and  N_12
    2  A    between atoms: C_11  and  C_31
    3  A    between atoms: C_13  and  CA_29
                            x       y       z     vdW  Elec       q    Type
                         _______ _______ _______ _____ _____    ______ ____

>  <TORSDO>
F 3

$$$$
=
 OpenBabel11062408213D

 32 37  0  0  1  0  0  0  0  0999 V2000
  159.9420  214.2170  141.2370 C   0  0  1  0  0  3  0  0  0  0  0  0
  159.9980  214.4530  143.7430 C   0  0  1  0  0  3  0  0  0  0  0  0
  163.1160  211.0750  139.5550 C   0  0  0  0  0  0  0  0  0  0  0  0
  159.1900  213.5120  140.0970 C   0  0  0  0  0  2  0  0  0  0  0  0
  159.2430  213.8840  142.5550 C   0  0  1  0  0  3  0  0  0  0  0  0
  159.2630  214.1880  145.0800 C   0  0  2  0  0  3  0  0  0  0  0  0
  164.2840  213.7910  137.2410 F   0  0  0  0  0  0  0  0  0  0  0  0
  163.2800  209.8000  139.1250 F   0  0  0  0  0  0  0  0  0  0  0  0
  161.4190  213.8860  143.7280 C   0  0  1  0  0  3  0  0  0  0  0  0
  161.4610  213.6920  146.2220 N   0  0  0  0  0  0  0  0  0  0  0  0
  157.8240  214.4470  142.5250 C   0  0  2  0  0  3  0  0  0  0  0  0
  162.9100  214.3680  139.0080 C   0  0  0  0  0  3  0  0  0  0  0  0
  161.9440  212.6910  140.8260 C   0  0  0  0  0  0  0  0  0  0  0  0
  160.0700  213.2510  145.9980 C   0  0  0  0  0  2  0  0  0  0  0  0
  157.1210  214.3830  143.8200 N   0  0  0  0  0  2  0  0  0  0  0  0
  164.1280  212.1210  139.0540 C   0  0  0  0  0  3  0  0  0  0  0  0
  162.2180  213.9440  140.1960 C   0  0  0  0  0  0  0  0  0  0  0  0
  157.0360  213.7430  141.4240 C   0  0  0  0  0  2  0  0  0  0  0  0
  162.2310  211.3110  140.5440 C   0  0  1  0  0  3  0  0  0  0  0  0
  161.4820  210.3170  141.0840 F   0  0  0  0  0  0  0  0  0  0  0  0
  162.1440  214.3670  142.5510 N   0  0  0  0  0  2  0  0  0  0  0  0
  163.6730  213.4370  138.3980 C   0  0  0  0  0  0  0  0  0  0  0  0
  161.4450  213.8820  141.3550 C   0  0  1  0  0  0  0  0  0  0  0  0
  162.0910  214.3120  145.0290 C   0  0  1  0  0  3  0  0  0  0  0  0
  157.8450  213.6220  144.8500 C   0  0  2  0  0  3  0  0  0  0  0  0
  157.7240  213.9630  140.0690 C   0  0  0  0  0  2  0  0  0  0  0  0
  163.4670  214.1210  144.9920 F   0  0  0  0  0  0  0  0  0  0  0  0
  157.0490  213.6390  146.1450 C   0  0  0  0  0  2  0  0  0  0  0  0
  157.1120  212.3860  146.7570 O   0  0  0  0  0  1  0  0  0  0  0  0
  162.1980  212.4900  146.5980 C   0  0  0  0  0  2  0  0  0  0  0  0
  161.9740  211.4510  148.8100 C   0  0  0  0  0  2  0  0  0  0  0  0
  162.4270  212.4610  148.0740 C   0  0  0  0  0  3  0  0  0  0  0  0
  1  4  1  6  0  0  0
  1 23  1  0  0  0  0
  1  5  1  0  0  0  0
  2  6  1  0  0  0  0
  3 19  1  0  0  0  0
  5  2  1  0  0  0  0
  6 14  1  0  0  0  0
  7 22  1  0  0  0  0
  8  3  1  0  0  0  0
  9  2  1  0  0  0  0
  9 24  1  0  0  0  0
 10 30  1  0  0  0  0
 11  5  1  0  0  0  0
 11 15  1  0  0  0  0
 12 17  1  0  0  0  0
 13 23  1  0  0  0  0
 14 10  1  0  0  0  0
 15 25  1  0  0  0  0
 16  3  2  0  0  0  0
 17 13  2  0  0  0  0
 17 23  1  0  0  0  0
 18 11  1  0  0  0  0
 19 13  1  0  0  0  0
 19 20  1  0  0  0  0
 21  9  1  0  0  0  0
 22 12  2  0  0  0  0
 22 16  1  0  0  0  0
 23 21  1  0  0  0  0
 24 10  1  0  0  0  0
 25  6  1  0  0  0  0
 25 28  1  0  0  0  0
 26  4  1  0  0  0  0
 26 18  1  0  0  0  0
 27 24  1  0  0  0  0
 28 29  1  0  0  0  0
 30 32  1  0  0  0  0
 32 31  2  0  0  0  0
M  END
>  <MODEL>
4

>  <REMARK>
 VINA RESULT:      -3.5      6.126     11.777
  Name = 
  3 active torsions:
  status: ('A' for Active; 'I' for Inactive)
    1  A    between atoms: C_11  and  N_12
    2  A    between atoms: C_11  and  C_31
    3  A    between atoms: C_13  and  CA_29
                            x       y       z     vdW  Elec       q    Type
                         _______ _______ _______ _____ _____    ______ ____

>  <TORSDO>
F 3

$$$$
