=
 OpenBabel11052423113D

 27 31  0  0  1  0  0  0  0  0999 V2000
  160.7460  211.8630  154.5440 C   0  0  0  0  0  2  0  0  0  0  0  0
  159.1080  212.0820  152.7480 C   0  0  2  0  0  3  0  0  0  0  0  0
  160.9590  210.8380  151.7940 N   0  0  0  0  0  2  0  0  0  0  0  0
  159.0890  213.9550  149.1070 N   0  0  0  0  0  0  0  0  0  0  0  0
  160.7270  213.8930  147.2870 C   0  0  0  0  0  1  0  0  0  0  0  0
  157.9760  212.8510  152.3620 C   0  0  0  0  0  3  0  0  0  0  0  0
  160.8730  212.7230  149.4930 C   0  0  0  0  0  0  0  0  0  0  0  0
  160.8440  207.1630  152.2770 C   0  0  0  0  0  3  0  0  0  0  0  0
  162.1770  212.0340  149.2520 C   0  0  0  0  0  1  0  0  0  0  0  0
  161.0250  207.0130  153.6490 C   0  0  0  0  0  3  0  0  0  0  0  0
  160.0880  212.6450  150.6260 C   0  0  0  0  0  0  0  0  0  0  0  0
  159.3210  211.8600  154.0640 C   0  0  2  0  0  3  0  0  0  0  0  0
  160.2480  213.5380  148.6130 N   0  0  0  0  0  0  0  0  0  0  0  0
  158.9950  213.4120  150.3330 C   0  0  0  0  0  0  0  0  0  0  0  0
  161.1720  210.5150  154.8370 N   0  0  0  0  0  2  0  0  0  0  0  0
  160.1350  211.8560  151.7790 C   0  0  1  0  0  3  0  0  0  0  0  0
  160.7910  208.4410  151.7190 C   0  0  0  0  0  3  0  0  0  0  0  0
  157.9220  213.4840  151.1540 N   0  0  0  0  0  0  0  0  0  0  0  0
  161.1460  208.1420  154.4590 C   0  0  0  0  0  3  0  0  0  0  0  0
  161.0810  209.4300  153.9160 C   0  0  0  0  0  0  0  0  0  0  0  0
  160.8910  209.5910  152.5150 C   0  0  0  0  0  0  0  0  0  0  0  0
  156.1260  211.9230  156.9440 C   0  0  0  0  0  3  0  0  0  0  0  0
  158.2340  211.8640  155.0840 C   0  0  0  0  0  0  0  0  0  0  0  0
  158.2290  212.8030  156.1300 C   0  0  0  0  0  3  0  0  0  0  0  0
  157.1860  212.8290  157.0580 C   0  0  0  0  0  3  0  0  0  0  0  0
  156.1100  210.9960  155.9000 C   0  0  0  0  0  3  0  0  0  0  0  0
  157.1540  210.9700  154.9720 C   0  0  0  0  0  3  0  0  0  0  0  0
  1 15  1  0  0  0  0
  2  6  1  1  0  0  0
  2 12  1  0  0  0  0
  3 21  1  0  0  0  0
  4 14  2  0  0  0  0
  5 13  1  0  0  0  0
  7 11  2  0  0  0  0
  8 10  1  0  0  0  0
  9  7  1  0  0  0  0
 10 19  2  0  0  0  0
 12  1  1  0  0  0  0
 12 23  1  1  0  0  0
 13  4  1  0  0  0  0
 13  7  1  0  0  0  0
 14 11  1  0  0  0  0
 14 18  1  0  0  0  0
 16 11  1  6  0  0  0
 16  3  1  0  0  0  0
 16  2  1  0  0  0  0
 17  8  2  0  0  0  0
 17 21  1  0  0  0  0
 18  6  2  0  0  0  0
 20 19  1  0  0  0  0
 20 15  1  0  0  0  0
 21 20  2  0  0  0  0
 22 25  1  0  0  0  0
 23 24  1  0  0  0  0
 24 25  2  0  0  0  0
 26 22  2  0  0  0  0
 27 23  2  0  0  0  0
 27 26  1  0  0  0  0
M  END
>  <MODEL>
1

>  <REMARK>
 VINA RESULT:      -5.6      0.000      0.000
  Name = 
  1 active torsions:
  status: ('A' for Active; 'I' for Inactive)
    1  A    between atoms: C_9  and  C_15
                            x       y       z     vdW  Elec       q    Type
                         _______ _______ _______ _____ _____    ______ ____

>  <TORSDO>
F 1

$$$$
=
 OpenBabel11052423113D

 27 31  0  0  1  0  0  0  0  0999 V2000
  161.9650  210.6020  153.0860 C   0  0  0  0  0  2  0  0  0  0  0  0
  160.4150  211.6090  151.4930 C   0  0  2  0  0  3  0  0  0  0  0  0
  161.9400  210.2720  150.1620 N   0  0  0  0  0  2  0  0  0  0  0  0
  160.8100  214.2870  148.4200 N   0  0  0  0  0  0  0  0  0  0  0  0
  162.3900  214.3270  146.5500 C   0  0  0  0  0  1  0  0  0  0  0  0
  159.4820  212.6760  151.3690 C   0  0  0  0  0  3  0  0  0  0  0  0
  162.2750  212.6420  148.3950 C   0  0  0  0  0  0  0  0  0  0  0  0
  161.0080  206.7060  149.7470 C   0  0  0  0  0  3  0  0  0  0  0  0
  163.3910  211.7690  147.9210 C   0  0  0  0  0  1  0  0  0  0  0  0
  161.1530  206.1850  151.0290 C   0  0  0  0  0  3  0  0  0  0  0  0
  161.4930  212.4560  149.5180 C   0  0  0  0  0  0  0  0  0  0  0  0
  160.5740  211.0260  152.7010 C   0  0  2  0  0  3  0  0  0  0  0  0
  161.8470  213.7650  147.7750 N   0  0  0  0  0  0  0  0  0  0  0  0
  160.5990  213.4890  149.4820 C   0  0  0  0  0  0  0  0  0  0  0  0
  162.0790  209.1640  153.0200 N   0  0  0  0  0  2  0  0  0  0  0  0
  161.3650  211.4140  150.4410 C   0  0  1  0  0  3  0  0  0  0  0  0
  161.2410  208.0630  149.5190 C   0  0  0  0  0  3  0  0  0  0  0  0
  159.5700  213.5850  150.3550 N   0  0  0  0  0  0  0  0  0  0  0  0
  161.5230  207.0230  152.0810 C   0  0  0  0  0  3  0  0  0  0  0  0
  161.7470  208.3890  151.8700 C   0  0  0  0  0  0  0  0  0  0  0  0
  161.5960  208.9300  150.5630 C   0  0  0  0  0  0  0  0  0  0  0  0
  157.5310  211.0820  155.7420 C   0  0  0  0  0  3  0  0  0  0  0  0
  159.5170  211.0110  153.7520 C   0  0  0  0  0  0  0  0  0  0  0  0
  159.8260  210.6830  155.0830 C   0  0  0  0  0  3  0  0  0  0  0  0
  158.8390  210.7110  156.0700 C   0  0  0  0  0  3  0  0  0  0  0  0
  157.2140  211.4270  154.4270 C   0  0  0  0  0  3  0  0  0  0  0  0
  158.2010  211.3970  153.4380 C   0  0  0  0  0  3  0  0  0  0  0  0
  2  6  1  1  0  0  0
  2 12  1  0  0  0  0
  3 16  1  0  0  0  0
  3 21  1  0  0  0  0
  4 14  2  0  0  0  0
  5 13  1  0  0  0  0
  7 11  2  0  0  0  0
  8 10  1  0  0  0  0
  9  7  1  0  0  0  0
 10 19  2  0  0  0  0
 12  1  1  0  0  0  0
 12 23  1  1  0  0  0
 13  7  1  0  0  0  0
 13  4  1  0  0  0  0
 14 11  1  0  0  0  0
 14 18  1  0  0  0  0
 15  1  1  0  0  0  0
 16 11  1  6  0  0  0
 16  2  1  0  0  0  0
 17  8  2  0  0  0  0
 17 21  1  0  0  0  0
 18  6  2  0  0  0  0
 20 19  1  0  0  0  0
 20 15  1  0  0  0  0
 21 20  2  0  0  0  0
 22 25  1  0  0  0  0
 23 24  1  0  0  0  0
 24 25  2  0  0  0  0
 26 22  2  0  0  0  0
 27 23  2  0  0  0  0
 27 26  1  0  0  0  0
M  END
>  <MODEL>
2

>  <REMARK>
 VINA RESULT:      -4.8      1.554      2.151
  Name = 
  1 active torsions:
  status: ('A' for Active; 'I' for Inactive)
    1  A    between atoms: C_9  and  C_15
                            x       y       z     vdW  Elec       q    Type
                         _______ _______ _______ _____ _____    ______ ____

>  <TORSDO>
F 1

$$$$
=
 OpenBabel11052423113D

 27 31  0  0  1  0  0  0  0  0999 V2000
  159.5800  205.4410  149.0300 C   0  0  0  0  0  2  0  0  0  0  0  0
  161.5550  206.8100  149.4570 C   0  0  2  0  0  3  0  0  0  0  0  0
  161.0550  205.7120  151.5620 N   0  0  0  0  0  2  0  0  0  0  0  0
  162.3320  210.0380  151.8530 N   0  0  0  0  0  0  0  0  0  0  0  0
  161.8590  210.3950  154.2300 C   0  0  0  0  0  1  0  0  0  0  0  0
  162.2780  207.9150  148.9300 C   0  0  0  0  0  3  0  0  0  0  0  0
  161.2970  208.3770  152.8630 C   0  0  0  0  0  0  0  0  0  0  0  0
  162.5410  202.3440  152.0110 C   0  0  0  0  0  3  0  0  0  0  0  0
  160.6760  207.5760  153.9610 C   0  0  0  0  0  1  0  0  0  0  0  0
  161.8690  201.5680  151.0710 C   0  0  0  0  0  3  0  0  0  0  0  0
  161.4580  207.9970  151.5450 C   0  0  0  0  0  0  0  0  0  0  0  0
  160.9130  205.9880  148.5980 C   0  0  2  0  0  3  0  0  0  0  0  0
  161.8150  209.6180  153.0020 N   0  0  0  0  0  0  0  0  0  0  0  0
  162.1110  209.0500  150.9680 C   0  0  0  0  0  0  0  0  0  0  0  0
  159.7060  204.0430  149.3690 N   0  0  0  0  0  2  0  0  0  0  0  0
  161.2650  206.7960  150.8580 C   0  0  1  0  0  3  0  0  0  0  0  0
  162.2670  203.7090  152.1080 C   0  0  0  0  0  3  0  0  0  0  0  0
  162.5690  209.0070  149.6960 N   0  0  0  0  0  0  0  0  0  0  0  0
  160.9280  202.1600  150.2280 C   0  0  0  0  0  3  0  0  0  0  0  0
  160.6520  203.5300  150.3050 C   0  0  0  0  0  0  0  0  0  0  0  0
  161.3400  204.3310  151.2590 C   0  0  0  0  0  0  0  0  0  0  0  0
  162.0420  205.3700  144.4930 C   0  0  0  0  0  3  0  0  0  0  0  0
  161.3240  205.8020  147.1780 C   0  0  0  0  0  0  0  0  0  0  0  0
  162.5320  205.1610  146.8550 C   0  0  0  0  0  3  0  0  0  0  0  0
  162.8930  204.9520  145.5220 C   0  0  0  0  0  3  0  0  0  0  0  0
  160.8310  205.9930  144.8000 C   0  0  0  0  0  3  0  0  0  0  0  0
  160.4720  206.2030  146.1340 C   0  0  0  0  0  3  0  0  0  0  0  0
  1 15  1  0  0  0  0
  2  6  1  6  0  0  0
  2 16  1  0  0  0  0
  4 13  1  0  0  0  0
  6 18  2  0  0  0  0
  7 13  1  0  0  0  0
  7  9  1  0  0  0  0
  8 17  1  0  0  0  0
 10  8  2  0  0  0  0
 11  7  2  0  0  0  0
 12 23  1  6  0  0  0
 12  1  1  0  0  0  0
 12  2  1  0  0  0  0
 13  5  1  0  0  0  0
 14 11  1  0  0  0  0
 14  4  2  0  0  0  0
 15 20  1  0  0  0  0
 16 11  1  1  0  0  0
 16  3  1  0  0  0  0
 18 14  1  0  0  0  0
 19 20  2  0  0  0  0
 19 10  1  0  0  0  0
 20 21  1  0  0  0  0
 21  3  1  0  0  0  0
 21 17  2  0  0  0  0
 22 26  2  0  0  0  0
 22 25  1  0  0  0  0
 24 23  1  0  0  0  0
 25 24  2  0  0  0  0
 26 27  1  0  0  0  0
 27 23  2  0  0  0  0
M  END
>  <MODEL>
3

>  <REMARK>
 VINA RESULT:      -4.6      4.540      8.400
  Name = 
  1 active torsions:
  status: ('A' for Active; 'I' for Inactive)
    1  A    between atoms: C_9  and  C_15
                            x       y       z     vdW  Elec       q    Type
                         _______ _______ _______ _____ _____    ______ ____

>  <TORSDO>
F 1

$$$$
=
 OpenBabel11052423113D

 27 31  0  0  1  0  0  0  0  0999 V2000
  163.0890  209.9740  151.9530 C   0  0  0  0  0  2  0  0  0  0  0  0
  161.4130  208.7370  150.6820 C   0  0  2  0  0  3  0  0  0  0  0  0
  161.1800  207.9810  152.9750 N   0  0  0  0  0  2  0  0  0  0  0  0
  160.8360  204.7790  149.8040 N   0  0  0  0  0  0  0  0  0  0  0  0
  160.8310  202.8170  151.2700 C   0  0  0  0  0  1  0  0  0  0  0  0
  161.0820  208.3550  149.3520 C   0  0  0  0  0  3  0  0  0  0  0  0
  161.2350  205.1960  151.9290 C   0  0  0  0  0  0  0  0  0  0  0  0
  158.9390  210.0150  155.1190 C   0  0  0  0  0  3  0  0  0  0  0  0
  161.4070  204.9570  153.3940 C   0  0  0  0  0  1  0  0  0  0  0  0
  159.6210  211.2230  155.2420 C   0  0  0  0  0  3  0  0  0  0  0  0
  161.2940  206.4090  151.2730 C   0  0  0  0  0  0  0  0  0  0  0  0
  162.0370  209.9180  150.8790 C   0  0  2  0  0  3  0  0  0  0  0  0
  160.9790  204.2390  151.0090 N   0  0  0  0  0  0  0  0  0  0  0  0
  161.0300  206.0990  149.9670 C   0  0  0  0  0  0  0  0  0  0  0  0
  162.5910  210.7030  153.0960 N   0  0  0  0  0  2  0  0  0  0  0  0
  161.3720  207.7360  151.7040 C   0  0  1  0  0  3  0  0  0  0  0  0
  159.4730  208.9940  154.3320 C   0  0  0  0  0  3  0  0  0  0  0  0
  160.8700  207.0490  149.0170 N   0  0  0  0  0  0  0  0  0  0  0  0
  160.8310  211.4070  154.5730 C   0  0  0  0  0  3  0  0  0  0  0  0
  161.3720  210.3970  153.7690 C   0  0  0  0  0  0  0  0  0  0  0  0
  160.6790  209.1620  153.6350 C   0  0  0  0  0  0  0  0  0  0  0  0
  161.6280  213.2100  148.1400 C   0  0  0  0  0  3  0  0  0  0  0  0
  161.9230  211.0730  149.9450 C   0  0  0  0  0  0  0  0  0  0  0  0
  162.7060  211.1390  148.7790 C   0  0  0  0  0  3  0  0  0  0  0  0
  162.5650  212.2030  147.8860 C   0  0  0  0  0  3  0  0  0  0  0  0
  160.8310  213.1480  149.2850 C   0  0  0  0  0  3  0  0  0  0  0  0
  160.9740  212.0840  150.1800 C   0  0  0  0  0  3  0  0  0  0  0  0
  1 15  1  0  0  0  0
  2  6  1  6  0  0  0
  2 12  1  0  0  0  0
  2 16  1  0  0  0  0
  3 21  1  0  0  0  0
  4 14  2  0  0  0  0
  4 13  1  0  0  0  0
  7  9  1  0  0  0  0
  8 10  1  0  0  0  0
 11  7  2  0  0  0  0
 12 23  1  6  0  0  0
 12  1  1  0  0  0  0
 13  5  1  0  0  0  0
 13  7  1  0  0  0  0
 14 11  1  0  0  0  0
 15 20  1  0  0  0  0
 16 11  1  6  0  0  0
 16  3  1  0  0  0  0
 17  8  2  0  0  0  0
 18  6  2  0  0  0  0
 18 14  1  0  0  0  0
 19 10  2  0  0  0  0
 20 19  1  0  0  0  0
 21 20  2  0  0  0  0
 21 17  1  0  0  0  0
 22 26  1  0  0  0  0
 23 27  1  0  0  0  0
 24 23  2  0  0  0  0
 25 22  2  0  0  0  0
 25 24  1  0  0  0  0
 26 27  2  0  0  0  0
M  END
>  <MODEL>
4

>  <REMARK>
 VINA RESULT:      -4.2      2.777      6.795
  Name = 
  1 active torsions:
  status: ('A' for Active; 'I' for Inactive)
    1  A    between atoms: C_9  and  C_15
                            x       y       z     vdW  Elec       q    Type
                         _______ _______ _______ _____ _____    ______ ____

>  <TORSDO>
F 1

$$$$
=
 OpenBabel11052423113D

 27 31  0  0  1  0  0  0  0  0999 V2000
  159.5180  213.9020  139.2780 C   0  0  0  0  0  2  0  0  0  0  0  0
  158.6510  211.6250  139.1380 C   0  0  2  0  0  3  0  0  0  0  0  0
  160.5340  211.5130  140.6640 N   0  0  0  0  0  2  0  0  0  0  0  0
  160.1490  208.0740  137.7560 N   0  0  0  0  0  0  0  0  0  0  0  0
  162.2940  206.9790  138.2070 C   0  0  0  0  0  1  0  0  0  0  0  0
  157.8370  210.7920  138.3220 C   0  0  0  0  0  3  0  0  0  0  0  0
  161.5060  209.1830  139.0910 C   0  0  0  0  0  0  0  0  0  0  0  0
  159.7670  212.2400  144.2190 C   0  0  0  0  0  3  0  0  0  0  0  0
  162.7080  209.4880  139.9250 C   0  0  0  0  0  1  0  0  0  0  0  0
  159.4380  213.5920  144.2070 C   0  0  0  0  0  3  0  0  0  0  0  0
  160.3730  209.9590  138.9490 C   0  0  0  0  0  0  0  0  0  0  0  0
  158.3620  212.9430  139.2080 C   0  0  2  0  0  3  0  0  0  0  0  0
  161.3420  208.0690  138.3410 N   0  0  0  0  0  0  0  0  0  0  0  0
  159.5640  209.2260  138.1260 C   0  0  0  0  0  0  0  0  0  0  0  0
  159.6310  214.4450  140.6110 N   0  0  0  0  0  2  0  0  0  0  0  0
  159.9110  211.1150  139.5830 C   0  0  1  0  0  3  0  0  0  0  0  0
  160.0820  211.5920  143.0240 C   0  0  0  0  0  3  0  0  0  0  0  0
  158.2920  209.5950  137.8480 N   0  0  0  0  0  0  0  0  0  0  0  0
  159.4200  214.2910  143.0000 C   0  0  0  0  0  3  0  0  0  0  0  0
  159.7210  213.6510  141.7920 C   0  0  0  0  0  0  0  0  0  0  0  0
  160.0530  212.2670  141.7950 C   0  0  0  0  0  0  0  0  0  0  0  0
  154.3940  214.4530  138.5150 C   0  0  0  0  0  3  0  0  0  0  0  0
  156.9990  213.4980  138.9700 C   0  0  0  0  0  0  0  0  0  0  0  0
  156.6110  213.9360  137.6930 C   0  0  0  0  0  3  0  0  0  0  0  0
  155.3190  214.4170  137.4670 C   0  0  0  0  0  3  0  0  0  0  0  0
  154.7610  214.0050  139.7860 C   0  0  0  0  0  3  0  0  0  0  0  0
  156.0540  213.5260  140.0110 C   0  0  0  0  0  3  0  0  0  0  0  0
  1 15  1  0  0  0  0
  2  6  1  6  0  0  0
  2 12  1  0  0  0  0
  2 16  1  0  0  0  0
  3 21  1  0  0  0  0
  4 14  2  0  0  0  0
  4 13  1  0  0  0  0
  5 13  1  0  0  0  0
  7  9  1  0  0  0  0
 10  8  1  0  0  0  0
 11  7  2  0  0  0  0
 12 23  1  6  0  0  0
 12  1  1  0  0  0  0
 13  7  1  0  0  0  0
 14 11  1  0  0  0  0
 15 20  1  0  0  0  0
 16 11  1  1  0  0  0
 16  3  1  0  0  0  0
 17  8  2  0  0  0  0
 18 14  1  0  0  0  0
 18  6  2  0  0  0  0
 19 10  2  0  0  0  0
 20 21  2  0  0  0  0
 20 19  1  0  0  0  0
 21 17  1  0  0  0  0
 22 26  1  0  0  0  0
 23 27  1  0  0  0  0
 24 23  2  0  0  0  0
 25 24  1  0  0  0  0
 25 22  2  0  0  0  0
 26 27  2  0  0  0  0
M  END
>  <MODEL>
5

>  <REMARK>
 VINA RESULT:      -4.1      9.827     13.767
  Name = 
  1 active torsions:
  status: ('A' for Active; 'I' for Inactive)
    1  A    between atoms: C_9  and  C_15
                            x       y       z     vdW  Elec       q    Type
                         _______ _______ _______ _____ _____    ______ ____

>  <TORSDO>
F 1

$$$$
=
 OpenBabel11052423113D

 27 31  0  0  1  0  0  0  0  0999 V2000
  159.9910  208.6680  155.0620 C   0  0  0  0  0  2  0  0  0  0  0  0
  159.4710  210.6960  153.8070 C   0  0  2  0  0  3  0  0  0  0  0  0
  159.6670  211.3940  156.1220 N   0  0  0  0  0  2  0  0  0  0  0  0
  156.3150  213.3040  153.7670 N   0  0  0  0  0  0  0  0  0  0  0  0
  155.1750  214.4370  155.6150 C   0  0  0  0  0  1  0  0  0  0  0  0
  158.9350  211.1280  152.5620 C   0  0  0  0  0  3  0  0  0  0  0  0
  157.0820  212.8270  155.7750 C   0  0  0  0  0  0  0  0  0  0  0  0
  163.0920  212.2440  157.2610 C   0  0  0  0  0  3  0  0  0  0  0  0
  157.2390  212.8710  157.2610 C   0  0  0  0  0  1  0  0  0  0  0  0
  163.7530  211.0190  157.2330 C   0  0  0  0  0  3  0  0  0  0  0  0
  157.8330  212.0890  154.8820 C   0  0  0  0  0  0  0  0  0  0  0  0
  160.1630  209.5350  153.8460 C   0  0  2  0  0  3  0  0  0  0  0  0
  156.1660  213.5260  155.0680 N   0  0  0  0  0  0  0  0  0  0  0  0
  157.3280  212.4270  153.6570 C   0  0  0  0  0  0  0  0  0  0  0  0
  161.1740  208.7320  155.8870 N   0  0  0  0  0  2  0  0  0  0  0  0
  158.9910  211.3160  155.0030 C   0  0  1  0  0  3  0  0  0  0  0  0
  161.7610  212.3230  156.8490 C   0  0  0  0  0  3  0  0  0  0  0  0
  157.8910  212.0050  152.5020 N   0  0  0  0  0  0  0  0  0  0  0  0
  163.0830  209.8790  156.7890 C   0  0  0  0  0  3  0  0  0  0  0  0
  161.7520  209.9460  156.3610 C   0  0  0  0  0  0  0  0  0  0  0  0
  161.0710  211.1950  156.3810 C   0  0  0  0  0  0  0  0  0  0  0  0
  162.2850  207.8550  150.5020 C   0  0  0  0  0  3  0  0  0  0  0  0
  160.8720  208.9630  152.6670 C   0  0  0  0  0  0  0  0  0  0  0  0
  161.6400  209.7810  151.8190 C   0  0  0  0  0  3  0  0  0  0  0  0
  162.3360  209.2320  150.7400 C   0  0  0  0  0  3  0  0  0  0  0  0
  161.5400  207.0290  151.3460 C   0  0  0  0  0  3  0  0  0  0  0  0
  160.8420  207.5780  152.4240 C   0  0  0  0  0  3  0  0  0  0  0  0
  1 15  1  0  0  0  0
  2  6  1  6  0  0  0
  2 12  1  0  0  0  0
  2 16  1  0  0  0  0
  3 21  1  0  0  0  0
  4 13  1  0  0  0  0
  7  9  1  0  0  0  0
 10  8  1  0  0  0  0
 11  7  2  0  0  0  0
 12 23  1  6  0  0  0
 12  1  1  0  0  0  0
 13  5  1  0  0  0  0
 13  7  1  0  0  0  0
 14  4  2  0  0  0  0
 14 11  1  0  0  0  0
 15 20  1  0  0  0  0
 16 11  1  6  0  0  0
 16  3  1  0  0  0  0
 17  8  2  0  0  0  0
 18  6  2  0  0  0  0
 18 14  1  0  0  0  0
 19 10  2  0  0  0  0
 20 21  2  0  0  0  0
 20 19  1  0  0  0  0
 21 17  1  0  0  0  0
 22 25  2  0  0  0  0
 22 26  1  0  0  0  0
 24 23  2  0  0  0  0
 25 24  1  0  0  0  0
 26 27  2  0  0  0  0
 27 23  1  0  0  0  0
M  END
>  <MODEL>
6

>  <REMARK>
 VINA RESULT:      -4.1      2.472      5.899
  Name = 
  1 active torsions:
  status: ('A' for Active; 'I' for Inactive)
    1  A    between atoms: C_9  and  C_15
                            x       y       z     vdW  Elec       q    Type
                         _______ _______ _______ _____ _____    ______ ____

>  <TORSDO>
F 1

$$$$
=
 OpenBabel11052423113D

 27 31  0  0  1  0  0  0  0  0999 V2000
  162.8700  208.5730  152.1860 C   0  0  0  0  0  2  0  0  0  0  0  0
  161.0340  210.0850  151.6410 C   0  0  2  0  0  3  0  0  0  0  0  0
  161.9240  209.3470  149.5090 N   0  0  0  0  0  2  0  0  0  0  0  0
  160.7780  213.7120  149.7580 N   0  0  0  0  0  0  0  0  0  0  0  0
  161.7120  214.4530  147.6180 C   0  0  0  0  0  1  0  0  0  0  0  0
  160.2330  211.1150  152.2090 C   0  0  0  0  0  3  0  0  0  0  0  0
  161.9720  212.2050  148.6830 C   0  0  0  0  0  0  0  0  0  0  0  0
  160.5170  206.1800  148.1890 C   0  0  0  0  0  3  0  0  0  0  0  0
  162.7870  211.5790  147.5990 C   0  0  0  0  0  1  0  0  0  0  0  0
  160.9840  205.2230  149.0850 C   0  0  0  0  0  3  0  0  0  0  0  0
  161.5520  211.6110  149.8560 C   0  0  0  0  0  0  0  0  0  0  0  0
  161.4860  209.0990  152.4460 C   0  0  2  0  0  3  0  0  0  0  0  0
  161.5050  213.4740  148.6720 N   0  0  0  0  0  0  0  0  0  0  0  0
  160.8100  212.5770  150.4770 C   0  0  0  0  0  0  0  0  0  0  0  0
  162.7980  207.2630  151.5840 N   0  0  0  0  0  2  0  0  0  0  0  0
  161.5930  210.3010  150.3420 C   0  0  1  0  0  3  0  0  0  0  0  0
  160.8200  207.5260  148.3920 C   0  0  0  0  0  3  0  0  0  0  0  0
  160.1110  212.3350  151.6100 N   0  0  0  0  0  0  0  0  0  0  0  0
  161.7470  205.6160  150.1840 C   0  0  0  0  0  3  0  0  0  0  0  0
  162.0480  206.9640  150.4090 C   0  0  0  0  0  0  0  0  0  0  0  0
  161.5700  207.9490  149.4990 C   0  0  0  0  0  0  0  0  0  0  0  0
  159.5930  207.9330  156.1300 C   0  0  0  0  0  3  0  0  0  0  0  0
  160.8010  208.6880  153.7050 C   0  0  0  0  0  0  0  0  0  0  0  0
  160.6950  207.3320  154.0600 C   0  0  0  0  0  3  0  0  0  0  0  0
  160.0900  206.9560  155.2610 C   0  0  0  0  0  3  0  0  0  0  0  0
  159.7070  209.2850  155.7970 C   0  0  0  0  0  3  0  0  0  0  0  0
  160.3120  209.6600  154.5950 C   0  0  0  0  0  3  0  0  0  0  0  0
  1 12  1  0  0  0  0
  2  6  1  1  0  0  0
  2 12  1  0  0  0  0
  4 14  2  0  0  0  0
  5 13  1  0  0  0  0
  7 11  2  0  0  0  0
  8 17  2  0  0  0  0
  8 10  1  0  0  0  0
  9  7  1  0  0  0  0
 10 19  2  0  0  0  0
 11 16  1  0  0  0  0
 11 14  1  0  0  0  0
 12 23  1  1  0  0  0
 13  7  1  0  0  0  0
 13  4  1  0  0  0  0
 14 18  1  0  0  0  0
 15  1  1  0  0  0  0
 16  3  1  6  0  0  0
 16  2  1  0  0  0  0
 17 21  1  0  0  0  0
 18  6  2  0  0  0  0
 19 20  1  0  0  0  0
 20 15  1  0  0  0  0
 21  3  1  0  0  0  0
 21 20  2  0  0  0  0
 23 24  2  0  0  0  0
 23 27  1  0  0  0  0
 24 25  1  0  0  0  0
 25 22  2  0  0  0  0
 26 22  1  0  0  0  0
 27 26  2  0  0  0  0
M  END
>  <MODEL>
7

>  <REMARK>
 VINA RESULT:      -3.6      2.408      3.797
  Name = 
  1 active torsions:
  status: ('A' for Active; 'I' for Inactive)
    1  A    between atoms: C_9  and  C_15
                            x       y       z     vdW  Elec       q    Type
                         _______ _______ _______ _____ _____    ______ ____

>  <TORSDO>
F 1

$$$$
=
 OpenBabel11052423113D

 27 31  0  0  1  0  0  0  0  0999 V2000
  162.9850  206.9640  153.0770 C   0  0  0  0  0  2  0  0  0  0  0  0
  161.2920  208.5810  152.3880 C   0  0  2  0  0  3  0  0  0  0  0  0
  161.9000  207.3750  150.3730 N   0  0  0  0  0  2  0  0  0  0  0  0
  161.2870  211.8280  149.8920 N   0  0  0  0  0  0  0  0  0  0  0  0
  162.1060  212.0590  147.5960 C   0  0  0  0  0  1  0  0  0  0  0  0
  160.6680  209.7880  152.8090 C   0  0  0  0  0  3  0  0  0  0  0  0
  162.2010  210.0160  149.0360 C   0  0  0  0  0  0  0  0  0  0  0  0
  160.0300  204.2340  149.7530 C   0  0  0  0  0  3  0  0  0  0  0  0
  162.8410  209.1110  148.0330 C   0  0  0  0  0  1  0  0  0  0  0  0
  160.4610  203.3950  150.7760 C   0  0  0  0  0  3  0  0  0  0  0  0
  161.8210  209.6940  150.3230 C   0  0  0  0  0  0  0  0  0  0  0  0
  161.6980  207.7000  153.3280 C   0  0  2  0  0  3  0  0  0  0  0  0
  161.8830  211.3130  148.8230 N   0  0  0  0  0  0  0  0  0  0  0  0
  161.2520  210.8400  150.8040 C   0  0  0  0  0  0  0  0  0  0  0  0
  162.7100  205.5890  152.7320 N   0  0  0  0  0  2  0  0  0  0  0  0
  161.7550  208.4940  151.0370 C   0  0  1  0  0  3  0  0  0  0  0  0
  160.5010  205.5450  149.6850 C   0  0  0  0  0  3  0  0  0  0  0  0
  160.6330  210.8910  152.0060 N   0  0  0  0  0  0  0  0  0  0  0  0
  161.3590  203.8720  151.7320 C   0  0  0  0  0  3  0  0  0  0  0  0
  161.8300  205.1900  151.6840 C   0  0  0  0  0  0  0  0  0  0  0  0
  161.3890  206.0540  150.6440 C   0  0  0  0  0  0  0  0  0  0  0  0
  159.9890  207.3510  157.2610 C   0  0  0  0  0  3  0  0  0  0  0  0
  161.0850  207.6060  154.6830 C   0  0  0  0  0  0  0  0  0  0  0  0
  159.8650  206.9350  154.8790 C   0  0  0  0  0  3  0  0  0  0  0  0
  159.3170  206.8140  156.1580 C   0  0  0  0  0  3  0  0  0  0  0  0
  161.2100  208.0050  157.0830 C   0  0  0  0  0  3  0  0  0  0  0  0
  161.7580  208.1270  155.8030 C   0  0  0  0  0  3  0  0  0  0  0  0
  1 12  1  0  0  0  0
  2  6  1  1  0  0  0
  2 12  1  0  0  0  0
  3 21  1  0  0  0  0
  3 16  1  0  0  0  0
  4 14  2  0  0  0  0
  5 13  1  0  0  0  0
  7 11  2  0  0  0  0
  8 10  1  0  0  0  0
  9  7  1  0  0  0  0
 10 19  2  0  0  0  0
 11 14  1  0  0  0  0
 12 23  1  1  0  0  0
 13  7  1  0  0  0  0
 13  4  1  0  0  0  0
 14 18  1  0  0  0  0
 15  1  1  0  0  0  0
 16 11  1  6  0  0  0
 16  2  1  0  0  0  0
 17  8  2  0  0  0  0
 17 21  1  0  0  0  0
 18  6  2  0  0  0  0
 20 19  1  0  0  0  0
 20 15  1  0  0  0  0
 21 20  2  0  0  0  0
 23 24  2  0  0  0  0
 23 27  1  0  0  0  0
 24 25  1  0  0  0  0
 25 22  2  0  0  0  0
 26 22  1  0  0  0  0
 27 26  2  0  0  0  0
M  END
>  <MODEL>
8

>  <REMARK>
 VINA RESULT:      -3.3      3.217      4.532
  Name = 
  1 active torsions:
  status: ('A' for Active; 'I' for Inactive)
    1  A    between atoms: C_9  and  C_15
                            x       y       z     vdW  Elec       q    Type
                         _______ _______ _______ _____ _____    ______ ____

>  <TORSDO>
F 1

$$$$
=
 OpenBabel11052423113D

 27 31  0  0  1  0  0  0  0  0999 V2000
  163.0420  209.5320  150.0530 C   0  0  0  0  0  2  0  0  0  0  0  0
  161.2800  208.4200  151.3230 C   0  0  2  0  0  3  0  0  0  0  0  0
  161.2950  210.7160  152.1040 N   0  0  0  0  0  2  0  0  0  0  0  0
  160.7200  207.5600  155.2870 N   0  0  0  0  0  0  0  0  0  0  0  0
  160.9100  208.9980  157.2610 C   0  0  0  0  0  1  0  0  0  0  0  0
  160.8290  207.1250  151.7020 C   0  0  0  0  0  3  0  0  0  0  0  0
  161.3160  209.6400  154.8770 C   0  0  0  0  0  0  0  0  0  0  0  0
  159.2270  213.0930  150.1470 C   0  0  0  0  0  3  0  0  0  0  0  0
  161.6390  211.0780  155.1240 C   0  0  0  0  0  1  0  0  0  0  0  0
  159.8870  213.1610  148.9230 C   0  0  0  0  0  3  0  0  0  0  0  0
  161.2800  208.9940  153.6580 C   0  0  0  0  0  0  0  0  0  0  0  0
  161.8910  208.5670  150.1270 C   0  0  2  0  0  3  0  0  0  0  0  0
  160.9960  208.7390  155.8330 N   0  0  0  0  0  0  0  0  0  0  0  0
  160.8960  207.7180  153.9640 C   0  0  0  0  0  0  0  0  0  0  0  0
  162.6420  210.7270  149.3470 N   0  0  0  0  0  2  0  0  0  0  0  0
  161.3660  209.4290  152.3330 C   0  0  1  0  0  3  0  0  0  0  0  0
  159.7060  212.2460  151.1470 C   0  0  0  0  0  3  0  0  0  0  0  0
  160.6180  206.7980  153.0110 N   0  0  0  0  0  0  0  0  0  0  0  0
  161.0190  212.3780  148.7020 C   0  0  0  0  0  3  0  0  0  0  0  0
  161.5040  211.5140  149.6910 C   0  0  0  0  0  0  0  0  0  0  0  0
  160.8320  211.4350  150.9420 C   0  0  0  0  0  0  0  0  0  0  0  0
  161.2340  205.8730  146.8380 C   0  0  0  0  0  3  0  0  0  0  0  0
  161.6560  207.6610  148.9680 C   0  0  0  0  0  0  0  0  0  0  0  0
  162.6490  207.4610  147.9940 C   0  0  0  0  0  3  0  0  0  0  0  0
  162.4380  206.5790  146.9330 C   0  0  0  0  0  3  0  0  0  0  0  0
  160.2450  206.0490  147.8080 C   0  0  0  0  0  3  0  0  0  0  0  0
  160.4560  206.9340  148.8690 C   0  0  0  0  0  3  0  0  0  0  0  0
  1 12  1  0  0  0  0
  2  6  1  1  0  0  0
  2 16  1  0  0  0  0
  4 13  1  0  0  0  0
  6 18  2  0  0  0  0
  7  9  1  0  0  0  0
  7 13  1  0  0  0  0
  8 17  1  0  0  0  0
 10  8  2  0  0  0  0
 11 14  1  0  0  0  0
 11  7  2  0  0  0  0
 12 23  1  1  0  0  0
 12  2  1  0  0  0  0
 13  5  1  0  0  0  0
 14  4  2  0  0  0  0
 15 20  1  0  0  0  0
 15  1  1  0  0  0  0
 16  3  1  6  0  0  0
 16 11  1  0  0  0  0
 18 14  1  0  0  0  0
 19 10  1  0  0  0  0
 19 20  2  0  0  0  0
 20 21  1  0  0  0  0
 21 17  2  0  0  0  0
 21  3  1  0  0  0  0
 22 25  2  0  0  0  0
 22 26  1  0  0  0  0
 24 23  2  0  0  0  0
 25 24  1  0  0  0  0
 26 27  2  0  0  0  0
 27 23  1  0  0  0  0
M  END
>  <MODEL>
9

>  <REMARK>
 VINA RESULT:      -2.9      2.866      7.540
  Name = 
  1 active torsions:
  status: ('A' for Active; 'I' for Inactive)
    1  A    between atoms: C_9  and  C_15
                            x       y       z     vdW  Elec       q    Type
                         _______ _______ _______ _____ _____    ______ ____

>  <TORSDO>
F 1

$$$$
