=
 OpenBabel11052422023D

 30 34  0  0  1  0  0  0  0  0999 V2000
  160.4980  211.0450  153.5600 C   0  0  2  0  0  3  0  0  0  0  0  0
  159.8770  207.6900  154.6390 C   0  0  0  0  0  3  0  0  0  0  0  0
  161.8380  211.4660  156.0600 C   0  0  0  0  0  2  0  0  0  0  0  0
  159.0420  211.4200  153.8340 C   0  0  2  0  0  3  0  0  0  0  0  0
  160.6860  210.9110  152.0440 C   0  0  0  0  0  2  0  0  0  0  0  0
  155.2820  213.5320  154.5080 C   0  0  0  0  0  2  0  0  0  0  0  0
  158.9430  212.7750  151.7420 C   0  0  1  0  0  3  0  0  0  0  0  0
  158.6660  212.6560  156.0930 C   0  0  1  0  0  3  0  0  0  0  0  0
  160.1110  213.0090  156.4620 C   0  0  0  0  0  2  0  0  0  0  0  0
  160.3240  212.2260  151.3300 C   0  0  0  0  0  2  0  0  0  0  0  0
  158.8840  212.8300  153.2700 C   0  0  1  0  0  3  0  0  0  0  0  0
  160.1550  207.3690  155.9010 C   0  0  0  0  0  3  0  0  0  0  0  0
  158.0580  213.8010  155.3700 N   0  0  2  0  0  0  0  0  0  0  0  0
  155.6640  213.5590  155.9760 C   0  0  0  0  0  2  0  0  0  0  0  0
  160.8120  208.4890  153.7970 C   0  0  0  0  0  2  0  0  0  0  0  0
  161.5890  210.0660  155.5600 C   0  0  0  0  0  0  0  0  0  0  0  0
  161.3580  207.8130  156.6300 C   0  0  0  0  0  3  0  0  0  0  0  0
  161.0000  209.8660  154.3570 C   0  0  0  0  0  0  0  0  0  0  0  0
  158.2980  210.3390  155.8040 O   0  0  0  0  0  0  0  0  0  0  0  0
  160.8150  211.8590  157.0230 N   0  0  0  0  0  2  0  0  0  0  0  0
  158.6460  211.3880  155.2850 C   0  0  0  0  0  0  0  0  0  0  0  0
  156.9460  214.3680  156.1410 C   0  0  0  0  0  2  0  0  0  0  0  0
  156.3930  212.8630  153.7190 C   0  0  0  0  0  2  0  0  0  0  0  0
  162.0310  208.9590  156.4480 C   0  0  0  0  0  0  0  0  0  0  0  0
  163.0930  209.1840  157.2610 F   0  0  0  0  0  0  0  0  0  0  0  0
  157.7290  213.5930  153.9310 C   0  0  2  0  0  3  0  0  0  0  0  0
  158.7520  214.1620  151.1420 C   0  0  0  0  0  2  0  0  0  0  0  0
  158.3850  214.0780  149.6700 C   0  0  0  0  0  2  0  0  0  0  0  0
  157.0780  213.3280  149.4960 C   0  0  0  0  0  2  0  0  0  0  0  0
  155.9550  214.1160  150.1390 C   0  0  0  0  0  1  0  0  0  0  0  0
  1  5  1  6  0  0  0
  1  4  1  0  0  0  0
  1 18  1  0  0  0  0
  2 12  2  0  0  0  0
  3 20  1  0  0  0  0
  4 21  1  1  0  0  0
  6 14  1  0  0  0  0
  7 27  1  6  0  0  0
  7 11  1  0  0  0  0
  8  9  1  6  0  0  0
  9 20  1  0  0  0  0
 10  7  1  0  0  0  0
 10  5  1  0  0  0  0
 11  4  1  0  0  0  0
 11 26  1  0  0  0  0
 12 17  1  0  0  0  0
 13  8  1  0  0  0  0
 13 22  1  0  0  0  0
 14 22  1  0  0  0  0
 15 18  1  0  0  0  0
 15  2  1  0  0  0  0
 16  3  1  0  0  0  0
 16 24  1  0  0  0  0
 18 16  2  0  0  0  0
 21 19  2  0  0  0  0
 21  8  1  0  0  0  0
 23 26  1  0  0  0  0
 23  6  1  0  0  0  0
 24 17  2  0  0  0  0
 24 25  1  0  0  0  0
 26 13  1  0  0  0  0
 28 27  1  0  0  0  0
 29 28  1  0  0  0  0
 29 30  1  0  0  0  0
M  END
>  <MODEL>
1

>  <REMARK>
 VINA RESULT:      -5.1      0.000      0.000
  Name = 
  3 active torsions:
  status: ('A' for Active; 'I' for Inactive)
    1  A    between atoms: C_6  and  C_8
    2  A    between atoms: C_6  and  C_21
    3  A    between atoms: C_9  and  C_21
                            x       y       z     vdW  Elec       q    Type
                         _______ _______ _______ _____ _____    ______ ____

>  <TORSDO>
F 3

$$$$
=
 OpenBabel11052422023D

 30 34  0  0  1  0  0  0  0  0999 V2000
  160.9570  210.6310  153.2340 C   0  0  2  0  0  3  0  0  0  0  0  0
  159.9720  207.4480  154.5410 C   0  0  0  0  0  3  0  0  0  0  0  0
  162.1650  211.1600  155.7800 C   0  0  0  0  0  2  0  0  0  0  0  0
  159.5250  211.1480  153.3710 C   0  0  2  0  0  3  0  0  0  0  0  0
  161.2300  210.3470  151.7520 C   0  0  0  0  0  2  0  0  0  0  0  0
  155.9310  213.6150  153.5930 C   0  0  0  0  0  2  0  0  0  0  0  0
  159.6820  212.3150  151.1720 C   0  0  1  0  0  3  0  0  0  0  0  0
  159.1150  212.6070  155.4860 C   0  0  1  0  0  3  0  0  0  0  0  0
  160.5590  212.8710  155.9280 C   0  0  0  0  0  2  0  0  0  0  0  0
  161.0330  211.6190  150.9070 C   0  0  0  0  0  2  0  0  0  0  0  0
  159.5300  212.5100  152.6810 C   0  0  1  0  0  3  0  0  0  0  0  0
  160.1380  207.2190  155.8410 C   0  0  0  0  0  3  0  0  0  0  0  0
  158.6600  213.7290  154.6280 N   0  0  2  0  0  0  0  0  0  0  0  0
  156.2190  213.7420  155.0780 C   0  0  0  0  0  2  0  0  0  0  0  0
  161.0270  208.0890  153.7050 C   0  0  0  0  0  2  0  0  0  0  0  0
  161.8250  209.7460  155.3820 C   0  0  0  0  0  0  0  0  0  0  0  0
  161.3270  207.6250  156.6160 C   0  0  0  0  0  3  0  0  0  0  0  0
  161.3000  209.4900  154.1600 C   0  0  0  0  0  0  0  0  0  0  0  0
  158.5620  210.3120  155.3650 O   0  0  0  0  0  0  0  0  0  0  0  0
  161.1200  211.7210  156.6310 N   0  0  0  0  0  2  0  0  0  0  0  0
  159.0350  211.2780  154.7860 C   0  0  0  0  0  0  0  0  0  0  0  0
  157.5540  214.4530  155.2680 C   0  0  0  0  0  2  0  0  0  0  0  0
  157.0280  212.7890  152.9450 C   0  0  0  0  0  2  0  0  0  0  0  0
  162.1090  208.6900  156.3890 C   0  0  0  0  0  0  0  0  0  0  0  0
  163.1320  208.8980  157.2540 F   0  0  0  0  0  0  0  0  0  0  0  0
  158.4070  213.4220  153.1920 C   0  0  2  0  0  3  0  0  0  0  0  0
  159.6550  213.6540  150.4460 C   0  0  0  0  0  2  0  0  0  0  0  0
  160.9850  213.9370  149.7670 C   0  0  0  0  0  2  0  0  0  0  0  0
  160.9240  213.5380  148.3050 C   0  0  0  0  0  2  0  0  0  0  0  0
  161.9840  214.2930  147.5310 C   0  0  0  0  0  1  0  0  0  0  0  0
  1  5  1  6  0  0  0
  1  4  1  0  0  0  0
  1 18  1  0  0  0  0
  2 12  2  0  0  0  0
  3 20  1  0  0  0  0
  4 21  1  1  0  0  0
  6 14  1  0  0  0  0
  7 27  1  6  0  0  0
  7 11  1  0  0  0  0
  8  9  1  6  0  0  0
  9 20  1  0  0  0  0
 10  7  1  0  0  0  0
 10  5  1  0  0  0  0
 11 26  1  0  0  0  0
 11  4  1  0  0  0  0
 12 17  1  0  0  0  0
 13 22  1  0  0  0  0
 13  8  1  0  0  0  0
 14 22  1  0  0  0  0
 15 18  1  0  0  0  0
 15  2  1  0  0  0  0
 16  3  1  0  0  0  0
 16 24  1  0  0  0  0
 18 16  2  0  0  0  0
 21 19  2  0  0  0  0
 21  8  1  0  0  0  0
 23 26  1  0  0  0  0
 23  6  1  0  0  0  0
 24 17  2  0  0  0  0
 24 25  1  0  0  0  0
 26 13  1  0  0  0  0
 28 27  1  0  0  0  0
 29 28  1  0  0  0  0
 30 29  1  0  0  0  0
M  END
>  <MODEL>
2

>  <REMARK>
 VINA RESULT:      -3.4      1.245      1.656
  Name = 
  3 active torsions:
  status: ('A' for Active; 'I' for Inactive)
    1  A    between atoms: C_6  and  C_8
    2  A    between atoms: C_6  and  C_21
    3  A    between atoms: C_9  and  C_21
                            x       y       z     vdW  Elec       q    Type
                         _______ _______ _______ _____ _____    ______ ____

>  <TORSDO>
F 3

$$$$
=
 OpenBabel11052422023D

 30 34  0  0  1  0  0  0  0  0999 V2000
  160.8400  208.0240  154.3820 C   0  0  2  0  0  3  0  0  0  0  0  0
  157.9750  210.1180  154.8550 C   0  0  0  0  0  3  0  0  0  0  0  0
  162.4540  210.3580  154.7970 C   0  0  0  0  0  2  0  0  0  0  0  0
  160.5880  207.9920  152.8750 C   0  0  2  0  0  3  0  0  0  0  0  0
  160.4080  206.6770  154.9750 C   0  0  0  0  0  2  0  0  0  0  0  0
  160.9070  207.4830  148.5520 C   0  0  0  0  0  2  0  0  0  0  0  0
  161.1520  205.5650  152.7810 C   0  0  1  0  0  3  0  0  0  0  0  0
  162.0760  209.6330  151.5090 C   0  0  1  0  0  3  0  0  0  0  0  0
  163.1160  210.0140  152.5680 C   0  0  0  0  0  2  0  0  0  0  0  0
  161.1860  205.5200  154.3210 C   0  0  0  0  0  2  0  0  0  0  0  0
  161.5760  206.9640  152.3320 C   0  0  1  0  0  3  0  0  0  0  0  0
  158.1570  211.4350  154.9150 C   0  0  0  0  0  3  0  0  0  0  0  0
  162.5960  208.4980  150.7060 N   0  0  2  0  0  0  0  0  0  0  0  0
  161.4870  208.8850  148.5200 C   0  0  0  0  0  2  0  0  0  0  0  0
  158.8530  209.1600  155.5870 C   0  0  0  0  0  2  0  0  0  0  0  0
  161.0130  210.3460  155.2370 C   0  0  0  0  0  0  0  0  0  0  0  0
  159.2630  212.0930  155.6350 C   0  0  0  0  0  3  0  0  0  0  0  0
  160.2630  209.2280  155.0860 C   0  0  0  0  0  0  0  0  0  0  0  0
  159.8510  210.1200  152.1440 O   0  0  0  0  0  0  0  0  0  0  0  0
  162.5910  211.0090  153.4990 N   0  0  0  0  0  2  0  0  0  0  0  0
  160.7670  209.3130  152.1780 C   0  0  0  0  0  0  0  0  0  0  0  0
  162.7920  208.9010  149.3090 C   0  0  0  0  0  2  0  0  0  0  0  0
  160.6190  207.1000  149.9920 C   0  0  0  0  0  2  0  0  0  0  0  0
  160.4950  211.6040  155.8380 C   0  0  0  0  0  0  0  0  0  0  0  0
  161.3730  212.4000  156.4960 F   0  0  0  0  0  0  0  0  0  0  0  0
  161.8930  207.1920  150.8480 C   0  0  2  0  0  3  0  0  0  0  0  0
  162.0980  204.5070  152.2250 C   0  0  0  0  0  2  0  0  0  0  0  0
  161.3350  203.2730  151.7720 C   0  0  0  0  0  2  0  0  0  0  0  0
  160.3650  203.6330  150.6630 C   0  0  0  0  0  2  0  0  0  0  0  0
  161.0560  203.4940  149.3230 C   0  0  0  0  0  1  0  0  0  0  0  0
  1  5  1  1  0  0  0
  1 18  1  0  0  0  0
  2 12  2  0  0  0  0
  2 15  1  0  0  0  0
  3 16  1  0  0  0  0
  4 21  1  6  0  0  0
  4  1  1  0  0  0  0
  6 23  1  0  0  0  0
  7 27  1  6  0  0  0
  7 10  1  0  0  0  0
  8 21  1  0  0  0  0
  8  9  1  1  0  0  0
  9 20  1  0  0  0  0
 10  5  1  0  0  0  0
 11  7  1  0  0  0  0
 11  4  1  0  0  0  0
 12 17  1  0  0  0  0
 13 26  1  0  0  0  0
 13  8  1  0  0  0  0
 14  6  1  0  0  0  0
 14 22  1  0  0  0  0
 16 24  1  0  0  0  0
 17 24  2  0  0  0  0
 18 16  2  0  0  0  0
 18 15  1  0  0  0  0
 19 21  2  0  0  0  0
 20  3  1  0  0  0  0
 22 13  1  0  0  0  0
 23 26  1  0  0  0  0
 24 25  1  0  0  0  0
 26 11  1  0  0  0  0
 28 27  1  0  0  0  0
 29 28  1  0  0  0  0
 30 29  1  0  0  0  0
M  END
>  <MODEL>
3

>  <REMARK>
 VINA RESULT:      -3.3      3.481      6.913
  Name = 
  3 active torsions:
  status: ('A' for Active; 'I' for Inactive)
    1  A    between atoms: C_6  and  C_8
    2  A    between atoms: C_6  and  C_21
    3  A    between atoms: C_9  and  C_21
                            x       y       z     vdW  Elec       q    Type
                         _______ _______ _______ _____ _____    ______ ____

>  <TORSDO>
F 3

$$$$
=
 OpenBabel11052422023D

 30 34  0  0  1  0  0  0  0  0999 V2000
  161.2720  213.6300  141.3540 C   0  0  2  0  0  3  0  0  0  0  0  0
  161.0440  212.3020  144.6700 C   0  0  0  0  0  3  0  0  0  0  0  0
  158.4210  213.9360  141.4180 C   0  0  0  0  0  2  0  0  0  0  0  0
  161.4970  212.2270  140.7910 C   0  0  2  0  0  3  0  0  0  0  0  0
  162.6130  214.3740  141.3520 C   0  0  0  0  0  2  0  0  0  0  0  0
  161.9290  208.7340  138.2090 C   0  0  0  0  0  2  0  0  0  0  0  0
  163.2350  213.0810  139.2200 C   0  0  1  0  0  3  0  0  0  0  0  0
  159.3700  211.1360  139.7630 C   0  0  1  0  0  3  0  0  0  0  0  0
  158.4430  212.3540  139.6800 C   0  0  0  0  0  2  0  0  0  0  0  0
  163.1910  214.4510  139.9270 C   0  0  0  0  0  2  0  0  0  0  0  0
  161.8480  212.4440  139.3210 C   0  0  1  0  0  3  0  0  0  0  0  0
  159.8370  212.0370  145.1640 C   0  0  0  0  0  3  0  0  0  0  0  0
  160.0750  210.9740  138.4670 N   0  0  2  0  0  0  0  0  0  0  0  0
  160.4390  208.5200  138.4000 C   0  0  0  0  0  2  0  0  0  0  0  0
  161.3440  213.5660  143.9390 C   0  0  0  0  0  2  0  0  0  0  0  0
  159.1930  213.7580  142.7010 C   0  0  0  0  0  0  0  0  0  0  0  0
  158.6550  212.9040  144.9930 C   0  0  0  0  0  3  0  0  0  0  0  0
  160.5440  213.6620  142.6760 C   0  0  0  0  0  0  0  0  0  0  0  0
  160.1380  210.6740  141.9510 O   0  0  0  0  0  0  0  0  0  0  0  0
  157.8540  212.6660  140.9780 N   0  0  0  0  0  2  0  0  0  0  0  0
  160.3190  211.3000  140.9180 C   0  0  0  0  0  0  0  0  0  0  0  0
  159.6870  209.7140  137.8210 C   0  0  0  0  0  2  0  0  0  0  0  0
  162.3490  209.9890  138.9520 C   0  0  0  0  0  2  0  0  0  0  0  0
  158.3920  213.7070  143.9530 C   0  0  0  0  0  0  0  0  0  0  0  0
  157.2210  214.3900  143.9830 F   0  0  0  0  0  0  0  0  0  0  0  0
  161.5470  211.2070  138.4640 C   0  0  2  0  0  3  0  0  0  0  0  0
  163.6340  213.2800  137.7620 C   0  0  0  0  0  2  0  0  0  0  0  0
  165.1270  213.5370  137.6330 C   0  0  0  0  0  2  0  0  0  0  0  0
  165.6860  214.0580  138.9430 C   0  0  0  0  0  2  0  0  0  0  0  0
  167.1360  214.4500  138.7520 C   0  0  0  0  0  1  0  0  0  0  0  0
  1  5  1  1  0  0  0
  1 18  1  0  0  0  0
  2 12  2  0  0  0  0
  3 16  1  0  0  0  0
  4 21  1  6  0  0  0
  4  1  1  0  0  0  0
  6 14  1  0  0  0  0
  6 23  1  0  0  0  0
  7 27  1  6  0  0  0
  7 11  1  0  0  0  0
  7 10  1  0  0  0  0
  8  9  1  6  0  0  0
  8 21  1  0  0  0  0
  9 20  1  0  0  0  0
 10  5  1  0  0  0  0
 11  4  1  0  0  0  0
 13  8  1  0  0  0  0
 15  2  1  0  0  0  0
 16 24  1  0  0  0  0
 17 12  1  0  0  0  0
 18 16  2  0  0  0  0
 18 15  1  0  0  0  0
 20  3  1  0  0  0  0
 21 19  2  0  0  0  0
 22 14  1  0  0  0  0
 22 13  1  0  0  0  0
 24 25  1  0  0  0  0
 24 17  2  0  0  0  0
 26 13  1  0  0  0  0
 26 23  1  0  0  0  0
 26 11  1  0  0  0  0
 28 27  1  0  0  0  0
 28 29  1  0  0  0  0
 30 29  1  0  0  0  0
M  END
>  <MODEL>
4

>  <REMARK>
 VINA RESULT:      -2.2     11.096     14.684
  Name = 
  3 active torsions:
  status: ('A' for Active; 'I' for Inactive)
    1  A    between atoms: C_6  and  C_8
    2  A    between atoms: C_6  and  C_21
    3  A    between atoms: C_9  and  C_21
                            x       y       z     vdW  Elec       q    Type
                         _______ _______ _______ _____ _____    ______ ____

>  <TORSDO>
F 3

$$$$
