=
 OpenBabel11052423163D

 27 31  0  0  1  0  0  0  0  0999 V2000
  160.7540  207.5850  152.2830 O   0  0  0  0  0  0  0  0  0  0  0  0
  161.3130  209.9520  152.6490 C   0  0  1  0  0  3  0  0  0  0  0  0
  162.7610  209.1900  150.7080 C   0  0  0  0  0  2  0  0  0  0  0  0
  159.6740  212.9220  150.1550 N   0  0  0  0  0  0  0  0  0  0  0  0
  159.8330  214.4520  148.3770 F   0  0  0  0  0  0  0  0  0  0  0  0
  159.8860  210.4390  152.7700 C   0  0  0  0  0  3  0  0  0  0  0  0
  162.0700  211.7600  149.4070 C   0  0  0  0  0  3  0  0  0  0  0  0
  161.4760  206.6250  148.2730 C   0  0  0  0  0  0  0  0  0  0  0  0
  161.5550  212.8350  148.6820 C   0  0  0  0  0  3  0  0  0  0  0  0
  161.7360  206.1770  146.6000 Cl  0  0  0  0  0  0  0  0  0  0  0  0
  161.3740  211.2800  150.5230 C   0  0  0  0  0  0  0  0  0  0  0  0
  161.4870  208.4950  153.1040 C   0  0  1  0  0  3  0  0  0  0  0  0
  160.3440  213.4110  149.0760 C   0  0  0  0  0  0  0  0  0  0  0  0
  160.1630  211.8820  150.8840 C   0  0  0  0  0  0  0  0  0  0  0  0
  161.0410  207.3100  150.9370 C   0  0  0  0  0  0  0  0  0  0  0  0
  161.8470  210.1650  151.2950 N   0  0  0  0  0  0  0  0  0  0  0  0
  162.1950  207.6810  148.8300 C   0  0  0  0  0  3  0  0  0  0  0  0
  159.4060  211.3500  151.9770 N   0  0  0  0  0  0  0  0  0  0  0  0
  160.5690  205.9460  149.0230 N   0  0  0  0  0  0  0  0  0  0  0  0
  160.3410  206.2650  150.3250 C   0  0  0  0  0  3  0  0  0  0  0  0
  161.9830  208.0330  150.1640 C   0  0  0  0  0  0  0  0  0  0  0  0
  160.5750  207.8780  157.2600 C   0  0  0  0  0  3  0  0  0  0  0  0
  161.1630  208.3030  154.5550 C   0  0  0  0  0  0  0  0  0  0  0  0
  160.4010  207.1950  154.9440 C   0  0  0  0  0  3  0  0  0  0  0  0
  160.1050  206.9830  156.2940 C   0  0  0  0  0  3  0  0  0  0  0  0
  161.3410  208.9810  156.8790 C   0  0  0  0  0  3  0  0  0  0  0  0
  161.6380  209.1930  155.5290 C   0  0  0  0  0  3  0  0  0  0  0  0
  1 12  1  0  0  0  0
  2  6  1  6  0  0  0
  2 12  1  0  0  0  0
  3 16  1  0  0  0  0
  4 14  2  0  0  0  0
  5 13  1  0  0  0  0
  7 11  2  0  0  0  0
  8 17  2  0  0  0  0
  8 19  1  0  0  0  0
  9 13  2  0  0  0  0
  9  7  1  0  0  0  0
 10  8  1  0  0  0  0
 11 14  1  0  0  0  0
 11 16  1  0  0  0  0
 12 23  1  1  0  0  0
 13  4  1  0  0  0  0
 14 18  1  0  0  0  0
 15  1  1  0  0  0  0
 16  2  1  0  0  0  0
 17 21  1  0  0  0  0
 18  6  2  0  0  0  0
 19 20  2  0  0  0  0
 20 15  1  0  0  0  0
 21  3  1  0  0  0  0
 21 15  2  0  0  0  0
 23 24  2  0  0  0  0
 23 27  1  0  0  0  0
 24 25  1  0  0  0  0
 25 22  2  0  0  0  0
 26 22  1  0  0  0  0
 27 26  2  0  0  0  0
M  END
>  <MODEL>
1

>  <REMARK>
 VINA RESULT:      -5.7      0.000      0.000
  Name = 
  1 active torsions:
  status: ('A' for Active; 'I' for Inactive)
    1  A    between atoms: C_9  and  C_15
                            x       y       z     vdW  Elec       q    Type
                         _______ _______ _______ _____ _____    ______ ____

>  <TORSDO>
F 1

$$$$
=
 OpenBabel11052423163D

 27 31  0  0  1  0  0  0  0  0999 V2000
  160.7550  211.3960  150.4650 O   0  0  0  0  0  0  0  0  0  0  0  0
  162.2780  209.6090  149.7320 C   0  0  1  0  0  3  0  0  0  0  0  0
  162.5170  209.7310  152.2570 C   0  0  0  0  0  2  0  0  0  0  0  0
  161.1420  205.5730  150.1170 N   0  0  0  0  0  0  0  0  0  0  0  0
  161.2320  203.4910  151.2050 F   0  0  0  0  0  0  0  0  0  0  0  0
  161.2970  208.9330  148.7990 C   0  0  0  0  0  3  0  0  0  0  0  0
  162.4590  206.7700  152.2330 C   0  0  0  0  0  3  0  0  0  0  0  0
  159.5610  210.6290  154.4040 C   0  0  0  0  0  0  0  0  0  0  0  0
  162.1780  205.4030  152.2640 C   0  0  0  0  0  3  0  0  0  0  0  0
  159.0090  210.3420  156.0410 Cl  0  0  0  0  0  0  0  0  0  0  0  0
  162.0820  207.5300  151.1200 C   0  0  0  0  0  0  0  0  0  0  0  0
  162.0240  211.1180  149.8720 C   0  0  1  0  0  3  0  0  0  0  0  0
  161.5140  204.8160  151.1840 C   0  0  0  0  0  0  0  0  0  0  0  0
  161.4150  206.9040  150.0600 C   0  0  0  0  0  0  0  0  0  0  0  0
  160.4100  211.1070  151.7950 C   0  0  0  0  0  0  0  0  0  0  0  0
  162.3290  208.9430  151.0420 N   0  0  0  0  0  0  0  0  0  0  0  0
  160.7800  210.1050  153.9780 C   0  0  0  0  0  3  0  0  0  0  0  0
  160.9570  207.6880  148.9510 N   0  0  0  0  0  0  0  0  0  0  0  0
  158.7960  211.3580  153.5490 N   0  0  0  0  0  0  0  0  0  0  0  0
  159.1930  211.6020  152.2710 C   0  0  0  0  0  3  0  0  0  0  0  0
  161.2140  210.3370  152.6720 C   0  0  0  0  0  0  0  0  0  0  0  0
  162.4680  213.2740  146.1790 C   0  0  0  0  0  3  0  0  0  0  0  0
  162.1940  211.8530  148.5780 C   0  0  0  0  0  0  0  0  0  0  0  0
  161.0610  212.3330  147.9100 C   0  0  0  0  0  3  0  0  0  0  0  0
  161.1970  213.0400  146.7120 C   0  0  0  0  0  3  0  0  0  0  0  0
  163.6030  212.8040  146.8440 C   0  0  0  0  0  3  0  0  0  0  0  0
  163.4680  212.0970  148.0420 C   0  0  0  0  0  3  0  0  0  0  0  0
  1 15  1  0  0  0  0
  2  6  1  6  0  0  0
  2 12  1  0  0  0  0
  2 16  1  0  0  0  0
  3 21  1  0  0  0  0
  4 13  1  0  0  0  0
  6 18  2  0  0  0  0
  7  9  1  0  0  0  0
  8 10  1  0  0  0  0
 11  7  2  0  0  0  0
 12 23  1  6  0  0  0
 12  1  1  0  0  0  0
 13  5  1  0  0  0  0
 13  9  2  0  0  0  0
 14  4  2  0  0  0  0
 14 11  1  0  0  0  0
 15 20  2  0  0  0  0
 15 21  1  0  0  0  0
 16 11  1  0  0  0  0
 16  3  1  0  0  0  0
 17  8  1  0  0  0  0
 18 14  1  0  0  0  0
 19  8  2  0  0  0  0
 20 19  1  0  0  0  0
 21 17  2  0  0  0  0
 22 25  2  0  0  0  0
 22 26  1  0  0  0  0
 24 23  2  0  0  0  0
 25 24  1  0  0  0  0
 26 27  2  0  0  0  0
 27 23  1  0  0  0  0
M  END
>  <MODEL>
2

>  <REMARK>
 VINA RESULT:      -5.4      3.675      7.259
  Name = 
  1 active torsions:
  status: ('A' for Active; 'I' for Inactive)
    1  A    between atoms: C_9  and  C_15
                            x       y       z     vdW  Elec       q    Type
                         _______ _______ _______ _____ _____    ______ ____

>  <TORSDO>
F 1

$$$$
=
 OpenBabel11052423163D

 27 31  0  0  1  0  0  0  0  0999 V2000
  157.4420  213.6730  152.1990 O   0  0  0  0  0  0  0  0  0  0  0  0
  159.6790  212.8060  152.7410 C   0  0  1  0  0  3  0  0  0  0  0  0
  158.9360  214.1260  154.7790 C   0  0  0  0  0  2  0  0  0  0  0  0
  160.0950  209.4100  155.1940 N   0  0  0  0  0  0  0  0  0  0  0  0
  160.5690  208.3930  157.2600 F   0  0  0  0  0  0  0  0  0  0  0  0
  159.4300  211.3970  152.2520 C   0  0  0  0  0  3  0  0  0  0  0  0
  160.0120  211.8960  156.4030 C   0  0  0  0  0  3  0  0  0  0  0  0
  155.3030  214.2240  155.7560 C   0  0  0  0  0  0  0  0  0  0  0  0
  160.2770  210.7550  157.1620 C   0  0  0  0  0  3  0  0  0  0  0  0
  154.3560  214.4470  157.2110 Cl  0  0  0  0  0  0  0  0  0  0  0  0
  159.8010  211.7780  155.0250 C   0  0  0  0  0  0  0  0  0  0  0  0
  158.8430  213.8550  151.9910 C   0  0  1  0  0  3  0  0  0  0  0  0
  160.3170  209.5080  156.5330 C   0  0  0  0  0  0  0  0  0  0  0  0
  159.8460  210.5100  154.4330 C   0  0  0  0  0  0  0  0  0  0  0  0
  156.7810  213.8670  153.4230 C   0  0  0  0  0  0  0  0  0  0  0  0
  159.5060  212.9150  154.1980 N   0  0  0  0  0  0  0  0  0  0  0  0
  156.6950  214.2720  155.8180 C   0  0  0  0  0  3  0  0  0  0  0  0
  159.5560  210.3690  153.0370 N   0  0  0  0  0  0  0  0  0  0  0  0
  154.6810  213.9970  154.5700 N   0  0  0  0  0  0  0  0  0  0  0  0
  155.3840  213.8200  153.4200 C   0  0  0  0  0  3  0  0  0  0  0  0
  157.4450  214.0910  154.6550 C   0  0  0  0  0  0  0  0  0  0  0  0
  159.7360  214.0730  147.7910 C   0  0  0  0  0  3  0  0  0  0  0  0
  159.1740  213.9180  150.5310 C   0  0  0  0  0  0  0  0  0  0  0  0
  158.1620  213.6920  149.5910 C   0  0  0  0  0  3  0  0  0  0  0  0
  158.4420  213.7660  148.2230 C   0  0  0  0  0  3  0  0  0  0  0  0
  160.7490  214.3060  148.7250 C   0  0  0  0  0  3  0  0  0  0  0  0
  160.4690  214.2320  150.0920 C   0  0  0  0  0  3  0  0  0  0  0  0
  1 15  1  0  0  0  0
  2  6  1  6  0  0  0
  2 16  1  0  0  0  0
  4 13  1  0  0  0  0
  6 18  2  0  0  0  0
  7  9  1  0  0  0  0
  8 17  1  0  0  0  0
  8 10  1  0  0  0  0
 11  7  2  0  0  0  0
 12 23  1  6  0  0  0
 12  1  1  0  0  0  0
 12  2  1  0  0  0  0
 13  9  2  0  0  0  0
 13  5  1  0  0  0  0
 14 11  1  0  0  0  0
 14  4  2  0  0  0  0
 15 21  1  0  0  0  0
 16  3  1  0  0  0  0
 16 11  1  0  0  0  0
 18 14  1  0  0  0  0
 19  8  2  0  0  0  0
 20 15  2  0  0  0  0
 20 19  1  0  0  0  0
 21  3  1  0  0  0  0
 21 17  2  0  0  0  0
 22 25  2  0  0  0  0
 22 26  1  0  0  0  0
 24 23  2  0  0  0  0
 25 24  1  0  0  0  0
 26 27  2  0  0  0  0
 27 23  1  0  0  0  0
M  END
>  <MODEL>
3

>  <REMARK>
 VINA RESULT:      -4.5      5.076      8.537
  Name = 
  1 active torsions:
  status: ('A' for Active; 'I' for Inactive)
    1  A    between atoms: C_9  and  C_15
                            x       y       z     vdW  Elec       q    Type
                         _______ _______ _______ _____ _____    ______ ____

>  <TORSDO>
F 1

$$$$
=
 OpenBabel11052423163D

 27 31  0  0  1  0  0  0  0  0999 V2000
  157.9350  213.0350  140.7530 O   0  0  0  0  0  0  0  0  0  0  0  0
  158.2520  212.1100  138.4960 C   0  0  1  0  0  3  0  0  0  0  0  0
  160.4980  213.0870  139.1660 C   0  0  0  0  0  2  0  0  0  0  0  0
  160.1230  208.3730  137.9860 N   0  0  0  0  0  0  0  0  0  0  0  0
  161.9840  207.0470  137.4350 F   0  0  0  0  0  0  0  0  0  0  0  0
  157.5560  210.7940  138.7610 C   0  0  0  0  0  3  0  0  0  0  0  0
  161.7110  210.6360  138.0270 C   0  0  0  0  0  3  0  0  0  0  0  0
  161.6090  213.0030  142.7600 C   0  0  0  0  0  0  0  0  0  0  0  0
  162.2700  209.3920  137.7330 C   0  0  0  0  0  3  0  0  0  0  0  0
  163.1150  212.9880  143.6540 Cl  0  0  0  0  0  0  0  0  0  0  0  0
  160.3390  210.7350  138.2890 C   0  0  0  0  0  0  0  0  0  0  0  0
  157.7080  213.2570  139.3610 C   0  0  1  0  0  3  0  0  0  0  0  0
  161.4510  208.2600  137.7150 C   0  0  0  0  0  0  0  0  0  0  0  0
  159.5540  209.5760  138.2640 C   0  0  0  0  0  0  0  0  0  0  0  0
  159.1970  213.0280  141.3690 C   0  0  0  0  0  0  0  0  0  0  0  0
  159.7130  211.9860  138.6160 N   0  0  0  0  0  0  0  0  0  0  0  0
  161.6280  213.0510  141.3670 C   0  0  0  0  0  3  0  0  0  0  0  0
  158.1650  209.6560  138.6060 N   0  0  0  0  0  0  0  0  0  0  0  0
  160.4260  212.9620  143.4250 N   0  0  0  0  0  0  0  0  0  0  0  0
  159.2370  212.9730  142.7650 C   0  0  0  0  0  3  0  0  0  0  0  0
  160.4240  213.0610  140.6600 C   0  0  0  0  0  0  0  0  0  0  0  0
  153.5720  214.0650  138.5100 C   0  0  0  0  0  3  0  0  0  0  0  0
  156.2650  213.5510  139.0850 C   0  0  0  0  0  0  0  0  0  0  0  0
  155.8880  213.9870  137.8090 C   0  0  0  0  0  3  0  0  0  0  0  0
  154.5440  214.2470  137.5220 C   0  0  0  0  0  3  0  0  0  0  0  0
  153.9400  213.6230  139.7830 C   0  0  0  0  0  3  0  0  0  0  0  0
  155.2840  213.3640  140.0700 C   0  0  0  0  0  3  0  0  0  0  0  0
  1 15  1  0  0  0  0
  2 16  1  0  0  0  0
  2  6  1  1  0  0  0
  2 12  1  0  0  0  0
  3 21  1  0  0  0  0
  4 14  2  0  0  0  0
  5 13  1  0  0  0  0
  7 11  2  0  0  0  0
  8 19  1  0  0  0  0
  8 10  1  0  0  0  0
  9  7  1  0  0  0  0
 11 16  1  0  0  0  0
 12 23  1  1  0  0  0
 12  1  1  0  0  0  0
 13  9  2  0  0  0  0
 13  4  1  0  0  0  0
 14 11  1  0  0  0  0
 14 18  1  0  0  0  0
 15 20  1  0  0  0  0
 16  3  1  0  0  0  0
 17  8  2  0  0  0  0
 18  6  2  0  0  0  0
 20 19  2  0  0  0  0
 21 17  1  0  0  0  0
 21 15  2  0  0  0  0
 22 26  1  0  0  0  0
 23 27  1  0  0  0  0
 24 23  2  0  0  0  0
 25 24  1  0  0  0  0
 25 22  2  0  0  0  0
 26 27  2  0  0  0  0
M  END
>  <MODEL>
4

>  <REMARK>
 VINA RESULT:      -4.2     10.488     13.926
  Name = 
  1 active torsions:
  status: ('A' for Active; 'I' for Inactive)
    1  A    between atoms: C_9  and  C_15
                            x       y       z     vdW  Elec       q    Type
                         _______ _______ _______ _____ _____    ______ ____

>  <TORSDO>
F 1

$$$$
=
 OpenBabel11052423163D

 27 31  0  0  1  0  0  0  0  0999 V2000
  159.2020  211.8700  141.1030 O   0  0  0  0  0  0  0  0  0  0  0  0
  160.3160  212.5620  139.0220 C   0  0  1  0  0  3  0  0  0  0  0  0
  160.7470  214.4260  140.6910 C   0  0  0  0  0  2  0  0  0  0  0  0
  164.4780  212.0930  138.5940 N   0  0  0  0  0  0  0  0  0  0  0  0
  166.6670  212.9490  138.5800 F   0  0  0  0  0  0  0  0  0  0  0  0
  160.9730  211.2300  138.7390 C   0  0  0  0  0  3  0  0  0  0  0  0
  163.5310  214.4530  139.6810 C   0  0  0  0  0  3  0  0  0  0  0  0
  161.1680  213.6420  144.3470 C   0  0  0  0  0  0  0  0  0  0  0  0
  164.8900  214.3050  139.4020 C   0  0  0  0  0  3  0  0  0  0  0  0
  161.9710  214.3360  145.7400 Cl  0  0  0  0  0  0  0  0  0  0  0  0
  162.6470  213.4060  139.3970 C   0  0  0  0  0  0  0  0  0  0  0  0
  158.9990  212.4240  139.8020 C   0  0  1  0  0  3  0  0  0  0  0  0
  165.3490  213.1060  138.8510 C   0  0  0  0  0  0  0  0  0  0  0  0
  163.1470  212.2190  138.8470 C   0  0  0  0  0  0  0  0  0  0  0  0
  159.8800  212.5130  142.1520 C   0  0  0  0  0  0  0  0  0  0  0  0
  161.2410  213.4960  139.6800 N   0  0  0  0  0  0  0  0  0  0  0  0
  161.2490  214.2780  143.1090 C   0  0  0  0  0  3  0  0  0  0  0  0
  162.2630  211.1150  138.6240 N   0  0  0  0  0  0  0  0  0  0  0  0
  160.4740  212.4810  144.4730 N   0  0  0  0  0  0  0  0  0  0  0  0
  159.8380  211.9130  143.4140 C   0  0  0  0  0  3  0  0  0  0  0  0
  160.6090  213.7190  142.0020 C   0  0  0  0  0  0  0  0  0  0  0  0
  156.0310  210.2660  137.5630 C   0  0  0  0  0  3  0  0  0  0  0  0
  157.9570  211.6620  139.0420 C   0  0  0  0  0  0  0  0  0  0  0  0
  157.1970  212.3260  138.0720 C   0  0  0  0  0  3  0  0  0  0  0  0
  156.2330  211.6300  137.3350 C   0  0  0  0  0  3  0  0  0  0  0  0
  156.7910  209.5960  138.5250 C   0  0  0  0  0  3  0  0  0  0  0  0
  157.7540  210.2910  139.2620 C   0  0  0  0  0  3  0  0  0  0  0  0
  1 15  1  0  0  0  0
  2  6  1  1  0  0  0
  2 16  1  0  0  0  0
  2 12  1  0  0  0  0
  3 21  1  0  0  0  0
  4 14  2  0  0  0  0
  4 13  1  0  0  0  0
  5 13  1  0  0  0  0
  8 19  1  0  0  0  0
  8 10  1  0  0  0  0
  9  7  1  0  0  0  0
 11 16  1  0  0  0  0
 11  7  2  0  0  0  0
 12 23  1  6  0  0  0
 12  1  1  0  0  0  0
 13  9  2  0  0  0  0
 14 11  1  0  0  0  0
 15 20  1  0  0  0  0
 16  3  1  0  0  0  0
 17  8  2  0  0  0  0
 18  6  2  0  0  0  0
 18 14  1  0  0  0  0
 20 19  2  0  0  0  0
 21 15  2  0  0  0  0
 21 17  1  0  0  0  0
 22 26  1  0  0  0  0
 23 27  1  0  0  0  0
 24 23  2  0  0  0  0
 25 22  2  0  0  0  0
 25 24  1  0  0  0  0
 26 27  2  0  0  0  0
M  END
>  <MODEL>
5

>  <REMARK>
 VINA RESULT:      -4.1      9.811     13.211
  Name = 
  1 active torsions:
  status: ('A' for Active; 'I' for Inactive)
    1  A    between atoms: C_9  and  C_15
                            x       y       z     vdW  Elec       q    Type
                         _______ _______ _______ _____ _____    ______ ____

>  <TORSDO>
F 1

$$$$
=
 OpenBabel11052423163D

 27 31  0  0  1  0  0  0  0  0999 V2000
  158.7610  212.2920  152.2750 O   0  0  0  0  0  0  0  0  0  0  0  0
  160.8250  211.1250  152.9260 C   0  0  1  0  0  3  0  0  0  0  0  0
  160.0940  212.4350  154.9750 C   0  0  0  0  0  2  0  0  0  0  0  0
  160.6280  207.5960  155.2140 N   0  0  0  0  0  0  0  0  0  0  0  0
  160.8110  206.4350  157.2500 F   0  0  0  0  0  0  0  0  0  0  0  0
  160.4430  209.7820  152.3450 C   0  0  0  0  0  3  0  0  0  0  0  0
  160.7590  210.0150  156.5480 C   0  0  0  0  0  3  0  0  0  0  0  0
  156.4370  212.9480  155.6960 C   0  0  0  0  0  0  0  0  0  0  0  0
  160.8210  208.8160  157.2610 C   0  0  0  0  0  3  0  0  0  0  0  0
  155.4150  213.2240  157.0900 Cl  0  0  0  0  0  0  0  0  0  0  0  0
  160.6420  209.9870  155.1540 C   0  0  0  0  0  0  0  0  0  0  0  0
  160.1850  212.3040  152.1770 C   0  0  1  0  0  3  0  0  0  0  0  0
  160.7560  207.6040  156.5690 C   0  0  0  0  0  0  0  0  0  0  0  0
  160.5760  208.7510  154.4980 C   0  0  0  0  0  0  0  0  0  0  0  0
  158.0360  212.5120  153.4580 C   0  0  0  0  0  0  0  0  0  0  0  0
  160.5540  211.1880  154.3710 N   0  0  0  0  0  0  0  0  0  0  0  0
  157.8150  212.8160  155.8590 C   0  0  0  0  0  3  0  0  0  0  0  0
  160.3790  208.7120  153.0800 N   0  0  0  0  0  0  0  0  0  0  0  0
  155.8850  212.8570  154.4580 N   0  0  0  0  0  0  0  0  0  0  0  0
  156.6480  212.6430  153.3530 C   0  0  0  0  0  3  0  0  0  0  0  0
  158.6250  212.5950  154.7440 C   0  0  0  0  0  0  0  0  0  0  0  0
  161.4790  212.6170  148.0900 C   0  0  0  0  0  3  0  0  0  0  0  0
  160.6320  212.3900  150.7500 C   0  0  0  0  0  0  0  0  0  0  0  0
  160.1330  213.4140  149.9370 C   0  0  0  0  0  3  0  0  0  0  0  0
  160.5530  213.5270  148.6090 C   0  0  0  0  0  3  0  0  0  0  0  0
  161.9870  211.5970  148.8980 C   0  0  0  0  0  3  0  0  0  0  0  0
  161.5670  211.4840  150.2260 C   0  0  0  0  0  3  0  0  0  0  0  0
  1 15  1  0  0  0  0
  2  6  1  6  0  0  0
  2 16  1  0  0  0  0
  4 13  1  0  0  0  0
  6 18  2  0  0  0  0
  7  9  1  0  0  0  0
  8 17  1  0  0  0  0
  8 10  1  0  0  0  0
 11  7  2  0  0  0  0
 12 23  1  6  0  0  0
 12  1  1  0  0  0  0
 12  2  1  0  0  0  0
 13  5  1  0  0  0  0
 13  9  2  0  0  0  0
 14 11  1  0  0  0  0
 14  4  2  0  0  0  0
 15 21  1  0  0  0  0
 16  3  1  0  0  0  0
 16 11  1  0  0  0  0
 18 14  1  0  0  0  0
 19  8  2  0  0  0  0
 20 15  2  0  0  0  0
 20 19  1  0  0  0  0
 21  3  1  0  0  0  0
 21 17  2  0  0  0  0
 22 25  2  0  0  0  0
 22 26  1  0  0  0  0
 24 23  2  0  0  0  0
 25 24  1  0  0  0  0
 26 27  2  0  0  0  0
 27 23  1  0  0  0  0
M  END
>  <MODEL>
6

>  <REMARK>
 VINA RESULT:      -4.1      4.427      7.857
  Name = 
  1 active torsions:
  status: ('A' for Active; 'I' for Inactive)
    1  A    between atoms: C_9  and  C_15
                            x       y       z     vdW  Elec       q    Type
                         _______ _______ _______ _____ _____    ______ ____

>  <TORSDO>
F 1

$$$$
=
 OpenBabel11052423163D

 27 31  0  0  1  0  0  0  0  0999 V2000
  161.5680  208.4000  153.8450 O   0  0  0  0  0  0  0  0  0  0  0  0
  160.6360  208.8680  151.6170 C   0  0  1  0  0  3  0  0  0  0  0  0
  159.4060  210.4050  153.2200 C   0  0  0  0  0  2  0  0  0  0  0  0
  161.9010  212.2580  149.4660 N   0  0  0  0  0  0  0  0  0  0  0  0
  161.5840  214.4530  148.6860 F   0  0  0  0  0  0  0  0  0  0  0  0
  161.9640  208.9430  150.8980 C   0  0  0  0  0  3  0  0  0  0  0  0
  159.7470  212.5240  151.1790 C   0  0  0  0  0  3  0  0  0  0  0  0
  161.1710  211.8190  156.2270 C   0  0  0  0  0  0  0  0  0  0  0  0
  160.1200  213.5840  150.3520 C   0  0  0  0  0  3  0  0  0  0  0  0
  161.0540  213.2300  157.2580 Cl  0  0  0  0  0  0  0  0  0  0  0  0
  160.4610  211.3210  151.1290 C   0  0  0  0  0  0  0  0  0  0  0  0
  160.6700  207.9340  152.8370 C   0  0  1  0  0  3  0  0  0  0  0  0
  161.2100  213.4300  149.4910 C   0  0  0  0  0  0  0  0  0  0  0  0
  161.5490  211.2080  150.2550 C   0  0  0  0  0  0  0  0  0  0  0  0
  161.3830  209.5640  154.6080 C   0  0  0  0  0  0  0  0  0  0  0  0
  160.1330  210.2040  151.9710 N   0  0  0  0  0  0  0  0  0  0  0  0
  160.2750  211.6520  155.1730 C   0  0  0  0  0  3  0  0  0  0  0  0
  162.3320  210.0090  150.2520 N   0  0  0  0  0  0  0  0  0  0  0  0
  162.1400  210.8940  156.4530 N   0  0  0  0  0  0  0  0  0  0  0  0
  162.2610  209.7860  155.6740 C   0  0  0  0  0  3  0  0  0  0  0  0
  160.3750  210.5260  154.3540 C   0  0  0  0  0  0  0  0  0  0  0  0
  161.4440  203.8320  151.8070 C   0  0  0  0  0  3  0  0  0  0  0  0
  160.9580  206.5110  152.4650 C   0  0  0  0  0  0  0  0  0  0  0  0
  160.9660  205.5320  153.4640 C   0  0  0  0  0  3  0  0  0  0  0  0
  161.2110  204.1940  153.1370 C   0  0  0  0  0  3  0  0  0  0  0  0
  161.4300  204.8050  150.8040 C   0  0  0  0  0  3  0  0  0  0  0  0
  161.1850  206.1420  151.1310 C   0  0  0  0  0  3  0  0  0  0  0  0
  1 15  1  0  0  0  0
  2  6  1  1  0  0  0
  2 16  1  0  0  0  0
  2 12  1  0  0  0  0
  3 21  1  0  0  0  0
  4 13  1  0  0  0  0
  4 14  2  0  0  0  0
  5 13  1  0  0  0  0
  8 19  1  0  0  0  0
  8 10  1  0  0  0  0
  9  7  1  0  0  0  0
 11  7  2  0  0  0  0
 11 16  1  0  0  0  0
 12 23  1  6  0  0  0
 12  1  1  0  0  0  0
 13  9  2  0  0  0  0
 14 11  1  0  0  0  0
 15 20  1  0  0  0  0
 16  3  1  0  0  0  0
 17  8  2  0  0  0  0
 18 14  1  0  0  0  0
 18  6  2  0  0  0  0
 20 19  2  0  0  0  0
 21 15  2  0  0  0  0
 21 17  1  0  0  0  0
 22 25  1  0  0  0  0
 23 24  1  0  0  0  0
 25 24  2  0  0  0  0
 26 27  1  0  0  0  0
 26 22  2  0  0  0  0
 27 23  2  0  0  0  0
M  END
>  <MODEL>
7

>  <REMARK>
 VINA RESULT:      -4.0      3.167      5.198
  Name = 
  1 active torsions:
  status: ('A' for Active; 'I' for Inactive)
    1  A    between atoms: C_9  and  C_15
                            x       y       z     vdW  Elec       q    Type
                         _______ _______ _______ _____ _____    ______ ____

>  <TORSDO>
F 1

$$$$
=
 OpenBabel11052423163D

 27 31  0  0  1  0  0  0  0  0999 V2000
  160.8350  209.1970  151.9840 O   0  0  0  0  0  0  0  0  0  0  0  0
  161.8810  207.6070  150.4260 C   0  0  1  0  0  3  0  0  0  0  0  0
  162.6290  206.8970  152.7460 C   0  0  0  0  0  2  0  0  0  0  0  0
  160.2180  203.7780  149.8800 N   0  0  0  0  0  0  0  0  0  0  0  0
  160.1890  201.4590  150.2640 F   0  0  0  0  0  0  0  0  0  0  0  0
  160.6420  207.3540  149.5960 C   0  0  0  0  0  3  0  0  0  0  0  0
  162.0990  204.1150  151.8790 C   0  0  0  0  0  3  0  0  0  0  0  0
  160.3330  207.3280  155.6960 C   0  0  0  0  0  0  0  0  0  0  0  0
  161.6170  202.8410  151.5770 C   0  0  0  0  0  3  0  0  0  0  0  0
  160.0760  206.5850  157.2610 Cl  0  0  0  0  0  0  0  0  0  0  0  0
  161.6360  205.2210  151.1560 C   0  0  0  0  0  0  0  0  0  0  0  0
  161.9020  209.0090  151.0540 C   0  0  1  0  0  3  0  0  0  0  0  0
  160.6680  202.6900  150.5620 C   0  0  0  0  0  0  0  0  0  0  0  0
  160.6820  205.0280  150.1490 C   0  0  0  0  0  0  0  0  0  0  0  0
  160.7180  208.5320  153.2150 C   0  0  0  0  0  0  0  0  0  0  0  0
  162.0830  206.5570  151.4360 N   0  0  0  0  0  0  0  0  0  0  0  0
  161.3460  206.8590  154.8610 C   0  0  0  0  0  3  0  0  0  0  0  0
  160.1460  206.1610  149.4560 N   0  0  0  0  0  0  0  0  0  0  0  0
  159.5410  208.3560  155.2950 N   0  0  0  0  0  0  0  0  0  0  0  0
  159.7110  208.9570  154.0870 C   0  0  0  0  0  3  0  0  0  0  0  0
  161.5450  207.4540  153.6150 C   0  0  0  0  0  0  0  0  0  0  0  0
  162.0080  212.1790  148.1510 C   0  0  0  0  0  3  0  0  0  0  0  0
  161.9280  210.1000  150.0260 C   0  0  0  0  0  0  0  0  0  0  0  0
  161.5370  211.3930  150.3920 C   0  0  0  0  0  3  0  0  0  0  0  0
  161.5740  212.4310  149.4560 C   0  0  0  0  0  3  0  0  0  0  0  0
  162.4070  210.8920  147.7810 C   0  0  0  0  0  3  0  0  0  0  0  0
  162.3700  209.8540  148.7180 C   0  0  0  0  0  3  0  0  0  0  0  0
  1 15  1  0  0  0  0
  2  6  1  1  0  0  0
  2 12  1  0  0  0  0
  2 16  1  0  0  0  0
  3 21  1  0  0  0  0
  4 14  2  0  0  0  0
  4 13  1  0  0  0  0
  5 13  1  0  0  0  0
  8 10  1  0  0  0  0
  9  7  1  0  0  0  0
 11 16  1  0  0  0  0
 11  7  2  0  0  0  0
 12 23  1  6  0  0  0
 12  1  1  0  0  0  0
 13  9  2  0  0  0  0
 14 11  1  0  0  0  0
 15 21  2  0  0  0  0
 15 20  1  0  0  0  0
 16  3  1  0  0  0  0
 17  8  2  0  0  0  0
 18  6  2  0  0  0  0
 18 14  1  0  0  0  0
 19  8  1  0  0  0  0
 20 19  2  0  0  0  0
 21 17  1  0  0  0  0
 22 25  1  0  0  0  0
 23 24  1  0  0  0  0
 25 24  2  0  0  0  0
 26 22  2  0  0  0  0
 26 27  1  0  0  0  0
 27 23  2  0  0  0  0
M  END
>  <MODEL>
8

>  <REMARK>
 VINA RESULT:      -4.0      3.902      7.215
  Name = 
  1 active torsions:
  status: ('A' for Active; 'I' for Inactive)
    1  A    between atoms: C_9  and  C_15
                            x       y       z     vdW  Elec       q    Type
                         _______ _______ _______ _____ _____    ______ ____

>  <TORSDO>
F 1

$$$$
=
 OpenBabel11052423163D

 27 31  0  0  1  0  0  0  0  0999 V2000
  159.6590  212.8750  147.1980 O   0  0  0  0  0  0  0  0  0  0  0  0
  161.7520  212.0530  148.1930 C   0  0  1  0  0  3  0  0  0  0  0  0
  160.6720  213.5160  149.9640 C   0  0  0  0  0  2  0  0  0  0  0  0
  161.6820  208.8440  150.9170 N   0  0  0  0  0  0  0  0  0  0  0  0
  161.7660  207.9800  153.1020 F   0  0  0  0  0  0  0  0  0  0  0  0
  161.5780  210.6120  147.7690 C   0  0  0  0  0  3  0  0  0  0  0  0
  161.4140  211.4110  151.9110 C   0  0  0  0  0  3  0  0  0  0  0  0
  156.9240  213.6800  150.2650 C   0  0  0  0  0  0  0  0  0  0  0  0
  161.5250  210.3280  152.7850 C   0  0  0  0  0  3  0  0  0  0  0  0
  155.7340  214.0070  151.5070 Cl  0  0  0  0  0  0  0  0  0  0  0  0
  161.4510  211.1930  150.5290 C   0  0  0  0  0  0  0  0  0  0  0  0
  161.0760  213.0430  147.2320 C   0  0  1  0  0  3  0  0  0  0  0  0
  161.6620  209.0390  152.2640 C   0  0  0  0  0  0  0  0  0  0  0  0
  161.5870  209.8850  150.0470 C   0  0  0  0  0  0  0  0  0  0  0  0
  158.7920  213.1560  148.2670 C   0  0  0  0  0  0  0  0  0  0  0  0
  161.3220  212.2660  149.5830 N   0  0  0  0  0  0  0  0  0  0  0  0
  158.2830  213.7340  150.5720 C   0  0  0  0  0  3  0  0  0  0  0  0
  161.5490  209.6440  148.6360 N   0  0  0  0  0  0  0  0  0  0  0  0
  156.5220  213.3670  149.0060 N   0  0  0  0  0  0  0  0  0  0  0  0
  157.4170  213.1080  148.0160 C   0  0  0  0  0  3  0  0  0  0  0  0
  159.2270  213.4710  149.5780 C   0  0  0  0  0  0  0  0  0  0  0  0
  162.7060  212.9530  143.2550 C   0  0  0  0  0  3  0  0  0  0  0  0
  161.6630  213.0000  145.8540 C   0  0  0  0  0  0  0  0  0  0  0  0
  160.8520  212.6260  144.7770 C   0  0  0  0  0  3  0  0  0  0  0  0
  161.3720  212.5990  143.4800 C   0  0  0  0  0  3  0  0  0  0  0  0
  163.5190  213.3350  144.3250 C   0  0  0  0  0  3  0  0  0  0  0  0
  162.9990  213.3610  145.6220 C   0  0  0  0  0  3  0  0  0  0  0  0
  1 12  1  0  0  0  0
  1 15  1  0  0  0  0
  2  6  1  6  0  0  0
  2 16  1  0  0  0  0
  4 13  1  0  0  0  0
  6 18  2  0  0  0  0
  7  9  1  0  0  0  0
  8 17  1  0  0  0  0
  8 10  1  0  0  0  0
 11  7  2  0  0  0  0
 12 23  1  6  0  0  0
 12  2  1  0  0  0  0
 13  9  2  0  0  0  0
 13  5  1  0  0  0  0
 14 11  1  0  0  0  0
 14  4  2  0  0  0  0
 15 21  1  0  0  0  0
 16  3  1  0  0  0  0
 16 11  1  0  0  0  0
 18 14  1  0  0  0  0
 19  8  2  0  0  0  0
 20 15  2  0  0  0  0
 20 19  1  0  0  0  0
 21  3  1  0  0  0  0
 21 17  2  0  0  0  0
 22 25  2  0  0  0  0
 22 26  1  0  0  0  0
 24 23  2  0  0  0  0
 25 24  1  0  0  0  0
 26 27  2  0  0  0  0
 27 23  1  0  0  0  0
M  END
>  <MODEL>
9

>  <REMARK>
 VINA RESULT:      -3.6      4.006      8.142
  Name = 
  1 active torsions:
  status: ('A' for Active; 'I' for Inactive)
    1  A    between atoms: C_9  and  C_15
                            x       y       z     vdW  Elec       q    Type
                         _______ _______ _______ _____ _____    ______ ____

>  <TORSDO>
F 1

$$$$
