=
 OpenBabel11062410213D

 43 47  0  0  1  0  0  0  0  0999 V2000
  161.6070  205.3230  151.5220 C   0  0  2  0  0  3  0  0  0  0  0  0
  161.5960  207.9040  150.1470 C   0  0  1  0  0  3  0  0  0  0  0  0
  160.5890  203.0490  149.9170 C   0  0  1  0  0  3  0  0  0  0  0  0
  161.0380  204.3430  149.2670 C   0  0  0  0  0  0  0  0  0  0  0  0
  161.0160  201.9510  149.1670 O   0  0  0  0  0  1  0  0  0  0  0  0
  161.9090  206.6620  149.3220 C   0  0  0  0  0  2  0  0  0  0  0  0
  161.4180  205.4140  150.0080 C   0  0  0  0  0  0  0  0  0  0  0  0
  160.7910  204.1700  152.1160 C   0  0  0  0  0  2  0  0  0  0  0  0
  161.2500  206.5920  152.1800 N   0  0  0  0  0  0  0  0  0  0  0  0
  162.0260  207.6840  151.5950 C   0  0  0  0  0  2  0  0  0  0  0  0
  161.0860  202.8980  151.3480 C   0  0  0  0  0  2  0  0  0  0  0  0
  162.2430  209.1410  149.5190 C   0  0  1  0  0  3  0  0  0  0  0  0
  162.2480  209.0320  148.0020 C   0  0  0  0  0  1  0  0  0  0  0  0
  161.5750  210.4410  149.9620 C   0  0  0  0  0  2  0  0  0  0  0  0
  161.6330  211.5500  148.9050 C   0  0  2  0  0  3  0  0  0  0  0  0
  162.9040  212.1270  148.8170 O   0  0  0  0  0  1  0  0  0  0  0  0
  160.4930  212.5970  148.9380 C   0  0  1  0  0  3  0  0  0  0  0  0
  159.8320  213.1910  151.2660 C   0  0  0  0  0  2  0  0  0  0  0  0
  160.6350  213.6280  150.0560 C   0  0  0  0  0  3  0  0  0  0  0  0
  159.2880  214.2620  150.3490 C   0  0  0  0  0  2  0  0  0  0  0  0
  160.0850  213.2540  147.6080 C   0  0  2  0  0  3  0  0  0  0  0  0
  158.7380  213.6250  147.6120 O   0  0  0  0  0  1  0  0  0  0  0  0
  160.4610  212.4540  146.3560 C   0  0  1  0  0  3  0  0  0  0  0  0
  159.3210  211.8800  145.7820 O   0  0  0  0  0  1  0  0  0  0  0  0
  161.1670  213.3390  145.3340 C   0  0  2  0  0  3  0  0  0  0  0  0
  163.3580  213.2760  144.2080 C   0  0  0  0  0  2  0  0  0  0  0  0
  162.4640  212.5710  142.1290 O   0  0  0  0  0  0  0  0  0  0  0  0
  162.2710  212.8690  143.2940 C   0  0  0  0  0  0  0  0  0  0  0  0
  160.9340  212.8220  143.9210 C   0  0  0  0  0  2  0  0  0  0  0  0
  162.6830  213.3570  145.5650 C   0  0  0  0  0  2  0  0  0  0  0  0
  161.6640  206.5190  153.5780 C   0  0  0  0  0  2  0  0  0  0  0  0
  160.2500  209.8590  154.6710 C   0  0  0  0  0  3  0  0  0  0  0  0
  159.6710  209.5330  155.9020 C   0  0  0  0  0  0  0  0  0  0  0  0
  160.3800  207.2280  155.6070 C   0  0  0  0  0  3  0  0  0  0  0  0
  160.8900  208.8770  153.9100 C   0  0  0  0  0  3  0  0  0  0  0  0
  160.9520  207.5590  154.3740 C   0  0  0  0  0  0  0  0  0  0  0  0
  159.7390  208.2090  156.3680 C   0  0  0  0  0  3  0  0  0  0  0  0
  159.0400  210.5380  156.6390 O   0  0  0  0  0  0  0  0  0  0  0  0
  159.1480  211.9170  156.3100 C   0  0  0  0  0  1  0  0  0  0  0  0
  160.8820  204.4670  147.7730 C   0  0  0  0  0  2  0  0  0  0  0  0
  162.4120  204.7670  145.8150 C   0  0  0  0  0  3  0  0  0  0  0  0
  162.2170  204.4100  147.0900 C   0  0  0  0  0  3  0  0  0  0  0  0
  161.3100  205.2470  144.9290 C   0  0  0  0  0  1  0  0  0  0  0  0
  1  8  1  1  0  0  0
  1  9  1  0  0  0  0
  2 12  1  6  0  0  0
  2 10  1  0  0  0  0
  3  5  1  6  0  0  0
  3 11  1  0  0  0  0
  4  3  1  0  0  0  0
  4  7  2  0  0  0  0
  6  7  1  0  0  0  0
  6  2  1  0  0  0  0
  7  1  1  0  0  0  0
  9 31  1  0  0  0  0
 10  9  1  0  0  0  0
 11  8  1  0  0  0  0
 12 13  1  6  0  0  0
 12 14  1  0  0  0  0
 15 16  1  1  0  0  0
 15 17  1  0  0  0  0
 15 14  1  0  0  0  0
 17 21  1  6  0  0  0
 17 19  1  0  0  0  0
 19 20  1  0  0  0  0
 19 18  1  0  0  0  0
 20 18  1  0  0  0  0
 21 22  1  1  0  0  0
 23 24  1  6  0  0  0
 23 21  1  0  0  0  0
 25 30  1  0  0  0  0
 25 23  1  1  0  0  0
 26 30  1  0  0  0  0
 27 28  2  0  0  0  0
 28 29  1  0  0  0  0
 28 26  1  0  0  0  0
 29 25  1  0  0  0  0
 31 36  1  0  0  0  0
 32 33  1  0  0  0  0
 33 37  2  0  0  0  0
 33 38  1  0  0  0  0
 34 37  1  0  0  0  0
 35 36  1  0  0  0  0
 35 32  2  0  0  0  0
 36 34  2  0  0  0  0
 39 38  1  0  0  0  0
 40  4  1  0  0  0  0
 41 42  2  0  0  0  0
 42 40  1  0  0  0  0
 43 41  1  0  0  0  0
M  END
>  <MODEL>
1

>  <REMARK>
 VINA RESULT:      -8.0      0.000      0.000
  Name = 
  13 active torsions:
  status: ('A' for Active; 'I' for Inactive)
    1  A    between atoms: C_1  and  N_34
    2  A    between atoms: C_1  and  C_35
    3  A    between atoms: C_2  and  C_6
    4  A    between atoms: C_2  and  C_13
    5  A    between atoms: C_3  and  C_4
    6  A    between atoms: C_3  and  C_12
    7  A    between atoms: C_3  and  C_15
    8  A    between atoms: C_4  and  C_14
    9  A    between atoms: C_6  and  C_12
   10  A    between atoms: C_11  and  C_14
   11  A    between atoms: C_18  and  C_24
   12  A    between atoms: C_19  and  O_25
   13  A    between atoms: C_21  and  C_24
                            x       y       z     vdW  Elec       q    Type
                         _______ _______ _______ _____ _____    ______ ____

>  <TORSDO>
F 13

$$$$
=
 OpenBabel11062410213D

 43 47  0  0  1  0  0  0  0  0999 V2000
  158.3530  213.4800  152.3760 C   0  0  2  0  0  3  0  0  0  0  0  0
  160.3490  211.3430  152.3330 C   0  0  1  0  0  3  0  0  0  0  0  0
  156.0970  213.0430  154.2470 C   0  0  1  0  0  3  0  0  0  0  0  0
  157.3990  212.2780  154.3800 C   0  0  0  0  0  0  0  0  0  0  0  0
  155.6200  213.4190  155.5050 O   0  0  0  0  0  1  0  0  0  0  0  0
  159.6950  211.6750  153.6680 C   0  0  0  0  0  2  0  0  0  0  0  0
  158.3960  212.4130  153.4690 C   0  0  0  0  0  0  0  0  0  0  0  0
  156.9140  213.9120  152.0770 C   0  0  0  0  0  2  0  0  0  0  0  0
  159.0090  213.0070  151.1440 N   0  0  0  0  0  0  0  0  0  0  0  0
  160.3760  212.5860  151.4470 C   0  0  0  0  0  2  0  0  0  0  0  0
  156.2220  214.2830  153.3720 C   0  0  0  0  0  2  0  0  0  0  0  0
  161.7400  210.7420  152.5530 C   0  0  1  0  0  3  0  0  0  0  0  0
  161.8400  210.1130  153.9340 C   0  0  0  0  0  1  0  0  0  0  0  0
  162.1200  209.7320  151.4740 C   0  0  0  0  0  2  0  0  0  0  0  0
  161.1090  208.5890  151.3220 C   0  0  2  0  0  3  0  0  0  0  0  0
  160.2020  208.5440  152.3850 O   0  0  0  0  0  1  0  0  0  0  0  0
  161.6860  207.1980  150.9590 C   0  0  1  0  0  3  0  0  0  0  0  0
  161.6370  205.9370  153.1080 C   0  0  0  0  0  2  0  0  0  0  0  0
  161.0360  206.0440  151.7200 C   0  0  0  0  0  3  0  0  0  0  0  0
  162.0710  204.9780  152.0240 C   0  0  0  0  0  2  0  0  0  0  0  0
  161.8690  206.8660  149.4680 C   0  0  2  0  0  3  0  0  0  0  0  0
  161.9000  208.0230  148.6860 O   0  0  0  0  0  1  0  0  0  0  0  0
  160.8900  205.8220  148.9200 C   0  0  1  0  0  3  0  0  0  0  0  0
  160.1240  206.3660  147.8820 O   0  0  0  0  0  1  0  0  0  0  0  0
  161.6330  204.5860  148.4220 C   0  0  2  0  0  3  0  0  0  0  0  0
  160.9740  202.2790  147.8580 C   0  0  0  0  0  2  0  0  0  0  0  0
  161.1420  202.6180  145.5180 O   0  0  0  0  0  0  0  0  0  0  0  0
  161.2290  203.0780  146.6430 C   0  0  0  0  0  0  0  0  0  0  0  0
  161.5690  204.4920  146.9040 C   0  0  0  0  0  2  0  0  0  0  0  0
  161.0120  203.2990  148.9810 C   0  0  0  0  0  2  0  0  0  0  0  0
  159.1380  214.1340  150.2270 C   0  0  0  0  0  2  0  0  0  0  0  0
  157.5970  212.7910  147.0380 C   0  0  0  0  0  3  0  0  0  0  0  0
  158.7110  212.7200  146.1930 C   0  0  0  0  0  0  0  0  0  0  0  0
  160.1050  213.5920  147.9830 C   0  0  0  0  0  3  0  0  0  0  0  0
  157.7350  213.2600  148.3480 C   0  0  0  0  0  3  0  0  0  0  0  0
  158.9860  213.6660  148.8200 C   0  0  0  0  0  0  0  0  0  0  0  0
  159.9690  213.1240  146.6730 C   0  0  0  0  0  3  0  0  0  0  0  0
  158.5410  212.2450  144.8910 O   0  0  0  0  0  0  0  0  0  0  0  0
  159.2920  212.7380  143.7880 C   0  0  0  0  0  1  0  0  0  0  0  0
  157.4870  211.2270  155.4560 C   0  0  0  0  0  2  0  0  0  0  0  0
  159.2200  211.1510  157.2600 C   0  0  0  0  0  3  0  0  0  0  0  0
  158.1870  211.7630  156.6700 C   0  0  0  0  0  3  0  0  0  0  0  0
  159.7780  209.8520  156.7770 C   0  0  0  0  0  1  0  0  0  0  0  0
  1  8  1  6  0  0  0
  1  7  1  0  0  0  0
  2 12  1  1  0  0  0
  2  6  1  0  0  0  0
  3  4  1  0  0  0  0
  3  5  1  1  0  0  0
  4 40  1  0  0  0  0
  7  6  1  0  0  0  0
  7  4  2  0  0  0  0
  8 11  1  0  0  0  0
  9 10  1  0  0  0  0
  9  1  1  0  0  0  0
 10  2  1  0  0  0  0
 11  3  1  0  0  0  0
 12 13  1  1  0  0  0
 14 12  1  0  0  0  0
 15 14  1  0  0  0  0
 15 16  1  1  0  0  0
 17 21  1  6  0  0  0
 17 15  1  0  0  0  0
 17 19  1  0  0  0  0
 19 20  1  0  0  0  0
 19 18  1  0  0  0  0
 20 18  1  0  0  0  0
 21 22  1  6  0  0  0
 23 24  1  6  0  0  0
 23 21  1  0  0  0  0
 25 23  1  1  0  0  0
 25 30  1  0  0  0  0
 26 30  1  0  0  0  0
 27 28  2  0  0  0  0
 28 29  1  0  0  0  0
 28 26  1  0  0  0  0
 29 25  1  0  0  0  0
 31  9  1  0  0  0  0
 32 35  1  0  0  0  0
 33 37  1  0  0  0  0
 33 32  2  0  0  0  0
 34 36  1  0  0  0  0
 35 36  2  0  0  0  0
 36 31  1  0  0  0  0
 37 34  2  0  0  0  0
 38 33  1  0  0  0  0
 39 38  1  0  0  0  0
 40 42  1  0  0  0  0
 42 41  2  0  0  0  0
 43 41  1  0  0  0  0
M  END
>  <MODEL>
2

>  <REMARK>
 VINA RESULT:      -7.7      2.531      9.267
  Name = 
  13 active torsions:
  status: ('A' for Active; 'I' for Inactive)
    1  A    between atoms: C_1  and  N_34
    2  A    between atoms: C_1  and  C_35
    3  A    between atoms: C_2  and  C_6
    4  A    between atoms: C_2  and  C_13
    5  A    between atoms: C_3  and  C_4
    6  A    between atoms: C_3  and  C_12
    7  A    between atoms: C_3  and  C_15
    8  A    between atoms: C_4  and  C_14
    9  A    between atoms: C_6  and  C_12
   10  A    between atoms: C_11  and  C_14
   11  A    between atoms: C_18  and  C_24
   12  A    between atoms: C_19  and  O_25
   13  A    between atoms: C_21  and  C_24
                            x       y       z     vdW  Elec       q    Type
                         _______ _______ _______ _____ _____    ______ ____

>  <TORSDO>
F 13

$$$$
=
 OpenBabel11062410213D

 43 47  0  0  1  0  0  0  0  0999 V2000
  161.5510  206.1460  151.9690 C   0  0  2  0  0  3  0  0  0  0  0  0
  161.5860  208.4330  150.1460 C   0  0  1  0  0  3  0  0  0  0  0  0
  160.4410  203.6510  150.8190 C   0  0  1  0  0  3  0  0  0  0  0  0
  160.9140  204.7900  149.9370 C   0  0  0  0  0  0  0  0  0  0  0  0
  160.8240  202.4210  150.2760 O   0  0  0  0  0  1  0  0  0  0  0  0
  161.8500  207.0530  149.5570 C   0  0  0  0  0  2  0  0  0  0  0  0
  161.3370  205.9660  150.4660 C   0  0  0  0  0  0  0  0  0  0  0  0
  160.7130  205.1460  152.7730 C   0  0  0  0  0  2  0  0  0  0  0  0
  161.2410  207.5240  152.3890 N   0  0  0  0  0  0  0  0  0  0  0  0
  162.0360  208.4670  151.6040 C   0  0  0  0  0  2  0  0  0  0  0  0
  160.9600  203.7480  152.2470 C   0  0  0  0  0  2  0  0  0  0  0  0
  162.2550  209.5150  149.2950 C   0  0  1  0  0  3  0  0  0  0  0  0
  162.5080  209.0070  147.8840 C   0  0  0  0  0  1  0  0  0  0  0  0
  161.4540  210.8140  149.2620 C   0  0  0  0  0  2  0  0  0  0  0  0
  161.8680  211.7610  148.1280 C   0  0  2  0  0  3  0  0  0  0  0  0
  163.1450  212.2940  148.3290 O   0  0  0  0  0  1  0  0  0  0  0  0
  160.8280  212.8250  147.7000 C   0  0  1  0  0  3  0  0  0  0  0  0
  159.9370  212.2190  145.4530 C   0  0  0  0  0  2  0  0  0  0  0  0
  159.6350  212.2500  146.9390 C   0  0  0  0  0  3  0  0  0  0  0  0
  159.0510  213.3050  146.0200 C   0  0  0  0  0  2  0  0  0  0  0  0
  160.3880  213.8590  148.7500 C   0  0  2  0  0  3  0  0  0  0  0  0
  161.4870  214.4530  149.3760 O   0  0  0  0  0  1  0  0  0  0  0  0
  159.3540  213.3490  149.7590 C   0  0  1  0  0  3  0  0  0  0  0  0
  159.9350  213.2000  151.0230 O   0  0  0  0  0  1  0  0  0  0  0  0
  158.1610  214.2960  149.8450 C   0  0  2  0  0  3  0  0  0  0  0  0
  155.7150  214.0150  149.7360 C   0  0  0  0  0  2  0  0  0  0  0  0
  155.4010  214.3280  152.0640 O   0  0  0  0  0  0  0  0  0  0  0  0
  156.1680  214.2560  151.1210 C   0  0  0  0  0  0  0  0  0  0  0  0
  157.6330  214.3720  151.2710 C   0  0  0  0  0  2  0  0  0  0  0  0
  157.0030  213.8170  148.9590 C   0  0  0  0  0  2  0  0  0  0  0  0
  161.6770  207.6950  153.7710 C   0  0  0  0  0  2  0  0  0  0  0  0
  160.6490  211.2500  154.5790 C   0  0  0  0  0  3  0  0  0  0  0  0
  159.7040  211.0490  155.5910 C   0  0  0  0  0  0  0  0  0  0  0  0
  160.0350  208.6490  155.4020 C   0  0  0  0  0  3  0  0  0  0  0  0
  161.2840  210.1580  153.9800 C   0  0  0  0  0  3  0  0  0  0  0  0
  160.9750  208.8570  154.3860 C   0  0  0  0  0  0  0  0  0  0  0  0
  159.3990  209.7400  156.0010 C   0  0  0  0  0  3  0  0  0  0  0  0
  159.0880  212.1610  156.1700 O   0  0  0  0  0  0  0  0  0  0  0  0
  157.8040  212.0990  156.7790 C   0  0  0  0  0  1  0  0  0  0  0  0
  160.7350  204.6450  148.4480 C   0  0  0  0  0  2  0  0  0  0  0  0
  162.5550  204.6150  146.7320 C   0  0  0  0  0  3  0  0  0  0  0  0
  161.9730  204.0840  147.8130 C   0  0  0  0  0  3  0  0  0  0  0  0
  162.0200  205.8190  146.0290 C   0  0  0  0  0  1  0  0  0  0  0  0
  1  9  1  0  0  0  0
  1  8  1  1  0  0  0
  2 12  1  6  0  0  0
  2 10  1  0  0  0  0
  3  5  1  6  0  0  0
  3 11  1  0  0  0  0
  4  7  2  0  0  0  0
  4  3  1  0  0  0  0
  6  2  1  0  0  0  0
  6  7  1  0  0  0  0
  7  1  1  0  0  0  0
  9 31  1  0  0  0  0
 10  9  1  0  0  0  0
 11  8  1  0  0  0  0
 12 13  1  6  0  0  0
 14 12  1  0  0  0  0
 15 16  1  1  0  0  0
 15 14  1  0  0  0  0
 17 15  1  1  0  0  0
 17 21  1  0  0  0  0
 18 20  1  0  0  0  0
 18 19  1  0  0  0  0
 19 17  1  0  0  0  0
 20 19  1  0  0  0  0
 21 22  1  1  0  0  0
 21 23  1  0  0  0  0
 23 24  1  1  0  0  0
 25 23  1  1  0  0  0
 25 29  1  0  0  0  0
 26 28  1  0  0  0  0
 28 29  1  0  0  0  0
 28 27  2  0  0  0  0
 30 26  1  0  0  0  0
 30 25  1  0  0  0  0
 31 36  1  0  0  0  0
 32 33  1  0  0  0  0
 33 37  2  0  0  0  0
 33 38  1  0  0  0  0
 34 37  1  0  0  0  0
 35 36  1  0  0  0  0
 35 32  2  0  0  0  0
 36 34  2  0  0  0  0
 38 39  1  0  0  0  0
 40  4  1  0  0  0  0
 41 42  2  0  0  0  0
 42 40  1  0  0  0  0
 43 41  1  0  0  0  0
M  END
>  <MODEL>
3

>  <REMARK>
 VINA RESULT:      -7.5      1.845      3.868
  Name = 
  13 active torsions:
  status: ('A' for Active; 'I' for Inactive)
    1  A    between atoms: C_1  and  N_34
    2  A    between atoms: C_1  and  C_35
    3  A    between atoms: C_2  and  C_6
    4  A    between atoms: C_2  and  C_13
    5  A    between atoms: C_3  and  C_4
    6  A    between atoms: C_3  and  C_12
    7  A    between atoms: C_3  and  C_15
    8  A    between atoms: C_4  and  C_14
    9  A    between atoms: C_6  and  C_12
   10  A    between atoms: C_11  and  C_14
   11  A    between atoms: C_18  and  C_24
   12  A    between atoms: C_19  and  O_25
   13  A    between atoms: C_21  and  C_24
                            x       y       z     vdW  Elec       q    Type
                         _______ _______ _______ _____ _____    ______ ____

>  <TORSDO>
F 13

$$$$
=
 OpenBabel11062410213D

 43 47  0  0  1  0  0  0  0  0999 V2000
  161.6270  205.1450  151.5520 C   0  0  2  0  0  3  0  0  0  0  0  0
  161.6450  207.6230  149.9990 C   0  0  1  0  0  3  0  0  0  0  0  0
  160.5020  202.7950  150.1390 C   0  0  1  0  0  3  0  0  0  0  0  0
  160.9670  204.0270  149.3870 C   0  0  0  0  0  0  0  0  0  0  0  0
  160.8780  201.6350  149.4570 O   0  0  0  0  0  1  0  0  0  0  0  0
  161.9010  206.3190  149.2550 C   0  0  0  0  0  2  0  0  0  0  0  0
  161.3970  205.1360  150.0410 C   0  0  0  0  0  0  0  0  0  0  0  0
  160.7970  204.0600  152.2470 C   0  0  0  0  0  2  0  0  0  0  0  0
  161.3230  206.4660  152.1290 N   0  0  0  0  0  0  0  0  0  0  0  0
  162.1110  207.4920  151.4470 C   0  0  0  0  0  2  0  0  0  0  0  0
  161.0360  202.7300  151.5630 C   0  0  0  0  0  2  0  0  0  0  0  0
  162.3060  208.7950  149.2680 C   0  0  1  0  0  3  0  0  0  0  0  0
  162.5800  208.4350  147.8160 C   0  0  0  0  0  1  0  0  0  0  0  0
  161.4870  210.0800  149.3590 C   0  0  0  0  0  2  0  0  0  0  0  0
  162.0290  211.2140  148.4810 C   0  0  2  0  0  3  0  0  0  0  0  0
  163.2610  211.6910  148.9400 O   0  0  0  0  0  1  0  0  0  0  0  0
  161.0370  212.3480  148.1240 C   0  0  1  0  0  3  0  0  0  0  0  0
  160.0730  212.9070  150.3530 C   0  0  0  0  0  2  0  0  0  0  0  0
  160.9150  213.4230  149.2020 C   0  0  0  0  0  3  0  0  0  0  0  0
  159.4670  213.8520  149.3420 C   0  0  0  0  0  2  0  0  0  0  0  0
  161.1270  212.9620  146.7160 C   0  0  2  0  0  3  0  0  0  0  0  0
  161.1850  214.3570  146.7690 O   0  0  0  0  0  1  0  0  0  0  0  0
  160.0660  212.4630  145.7300 C   0  0  1  0  0  3  0  0  0  0  0  0
  158.7820  212.7770  146.1920 O   0  0  0  0  0  1  0  0  0  0  0  0
  160.2800  213.0670  144.3450 C   0  0  2  0  0  3  0  0  0  0  0  0
  159.5320  212.4900  142.0690 C   0  0  0  0  0  2  0  0  0  0  0  0
  157.9420  214.2450  141.9600 O   0  0  0  0  0  0  0  0  0  0  0  0
  158.7920  213.6520  142.6010 C   0  0  0  0  0  0  0  0  0  0  0  0
  159.1440  214.0160  143.9880 C   0  0  0  0  0  2  0  0  0  0  0  0
  160.3180  211.9810  143.2630 C   0  0  0  0  0  2  0  0  0  0  0  0
  161.7740  206.4800  153.5160 C   0  0  0  0  0  2  0  0  0  0  0  0
  159.7460  208.2720  156.1660 C   0  0  0  0  0  3  0  0  0  0  0  0
  159.6950  209.5730  155.6530 C   0  0  0  0  0  0  0  0  0  0  0  0
  161.0210  208.8550  153.7470 C   0  0  0  0  0  3  0  0  0  0  0  0
  160.4310  207.2670  155.4760 C   0  0  0  0  0  3  0  0  0  0  0  0
  161.0730  207.5580  154.2690 C   0  0  0  0  0  0  0  0  0  0  0  0
  160.3380  209.8610  154.4370 C   0  0  0  0  0  3  0  0  0  0  0  0
  159.0020  210.5530  156.3660 O   0  0  0  0  0  0  0  0  0  0  0  0
  157.8940  211.2610  155.8230 C   0  0  0  0  0  1  0  0  0  0  0  0
  160.7710  204.0510  147.8940 C   0  0  0  0  0  2  0  0  0  0  0  0
  162.2410  204.2430  145.8770 C   0  0  0  0  0  3  0  0  0  0  0  0
  162.0900  203.9840  147.1810 C   0  0  0  0  0  3  0  0  0  0  0  0
  161.1010  204.6140  144.9850 C   0  0  0  0  0  1  0  0  0  0  0  0
  1  9  1  0  0  0  0
  1  8  1  1  0  0  0
  2 12  1  6  0  0  0
  2 10  1  0  0  0  0
  3  5  1  6  0  0  0
  3 11  1  0  0  0  0
  4  7  2  0  0  0  0
  4  3  1  0  0  0  0
  6  2  1  0  0  0  0
  6  7  1  0  0  0  0
  7  1  1  0  0  0  0
  9 31  1  0  0  0  0
 10  9  1  0  0  0  0
 11  8  1  0  0  0  0
 12 13  1  6  0  0  0
 12 14  1  0  0  0  0
 15 16  1  1  0  0  0
 15 14  1  0  0  0  0
 17 21  1  6  0  0  0
 17 15  1  0  0  0  0
 17 19  1  0  0  0  0
 19 20  1  0  0  0  0
 19 18  1  0  0  0  0
 20 18  1  0  0  0  0
 21 22  1  1  0  0  0
 23 24  1  1  0  0  0
 23 21  1  0  0  0  0
 25 23  1  1  0  0  0
 26 28  1  0  0  0  0
 26 30  1  0  0  0  0
 27 28  2  0  0  0  0
 28 29  1  0  0  0  0
 29 25  1  0  0  0  0
 30 25  1  0  0  0  0
 31 36  1  0  0  0  0
 33 32  1  0  0  0  0
 33 38  1  0  0  0  0
 34 36  2  0  0  0  0
 34 37  1  0  0  0  0
 35 32  2  0  0  0  0
 36 35  1  0  0  0  0
 37 33  2  0  0  0  0
 39 38  1  0  0  0  0
 40  4  1  0  0  0  0
 41 42  2  0  0  0  0
 42 40  1  0  0  0  0
 43 41  1  0  0  0  0
M  END
>  <MODEL>
4

>  <REMARK>
 VINA RESULT:      -7.4      1.201      1.676
  Name = 
  13 active torsions:
  status: ('A' for Active; 'I' for Inactive)
    1  A    between atoms: C_1  and  N_34
    2  A    between atoms: C_1  and  C_35
    3  A    between atoms: C_2  and  C_6
    4  A    between atoms: C_2  and  C_13
    5  A    between atoms: C_3  and  C_4
    6  A    between atoms: C_3  and  C_12
    7  A    between atoms: C_3  and  C_15
    8  A    between atoms: C_4  and  C_14
    9  A    between atoms: C_6  and  C_12
   10  A    between atoms: C_11  and  C_14
   11  A    between atoms: C_18  and  C_24
   12  A    between atoms: C_19  and  O_25
   13  A    between atoms: C_21  and  C_24
                            x       y       z     vdW  Elec       q    Type
                         _______ _______ _______ _____ _____    ______ ____

>  <TORSDO>
F 13

$$$$
=
 OpenBabel11062410213D

 43 47  0  0  1  0  0  0  0  0999 V2000
  161.6210  204.9450  151.4930 C   0  0  2  0  0  3  0  0  0  0  0  0
  161.6110  207.4450  149.9750 C   0  0  1  0  0  3  0  0  0  0  0  0
  160.5350  202.6000  150.0410 C   0  0  1  0  0  3  0  0  0  0  0  0
  160.9860  203.8490  149.3090 C   0  0  0  0  0  0  0  0  0  0  0  0
  160.9300  201.4560  149.3450 O   0  0  0  0  0  1  0  0  0  0  0  0
  161.8880  206.1550  149.2140 C   0  0  0  0  0  2  0  0  0  0  0  0
  161.3970  204.9540  149.9810 C   0  0  0  0  0  0  0  0  0  0  0  0
  160.8040  203.8390  152.1680 C   0  0  0  0  0  2  0  0  0  0  0  0
  161.2960  206.2540  152.0870 N   0  0  0  0  0  0  0  0  0  0  0  0
  162.0720  207.3000  151.4240 C   0  0  0  0  0  2  0  0  0  0  0  0
  161.0640  202.5220  151.4670 C   0  0  0  0  0  2  0  0  0  0  0  0
  162.2590  208.6360  149.2640 C   0  0  1  0  0  3  0  0  0  0  0  0
  162.9220  208.1920  147.9700 C   0  0  0  0  0  1  0  0  0  0  0  0
  161.2710  209.7700  149.0000 C   0  0  0  0  0  2  0  0  0  0  0  0
  161.7420  211.1290  149.5330 C   0  0  2  0  0  3  0  0  0  0  0  0
  161.2360  211.3970  150.8080 O   0  0  0  0  0  1  0  0  0  0  0  0
  161.6160  212.3320  148.5660 C   0  0  1  0  0  3  0  0  0  0  0  0
  164.0270  212.8350  148.1830 C   0  0  0  0  0  2  0  0  0  0  0  0
  162.7300  212.4040  147.5240 C   0  0  0  0  0  3  0  0  0  0  0  0
  163.2180  213.8340  147.3870 C   0  0  0  0  0  2  0  0  0  0  0  0
  160.2370  212.6110  147.9450 C   0  0  2  0  0  3  0  0  0  0  0  0
  160.0690  211.9210  146.7410 O   0  0  0  0  0  1  0  0  0  0  0  0
  159.8800  214.0950  147.8150 C   0  0  1  0  0  3  0  0  0  0  0  0
  159.5810  214.4130  146.4860 O   0  0  0  0  0  1  0  0  0  0  0  0
  158.6990  214.4530  148.7120 C   0  0  2  0  0  3  0  0  0  0  0  0
  156.8620  213.1780  149.7490 C   0  0  0  0  0  2  0  0  0  0  0  0
  157.8020  213.2590  151.9240 O   0  0  0  0  0  0  0  0  0  0  0  0
  157.8920  213.5440  150.7430 C   0  0  0  0  0  0  0  0  0  0  0  0
  159.0560  214.2580  150.1790 C   0  0  0  0  0  2  0  0  0  0  0  0
  157.4860  213.5610  148.4200 C   0  0  0  0  0  2  0  0  0  0  0  0
  161.7410  206.2530  153.4760 C   0  0  0  0  0  2  0  0  0  0  0  0
  159.7660  208.1270  156.1100 C   0  0  0  0  0  3  0  0  0  0  0  0
  159.7720  209.4280  155.5960 C   0  0  0  0  0  0  0  0  0  0  0  0
  161.0830  208.6580  153.7010 C   0  0  0  0  0  3  0  0  0  0  0  0
  160.4140  207.0950  155.4250 C   0  0  0  0  0  3  0  0  0  0  0  0
  161.0780  207.3590  154.2230 C   0  0  0  0  0  0  0  0  0  0  0  0
  160.4350  209.6900  154.3850 C   0  0  0  0  0  3  0  0  0  0  0  0
  159.1120  210.4370  156.3040 O   0  0  0  0  0  0  0  0  0  0  0  0
  158.8020  211.7010  155.7310 C   0  0  0  0  0  1  0  0  0  0  0  0
  160.7960  203.8920  147.8150 C   0  0  0  0  0  2  0  0  0  0  0  0
  162.5260  204.4480  146.0940 C   0  0  0  0  0  3  0  0  0  0  0  0
  162.1010  203.6810  147.1050 C   0  0  0  0  0  3  0  0  0  0  0  0
  161.7320  205.5920  145.5530 C   0  0  0  0  0  1  0  0  0  0  0  0
  1  9  1  0  0  0  0
  1  8  1  1  0  0  0
  2 12  1  6  0  0  0
  2 10  1  0  0  0  0
  3  5  1  6  0  0  0
  3 11  1  0  0  0  0
  4  7  2  0  0  0  0
  4  3  1  0  0  0  0
  6  2  1  0  0  0  0
  6  7  1  0  0  0  0
  7  1  1  0  0  0  0
  9 31  1  0  0  0  0
 10  9  1  0  0  0  0
 11  8  1  0  0  0  0
 12 13  1  6  0  0  0
 14 12  1  0  0  0  0
 14 15  1  0  0  0  0
 15 16  1  1  0  0  0
 17 21  1  6  0  0  0
 17 15  1  0  0  0  0
 19 18  1  0  0  0  0
 19 17  1  0  0  0  0
 20 19  1  0  0  0  0
 20 18  1  0  0  0  0
 21 22  1  6  0  0  0
 23 24  1  6  0  0  0
 23 21  1  0  0  0  0
 25 23  1  6  0  0  0
 25 29  1  0  0  0  0
 26 28  1  0  0  0  0
 28 27  2  0  0  0  0
 29 28  1  0  0  0  0
 30 25  1  0  0  0  0
 30 26  1  0  0  0  0
 31 36  1  0  0  0  0
 33 32  1  0  0  0  0
 33 38  1  0  0  0  0
 34 36  2  0  0  0  0
 34 37  1  0  0  0  0
 35 32  2  0  0  0  0
 36 35  1  0  0  0  0
 37 33  2  0  0  0  0
 39 38  1  0  0  0  0
 40  4  1  0  0  0  0
 41 42  2  0  0  0  0
 42 40  1  0  0  0  0
 43 41  1  0  0  0  0
M  END
>  <MODEL>
5

>  <REMARK>
 VINA RESULT:      -7.4      1.628      3.368
  Name = 
  13 active torsions:
  status: ('A' for Active; 'I' for Inactive)
    1  A    between atoms: C_1  and  N_34
    2  A    between atoms: C_1  and  C_35
    3  A    between atoms: C_2  and  C_6
    4  A    between atoms: C_2  and  C_13
    5  A    between atoms: C_3  and  C_4
    6  A    between atoms: C_3  and  C_12
    7  A    between atoms: C_3  and  C_15
    8  A    between atoms: C_4  and  C_14
    9  A    between atoms: C_6  and  C_12
   10  A    between atoms: C_11  and  C_14
   11  A    between atoms: C_18  and  C_24
   12  A    between atoms: C_19  and  O_25
   13  A    between atoms: C_21  and  C_24
                            x       y       z     vdW  Elec       q    Type
                         _______ _______ _______ _____ _____    ______ ____

>  <TORSDO>
F 13

$$$$
=
 OpenBabel11062410213D

 43 47  0  0  1  0  0  0  0  0999 V2000
  161.3070  212.3910  149.8640 C   0  0  2  0  0  3  0  0  0  0  0  0
  161.8380  209.5310  149.5560 C   0  0  1  0  0  3  0  0  0  0  0  0
  159.3540  213.0760  151.9850 C   0  0  1  0  0  3  0  0  0  0  0  0
  160.0510  211.7300  151.9520 C   0  0  0  0  0  0  0  0  0  0  0  0
  159.2710  213.5520  153.2960 O   0  0  0  0  0  1  0  0  0  0  0  0
  161.5910  210.0590  150.9630 C   0  0  0  0  0  2  0  0  0  0  0  0
  160.8760  211.3840  150.9310 C   0  0  0  0  0  0  0  0  0  0  0  0
  160.3010  213.5400  149.7440 C   0  0  0  0  0  2  0  0  0  0  0  0
  161.4900  211.7350  148.5570 N   0  0  0  0  0  0  0  0  0  0  0  0
  162.4420  210.6340  148.6890 C   0  0  0  0  0  2  0  0  0  0  0  0
  160.0390  214.1230  151.1170 C   0  0  0  0  0  2  0  0  0  0  0  0
  162.7060  208.2710  149.6010 C   0  0  1  0  0  3  0  0  0  0  0  0
  162.3210  207.3970  150.7840 C   0  0  0  0  0  1  0  0  0  0  0  0
  162.6470  207.4720  148.3010 C   0  0  0  0  0  2  0  0  0  0  0  0
  161.2510  206.9220  147.9830 C   0  0  2  0  0  3  0  0  0  0  0  0
  160.4120  206.9390  149.1020 O   0  0  0  0  0  1  0  0  0  0  0  0
  161.1950  205.5840  147.2050 C   0  0  1  0  0  3  0  0  0  0  0  0
  160.4630  206.1890  144.9010 C   0  0  0  0  0  2  0  0  0  0  0  0
  161.6260  205.7020  145.7440 C   0  0  0  0  0  3  0  0  0  0  0  0
  160.8380  204.7250  144.8930 C   0  0  0  0  0  2  0  0  0  0  0  0
  161.7980  204.3390  147.8770 C   0  0  2  0  0  3  0  0  0  0  0  0
  163.0080  203.9710  147.2820 O   0  0  0  0  0  1  0  0  0  0  0  0
  160.8360  203.1540  148.0130 C   0  0  1  0  0  3  0  0  0  0  0  0
  161.4330  201.9810  147.5360 O   0  0  0  0  0  1  0  0  0  0  0  0
  160.4060  202.9630  149.4640 C   0  0  2  0  0  3  0  0  0  0  0  0
  161.5530  202.2810  151.5360 C   0  0  0  0  0  2  0  0  0  0  0  0
  161.5990  204.4730  152.4370 O   0  0  0  0  0  0  0  0  0  0  0  0
  161.2940  203.7350  151.5170 C   0  0  0  0  0  0  0  0  0  0  0  0
  160.6640  204.2260  150.2740 C   0  0  0  0  0  2  0  0  0  0  0  0
  161.1900  201.8280  150.1340 C   0  0  0  0  0  2  0  0  0  0  0  0
  162.1150  212.6890  147.6460 C   0  0  0  0  0  2  0  0  0  0  0  0
  159.2660  212.3950  145.1670 C   0  0  0  0  0  3  0  0  0  0  0  0
  159.8530  212.8980  144.0000 C   0  0  0  0  0  0  0  0  0  0  0  0
  161.9170  213.2820  145.2230 C   0  0  0  0  0  3  0  0  0  0  0  0
  160.0000  212.3350  146.3560 C   0  0  0  0  0  3  0  0  0  0  0  0
  161.3230  212.7830  146.3870 C   0  0  0  0  0  0  0  0  0  0  0  0
  161.1860  213.3430  144.0340 C   0  0  0  0  0  3  0  0  0  0  0  0
  159.0940  212.9430  142.8280 O   0  0  0  0  0  0  0  0  0  0  0  0
  159.6400  212.6550  141.5470 C   0  0  0  0  0  1  0  0  0  0  0  0
  159.6640  210.7150  152.9950 C   0  0  0  0  0  2  0  0  0  0  0  0
  160.3610  210.8400  155.3960 C   0  0  0  0  0  3  0  0  0  0  0  0
  160.6730  210.6780  154.1050 C   0  0  0  0  0  3  0  0  0  0  0  0
  158.9660  211.0930  155.8680 C   0  0  0  0  0  1  0  0  0  0  0  0
  1  8  1  6  0  0  0
  1  7  1  0  0  0  0
  2 12  1  1  0  0  0
  2  6  1  0  0  0  0
  3  5  1  1  0  0  0
  4  3  1  0  0  0  0
  4 40  1  0  0  0  0
  7  6  1  0  0  0  0
  7  4  2  0  0  0  0
  8 11  1  0  0  0  0
  9 10  1  0  0  0  0
  9  1  1  0  0  0  0
 10  2  1  0  0  0  0
 11  3  1  0  0  0  0
 12 13  1  1  0  0  0
 14 12  1  0  0  0  0
 15 14  1  0  0  0  0
 15 16  1  1  0  0  0
 17 21  1  1  0  0  0
 17 15  1  0  0  0  0
 18 19  1  0  0  0  0
 19 17  1  0  0  0  0
 20 18  1  0  0  0  0
 20 19  1  0  0  0  0
 21 22  1  6  0  0  0
 21 23  1  0  0  0  0
 23 24  1  1  0  0  0
 25 23  1  6  0  0  0
 25 30  1  0  0  0  0
 25 29  1  0  0  0  0
 28 26  1  0  0  0  0
 28 27  2  0  0  0  0
 29 28  1  0  0  0  0
 30 26  1  0  0  0  0
 31  9  1  0  0  0  0
 32 35  1  0  0  0  0
 33 37  1  0  0  0  0
 33 32  2  0  0  0  0
 34 36  1  0  0  0  0
 35 36  2  0  0  0  0
 36 31  1  0  0  0  0
 37 34  2  0  0  0  0
 38 33  1  0  0  0  0
 39 38  1  0  0  0  0
 40 42  1  0  0  0  0
 41 43  1  0  0  0  0
 42 41  2  0  0  0  0
M  END
>  <MODEL>
6

>  <REMARK>
 VINA RESULT:      -6.9      2.280      9.767
  Name = 
  13 active torsions:
  status: ('A' for Active; 'I' for Inactive)
    1  A    between atoms: C_1  and  N_34
    2  A    between atoms: C_1  and  C_35
    3  A    between atoms: C_2  and  C_6
    4  A    between atoms: C_2  and  C_13
    5  A    between atoms: C_3  and  C_4
    6  A    between atoms: C_3  and  C_12
    7  A    between atoms: C_3  and  C_15
    8  A    between atoms: C_4  and  C_14
    9  A    between atoms: C_6  and  C_12
   10  A    between atoms: C_11  and  C_14
   11  A    between atoms: C_18  and  C_24
   12  A    between atoms: C_19  and  O_25
   13  A    between atoms: C_21  and  C_24
                            x       y       z     vdW  Elec       q    Type
                         _______ _______ _______ _____ _____    ______ ____

>  <TORSDO>
F 13

$$$$
=
 OpenBabel11062410213D

 43 47  0  0  1  0  0  0  0  0999 V2000
  160.6280  211.5380  152.6520 C   0  0  2  0  0  3  0  0  0  0  0  0
  160.8950  208.8650  151.4940 C   0  0  1  0  0  3  0  0  0  0  0  0
  158.9750  211.6740  155.1070 C   0  0  1  0  0  3  0  0  0  0  0  0
  159.5560  210.3640  154.6130 C   0  0  0  0  0  0  0  0  0  0  0  0
  159.0720  211.7580  156.4980 O   0  0  0  0  0  1  0  0  0  0  0  0
  160.8430  208.9780  153.0120 C   0  0  0  0  0  2  0  0  0  0  0  0
  160.2360  210.2890  153.4400 C   0  0  0  0  0  0  0  0  0  0  0  0
  159.7090  212.7170  152.9850 C   0  0  0  0  0  2  0  0  0  0  0  0
  160.6170  211.2770  151.2020 N   0  0  0  0  0  0  0  0  0  0  0  0
  161.4870  210.1410  150.9000 C   0  0  0  0  0  2  0  0  0  0  0  0
  159.6430  212.8940  154.4880 C   0  0  0  0  0  2  0  0  0  0  0  0
  161.6600  207.6070  151.0760 C   0  0  1  0  0  3  0  0  0  0  0  0
  161.8510  206.6770  152.2630 C   0  0  0  0  0  1  0  0  0  0  0  0
  160.9910  206.8710  149.9180 C   0  0  0  0  0  2  0  0  0  0  0  0
  161.9070  206.6770  148.7040 C   0  0  2  0  0  3  0  0  0  0  0  0
  162.3450  207.8950  148.1760 O   0  0  0  0  0  1  0  0  0  0  0  0
  161.4180  205.6870  147.6180 C   0  0  1  0  0  3  0  0  0  0  0  0
  160.1150  206.5110  145.6600 C   0  0  0  0  0  2  0  0  0  0  0  0
  161.5070  206.2380  146.1960 C   0  0  0  0  0  3  0  0  0  0  0  0
  160.8590  205.2690  145.2260 C   0  0  0  0  0  2  0  0  0  0  0  0
  161.9160  204.2340  147.6980 C   0  0  2  0  0  3  0  0  0  0  0  0
  163.0660  204.0440  146.9280 O   0  0  0  0  0  1  0  0  0  0  0  0
  160.8470  203.1730  147.4120 C   0  0  1  0  0  3  0  0  0  0  0  0
  161.3680  202.1590  146.6000 O   0  0  0  0  0  1  0  0  0  0  0  0
  160.3100  202.5750  148.7090 C   0  0  2  0  0  3  0  0  0  0  0  0
  161.2070  201.0250  150.4020 C   0  0  0  0  0  2  0  0  0  0  0  0
  161.5790  202.7250  152.0120 O   0  0  0  0  0  0  0  0  0  0  0  0
  161.2040  202.4180  150.8940 C   0  0  0  0  0  0  0  0  0  0  0  0
  160.7370  203.4120  149.9070 C   0  0  0  0  0  2  0  0  0  0  0  0
  160.8500  201.1570  148.9340 C   0  0  0  0  0  2  0  0  0  0  0  0
  161.2140  212.4220  150.5220 C   0  0  0  0  0  2  0  0  0  0  0  0
  160.6160  212.3470  146.7820 C   0  0  0  0  0  3  0  0  0  0  0  0
  159.4000  213.0320  146.6760 C   0  0  0  0  0  0  0  0  0  0  0  0
  159.3590  213.3030  149.0900 C   0  0  0  0  0  3  0  0  0  0  0  0
  161.2020  212.1410  148.0350 C   0  0  0  0  0  3  0  0  0  0  0  0
  160.5720  212.6130  149.1900 C   0  0  0  0  0  0  0  0  0  0  0  0
  158.7720  213.5100  147.8390 C   0  0  0  0  0  3  0  0  0  0  0  0
  158.8410  213.2240  145.4100 O   0  0  0  0  0  0  0  0  0  0  0  0
  159.3330  212.5720  144.2450 C   0  0  0  0  0  1  0  0  0  0  0  0
  159.2050  209.1110  155.3720 C   0  0  0  0  0  2  0  0  0  0  0  0
  160.8520  207.7550  156.6790 C   0  0  0  0  0  3  0  0  0  0  0  0
  160.1620  208.8870  156.5060 C   0  0  0  0  0  3  0  0  0  0  0  0
  160.7290  206.5800  155.7650 C   0  0  0  0  0  1  0  0  0  0  0  0
  1  8  1  6  0  0  0
  1  7  1  0  0  0  0
  2 12  1  1  0  0  0
  2  6  1  0  0  0  0
  3  5  1  1  0  0  0
  4  3  1  0  0  0  0
  4 40  1  0  0  0  0
  6  7  1  0  0  0  0
  7  4  2  0  0  0  0
  8 11  1  0  0  0  0
  9  1  1  0  0  0  0
 10  9  1  0  0  0  0
 10  2  1  0  0  0  0
 11  3  1  0  0  0  0
 12 13  1  1  0  0  0
 14 12  1  0  0  0  0
 15 16  1  6  0  0  0
 15 14  1  0  0  0  0
 17 21  1  6  0  0  0
 17 15  1  0  0  0  0
 18 19  1  0  0  0  0
 19 17  1  0  0  0  0
 20 18  1  0  0  0  0
 20 19  1  0  0  0  0
 21 22  1  6  0  0  0
 23 24  1  6  0  0  0
 23 21  1  0  0  0  0
 25 23  1  6  0  0  0
 25 30  1  0  0  0  0
 25 29  1  0  0  0  0
 26 28  1  0  0  0  0
 28 27  2  0  0  0  0
 29 28  1  0  0  0  0
 30 26  1  0  0  0  0
 31  9  1  0  0  0  0
 32 35  1  0  0  0  0
 33 32  2  0  0  0  0
 33 37  1  0  0  0  0
 34 36  1  0  0  0  0
 35 36  2  0  0  0  0
 36 31  1  0  0  0  0
 37 34  2  0  0  0  0
 38 33  1  0  0  0  0
 39 38  1  0  0  0  0
 40 42  1  0  0  0  0
 42 41  2  0  0  0  0
 43 41  1  0  0  0  0
M  END
>  <MODEL>
7

>  <REMARK>
 VINA RESULT:      -6.7      1.977      9.153
  Name = 
  13 active torsions:
  status: ('A' for Active; 'I' for Inactive)
    1  A    between atoms: C_1  and  N_34
    2  A    between atoms: C_1  and  C_35
    3  A    between atoms: C_2  and  C_6
    4  A    between atoms: C_2  and  C_13
    5  A    between atoms: C_3  and  C_4
    6  A    between atoms: C_3  and  C_12
    7  A    between atoms: C_3  and  C_15
    8  A    between atoms: C_4  and  C_14
    9  A    between atoms: C_6  and  C_12
   10  A    between atoms: C_11  and  C_14
   11  A    between atoms: C_18  and  C_24
   12  A    between atoms: C_19  and  O_25
   13  A    between atoms: C_21  and  C_24
                            x       y       z     vdW  Elec       q    Type
                         _______ _______ _______ _____ _____    ______ ____

>  <TORSDO>
F 13

$$$$
=
 OpenBabel11062410213D

 43 47  0  0  1  0  0  0  0  0999 V2000
  158.0720  213.5500  153.3100 C   0  0  2  0  0  3  0  0  0  0  0  0
  159.9870  211.3540  153.5710 C   0  0  1  0  0  3  0  0  0  0  0  0
  155.6010  213.2470  154.9180 C   0  0  1  0  0  3  0  0  0  0  0  0
  156.8520  212.4490  155.2270 C   0  0  0  0  0  0  0  0  0  0  0  0
  154.9940  213.6820  156.0990 O   0  0  0  0  0  1  0  0  0  0  0  0
  159.1940  211.7540  154.8080 C   0  0  0  0  0  2  0  0  0  0  0  0
  157.9530  212.5220  154.4350 C   0  0  0  0  0  0  0  0  0  0  0  0
  156.6930  214.0120  152.8310 C   0  0  0  0  0  2  0  0  0  0  0  0
  158.8510  213.0130  152.1800 N   0  0  0  0  0  0  0  0  0  0  0  0
  160.1580  212.5630  152.6540 C   0  0  0  0  0  2  0  0  0  0  0  0
  155.8680  214.4500  154.0230 C   0  0  0  0  0  2  0  0  0  0  0  0
  161.3220  210.7210  153.9710 C   0  0  1  0  0  3  0  0  0  0  0  0
  161.1900  209.9810  155.2930 C   0  0  0  0  0  1  0  0  0  0  0  0
  161.8800  209.7970  152.8920 C   0  0  0  0  0  2  0  0  0  0  0  0
  160.8470  208.8090  152.3380 C   0  0  2  0  0  3  0  0  0  0  0  0
  160.3470  207.9600  153.3310 O   0  0  0  0  0  1  0  0  0  0  0  0
  161.2330  208.0590  151.0390 C   0  0  1  0  0  3  0  0  0  0  0  0
  161.7890  210.1330  149.7740 C   0  0  0  0  0  2  0  0  0  0  0  0
  162.2990  208.7720  150.2090 C   0  0  0  0  0  3  0  0  0  0  0  0
  161.7960  208.9820  148.7940 C   0  0  0  0  0  2  0  0  0  0  0  0
  161.5070  206.5480  151.1390 C   0  0  2  0  0  3  0  0  0  0  0  0
  162.8750  206.2710  151.0870 O   0  0  0  0  0  1  0  0  0  0  0  0
  160.7040  205.6860  150.1590 C   0  0  1  0  0  3  0  0  0  0  0  0
  160.5350  206.3560  148.9420 O   0  0  0  0  0  1  0  0  0  0  0  0
  161.3930  204.3460  149.9200 C   0  0  2  0  0  3  0  0  0  0  0  0
  160.6690  201.9910  149.9820 C   0  0  0  0  0  2  0  0  0  0  0  0
  160.6550  201.7530  147.6230 O   0  0  0  0  0  0  0  0  0  0  0  0
  160.8350  202.4670  148.5930 C   0  0  0  0  0  0  0  0  0  0  0  0
  161.2080  203.8920  148.4790 C   0  0  0  0  0  2  0  0  0  0  0  0
  160.8060  203.2490  150.8180 C   0  0  0  0  0  2  0  0  0  0  0  0
  159.1220  214.1020  151.2480 C   0  0  0  0  0  2  0  0  0  0  0  0
  157.3480  212.8030  148.1640 C   0  0  0  0  0  3  0  0  0  0  0  0
  158.3970  212.7400  147.2390 C   0  0  0  0  0  0  0  0  0  0  0  0
  159.9200  213.5860  148.9320 C   0  0  0  0  0  3  0  0  0  0  0  0
  157.5830  213.2550  149.4660 C   0  0  0  0  0  3  0  0  0  0  0  0
  158.8660  213.6520  149.8500 C   0  0  0  0  0  0  0  0  0  0  0  0
  159.6880  213.1350  147.6300 C   0  0  0  0  0  3  0  0  0  0  0  0
  158.1310  212.2820  145.9460 O   0  0  0  0  0  0  0  0  0  0  0  0
  159.1150  212.2600  144.9200 C   0  0  0  0  0  1  0  0  0  0  0  0
  156.7800  211.4360  156.3390 C   0  0  0  0  0  2  0  0  0  0  0  0
  154.5860  210.2750  156.0220 C   0  0  0  0  0  3  0  0  0  0  0  0
  155.3540  211.1370  156.6980 C   0  0  0  0  0  3  0  0  0  0  0  0
  155.0660  209.5280  154.8210 C   0  0  0  0  0  1  0  0  0  0  0  0
  1  8  1  6  0  0  0
  1  7  1  0  0  0  0
  2 12  1  1  0  0  0
  2  6  1  0  0  0  0
  3  4  1  0  0  0  0
  3  5  1  1  0  0  0
  4 40  1  0  0  0  0
  7  6  1  0  0  0  0
  7  4  2  0  0  0  0
  8 11  1  0  0  0  0
  9 10  1  0  0  0  0
  9  1  1  0  0  0  0
 10  2  1  0  0  0  0
 11  3  1  0  0  0  0
 12 13  1  1  0  0  0
 14 12  1  0  0  0  0
 15 14  1  0  0  0  0
 15 16  1  1  0  0  0
 17 21  1  1  0  0  0
 17 15  1  0  0  0  0
 18 19  1  0  0  0  0
 19 17  1  0  0  0  0
 20 18  1  0  0  0  0
 20 19  1  0  0  0  0
 21 22  1  6  0  0  0
 23 24  1  6  0  0  0
 23 21  1  0  0  0  0
 25 23  1  6  0  0  0
 25 30  1  0  0  0  0
 26 30  1  0  0  0  0
 27 28  2  0  0  0  0
 28 26  1  0  0  0  0
 29 28  1  0  0  0  0
 29 25  1  0  0  0  0
 31  9  1  0  0  0  0
 32 35  1  0  0  0  0
 33 37  1  0  0  0  0
 33 32  2  0  0  0  0
 34 36  1  0  0  0  0
 35 36  2  0  0  0  0
 36 31  1  0  0  0  0
 37 34  2  0  0  0  0
 38 33  1  0  0  0  0
 39 38  1  0  0  0  0
 40 42  1  0  0  0  0
 41 42  2  0  0  0  0
 43 41  1  0  0  0  0
M  END
>  <MODEL>
8

>  <REMARK>
 VINA RESULT:      -6.5      2.773      9.445
  Name = 
  13 active torsions:
  status: ('A' for Active; 'I' for Inactive)
    1  A    between atoms: C_1  and  N_34
    2  A    between atoms: C_1  and  C_35
    3  A    between atoms: C_2  and  C_6
    4  A    between atoms: C_2  and  C_13
    5  A    between atoms: C_3  and  C_4
    6  A    between atoms: C_3  and  C_12
    7  A    between atoms: C_3  and  C_15
    8  A    between atoms: C_4  and  C_14
    9  A    between atoms: C_6  and  C_12
   10  A    between atoms: C_11  and  C_14
   11  A    between atoms: C_18  and  C_24
   12  A    between atoms: C_19  and  O_25
   13  A    between atoms: C_21  and  C_24
                            x       y       z     vdW  Elec       q    Type
                         _______ _______ _______ _____ _____    ______ ____

>  <TORSDO>
F 13

$$$$
=
 OpenBabel11062410213D

 43 47  0  0  1  0  0  0  0  0999 V2000
  159.4120  213.0070  153.1540 C   0  0  2  0  0  3  0  0  0  0  0  0
  160.2900  210.3370  152.3440 C   0  0  1  0  0  3  0  0  0  0  0  0
  157.5800  213.0660  155.4830 C   0  0  1  0  0  3  0  0  0  0  0  0
  158.4450  211.8570  155.1830 C   0  0  0  0  0  0  0  0  0  0  0  0
  157.5520  213.3170  156.8570 O   0  0  0  0  0  1  0  0  0  0  0  0
  160.1010  210.6010  153.8330 C   0  0  0  0  0  2  0  0  0  0  0  0
  159.2150  211.7970  154.0660 C   0  0  0  0  0  0  0  0  0  0  0  0
  158.2540  214.0010  153.2920 C   0  0  0  0  0  2  0  0  0  0  0  0
  159.5640  212.5940  151.7470 N   0  0  0  0  0  0  0  0  0  0  0  0
  160.6620  211.6360  151.6330 C   0  0  0  0  0  2  0  0  0  0  0  0
  158.0390  214.3220  154.7560 C   0  0  0  0  0  2  0  0  0  0  0  0
  161.3190  209.2260  152.1240 C   0  0  1  0  0  3  0  0  0  0  0  0
  161.3540  208.2830  153.3160 C   0  0  0  0  0  1  0  0  0  0  0  0
  161.0760  208.4500  150.8320 C   0  0  0  0  0  2  0  0  0  0  0  0
  161.6570  207.0310  150.8510 C   0  0  2  0  0  3  0  0  0  0  0  0
  163.0540  207.0340  150.7970 O   0  0  0  0  0  1  0  0  0  0  0  0
  161.0160  206.0060  149.8830 C   0  0  1  0  0  3  0  0  0  0  0  0
  161.1790  206.5800  147.4640 C   0  0  0  0  0  2  0  0  0  0  0  0
  161.8100  205.7930  148.5960 C   0  0  0  0  0  3  0  0  0  0  0  0
  160.9470  205.0890  147.5670 C   0  0  0  0  0  2  0  0  0  0  0  0
  160.5220  204.6750  150.4740 C   0  0  2  0  0  3  0  0  0  0  0  0
  159.8570  204.8680  151.6880 O   0  0  0  0  0  1  0  0  0  0  0  0
  161.5890  203.5790  150.5680 C   0  0  1  0  0  3  0  0  0  0  0  0
  162.1570  203.5570  151.8470 O   0  0  0  0  0  1  0  0  0  0  0  0
  160.9990  202.2120  150.2380 C   0  0  2  0  0  3  0  0  0  0  0  0
  159.7200  201.2880  148.3450 C   0  0  0  0  0  2  0  0  0  0  0  0
  161.5570  200.0690  147.4740 O   0  0  0  0  0  0  0  0  0  0  0  0
  161.1240  200.8290  148.3220 C   0  0  0  0  0  0  0  0  0  0  0  0
  161.9680  201.3950  149.3940 C   0  0  0  0  0  2  0  0  0  0  0  0
  159.7000  202.3440  149.4340 C   0  0  0  0  0  2  0  0  0  0  0  0
  159.9720  213.7570  150.9660 C   0  0  0  0  0  2  0  0  0  0  0  0
  160.2550  213.4450  147.2020 C   0  0  0  0  0  3  0  0  0  0  0  0
  158.9180  213.2590  146.8320 C   0  0  0  0  0  0  0  0  0  0  0  0
  158.2690  213.3820  149.1700 C   0  0  0  0  0  3  0  0  0  0  0  0
  160.5990  213.5970  148.5480 C   0  0  0  0  0  3  0  0  0  0  0  0
  159.6090  213.5610  149.5340 C   0  0  0  0  0  0  0  0  0  0  0  0
  157.9240  213.2290  147.8250 C   0  0  0  0  0  3  0  0  0  0  0  0
  158.6060  213.1120  145.4780 O   0  0  0  0  0  0  0  0  0  0  0  0
  159.1970  212.1110  144.6570 C   0  0  0  0  0  1  0  0  0  0  0  0
  158.2920  210.6480  156.0680 C   0  0  0  0  0  2  0  0  0  0  0  0
  160.1150  209.4160  157.2600 C   0  0  0  0  0  3  0  0  0  0  0  0
  159.4350  210.5460  157.0350 C   0  0  0  0  0  3  0  0  0  0  0  0
  159.7960  208.1260  156.5780 C   0  0  0  0  0  1  0  0  0  0  0  0
  1  8  1  6  0  0  0
  1  7  1  0  0  0  0
  2 12  1  1  0  0  0
  2  6  1  0  0  0  0
  3  5  1  1  0  0  0
  4  3  1  0  0  0  0
  4 40  1  0  0  0  0
  6  7  1  0  0  0  0
  7  4  2  0  0  0  0
  8 11  1  0  0  0  0
  9  1  1  0  0  0  0
 10  9  1  0  0  0  0
 10  2  1  0  0  0  0
 11  3  1  0  0  0  0
 12 13  1  1  0  0  0
 14 15  1  0  0  0  0
 14 12  1  0  0  0  0
 15 16  1  6  0  0  0
 17 21  1  1  0  0  0
 17 15  1  0  0  0  0
 18 20  1  0  0  0  0
 18 19  1  0  0  0  0
 19 17  1  0  0  0  0
 20 19  1  0  0  0  0
 21 23  1  0  0  0  0
 21 22  1  1  0  0  0
 23 24  1  1  0  0  0
 25 23  1  6  0  0  0
 26 30  1  0  0  0  0
 27 28  2  0  0  0  0
 28 26  1  0  0  0  0
 28 29  1  0  0  0  0
 29 25  1  0  0  0  0
 30 25  1  0  0  0  0
 31  9  1  0  0  0  0
 32 35  1  0  0  0  0
 33 32  2  0  0  0  0
 33 37  1  0  0  0  0
 34 36  1  0  0  0  0
 35 36  2  0  0  0  0
 36 31  1  0  0  0  0
 37 34  2  0  0  0  0
 38 33  1  0  0  0  0
 39 38  1  0  0  0  0
 40 42  1  0  0  0  0
 42 41  2  0  0  0  0
 43 41  1  0  0  0  0
M  END
>  <MODEL>
9

>  <REMARK>
 VINA RESULT:      -6.3      2.343      9.670
  Name = 
  13 active torsions:
  status: ('A' for Active; 'I' for Inactive)
    1  A    between atoms: C_1  and  N_34
    2  A    between atoms: C_1  and  C_35
    3  A    between atoms: C_2  and  C_6
    4  A    between atoms: C_2  and  C_13
    5  A    between atoms: C_3  and  C_4
    6  A    between atoms: C_3  and  C_12
    7  A    between atoms: C_3  and  C_15
    8  A    between atoms: C_4  and  C_14
    9  A    between atoms: C_6  and  C_12
   10  A    between atoms: C_11  and  C_14
   11  A    between atoms: C_18  and  C_24
   12  A    between atoms: C_19  and  O_25
   13  A    between atoms: C_21  and  C_24
                            x       y       z     vdW  Elec       q    Type
                         _______ _______ _______ _____ _____    ______ ____

>  <TORSDO>
F 13

$$$$
