=
 OpenBabel11062407563D

 34 38  0  0  1  0  0  0  0  0999 V2000
  161.2750  205.7280  150.7070 C   0  0  0  0  0  0  0  0  0  0  0  0
  161.8180  206.2250  148.3920 C   0  0  0  0  0  0  0  0  0  0  0  0
  162.2700  207.9840  150.2270 C   0  0  2  0  0  3  0  0  0  0  0  0
  162.2110  210.3630  149.4330 C   0  0  0  0  0  0  0  0  0  0  0  0
  160.8330  204.0870  148.9830 C   0  0  0  0  0  3  0  0  0  0  0  0
  161.3420  204.9620  148.0220 C   0  0  0  0  0  3  0  0  0  0  0  0
  161.7560  206.6370  149.7450 C   0  0  0  0  0  0  0  0  0  0  0  0
  160.8120  204.4640  150.3270 C   0  0  0  0  0  3  0  0  0  0  0  0
  161.4850  208.5050  151.4270 C   0  0  0  0  0  0  0  0  0  0  0  0
  161.3280  206.0800  152.1590 C   0  0  0  0  0  2  0  0  0  0  0  0
  162.3460  207.0190  147.4270 F   0  0  0  0  0  0  0  0  0  0  0  0
  161.7640  210.7590  150.5830 N   0  0  0  0  0  0  0  0  0  0  0  0
  161.3500  209.8440  151.6140 C   0  0  0  0  0  0  0  0  0  0  0  0
  162.3160  208.9700  149.1520 N   0  0  0  0  0  2  0  0  0  0  0  0
  160.8720  207.5160  152.3940 C   0  0  0  0  0  2  0  0  0  0  0  0
  160.8390  211.2480  155.1120 C   0  0  0  0  0  0  0  0  0  0  0  0
  159.5010  211.6470  155.0480 C   0  0  0  0  0  3  0  0  0  0  0  0
  160.7180  210.4340  152.8220 C   0  0  0  0  0  0  0  0  0  0  0  0
  158.7720  211.4510  153.8720 C   0  0  0  0  0  3  0  0  0  0  0  0
  161.4450  210.6520  154.0040 C   0  0  0  0  0  3  0  0  0  0  0  0
  159.3790  210.8530  152.7630 C   0  0  0  0  0  3  0  0  0  0  0  0
  161.5670  211.4460  156.2770 O   0  0  0  0  0  1  0  0  0  0  0  0
  162.5130  211.3610  148.3690 C   0  0  0  0  0  2  0  0  0  0  0  0
  160.4390  211.7960  147.2810 O   0  0  0  0  0  0  0  0  0  0  0  0
  161.1680  213.4610  148.7500 N   0  0  0  0  0  2  0  0  0  0  0  0
  161.3070  212.1970  148.1000 C   0  0  0  0  0  0  0  0  0  0  0  0
  160.0720  214.3680  148.4540 C   0  0  0  0  0  2  0  0  0  0  0  0
  157.3480  213.6720  147.8480 O   0  0  0  0  0  1  0  0  0  0  0  0
  159.0240  214.2480  149.5090 C   0  0  0  0  0  0  0  0  0  0  0  0
  157.7070  213.8890  149.1730 C   0  0  0  0  0  0  0  0  0  0  0  0
  157.0930  213.9600  151.5180 C   0  0  0  0  0  3  0  0  0  0  0  0
  158.4040  214.3120  151.8530 C   0  0  0  0  0  3  0  0  0  0  0  0
  159.3690  214.4530  150.8510 C   0  0  0  0  0  3  0  0  0  0  0  0
  156.7450  213.7500  150.1800 C   0  0  0  0  0  3  0  0  0  0  0  0
  1 10  1  0  0  0  0
  2  7  1  0  0  0  0
  3 14  1  6  0  0  0
  3  9  1  0  0  0  0
  4 12  2  0  0  0  0
  5  8  2  0  0  0  0
  6  2  2  0  0  0  0
  6  5  1  0  0  0  0
  7  3  1  0  0  0  0
  7  1  2  0  0  0  0
  8  1  1  0  0  0  0
  9 13  2  0  0  0  0
  9 15  1  0  0  0  0
 10 15  1  0  0  0  0
 11  2  1  0  0  0  0
 12 13  1  0  0  0  0
 13 18  1  0  0  0  0
 14  4  1  0  0  0  0
 16 22  1  0  0  0  0
 17 16  1  0  0  0  0
 18 20  1  0  0  0  0
 19 17  2  0  0  0  0
 20 16  2  0  0  0  0
 21 18  2  0  0  0  0
 21 19  1  0  0  0  0
 23  4  1  0  0  0  0
 24 26  2  0  0  0  0
 26 23  1  0  0  0  0
 26 25  1  0  0  0  0
 27 25  1  0  0  0  0
 27 29  1  0  0  0  0
 28 30  1  0  0  0  0
 29 33  1  0  0  0  0
 30 29  2  0  0  0  0
 30 34  1  0  0  0  0
 31 32  1  0  0  0  0
 33 32  2  0  0  0  0
 34 31  2  0  0  0  0
M  END
>  <MODEL>
1

>  <REMARK>
 VINA RESULT:      -9.0      0.000      0.000
  Name = 
  5 active torsions:
  status: ('A' for Active; 'I' for Inactive)
    1  A    between atoms: C_3  and  C_13
    2  A    between atoms: C_3  and  N_17
    3  A    between atoms: C_5  and  C_18
    4  A    between atoms: C_12  and  C_28
    5  A    between atoms: C_18  and  C_29
                            x       y       z     vdW  Elec       q    Type
                         _______ _______ _______ _____ _____    ______ ____

>  <TORSDO>
F 5

$$$$
=
 OpenBabel11062407563D

 34 38  0  0  1  0  0  0  0  0999 V2000
  161.2200  205.0010  152.0010 C   0  0  0  0  0  0  0  0  0  0  0  0
  161.4810  204.8840  149.5880 C   0  0  0  0  0  0  0  0  0  0  0  0
  162.1310  207.0400  150.8500 C   0  0  2  0  0  3  0  0  0  0  0  0
  161.9560  209.1420  149.4910 C   0  0  0  0  0  0  0  0  0  0  0  0
  160.5930  202.9870  150.8130 C   0  0  0  0  0  3  0  0  0  0  0  0
  160.9760  203.5790  149.6090 C   0  0  0  0  0  3  0  0  0  0  0  0
  161.5760  205.6260  150.7900 C   0  0  0  0  0  0  0  0  0  0  0  0
  160.7280  203.6920  152.0100 C   0  0  0  0  0  3  0  0  0  0  0  0
  161.4890  207.8650  151.9620 C   0  0  0  0  0  0  0  0  0  0  0  0
  161.4420  205.7080  153.2990 C   0  0  0  0  0  2  0  0  0  0  0  0
  161.8830  205.3970  148.3980 F   0  0  0  0  0  0  0  0  0  0  0  0
  161.6450  209.8250  150.5470 N   0  0  0  0  0  0  0  0  0  0  0  0
  161.3640  209.2100  151.8180 C   0  0  0  0  0  0  0  0  0  0  0  0
  162.0400  207.7220  149.5630 N   0  0  0  0  0  2  0  0  0  0  0  0
  161.0030  207.1660  153.2130 C   0  0  0  0  0  2  0  0  0  0  0  0
  159.1500  211.5000  153.8970 C   0  0  0  0  0  0  0  0  0  0  0  0
  159.9510  211.6950  155.0250 C   0  0  0  0  0  3  0  0  0  0  0  0
  160.8740  210.1000  152.9010 C   0  0  0  0  0  0  0  0  0  0  0  0
  161.2060  211.0870  155.1000 C   0  0  0  0  0  3  0  0  0  0  0  0
  159.6060  210.7020  152.8440 C   0  0  0  0  0  3  0  0  0  0  0  0
  161.6630  210.2890  154.0470 C   0  0  0  0  0  3  0  0  0  0  0  0
  157.9000  212.0990  153.8210 O   0  0  0  0  0  1  0  0  0  0  0  0
  162.1210  209.8320  148.1810 C   0  0  0  0  0  2  0  0  0  0  0  0
  162.7460  211.9720  149.0220 O   0  0  0  0  0  0  0  0  0  0  0  0
  160.7670  211.9220  147.7800 N   0  0  0  0  0  2  0  0  0  0  0  0
  161.9180  211.2990  148.3510 C   0  0  0  0  0  0  0  0  0  0  0  0
  160.4570  213.3250  147.9940 C   0  0  0  0  0  2  0  0  0  0  0  0
  160.0820  213.4650  150.8430 O   0  0  0  0  0  1  0  0  0  0  0  0
  159.1070  213.4500  148.6180 C   0  0  0  0  0  0  0  0  0  0  0  0
  158.9680  213.5320  150.0140 C   0  0  0  0  0  0  0  0  0  0  0  0
  156.5670  213.7540  149.7580 C   0  0  0  0  0  3  0  0  0  0  0  0
  156.7060  213.6780  148.3690 C   0  0  0  0  0  3  0  0  0  0  0  0
  157.9730  213.5280  147.7990 C   0  0  0  0  0  3  0  0  0  0  0  0
  157.6960  213.6810  150.5790 C   0  0  0  0  0  3  0  0  0  0  0  0
  1  8  1  0  0  0  0
  1 10  1  0  0  0  0
  2  6  2  0  0  0  0
  2  7  1  0  0  0  0
  3 14  1  6  0  0  0
  3  9  1  0  0  0  0
  4 14  1  0  0  0  0
  4 12  2  0  0  0  0
  5  8  2  0  0  0  0
  6  5  1  0  0  0  0
  7  3  1  0  0  0  0
  7  1  2  0  0  0  0
  9 15  1  0  0  0  0
 11  2  1  0  0  0  0
 12 13  1  0  0  0  0
 13  9  2  0  0  0  0
 13 18  1  0  0  0  0
 15 10  1  0  0  0  0
 16 17  1  0  0  0  0
 17 19  2  0  0  0  0
 18 21  2  0  0  0  0
 20 18  1  0  0  0  0
 20 16  2  0  0  0  0
 21 19  1  0  0  0  0
 22 16  1  0  0  0  0
 23 26  1  0  0  0  0
 23  4  1  0  0  0  0
 25 27  1  0  0  0  0
 25 26  1  0  0  0  0
 26 24  2  0  0  0  0
 27 29  1  0  0  0  0
 29 30  1  0  0  0  0
 30 34  2  0  0  0  0
 30 28  1  0  0  0  0
 31 34  1  0  0  0  0
 32 31  2  0  0  0  0
 33 32  1  0  0  0  0
 33 29  2  0  0  0  0
M  END
>  <MODEL>
2

>  <REMARK>
 VINA RESULT:      -8.7      1.553      2.077
  Name = 
  5 active torsions:
  status: ('A' for Active; 'I' for Inactive)
    1  A    between atoms: C_3  and  C_13
    2  A    between atoms: C_3  and  N_17
    3  A    between atoms: C_5  and  C_18
    4  A    between atoms: C_12  and  C_28
    5  A    between atoms: C_18  and  C_29
                            x       y       z     vdW  Elec       q    Type
                         _______ _______ _______ _____ _____    ______ ____

>  <TORSDO>
F 5

$$$$
=
 OpenBabel11062407563D

 34 38  0  0  1  0  0  0  0  0999 V2000
  161.2310  208.9990  153.5530 C   0  0  0  0  0  0  0  0  0  0  0  0
  161.4330  206.7090  152.7650 C   0  0  0  0  0  0  0  0  0  0  0  0
  162.3950  208.6460  151.3550 C   0  0  2  0  0  3  0  0  0  0  0  0
  162.4910  208.1970  148.8880 C   0  0  0  0  0  0  0  0  0  0  0  0
  160.3120  207.1830  154.8650 C   0  0  0  0  0  3  0  0  0  0  0  0
  160.7540  206.2690  153.9070 C   0  0  0  0  0  3  0  0  0  0  0  0
  161.6500  208.0930  152.5590 C   0  0  0  0  0  0  0  0  0  0  0  0
  160.5630  208.5460  154.6950 C   0  0  0  0  0  3  0  0  0  0  0  0
  161.8910  210.0280  150.9490 C   0  0  0  0  0  0  0  0  0  0  0  0
  161.5690  210.4500  153.4310 C   0  0  0  0  0  2  0  0  0  0  0  0
  161.8840  205.7770  151.8880 F   0  0  0  0  0  0  0  0  0  0  0  0
  162.2940  209.4520  148.6310 N   0  0  0  0  0  0  0  0  0  0  0  0
  161.9520  210.4110  149.6470 C   0  0  0  0  0  0  0  0  0  0  0  0
  162.3790  207.7210  150.2260 N   0  0  0  0  0  2  0  0  0  0  0  0
  161.3340  210.9510  152.0110 C   0  0  0  0  0  2  0  0  0  0  0  0
  160.2060  213.7710  149.2740 C   0  0  0  0  0  0  0  0  0  0  0  0
  161.0530  214.4130  148.3660 C   0  0  0  0  0  3  0  0  0  0  0  0
  161.6060  211.7820  149.1890 C   0  0  0  0  0  0  0  0  0  0  0  0
  162.1790  213.7480  147.8760 C   0  0  0  0  0  3  0  0  0  0  0  0
  160.4850  212.4660  149.6890 C   0  0  0  0  0  3  0  0  0  0  0  0
  162.4580  212.4420  148.2900 C   0  0  0  0  0  3  0  0  0  0  0  0
  159.0880  214.4300  149.7660 O   0  0  0  0  0  1  0  0  0  0  0  0
  162.7280  207.2380  147.7740 C   0  0  0  0  0  2  0  0  0  0  0  0
  160.4180  206.6770  147.9330 O   0  0  0  0  0  0  0  0  0  0  0  0
  161.8350  204.9240  147.3150 N   0  0  0  0  0  2  0  0  0  0  0  0
  161.5860  206.2840  147.6730 C   0  0  0  0  0  0  0  0  0  0  0  0
  160.7830  203.9220  147.2990 C   0  0  0  0  0  2  0  0  0  0  0  0
  161.0400  201.0590  147.1710 O   0  0  0  0  0  1  0  0  0  0  0  0
  160.8810  203.0720  148.5210 C   0  0  0  0  0  0  0  0  0  0  0  0
  161.0220  201.6780  148.4160 C   0  0  0  0  0  0  0  0  0  0  0  0
  161.1340  201.5100  150.8320 C   0  0  0  0  0  3  0  0  0  0  0  0
  160.9990  202.8980  150.9380 C   0  0  0  0  0  3  0  0  0  0  0  0
  160.8750  203.6780  149.7850 C   0  0  0  0  0  3  0  0  0  0  0  0
  161.1460  200.9020  149.5740 C   0  0  0  0  0  3  0  0  0  0  0  0
  1  8  1  0  0  0  0
  2  6  2  0  0  0  0
  3 14  1  6  0  0  0
  3  7  1  0  0  0  0
  4 14  1  0  0  0  0
  6  5  1  0  0  0  0
  7  2  1  0  0  0  0
  7  1  2  0  0  0  0
  8  5  2  0  0  0  0
  9  3  1  0  0  0  0
  9 15  1  0  0  0  0
 10  1  1  0  0  0  0
 11  2  1  0  0  0  0
 12  4  2  0  0  0  0
 12 13  1  0  0  0  0
 13  9  2  0  0  0  0
 15 10  1  0  0  0  0
 16 20  1  0  0  0  0
 16 22  1  0  0  0  0
 17 16  2  0  0  0  0
 18 13  1  0  0  0  0
 18 20  2  0  0  0  0
 19 21  2  0  0  0  0
 19 17  1  0  0  0  0
 21 18  1  0  0  0  0
 23  4  1  0  0  0  0
 25 26  1  0  0  0  0
 26 23  1  0  0  0  0
 26 24  2  0  0  0  0
 27 25  1  0  0  0  0
 27 29  1  0  0  0  0
 28 30  1  0  0  0  0
 29 33  1  0  0  0  0
 30 29  2  0  0  0  0
 30 34  1  0  0  0  0
 31 32  1  0  0  0  0
 33 32  2  0  0  0  0
 34 31  2  0  0  0  0
M  END
>  <MODEL>
3

>  <REMARK>
 VINA RESULT:      -8.2      2.800      7.400
  Name = 
  5 active torsions:
  status: ('A' for Active; 'I' for Inactive)
    1  A    between atoms: C_3  and  C_13
    2  A    between atoms: C_3  and  N_17
    3  A    between atoms: C_5  and  C_18
    4  A    between atoms: C_12  and  C_28
    5  A    between atoms: C_18  and  C_29
                            x       y       z     vdW  Elec       q    Type
                         _______ _______ _______ _____ _____    ______ ____

>  <TORSDO>
F 5

$$$$
=
 OpenBabel11062407563D

 34 38  0  0  1  0  0  0  0  0999 V2000
  161.2290  205.9700  150.6440 C   0  0  0  0  0  0  0  0  0  0  0  0
  161.9550  206.5410  148.3970 C   0  0  0  0  0  0  0  0  0  0  0  0
  162.3190  208.2120  150.3300 C   0  0  2  0  0  3  0  0  0  0  0  0
  162.3840  210.6210  149.6320 C   0  0  0  0  0  0  0  0  0  0  0  0
  160.8710  204.4120  148.8260 C   0  0  0  0  0  3  0  0  0  0  0  0
  161.4730  205.3080  147.9410 C   0  0  0  0  0  3  0  0  0  0  0  0
  161.8050  206.9010  149.7570 C   0  0  0  0  0  0  0  0  0  0  0  0
  160.7620  204.7370  150.1790 C   0  0  0  0  0  3  0  0  0  0  0  0
  161.4620  208.7090  151.4900 C   0  0  0  0  0  0  0  0  0  0  0  0
  161.1850  206.2640  152.1090 C   0  0  0  0  0  2  0  0  0  0  0  0
  162.5740  207.3550  147.5060 F   0  0  0  0  0  0  0  0  0  0  0  0
  161.8650  210.9850  150.7630 N   0  0  0  0  0  0  0  0  0  0  0  0
  161.3510  210.0430  151.7220 C   0  0  0  0  0  0  0  0  0  0  0  0
  162.4710  209.2380  149.3030 N   0  0  0  0  0  2  0  0  0  0  0  0
  160.7520  207.7020  152.3690 C   0  0  0  0  0  2  0  0  0  0  0  0
  160.6180  211.3130  155.2330 C   0  0  0  0  0  0  0  0  0  0  0  0
  159.3050  211.7670  155.0850 C   0  0  0  0  0  3  0  0  0  0  0  0
  160.6470  210.6050  152.9040 C   0  0  0  0  0  0  0  0  0  0  0  0
  158.6640  211.6520  153.8490 C   0  0  0  0  0  3  0  0  0  0  0  0
  161.2880  210.7420  154.1470 C   0  0  0  0  0  3  0  0  0  0  0  0
  159.3340  211.0790  152.7630 C   0  0  0  0  0  3  0  0  0  0  0  0
  161.2590  211.4300  156.4580 O   0  0  0  0  0  1  0  0  0  0  0  0
  162.7910  211.6500  148.6360 C   0  0  0  0  0  2  0  0  0  0  0  0
  160.6890  211.1950  147.6110 O   0  0  0  0  0  0  0  0  0  0  0  0
  161.6000  213.2950  147.1390 N   0  0  0  0  0  2  0  0  0  0  0  0
  161.6250  212.0200  147.7820 C   0  0  0  0  0  0  0  0  0  0  0  0
  160.5460  213.6760  146.2140 C   0  0  0  0  0  2  0  0  0  0  0  0
  158.5570  212.2030  144.7480 O   0  0  0  0  0  1  0  0  0  0  0  0
  160.8180  213.0830  144.8720 C   0  0  0  0  0  0  0  0  0  0  0  0
  159.8140  212.3840  144.1810 C   0  0  0  0  0  0  0  0  0  0  0  0
  161.3360  212.0390  142.3250 C   0  0  0  0  0  3  0  0  0  0  0  0
  162.3340  212.7390  143.0110 C   0  0  0  0  0  3  0  0  0  0  0  0
  162.0750  213.2620  144.2810 C   0  0  0  0  0  3  0  0  0  0  0  0
  160.0780  211.8620  142.9100 C   0  0  0  0  0  3  0  0  0  0  0  0
  1 10  1  0  0  0  0
  2  7  1  0  0  0  0
  3 14  1  6  0  0  0
  3  9  1  0  0  0  0
  4 12  2  0  0  0  0
  5  8  2  0  0  0  0
  6  2  2  0  0  0  0
  6  5  1  0  0  0  0
  7  3  1  0  0  0  0
  7  1  2  0  0  0  0
  8  1  1  0  0  0  0
  9 13  2  0  0  0  0
  9 15  1  0  0  0  0
 10 15  1  0  0  0  0
 11  2  1  0  0  0  0
 12 13  1  0  0  0  0
 13 18  1  0  0  0  0
 14  4  1  0  0  0  0
 16 22  1  0  0  0  0
 17 16  1  0  0  0  0
 18 20  1  0  0  0  0
 19 17  2  0  0  0  0
 20 16  2  0  0  0  0
 21 18  2  0  0  0  0
 21 19  1  0  0  0  0
 23  4  1  0  0  0  0
 24 26  2  0  0  0  0
 25 26  1  0  0  0  0
 26 23  1  0  0  0  0
 27 25  1  0  0  0  0
 29 27  1  0  0  0  0
 30 28  1  0  0  0  0
 30 29  2  0  0  0  0
 31 34  2  0  0  0  0
 31 32  1  0  0  0  0
 32 33  2  0  0  0  0
 33 29  1  0  0  0  0
 34 30  1  0  0  0  0
M  END
>  <MODEL>
4

>  <REMARK>
 VINA RESULT:      -8.0      2.143      3.447
  Name = 
  5 active torsions:
  status: ('A' for Active; 'I' for Inactive)
    1  A    between atoms: C_3  and  C_13
    2  A    between atoms: C_3  and  N_17
    3  A    between atoms: C_5  and  C_18
    4  A    between atoms: C_12  and  C_28
    5  A    between atoms: C_18  and  C_29
                            x       y       z     vdW  Elec       q    Type
                         _______ _______ _______ _____ _____    ______ ____

>  <TORSDO>
F 5

$$$$
=
 OpenBabel11062407563D

 34 38  0  0  1  0  0  0  0  0999 V2000
  162.1560  209.3680  149.0440 C   0  0  0  0  0  0  0  0  0  0  0  0
  161.6150  210.6070  151.0630 C   0  0  0  0  0  0  0  0  0  0  0  0
  162.2200  208.1020  151.2130 C   0  0  2  0  0  3  0  0  0  0  0  0
  161.2020  206.8950  153.1630 C   0  0  0  0  0  0  0  0  0  0  0  0
  161.5690  211.7120  148.9030 C   0  0  0  0  0  3  0  0  0  0  0  0
  161.4070  211.7540  150.2890 C   0  0  0  0  0  3  0  0  0  0  0  0
  161.9600  209.3840  150.4390 C   0  0  0  0  0  0  0  0  0  0  0  0
  161.9560  210.5230  148.2820 C   0  0  0  0  0  3  0  0  0  0  0  0
  161.8390  206.8590  150.4150 C   0  0  0  0  0  0  0  0  0  0  0  0
  162.6570  208.1280  148.3750 C   0  0  0  0  0  2  0  0  0  0  0  0
  161.4920  210.7120  152.4100 F   0  0  0  0  0  0  0  0  0  0  0  0
  161.1350  205.7980  152.4760 N   0  0  0  0  0  0  0  0  0  0  0  0
  161.4180  205.7430  151.0660 C   0  0  0  0  0  0  0  0  0  0  0  0
  161.5770  208.1110  152.5230 N   0  0  0  0  0  2  0  0  0  0  0  0
  161.9430  206.8900  148.9060 C   0  0  0  0  0  2  0  0  0  0  0  0
  161.0800  203.0850  148.3660 C   0  0  0  0  0  0  0  0  0  0  0  0
  160.7430  201.9660  149.1330 C   0  0  0  0  0  3  0  0  0  0  0  0
  161.1550  204.4540  150.3770 C   0  0  0  0  0  0  0  0  0  0  0  0
  160.6220  202.0830  150.5200 C   0  0  0  0  0  3  0  0  0  0  0  0
  161.2910  204.3190  148.9850 C   0  0  0  0  0  3  0  0  0  0  0  0
  160.8320  203.3190  151.1390 C   0  0  0  0  0  3  0  0  0  0  0  0
  161.2060  202.9700  146.9890 O   0  0  0  0  0  1  0  0  0  0  0  0
  160.7850  206.9030  154.5930 C   0  0  0  0  0  2  0  0  0  0  0  0
  161.9560  208.6220  155.7540 O   0  0  0  0  0  0  0  0  0  0  0  0
  159.8130  209.1910  155.0180 N   0  0  0  0  0  2  0  0  0  0  0  0
  160.9060  208.2820  155.1490 C   0  0  0  0  0  0  0  0  0  0  0  0
  159.8250  210.5120  155.6250 C   0  0  0  0  0  2  0  0  0  0  0  0
  159.8550  213.3390  156.1550 O   0  0  0  0  0  1  0  0  0  0  0  0
  159.2830  211.5120  154.6600 C   0  0  0  0  0  0  0  0  0  0  0  0
  159.3310  212.8860  154.9500 C   0  0  0  0  0  0  0  0  0  0  0  0
  158.3200  213.3720  152.8000 C   0  0  0  0  0  3  0  0  0  0  0  0
  158.2760  212.0040  152.5090 C   0  0  0  0  0  3  0  0  0  0  0  0
  158.7590  211.0760  153.4360 C   0  0  0  0  0  3  0  0  0  0  0  0
  158.8460  213.8110  154.0180 C   0  0  0  0  0  3  0  0  0  0  0  0
  1  7  1  0  0  0  0
  2 11  1  0  0  0  0
  3  9  1  6  0  0  0
  3 14  1  0  0  0  0
  4 23  1  0  0  0  0
  5  6  2  0  0  0  0
  6  2  1  0  0  0  0
  7  2  2  0  0  0  0
  7  3  1  0  0  0  0
  8  5  1  0  0  0  0
  8  1  2  0  0  0  0
  9 13  2  0  0  0  0
 10 15  1  0  0  0  0
 10  1  1  0  0  0  0
 12  4  2  0  0  0  0
 13 12  1  0  0  0  0
 14  4  1  0  0  0  0
 15  9  1  0  0  0  0
 16 20  2  0  0  0  0
 16 17  1  0  0  0  0
 17 19  2  0  0  0  0
 18 13  1  0  0  0  0
 18 21  2  0  0  0  0
 19 21  1  0  0  0  0
 20 18  1  0  0  0  0
 22 16  1  0  0  0  0
 23 26  1  0  0  0  0
 25 26  1  0  0  0  0
 25 27  1  0  0  0  0
 26 24  2  0  0  0  0
 29 30  1  0  0  0  0
 29 27  1  0  0  0  0
 30 28  1  0  0  0  0
 31 34  1  0  0  0  0
 32 31  2  0  0  0  0
 32 33  1  0  0  0  0
 33 29  2  0  0  0  0
 34 30  2  0  0  0  0
M  END
>  <MODEL>
5

>  <REMARK>
 VINA RESULT:      -7.9      3.191      6.792
  Name = 
  5 active torsions:
  status: ('A' for Active; 'I' for Inactive)
    1  A    between atoms: C_3  and  C_13
    2  A    between atoms: C_3  and  N_17
    3  A    between atoms: C_5  and  C_18
    4  A    between atoms: C_12  and  C_28
    5  A    between atoms: C_18  and  C_29
                            x       y       z     vdW  Elec       q    Type
                         _______ _______ _______ _____ _____    ______ ____

>  <TORSDO>
F 5

$$$$
=
 OpenBabel11062407563D

 34 38  0  0  1  0  0  0  0  0999 V2000
  161.1710  205.0000  151.9590 C   0  0  0  0  0  0  0  0  0  0  0  0
  161.5020  205.0450  149.5520 C   0  0  0  0  0  0  0  0  0  0  0  0
  162.1760  207.0850  150.9830 C   0  0  2  0  0  3  0  0  0  0  0  0
  162.1060  209.2810  149.7720 C   0  0  0  0  0  0  0  0  0  0  0  0
  160.5210  203.0940  150.6130 C   0  0  0  0  0  3  0  0  0  0  0  0
  160.9580  203.7580  149.4650 C   0  0  0  0  0  3  0  0  0  0  0  0
  161.5820  205.6970  150.8060 C   0  0  0  0  0  0  0  0  0  0  0  0
  160.6400  203.7100  151.8610 C   0  0  0  0  0  3  0  0  0  0  0  0
  161.5250  207.8490  152.1320 C   0  0  0  0  0  0  0  0  0  0  0  0
  161.3730  205.6060  153.3100 C   0  0  0  0  0  2  0  0  0  0  0  0
  161.9560  205.6270  148.4140 F   0  0  0  0  0  0  0  0  0  0  0  0
  161.7830  209.8980  150.8650 N   0  0  0  0  0  0  0  0  0  0  0  0
  161.4450  209.2040  152.0800 C   0  0  0  0  0  0  0  0  0  0  0  0
  162.1460  207.8580  149.7450 N   0  0  0  0  0  2  0  0  0  0  0  0
  160.9810  207.0790  153.3160 C   0  0  0  0  0  2  0  0  0  0  0  0
  161.2510  211.0660  155.3920 C   0  0  0  0  0  0  0  0  0  0  0  0
  160.0030  211.6860  155.2780 C   0  0  0  0  0  3  0  0  0  0  0  0
  160.9480  210.0310  153.2100 C   0  0  0  0  0  0  0  0  0  0  0  0
  159.2320  211.4900  154.1310 C   0  0  0  0  0  3  0  0  0  0  0  0
  161.7230  210.2490  154.3610 C   0  0  0  0  0  3  0  0  0  0  0  0
  159.7040  210.6710  153.1000 C   0  0  0  0  0  3  0  0  0  0  0  0
  162.0230  211.2630  156.5290 O   0  0  0  0  0  1  0  0  0  0  0  0
  162.3310  210.0560  148.5200 C   0  0  0  0  0  2  0  0  0  0  0  0
  161.4530  211.8500  149.8190 O   0  0  0  0  0  0  0  0  0  0  0  0
  161.6910  212.2880  147.5360 N   0  0  0  0  0  2  0  0  0  0  0  0
  161.8100  211.4440  148.6810 C   0  0  0  0  0  0  0  0  0  0  0  0
  161.0960  213.6120  147.6060 C   0  0  0  0  0  2  0  0  0  0  0  0
  160.4810  213.9310  144.8140 O   0  0  0  0  0  1  0  0  0  0  0  0
  159.6990  213.5630  147.0840 C   0  0  0  0  0  0  0  0  0  0  0  0
  159.4410  213.7070  145.7110 C   0  0  0  0  0  0  0  0  0  0  0  0
  157.0730  213.3960  146.1250 C   0  0  0  0  0  3  0  0  0  0  0  0
  157.3290  213.2470  147.4920 C   0  0  0  0  0  3  0  0  0  0  0  0
  158.6400  213.3280  147.9710 C   0  0  0  0  0  3  0  0  0  0  0  0
  158.1270  213.6250  145.2360 C   0  0  0  0  0  3  0  0  0  0  0  0
  1 10  1  0  0  0  0
  2  7  1  0  0  0  0
  3 14  1  6  0  0  0
  3  9  1  0  0  0  0
  4 12  2  0  0  0  0
  5  8  2  0  0  0  0
  6  2  2  0  0  0  0
  6  5  1  0  0  0  0
  7  3  1  0  0  0  0
  7  1  2  0  0  0  0
  8  1  1  0  0  0  0
  9 15  1  0  0  0  0
 10 15  1  0  0  0  0
 11  2  1  0  0  0  0
 12 13  1  0  0  0  0
 13  9  2  0  0  0  0
 13 18  1  0  0  0  0
 14  4  1  0  0  0  0
 16 22  1  0  0  0  0
 17 16  1  0  0  0  0
 18 20  1  0  0  0  0
 19 17  2  0  0  0  0
 20 16  2  0  0  0  0
 21 18  2  0  0  0  0
 21 19  1  0  0  0  0
 23 26  1  0  0  0  0
 23  4  1  0  0  0  0
 25 27  1  0  0  0  0
 25 26  1  0  0  0  0
 26 24  2  0  0  0  0
 28 30  1  0  0  0  0
 29 27  1  0  0  0  0
 29 33  1  0  0  0  0
 30 29  2  0  0  0  0
 31 32  1  0  0  0  0
 32 33  2  0  0  0  0
 34 30  1  0  0  0  0
 34 31  2  0  0  0  0
M  END
>  <MODEL>
6

>  <REMARK>
 VINA RESULT:      -7.9      1.791      2.274
  Name = 
  5 active torsions:
  status: ('A' for Active; 'I' for Inactive)
    1  A    between atoms: C_3  and  C_13
    2  A    between atoms: C_3  and  N_17
    3  A    between atoms: C_5  and  C_18
    4  A    between atoms: C_12  and  C_28
    5  A    between atoms: C_18  and  C_29
                            x       y       z     vdW  Elec       q    Type
                         _______ _______ _______ _____ _____    ______ ____

>  <TORSDO>
F 5

$$$$
=
 OpenBabel11062407563D

 34 38  0  0  1  0  0  0  0  0999 V2000
  161.5850  209.7820  151.2520 C   0  0  0  0  0  0  0  0  0  0  0  0
  160.8350  208.7050  153.2970 C   0  0  0  0  0  0  0  0  0  0  0  0
  161.9300  207.3000  151.4290 C   0  0  2  0  0  3  0  0  0  0  0  0
  161.1990  204.9000  151.3590 C   0  0  0  0  0  0  0  0  0  0  0  0
  160.5400  211.0950  152.9980 C   0  0  0  0  0  3  0  0  0  0  0  0
  160.3920  209.9440  153.7740 C   0  0  0  0  0  3  0  0  0  0  0  0
  161.4090  208.6050  152.0070 C   0  0  0  0  0  0  0  0  0  0  0  0
  161.1480  211.0160  151.7440 C   0  0  0  0  0  3  0  0  0  0  0  0
  161.7930  207.2460  149.9100 C   0  0  0  0  0  0  0  0  0  0  0  0
  162.3140  209.7300  149.9480 C   0  0  0  0  0  2  0  0  0  0  0  0
  160.7120  207.6250  154.1090 F   0  0  0  0  0  0  0  0  0  0  0  0
  161.3430  204.8710  150.0710 N   0  0  0  0  0  0  0  0  0  0  0  0
  161.6110  206.0500  149.2910 C   0  0  0  0  0  0  0  0  0  0  0  0
  161.3150  206.1350  152.0590 N   0  0  0  0  0  2  0  0  0  0  0  0
  161.8680  208.5330  149.1160 C   0  0  0  0  0  2  0  0  0  0  0  0
  162.5680  205.0370  145.7520 C   0  0  0  0  0  0  0  0  0  0  0  0
  161.4850  205.5420  145.0260 C   0  0  0  0  0  3  0  0  0  0  0  0
  161.6020  205.8950  147.8140 C   0  0  0  0  0  0  0  0  0  0  0  0
  160.4560  206.2130  145.6900 C   0  0  0  0  0  3  0  0  0  0  0  0
  162.6230  205.2070  147.1370 C   0  0  0  0  0  3  0  0  0  0  0  0
  160.5110  206.3830  147.0770 C   0  0  0  0  0  3  0  0  0  0  0  0
  163.5910  204.3650  145.0950 O   0  0  0  0  0  1  0  0  0  0  0  0
  160.8080  203.6640  152.0910 C   0  0  0  0  0  2  0  0  0  0  0  0
  162.3350  201.8560  151.8180 O   0  0  0  0  0  0  0  0  0  0  0  0
  160.6900  202.0360  150.1680 N   0  0  0  0  0  2  0  0  0  0  0  0
  161.3260  202.4630  151.3730 C   0  0  0  0  0  0  0  0  0  0  0  0
  161.2060  200.9390  149.3660 C   0  0  0  0  0  2  0  0  0  0  0  0
  161.6550  198.9570  147.3300 O   0  0  0  0  0  1  0  0  0  0  0  0
  160.9190  201.1940  147.9240 C   0  0  0  0  0  0  0  0  0  0  0  0
  161.1370  200.1940  146.9620 C   0  0  0  0  0  0  0  0  0  0  0  0
  160.3050  201.6780  145.2340 C   0  0  0  0  0  3  0  0  0  0  0  0
  160.0830  202.6720  146.1920 C   0  0  0  0  0  3  0  0  0  0  0  0
  160.3870  202.4300  147.5350 C   0  0  0  0  0  3  0  0  0  0  0  0
  160.8310  200.4410  145.6190 C   0  0  0  0  0  3  0  0  0  0  0  0
  1  8  2  0  0  0  0
  1  7  1  0  0  0  0
  2  6  1  0  0  0  0
  2 11  1  0  0  0  0
  3  9  1  6  0  0  0
  3  7  1  0  0  0  0
  3 14  1  0  0  0  0
  4 14  1  0  0  0  0
  4 23  1  0  0  0  0
  5  6  2  0  0  0  0
  7  2  2  0  0  0  0
  8  5  1  0  0  0  0
 10  1  1  0  0  0  0
 12  4  2  0  0  0  0
 13  9  2  0  0  0  0
 13 12  1  0  0  0  0
 15  9  1  0  0  0  0
 15 10  1  0  0  0  0
 16 20  1  0  0  0  0
 17 19  1  0  0  0  0
 17 16  2  0  0  0  0
 18 13  1  0  0  0  0
 19 21  2  0  0  0  0
 20 18  2  0  0  0  0
 21 18  1  0  0  0  0
 22 16  1  0  0  0  0
 25 26  1  0  0  0  0
 26 24  2  0  0  0  0
 26 23  1  0  0  0  0
 27 25  1  0  0  0  0
 29 27  1  0  0  0  0
 30 28  1  0  0  0  0
 30 29  2  0  0  0  0
 31 34  2  0  0  0  0
 31 32  1  0  0  0  0
 32 33  2  0  0  0  0
 33 29  1  0  0  0  0
 34 30  1  0  0  0  0
M  END
>  <MODEL>
7

>  <REMARK>
 VINA RESULT:      -7.9      4.438      9.583
  Name = 
  5 active torsions:
  status: ('A' for Active; 'I' for Inactive)
    1  A    between atoms: C_3  and  C_13
    2  A    between atoms: C_3  and  N_17
    3  A    between atoms: C_5  and  C_18
    4  A    between atoms: C_12  and  C_28
    5  A    between atoms: C_18  and  C_29
                            x       y       z     vdW  Elec       q    Type
                         _______ _______ _______ _____ _____    ______ ____

>  <TORSDO>
F 5

$$$$
=
 OpenBabel11062407563D

 34 38  0  0  1  0  0  0  0  0999 V2000
  161.0940  207.9350  154.9850 C   0  0  0  0  0  0  0  0  0  0  0  0
  161.7130  209.9590  153.7920 C   0  0  0  0  0  0  0  0  0  0  0  0
  160.6430  207.9880  152.5150 C   0  0  2  0  0  3  0  0  0  0  0  0
  161.2800  207.8420  150.0920 C   0  0  0  0  0  0  0  0  0  0  0  0
  162.1150  209.7770  156.1790 C   0  0  0  0  0  3  0  0  0  0  0  0
  162.1840  210.5070  154.9910 C   0  0  0  0  0  3  0  0  0  0  0  0
  161.1910  208.6430  153.7720 C   0  0  0  0  0  0  0  0  0  0  0  0
  161.5580  208.4980  156.1790 C   0  0  0  0  0  3  0  0  0  0  0  0
  160.8410  206.4750  152.5200 C   0  0  0  0  0  0  0  0  0  0  0  0
  160.4190  206.6010  155.0190 C   0  0  0  0  0  2  0  0  0  0  0  0
  161.7590  210.7270  152.6750 F   0  0  0  0  0  0  0  0  0  0  0  0
  161.1890  206.5490  150.1240 N   0  0  0  0  0  0  0  0  0  0  0  0
  161.0010  205.8120  151.3450 C   0  0  0  0  0  0  0  0  0  0  0  0
  161.1840  208.5900  151.3000 N   0  0  0  0  0  2  0  0  0  0  0  0
  160.8510  205.7360  153.8410 C   0  0  0  0  0  2  0  0  0  0  0  0
  160.2720  202.2110  150.3590 C   0  0  0  0  0  0  0  0  0  0  0  0
  161.2960  201.5370  151.0300 C   0  0  0  0  0  3  0  0  0  0  0  0
  161.0670  204.3310  151.2520 C   0  0  0  0  0  0  0  0  0  0  0  0
  162.2120  202.2550  151.8020 C   0  0  0  0  0  3  0  0  0  0  0  0
  160.1620  203.6000  150.4640 C   0  0  0  0  0  3  0  0  0  0  0  0
  162.1020  203.6450  151.9080 C   0  0  0  0  0  3  0  0  0  0  0  0
  159.3630  201.5010  149.5870 O   0  0  0  0  0  1  0  0  0  0  0  0
  161.5900  208.5340  148.8100 C   0  0  0  0  0  2  0  0  0  0  0  0
  163.5210  207.4220  147.9690 O   0  0  0  0  0  0  0  0  0  0  0  0
  161.5190  206.9240  146.8700 N   0  0  0  0  0  2  0  0  0  0  0  0
  162.2770  207.5940  147.8790 C   0  0  0  0  0  0  0  0  0  0  0  0
  162.1420  206.0760  145.8670 C   0  0  0  0  0  2  0  0  0  0  0  0
  160.7030  204.6510  143.8250 O   0  0  0  0  0  1  0  0  0  0  0  0
  161.6830  204.6680  146.0470 C   0  0  0  0  0  0  0  0  0  0  0  0
  160.9970  204.0010  145.0180 C   0  0  0  0  0  0  0  0  0  0  0  0
  160.8940  202.0020  146.3860 C   0  0  0  0  0  3  0  0  0  0  0  0
  161.5820  202.6630  147.4090 C   0  0  0  0  0  3  0  0  0  0  0  0
  161.9780  203.9930  147.2390 C   0  0  0  0  0  3  0  0  0  0  0  0
  160.6030  202.6700  145.1940 C   0  0  0  0  0  3  0  0  0  0  0  0
  1 10  1  0  0  0  0
  1  8  1  0  0  0  0
  2  6  2  0  0  0  0
  3 14  1  6  0  0  0
  3  9  1  0  0  0  0
  3  7  1  0  0  0  0
  4 12  2  0  0  0  0
  4 14  1  0  0  0  0
  6  5  1  0  0  0  0
  7  2  1  0  0  0  0
  7  1  2  0  0  0  0
  8  5  2  0  0  0  0
  9 15  1  0  0  0  0
 11  2  1  0  0  0  0
 12 13  1  0  0  0  0
 13  9  2  0  0  0  0
 15 10  1  0  0  0  0
 16 20  2  0  0  0  0
 16 17  1  0  0  0  0
 17 19  2  0  0  0  0
 18 13  1  0  0  0  0
 18 21  2  0  0  0  0
 19 21  1  0  0  0  0
 20 18  1  0  0  0  0
 22 16  1  0  0  0  0
 23  4  1  0  0  0  0
 25 26  1  0  0  0  0
 26 24  2  0  0  0  0
 26 23  1  0  0  0  0
 27 29  1  0  0  0  0
 27 25  1  0  0  0  0
 28 30  1  0  0  0  0
 29 33  1  0  0  0  0
 30 34  1  0  0  0  0
 30 29  2  0  0  0  0
 31 32  1  0  0  0  0
 33 32  2  0  0  0  0
 34 31  2  0  0  0  0
M  END
>  <MODEL>
8

>  <REMARK>
 VINA RESULT:      -7.7      4.337      8.106
  Name = 
  5 active torsions:
  status: ('A' for Active; 'I' for Inactive)
    1  A    between atoms: C_3  and  C_13
    2  A    between atoms: C_3  and  N_17
    3  A    between atoms: C_5  and  C_18
    4  A    between atoms: C_12  and  C_28
    5  A    between atoms: C_18  and  C_29
                            x       y       z     vdW  Elec       q    Type
                         _______ _______ _______ _____ _____    ______ ____

>  <TORSDO>
F 5

$$$$
=
 OpenBabel11062407563D

 34 38  0  0  1  0  0  0  0  0999 V2000
  161.0640  208.1400  154.7570 C   0  0  0  0  0  0  0  0  0  0  0  0
  161.9110  210.2010  153.7890 C   0  0  0  0  0  0  0  0  0  0  0  0
  160.8270  208.4170  152.2720 C   0  0  2  0  0  3  0  0  0  0  0  0
  161.6550  208.4140  149.9030 C   0  0  0  0  0  0  0  0  0  0  0  0
  162.0990  209.8070  156.1770 C   0  0  0  0  0  3  0  0  0  0  0  0
  162.3150  210.6200  155.0620 C   0  0  0  0  0  3  0  0  0  0  0  0
  161.3080  208.9320  153.6180 C   0  0  0  0  0  0  0  0  0  0  0  0
  161.4610  208.5740  156.0260 C   0  0  0  0  0  3  0  0  0  0  0  0
  160.9250  206.8980  152.1670 C   0  0  0  0  0  0  0  0  0  0  0  0
  160.3030  206.8600  154.6270 C   0  0  0  0  0  2  0  0  0  0  0  0
  162.1010  211.0480  152.7460 F   0  0  0  0  0  0  0  0  0  0  0  0
  161.4780  207.1330  149.8200 N   0  0  0  0  0  0  0  0  0  0  0  0
  161.1400  206.3180  150.9570 C   0  0  0  0  0  0  0  0  0  0  0  0
  161.5060  209.0710  151.1580 N   0  0  0  0  0  2  0  0  0  0  0  0
  160.7760  206.0600  153.4180 C   0  0  0  0  0  2  0  0  0  0  0  0
  160.9430  202.9020  149.2950 C   0  0  0  0  0  0  0  0  0  0  0  0
  161.1830  202.0600  150.3850 C   0  0  0  0  0  3  0  0  0  0  0  0
  161.1170  204.8480  150.7470 C   0  0  0  0  0  0  0  0  0  0  0  0
  161.4000  202.6070  151.6510 C   0  0  0  0  0  3  0  0  0  0  0  0
  160.9170  204.2870  149.4740 C   0  0  0  0  0  3  0  0  0  0  0  0
  161.3740  203.9930  151.8300 C   0  0  0  0  0  3  0  0  0  0  0  0
  160.7310  202.3620  148.0340 O   0  0  0  0  0  1  0  0  0  0  0  0
  162.1150  209.1800  148.7120 C   0  0  0  0  0  2  0  0  0  0  0  0
  162.2620  211.1360  150.0630 O   0  0  0  0  0  0  0  0  0  0  0  0
  161.3840  211.4610  147.9220 N   0  0  0  0  0  2  0  0  0  0  0  0
  161.9430  210.6420  148.9490 C   0  0  0  0  0  0  0  0  0  0  0  0
  161.0950  212.8710  148.1240 C   0  0  0  0  0  2  0  0  0  0  0  0
  160.0340  213.7480  150.6500 O   0  0  0  0  0  1  0  0  0  0  0  0
  159.6320  213.0530  148.3580 C   0  0  0  0  0  0  0  0  0  0  0  0
  159.1550  213.4990  149.6020 C   0  0  0  0  0  0  0  0  0  0  0  0
  156.8870  213.4530  148.7460 C   0  0  0  0  0  3  0  0  0  0  0  0
  157.3620  213.0140  147.5060 C   0  0  0  0  0  3  0  0  0  0  0  0
  158.7320  212.8160  147.3110 C   0  0  0  0  0  3  0  0  0  0  0  0
  157.7830  213.6950  149.7920 C   0  0  0  0  0  3  0  0  0  0  0  0
  1  8  1  0  0  0  0
  2  6  2  0  0  0  0
  3 14  1  6  0  0  0
  3  7  1  0  0  0  0
  4 14  1  0  0  0  0
  6  5  1  0  0  0  0
  7  2  1  0  0  0  0
  7  1  2  0  0  0  0
  8  5  2  0  0  0  0
  9  3  1  0  0  0  0
  9 15  1  0  0  0  0
 10  1  1  0  0  0  0
 11  2  1  0  0  0  0
 12  4  2  0  0  0  0
 12 13  1  0  0  0  0
 13  9  2  0  0  0  0
 15 10  1  0  0  0  0
 16 20  2  0  0  0  0
 16 17  1  0  0  0  0
 17 19  2  0  0  0  0
 18 13  1  0  0  0  0
 18 21  2  0  0  0  0
 19 21  1  0  0  0  0
 20 18  1  0  0  0  0
 22 16  1  0  0  0  0
 23 26  1  0  0  0  0
 23  4  1  0  0  0  0
 25 27  1  0  0  0  0
 25 26  1  0  0  0  0
 26 24  2  0  0  0  0
 27 29  1  0  0  0  0
 29 30  1  0  0  0  0
 30 34  2  0  0  0  0
 30 28  1  0  0  0  0
 31 34  1  0  0  0  0
 32 31  2  0  0  0  0
 33 32  1  0  0  0  0
 33 29  2  0  0  0  0
M  END
>  <MODEL>
9

>  <REMARK>
 VINA RESULT:      -7.6      2.659      5.721
  Name = 
  5 active torsions:
  status: ('A' for Active; 'I' for Inactive)
    1  A    between atoms: C_3  and  C_13
    2  A    between atoms: C_3  and  N_17
    3  A    between atoms: C_5  and  C_18
    4  A    between atoms: C_12  and  C_28
    5  A    between atoms: C_18  and  C_29
                            x       y       z     vdW  Elec       q    Type
                         _______ _______ _______ _____ _____    ______ ____

>  <TORSDO>
F 5

$$$$
