=
 OpenBabel11062408063D

 34 37  0  0  1  0  0  0  0  0999 V2000
  161.0830  204.7010  152.1640 C   0  0  0  0  0  0  0  0  0  0  0  0
  160.9300  205.2200  149.7540 C   0  0  0  0  0  0  0  0  0  0  0  0
  161.1100  207.0390  151.4530 C   0  0  0  0  0  0  0  0  0  0  0  0
  161.5130  202.9350  150.4440 C   0  0  0  0  0  2  0  0  0  0  0  0
  161.0240  203.8550  149.4640 O   0  0  0  0  0  0  0  0  0  0  0  0
  160.5930  207.4730  149.1050 O   0  0  0  0  0  0  0  0  0  0  0  0
  161.0600  205.6670  151.1470 C   0  0  0  0  0  0  0  0  0  0  0  0
  160.9290  203.2440  151.8270 C   0  0  0  0  0  2  0  0  0  0  0  0
  161.2040  207.4410  152.8020 C   0  0  0  0  0  0  0  0  0  0  0  0
  161.1310  205.1070  153.4980 C   0  0  0  0  0  3  0  0  0  0  0  0
  160.6750  206.1080  148.7980 C   0  0  0  0  0  3  0  0  0  0  0  0
  161.1210  208.0380  150.3160 C   0  0  2  0  0  3  0  0  0  0  0  0
  161.1940  206.4670  153.8140 C   0  0  0  0  0  3  0  0  0  0  0  0
  160.1120  209.6150  152.4570 C   0  0  0  0  0  1  0  0  0  0  0  0
  161.2560  208.9000  153.1710 C   0  0  1  0  0  3  0  0  0  0  0  0
  161.2560  209.1330  154.7070 C   0  0  1  0  0  3  0  0  0  0  0  0
  162.1650  210.3190  155.1170 C   0  0  1  0  0  3  0  0  0  0  0  0
  162.7390  210.1060  156.3720 O   0  0  0  0  0  1  0  0  0  0  0  0
  163.2830  210.5670  154.1220 C   0  0  0  0  0  1  0  0  0  0  0  0
  159.4190  210.9770  155.7770 S   0  0  0  0  0  1  0  0  0  0  0  0
  159.5860  208.3800  156.2960 O   0  0  0  0  0  1  0  0  0  0  0  0
  159.8200  209.2770  155.2530 C   0  0  2  0  0  3  0  0  0  0  0  0
  162.4320  208.4770  150.0970 O   0  0  0  0  0  0  0  0  0  0  0  0
  162.3530  209.3210  148.9850 C   0  0  0  0  0  2  0  0  0  0  0  0
  162.0700  210.7420  149.4320 C   0  0  0  0  0  2  0  0  0  0  0  0
  162.3930  211.7000  148.3070 C   0  0  0  0  0  2  0  0  0  0  0  0
  161.7490  213.0460  148.5670 C   0  0  0  0  0  2  0  0  0  0  0  0
  159.9210  213.2450  150.8730 O   0  0  0  0  0  1  0  0  0  0  0  0
  160.3020  212.8920  148.5860 N   0  0  0  0  0  0  0  0  0  0  0  0
  159.7730  213.8150  149.6050 C   0  0  1  0  0  3  0  0  0  0  0  0
  157.5950  213.1450  148.4990 C   0  0  0  0  0  2  0  0  0  0  0  0
  158.3080  213.0230  147.1480 C   0  0  0  0  0  2  0  0  0  0  0  0
  159.8140  213.2810  147.2630 C   0  0  0  0  0  2  0  0  0  0  0  0
  158.2900  214.1730  149.3870 C   0  0  0  0  0  2  0  0  0  0  0  0
  1 10  1  0  0  0  0
  2  7  1  0  0  0  0
  3  9  2  0  0  0  0
  4  8  1  0  0  0  0
  5  2  1  0  0  0  0
  5  4  1  0  0  0  0
  6 12  1  0  0  0  0
  7  3  1  0  0  0  0
  7  1  2  0  0  0  0
  8  1  1  0  0  0  0
  9 15  1  0  0  0  0
  9 13  1  0  0  0  0
 10 13  2  0  0  0  0
 11  6  1  0  0  0  0
 11  2  2  0  0  0  0
 12 23  1  6  0  0  0
 12  3  1  0  0  0  0
 15 14  1  6  0  0  0
 16 15  1  6  0  0  0
 16 17  1  0  0  0  0
 16 22  1  0  0  0  0
 17 19  1  6  0  0  0
 17 18  1  0  0  0  0
 22 20  1  1  0  0  0
 22 21  1  0  0  0  0
 24 25  1  0  0  0  0
 24 23  1  0  0  0  0
 26 27  1  0  0  0  0
 26 25  1  0  0  0  0
 27 29  1  0  0  0  0
 29 30  1  0  0  0  0
 30 28  1  1  0  0  0
 31 34  1  0  0  0  0
 32 33  1  0  0  0  0
 32 31  1  0  0  0  0
 33 29  1  0  0  0  0
 34 30  1  0  0  0  0
M  END
>  <MODEL>
1

>  <REMARK>
 VINA RESULT:      -6.6      0.000      0.000
  Name = 
  10 active torsions:
  status: ('A' for Active; 'I' for Inactive)
    1  A    between atoms: C_3  and  N_13
    2  A    between atoms: C_3  and  C_17
    3  A    between atoms: O_5  and  C_18
    4  A    between atoms: O_5  and  C_31
    5  A    between atoms: C_7  and  C_23
    6  A    between atoms: C_17  and  C_29
    7  A    between atoms: C_18  and  C_29
    8  A    between atoms: C_21  and  C_28
    9  A    between atoms: C_23  and  C_27
   10  A    between atoms: C_23  and  C_28
                            x       y       z     vdW  Elec       q    Type
                         _______ _______ _______ _____ _____    ______ ____

>  <TORSDO>
F 10

$$$$
=
 OpenBabel11062408063D

 34 37  0  0  1  0  0  0  0  0999 V2000
  161.0900  205.0470  152.5780 C   0  0  0  0  0  0  0  0  0  0  0  0
  161.0130  205.3480  150.1280 C   0  0  0  0  0  0  0  0  0  0  0  0
  161.1000  207.3130  151.6630 C   0  0  0  0  0  0  0  0  0  0  0  0
  161.6120  203.1460  151.0370 C   0  0  0  0  0  2  0  0  0  0  0  0
  161.1420  203.9650  149.9640 O   0  0  0  0  0  0  0  0  0  0  0  0
  160.6600  207.5280  149.2690 O   0  0  0  0  0  0  0  0  0  0  0  0
  161.0860  205.9200  151.4790 C   0  0  0  0  0  0  0  0  0  0  0  0
  160.9740  203.5630  152.3670 C   0  0  0  0  0  2  0  0  0  0  0  0
  161.1400  207.8350  152.9730 C   0  0  0  0  0  0  0  0  0  0  0  0
  161.0840  205.5700  153.8720 C   0  0  0  0  0  3  0  0  0  0  0  0
  160.7760  206.1430  149.0880 C   0  0  0  0  0  3  0  0  0  0  0  0
  161.1340  208.2080  150.4430 C   0  0  2  0  0  3  0  0  0  0  0  0
  161.1110  206.9540  154.0670 C   0  0  0  0  0  3  0  0  0  0  0  0
  160.0230  209.9470  152.3980 C   0  0  0  0  0  1  0  0  0  0  0  0
  161.1520  209.3210  153.2130 C   0  0  1  0  0  3  0  0  0  0  0  0
  161.0920  209.6890  154.7210 C   0  0  1  0  0  3  0  0  0  0  0  0
  162.2980  210.5570  155.1580 C   0  0  1  0  0  3  0  0  0  0  0  0
  162.8300  210.1110  156.3700 O   0  0  0  0  0  1  0  0  0  0  0  0
  163.4130  210.5680  154.1280 C   0  0  0  0  0  1  0  0  0  0  0  0
  159.8780  212.1070  155.4930 S   0  0  0  0  0  1  0  0  0  0  0  0
  159.1190  209.6460  156.1300 O   0  0  0  0  0  1  0  0  0  0  0  0
  159.7390  210.3350  155.0880 C   0  0  2  0  0  3  0  0  0  0  0  0
  162.4430  208.6540  150.2300 O   0  0  0  0  0  0  0  0  0  0  0  0
  162.3720  209.4690  149.0960 C   0  0  0  0  0  2  0  0  0  0  0  0
  162.0400  210.8920  149.5000 C   0  0  0  0  0  2  0  0  0  0  0  0
  162.4590  211.8410  148.4000 C   0  0  0  0  0  2  0  0  0  0  0  0
  161.2480  212.5620  147.8450 C   0  0  0  0  0  2  0  0  0  0  0  0
  159.0300  212.3610  145.9120 O   0  0  0  0  0  1  0  0  0  0  0  0
  161.3160  212.5700  146.3920 N   0  0  0  0  0  0  0  0  0  0  0  0
  160.1070  213.2520  145.8970 C   0  0  1  0  0  3  0  0  0  0  0  0
  161.4190  213.1340  143.7330 C   0  0  0  0  0  2  0  0  0  0  0  0
  162.7310  213.2860  144.5090 C   0  0  0  0  0  2  0  0  0  0  0  0
  162.5050  213.3380  146.0240 C   0  0  0  0  0  2  0  0  0  0  0  0
  160.2710  213.8160  144.4720 C   0  0  0  0  0  2  0  0  0  0  0  0
  1 10  1  0  0  0  0
  2  7  1  0  0  0  0
  3  9  2  0  0  0  0
  4  8  1  0  0  0  0
  5  2  1  0  0  0  0
  5  4  1  0  0  0  0
  6 12  1  0  0  0  0
  7  3  1  0  0  0  0
  7  1  2  0  0  0  0
  8  1  1  0  0  0  0
  9 15  1  0  0  0  0
  9 13  1  0  0  0  0
 10 13  2  0  0  0  0
 11  6  1  0  0  0  0
 11  2  2  0  0  0  0
 12 23  1  6  0  0  0
 12  3  1  0  0  0  0
 15 14  1  6  0  0  0
 16 15  1  6  0  0  0
 16 22  1  0  0  0  0
 16 17  1  0  0  0  0
 17 19  1  6  0  0  0
 17 18  1  0  0  0  0
 22 20  1  1  0  0  0
 22 21  1  0  0  0  0
 24 25  1  0  0  0  0
 24 23  1  0  0  0  0
 26 25  1  0  0  0  0
 27 26  1  0  0  0  0
 29 27  1  0  0  0  0
 30 28  1  6  0  0  0
 30 29  1  0  0  0  0
 31 34  1  0  0  0  0
 31 32  1  0  0  0  0
 32 33  1  0  0  0  0
 33 29  1  0  0  0  0
 34 30  1  0  0  0  0
M  END
>  <MODEL>
2

>  <REMARK>
 VINA RESULT:      -6.6      1.627      2.146
  Name = 
  10 active torsions:
  status: ('A' for Active; 'I' for Inactive)
    1  A    between atoms: C_3  and  N_13
    2  A    between atoms: C_3  and  C_17
    3  A    between atoms: O_5  and  C_18
    4  A    between atoms: O_5  and  C_31
    5  A    between atoms: C_7  and  C_23
    6  A    between atoms: C_17  and  C_29
    7  A    between atoms: C_18  and  C_29
    8  A    between atoms: C_21  and  C_28
    9  A    between atoms: C_23  and  C_27
   10  A    between atoms: C_23  and  C_28
                            x       y       z     vdW  Elec       q    Type
                         _______ _______ _______ _____ _____    ______ ____

>  <TORSDO>
F 10

$$$$
=
 OpenBabel11062408063D

 34 37  0  0  1  0  0  0  0  0999 V2000
  159.5250  213.0140  151.4560 C   0  0  0  0  0  0  0  0  0  0  0  0
  160.7460  212.4110  149.3950 C   0  0  0  0  0  0  0  0  0  0  0  0
  161.0780  211.1280  151.5100 C   0  0  0  0  0  0  0  0  0  0  0  0
  158.7740  213.8650  149.2260 C   0  0  0  0  0  2  0  0  0  0  0  0
  159.9940  213.3520  148.6860 O   0  0  0  0  0  0  0  0  0  0  0  0
  162.5030  210.8280  149.5480 O   0  0  0  0  0  0  0  0  0  0  0  0
  160.4350  212.1630  150.8100 C   0  0  0  0  0  0  0  0  0  0  0  0
  158.9220  214.1770  150.7190 C   0  0  0  0  0  2  0  0  0  0  0  0
  160.7830  210.9320  152.8760 C   0  0  0  0  0  0  0  0  0  0  0  0
  159.2710  212.8430  152.8180 C   0  0  0  0  0  3  0  0  0  0  0  0
  161.7660  211.7760  148.8240 C   0  0  0  0  0  3  0  0  0  0  0  0
  162.0220  210.2160  150.7560 C   0  0  2  0  0  3  0  0  0  0  0  0
  159.8950  211.8090  153.5210 C   0  0  0  0  0  3  0  0  0  0  0  0
  162.7370  210.3980  154.2670 C   0  0  0  0  0  1  0  0  0  0  0  0
  161.4530  209.8360  153.6620 C   0  0  1  0  0  3  0  0  0  0  0  0
  160.5130  209.1910  154.7160 C   0  0  1  0  0  3  0  0  0  0  0  0
  160.7130  207.6580  154.8160 C   0  0  1  0  0  3  0  0  0  0  0  0
  159.6180  207.0430  155.4260 O   0  0  0  0  0  1  0  0  0  0  0  0
  160.9250  207.0090  153.4610 C   0  0  0  0  0  1  0  0  0  0  0  0
  161.6970  208.9780  157.2610 S   0  0  0  0  0  1  0  0  0  0  0  0
  159.3880  210.1320  156.6480 O   0  0  0  0  0  1  0  0  0  0  0  0
  160.6420  209.8900  156.0860 C   0  0  2  0  0  3  0  0  0  0  0  0
  161.3650  209.0200  150.4460 O   0  0  0  0  0  0  0  0  0  0  0  0
  162.3810  208.1220  150.1050 C   0  0  0  0  0  2  0  0  0  0  0  0
  162.1990  207.6520  148.6750 C   0  0  0  0  0  2  0  0  0  0  0  0
  161.1120  206.6010  148.6230 C   0  0  0  0  0  2  0  0  0  0  0  0
  161.5920  205.3930  147.8460 C   0  0  0  0  0  2  0  0  0  0  0  0
  160.8900  202.9280  146.3890 O   0  0  0  0  0  1  0  0  0  0  0  0
  160.9360  204.1990  148.3580 N   0  0  0  0  0  0  0  0  0  0  0  0
  161.5010  203.0440  147.6410 C   0  0  1  0  0  3  0  0  0  0  0  0
  160.2250  201.8110  149.4490 C   0  0  0  0  0  2  0  0  0  0  0  0
  160.5050  202.9500  150.4360 C   0  0  0  0  0  2  0  0  0  0  0  0
  161.2650  204.1090  149.7810 C   0  0  0  0  0  2  0  0  0  0  0  0
  161.3340  201.7160  148.4050 C   0  0  0  0  0  2  0  0  0  0  0  0
  1 10  1  0  0  0  0
  2  7  1  0  0  0  0
  3  9  2  0  0  0  0
  4  8  1  0  0  0  0
  5  4  1  0  0  0  0
  5  2  1  0  0  0  0
  6 12  1  0  0  0  0
  7  1  2  0  0  0  0
  7  3  1  0  0  0  0
  8  1  1  0  0  0  0
  9 13  1  0  0  0  0
  9 15  1  0  0  0  0
 10 13  2  0  0  0  0
 11  2  2  0  0  0  0
 11  6  1  0  0  0  0
 12 23  1  6  0  0  0
 12  3  1  0  0  0  0
 15 14  1  1  0  0  0
 16 15  1  6  0  0  0
 16 17  1  0  0  0  0
 16 22  1  0  0  0  0
 17 19  1  6  0  0  0
 17 18  1  0  0  0  0
 22 21  1  1  0  0  0
 22 20  1  0  0  0  0
 24 23  1  0  0  0  0
 25 24  1  0  0  0  0
 26 25  1  0  0  0  0
 27 29  1  0  0  0  0
 27 26  1  0  0  0  0
 29 33  1  0  0  0  0
 30 28  1  6  0  0  0
 30 29  1  0  0  0  0
 30 34  1  0  0  0  0
 31 32  1  0  0  0  0
 33 32  1  0  0  0  0
 34 31  1  0  0  0  0
M  END
>  <MODEL>
3

>  <REMARK>
 VINA RESULT:      -6.3      2.359      7.081
  Name = 
  10 active torsions:
  status: ('A' for Active; 'I' for Inactive)
    1  A    between atoms: C_3  and  N_13
    2  A    between atoms: C_3  and  C_17
    3  A    between atoms: O_5  and  C_18
    4  A    between atoms: O_5  and  C_31
    5  A    between atoms: C_7  and  C_23
    6  A    between atoms: C_17  and  C_29
    7  A    between atoms: C_18  and  C_29
    8  A    between atoms: C_21  and  C_28
    9  A    between atoms: C_23  and  C_27
   10  A    between atoms: C_23  and  C_28
                            x       y       z     vdW  Elec       q    Type
                         _______ _______ _______ _____ _____    ______ ____

>  <TORSDO>
F 10

$$$$
=
 OpenBabel11062408063D

 34 37  0  0  1  0  0  0  0  0999 V2000
  160.3860  207.7230  155.0150 C   0  0  0  0  0  0  0  0  0  0  0  0
  161.0550  210.0460  154.5060 C   0  0  0  0  0  0  0  0  0  0  0  0
  161.5650  208.1840  152.9240 C   0  0  0  0  0  0  0  0  0  0  0  0
  159.3730  209.6480  156.2520 C   0  0  0  0  0  2  0  0  0  0  0  0
  160.3550  210.4840  155.6340 O   0  0  0  0  0  0  0  0  0  0  0  0
  162.5020  210.4250  152.6690 O   0  0  0  0  0  0  0  0  0  0  0  0
  160.9890  208.6280  154.1270 C   0  0  0  0  0  0  0  0  0  0  0  0
  159.8640  208.1990  156.3420 C   0  0  0  0  0  2  0  0  0  0  0  0
  161.5140  206.8120  152.6000 C   0  0  0  0  0  0  0  0  0  0  0  0
  160.3780  206.3610  154.7100 C   0  0  0  0  0  3  0  0  0  0  0  0
  161.8160  210.8800  153.8030 C   0  0  0  0  0  3  0  0  0  0  0  0
  162.1680  209.2060  151.9850 C   0  0  2  0  0  3  0  0  0  0  0  0
  160.9360  205.9100  153.5100 C   0  0  0  0  0  3  0  0  0  0  0  0
  163.3490  205.4610  151.6810 C   0  0  0  0  0  1  0  0  0  0  0  0
  162.1220  206.2960  151.3230 C   0  0  1  0  0  3  0  0  0  0  0  0
  161.1020  205.5310  150.4360 C   0  0  1  0  0  3  0  0  0  0  0  0
  161.1710  205.9730  148.9530 C   0  0  1  0  0  3  0  0  0  0  0  0
  159.9400  206.4620  148.5120 O   0  0  0  0  0  1  0  0  0  0  0  0
  162.2200  207.0430  148.7130 C   0  0  0  0  0  1  0  0  0  0  0  0
  160.9960  203.0860  149.0460 S   0  0  0  0  0  1  0  0  0  0  0  0
  160.3930  203.5200  151.5930 O   0  0  0  0  0  1  0  0  0  0  0  0
  161.2470  204.0030  150.6020 C   0  0  2  0  0  3  0  0  0  0  0  0
  161.2640  209.4800  150.9530 O   0  0  0  0  0  0  0  0  0  0  0  0
  161.7020  210.6840  150.3930 C   0  0  0  0  0  2  0  0  0  0  0  0
  161.9660  210.5010  148.9110 C   0  0  0  0  0  2  0  0  0  0  0  0
  162.4680  211.8000  148.3220 C   0  0  0  0  0  2  0  0  0  0  0  0
  161.4200  212.8820  148.4790 C   0  0  0  0  0  2  0  0  0  0  0  0
  158.5480  213.3530  148.9520 O   0  0  0  0  0  1  0  0  0  0  0  0
  160.3030  212.6050  147.5890 N   0  0  0  0  0  0  0  0  0  0  0  0
  159.2930  213.6540  147.8080 C   0  0  1  0  0  3  0  0  0  0  0  0
  158.3240  212.5910  145.7230 C   0  0  0  0  0  2  0  0  0  0  0  0
  159.7360  212.2770  145.2150 C   0  0  0  0  0  2  0  0  0  0  0  0
  160.8170  212.6880  146.2210 C   0  0  0  0  0  2  0  0  0  0  0  0
  158.3320  213.8280  146.6150 C   0  0  0  0  0  2  0  0  0  0  0  0
  1  8  1  0  0  0  0
  2  5  1  0  0  0  0
  3  7  1  0  0  0  0
  4  8  1  0  0  0  0
  5  4  1  0  0  0  0
  6 11  1  0  0  0  0
  7  2  1  0  0  0  0
  7  1  2  0  0  0  0
  9  3  2  0  0  0  0
  9 13  1  0  0  0  0
 10  1  1  0  0  0  0
 11  2  2  0  0  0  0
 12 23  1  6  0  0  0
 12  6  1  0  0  0  0
 12  3  1  0  0  0  0
 13 10  2  0  0  0  0
 15 14  1  1  0  0  0
 15  9  1  0  0  0  0
 16 17  1  6  0  0  0
 16 22  1  0  0  0  0
 16 15  1  0  0  0  0
 17 19  1  1  0  0  0
 18 17  1  0  0  0  0
 22 20  1  6  0  0  0
 22 21  1  0  0  0  0
 24 23  1  0  0  0  0
 25 24  1  0  0  0  0
 26 27  1  0  0  0  0
 26 25  1  0  0  0  0
 29 30  1  0  0  0  0
 29 27  1  0  0  0  0
 30 28  1  1  0  0  0
 31 34  1  0  0  0  0
 32 31  1  0  0  0  0
 32 33  1  0  0  0  0
 33 29  1  0  0  0  0
 34 30  1  0  0  0  0
M  END
>  <MODEL>
4

>  <REMARK>
 VINA RESULT:      -6.1      2.325      5.105
  Name = 
  10 active torsions:
  status: ('A' for Active; 'I' for Inactive)
    1  A    between atoms: C_3  and  N_13
    2  A    between atoms: C_3  and  C_17
    3  A    between atoms: O_5  and  C_18
    4  A    between atoms: O_5  and  C_31
    5  A    between atoms: C_7  and  C_23
    6  A    between atoms: C_17  and  C_29
    7  A    between atoms: C_18  and  C_29
    8  A    between atoms: C_21  and  C_28
    9  A    between atoms: C_23  and  C_27
   10  A    between atoms: C_23  and  C_28
                            x       y       z     vdW  Elec       q    Type
                         _______ _______ _______ _____ _____    ______ ____

>  <TORSDO>
F 10

$$$$
=
 OpenBabel11062408063D

 34 37  0  0  1  0  0  0  0  0999 V2000
  159.6990  213.0280  151.7780 C   0  0  0  0  0  0  0  0  0  0  0  0
  160.9140  212.0520  149.8620 C   0  0  0  0  0  0  0  0  0  0  0  0
  161.0780  211.0430  152.1390 C   0  0  0  0  0  0  0  0  0  0  0  0
  159.0820  213.6300  149.4290 C   0  0  0  0  0  2  0  0  0  0  0  0
  160.2660  212.9490  149.0070 O   0  0  0  0  0  0  0  0  0  0  0  0
  162.5210  210.3640  150.2870 O   0  0  0  0  0  0  0  0  0  0  0  0
  160.5470  212.0250  151.2840 C   0  0  0  0  0  0  0  0  0  0  0  0
  159.2190  214.1270  150.8730 C   0  0  0  0  0  2  0  0  0  0  0  0
  160.7330  211.0590  153.5060 C   0  0  0  0  0  0  0  0  0  0  0  0
  159.3970  213.0640  153.1410 C   0  0  0  0  0  3  0  0  0  0  0  0
  161.8890  211.2630  149.4180 C   0  0  0  0  0  3  0  0  0  0  0  0
  161.9580  209.9620  151.5470 C   0  0  2  0  0  3  0  0  0  0  0  0
  159.9090  212.0860  153.9970 C   0  0  0  0  0  3  0  0  0  0  0  0
  162.3200  210.7040  155.3490 C   0  0  0  0  0  1  0  0  0  0  0  0
  161.2840  210.0270  154.4550 C   0  0  1  0  0  3  0  0  0  0  0  0
  160.1750  209.2920  155.2560 C   0  0  1  0  0  3  0  0  0  0  0  0
  160.1640  207.7690  154.9750 C   0  0  1  0  0  3  0  0  0  0  0  0
  161.4300  207.3140  154.6020 O   0  0  0  0  0  1  0  0  0  0  0  0
  159.7050  206.9590  156.1740 C   0  0  0  0  0  1  0  0  0  0  0  0
  159.3330  211.1050  157.2360 S   0  0  0  0  0  1  0  0  0  0  0  0
  161.5930  209.7170  157.1770 O   0  0  0  0  0  1  0  0  0  0  0  0
  160.2650  209.6120  156.7630 C   0  0  2  0  0  3  0  0  0  0  0  0
  161.2060  208.7950  151.3750 O   0  0  0  0  0  0  0  0  0  0  0  0
  162.0910  207.8710  150.8090 C   0  0  0  0  0  2  0  0  0  0  0  0
  161.8630  206.4990  151.4110 C   0  0  0  0  0  2  0  0  0  0  0  0
  160.9200  205.7090  150.5300 C   0  0  0  0  0  2  0  0  0  0  0  0
  160.9250  206.2740  149.1250 C   0  0  0  0  0  2  0  0  0  0  0  0
  160.9390  206.4240  146.1800 O   0  0  0  0  0  1  0  0  0  0  0  0
  160.8310  205.1830  148.1670 N   0  0  0  0  0  0  0  0  0  0  0  0
  161.6550  205.5470  147.0010 C   0  0  1  0  0  3  0  0  0  0  0  0
  161.2050  203.1190  146.4350 C   0  0  0  0  0  2  0  0  0  0  0  0
  161.2070  202.7620  147.9250 C   0  0  0  0  0  2  0  0  0  0  0  0
  161.3880  203.9960  148.8160 C   0  0  0  0  0  2  0  0  0  0  0  0
  162.0970  204.3290  146.1680 C   0  0  0  0  0  2  0  0  0  0  0  0
  1 10  1  0  0  0  0
  2  7  1  0  0  0  0
  3  9  2  0  0  0  0
  4  8  1  0  0  0  0
  5  4  1  0  0  0  0
  5  2  1  0  0  0  0
  6 12  1  0  0  0  0
  7  1  2  0  0  0  0
  7  3  1  0  0  0  0
  8  1  1  0  0  0  0
  9 13  1  0  0  0  0
  9 15  1  0  0  0  0
 10 13  2  0  0  0  0
 11  2  2  0  0  0  0
 11  6  1  0  0  0  0
 12 23  1  6  0  0  0
 12  3  1  0  0  0  0
 15 14  1  1  0  0  0
 16 15  1  6  0  0  0
 16 22  1  0  0  0  0
 17 16  1  0  0  0  0
 17 19  1  1  0  0  0
 18 17  1  0  0  0  0
 22 21  1  6  0  0  0
 22 20  1  0  0  0  0
 24 23  1  0  0  0  0
 24 25  1  0  0  0  0
 26 25  1  0  0  0  0
 27 26  1  0  0  0  0
 29 33  1  0  0  0  0
 29 27  1  0  0  0  0
 30 28  1  6  0  0  0
 30 29  1  0  0  0  0
 31 32  1  0  0  0  0
 32 33  1  0  0  0  0
 34 31  1  0  0  0  0
 34 30  1  0  0  0  0
M  END
>  <MODEL>
5

>  <REMARK>
 VINA RESULT:      -5.7      2.412      6.688
  Name = 
  10 active torsions:
  status: ('A' for Active; 'I' for Inactive)
    1  A    between atoms: C_3  and  N_13
    2  A    between atoms: C_3  and  C_17
    3  A    between atoms: O_5  and  C_18
    4  A    between atoms: O_5  and  C_31
    5  A    between atoms: C_7  and  C_23
    6  A    between atoms: C_17  and  C_29
    7  A    between atoms: C_18  and  C_29
    8  A    between atoms: C_21  and  C_28
    9  A    between atoms: C_23  and  C_27
   10  A    between atoms: C_23  and  C_28
                            x       y       z     vdW  Elec       q    Type
                         _______ _______ _______ _____ _____    ______ ____

>  <TORSDO>
F 10

$$$$
=
 OpenBabel11062408063D

 34 37  0  0  1  0  0  0  0  0999 V2000
  157.0670  213.9920  149.6730 C   0  0  0  0  0  0  0  0  0  0  0  0
  159.2670  213.2380  148.8420 C   0  0  0  0  0  0  0  0  0  0  0  0
  158.7370  213.2200  151.2810 C   0  0  0  0  0  0  0  0  0  0  0  0
  157.4010  213.4310  147.2570 C   0  0  0  0  0  2  0  0  0  0  0  0
  158.8020  213.3590  147.5290 O   0  0  0  0  0  0  0  0  0  0  0  0
  160.9910  212.8380  150.4180 O   0  0  0  0  0  0  0  0  0  0  0  0
  158.3380  213.4700  149.9560 C   0  0  0  0  0  0  0  0  0  0  0  0
  156.6920  214.3470  148.2610 C   0  0  0  0  0  2  0  0  0  0  0  0
  157.8350  213.4800  152.3340 C   0  0  0  0  0  0  0  0  0  0  0  0
  156.1960  214.2900  150.7220 C   0  0  0  0  0  3  0  0  0  0  0  0
  160.5450  212.9660  149.0960 C   0  0  0  0  0  3  0  0  0  0  0  0
  160.1050  212.6200  151.5280 C   0  0  2  0  0  3  0  0  0  0  0  0
  156.5770  214.0330  152.0420 C   0  0  0  0  0  3  0  0  0  0  0  0
  157.8190  214.4470  154.5930 C   0  0  0  0  0  1  0  0  0  0  0  0
  158.2250  213.2290  153.7660 C   0  0  1  0  0  3  0  0  0  0  0  0
  157.6540  211.8960  154.3220 C   0  0  1  0  0  3  0  0  0  0  0  0
  158.5600  211.2850  155.4190 C   0  0  1  0  0  3  0  0  0  0  0  0
  158.8710  209.9540  155.1360 O   0  0  0  0  0  1  0  0  0  0  0  0
  159.8610  212.0480  155.5920 C   0  0  0  0  0  1  0  0  0  0  0  0
  155.9900  211.8460  156.5900 S   0  0  0  0  0  1  0  0  0  0  0  0
  155.3400  211.2050  154.0990 O   0  0  0  0  0  1  0  0  0  0  0  0
  156.1930  212.0640  154.7920 C   0  0  2  0  0  3  0  0  0  0  0  0
  159.9740  211.2460  151.7610 O   0  0  0  0  0  0  0  0  0  0  0  0
  161.0060  210.9270  152.6500 C   0  0  0  0  0  2  0  0  0  0  0  0
  161.9550  209.9350  152.0080 C   0  0  0  0  0  2  0  0  0  0  0  0
  161.1700  208.7580  151.4720 C   0  0  0  0  0  2  0  0  0  0  0  0
  162.1130  207.6500  151.0520 C   0  0  0  0  0  2  0  0  0  0  0  0
  160.4850  206.6380  148.8110 O   0  0  0  0  0  1  0  0  0  0  0  0
  161.3780  206.3980  150.9660 N   0  0  0  0  0  0  0  0  0  0  0  0
  161.4370  205.9460  149.5650 C   0  0  1  0  0  3  0  0  0  0  0  0
  160.4850  203.8510  150.6240 C   0  0  0  0  0  2  0  0  0  0  0  0
  161.2850  204.1220  151.9030 C   0  0  0  0  0  2  0  0  0  0  0  0
  162.0700  205.4370  151.8270 C   0  0  0  0  0  2  0  0  0  0  0  0
  161.1980  204.4320  149.4060 C   0  0  0  0  0  2  0  0  0  0  0  0
  1  7  2  0  0  0  0
  1 10  1  0  0  0  0
  2 11  2  0  0  0  0
  2  7  1  0  0  0  0
  3 12  1  0  0  0  0
  3  9  2  0  0  0  0
  4  5  1  0  0  0  0
  4  8  1  0  0  0  0
  5  2  1  0  0  0  0
  6 12  1  0  0  0  0
  7  3  1  0  0  0  0
  8  1  1  0  0  0  0
  9 15  1  0  0  0  0
 10 13  2  0  0  0  0
 11  6  1  0  0  0  0
 12 23  1  6  0  0  0
 13  9  1  0  0  0  0
 15 14  1  1  0  0  0
 16 15  1  1  0  0  0
 16 22  1  0  0  0  0
 16 17  1  0  0  0  0
 17 19  1  6  0  0  0
 18 17  1  0  0  0  0
 22 21  1  6  0  0  0
 22 20  1  0  0  0  0
 23 24  1  0  0  0  0
 25 24  1  0  0  0  0
 26 25  1  0  0  0  0
 27 26  1  0  0  0  0
 29 27  1  0  0  0  0
 29 33  1  0  0  0  0
 30 28  1  6  0  0  0
 30 29  1  0  0  0  0
 31 32  1  0  0  0  0
 33 32  1  0  0  0  0
 34 30  1  0  0  0  0
 34 31  1  0  0  0  0
M  END
>  <MODEL>
6

>  <REMARK>
 VINA RESULT:      -5.6      2.805      7.439
  Name = 
  10 active torsions:
  status: ('A' for Active; 'I' for Inactive)
    1  A    between atoms: C_3  and  N_13
    2  A    between atoms: C_3  and  C_17
    3  A    between atoms: O_5  and  C_18
    4  A    between atoms: O_5  and  C_31
    5  A    between atoms: C_7  and  C_23
    6  A    between atoms: C_17  and  C_29
    7  A    between atoms: C_18  and  C_29
    8  A    between atoms: C_21  and  C_28
    9  A    between atoms: C_23  and  C_27
   10  A    between atoms: C_23  and  C_28
                            x       y       z     vdW  Elec       q    Type
                         _______ _______ _______ _____ _____    ______ ____

>  <TORSDO>
F 10

$$$$
=
 OpenBabel11062408063D

 34 37  0  0  1  0  0  0  0  0999 V2000
  160.9930  204.1420  151.2060 C   0  0  0  0  0  0  0  0  0  0  0  0
  161.9080  206.3250  151.9120 C   0  0  0  0  0  0  0  0  0  0  0  0
  161.7950  205.6970  149.5000 C   0  0  0  0  0  0  0  0  0  0  0  0
  160.5620  205.0290  153.5060 C   0  0  0  0  0  2  0  0  0  0  0  0
  161.5230  206.0500  153.2280 O   0  0  0  0  0  0  0  0  0  0  0  0
  163.0070  207.6640  150.2950 O   0  0  0  0  0  0  0  0  0  0  0  0
  161.5450  205.3810  150.8470 C   0  0  0  0  0  0  0  0  0  0  0  0
  160.8250  203.7810  152.6560 C   0  0  0  0  0  2  0  0  0  0  0  0
  161.4640  204.7590  148.4990 C   0  0  0  0  0  0  0  0  0  0  0  0
  160.7100  203.2020  150.2150 C   0  0  0  0  0  3  0  0  0  0  0  0
  162.6380  207.3980  151.6210 C   0  0  0  0  0  3  0  0  0  0  0  0
  162.3560  207.0620  149.1640 C   0  0  2  0  0  3  0  0  0  0  0  0
  160.9420  203.5090  148.8720 C   0  0  0  0  0  3  0  0  0  0  0  0
  163.1700  204.6990  146.7310 C   0  0  0  0  0  1  0  0  0  0  0  0
  161.7190  205.0580  147.0460 C   0  0  1  0  0  3  0  0  0  0  0  0
  160.7010  204.3630  146.1000 C   0  0  1  0  0  3  0  0  0  0  0  0
  160.3090  205.2630  144.9020 C   0  0  1  0  0  3  0  0  0  0  0  0
  160.0740  206.5770  145.3110 O   0  0  0  0  0  1  0  0  0  0  0  0
  161.3730  205.2880  143.8200 C   0  0  0  0  0  1  0  0  0  0  0  0
  159.9060  201.9520  144.8860 S   0  0  0  0  0  1  0  0  0  0  0  0
  161.8010  202.2900  146.7120 O   0  0  0  0  0  1  0  0  0  0  0  0
  161.2060  202.9750  145.6520 C   0  0  2  0  0  3  0  0  0  0  0  0
  161.3210  207.8940  148.7220 O   0  0  0  0  0  0  0  0  0  0  0  0
  161.9550  209.0510  148.2590 C   0  0  0  0  0  2  0  0  0  0  0  0
  161.7120  210.1960  149.2230 C   0  0  0  0  0  2  0  0  0  0  0  0
  162.2420  211.4810  148.6270 C   0  0  0  0  0  2  0  0  0  0  0  0
  161.2020  212.5760  148.7410 C   0  0  0  0  0  2  0  0  0  0  0  0
  163.0300  214.4520  147.3860 O   0  0  0  0  0  1  0  0  0  0  0  0
  161.0360  213.2190  147.4460 N   0  0  0  0  0  0  0  0  0  0  0  0
  162.3730  213.3450  146.8410 C   0  0  1  0  0  3  0  0  0  0  0  0
  160.9610  213.9600  144.8300 C   0  0  0  0  0  2  0  0  0  0  0  0
  159.8650  212.9940  145.2920 C   0  0  0  0  0  2  0  0  0  0  0  0
  160.2040  212.3320  146.6330 C   0  0  0  0  0  2  0  0  0  0  0  0
  162.3320  213.4910  145.3080 C   0  0  0  0  0  2  0  0  0  0  0  0
  1  8  1  0  0  0  0
  2  5  1  0  0  0  0
  3  7  2  0  0  0  0
  5  4  1  0  0  0  0
  6 11  1  0  0  0  0
  7  1  1  0  0  0  0
  7  2  1  0  0  0  0
  8  4  1  0  0  0  0
  9 13  2  0  0  0  0
  9  3  1  0  0  0  0
 10  1  2  0  0  0  0
 11  2  2  0  0  0  0
 12 23  1  1  0  0  0
 12  3  1  0  0  0  0
 12  6  1  0  0  0  0
 13 10  1  0  0  0  0
 15 14  1  6  0  0  0
 15  9  1  0  0  0  0
 16 17  1  6  0  0  0
 16 15  1  0  0  0  0
 17 19  1  6  0  0  0
 17 18  1  0  0  0  0
 22 20  1  1  0  0  0
 22 16  1  0  0  0  0
 22 21  1  0  0  0  0
 24 23  1  0  0  0  0
 24 25  1  0  0  0  0
 26 27  1  0  0  0  0
 26 25  1  0  0  0  0
 29 27  1  0  0  0  0
 30 28  1  1  0  0  0
 30 29  1  0  0  0  0
 31 32  1  0  0  0  0
 31 34  1  0  0  0  0
 32 33  1  0  0  0  0
 33 29  1  0  0  0  0
 34 30  1  0  0  0  0
M  END
>  <MODEL>
7

>  <REMARK>
 VINA RESULT:      -5.5      3.548      6.315
  Name = 
  10 active torsions:
  status: ('A' for Active; 'I' for Inactive)
    1  A    between atoms: C_3  and  N_13
    2  A    between atoms: C_3  and  C_17
    3  A    between atoms: O_5  and  C_18
    4  A    between atoms: O_5  and  C_31
    5  A    between atoms: C_7  and  C_23
    6  A    between atoms: C_17  and  C_29
    7  A    between atoms: C_18  and  C_29
    8  A    between atoms: C_21  and  C_28
    9  A    between atoms: C_23  and  C_27
   10  A    between atoms: C_23  and  C_28
                            x       y       z     vdW  Elec       q    Type
                         _______ _______ _______ _____ _____    ______ ____

>  <TORSDO>
F 10

$$$$
=
 OpenBabel11062408063D

 34 37  0  0  1  0  0  0  0  0999 V2000
  159.9130  213.2520  150.2850 C   0  0  0  0  0  0  0  0  0  0  0  0
  161.4350  211.4600  149.5300 C   0  0  0  0  0  0  0  0  0  0  0  0
  160.7470  211.6410  151.9220 C   0  0  0  0  0  0  0  0  0  0  0  0
  160.1230  212.6880  147.8560 C   0  0  0  0  0  2  0  0  0  0  0  0
  161.2350  211.8610  148.2060 O   0  0  0  0  0  0  0  0  0  0  0  0
  162.5170  210.1340  151.1690 O   0  0  0  0  0  0  0  0  0  0  0  0
  160.6730  212.1150  150.6010 C   0  0  0  0  0  0  0  0  0  0  0  0
  159.9230  213.8050  148.8870 C   0  0  0  0  0  2  0  0  0  0  0  0
  160.0290  212.3090  152.9360 C   0  0  0  0  0  0  0  0  0  0  0  0
  159.2410  213.9340  151.3000 C   0  0  0  0  0  3  0  0  0  0  0  0
  162.3370  210.5320  149.8380 C   0  0  0  0  0  3  0  0  0  0  0  0
  161.5500  210.3890  152.2010 C   0  0  2  0  0  3  0  0  0  0  0  0
  159.2970  213.4650  152.6160 C   0  0  0  0  0  3  0  0  0  0  0  0
  160.0800  213.0590  155.2760 C   0  0  0  0  0  1  0  0  0  0  0  0
  160.0850  211.8340  154.3640 C   0  0  1  0  0  3  0  0  0  0  0  0
  158.9640  210.8150  154.7050 C   0  0  1  0  0  3  0  0  0  0  0  0
  159.4100  209.7960  155.7830 C   0  0  1  0  0  3  0  0  0  0  0  0
  158.9530  208.5110  155.4830 O   0  0  0  0  0  1  0  0  0  0  0  0
  160.9180  209.7370  155.9410 C   0  0  0  0  0  1  0  0  0  0  0  0
  157.2790  211.4580  156.8650 S   0  0  0  0  0  1  0  0  0  0  0  0
  156.5760  211.0350  154.3420 O   0  0  0  0  0  1  0  0  0  0  0  0
  157.6490  211.5320  155.0820 C   0  0  2  0  0  3  0  0  0  0  0  0
  160.6830  209.2960  152.3120 O   0  0  0  0  0  0  0  0  0  0  0  0
  161.4830  208.1710  152.0860 C   0  0  0  0  0  2  0  0  0  0  0  0
  161.1120  207.0680  153.0580 C   0  0  0  0  0  2  0  0  0  0  0  0
  161.9290  205.8310  152.7550 C   0  0  0  0  0  2  0  0  0  0  0  0
  161.0220  204.7080  152.2970 C   0  0  0  0  0  2  0  0  0  0  0  0
  161.6640  202.0170  151.2760 O   0  0  0  0  0  1  0  0  0  0  0  0
  161.3820  204.3210  150.9410 N   0  0  0  0  0  0  0  0  0  0  0  0
  160.8250  202.9780  150.7030 C   0  0  1  0  0  3  0  0  0  0  0  0
  161.5070  203.5570  148.3330 C   0  0  0  0  0  2  0  0  0  0  0  0
  161.1880  205.0330  148.5920 C   0  0  0  0  0  2  0  0  0  0  0  0
  160.7510  205.2860  150.0400 C   0  0  0  0  0  2  0  0  0  0  0  0
  160.6410  202.6540  149.2080 C   0  0  0  0  0  2  0  0  0  0  0  0
  1  7  2  0  0  0  0
  1 10  1  0  0  0  0
  2 11  2  0  0  0  0
  2  7  1  0  0  0  0
  3 12  1  0  0  0  0
  3  9  2  0  0  0  0
  4  5  1  0  0  0  0
  4  8  1  0  0  0  0
  5  2  1  0  0  0  0
  6 12  1  0  0  0  0
  7  3  1  0  0  0  0
  8  1  1  0  0  0  0
  9 15  1  0  0  0  0
 10 13  2  0  0  0  0
 11  6  1  0  0  0  0
 12 23  1  6  0  0  0
 13  9  1  0  0  0  0
 15 14  1  1  0  0  0
 16 15  1  1  0  0  0
 16 22  1  0  0  0  0
 16 17  1  0  0  0  0
 17 19  1  6  0  0  0
 18 17  1  0  0  0  0
 22 21  1  6  0  0  0
 22 20  1  0  0  0  0
 24 23  1  0  0  0  0
 24 25  1  0  0  0  0
 26 25  1  0  0  0  0
 27 26  1  0  0  0  0
 29 27  1  0  0  0  0
 30 29  1  0  0  0  0
 30 28  1  6  0  0  0
 31 32  1  0  0  0  0
 31 34  1  0  0  0  0
 32 33  1  0  0  0  0
 33 29  1  0  0  0  0
 34 30  1  0  0  0  0
M  END
>  <MODEL>
8

>  <REMARK>
 VINA RESULT:      -5.5      2.546      7.077
  Name = 
  10 active torsions:
  status: ('A' for Active; 'I' for Inactive)
    1  A    between atoms: C_3  and  N_13
    2  A    between atoms: C_3  and  C_17
    3  A    between atoms: O_5  and  C_18
    4  A    between atoms: O_5  and  C_31
    5  A    between atoms: C_7  and  C_23
    6  A    between atoms: C_17  and  C_29
    7  A    between atoms: C_18  and  C_29
    8  A    between atoms: C_21  and  C_28
    9  A    between atoms: C_23  and  C_27
   10  A    between atoms: C_23  and  C_28
                            x       y       z     vdW  Elec       q    Type
                         _______ _______ _______ _____ _____    ______ ____

>  <TORSDO>
F 10

$$$$
=
 OpenBabel11062408063D

 34 37  0  0  1  0  0  0  0  0999 V2000
  161.0230  204.0710  151.2860 C   0  0  0  0  0  0  0  0  0  0  0  0
  161.0440  204.9380  148.9730 C   0  0  0  0  0  0  0  0  0  0  0  0
  161.1660  206.4840  150.9280 C   0  0  0  0  0  0  0  0  0  0  0  0
  161.5130  202.5570  149.3540 C   0  0  0  0  0  2  0  0  0  0  0  0
  161.1170  203.6270  148.4920 O   0  0  0  0  0  0  0  0  0  0  0  0
  160.8180  207.2730  148.6420 O   0  0  0  0  0  0  0  0  0  0  0  0
  161.0960  205.1750  150.4220 C   0  0  0  0  0  0  0  0  0  0  0  0
  160.8490  202.6850  150.7300 C   0  0  0  0  0  2  0  0  0  0  0  0
  161.1830  206.6840  152.3240 C   0  0  0  0  0  0  0  0  0  0  0  0
  160.9950  204.2780  152.6650 C   0  0  0  0  0  3  0  0  0  0  0  0
  160.8790  205.9650  148.1440 C   0  0  0  0  0  3  0  0  0  0  0  0
  161.2820  207.6360  149.9530 C   0  0  2  0  0  3  0  0  0  0  0  0
  161.0770  205.5750  153.1810 C   0  0  0  0  0  3  0  0  0  0  0  0
  160.8470  209.0660  151.8220 C   0  0  0  0  0  1  0  0  0  0  0  0
  161.2530  208.0710  152.9060 C   0  0  1  0  0  3  0  0  0  0  0  0
  160.4240  208.2200  154.2110 C   0  0  1  0  0  3  0  0  0  0  0  0
  161.1080  207.5320  155.4190 C   0  0  1  0  0  3  0  0  0  0  0  0
  161.9710  208.4090  156.0790 O   0  0  0  0  0  1  0  0  0  0  0  0
  160.1080  207.0030  156.4300 C   0  0  0  0  0  1  0  0  0  0  0  0
  161.5420  210.7060  154.9120 S   0  0  0  0  0  1  0  0  0  0  0  0
  159.1140  209.8090  155.4920 O   0  0  0  0  0  1  0  0  0  0  0  0
  160.0810  209.6980  154.4930 C   0  0  2  0  0  3  0  0  0  0  0  0
  162.6160  208.0510  149.8810 O   0  0  0  0  0  0  0  0  0  0  0  0
  162.7170  208.7460  148.6710 C   0  0  0  0  0  2  0  0  0  0  0  0
  161.7090  209.8780  148.6380 C   0  0  0  0  0  2  0  0  0  0  0  0
  162.3260  211.1240  149.2320 C   0  0  0  0  0  2  0  0  0  0  0  0
  162.6260  212.1290  148.1390 C   0  0  0  0  0  2  0  0  0  0  0  0
  161.0430  212.8730  145.7650 O   0  0  0  0  0  1  0  0  0  0  0  0
  161.5310  213.0830  148.0490 N   0  0  0  0  0  0  0  0  0  0  0  0
  160.5790  212.5700  147.0490 C   0  0  1  0  0  3  0  0  0  0  0  0
  159.1710  214.4350  148.0260 C   0  0  0  0  0  2  0  0  0  0  0  0
  159.8090  214.2090  149.4010 C   0  0  0  0  0  2  0  0  0  0  0  0
  160.8930  213.1260  149.3650 C   0  0  0  0  0  2  0  0  0  0  0  0
  159.1580  213.1420  147.2160 C   0  0  0  0  0  2  0  0  0  0  0  0
  1 10  1  0  0  0  0
  2  7  1  0  0  0  0
  3  9  2  0  0  0  0
  4  8  1  0  0  0  0
  5  2  1  0  0  0  0
  5  4  1  0  0  0  0
  6 12  1  0  0  0  0
  7  3  1  0  0  0  0
  7  1  2  0  0  0  0
  8  1  1  0  0  0  0
  9 15  1  0  0  0  0
  9 13  1  0  0  0  0
 10 13  2  0  0  0  0
 11  6  1  0  0  0  0
 11  2  2  0  0  0  0
 12 23  1  6  0  0  0
 12  3  1  0  0  0  0
 15 14  1  6  0  0  0
 16 15  1  6  0  0  0
 16 22  1  0  0  0  0
 16 17  1  0  0  0  0
 17 18  1  0  0  0  0
 17 19  1  1  0  0  0
 22 20  1  1  0  0  0
 22 21  1  0  0  0  0
 24 23  1  0  0  0  0
 25 24  1  0  0  0  0
 25 26  1  0  0  0  0
 27 26  1  0  0  0  0
 29 27  1  0  0  0  0
 29 33  1  0  0  0  0
 30 28  1  6  0  0  0
 30 34  1  0  0  0  0
 30 29  1  0  0  0  0
 31 32  1  0  0  0  0
 33 32  1  0  0  0  0
 34 31  1  0  0  0  0
M  END
>  <MODEL>
9

>  <REMARK>
 VINA RESULT:      -5.0      1.537      1.983
  Name = 
  10 active torsions:
  status: ('A' for Active; 'I' for Inactive)
    1  A    between atoms: C_3  and  N_13
    2  A    between atoms: C_3  and  C_17
    3  A    between atoms: O_5  and  C_18
    4  A    between atoms: O_5  and  C_31
    5  A    between atoms: C_7  and  C_23
    6  A    between atoms: C_17  and  C_29
    7  A    between atoms: C_18  and  C_29
    8  A    between atoms: C_21  and  C_28
    9  A    between atoms: C_23  and  C_27
   10  A    between atoms: C_23  and  C_28
                            x       y       z     vdW  Elec       q    Type
                         _______ _______ _______ _____ _____    ______ ____

>  <TORSDO>
F 10

$$$$
