=
 OpenBabel11052423103D

 27 31  0  0  1  0  0  0  0  0999 V2000
  160.2870  206.7480  149.2290 C   0  0  0  0  0  2  0  0  0  0  0  0
  161.7910  206.0740  151.2090 C   0  0  1  0  0  3  0  0  0  0  0  0
  162.8200  208.1730  151.0310 C   0  0  0  0  0  2  0  0  0  0  0  0
  160.5520  207.0240  155.2240 C   0  0  0  0  0  3  0  0  0  0  0  0
  159.5780  209.3490  154.8810 C   0  0  0  0  0  2  0  0  0  0  0  0
  161.9740  205.0720  152.3680 C   0  0  0  0  0  2  0  0  0  0  0  0
  161.5760  209.0890  153.4510 N   0  0  0  0  0  2  0  0  0  0  0  0
  162.0600  211.4440  149.2980 C   0  0  0  0  0  3  0  0  0  0  0  0
  160.1660  209.4720  153.4690 C   0  0  0  0  0  2  0  0  0  0  0  0
  161.4590  211.0190  148.1110 C   0  0  0  0  0  3  0  0  0  0  0  0
  161.7250  207.6690  153.0870 C   0  0  1  0  0  3  0  0  0  0  0  0
  160.6270  205.6810  150.2790 C   0  0  2  0  0  3  0  0  0  0  0  0
  160.0840  208.1850  155.7100 C   0  0  0  0  0  3  0  0  0  0  0  0
  160.6720  206.7590  153.7560 C   0  0  1  0  0  3  0  0  0  0  0  0
  161.5170  207.2560  148.4840 C   0  0  0  0  0  2  0  0  0  0  0  0
  161.6800  207.4890  151.6280 N   0  0  2  0  0  0  0  0  0  0  0  0
  162.5000  210.5050  150.2340 C   0  0  0  0  0  3  0  0  0  0  0  0
  160.9470  205.2800  153.4830 C   0  0  0  0  0  2  0  0  0  0  0  0
  161.2970  209.6540  147.8590 C   0  0  0  0  0  3  0  0  0  0  0  0
  161.7400  208.7050  148.7870 C   0  0  0  0  0  0  0  0  0  0  0  0
  162.3460  209.1360  149.9890 C   0  0  0  0  0  0  0  0  0  0  0  0
  161.1880  201.8430  148.4760 C   0  0  0  0  0  3  0  0  0  0  0  0
  160.8310  204.3380  149.6430 C   0  0  0  0  0  0  0  0  0  0  0  0
  161.3100  204.2100  148.3310 C   0  0  0  0  0  3  0  0  0  0  0  0
  161.4780  202.9770  147.7820 N   0  0  0  0  0  0  0  0  0  0  0  0
  160.7050  201.9270  149.7840 C   0  0  0  0  0  3  0  0  0  0  0  0
  160.5260  203.1820  150.3660 C   0  0  0  0  0  3  0  0  0  0  0  0
  1 12  1  0  0  0  0
  2 16  1  0  0  0  0
  2  6  1  1  0  0  0
  4 13  2  0  0  0  0
  5 13  1  0  0  0  0
  6 18  1  0  0  0  0
  7  9  1  0  0  0  0
  8 17  1  0  0  0  0
  9  5  1  0  0  0  0
 10  8  2  0  0  0  0
 11  7  1  6  0  0  0
 11 14  1  0  0  0  0
 12 23  1  6  0  0  0
 12  2  1  0  0  0  0
 14 18  1  1  0  0  0
 14  4  1  0  0  0  0
 15 20  1  0  0  0  0
 15  1  1  0  0  0  0
 16  3  1  6  0  0  0
 16 11  1  0  0  0  0
 19 10  1  0  0  0  0
 19 20  2  0  0  0  0
 20 21  1  0  0  0  0
 21 17  2  0  0  0  0
 21  3  1  0  0  0  0
 22 26  1  0  0  0  0
 23 27  1  0  0  0  0
 24 23  2  0  0  0  0
 25 24  1  0  0  0  0
 25 22  2  0  0  0  0
 26 27  2  0  0  0  0
M  END
>  <MODEL>
1

>  <REMARK>
 VINA RESULT:      -7.2      0.000      0.000
  Name = 
  1 active torsions:
  status: ('A' for Active; 'I' for Inactive)
    1  A    between atoms: C_9  and  C_15
                            x       y       z     vdW  Elec       q    Type
                         _______ _______ _______ _____ _____    ______ ____

>  <TORSDO>
F 1

$$$$
=
 OpenBabel11052423103D

 27 31  0  0  1  0  0  0  0  0999 V2000
  157.9170  212.6650  147.6430 C   0  0  0  0  0  2  0  0  0  0  0  0
  160.2830  213.2470  148.4810 C   0  0  1  0  0  3  0  0  0  0  0  0
  159.2790  214.3450  150.2930 C   0  0  0  0  0  2  0  0  0  0  0  0
  162.2760  210.5750  151.2100 C   0  0  0  0  0  3  0  0  0  0  0  0
  160.3400  209.9040  152.7160 C   0  0  0  0  0  2  0  0  0  0  0  0
  161.7840  212.9220  148.3400 C   0  0  0  0  0  2  0  0  0  0  0  0
  160.1110  212.2910  152.1180 N   0  0  0  0  0  2  0  0  0  0  0  0
  155.8360  214.4520  151.8480 C   0  0  0  0  0  3  0  0  0  0  0  0
  159.4240  211.0020  152.1580 C   0  0  0  0  0  2  0  0  0  0  0  0
  155.0020  214.3470  150.7320 C   0  0  0  0  0  3  0  0  0  0  0  0
  160.7200  212.5140  150.7940 C   0  0  1  0  0  3  0  0  0  0  0  0
  159.4300  212.5250  147.4210 C   0  0  2  0  0  3  0  0  0  0  0  0
  161.8010  209.9990  152.3260 C   0  0  0  0  0  3  0  0  0  0  0  0
  161.3870  211.2490  150.2120 C   0  0  1  0  0  3  0  0  0  0  0  0
  157.4880  214.1080  147.8930 C   0  0  0  0  0  2  0  0  0  0  0  0
  159.7310  213.0370  149.8380 N   0  0  2  0  0  0  0  0  0  0  0  0
  157.2240  214.4530  151.6860 C   0  0  0  0  0  3  0  0  0  0  0  0
  162.1400  211.5510  148.9170 C   0  0  0  0  0  2  0  0  0  0  0  0
  155.5560  214.2440  149.4530 C   0  0  0  0  0  3  0  0  0  0  0  0
  156.9440  214.2500  149.2800 C   0  0  0  0  0  0  0  0  0  0  0  0
  157.7870  214.3540  150.4100 C   0  0  0  0  0  0  0  0  0  0  0  0
  160.4950  213.6090  143.4230 C   0  0  0  0  0  3  0  0  0  0  0  0
  159.8110  212.9090  146.0210 C   0  0  0  0  0  0  0  0  0  0  0  0
  160.4500  214.1240  145.7400 C   0  0  0  0  0  3  0  0  0  0  0  0
  160.7770  214.4440  144.4590 N   0  0  0  0  0  0  0  0  0  0  0  0
  159.8560  212.3890  143.6600 C   0  0  0  0  0  3  0  0  0  0  0  0
  159.5120  212.0430  144.9670 C   0  0  0  0  0  3  0  0  0  0  0  0
  1 15  1  0  0  0  0
  2  6  1  1  0  0  0
  2 16  1  0  0  0  0
  3 21  1  0  0  0  0
  4 13  2  0  0  0  0
  6 18  1  0  0  0  0
  7  9  1  0  0  0  0
  9  5  1  0  0  0  0
 10  8  2  0  0  0  0
 11  7  1  1  0  0  0
 12 23  1  6  0  0  0
 12  1  1  0  0  0  0
 12  2  1  0  0  0  0
 13  5  1  0  0  0  0
 14 18  1  6  0  0  0
 14 11  1  0  0  0  0
 14  4  1  0  0  0  0
 15 20  1  0  0  0  0
 16  3  1  1  0  0  0
 16 11  1  0  0  0  0
 17  8  1  0  0  0  0
 19 10  1  0  0  0  0
 20 19  2  0  0  0  0
 20 21  1  0  0  0  0
 21 17  2  0  0  0  0
 22 26  2  0  0  0  0
 22 25  1  0  0  0  0
 24 23  1  0  0  0  0
 25 24  2  0  0  0  0
 26 27  1  0  0  0  0
 27 23  2  0  0  0  0
M  END
>  <MODEL>
2

>  <REMARK>
 VINA RESULT:      -5.0      4.892      7.852
  Name = 
  1 active torsions:
  status: ('A' for Active; 'I' for Inactive)
    1  A    between atoms: C_9  and  C_15
                            x       y       z     vdW  Elec       q    Type
                         _______ _______ _______ _____ _____    ______ ____

>  <TORSDO>
F 1

$$$$
=
 OpenBabel11052423103D

 27 31  0  0  1  0  0  0  0  0999 V2000
  160.2290  210.2570  152.0370 C   0  0  0  0  0  2  0  0  0  0  0  0
  159.6770  212.4930  153.1910 C   0  0  1  0  0  3  0  0  0  0  0  0
  160.4570  213.5820  151.2660 C   0  0  0  0  0  2  0  0  0  0  0  0
  155.7930  214.2670  152.6160 C   0  0  0  0  0  3  0  0  0  0  0  0
  155.4150  213.7890  150.1470 C   0  0  0  0  0  2  0  0  0  0  0  0
  158.9110  213.1550  154.3560 C   0  0  0  0  0  2  0  0  0  0  0  0
  157.7950  214.3450  150.5080 N   0  0  0  0  0  2  0  0  0  0  0  0
  161.2760  212.5850  147.7140 C   0  0  0  0  0  3  0  0  0  0  0  0
  156.8750  213.3720  149.9240 C   0  0  0  0  0  2  0  0  0  0  0  0
  161.8060  211.3030  147.8790 C   0  0  0  0  0  3  0  0  0  0  0  0
  158.1800  213.9420  151.8730 C   0  0  1  0  0  3  0  0  0  0  0  0
  159.6480  210.9560  153.2750 C   0  0  2  0  0  3  0  0  0  0  0  0
  155.1110  214.4530  151.4750 C   0  0  0  0  0  3  0  0  0  0  0  0
  156.9990  213.3850  152.6960 C   0  0  1  0  0  3  0  0  0  0  0  0
  161.5850  210.8210  151.6240 C   0  0  0  0  0  2  0  0  0  0  0  0
  159.2740  212.9580  151.8450 N   0  0  2  0  0  0  0  0  0  0  0  0
  160.8460  213.3130  148.8270 C   0  0  0  0  0  3  0  0  0  0  0  0
  157.3960  213.1220  154.1490 C   0  0  0  0  0  2  0  0  0  0  0  0
  161.9060  210.7480  149.1580 C   0  0  0  0  0  3  0  0  0  0  0  0
  161.4840  211.4710  150.2790 C   0  0  0  0  0  0  0  0  0  0  0  0
  160.9460  212.7670  150.1110 C   0  0  0  0  0  0  0  0  0  0  0  0
  161.4300  209.4620  156.8650 C   0  0  0  0  0  3  0  0  0  0  0  0
  160.2770  210.4390  154.5350 C   0  0  0  0  0  0  0  0  0  0  0  0
  161.6070  210.7330  154.8670 C   0  0  0  0  0  3  0  0  0  0  0  0
  162.1490  210.2430  156.0150 N   0  0  0  0  0  0  0  0  0  0  0  0
  160.1020  209.1430  156.5700 C   0  0  0  0  0  3  0  0  0  0  0  0
  159.5280  209.6350  155.3970 C   0  0  0  0  0  3  0  0  0  0  0  0
  1 12  1  0  0  0  0
  2 12  1  0  0  0  0
  2  6  1  1  0  0  0
  5 13  1  0  0  0  0
  8 10  2  0  0  0  0
  8 17  1  0  0  0  0
  9  5  1  0  0  0  0
  9  7  1  0  0  0  0
 10 19  1  0  0  0  0
 11  7  1  6  0  0  0
 11 14  1  0  0  0  0
 12 23  1  1  0  0  0
 13  4  2  0  0  0  0
 14  4  1  1  0  0  0
 14 18  1  0  0  0  0
 15  1  1  0  0  0  0
 16  3  1  1  0  0  0
 16 11  1  0  0  0  0
 16  2  1  0  0  0  0
 17 21  2  0  0  0  0
 18  6  1  0  0  0  0
 19 20  2  0  0  0  0
 20 15  1  0  0  0  0
 21 20  1  0  0  0  0
 21  3  1  0  0  0  0
 23 24  2  0  0  0  0
 23 27  1  0  0  0  0
 24 25  1  0  0  0  0
 25 22  2  0  0  0  0
 26 22  1  0  0  0  0
 27 26  2  0  0  0  0
M  END
>  <MODEL>
3

>  <REMARK>
 VINA RESULT:      -4.3      4.849      7.167
  Name = 
  1 active torsions:
  status: ('A' for Active; 'I' for Inactive)
    1  A    between atoms: C_9  and  C_15
                            x       y       z     vdW  Elec       q    Type
                         _______ _______ _______ _____ _____    ______ ____

>  <TORSDO>
F 1

$$$$
