=
 OpenBabel11052421553D

 30 33  0  0  1  0  0  0  0  0999 V2000
  161.3030  207.8860  153.1610 C   0  0  0  0  0  3  0  0  0  0  0  0
  160.9910  205.5390  152.6350 C   0  0  0  0  0  0  0  0  0  0  0  0
  161.8440  208.7960  149.0800 C   0  0  0  0  0  3  0  0  0  0  0  0
  161.5660  209.2020  152.7720 C   0  0  0  0  0  0  0  0  0  0  0  0
  162.0780  210.1150  148.6880 C   0  0  0  0  0  3  0  0  0  0  0  0
  160.9320  204.5090  151.6930 C   0  0  0  0  0  3  0  0  0  0  0  0
  160.8140  205.2470  153.9480 F   0  0  0  0  0  0  0  0  0  0  0  0
  161.6660  208.4730  150.4370 C   0  0  0  0  0  0  0  0  0  0  0  0
  161.1150  204.7850  150.3360 C   0  0  0  0  0  3  0  0  0  0  0  0
  161.2370  206.8570  152.2190 C   0  0  0  0  0  0  0  0  0  0  0  0
  161.7280  209.5060  151.4070 C   0  0  0  0  0  0  0  0  0  0  0  0
  162.1370  211.1290  149.6440 C   0  0  0  0  0  3  0  0  0  0  0  0
  161.9630  210.8280  150.9950 C   0  0  0  0  0  3  0  0  0  0  0  0
  161.3580  206.0930  149.9140 C   0  0  0  0  0  3  0  0  0  0  0  0
  161.4240  207.1440  150.8450 C   0  0  0  0  0  0  0  0  0  0  0  0
  160.7570  212.1890  154.7170 O   0  0  0  0  0  0  0  0  0  0  0  0
  160.5850  211.2360  153.9120 C   0  0  0  0  0  0  0  0  0  0  0  0
  161.6140  210.2320  153.7710 N   0  0  0  0  0  0  0  0  0  0  0  0
  159.2370  212.2350  152.0380 C   0  0  0  0  0  2  0  0  0  0  0  0
  157.8350  211.4090  154.2030 S   0  0  0  0  0  0  0  0  0  0  0  0
  159.2940  211.2090  153.1400 C   0  0  2  0  0  3  0  0  0  0  0  0
  157.7790  212.5910  151.8850 C   0  0  0  0  0  2  0  0  0  0  0  0
  157.2060  212.7370  153.2130 N   0  0  0  0  0  2  0  0  0  0  0  0
  162.7920  210.2830  154.6300 C   0  0  0  0  0  2  0  0  0  0  0  0
  162.3920  210.6910  156.0380 C   0  0  0  0  0  2  0  0  0  0  0  0
  162.6330  209.5470  157.0030 C   0  0  0  0  0  2  0  0  0  0  0  0
  161.8560  208.3850  156.6010 N   0  0  0  0  0  2  0  0  0  0  0  0
  159.7520  209.4430  157.2600 O   0  0  0  0  0  1  0  0  0  0  0  0
  160.4360  208.3530  156.7360 C   0  0  0  0  0  0  0  0  0  0  0  0
  159.7990  207.3300  156.3770 O   0  0  0  0  0  0  0  0  0  0  0  0
  2  7  1  0  0  0  0
  3  8  1  0  0  0  0
  4  1  1  0  0  0  0
  4 18  1  0  0  0  0
  5  3  2  0  0  0  0
  5 12  1  0  0  0  0
  6  2  2  0  0  0  0
  8 15  2  0  0  0  0
  8 11  1  0  0  0  0
  9  6  1  0  0  0  0
 10  2  1  0  0  0  0
 10  1  2  0  0  0  0
 11  4  2  0  0  0  0
 12 13  2  0  0  0  0
 13 11  1  0  0  0  0
 14  9  2  0  0  0  0
 14 15  1  0  0  0  0
 15 10  1  0  0  0  0
 17 16  2  0  0  0  0
 18 17  1  0  0  0  0
 18 24  1  0  0  0  0
 19 21  1  0  0  0  0
 21 17  1  1  0  0  0
 21 20  1  0  0  0  0
 22 19  1  0  0  0  0
 22 23  1  0  0  0  0
 23 20  1  0  0  0  0
 24 25  1  0  0  0  0
 25 26  1  0  0  0  0
 27 29  1  0  0  0  0
 27 26  1  0  0  0  0
 29 28  1  0  0  0  0
 30 29  2  0  0  0  0
M  END
>  <MODEL>
1

>  <REMARK>
 VINA RESULT:      -6.5      0.000      0.000
  Name = 
  6 active torsions:
  status: ('A' for Active; 'I' for Inactive)
    1  A    between atoms: C_4  and  N_13
    2  A    between atoms: N_7  and  C_16
    3  A    between atoms: C_8  and  C_12
    4  A    between atoms: N_13  and  C_27
    5  A    between atoms: C_16  and  C_30
    6  A    between atoms: C_27  and  C_30
                            x       y       z     vdW  Elec       q    Type
                         _______ _______ _______ _____ _____    ______ ____

>  <TORSDO>
F 6

$$$$
=
 OpenBabel11052421553D

 30 33  0  0  1  0  0  0  0  0999 V2000
  161.1070  204.9720  150.0700 C   0  0  0  0  0  3  0  0  0  0  0  0
  160.7500  202.6820  150.7880 C   0  0  0  0  0  0  0  0  0  0  0  0
  161.6200  203.7080  146.0800 C   0  0  0  0  0  3  0  0  0  0  0  0
  161.3870  205.9110  149.0740 C   0  0  0  0  0  0  0  0  0  0  0  0
  161.8720  204.6490  145.0810 C   0  0  0  0  0  3  0  0  0  0  0  0
  160.6640  201.3220  150.4880 C   0  0  0  0  0  3  0  0  0  0  0  0
  160.5810  203.0900  152.0720 F   0  0  0  0  0  0  0  0  0  0  0  0
  161.4500  204.1100  147.4170 C   0  0  0  0  0  0  0  0  0  0  0  0
  160.8370  200.8780  149.1750 C   0  0  0  0  0  3  0  0  0  0  0  0
  161.0140  203.6120  149.7690 C   0  0  0  0  0  0  0  0  0  0  0  0
  161.5400  205.4890  147.7400 C   0  0  0  0  0  0  0  0  0  0  0  0
  161.9580  206.0040  145.4010 C   0  0  0  0  0  3  0  0  0  0  0  0
  161.7930  206.4220  146.7220 C   0  0  0  0  0  3  0  0  0  0  0  0
  161.0980  201.7950  148.1550 C   0  0  0  0  0  3  0  0  0  0  0  0
  161.1900  203.1690  148.4350 C   0  0  0  0  0  0  0  0  0  0  0  0
  161.1500  209.0310  150.9640 O   0  0  0  0  0  0  0  0  0  0  0  0
  161.1990  207.7890  150.7580 C   0  0  0  0  0  0  0  0  0  0  0  0
  161.4630  207.3010  149.4240 N   0  0  0  0  0  0  0  0  0  0  0  0
  160.3910  207.5950  153.1330 C   0  0  0  0  0  2  0  0  0  0  0  0
  162.4880  206.0190  152.4550 S   0  0  0  0  0  0  0  0  0  0  0  0
  160.9770  206.8850  151.9390 C   0  0  2  0  0  3  0  0  0  0  0  0
  160.8990  206.8490  154.3420 C   0  0  0  0  0  2  0  0  0  0  0  0
  162.3070  206.5540  154.1350 N   0  0  0  0  0  2  0  0  0  0  0  0
  161.7630  208.2500  148.3570 C   0  0  0  0  0  2  0  0  0  0  0  0
  162.2500  209.5620  148.9490 C   0  0  0  0  0  2  0  0  0  0  0  0
  161.6790  210.7310  148.1690 C   0  0  0  0  0  2  0  0  0  0  0  0
  162.3650  211.9580  148.5400 N   0  0  0  0  0  2  0  0  0  0  0  0
  161.9960  212.9460  146.3330 O   0  0  0  0  0  0  0  0  0  0  0  0
  162.5120  213.0390  147.6200 C   0  0  0  0  0  0  0  0  0  0  0  0
  163.1120  214.0850  147.9780 O   0  0  0  0  0  1  0  0  0  0  0  0
  2  7  1  0  0  0  0
  3  8  1  0  0  0  0
  4 18  1  0  0  0  0
  4  1  2  0  0  0  0
  5 12  1  0  0  0  0
  5  3  2  0  0  0  0
  6  2  1  0  0  0  0
  8 11  2  0  0  0  0
  8 15  1  0  0  0  0
  9  6  2  0  0  0  0
 10  1  1  0  0  0  0
 10  2  2  0  0  0  0
 11  4  1  0  0  0  0
 12 13  2  0  0  0  0
 13 11  1  0  0  0  0
 14 15  2  0  0  0  0
 14  9  1  0  0  0  0
 15 10  1  0  0  0  0
 17 16  2  0  0  0  0
 18 17  1  0  0  0  0
 19 22  1  0  0  0  0
 20 23  1  0  0  0  0
 21 17  1  6  0  0  0
 21 20  1  0  0  0  0
 21 19  1  0  0  0  0
 23 22  1  0  0  0  0
 24 25  1  0  0  0  0
 24 18  1  0  0  0  0
 26 27  1  0  0  0  0
 26 25  1  0  0  0  0
 28 29  2  0  0  0  0
 29 30  1  0  0  0  0
 29 27  1  0  0  0  0
M  END
>  <MODEL>
2

>  <REMARK>
 VINA RESULT:      -6.4      3.834      6.544
  Name = 
  6 active torsions:
  status: ('A' for Active; 'I' for Inactive)
    1  A    between atoms: C_4  and  N_13
    2  A    between atoms: N_7  and  C_16
    3  A    between atoms: C_8  and  C_12
    4  A    between atoms: N_13  and  C_27
    5  A    between atoms: C_16  and  C_30
    6  A    between atoms: C_27  and  C_30
                            x       y       z     vdW  Elec       q    Type
                         _______ _______ _______ _____ _____    ______ ____

>  <TORSDO>
F 6

$$$$
=
 OpenBabel11052421553D

 30 33  0  0  1  0  0  0  0  0999 V2000
  161.3170  206.1090  151.2470 C   0  0  0  0  0  3  0  0  0  0  0  0
  160.9150  206.2510  153.6350 C   0  0  0  0  0  0  0  0  0  0  0  0
  161.7090  210.3010  151.0000 C   0  0  0  0  0  3  0  0  0  0  0  0
  161.5610  206.7120  150.0100 C   0  0  0  0  0  0  0  0  0  0  0  0
  161.9810  210.9010  149.7690 C   0  0  0  0  0  3  0  0  0  0  0  0
  160.7700  207.0180  154.7920 C   0  0  0  0  0  3  0  0  0  0  0  0
  160.7930  204.9010  153.7150 F   0  0  0  0  0  0  0  0  0  0  0  0
  161.5710  208.9050  151.1010 C   0  0  0  0  0  0  0  0  0  0  0  0
  160.8890  208.4080  154.7350 C   0  0  0  0  0  3  0  0  0  0  0  0
  161.1790  206.8760  152.4060 C   0  0  0  0  0  0  0  0  0  0  0  0
  161.7100  208.1110  149.9330 C   0  0  0  0  0  0  0  0  0  0  0  0
  162.1180  210.1170  148.6240 C   0  0  0  0  0  3  0  0  0  0  0  0
  161.9840  208.7300  148.7040 C   0  0  0  0  0  3  0  0  0  0  0  0
  161.1530  209.0390  153.5170 C   0  0  0  0  0  3  0  0  0  0  0  0
  161.3010  208.2860  152.3400 C   0  0  0  0  0  0  0  0  0  0  0  0
  161.7440  203.7790  147.8380 O   0  0  0  0  0  0  0  0  0  0  0  0
  161.4660  204.4620  148.8580 C   0  0  0  0  0  0  0  0  0  0  0  0
  161.7070  205.8870  148.8450 N   0  0  0  0  0  0  0  0  0  0  0  0
  161.9110  203.4140  151.1010 C   0  0  0  0  0  2  0  0  0  0  0  0
  160.0300  202.2030  149.5730 S   0  0  0  0  0  0  0  0  0  0  0  0
  160.8890  203.7340  150.0410 C   0  0  2  0  0  3  0  0  0  0  0  0
  161.4260  202.1510  151.7690 C   0  0  0  0  0  2  0  0  0  0  0  0
  160.9590  201.2420  150.7360 N   0  0  0  0  0  2  0  0  0  0  0  0
  162.1780  206.5260  147.6210 C   0  0  0  0  0  2  0  0  0  0  0  0
  161.0820  206.5080  146.5690 C   0  0  0  0  0  2  0  0  0  0  0  0
  161.5570  205.7690  145.3320 C   0  0  0  0  0  2  0  0  0  0  0  0
  160.4240  205.1620  144.6510 N   0  0  0  0  0  2  0  0  0  0  0  0
  161.1460  202.9050  145.2600 O   0  0  0  0  0  1  0  0  0  0  0  0
  160.2400  203.7470  144.6260 C   0  0  0  0  0  0  0  0  0  0  0  0
  159.2480  203.2590  144.0260 O   0  0  0  0  0  0  0  0  0  0  0  0
  1 10  1  0  0  0  0
  2  7  1  0  0  0  0
  2  6  1  0  0  0  0
  3  8  1  0  0  0  0
  4  1  2  0  0  0  0
  5  3  2  0  0  0  0
  8 15  1  0  0  0  0
  9  6  2  0  0  0  0
 10  2  2  0  0  0  0
 11  4  1  0  0  0  0
 11  8  2  0  0  0  0
 12 13  2  0  0  0  0
 12  5  1  0  0  0  0
 13 11  1  0  0  0  0
 14  9  1  0  0  0  0
 15 10  1  0  0  0  0
 15 14  2  0  0  0  0
 16 17  2  0  0  0  0
 18 17  1  0  0  0  0
 18  4  1  0  0  0  0
 19 22  1  0  0  0  0
 20 21  1  0  0  0  0
 20 23  1  0  0  0  0
 21 17  1  6  0  0  0
 21 19  1  0  0  0  0
 23 22  1  0  0  0  0
 24 18  1  0  0  0  0
 25 24  1  0  0  0  0
 26 25  1  0  0  0  0
 27 26  1  0  0  0  0
 29 27  1  0  0  0  0
 29 28  1  0  0  0  0
 30 29  2  0  0  0  0
M  END
>  <MODEL>
3

>  <REMARK>
 VINA RESULT:      -6.3      5.331      7.958
  Name = 
  6 active torsions:
  status: ('A' for Active; 'I' for Inactive)
    1  A    between atoms: C_4  and  N_13
    2  A    between atoms: N_7  and  C_16
    3  A    between atoms: C_8  and  C_12
    4  A    between atoms: N_13  and  C_27
    5  A    between atoms: C_16  and  C_30
    6  A    between atoms: C_27  and  C_30
                            x       y       z     vdW  Elec       q    Type
                         _______ _______ _______ _____ _____    ______ ____

>  <TORSDO>
F 6

$$$$
=
 OpenBabel11052421553D

 30 33  0  0  1  0  0  0  0  0999 V2000
  161.0150  204.4900  148.8880 C   0  0  0  0  0  3  0  0  0  0  0  0
  160.9330  202.0720  148.7090 C   0  0  0  0  0  0  0  0  0  0  0  0
  161.0670  204.2410  153.0970 C   0  0  0  0  0  3  0  0  0  0  0  0
  161.0440  205.6590  149.6520 C   0  0  0  0  0  0  0  0  0  0  0  0
  161.1250  205.4090  153.8600 C   0  0  0  0  0  3  0  0  0  0  0  0
  160.8920  200.8170  149.3180 C   0  0  0  0  0  3  0  0  0  0  0  0
  160.9190  202.1530  147.3540 F   0  0  0  0  0  0  0  0  0  0  0  0
  161.0440  204.3050  151.6920 C   0  0  0  0  0  0  0  0  0  0  0  0
  160.9010  200.7090  150.7110 C   0  0  0  0  0  3  0  0  0  0  0  0
  160.9810  203.2340  149.4960 C   0  0  0  0  0  0  0  0  0  0  0  0
  161.0800  205.5730  151.0570 C   0  0  0  0  0  0  0  0  0  0  0  0
  161.1610  206.6540  153.2330 C   0  0  0  0  0  3  0  0  0  0  0  0
  161.1390  206.7370  151.8400 C   0  0  0  0  0  3  0  0  0  0  0  0
  160.9510  201.8580  151.5020 C   0  0  0  0  0  3  0  0  0  0  0  0
  160.9910  203.1320  150.9090 C   0  0  0  0  0  0  0  0  0  0  0  0
  161.4420  208.2070  147.0610 O   0  0  0  0  0  0  0  0  0  0  0  0
  161.2760  207.0620  147.5600 C   0  0  0  0  0  0  0  0  0  0  0  0
  161.0890  206.9300  148.9870 N   0  0  0  0  0  0  0  0  0  0  0  0
  162.6450  205.5820  146.0550 C   0  0  0  0  0  2  0  0  0  0  0  0
  160.1120  206.0910  145.2400 S   0  0  0  0  0  0  0  0  0  0  0  0
  161.2810  205.8900  146.6160 C   0  0  2  0  0  3  0  0  0  0  0  0
  162.4010  204.9790  144.6950 C   0  0  0  0  0  2  0  0  0  0  0  0
  161.3650  205.7540  144.0330 N   0  0  0  0  0  2  0  0  0  0  0  0
  161.0010  208.1290  149.8140 C   0  0  0  0  0  2  0  0  0  0  0  0
  162.2770  208.9440  149.6880 C   0  0  0  0  0  2  0  0  0  0  0  0
  162.1430  210.2470  150.4510 C   0  0  0  0  0  2  0  0  0  0  0  0
  162.4070  210.0260  151.8640 N   0  0  0  0  0  2  0  0  0  0  0  0
  160.2060  210.8740  152.5080 O   0  0  0  0  0  0  0  0  0  0  0  0
  161.4390  210.3420  152.8630 C   0  0  0  0  0  0  0  0  0  0  0  0
  161.7050  210.1360  154.0750 O   0  0  0  0  0  1  0  0  0  0  0  0
  1 10  2  0  0  0  0
  1  4  1  0  0  0  0
  2  6  2  0  0  0  0
  2 10  1  0  0  0  0
  3  5  2  0  0  0  0
  4 11  2  0  0  0  0
  6  9  1  0  0  0  0
  7  2  1  0  0  0  0
  8  3  1  0  0  0  0
  9 14  2  0  0  0  0
 10 15  1  0  0  0  0
 11  8  1  0  0  0  0
 11 13  1  0  0  0  0
 12  5  1  0  0  0  0
 13 12  2  0  0  0  0
 15 14  1  0  0  0  0
 15  8  2  0  0  0  0
 16 17  2  0  0  0  0
 17 18  1  0  0  0  0
 18  4  1  0  0  0  0
 18 24  1  0  0  0  0
 19 21  1  0  0  0  0
 20 21  1  0  0  0  0
 21 17  1  6  0  0  0
 22 19  1  0  0  0  0
 23 22  1  0  0  0  0
 23 20  1  0  0  0  0
 25 24  1  0  0  0  0
 25 26  1  0  0  0  0
 26 27  1  0  0  0  0
 27 29  1  0  0  0  0
 28 29  2  0  0  0  0
 29 30  1  0  0  0  0
M  END
>  <MODEL>
4

>  <REMARK>
 VINA RESULT:      -6.2      4.233      6.671
  Name = 
  6 active torsions:
  status: ('A' for Active; 'I' for Inactive)
    1  A    between atoms: C_4  and  N_13
    2  A    between atoms: N_7  and  C_16
    3  A    between atoms: C_8  and  C_12
    4  A    between atoms: N_13  and  C_27
    5  A    between atoms: C_16  and  C_30
    6  A    between atoms: C_27  and  C_30
                            x       y       z     vdW  Elec       q    Type
                         _______ _______ _______ _____ _____    ______ ____

>  <TORSDO>
F 6

$$$$
=
 OpenBabel11052421553D

 30 33  0  0  1  0  0  0  0  0999 V2000
  161.0720  208.1670  151.2100 C   0  0  0  0  0  3  0  0  0  0  0  0
  160.8410  205.8480  150.5350 C   0  0  0  0  0  0  0  0  0  0  0  0
  161.3880  207.0230  155.2570 C   0  0  0  0  0  3  0  0  0  0  0  0
  161.2190  209.1430  152.1980 C   0  0  0  0  0  0  0  0  0  0  0  0
  161.5630  207.9970  156.2410 C   0  0  0  0  0  3  0  0  0  0  0  0
  160.7690  204.4940  150.8680 C   0  0  0  0  0  3  0  0  0  0  0  0
  160.7430  206.2160  149.2320 F   0  0  0  0  0  0  0  0  0  0  0  0
  161.2770  207.3860  153.9030 C   0  0  0  0  0  0  0  0  0  0  0  0
  160.8650  204.0910  152.2020 C   0  0  0  0  0  3  0  0  0  0  0  0
  161.0070  206.8120  151.5420 C   0  0  0  0  0  0  0  0  0  0  0  0
  161.3420  208.7580  153.5470 C   0  0  0  0  0  0  0  0  0  0  0  0
  161.6290  209.3450  155.8880 C   0  0  0  0  0  3  0  0  0  0  0  0
  161.5190  209.7240  154.5500 C   0  0  0  0  0  3  0  0  0  0  0  0
  161.0320  205.0420  153.2110 C   0  0  0  0  0  3  0  0  0  0  0  0
  161.1050  206.4110  152.8980 C   0  0  0  0  0  0  0  0  0  0  0  0
  160.4000  212.6840  151.8090 O   0  0  0  0  0  0  0  0  0  0  0  0
  160.3620  211.5220  152.2920 C   0  0  0  0  0  0  0  0  0  0  0  0
  161.2920  210.5240  151.8130 N   0  0  0  0  0  0  0  0  0  0  0  0
  157.9160  211.3890  152.8630 C   0  0  0  0  0  2  0  0  0  0  0  0
  159.5500  212.2910  154.8270 S   0  0  0  0  0  0  0  0  0  0  0  0
  159.3340  211.2490  153.3550 C   0  0  2  0  0  3  0  0  0  0  0  0
  157.1070  211.8170  154.0620 C   0  0  0  0  0  2  0  0  0  0  0  0
  157.8620  212.8300  154.7810 N   0  0  0  0  0  2  0  0  0  0  0  0
  162.3200  210.9020  150.8500 C   0  0  0  0  0  2  0  0  0  0  0  0
  161.8010  210.7180  149.4340 C   0  0  0  0  0  2  0  0  0  0  0  0
  162.2980  211.8420  148.5450 C   0  0  0  0  0  2  0  0  0  0  0  0
  161.3540  212.9480  148.5660 N   0  0  0  0  0  2  0  0  0  0  0  0
  160.1800  212.1110  146.5910 O   0  0  0  0  0  0  0  0  0  0  0  0
  160.3170  213.0630  147.5940 C   0  0  0  0  0  0  0  0  0  0  0  0
  159.5200  214.0350  147.6450 O   0  0  0  0  0  1  0  0  0  0  0  0
  1 10  2  0  0  0  0
  1  4  1  0  0  0  0
  2  6  2  0  0  0  0
  2 10  1  0  0  0  0
  3  5  2  0  0  0  0
  4 11  2  0  0  0  0
  6  9  1  0  0  0  0
  7  2  1  0  0  0  0
  8  3  1  0  0  0  0
  9 14  2  0  0  0  0
 10 15  1  0  0  0  0
 11  8  1  0  0  0  0
 11 13  1  0  0  0  0
 12  5  1  0  0  0  0
 13 12  2  0  0  0  0
 15 14  1  0  0  0  0
 15  8  2  0  0  0  0
 16 17  2  0  0  0  0
 18  4  1  0  0  0  0
 18 17  1  0  0  0  0
 19 21  1  0  0  0  0
 19 22  1  0  0  0  0
 21 17  1  6  0  0  0
 21 20  1  0  0  0  0
 22 23  1  0  0  0  0
 23 20  1  0  0  0  0
 24 18  1  0  0  0  0
 25 24  1  0  0  0  0
 26 27  1  0  0  0  0
 26 25  1  0  0  0  0
 28 29  2  0  0  0  0
 29 30  1  0  0  0  0
 29 27  1  0  0  0  0
M  END
>  <MODEL>
5

>  <REMARK>
 VINA RESULT:      -6.1      2.825      5.272
  Name = 
  6 active torsions:
  status: ('A' for Active; 'I' for Inactive)
    1  A    between atoms: C_4  and  N_13
    2  A    between atoms: N_7  and  C_16
    3  A    between atoms: C_8  and  C_12
    4  A    between atoms: N_13  and  C_27
    5  A    between atoms: C_16  and  C_30
    6  A    between atoms: C_27  and  C_30
                            x       y       z     vdW  Elec       q    Type
                         _______ _______ _______ _____ _____    ______ ____

>  <TORSDO>
F 6

$$$$
=
 OpenBabel11052421553D

 30 33  0  0  1  0  0  0  0  0999 V2000
  161.4070  208.3190  152.6030 C   0  0  0  0  0  3  0  0  0  0  0  0
  161.0440  207.1200  154.6800 C   0  0  0  0  0  0  0  0  0  0  0  0
  159.3480  211.6770  154.1050 C   0  0  0  0  0  3  0  0  0  0  0  0
  161.2420  209.4490  151.7980 C   0  0  0  0  0  0  0  0  0  0  0  0
  159.2070  212.8170  153.3110 C   0  0  0  0  0  3  0  0  0  0  0  0
  160.5130  207.0730  155.9710 C   0  0  0  0  0  3  0  0  0  0  0  0
  161.7100  206.0410  154.1980 F   0  0  0  0  0  0  0  0  0  0  0  0
  160.0280  210.5460  153.6190 C   0  0  0  0  0  0  0  0  0  0  0  0
  159.8210  208.1710  156.4880 C   0  0  0  0  0  3  0  0  0  0  0  0
  160.8820  208.2730  153.8960 C   0  0  0  0  0  0  0  0  0  0  0  0
  160.5690  210.5760  152.3080 C   0  0  0  0  0  0  0  0  0  0  0  0
  159.7420  212.8430  152.0240 C   0  0  0  0  0  3  0  0  0  0  0  0
  160.4190  211.7300  151.5240 C   0  0  0  0  0  3  0  0  0  0  0  0
  159.6570  209.3220  155.7160 C   0  0  0  0  0  3  0  0  0  0  0  0
  160.1820  209.3900  154.4140 C   0  0  0  0  0  0  0  0  0  0  0  0
  162.3990  208.3440  148.5120 O   0  0  0  0  0  0  0  0  0  0  0  0
  161.7660  208.3110  149.6000 C   0  0  0  0  0  0  0  0  0  0  0  0
  161.8060  209.4580  150.4780 N   0  0  0  0  0  0  0  0  0  0  0  0
  161.7760  206.0720  150.7460 C   0  0  0  0  0  2  0  0  0  0  0  0
  160.3860  206.2150  148.4250 S   0  0  0  0  0  0  0  0  0  0  0  0
  160.9970  207.0580  149.9140 C   0  0  2  0  0  3  0  0  0  0  0  0
  161.2530  204.7100  150.3630 C   0  0  0  0  0  2  0  0  0  0  0  0
  161.1020  204.6710  148.9180 N   0  0  0  0  0  2  0  0  0  0  0  0
  162.4980  210.6690  150.0500 C   0  0  0  0  0  2  0  0  0  0  0  0
  162.0340  211.0700  148.6590 C   0  0  0  0  0  2  0  0  0  0  0  0
  162.1880  212.5660  148.4670 C   0  0  0  0  0  2  0  0  0  0  0  0
  162.8360  212.8400  147.1950 N   0  0  0  0  0  2  0  0  0  0  0  0
  160.6920  213.1320  146.0560 O   0  0  0  0  0  1  0  0  0  0  0  0
  162.0810  213.1160  146.0170 C   0  0  0  0  0  0  0  0  0  0  0  0
  162.6780  213.3480  144.9340 O   0  0  0  0  0  0  0  0  0  0  0  0
  1 10  1  0  0  0  0
  2  6  1  0  0  0  0
  4 11  1  0  0  0  0
  4  1  2  0  0  0  0
  5  3  2  0  0  0  0
  6  9  2  0  0  0  0
  7  2  1  0  0  0  0
  8  3  1  0  0  0  0
  8 15  1  0  0  0  0
 10 15  1  0  0  0  0
 10  2  2  0  0  0  0
 11  8  2  0  0  0  0
 12  5  1  0  0  0  0
 13 12  2  0  0  0  0
 13 11  1  0  0  0  0
 14  9  1  0  0  0  0
 15 14  2  0  0  0  0
 16 17  2  0  0  0  0
 17 18  1  0  0  0  0
 18  4  1  0  0  0  0
 20 23  1  0  0  0  0
 20 21  1  0  0  0  0
 21 17  1  6  0  0  0
 21 19  1  0  0  0  0
 22 19  1  0  0  0  0
 23 22  1  0  0  0  0
 24 18  1  0  0  0  0
 25 24  1  0  0  0  0
 26 25  1  0  0  0  0
 27 26  1  0  0  0  0
 29 28  1  0  0  0  0
 29 27  1  0  0  0  0
 30 29  2  0  0  0  0
M  END
>  <MODEL>
6

>  <REMARK>
 VINA RESULT:      -6.0      3.938      6.855
  Name = 
  6 active torsions:
  status: ('A' for Active; 'I' for Inactive)
    1  A    between atoms: C_4  and  N_13
    2  A    between atoms: N_7  and  C_16
    3  A    between atoms: C_8  and  C_12
    4  A    between atoms: N_13  and  C_27
    5  A    between atoms: C_16  and  C_30
    6  A    between atoms: C_27  and  C_30
                            x       y       z     vdW  Elec       q    Type
                         _______ _______ _______ _____ _____    ______ ____

>  <TORSDO>
F 6

$$$$
=
 OpenBabel11052421553D

 30 33  0  0  1  0  0  0  0  0999 V2000
  161.0750  204.6020  149.0070 C   0  0  0  0  0  3  0  0  0  0  0  0
  160.9950  202.1790  148.9390 C   0  0  0  0  0  0  0  0  0  0  0  0
  161.1180  204.5470  153.2230 C   0  0  0  0  0  3  0  0  0  0  0  0
  161.1030  205.8050  149.7170 C   0  0  0  0  0  0  0  0  0  0  0  0
  161.1730  205.7480  153.9320 C   0  0  0  0  0  3  0  0  0  0  0  0
  160.9530  200.9520  149.6050 C   0  0  0  0  0  3  0  0  0  0  0  0
  160.9840  202.1970  147.5820 F   0  0  0  0  0  0  0  0  0  0  0  0
  161.0990  204.5460  151.8170 C   0  0  0  0  0  0  0  0  0  0  0  0
  160.9590  200.9080  151.0010 C   0  0  0  0  0  3  0  0  0  0  0  0
  161.0410  203.3750  149.6730 C   0  0  0  0  0  0  0  0  0  0  0  0
  161.1350  205.7840  151.1250 C   0  0  0  0  0  0  0  0  0  0  0  0
  161.2110  206.9630  153.2480 C   0  0  0  0  0  3  0  0  0  0  0  0
  161.1920  206.9820  151.8530 C   0  0  0  0  0  3  0  0  0  0  0  0
  161.0070  202.0930  151.7390 C   0  0  0  0  0  3  0  0  0  0  0  0
  161.0470  203.3390  151.0890 C   0  0  0  0  0  0  0  0  0  0  0  0
  161.4570  208.2270  147.0020 O   0  0  0  0  0  0  0  0  0  0  0  0
  161.2860  207.1090  147.5570 C   0  0  0  0  0  0  0  0  0  0  0  0
  161.1490  207.0450  148.9940 N   0  0  0  0  0  0  0  0  0  0  0  0
  162.5880  205.4650  146.1680 C   0  0  0  0  0  2  0  0  0  0  0  0
  160.1260  206.1170  145.2450 S   0  0  0  0  0  0  0  0  0  0  0  0
  161.2330  205.8970  146.6680 C   0  0  2  0  0  3  0  0  0  0  0  0
  162.3420  204.8170  144.8280 C   0  0  0  0  0  2  0  0  0  0  0  0
  161.3870  205.6340  144.0970 N   0  0  0  0  0  2  0  0  0  0  0  0
  161.1140  208.2800  149.7700 C   0  0  0  0  0  2  0  0  0  0  0  0
  162.3080  209.1510  149.4150 C   0  0  0  0  0  2  0  0  0  0  0  0
  161.9730  210.6130  149.6400 C   0  0  0  0  0  2  0  0  0  0  0  0
  162.3530  211.3950  148.4740 N   0  0  0  0  0  2  0  0  0  0  0  0
  160.6340  213.0760  148.9220 O   0  0  0  0  0  1  0  0  0  0  0  0
  161.6800  212.6060  148.1360 C   0  0  0  0  0  0  0  0  0  0  0  0
  162.0370  213.2550  147.1190 O   0  0  0  0  0  0  0  0  0  0  0  0
  1 10  2  0  0  0  0
  1  4  1  0  0  0  0
  2  6  2  0  0  0  0
  2 10  1  0  0  0  0
  3  5  2  0  0  0  0
  4 11  2  0  0  0  0
  6  9  1  0  0  0  0
  7  2  1  0  0  0  0
  8  3  1  0  0  0  0
  9 14  2  0  0  0  0
 10 15  1  0  0  0  0
 11  8  1  0  0  0  0
 11 13  1  0  0  0  0
 12  5  1  0  0  0  0
 13 12  2  0  0  0  0
 15 14  1  0  0  0  0
 15  8  2  0  0  0  0
 16 17  2  0  0  0  0
 17 18  1  0  0  0  0
 18  4  1  0  0  0  0
 18 24  1  0  0  0  0
 19 21  1  0  0  0  0
 20 21  1  0  0  0  0
 21 17  1  6  0  0  0
 22 19  1  0  0  0  0
 23 22  1  0  0  0  0
 23 20  1  0  0  0  0
 25 26  1  0  0  0  0
 25 24  1  0  0  0  0
 27 26  1  0  0  0  0
 29 27  1  0  0  0  0
 29 28  1  0  0  0  0
 30 29  2  0  0  0  0
M  END
>  <MODEL>
7

>  <REMARK>
 VINA RESULT:      -6.0      4.790      7.326
  Name = 
  6 active torsions:
  status: ('A' for Active; 'I' for Inactive)
    1  A    between atoms: C_4  and  N_13
    2  A    between atoms: N_7  and  C_16
    3  A    between atoms: C_8  and  C_12
    4  A    between atoms: N_13  and  C_27
    5  A    between atoms: C_16  and  C_30
    6  A    between atoms: C_27  and  C_30
                            x       y       z     vdW  Elec       q    Type
                         _______ _______ _______ _____ _____    ______ ____

>  <TORSDO>
F 6

$$$$
=
 OpenBabel11052421553D

 30 33  0  0  1  0  0  0  0  0999 V2000
  161.4870  207.3900  151.5080 C   0  0  0  0  0  3  0  0  0  0  0  0
  161.2040  205.4820  152.9790 C   0  0  0  0  0  0  0  0  0  0  0  0
  161.1740  204.9040  148.1170 C   0  0  0  0  0  3  0  0  0  0  0  0
  161.5980  207.9420  150.2290 C   0  0  0  0  0  0  0  0  0  0  0  0
  161.2560  205.4600  146.8380 C   0  0  0  0  0  3  0  0  0  0  0  0
  161.0180  204.1090  153.1540 C   0  0  0  0  0  3  0  0  0  0  0  0
  161.3010  206.2830  154.0700 F   0  0  0  0  0  0  0  0  0  0  0  0
  161.2800  205.7170  149.2590 C   0  0  0  0  0  0  0  0  0  0  0  0
  160.9180  203.2650  152.0470 C   0  0  0  0  0  3  0  0  0  0  0  0
  161.2940  206.0190  151.6840 C   0  0  0  0  0  0  0  0  0  0  0  0
  161.4750  207.1130  149.0980 C   0  0  0  0  0  0  0  0  0  0  0  0
  161.4460  206.8330  146.6840 C   0  0  0  0  0  3  0  0  0  0  0  0
  161.5550  207.6550  147.8060 C   0  0  0  0  0  3  0  0  0  0  0  0
  161.0040  203.7900  150.7560 C   0  0  0  0  0  3  0  0  0  0  0  0
  161.1930  205.1680  150.5560 C   0  0  0  0  0  0  0  0  0  0  0  0
  161.4440  211.5400  150.8600 O   0  0  0  0  0  0  0  0  0  0  0  0
  161.3750  210.3060  151.1030 C   0  0  0  0  0  0  0  0  0  0  0  0
  161.7850  209.3590  150.0920 N   0  0  0  0  0  0  0  0  0  0  0  0
  159.5690  210.5740  152.8340 C   0  0  0  0  0  2  0  0  0  0  0  0
  162.0750  210.1700  153.7800 S   0  0  0  0  0  0  0  0  0  0  0  0
  160.8620  209.8970  152.4570 C   0  0  2  0  0  3  0  0  0  0  0  0
  159.5830  210.6730  154.3390 C   0  0  0  0  0  2  0  0  0  0  0  0
  160.9130  211.0870  154.7550 N   0  0  0  0  0  2  0  0  0  0  0  0
  162.3620  209.8450  148.8430 C   0  0  0  0  0  2  0  0  0  0  0  0
  161.5630  211.0300  148.3270 C   0  0  0  0  0  2  0  0  0  0  0  0
  162.4910  212.0560  147.7060 C   0  0  0  0  0  2  0  0  0  0  0  0
  161.7150  213.0890  147.0380 N   0  0  0  0  0  2  0  0  0  0  0  0
  163.1420  213.0130  145.0530 O   0  0  0  0  0  0  0  0  0  0  0  0
  162.0520  213.5470  145.7300 C   0  0  0  0  0  0  0  0  0  0  0  0
  161.3570  214.4430  145.1850 O   0  0  0  0  0  1  0  0  0  0  0  0
  1 10  1  0  0  0  0
  2  6  1  0  0  0  0
  2  7  1  0  0  0  0
  3  8  1  0  0  0  0
  4  1  2  0  0  0  0
  5  3  2  0  0  0  0
  8 15  1  0  0  0  0
  9  6  2  0  0  0  0
 10  2  2  0  0  0  0
 11  8  2  0  0  0  0
 11  4  1  0  0  0  0
 12  5  1  0  0  0  0
 12 13  2  0  0  0  0
 13 11  1  0  0  0  0
 14  9  1  0  0  0  0
 15 14  2  0  0  0  0
 15 10  1  0  0  0  0
 16 17  2  0  0  0  0
 18  4  1  0  0  0  0
 18 17  1  0  0  0  0
 19 22  1  0  0  0  0
 20 23  1  0  0  0  0
 21 17  1  6  0  0  0
 21 19  1  0  0  0  0
 21 20  1  0  0  0  0
 22 23  1  0  0  0  0
 24 18  1  0  0  0  0
 25 24  1  0  0  0  0
 26 25  1  0  0  0  0
 27 26  1  0  0  0  0
 28 29  2  0  0  0  0
 29 27  1  0  0  0  0
 30 29  1  0  0  0  0
M  END
>  <MODEL>
8

>  <REMARK>
 VINA RESULT:      -5.9      3.513      5.899
  Name = 
  6 active torsions:
  status: ('A' for Active; 'I' for Inactive)
    1  A    between atoms: C_4  and  N_13
    2  A    between atoms: N_7  and  C_16
    3  A    between atoms: C_8  and  C_12
    4  A    between atoms: N_13  and  C_27
    5  A    between atoms: C_16  and  C_30
    6  A    between atoms: C_27  and  C_30
                            x       y       z     vdW  Elec       q    Type
                         _______ _______ _______ _____ _____    ______ ____

>  <TORSDO>
F 6

$$$$
=
 OpenBabel11052421553D

 30 33  0  0  1  0  0  0  0  0999 V2000
  160.3080  209.4160  152.3680 C   0  0  0  0  0  3  0  0  0  0  0  0
  160.8550  207.2680  151.3820 C   0  0  0  0  0  0  0  0  0  0  0  0
  161.5570  208.0630  156.1620 C   0  0  0  0  0  3  0  0  0  0  0  0
  160.2170  210.2660  153.4730 C   0  0  0  0  0  0  0  0  0  0  0  0
  161.4920  208.9220  157.2610 C   0  0  0  0  0  3  0  0  0  0  0  0
  161.3300  205.9620  151.5180 C   0  0  0  0  0  3  0  0  0  0  0  0
  160.4560  207.7050  150.1600 F   0  0  0  0  0  0  0  0  0  0  0  0
  161.1410  208.4950  154.8900 C   0  0  0  0  0  0  0  0  0  0  0  0
  161.7430  205.4890  152.7650 C   0  0  0  0  0  3  0  0  0  0  0  0
  160.7890  208.1120  152.5020 C   0  0  0  0  0  0  0  0  0  0  0  0
  160.6510  209.8180  154.7360 C   0  0  0  0  0  0  0  0  0  0  0  0
  161.0120  210.2220  157.1050 C   0  0  0  0  0  3  0  0  0  0  0  0
  160.5930  210.6680  155.8510 C   0  0  0  0  0  3  0  0  0  0  0  0
  161.6830  206.3210  153.8850 C   0  0  0  0  0  3  0  0  0  0  0  0
  161.2070  207.6390  153.7710 C   0  0  0  0  0  0  0  0  0  0  0  0
  158.0780  213.2270  153.6170 O   0  0  0  0  0  0  0  0  0  0  0  0
  158.5250  212.0910  153.9280 C   0  0  0  0  0  0  0  0  0  0  0  0
  159.7270  211.6020  153.2900 N   0  0  0  0  0  0  0  0  0  0  0  0
  156.3880  210.8940  154.5020 C   0  0  0  0  0  2  0  0  0  0  0  0
  157.6110  212.1910  156.5410 S   0  0  0  0  0  0  0  0  0  0  0  0
  157.7620  211.3080  154.9610 C   0  0  2  0  0  3  0  0  0  0  0  0
  155.5440  210.8230  155.7490 C   0  0  0  0  0  2  0  0  0  0  0  0
  155.8520  211.9800  156.5730 N   0  0  0  0  0  2  0  0  0  0  0  0
  160.4560  212.4680  152.3710 C   0  0  0  0  0  2  0  0  0  0  0  0
  159.6430  212.6880  151.1060 C   0  0  0  0  0  2  0  0  0  0  0  0
  160.2960  213.7500  150.2420 C   0  0  0  0  0  2  0  0  0  0  0  0
  160.1440  213.4090  148.8370 N   0  0  0  0  0  2  0  0  0  0  0  0
  162.1620  212.0280  148.8540 O   0  0  0  0  0  1  0  0  0  0  0  0
  161.0750  212.5590  148.1700 C   0  0  0  0  0  0  0  0  0  0  0  0
  160.9100  212.2870  146.9530 O   0  0  0  0  0  0  0  0  0  0  0  0
  1 10  2  0  0  0  0
  1  4  1  0  0  0  0
  2  6  2  0  0  0  0
  2 10  1  0  0  0  0
  3  5  2  0  0  0  0
  4 11  2  0  0  0  0
  6  9  1  0  0  0  0
  7  2  1  0  0  0  0
  8  3  1  0  0  0  0
  9 14  2  0  0  0  0
 10 15  1  0  0  0  0
 11  8  1  0  0  0  0
 11 13  1  0  0  0  0
 12  5  1  0  0  0  0
 13 12  2  0  0  0  0
 15 14  1  0  0  0  0
 15  8  2  0  0  0  0
 16 17  2  0  0  0  0
 18  4  1  0  0  0  0
 18 17  1  0  0  0  0
 19 21  1  0  0  0  0
 19 22  1  0  0  0  0
 20 23  1  0  0  0  0
 21 17  1  6  0  0  0
 21 20  1  0  0  0  0
 22 23  1  0  0  0  0
 24 18  1  0  0  0  0
 25 24  1  0  0  0  0
 26 25  1  0  0  0  0
 27 26  1  0  0  0  0
 29 27  1  0  0  0  0
 29 28  1  0  0  0  0
 30 29  2  0  0  0  0
M  END
>  <MODEL>
9

>  <REMARK>
 VINA RESULT:      -5.6      2.942      5.454
  Name = 
  6 active torsions:
  status: ('A' for Active; 'I' for Inactive)
    1  A    between atoms: C_4  and  N_13
    2  A    between atoms: N_7  and  C_16
    3  A    between atoms: C_8  and  C_12
    4  A    between atoms: N_13  and  C_27
    5  A    between atoms: C_16  and  C_30
    6  A    between atoms: C_27  and  C_30
                            x       y       z     vdW  Elec       q    Type
                         _______ _______ _______ _____ _____    ______ ____

>  <TORSDO>
F 6

$$$$
