=
 OpenBabel11062409513D

 34 37  0  0  1  0  0  0  0  0999 V2000
  158.8050  211.5820  154.4350 C   0  0  1  0  0  3  0  0  0  0  0  0
  156.2940  214.4470  157.2510 O   0  0  0  0  0  1  0  0  0  0  0  0
  157.7640  214.4390  154.6960 C   0  0  0  0  0  3  0  0  0  0  0  0
  157.8590  212.0840  152.2740 O   0  0  0  0  0  0  0  0  0  0  0  0
  158.7840  212.9900  151.7460 C   0  0  0  0  0  2  0  0  0  0  0  0
  158.9750  214.3860  153.8160 C   0  0  0  0  0  2  0  0  0  0  0  0
  158.6210  211.1450  152.9770 C   0  0  0  0  0  2  0  0  0  0  0  0
  158.5660  214.3670  152.3510 C   0  0  0  0  0  2  0  0  0  0  0  0
  155.9100  213.7450  156.1060 C   0  0  2  0  0  3  0  0  0  0  0  0
  155.1090  212.4990  156.5060 C   0  0  2  0  0  3  0  0  0  0  0  0
  154.9670  211.5470  155.3200 C   0  0  0  0  0  2  0  0  0  0  0  0
  157.1280  213.4030  155.2820 C   0  0  0  0  0  0  0  0  0  0  0  0
  156.3250  211.0210  154.8390 C   0  0  0  0  0  2  0  0  0  0  0  0
  157.5170  211.9300  155.1940 C   0  0  1  0  0  3  0  0  0  0  0  0
  159.8470  209.2270  154.9670 C   0  0  2  0  0  3  0  0  0  0  0  0
  162.7420  209.7450  154.0500 C   0  0  0  0  0  2  0  0  0  0  0  0
  161.2560  206.6940  152.4210 C   0  0  0  0  0  2  0  0  0  0  0  0
  161.1840  211.4480  155.2750 C   0  0  1  0  0  3  0  0  0  0  0  0
  159.8100  210.7510  155.2500 C   0  0  1  0  0  3  0  0  0  0  0  0
  162.4940  208.1340  151.1440 C   0  0  2  0  0  3  0  0  0  0  0  0
  160.8220  207.2920  153.7460 C   0  0  0  0  0  2  0  0  0  0  0  0
  161.8160  207.7080  149.9950 O   0  0  0  0  0  1  0  0  0  0  0  0
  160.3970  208.7560  153.6040 C   0  0  2  0  0  3  0  0  0  0  0  0
  161.2370  212.5250  156.3490 C   0  0  0  0  0  1  0  0  0  0  0  0
  162.9540  210.1500  156.4410 C   0  0  0  0  0  2  0  0  0  0  0  0
  162.5610  207.1170  152.1210 O   0  0  0  0  0  0  0  0  0  0  0  0
  161.9400  209.4400  151.6620 C   0  0  0  0  0  0  0  0  0  0  0  0
  161.5480  209.6520  153.0990 C   0  0  2  0  0  3  0  0  0  0  0  0
  161.8370  210.3790  150.8910 O   0  0  0  0  0  0  0  0  0  0  0  0
  162.3800  210.5130  155.2930 C   0  0  0  0  0  0  0  0  0  0  0  0
  158.5440  208.5350  155.3340 C   0  0  0  0  0  1  0  0  0  0  0  0
  153.7600  212.8770  157.0280 C   0  0  0  0  0  0  0  0  0  0  0  0
  153.4750  214.0830  157.2560 O   0  0  0  0  0  0  0  0  0  0  0  0
  152.8130  211.8890  157.2600 O   0  0  0  0  0  1  0  0  0  0  0  0
  1  7  1  6  0  0  0
  1 14  1  0  0  0  0
  3 12  2  0  0  0  0
  4  7  1  0  0  0  0
  5  4  1  0  0  0  0
  5  8  1  0  0  0  0
  6  3  1  0  0  0  0
  8  6  1  0  0  0  0
  9 10  1  0  0  0  0
  9  2  1  1  0  0  0
 10 32  1  6  0  0  0
 11 10  1  0  0  0  0
 12  9  1  0  0  0  0
 13 11  1  0  0  0  0
 14 13  1  6  0  0  0
 14 12  1  0  0  0  0
 15 19  1  0  0  0  0
 15 31  1  6  0  0  0
 16 30  1  0  0  0  0
 17 21  1  0  0  0  0
 18 30  1  0  0  0  0
 18 24  1  1  0  0  0
 19  1  1  6  0  0  0
 19 18  1  0  0  0  0
 20 22  1  6  0  0  0
 20 27  1  0  0  0  0
 20 26  1  0  0  0  0
 23 21  1  1  0  0  0
 23 15  1  0  0  0  0
 26 17  1  0  0  0  0
 27 28  1  0  0  0  0
 28 23  1  0  0  0  0
 28 16  1  1  0  0  0
 29 27  2  0  0  0  0
 30 25  2  0  0  0  0
 32 33  2  0  0  0  0
 32 34  1  0  0  0  0
M  END
>  <MODEL>
1

>  <REMARK>
 VINA RESULT:       0.1      0.000      0.000
  Name = 
  2 active torsions:
  status: ('A' for Active; 'I' for Inactive)
    1  A    between atoms: C_1  and  C_9
    2  A    between atoms: C_3  and  C_25
                            x       y       z     vdW  Elec       q    Type
                         _______ _______ _______ _____ _____    ______ ____

>  <TORSDO>
F 2

$$$$
=
 OpenBabel11062409513D

 34 37  0  0  1  0  0  0  0  0999 V2000
  160.3240  209.5070  155.8860 C   0  0  1  0  0  3  0  0  0  0  0  0
  161.3170  208.9210  151.2910 O   0  0  0  0  0  1  0  0  0  0  0  0
  162.4190  210.1120  153.7530 C   0  0  0  0  0  3  0  0  0  0  0  0
  162.4230  208.9110  156.9110 O   0  0  0  0  0  0  0  0  0  0  0  0
  163.0080  210.1600  157.1420 C   0  0  0  0  0  2  0  0  0  0  0  0
  162.4980  211.0970  154.8770 C   0  0  0  0  0  2  0  0  0  0  0  0
  161.0590  209.0880  157.1640 C   0  0  0  0  0  2  0  0  0  0  0  0
  163.5970  210.7050  155.8520 C   0  0  0  0  0  2  0  0  0  0  0  0
  161.7510  208.2010  152.4070 C   0  0  2  0  0  3  0  0  0  0  0  0
  160.9810  206.8780  152.5030 C   0  0  2  0  0  3  0  0  0  0  0  0
  161.1870  206.2340  153.8720 C   0  0  0  0  0  2  0  0  0  0  0  0
  161.6020  209.0440  153.6510 C   0  0  0  0  0  0  0  0  0  0  0  0
  160.6380  207.1080  155.0070 C   0  0  0  0  0  2  0  0  0  0  0  0
  160.5470  208.6060  154.6630 C   0  0  1  0  0  3  0  0  0  0  0  0
  158.5950  211.4780  156.0900 C   0  0  2  0  0  3  0  0  0  0  0  0
  156.9010  210.9150  153.5790 C   0  0  0  0  0  2  0  0  0  0  0  0
  158.1840  214.4530  153.6680 C   0  0  0  0  0  2  0  0  0  0  0  0
  157.9280  209.1240  155.1800 C   0  0  1  0  0  3  0  0  0  0  0  0
  158.8640  209.9510  156.0820 C   0  0  1  0  0  3  0  0  0  0  0  0
  158.2510  213.3050  151.6900 C   0  0  2  0  0  3  0  0  0  0  0  0
  157.9720  213.5570  154.8730 C   0  0  0  0  0  2  0  0  0  0  0  0
  159.3050  214.1150  151.2480 O   0  0  0  0  0  1  0  0  0  0  0  0
  158.7670  212.2520  154.7660 C   0  0  2  0  0  3  0  0  0  0  0  0
  157.5840  207.7870  155.8200 C   0  0  0  0  0  1  0  0  0  0  0  0
  155.5460  209.8240  155.2810 C   0  0  0  0  0  2  0  0  0  0  0  0
  157.4080  213.9870  152.5940 O   0  0  0  0  0  0  0  0  0  0  0  0
  158.7530  211.9780  152.2080 C   0  0  0  0  0  0  0  0  0  0  0  0
  158.3470  211.4110  153.5400 C   0  0  2  0  0  3  0  0  0  0  0  0
  159.4930  211.3150  151.5000 O   0  0  0  0  0  0  0  0  0  0  0  0
  156.7190  209.8720  154.6480 C   0  0  0  0  0  0  0  0  0  0  0  0
  159.2630  212.1810  157.2610 C   0  0  0  0  0  1  0  0  0  0  0  0
  161.4020  205.9360  151.4210 C   0  0  0  0  0  0  0  0  0  0  0  0
  162.3510  205.1280  151.6070 O   0  0  0  0  0  1  0  0  0  0  0  0
  160.7390  205.9510  150.2020 O   0  0  0  0  0  0  0  0  0  0  0  0
  1  7  1  1  0  0  0
  3  6  1  0  0  0  0
  4  5  1  0  0  0  0
  4  7  1  0  0  0  0
  6  8  1  0  0  0  0
  8  5  1  0  0  0  0
  9  2  1  6  0  0  0
  9 10  1  0  0  0  0
  9 12  1  0  0  0  0
 10 32  1  6  0  0  0
 10 11  1  0  0  0  0
 11 13  1  0  0  0  0
 12  3  2  0  0  0  0
 12 14  1  0  0  0  0
 14 13  1  1  0  0  0
 14  1  1  0  0  0  0
 15 31  1  1  0  0  0
 16 30  1  0  0  0  0
 17 21  1  0  0  0  0
 18 24  1  1  0  0  0
 18 19  1  0  0  0  0
 19  1  1  6  0  0  0
 19 15  1  0  0  0  0
 20 22  1  1  0  0  0
 20 27  1  0  0  0  0
 20 26  1  0  0  0  0
 23 21  1  1  0  0  0
 23 15  1  0  0  0  0
 26 17  1  0  0  0  0
 27 28  1  0  0  0  0
 28 16  1  6  0  0  0
 28 23  1  0  0  0  0
 29 27  2  0  0  0  0
 30 18  1  0  0  0  0
 30 25  2  0  0  0  0
 32 33  1  0  0  0  0
 34 32  2  0  0  0  0
M  END
>  <MODEL>
2

>  <REMARK>
 VINA RESULT:       2.7      2.325      7.071
  Name = 
  2 active torsions:
  status: ('A' for Active; 'I' for Inactive)
    1  A    between atoms: C_1  and  C_9
    2  A    between atoms: C_3  and  C_25
                            x       y       z     vdW  Elec       q    Type
                         _______ _______ _______ _____ _____    ______ ____

>  <TORSDO>
F 2

$$$$
=
 OpenBabel11062409513D

 34 37  0  0  1  0  0  0  0  0999 V2000
  160.4010  211.3800  152.6480 C   0  0  1  0  0  3  0  0  0  0  0  0
  161.5780  213.8260  148.7650 O   0  0  0  0  0  1  0  0  0  0  0  0
  161.9310  211.1790  150.0150 C   0  0  0  0  0  3  0  0  0  0  0  0
  159.6990  209.2780  151.6960 O   0  0  0  0  0  0  0  0  0  0  0  0
  160.8390  208.4840  151.8540 C   0  0  0  0  0  2  0  0  0  0  0  0
  162.4580  210.2020  151.0190 C   0  0  0  0  0  2  0  0  0  0  0  0
  159.6350  210.0670  152.8490 C   0  0  0  0  0  2  0  0  0  0  0  0
  161.8610  208.8230  150.7820 C   0  0  0  0  0  2  0  0  0  0  0  0
  160.5600  212.8920  148.9680 C   0  0  2  0  0  3  0  0  0  0  0  0
  159.2160  213.6160  149.1280 C   0  0  2  0  0  3  0  0  0  0  0  0
  158.1560  212.6660  149.6780 C   0  0  0  0  0  2  0  0  0  0  0  0
  160.8890  212.0250  150.1600 C   0  0  0  0  0  0  0  0  0  0  0  0
  158.5120  212.1550  151.0790 C   0  0  0  0  0  2  0  0  0  0  0  0
  160.0170  212.1900  151.4010 C   0  0  1  0  0  3  0  0  0  0  0  0
  159.5070  213.2940  154.2140 C   0  0  2  0  0  3  0  0  0  0  0  0
  158.9920  211.6470  156.7660 C   0  0  0  0  0  2  0  0  0  0  0  0
  155.9580  213.6010  155.6950 C   0  0  0  0  0  2  0  0  0  0  0  0
  160.9840  211.3340  155.1050 C   0  0  1  0  0  3  0  0  0  0  0  0
  160.5960  212.2300  153.9140 C   0  0  1  0  0  3  0  0  0  0  0  0
  155.6860  211.4430  156.4020 C   0  0  2  0  0  3  0  0  0  0  0  0
  157.3970  213.9440  155.3600 C   0  0  0  0  0  2  0  0  0  0  0  0
  154.5060  211.3390  155.6540 O   0  0  0  0  0  1  0  0  0  0  0  0
  158.1060  212.7990  154.6300 C   0  0  2  0  0  3  0  0  0  0  0  0
  162.4760  211.0320  155.1060 C   0  0  0  0  0  1  0  0  0  0  0  0
  161.1960  212.5530  157.2610 C   0  0  0  0  0  2  0  0  0  0  0  0
  155.9260  212.7680  156.8250 O   0  0  0  0  0  0  0  0  0  0  0  0
  156.8550  210.8130  155.6820 C   0  0  0  0  0  0  0  0  0  0  0  0
  158.1700  211.5140  155.4840 C   0  0  2  0  0  3  0  0  0  0  0  0
  156.7430  209.6690  155.2730 O   0  0  0  0  0  0  0  0  0  0  0  0
  160.4570  211.7900  156.4540 C   0  0  0  0  0  0  0  0  0  0  0  0
  159.4460  214.3790  153.1520 C   0  0  0  0  0  1  0  0  0  0  0  0
  158.7650  214.1960  147.8260 C   0  0  0  0  0  0  0  0  0  0  0  0
  159.5970  214.4530  146.9150 O   0  0  0  0  0  0  0  0  0  0  0  0
  157.4160  214.4490  147.6190 O   0  0  0  0  0  1  0  0  0  0  0  0
  1  7  1  1  0  0  0
  3 12  2  0  0  0  0
  3  6  1  0  0  0  0
  4  5  1  0  0  0  0
  4  7  1  0  0  0  0
  8  6  1  0  0  0  0
  8  5  1  0  0  0  0
  9  2  1  1  0  0  0
  9 10  1  0  0  0  0
  9 12  1  0  0  0  0
 10 32  1  6  0  0  0
 10 11  1  0  0  0  0
 11 13  1  0  0  0  0
 12 14  1  0  0  0  0
 14 13  1  6  0  0  0
 14  1  1  0  0  0  0
 15 31  1  6  0  0  0
 15 23  1  0  0  0  0
 17 26  1  0  0  0  0
 18 24  1  1  0  0  0
 18 30  1  0  0  0  0
 19  1  1  6  0  0  0
 19 15  1  0  0  0  0
 19 18  1  0  0  0  0
 20 22  1  6  0  0  0
 20 26  1  0  0  0  0
 21 17  1  0  0  0  0
 23 21  1  1  0  0  0
 23 28  1  0  0  0  0
 27 20  1  0  0  0  0
 28 27  1  0  0  0  0
 28 16  1  1  0  0  0
 29 27  2  0  0  0  0
 30 16  1  0  0  0  0
 30 25  2  0  0  0  0
 33 32  2  0  0  0  0
 34 32  1  0  0  0  0
M  END
>  <MODEL>
3

>  <REMARK>
 VINA RESULT:       2.9      2.402      6.844
  Name = 
  2 active torsions:
  status: ('A' for Active; 'I' for Inactive)
    1  A    between atoms: C_1  and  C_9
    2  A    between atoms: C_3  and  C_25
                            x       y       z     vdW  Elec       q    Type
                         _______ _______ _______ _____ _____    ______ ____

>  <TORSDO>
F 2

$$$$
