=
 OpenBabel11052422493D

 28 30  0  0  1  0  0  0  0  0999 V2000
  160.9090  207.1580  152.6570 C   0  0  0  0  0  2  0  0  0  0  0  0
  162.9450  206.1190  151.6470 C   0  0  0  0  0  1  0  0  0  0  0  0
  160.8020  206.1440  150.3750 C   0  0  0  0  0  1  0  0  0  0  0  0
  161.4280  206.0330  151.7600 C   0  0  0  0  0  0  0  0  0  0  0  0
  161.0240  204.7070  152.4140 C   0  0  0  0  0  2  0  0  0  0  0  0
  160.9600  202.6620  150.6860 C   0  0  0  0  0  0  0  0  0  0  0  0
  160.9930  203.5800  151.4680 C   0  0  0  0  0  0  0  0  0  0  0  0
  160.9120  201.5550  149.7270 C   0  0  0  0  0  2  0  0  0  0  0  0
  161.6350  203.8480  146.8000 C   0  0  0  0  0  3  0  0  0  0  0  0
  161.0150  202.0780  148.3360 C   0  0  0  0  0  0  0  0  0  0  0  0
  160.6100  201.8200  145.9600 C   0  0  0  0  0  0  0  0  0  0  0  0
  161.5590  203.3470  148.1030 C   0  0  0  0  0  3  0  0  0  0  0  0
  160.5350  201.3170  147.2620 C   0  0  0  0  0  3  0  0  0  0  0  0
  160.1230  201.0460  144.8710 N   0  0  0  0  0  1  0  0  0  0  0  0
  161.1610  203.0840  145.7290 C   0  0  0  0  0  3  0  0  0  0  0  0
  160.3990  209.5880  152.4850 C   0  0  0  0  0  2  0  0  0  0  0  0
  161.5630  209.5310  153.4540 C   0  0  2  0  0  3  0  0  0  0  0  0
  161.4720  208.5350  152.2910 C   0  0  1  0  0  3  0  0  0  0  0  0
  160.9800  208.9060  155.0720 S   0  0  0  0  0  0  0  0  0  0  0  0
  160.2700  210.5120  155.5520 C   0  0  0  0  0  2  0  0  0  0  0  0
  158.8170  210.4160  155.6420 N   0  0  0  0  0  0  0  0  0  0  0  0
  157.9630  211.3210  155.2550 C   0  0  0  0  0  0  0  0  0  0  0  0
  155.9640  213.3380  154.6400 C   0  0  0  0  0  2  0  0  0  0  0  0
  156.5050  211.0440  155.4690 C   0  0  0  0  0  2  0  0  0  0  0  0
  159.4740  212.6910  153.9330 N   0  0  0  0  0  2  0  0  0  0  0  0
  158.3450  212.5770  154.5530 C   0  0  0  0  0  0  0  0  0  0  0  0
  157.4310  213.7640  154.6160 C   0  0  0  0  0  2  0  0  0  0  0  0
  155.7280  212.3270  155.7560 C   0  0  0  0  0  2  0  0  0  0  0  0
  2  4  1  0  0  0  0
  3  4  1  0  0  0  0
  4  5  1  0  0  0  0
  4  1  1  0  0  0  0
  6  7  3  0  0  0  0
  7  5  1  0  0  0  0
  8  6  1  0  0  0  0
  9 12  1  0  0  0  0
 10  8  1  0  0  0  0
 11 13  2  0  0  0  0
 12 10  2  0  0  0  0
 13 10  1  0  0  0  0
 14 11  1  0  0  0  0
 15 11  1  0  0  0  0
 15  9  2  0  0  0  0
 16 17  1  0  0  0  0
 17 19  1  1  0  0  0
 18 16  1  0  0  0  0
 18  1  1  1  0  0  0
 18 17  1  0  0  0  0
 19 20  1  0  0  0  0
 20 21  1  0  0  0  0
 22 24  1  0  0  0  0
 22 21  2  0  0  0  0
 23 28  1  0  0  0  0
 24 28  1  0  0  0  0
 25 26  2  0  0  0  0
 26 27  1  0  0  0  0
 26 22  1  0  0  0  0
 27 23  1  0  0  0  0
M  END
>  <MODEL>
1

>  <REMARK>
 VINA RESULT:      -8.0      0.000      0.000
  Name = 
  9 active torsions:
  status: ('A' for Active; 'I' for Inactive)
    1  A    between atoms: C_1  and  N_2
    2  A    between atoms: C_1  and  S_26
    3  A    between atoms: C_5  and  C_21
    4  A    between atoms: C_5  and  C_27
    5  A    between atoms: C_9  and  C_18
    6  A    between atoms: C_14  and  C_18
    7  A    between atoms: C_19  and  S_26
    8  A    between atoms: C_20  and  C_25
    9  A    between atoms: C_20  and  C_27
                            x       y       z     vdW  Elec       q    Type
                         _______ _______ _______ _____ _____    ______ ____

>  <TORSDO>
F 9

$$$$
=
 OpenBabel11052422493D

 28 30  0  0  1  0  0  0  0  0999 V2000
  160.9220  207.3610  152.6370 C   0  0  0  0  0  2  0  0  0  0  0  0
  162.9090  206.2390  151.6180 C   0  0  0  0  0  1  0  0  0  0  0  0
  160.8230  206.5220  150.2840 C   0  0  0  0  0  1  0  0  0  0  0  0
  161.3860  206.2650  151.6770 C   0  0  0  0  0  0  0  0  0  0  0  0
  160.8590  204.9320  152.2200 C   0  0  0  0  0  2  0  0  0  0  0  0
  160.8950  202.9580  150.4100 C   0  0  0  0  0  0  0  0  0  0  0  0
  160.8830  203.8500  151.2210 C   0  0  0  0  0  0  0  0  0  0  0  0
  160.9010  201.8670  149.4320 C   0  0  0  0  0  2  0  0  0  0  0  0
  160.8400  202.1470  145.6550 C   0  0  0  0  0  3  0  0  0  0  0  0
  161.0450  202.4170  148.0550 C   0  0  0  0  0  0  0  0  0  0  0  0
  161.7300  204.2050  146.5690 C   0  0  0  0  0  0  0  0  0  0  0  0
  160.6840  201.6390  146.9480 C   0  0  0  0  0  3  0  0  0  0  0  0
  161.5730  203.7000  147.8630 C   0  0  0  0  0  3  0  0  0  0  0  0
  162.2660  205.5090  146.3750 N   0  0  0  0  0  1  0  0  0  0  0  0
  161.3620  203.4300  145.4650 C   0  0  0  0  0  3  0  0  0  0  0  0
  160.3450  209.7770  152.4850 C   0  0  0  0  0  2  0  0  0  0  0  0
  161.5290  209.7480  153.4290 C   0  0  2  0  0  3  0  0  0  0  0  0
  161.4410  208.7540  152.2640 C   0  0  1  0  0  3  0  0  0  0  0  0
  160.9980  209.1020  155.0570 S   0  0  0  0  0  0  0  0  0  0  0  0
  160.2830  210.6960  155.5700 C   0  0  0  0  0  2  0  0  0  0  0  0
  158.8380  210.5780  155.7220 N   0  0  0  0  0  0  0  0  0  0  0  0
  157.9540  211.4690  155.3720 C   0  0  0  0  0  0  0  0  0  0  0  0
  155.9000  213.4550  154.8420 C   0  0  0  0  0  2  0  0  0  0  0  0
  156.5110  211.1690  155.6470 C   0  0  0  0  0  2  0  0  0  0  0  0
  159.3860  212.8620  153.9870 N   0  0  0  0  0  2  0  0  0  0  0  0
  158.2870  212.7310  154.6540 C   0  0  0  0  0  0  0  0  0  0  0  0
  157.3570  213.9030  154.7560 C   0  0  0  0  0  2  0  0  0  0  0  0
  155.7270  212.4400  155.9660 C   0  0  0  0  0  2  0  0  0  0  0  0
  2  4  1  0  0  0  0
  3  4  1  0  0  0  0
  4  5  1  0  0  0  0
  4  1  1  0  0  0  0
  6  7  3  0  0  0  0
  7  5  1  0  0  0  0
  8  6  1  0  0  0  0
  9 12  1  0  0  0  0
 10  8  1  0  0  0  0
 11 13  2  0  0  0  0
 12 10  2  0  0  0  0
 13 10  1  0  0  0  0
 14 11  1  0  0  0  0
 15  9  2  0  0  0  0
 15 11  1  0  0  0  0
 16 17  1  0  0  0  0
 17 19  1  1  0  0  0
 18 16  1  0  0  0  0
 18  1  1  1  0  0  0
 18 17  1  0  0  0  0
 19 20  1  0  0  0  0
 20 21  1  0  0  0  0
 22 24  1  0  0  0  0
 22 21  2  0  0  0  0
 23 28  1  0  0  0  0
 24 28  1  0  0  0  0
 25 26  2  0  0  0  0
 26 27  1  0  0  0  0
 26 22  1  0  0  0  0
 27 23  1  0  0  0  0
M  END
>  <MODEL>
2

>  <REMARK>
 VINA RESULT:      -7.9      1.026      1.375
  Name = 
  9 active torsions:
  status: ('A' for Active; 'I' for Inactive)
    1  A    between atoms: C_1  and  N_2
    2  A    between atoms: C_1  and  S_26
    3  A    between atoms: C_5  and  C_21
    4  A    between atoms: C_5  and  C_27
    5  A    between atoms: C_9  and  C_18
    6  A    between atoms: C_14  and  C_18
    7  A    between atoms: C_19  and  S_26
    8  A    between atoms: C_20  and  C_25
    9  A    between atoms: C_20  and  C_27
                            x       y       z     vdW  Elec       q    Type
                         _______ _______ _______ _____ _____    ______ ____

>  <TORSDO>
F 9

$$$$
=
 OpenBabel11052422493D

 28 30  0  0  1  0  0  0  0  0999 V2000
  160.8250  206.6060  150.7380 C   0  0  0  0  0  2  0  0  0  0  0  0
  161.2880  207.1360  153.1360 C   0  0  0  0  0  1  0  0  0  0  0  0
  162.8790  205.7130  151.8480 C   0  0  0  0  0  1  0  0  0  0  0  0
  161.4120  206.0760  152.0470 C   0  0  0  0  0  0  0  0  0  0  0  0
  160.6100  204.8300  152.4350 C   0  0  0  0  0  2  0  0  0  0  0  0
  160.8840  202.8130  150.6930 C   0  0  0  0  0  0  0  0  0  0  0  0
  160.7660  203.7200  151.4800 C   0  0  0  0  0  0  0  0  0  0  0  0
  161.0150  201.7140  149.7330 C   0  0  0  0  0  2  0  0  0  0  0  0
  161.6950  204.0400  146.8220 C   0  0  0  0  0  3  0  0  0  0  0  0
  161.0960  202.2540  148.3470 C   0  0  0  0  0  0  0  0  0  0  0  0
  160.6500  202.0260  145.9750 C   0  0  0  0  0  0  0  0  0  0  0  0
  161.6400  203.5240  148.1200 C   0  0  0  0  0  3  0  0  0  0  0  0
  160.5950  201.5080  147.2720 C   0  0  0  0  0  3  0  0  0  0  0  0
  160.1410  201.2670  144.8850 N   0  0  0  0  0  1  0  0  0  0  0  0
  161.2010  203.2910  145.7500 C   0  0  0  0  0  3  0  0  0  0  0  0
  161.2810  207.5600  148.4850 C   0  0  0  0  0  2  0  0  0  0  0  0
  162.3650  208.1590  149.3560 C   0  0  2  0  0  3  0  0  0  0  0  0
  161.8610  206.7340  149.6160 C   0  0  1  0  0  3  0  0  0  0  0  0
  161.6420  209.4570  150.4260 S   0  0  0  0  0  0  0  0  0  0  0  0
  162.2660  210.8100  149.3800 C   0  0  0  0  0  2  0  0  0  0  0  0
  161.2670  211.1830  148.3840 N   0  0  0  0  0  0  0  0  0  0  0  0
  161.3600  212.1660  147.5350 C   0  0  0  0  0  0  0  0  0  0  0  0
  161.3420  214.4530  145.7420 C   0  0  0  0  0  2  0  0  0  0  0  0
  160.2020  212.4060  146.6140 C   0  0  0  0  0  2  0  0  0  0  0  0
  163.7360  212.6190  147.7760 N   0  0  0  0  0  2  0  0  0  0  0  0
  162.5720  213.0170  147.3800 C   0  0  0  0  0  0  0  0  0  0  0  0
  162.4350  214.3960  146.8070 C   0  0  0  0  0  2  0  0  0  0  0  0
  160.0380  213.8910  146.2970 C   0  0  0  0  0  2  0  0  0  0  0  0
  1  4  1  0  0  0  0
  3  4  1  0  0  0  0
  4  5  1  0  0  0  0
  4  2  1  0  0  0  0
  6  7  3  0  0  0  0
  7  5  1  0  0  0  0
  8  6  1  0  0  0  0
  9 12  1  0  0  0  0
 10  8  1  0  0  0  0
 11 13  2  0  0  0  0
 12 10  2  0  0  0  0
 13 10  1  0  0  0  0
 14 11  1  0  0  0  0
 15 11  1  0  0  0  0
 15  9  2  0  0  0  0
 16 17  1  0  0  0  0
 16 18  1  0  0  0  0
 17 18  1  0  0  0  0
 17 19  1  1  0  0  0
 18  1  1  1  0  0  0
 20 19  1  0  0  0  0
 21 20  1  0  0  0  0
 22 21  2  0  0  0  0
 23 28  1  0  0  0  0
 23 27  1  0  0  0  0
 24 22  1  0  0  0  0
 26 22  1  0  0  0  0
 26 25  2  0  0  0  0
 27 26  1  0  0  0  0
 28 24  1  0  0  0  0
M  END
>  <MODEL>
3

>  <REMARK>
 VINA RESULT:      -7.7      4.070      5.310
  Name = 
  9 active torsions:
  status: ('A' for Active; 'I' for Inactive)
    1  A    between atoms: C_1  and  N_2
    2  A    between atoms: C_1  and  S_26
    3  A    between atoms: C_5  and  C_21
    4  A    between atoms: C_5  and  C_27
    5  A    between atoms: C_9  and  C_18
    6  A    between atoms: C_14  and  C_18
    7  A    between atoms: C_19  and  S_26
    8  A    between atoms: C_20  and  C_25
    9  A    between atoms: C_20  and  C_27
                            x       y       z     vdW  Elec       q    Type
                         _______ _______ _______ _____ _____    ______ ____

>  <TORSDO>
F 9

$$$$
=
 OpenBabel11052422493D

 28 30  0  0  1  0  0  0  0  0999 V2000
  161.5630  206.8350  154.3170 C   0  0  0  0  0  2  0  0  0  0  0  0
  162.9440  206.1860  152.3370 C   0  0  0  0  0  1  0  0  0  0  0  0
  160.7320  207.2850  152.0020 C   0  0  0  0  0  1  0  0  0  0  0  0
  161.5250  206.3210  152.8770 C   0  0  0  0  0  0  0  0  0  0  0  0
  160.8410  204.9500  152.9010 C   0  0  0  0  0  2  0  0  0  0  0  0
  160.8160  203.7350  150.5150 C   0  0  0  0  0  0  0  0  0  0  0  0
  160.8240  204.2870  151.5870 C   0  0  0  0  0  0  0  0  0  0  0  0
  160.8120  203.0530  149.2170 C   0  0  0  0  0  2  0  0  0  0  0  0
  162.0740  204.3390  145.8850 C   0  0  0  0  0  3  0  0  0  0  0  0
  161.3080  203.9730  148.1560 C   0  0  0  0  0  0  0  0  0  0  0  0
  162.0210  206.1820  147.4560 C   0  0  0  0  0  0  0  0  0  0  0  0
  161.5860  203.4810  146.8750 C   0  0  0  0  0  3  0  0  0  0  0  0
  161.5320  205.3250  148.4470 C   0  0  0  0  0  3  0  0  0  0  0  0
  162.2480  207.5550  147.7530 N   0  0  0  0  0  1  0  0  0  0  0  0
  162.2910  205.6900  146.1760 C   0  0  0  0  0  3  0  0  0  0  0  0
  159.9540  206.9830  156.2090 C   0  0  0  0  0  2  0  0  0  0  0  0
  160.3340  208.4260  155.9450 C   0  0  2  0  0  3  0  0  0  0  0  0
  160.2300  207.4260  154.7870 C   0  0  1  0  0  3  0  0  0  0  0  0
  162.0260  208.7360  156.5670 S   0  0  0  0  0  0  0  0  0  0  0  0
  161.9820  210.4970  156.1080 C   0  0  0  0  0  2  0  0  0  0  0  0
  161.5880  210.6470  154.7120 N   0  0  0  0  0  0  0  0  0  0  0  0
  160.6240  211.3990  154.2620 C   0  0  0  0  0  0  0  0  0  0  0  0
  158.3690  212.8580  153.1540 C   0  0  0  0  0  2  0  0  0  0  0  0
  160.3550  211.3860  152.7880 C   0  0  0  0  0  2  0  0  0  0  0  0
  160.2590  212.7360  156.2600 N   0  0  0  0  0  2  0  0  0  0  0  0
  159.8230  212.3200  155.1160 C   0  0  0  0  0  0  0  0  0  0  0  0
  158.4500  212.7270  154.6730 C   0  0  0  0  0  2  0  0  0  0  0  0
  158.8710  211.5820  152.4880 C   0  0  0  0  0  2  0  0  0  0  0  0
  2  4  1  0  0  0  0
  3  4  1  0  0  0  0
  4  5  1  0  0  0  0
  4  1  1  0  0  0  0
  6  7  3  0  0  0  0
  7  5  1  0  0  0  0
  8  6  1  0  0  0  0
  9 15  2  0  0  0  0
  9 12  1  0  0  0  0
 10 13  1  0  0  0  0
 10  8  1  0  0  0  0
 11 14  1  0  0  0  0
 11 13  2  0  0  0  0
 12 10  2  0  0  0  0
 15 11  1  0  0  0  0
 17 16  1  0  0  0  0
 17 19  1  1  0  0  0
 18  1  1  1  0  0  0
 18 17  1  0  0  0  0
 18 16  1  0  0  0  0
 20 19  1  0  0  0  0
 21 20  1  0  0  0  0
 22 21  2  0  0  0  0
 22 26  1  0  0  0  0
 23 27  1  0  0  0  0
 24 22  1  0  0  0  0
 26 25  2  0  0  0  0
 27 26  1  0  0  0  0
 28 24  1  0  0  0  0
 28 23  1  0  0  0  0
M  END
>  <MODEL>
4

>  <REMARK>
 VINA RESULT:      -7.7      2.238      2.986
  Name = 
  9 active torsions:
  status: ('A' for Active; 'I' for Inactive)
    1  A    between atoms: C_1  and  N_2
    2  A    between atoms: C_1  and  S_26
    3  A    between atoms: C_5  and  C_21
    4  A    between atoms: C_5  and  C_27
    5  A    between atoms: C_9  and  C_18
    6  A    between atoms: C_14  and  C_18
    7  A    between atoms: C_19  and  S_26
    8  A    between atoms: C_20  and  C_25
    9  A    between atoms: C_20  and  C_27
                            x       y       z     vdW  Elec       q    Type
                         _______ _______ _______ _____ _____    ______ ____

>  <TORSDO>
F 9

$$$$
=
 OpenBabel11052422493D

 28 30  0  0  1  0  0  0  0  0999 V2000
  161.1830  206.5630  151.3030 C   0  0  0  0  0  2  0  0  0  0  0  0
  161.4770  206.2940  153.7710 C   0  0  0  0  0  1  0  0  0  0  0  0
  162.9550  205.0440  152.2000 C   0  0  0  0  0  1  0  0  0  0  0  0
  161.5470  205.5860  152.4230 C   0  0  0  0  0  0  0  0  0  0  0  0
  160.5300  204.4410  152.3770 C   0  0  0  0  0  2  0  0  0  0  0  0
  160.7940  202.8870  150.2110 C   0  0  0  0  0  0  0  0  0  0  0  0
  160.6700  203.5890  151.1840 C   0  0  0  0  0  0  0  0  0  0  0  0
  160.9550  202.0280  149.0350 C   0  0  0  0  0  2  0  0  0  0  0  0
  161.1940  203.0830  145.4050 C   0  0  0  0  0  3  0  0  0  0  0  0
  161.1640  202.8620  147.8180 C   0  0  0  0  0  0  0  0  0  0  0  0
  161.8000  204.9680  146.8000 C   0  0  0  0  0  0  0  0  0  0  0  0
  160.9760  202.3070  146.5470 C   0  0  0  0  0  3  0  0  0  0  0  0
  161.5820  204.1940  147.9440 C   0  0  0  0  0  3  0  0  0  0  0  0
  162.2240  206.3200  146.9290 N   0  0  0  0  0  1  0  0  0  0  0  0
  161.6060  204.4140  145.5310 C   0  0  0  0  0  3  0  0  0  0  0  0
  161.8670  208.4530  149.8370 C   0  0  0  0  0  2  0  0  0  0  0  0
  162.1690  208.9540  151.2350 C   0  0  2  0  0  3  0  0  0  0  0  0
  162.3450  207.4700  150.8870 C   0  0  1  0  0  3  0  0  0  0  0  0
  160.6050  209.3830  152.0820 S   0  0  0  0  0  0  0  0  0  0  0  0
  161.4600  210.1410  153.4990 C   0  0  0  0  0  2  0  0  0  0  0  0
  160.8910  211.4510  153.7930 N   0  0  0  0  0  0  0  0  0  0  0  0
  159.8650  211.6880  154.5600 C   0  0  0  0  0  0  0  0  0  0  0  0
  157.4640  212.3350  156.0630 C   0  0  0  0  0  2  0  0  0  0  0  0
  159.4130  213.1100  154.7050 C   0  0  0  0  0  2  0  0  0  0  0  0
  159.7310  209.5190  155.6510 N   0  0  0  0  0  2  0  0  0  0  0  0
  159.1620  210.6410  155.3520 C   0  0  0  0  0  0  0  0  0  0  0  0
  157.7380  210.8620  155.7640 C   0  0  0  0  0  2  0  0  0  0  0  0
  157.9000  213.2000  154.8860 C   0  0  0  0  0  2  0  0  0  0  0  0
  1  4  1  0  0  0  0
  3  4  1  0  0  0  0
  4  2  1  0  0  0  0
  5  4  1  0  0  0  0
  6  7  3  0  0  0  0
  7  5  1  0  0  0  0
  8  6  1  0  0  0  0
  9 15  2  0  0  0  0
  9 12  1  0  0  0  0
 10 13  1  0  0  0  0
 10  8  1  0  0  0  0
 11 14  1  0  0  0  0
 11 13  2  0  0  0  0
 12 10  2  0  0  0  0
 15 11  1  0  0  0  0
 16 18  1  0  0  0  0
 16 17  1  0  0  0  0
 17 19  1  1  0  0  0
 18 17  1  0  0  0  0
 18  1  1  1  0  0  0
 19 20  1  0  0  0  0
 20 21  1  0  0  0  0
 21 22  2  0  0  0  0
 22 24  1  0  0  0  0
 22 26  1  0  0  0  0
 24 28  1  0  0  0  0
 26 25  2  0  0  0  0
 26 27  1  0  0  0  0
 27 23  1  0  0  0  0
 28 23  1  0  0  0  0
M  END
>  <MODEL>
5

>  <REMARK>
 VINA RESULT:      -7.5      1.711      2.598
  Name = 
  9 active torsions:
  status: ('A' for Active; 'I' for Inactive)
    1  A    between atoms: C_1  and  N_2
    2  A    between atoms: C_1  and  S_26
    3  A    between atoms: C_5  and  C_21
    4  A    between atoms: C_5  and  C_27
    5  A    between atoms: C_9  and  C_18
    6  A    between atoms: C_14  and  C_18
    7  A    between atoms: C_19  and  S_26
    8  A    between atoms: C_20  and  C_25
    9  A    between atoms: C_20  and  C_27
                            x       y       z     vdW  Elec       q    Type
                         _______ _______ _______ _____ _____    ______ ____

>  <TORSDO>
F 9

$$$$
=
 OpenBabel11052422493D

 28 30  0  0  1  0  0  0  0  0999 V2000
  160.8100  206.0400  151.0880 C   0  0  0  0  0  2  0  0  0  0  0  0
  161.2910  205.9550  153.5390 C   0  0  0  0  0  1  0  0  0  0  0  0
  162.8590  204.8810  151.9270 C   0  0  0  0  0  1  0  0  0  0  0  0
  161.3970  205.1980  152.2210 C   0  0  0  0  0  0  0  0  0  0  0  0
  160.5830  203.9010  152.2930 C   0  0  0  0  0  2  0  0  0  0  0  0
  160.8940  202.3280  150.1480 C   0  0  0  0  0  0  0  0  0  0  0  0
  160.7590  203.0400  151.1120 C   0  0  0  0  0  0  0  0  0  0  0  0
  161.0480  201.4550  148.9810 C   0  0  0  0  0  2  0  0  0  0  0  0
  160.7650  202.5090  145.3530 C   0  0  0  0  0  3  0  0  0  0  0  0
  161.1270  202.2740  147.7380 C   0  0  0  0  0  0  0  0  0  0  0  0
  161.7840  204.3140  146.6060 C   0  0  0  0  0  0  0  0  0  0  0  0
  160.6700  201.7490  146.5230 C   0  0  0  0  0  3  0  0  0  0  0  0
  161.6900  203.5560  147.7770 C   0  0  0  0  0  3  0  0  0  0  0  0
  162.3560  205.6160  146.6470 N   0  0  0  0  0  1  0  0  0  0  0  0
  161.3210  203.7910  145.3940 C   0  0  0  0  0  3  0  0  0  0  0  0
  161.2060  207.6630  149.2430 C   0  0  0  0  0  2  0  0  0  0  0  0
  162.0100  208.2260  150.3970 C   0  0  2  0  0  3  0  0  0  0  0  0
  161.8750  206.7090  150.2120 C   0  0  1  0  0  3  0  0  0  0  0  0
  160.8770  208.9730  151.6240 S   0  0  0  0  0  0  0  0  0  0  0  0
  161.6840  210.6020  151.5300 C   0  0  0  0  0  2  0  0  0  0  0  0
  162.0650  210.9000  150.1540 N   0  0  0  0  0  0  0  0  0  0  0  0
  161.5420  211.8210  149.3950 C   0  0  0  0  0  0  0  0  0  0  0  0
  160.3180  213.6830  147.5300 C   0  0  0  0  0  2  0  0  0  0  0  0
  162.0520  211.9440  147.9910 C   0  0  0  0  0  2  0  0  0  0  0  0
  160.3620  213.0690  151.1160 N   0  0  0  0  0  2  0  0  0  0  0  0
  160.5200  212.7990  149.8610 C   0  0  0  0  0  0  0  0  0  0  0  0
  159.6080  213.4440  148.8620 C   0  0  0  0  0  2  0  0  0  0  0  0
  160.9510  212.3890  147.0320 C   0  0  0  0  0  2  0  0  0  0  0  0
  1  4  1  0  0  0  0
  3  4  1  0  0  0  0
  4  5  1  0  0  0  0
  4  2  1  0  0  0  0
  6  7  3  0  0  0  0
  7  5  1  0  0  0  0
  8  6  1  0  0  0  0
  9 15  2  0  0  0  0
  9 12  1  0  0  0  0
 10 13  1  0  0  0  0
 10  8  1  0  0  0  0
 11 14  1  0  0  0  0
 11 13  2  0  0  0  0
 12 10  2  0  0  0  0
 15 11  1  0  0  0  0
 16 18  1  0  0  0  0
 16 17  1  0  0  0  0
 17 19  1  1  0  0  0
 18 17  1  0  0  0  0
 18  1  1  1  0  0  0
 20 19  1  0  0  0  0
 21 20  1  0  0  0  0
 22 26  1  0  0  0  0
 22 21  2  0  0  0  0
 23 27  1  0  0  0  0
 24 22  1  0  0  0  0
 26 25  2  0  0  0  0
 27 26  1  0  0  0  0
 28 23  1  0  0  0  0
 28 24  1  0  0  0  0
M  END
>  <MODEL>
6

>  <REMARK>
 VINA RESULT:      -7.5      3.527      4.485
  Name = 
  9 active torsions:
  status: ('A' for Active; 'I' for Inactive)
    1  A    between atoms: C_1  and  N_2
    2  A    between atoms: C_1  and  S_26
    3  A    between atoms: C_5  and  C_21
    4  A    between atoms: C_5  and  C_27
    5  A    between atoms: C_9  and  C_18
    6  A    between atoms: C_14  and  C_18
    7  A    between atoms: C_19  and  S_26
    8  A    between atoms: C_20  and  C_25
    9  A    between atoms: C_20  and  C_27
                            x       y       z     vdW  Elec       q    Type
                         _______ _______ _______ _____ _____    ______ ____

>  <TORSDO>
F 9

$$$$
=
 OpenBabel11052422493D

 28 30  0  0  1  0  0  0  0  0999 V2000
  160.7530  208.1110  151.8930 C   0  0  0  0  0  2  0  0  0  0  0  0
  162.7880  206.9960  150.9640 C   0  0  0  0  0  1  0  0  0  0  0  0
  160.5960  206.7450  149.8050 C   0  0  0  0  0  1  0  0  0  0  0  0
  161.2810  206.8770  151.1600 C   0  0  0  0  0  0  0  0  0  0  0  0
  160.9600  205.6570  152.0310 C   0  0  0  0  0  2  0  0  0  0  0  0
  160.8620  203.3740  150.6350 C   0  0  0  0  0  0  0  0  0  0  0  0
  160.9040  204.3990  151.2690 C   0  0  0  0  0  0  0  0  0  0  0  0
  160.8160  202.1340  149.8550 C   0  0  0  0  0  2  0  0  0  0  0  0
  160.8440  201.7330  146.0880 C   0  0  0  0  0  3  0  0  0  0  0  0
  160.9630  202.4390  148.4040 C   0  0  0  0  0  0  0  0  0  0  0  0
  161.5750  203.9770  146.6330 C   0  0  0  0  0  0  0  0  0  0  0  0
  160.6840  201.4540  147.4490 C   0  0  0  0  0  3  0  0  0  0  0  0
  161.4150  203.7010  147.9940 C   0  0  0  0  0  3  0  0  0  0  0  0
  162.0330  205.2580  146.2170 N   0  0  0  0  0  1  0  0  0  0  0  0
  161.2890  202.9940  145.6800 C   0  0  0  0  0  3  0  0  0  0  0  0
  161.8400  210.2710  151.3050 C   0  0  0  0  0  2  0  0  0  0  0  0
  161.3520  210.4860  152.7230 C   0  0  2  0  0  3  0  0  0  0  0  0
  161.8520  209.1070  152.2760 C   0  0  1  0  0  3  0  0  0  0  0  0
  159.5350  210.7050  152.7180 S   0  0  0  0  0  0  0  0  0  0  0  0
  159.6510  212.5210  152.6530 C   0  0  0  0  0  2  0  0  0  0  0  0
  159.9650  212.9600  151.2980 N   0  0  0  0  0  0  0  0  0  0  0  0
  159.1110  213.3990  150.4160 C   0  0  0  0  0  0  0  0  0  0  0  0
  157.2930  214.1840  148.2900 C   0  0  0  0  0  2  0  0  0  0  0  0
  159.6340  213.7690  149.0610 C   0  0  0  0  0  2  0  0  0  0  0  0
  157.2250  213.7680  151.9040 N   0  0  0  0  0  2  0  0  0  0  0  0
  157.6660  213.6180  150.6980 C   0  0  0  0  0  0  0  0  0  0  0  0
  156.6840  213.6030  149.5650 C   0  0  0  0  0  2  0  0  0  0  0  0
  158.6080  213.4820  147.9680 C   0  0  0  0  0  2  0  0  0  0  0  0
  2  4  1  0  0  0  0
  3  4  1  0  0  0  0
  4  1  1  0  0  0  0
  4  5  1  0  0  0  0
  6  7  3  0  0  0  0
  7  5  1  0  0  0  0
  8  6  1  0  0  0  0
  9 12  1  0  0  0  0
 10  8  1  0  0  0  0
 11 13  2  0  0  0  0
 12 10  2  0  0  0  0
 13 10  1  0  0  0  0
 14 11  1  0  0  0  0
 15  9  2  0  0  0  0
 15 11  1  0  0  0  0
 16 18  1  0  0  0  0
 16 17  1  0  0  0  0
 17 19  1  6  0  0  0
 18  1  1  6  0  0  0
 18 17  1  0  0  0  0
 20 19  1  0  0  0  0
 21 20  1  0  0  0  0
 22 26  1  0  0  0  0
 22 21  2  0  0  0  0
 23 27  1  0  0  0  0
 24 22  1  0  0  0  0
 26 25  2  0  0  0  0
 27 26  1  0  0  0  0
 28 23  1  0  0  0  0
 28 24  1  0  0  0  0
M  END
>  <MODEL>
7

>  <REMARK>
 VINA RESULT:      -7.4      2.916      3.603
  Name = 
  9 active torsions:
  status: ('A' for Active; 'I' for Inactive)
    1  A    between atoms: C_1  and  N_2
    2  A    between atoms: C_1  and  S_26
    3  A    between atoms: C_5  and  C_21
    4  A    between atoms: C_5  and  C_27
    5  A    between atoms: C_9  and  C_18
    6  A    between atoms: C_14  and  C_18
    7  A    between atoms: C_19  and  S_26
    8  A    between atoms: C_20  and  C_25
    9  A    between atoms: C_20  and  C_27
                            x       y       z     vdW  Elec       q    Type
                         _______ _______ _______ _____ _____    ______ ____

>  <TORSDO>
F 9

$$$$
=
 OpenBabel11052422493D

 28 30  0  0  1  0  0  0  0  0999 V2000
  161.6000  206.8800  154.0500 C   0  0  0  0  0  2  0  0  0  0  0  0
  160.8130  204.8620  152.8010 C   0  0  0  0  0  1  0  0  0  0  0  0
  163.0210  205.8820  152.2510 C   0  0  0  0  0  1  0  0  0  0  0  0
  161.5910  206.1690  152.6950 C   0  0  0  0  0  0  0  0  0  0  0  0
  160.9080  207.1070  151.6940 C   0  0  0  0  0  2  0  0  0  0  0  0
  161.3610  206.4300  149.1430 C   0  0  0  0  0  0  0  0  0  0  0  0
  161.1510  206.7330  150.2910 C   0  0  0  0  0  0  0  0  0  0  0  0
  161.6280  206.0670  147.7480 C   0  0  0  0  0  2  0  0  0  0  0  0
  161.2160  202.6930  146.0770 C   0  0  0  0  0  3  0  0  0  0  0  0
  161.4210  204.6050  147.5530 C   0  0  0  0  0  0  0  0  0  0  0  0
  160.9590  202.4090  148.4690 C   0  0  0  0  0  0  0  0  0  0  0  0
  161.4330  204.0610  146.2630 C   0  0  0  0  0  3  0  0  0  0  0  0
  161.1770  203.7770  148.6560 C   0  0  0  0  0  3  0  0  0  0  0  0
  160.7120  201.5690  149.5900 N   0  0  0  0  0  1  0  0  0  0  0  0
  160.9790  201.8660  147.1800 C   0  0  0  0  0  3  0  0  0  0  0  0
  159.8550  207.0010  155.8200 C   0  0  0  0  0  2  0  0  0  0  0  0
  160.2680  208.4450  155.6210 C   0  0  2  0  0  3  0  0  0  0  0  0
  160.2410  207.4750  154.4330 C   0  0  1  0  0  3  0  0  0  0  0  0
  161.9120  208.7200  156.3750 S   0  0  0  0  0  0  0  0  0  0  0  0
  161.9140  210.4950  155.9730 C   0  0  0  0  0  2  0  0  0  0  0  0
  161.5230  210.7000  154.5830 N   0  0  0  0  0  0  0  0  0  0  0  0
  160.5740  211.4860  154.1590 C   0  0  0  0  0  0  0  0  0  0  0  0
  158.3490  213.0270  153.1010 C   0  0  0  0  0  2  0  0  0  0  0  0
  160.3060  211.5280  152.6850 C   0  0  0  0  0  2  0  0  0  0  0  0
  160.2350  212.7620  156.2010 N   0  0  0  0  0  2  0  0  0  0  0  0
  159.7910  212.3930  155.0440 C   0  0  0  0  0  0  0  0  0  0  0  0
  158.4270  212.8430  154.6150 C   0  0  0  0  0  2  0  0  0  0  0  0
  158.8260  211.7640  152.3930 C   0  0  0  0  0  2  0  0  0  0  0  0
  3  4  1  0  0  0  0
  4  2  1  0  0  0  0
  4  1  1  0  0  0  0
  5  4  1  0  0  0  0
  6  7  3  0  0  0  0
  7  5  1  0  0  0  0
  8  6  1  0  0  0  0
  9 12  2  0  0  0  0
  9 15  1  0  0  0  0
 10  8  1  0  0  0  0
 10 13  2  0  0  0  0
 11 13  1  0  0  0  0
 11 14  1  0  0  0  0
 12 10  1  0  0  0  0
 15 11  2  0  0  0  0
 17 16  1  0  0  0  0
 17 19  1  1  0  0  0
 18  1  1  1  0  0  0
 18 17  1  0  0  0  0
 18 16  1  0  0  0  0
 20 19  1  0  0  0  0
 21 20  1  0  0  0  0
 22 21  2  0  0  0  0
 22 26  1  0  0  0  0
 23 27  1  0  0  0  0
 24 22  1  0  0  0  0
 26 25  2  0  0  0  0
 27 26  1  0  0  0  0
 28 24  1  0  0  0  0
 28 23  1  0  0  0  0
M  END
>  <MODEL>
8

>  <REMARK>
 VINA RESULT:      -7.3      1.873      2.988
  Name = 
  9 active torsions:
  status: ('A' for Active; 'I' for Inactive)
    1  A    between atoms: C_1  and  N_2
    2  A    between atoms: C_1  and  S_26
    3  A    between atoms: C_5  and  C_21
    4  A    between atoms: C_5  and  C_27
    5  A    between atoms: C_9  and  C_18
    6  A    between atoms: C_14  and  C_18
    7  A    between atoms: C_19  and  S_26
    8  A    between atoms: C_20  and  C_25
    9  A    between atoms: C_20  and  C_27
                            x       y       z     vdW  Elec       q    Type
                         _______ _______ _______ _____ _____    ______ ____

>  <TORSDO>
F 9

$$$$
=
 OpenBabel11052422493D

 28 30  0  0  1  0  0  0  0  0999 V2000
  160.2520  208.9110  154.4780 C   0  0  0  0  0  2  0  0  0  0  0  0
  159.4020  207.2330  156.1240 C   0  0  0  0  0  1  0  0  0  0  0  0
  161.7400  208.0790  156.3070 C   0  0  0  0  0  1  0  0  0  0  0  0
  160.6220  207.7030  155.3400 C   0  0  0  0  0  0  0  0  0  0  0  0
  161.0960  206.5950  154.3940 C   0  0  0  0  0  2  0  0  0  0  0  0
  161.2030  207.3760  151.8340 C   0  0  0  0  0  0  0  0  0  0  0  0
  161.1500  207.0210  152.9850 C   0  0  0  0  0  0  0  0  0  0  0  0
  161.2780  207.8160  150.4380 C   0  0  0  0  0  2  0  0  0  0  0  0
  161.0970  204.2500  149.1720 C   0  0  0  0  0  3  0  0  0  0  0  0
  161.3470  206.6330  149.5330 C   0  0  0  0  0  0  0  0  0  0  0  0
  161.8700  205.6720  147.3710 C   0  0  0  0  0  0  0  0  0  0  0  0
  161.0100  205.3630  150.0140 C   0  0  0  0  0  3  0  0  0  0  0  0
  161.7830  206.7860  148.2110 C   0  0  0  0  0  3  0  0  0  0  0  0
  162.3120  205.8280  146.0280 N   0  0  0  0  0  1  0  0  0  0  0  0
  161.5260  204.4040  147.8500 C   0  0  0  0  0  3  0  0  0  0  0  0
  161.7970  210.7020  153.7040 C   0  0  0  0  0  2  0  0  0  0  0  0
  160.5540  211.4560  154.1270 C   0  0  2  0  0  3  0  0  0  0  0  0
  160.9890  210.1930  154.8800 C   0  0  1  0  0  3  0  0  0  0  0  0
  159.2380  211.2140  152.8780 S   0  0  0  0  0  0  0  0  0  0  0  0
  159.1200  212.9920  152.5080 C   0  0  0  0  0  2  0  0  0  0  0  0
  159.1420  213.2120  151.0660 N   0  0  0  0  0  0  0  0  0  0  0  0
  158.1510  213.6470  150.3410 C   0  0  0  0  0  0  0  0  0  0  0  0
  155.9640  214.3960  148.5800 C   0  0  0  0  0  2  0  0  0  0  0  0
  158.3670  213.7720  148.8630 C   0  0  0  0  0  2  0  0  0  0  0  0
  156.7240  214.4500  152.1380 N   0  0  0  0  0  2  0  0  0  0  0  0
  156.8450  214.0920  150.9010 C   0  0  0  0  0  0  0  0  0  0  0  0
  155.6240  214.0670  150.0320 C   0  0  0  0  0  2  0  0  0  0  0  0
  157.0840  213.4890  148.0840 C   0  0  0  0  0  2  0  0  0  0  0  0
  1  4  1  0  0  0  0
  4  2  1  0  0  0  0
  4  3  1  0  0  0  0
  5  4  1  0  0  0  0
  6  7  3  0  0  0  0
  7  5  1  0  0  0  0
  8  6  1  0  0  0  0
  9 12  1  0  0  0  0
 10 12  2  0  0  0  0
 10  8  1  0  0  0  0
 11 15  1  0  0  0  0
 11 13  2  0  0  0  0
 13 10  1  0  0  0  0
 14 11  1  0  0  0  0
 15  9  2  0  0  0  0
 16 17  1  0  0  0  0
 16 18  1  0  0  0  0
 17 19  1  6  0  0  0
 17 18  1  0  0  0  0
 18  1  1  6  0  0  0
 20 19  1  0  0  0  0
 21 20  1  0  0  0  0
 22 26  1  0  0  0  0
 22 21  2  0  0  0  0
 23 27  1  0  0  0  0
 24 22  1  0  0  0  0
 26 25  2  0  0  0  0
 27 26  1  0  0  0  0
 28 23  1  0  0  0  0
 28 24  1  0  0  0  0
M  END
>  <MODEL>
9

>  <REMARK>
 VINA RESULT:      -7.1      3.264      4.717
  Name = 
  9 active torsions:
  status: ('A' for Active; 'I' for Inactive)
    1  A    between atoms: C_1  and  N_2
    2  A    between atoms: C_1  and  S_26
    3  A    between atoms: C_5  and  C_21
    4  A    between atoms: C_5  and  C_27
    5  A    between atoms: C_9  and  C_18
    6  A    between atoms: C_14  and  C_18
    7  A    between atoms: C_19  and  S_26
    8  A    between atoms: C_20  and  C_25
    9  A    between atoms: C_20  and  C_27
                            x       y       z     vdW  Elec       q    Type
                         _______ _______ _______ _____ _____    ______ ____

>  <TORSDO>
F 9

$$$$
