=
 OpenBabel11062409173D

 37 42  0  0  1  0  0  0  0  0999 V2000
  160.5610  203.2650  145.3590 C   0  0  0  0  0  2  0  0  0  0  0  0
  160.5350  204.8750  149.2810 C   0  0  1  0  0  3  0  0  0  0  0  0
  162.1410  207.7530  150.2390 C   0  0  1  0  0  3  0  0  0  0  0  0
  161.9220  203.5970  147.5090 C   0  0  1  0  0  3  0  0  0  0  0  0
  160.3160  206.4050  149.4040 C   0  0  1  0  0  3  0  0  0  0  0  0
  160.9570  204.7280  147.8340 C   0  0  2  0  0  3  0  0  0  0  0  0
  160.8190  207.1430  150.6270 C   0  0  1  0  0  3  0  0  0  0  0  0
  161.5840  202.3800  148.3470 C   0  0  0  0  0  2  0  0  0  0  0  0
  161.5830  206.0380  147.4660 C   0  0  1  0  0  3  0  0  0  0  0  0
  160.3080  205.8600  145.2440 C   0  0  0  0  0  3  0  0  0  0  0  0
  161.0380  204.1690  151.6600 C   0  0  0  0  0  2  0  0  0  0  0  0
  161.7760  202.7020  149.8360 C   0  0  0  0  0  2  0  0  0  0  0  0
  161.5660  206.2940  145.9520 C   0  0  0  0  0  2  0  0  0  0  0  0
  163.1860  206.8510  150.4500 O   0  0  0  0  0  1  0  0  0  0  0  0
  161.5370  204.1770  150.2290 C   0  0  1  0  0  3  0  0  0  0  0  0
  160.9170  207.0760  148.2370 N   0  0  2  0  0  0  0  0  0  0  0  0
  161.9520  203.3130  146.0020 C   0  0  0  0  0  2  0  0  0  0  0  0
  160.5880  206.5780  152.0330 C   0  0  1  0  0  3  0  0  0  0  0  0
  159.9150  204.5920  144.9930 C   0  0  0  0  0  3  0  0  0  0  0  0
  161.9690  207.9730  148.7420 C   0  0  1  0  0  3  0  0  0  0  0  0
  161.4920  205.4120  152.3880 C   0  0  0  0  0  2  0  0  0  0  0  0
  161.2240  207.4260  154.3310 C   0  0  0  0  0  3  0  0  0  0  0  0
  160.6420  207.6540  153.0740 C   0  0  0  0  0  0  0  0  0  0  0  0
  160.1220  208.9160  152.7730 C   0  0  0  0  0  3  0  0  0  0  0  0
  159.6180  211.2820  153.3950 C   0  0  0  0  0  1  0  0  0  0  0  0
  160.7510  209.7110  154.9730 C   0  0  0  0  0  3  0  0  0  0  0  0
  160.1740  209.9440  153.7200 C   0  0  0  0  0  0  0  0  0  0  0  0
  161.2760  208.4520  155.2780 C   0  0  0  0  0  3  0  0  0  0  0  0
  161.5960  209.3000  148.5070 O   0  0  0  0  0  0  0  0  0  0  0  0
  162.5540  210.0800  149.1670 C   0  0  2  0  0  3  0  0  0  0  0  0
  161.9720  210.6700  150.4500 C   0  0  0  0  0  2  0  0  0  0  0  0
  162.8540  210.3970  151.6590 C   0  0  0  0  0  1  0  0  0  0  0  0
  163.0600  211.1830  148.2490 C   0  0  0  0  0  2  0  0  0  0  0  0
  162.7080  213.6630  147.8870 C   0  0  0  0  0  1  0  0  0  0  0  0
  162.0410  212.3180  148.1510 C   0  0  1  0  0  3  0  0  0  0  0  0
  160.9520  213.0250  146.2530 C   0  0  0  0  0  1  0  0  0  0  0  0
  160.9770  212.0450  147.2600 O   0  0  0  0  0  0  0  0  0  0  0  0
  1 17  1  0  0  0  0
  2  5  1  0  0  0  0
  2 15  1  0  0  0  0
  3 14  1  0  0  0  0
  3  7  1  0  0  0  0
  4  6  1  0  0  0  0
  4  8  1  0  0  0  0
  5  7  1  0  0  0  0
  6  2  1  0  0  0  0
  7 18  1  0  0  0  0
  8 12  1  0  0  0  0
  9  6  1  0  0  0  0
  9 16  1  0  0  0  0
 10 13  1  0  0  0  0
 11 21  1  0  0  0  0
 12 15  1  0  0  0  0
 13  9  1  0  0  0  0
 15 11  1  0  0  0  0
 16 20  1  0  0  0  0
 16  5  1  0  0  0  0
 17  4  1  0  0  0  0
 18 21  1  0  0  0  0
 18 23  1  0  0  0  0
 19 10  2  0  0  0  0
 19  1  1  0  0  0  0
 20  3  1  0  0  0  0
 22 28  1  0  0  0  0
 23 22  2  0  0  0  0
 24 23  1  0  0  0  0
 24 27  2  0  0  0  0
 25 27  1  0  0  0  0
 26 28  2  0  0  0  0
 27 26  1  0  0  0  0
 29 20  1  0  0  0  0
 29 30  1  0  0  0  0
 30 31  1  0  0  0  0
 31 32  1  0  0  0  0
 33 30  1  0  0  0  0
 34 35  1  0  0  0  0
 35 33  1  0  0  0  0
 36 37  1  0  0  0  0
 37 35  1  0  0  0  0
M  END
>  <MODEL>
1

>  <REMARK>
 VINA RESULT:      -7.2      0.000      0.000
  Name = 
  7 active torsions:
  status: ('A' for Active; 'I' for Inactive)
    1  A    between atoms: C_5  and  C_17
    2  A    between atoms: C_5  and  O_23
    3  A    between atoms: C_6  and  C_31
    4  A    between atoms: C_11  and  C_26
    5  A    between atoms: C_17  and  C_26
    6  A    between atoms: C_26  and  O_33
    7  A    between atoms: O_33  and  C_36
                            x       y       z     vdW  Elec       q    Type
                         _______ _______ _______ _____ _____    ______ ____

>  <TORSDO>
F 7

$$$$
=
 OpenBabel11062409173D

 37 42  0  0  1  0  0  0  0  0999 V2000
  160.6360  204.5010  146.0300 C   0  0  0  0  0  2  0  0  0  0  0  0
  160.4300  205.3060  150.1870 C   0  0  1  0  0  3  0  0  0  0  0  0
  162.6280  207.2920  151.9200 C   0  0  1  0  0  3  0  0  0  0  0  0
  161.6550  203.9870  148.3280 C   0  0  1  0  0  3  0  0  0  0  0  0
  160.6540  206.7770  150.6230 C   0  0  1  0  0  3  0  0  0  0  0  0
  161.0260  205.2910  148.7950 C   0  0  2  0  0  3  0  0  0  0  0  0
  161.1400  207.0830  152.0250 C   0  0  1  0  0  3  0  0  0  0  0  0
  160.8390  202.8160  148.8360 C   0  0  0  0  0  2  0  0  0  0  0  0
  162.0620  206.3730  148.7930 C   0  0  1  0  0  3  0  0  0  0  0  0
  161.1810  207.0150  146.4670 C   0  0  0  0  0  3  0  0  0  0  0  0
  160.2970  204.0640  152.3890 C   0  0  0  0  0  2  0  0  0  0  0  0
  160.8650  202.7870  150.3710 C   0  0  0  0  0  2  0  0  0  0  0  0
  162.3740  206.8870  147.3800 C   0  0  0  0  0  2  0  0  0  0  0  0
  163.3100  206.0800  152.0320 O   0  0  0  0  0  1  0  0  0  0  0  0
  161.0090  204.1650  151.0550 C   0  0  1  0  0  3  0  0  0  0  0  0
  161.6120  207.4150  149.7020 N   0  0  2  0  0  0  0  0  0  0  0  0
  161.8520  203.9830  146.8070 C   0  0  0  0  0  2  0  0  0  0  0  0
  160.5200  206.3810  153.2380 C   0  0  1  0  0  3  0  0  0  0  0  0
  160.4800  206.0090  145.9020 C   0  0  0  0  0  3  0  0  0  0  0  0
  162.7810  207.8200  150.4990 C   0  0  1  0  0  3  0  0  0  0  0  0
  160.9690  204.9430  153.4180 C   0  0  0  0  0  2  0  0  0  0  0  0
  160.3310  206.6740  155.7450 C   0  0  0  0  0  3  0  0  0  0  0  0
  160.7140  207.1780  154.4920 C   0  0  0  0  0  0  0  0  0  0  0  0
  161.3110  208.4400  154.4090 C   0  0  0  0  0  3  0  0  0  0  0  0
  162.1510  210.5390  155.4710 C   0  0  0  0  0  1  0  0  0  0  0  0
  161.1320  208.6940  156.8110 C   0  0  0  0  0  3  0  0  0  0  0  0
  161.5190  209.1990  155.5650 C   0  0  0  0  0  0  0  0  0  0  0  0
  160.5390  207.4310  156.9010 C   0  0  0  0  0  3  0  0  0  0  0  0
  162.8600  209.2150  150.5270 O   0  0  0  0  0  0  0  0  0  0  0  0
  161.5340  209.6640  150.5890 C   0  0  2  0  0  3  0  0  0  0  0  0
  161.1910  210.4940  149.3530 C   0  0  0  0  0  2  0  0  0  0  0  0
  162.4080  211.2080  148.7860 C   0  0  0  0  0  1  0  0  0  0  0  0
  161.3080  210.4710  151.8600 C   0  0  0  0  0  2  0  0  0  0  0  0
  159.0810  210.9540  152.9590 C   0  0  0  0  0  1  0  0  0  0  0  0
  159.9970  211.2540  151.7790 C   0  0  1  0  0  3  0  0  0  0  0  0
  158.9350  213.2350  151.2990 C   0  0  0  0  0  1  0  0  0  0  0  0
  160.1800  212.6390  151.5590 O   0  0  0  0  0  0  0  0  0  0  0  0
  1 17  1  0  0  0  0
  2  5  1  0  0  0  0
  2 15  1  0  0  0  0
  3  7  1  0  0  0  0
  3 14  1  0  0  0  0
  4  6  1  0  0  0  0
  4  8  1  0  0  0  0
  5  7  1  0  0  0  0
  6  2  1  0  0  0  0
  7 18  1  0  0  0  0
  8 12  1  0  0  0  0
  9  6  1  0  0  0  0
  9 16  1  0  0  0  0
 10 13  1  0  0  0  0
 11 21  1  0  0  0  0
 12 15  1  0  0  0  0
 13  9  1  0  0  0  0
 15 11  1  0  0  0  0
 16 20  1  0  0  0  0
 16  5  1  0  0  0  0
 17  4  1  0  0  0  0
 18 21  1  0  0  0  0
 18 23  1  0  0  0  0
 19  1  1  0  0  0  0
 19 10  2  0  0  0  0
 20 29  1  0  0  0  0
 20  3  1  0  0  0  0
 22 28  1  0  0  0  0
 23 22  2  0  0  0  0
 24 23  1  0  0  0  0
 24 27  2  0  0  0  0
 25 27  1  0  0  0  0
 26 28  2  0  0  0  0
 27 26  1  0  0  0  0
 29 30  1  0  0  0  0
 30 33  1  0  0  0  0
 31 30  1  0  0  0  0
 32 31  1  0  0  0  0
 35 33  1  0  0  0  0
 35 34  1  0  0  0  0
 36 37  1  0  0  0  0
 37 35  1  0  0  0  0
M  END
>  <MODEL>
2

>  <REMARK>
 VINA RESULT:      -6.0      1.555      2.482
  Name = 
  7 active torsions:
  status: ('A' for Active; 'I' for Inactive)
    1  A    between atoms: C_5  and  C_17
    2  A    between atoms: C_5  and  O_23
    3  A    between atoms: C_6  and  C_31
    4  A    between atoms: C_11  and  C_26
    5  A    between atoms: C_17  and  C_26
    6  A    between atoms: C_26  and  O_33
    7  A    between atoms: O_33  and  C_36
                            x       y       z     vdW  Elec       q    Type
                         _______ _______ _______ _____ _____    ______ ____

>  <TORSDO>
F 7

$$$$
=
 OpenBabel11062409173D

 37 42  0  0  1  0  0  0  0  0999 V2000
  160.6220  204.3490  145.6840 C   0  0  0  0  0  2  0  0  0  0  0  0
  160.5360  205.2900  149.8170 C   0  0  1  0  0  3  0  0  0  0  0  0
  162.2400  207.8850  151.2810 C   0  0  1  0  0  3  0  0  0  0  0  0
  161.9230  204.2520  147.8940 C   0  0  1  0  0  3  0  0  0  0  0  0
  160.3840  206.7880  150.1860 C   0  0  1  0  0  3  0  0  0  0  0  0
  161.0000  205.3620  148.3770 C   0  0  2  0  0  3  0  0  0  0  0  0
  160.8780  207.2890  151.5280 C   0  0  1  0  0  3  0  0  0  0  0  0
  161.5000  202.9330  148.5080 C   0  0  0  0  0  2  0  0  0  0  0  0
  161.6990  206.6810  148.2480 C   0  0  1  0  0  3  0  0  0  0  0  0
  160.4940  206.9370  145.9940 C   0  0  0  0  0  3  0  0  0  0  0  0
  160.9230  204.1780  152.0570 C   0  0  0  0  0  2  0  0  0  0  0  0
  161.6550  202.9950  150.0360 C   0  0  0  0  0  2  0  0  0  0  0  0
  161.7450  207.1840  146.7980 C   0  0  0  0  0  2  0  0  0  0  0  0
  163.2330  206.9080  151.3670 O   0  0  0  0  0  1  0  0  0  0  0  0
  161.4710  204.3950  150.6610 C   0  0  1  0  0  3  0  0  0  0  0  0
  161.0550  207.6110  149.1630 N   0  0  2  0  0  0  0  0  0  0  0  0
  161.9910  204.2200  146.3620 C   0  0  0  0  0  2  0  0  0  0  0  0
  160.5720  206.5120  152.8130 C   0  0  1  0  0  3  0  0  0  0  0  0
  160.0520  205.7500  145.5260 C   0  0  0  0  0  3  0  0  0  0  0  0
  162.1300  208.3570  149.8370 C   0  0  1  0  0  3  0  0  0  0  0  0
  161.4090  205.2590  152.9940 C   0  0  0  0  0  2  0  0  0  0  0  0
  160.5280  206.8740  155.3180 C   0  0  0  0  0  3  0  0  0  0  0  0
  160.6400  207.3980  154.0200 C   0  0  0  0  0  0  0  0  0  0  0  0
  160.8450  208.7690  153.8440 C   0  0  0  0  0  3  0  0  0  0  0  0
  161.1440  211.0740  154.7600 C   0  0  0  0  0  1  0  0  0  0  0  0
  160.8120  209.0920  156.2450 C   0  0  0  0  0  3  0  0  0  0  0  0
  160.9290  209.6170  154.9530 C   0  0  0  0  0  0  0  0  0  0  0  0
  160.6120  207.7210  156.4270 C   0  0  0  0  0  3  0  0  0  0  0  0
  161.8270  209.7220  149.8170 O   0  0  0  0  0  0  0  0  0  0  0  0
  162.2870  210.1880  148.5780 C   0  0  2  0  0  3  0  0  0  0  0  0
  163.2890  211.3250  148.7720 C   0  0  0  0  0  2  0  0  0  0  0  0
  164.0970  211.5980  147.5140 C   0  0  0  0  0  1  0  0  0  0  0  0
  161.1160  210.6440  147.7180 C   0  0  0  0  0  2  0  0  0  0  0  0
  160.7360  212.6610  146.2370 C   0  0  0  0  0  1  0  0  0  0  0  0
  161.0600  212.1700  147.6430 C   0  0  1  0  0  3  0  0  0  0  0  0
  160.7220  214.0360  148.9440 C   0  0  0  0  0  1  0  0  0  0  0  0
  160.2370  212.7540  148.6350 O   0  0  0  0  0  0  0  0  0  0  0  0
  1 17  1  0  0  0  0
  2  5  1  0  0  0  0
  2 15  1  0  0  0  0
  3 14  1  0  0  0  0
  3  7  1  0  0  0  0
  4  6  1  0  0  0  0
  4  8  1  0  0  0  0
  5  7  1  0  0  0  0
  6  2  1  0  0  0  0
  7 18  1  0  0  0  0
  8 12  1  0  0  0  0
  9  6  1  0  0  0  0
  9 16  1  0  0  0  0
 10 13  1  0  0  0  0
 11 21  1  0  0  0  0
 12 15  1  0  0  0  0
 13  9  1  0  0  0  0
 15 11  1  0  0  0  0
 16 20  1  0  0  0  0
 16  5  1  0  0  0  0
 17  4  1  0  0  0  0
 18 21  1  0  0  0  0
 18 23  1  0  0  0  0
 19  1  1  0  0  0  0
 19 10  2  0  0  0  0
 20  3  1  0  0  0  0
 22 28  1  0  0  0  0
 23 22  2  0  0  0  0
 24 23  1  0  0  0  0
 24 27  2  0  0  0  0
 25 27  1  0  0  0  0
 26 28  2  0  0  0  0
 27 26  1  0  0  0  0
 29 20  1  0  0  0  0
 30 31  1  0  0  0  0
 30 29  1  0  0  0  0
 32 31  1  0  0  0  0
 33 30  1  0  0  0  0
 34 35  1  0  0  0  0
 35 33  1  0  0  0  0
 35 37  1  0  0  0  0
 37 36  1  0  0  0  0
M  END
>  <MODEL>
3

>  <REMARK>
 VINA RESULT:      -6.0      1.143      1.517
  Name = 
  7 active torsions:
  status: ('A' for Active; 'I' for Inactive)
    1  A    between atoms: C_5  and  C_17
    2  A    between atoms: C_5  and  O_23
    3  A    between atoms: C_6  and  C_31
    4  A    between atoms: C_11  and  C_26
    5  A    between atoms: C_17  and  C_26
    6  A    between atoms: C_26  and  O_33
    7  A    between atoms: O_33  and  C_36
                            x       y       z     vdW  Elec       q    Type
                         _______ _______ _______ _____ _____    ______ ____

>  <TORSDO>
F 7

$$$$
=
 OpenBabel11062409173D

 37 42  0  0  1  0  0  0  0  0999 V2000
  160.1970  202.4680  151.4680 C   0  0  0  0  0  2  0  0  0  0  0  0
  160.8190  206.5740  150.6160 C   0  0  1  0  0  3  0  0  0  0  0  0
  162.7220  207.7820  148.0280 C   0  0  1  0  0  3  0  0  0  0  0  0
  161.8630  204.4170  151.5920 C   0  0  1  0  0  3  0  0  0  0  0  0
  160.7170  207.0000  149.1290 C   0  0  1  0  0  3  0  0  0  0  0  0
  161.0260  205.0770  150.5070 C   0  0  2  0  0  3  0  0  0  0  0  0
  161.4310  208.2470  148.6490 C   0  0  1  0  0  3  0  0  0  0  0  0
  161.5680  205.0640  152.9300 C   0  0  0  0  0  2  0  0  0  0  0  0
  161.6770  204.8610  149.1750 C   0  0  1  0  0  3  0  0  0  0  0  0
  160.0960  202.8570  148.8890 C   0  0  0  0  0  3  0  0  0  0  0  0
  161.6010  208.6870  151.7700 C   0  0  0  0  0  2  0  0  0  0  0  0
  161.9850  206.5420  152.8980 C   0  0  0  0  0  2  0  0  0  0  0  0
  161.4650  203.4370  148.6410 C   0  0  0  0  0  2  0  0  0  0  0  0
  163.7270  207.6710  148.9910 O   0  0  0  0  0  1  0  0  0  0  0  0
  161.8970  207.2230  151.5140 C   0  0  1  0  0  3  0  0  0  0  0  0
  161.1920  205.8950  148.2750 N   0  0  2  0  0  0  0  0  0  0  0  0
  161.6650  202.8960  151.5910 C   0  0  0  0  0  2  0  0  0  0  0  0
  161.3620  209.5470  149.4570 C   0  0  1  0  0  3  0  0  0  0  0  0
  159.5920  202.4440  150.0730 C   0  0  0  0  0  3  0  0  0  0  0  0
  162.3580  206.3900  147.5270 C   0  0  1  0  0  3  0  0  0  0  0  0
  162.2300  209.5510  150.7010 C   0  0  0  0  0  2  0  0  0  0  0  0
  162.8240  211.4710  148.7060 C   0  0  0  0  0  3  0  0  0  0  0  0
  161.6280  210.7440  148.5970 C   0  0  0  0  0  0  0  0  0  0  0  0
  160.6730  211.1250  147.6490 C   0  0  0  0  0  3  0  0  0  0  0  0
  159.8830  212.6300  145.8190 C   0  0  0  0  0  1  0  0  0  0  0  0
  162.0940  212.9530  146.9370 C   0  0  0  0  0  3  0  0  0  0  0  0
  160.9020  212.2280  146.8220 C   0  0  0  0  0  0  0  0  0  0  0  0
  163.0540  212.5740  147.8790 C   0  0  0  0  0  3  0  0  0  0  0  0
  162.0410  206.4540  146.1670 O   0  0  0  0  0  0  0  0  0  0  0  0
  162.0160  205.1250  145.7250 C   0  0  2  0  0  3  0  0  0  0  0  0
  163.3760  204.7220  145.1590 C   0  0  0  0  0  2  0  0  0  0  0  0
  164.2290  203.9900  146.1820 C   0  0  0  0  0  1  0  0  0  0  0  0
  160.9210  204.9360  144.6830 C   0  0  0  0  0  2  0  0  0  0  0  0
  159.0330  203.4340  143.9210 C   0  0  0  0  0  1  0  0  0  0  0  0
  160.1030  203.6790  144.9780 C   0  0  1  0  0  3  0  0  0  0  0  0
  160.0850  201.3910  145.2030 C   0  0  0  0  0  1  0  0  0  0  0  0
  160.8970  202.5370  145.2370 O   0  0  0  0  0  0  0  0  0  0  0  0
  1 17  1  0  0  0  0
  2 15  1  0  0  0  0
  3  7  1  0  0  0  0
  3 14  1  0  0  0  0
  4  8  1  0  0  0  0
  5  2  1  0  0  0  0
  6  2  1  0  0  0  0
  6  4  1  0  0  0  0
  7  5  1  0  0  0  0
  7 18  1  0  0  0  0
  9  6  1  0  0  0  0
 10 19  2  0  0  0  0
 12  8  1  0  0  0  0
 13 10  1  0  0  0  0
 13  9  1  0  0  0  0
 15 11  1  0  0  0  0
 15 12  1  0  0  0  0
 16  5  1  0  0  0  0
 16  9  1  0  0  0  0
 17  4  1  0  0  0  0
 18 21  1  0  0  0  0
 19  1  1  0  0  0  0
 20  3  1  0  0  0  0
 20 16  1  0  0  0  0
 21 11  1  0  0  0  0
 23 22  1  0  0  0  0
 23 18  1  0  0  0  0
 24 23  2  0  0  0  0
 25 27  1  0  0  0  0
 26 28  1  0  0  0  0
 27 26  2  0  0  0  0
 27 24  1  0  0  0  0
 28 22  2  0  0  0  0
 29 20  1  0  0  0  0
 30 29  1  0  0  0  0
 31 30  1  0  0  0  0
 31 32  1  0  0  0  0
 33 35  1  0  0  0  0
 33 30  1  0  0  0  0
 34 35  1  0  0  0  0
 35 37  1  0  0  0  0
 36 37  1  0  0  0  0
M  END
>  <MODEL>
4

>  <REMARK>
 VINA RESULT:      -5.1      1.892      6.126
  Name = 
  7 active torsions:
  status: ('A' for Active; 'I' for Inactive)
    1  A    between atoms: C_5  and  C_17
    2  A    between atoms: C_5  and  O_23
    3  A    between atoms: C_6  and  C_31
    4  A    between atoms: C_11  and  C_26
    5  A    between atoms: C_17  and  C_26
    6  A    between atoms: C_26  and  O_33
    7  A    between atoms: O_33  and  C_36
                            x       y       z     vdW  Elec       q    Type
                         _______ _______ _______ _____ _____    ______ ____

>  <TORSDO>
F 7

$$$$
=
 OpenBabel11062409173D

 37 42  0  0  1  0  0  0  0  0999 V2000
  160.3560  207.4880  157.2610 C   0  0  0  0  0  2  0  0  0  0  0  0
  159.5960  210.5600  154.4390 C   0  0  1  0  0  3  0  0  0  0  0  0
  161.1150  210.8370  151.3740 C   0  0  1  0  0  3  0  0  0  0  0  0
  161.2540  209.6480  156.2050 C   0  0  1  0  0  3  0  0  0  0  0  0
  159.4370  210.1220  152.9600 C   0  0  1  0  0  3  0  0  0  0  0  0
  160.3030  209.3670  155.0500 C   0  0  2  0  0  3  0  0  0  0  0  0
  159.7120  211.1120  151.8460 C   0  0  1  0  0  3  0  0  0  0  0  0
  160.6850  210.7460  157.0800 C   0  0  0  0  0  2  0  0  0  0  0  0
  161.0600  208.7320  153.9240 C   0  0  1  0  0  3  0  0  0  0  0  0
  160.2690  206.4740  154.8580 C   0  0  0  0  0  3  0  0  0  0  0  0
  159.5530  213.0870  154.3030 C   0  0  0  0  0  2  0  0  0  0  0  0
  160.5780  212.0510  156.2770 C   0  0  0  0  0  2  0  0  0  0  0  0
  161.3720  207.2520  154.1870 C   0  0  0  0  0  2  0  0  0  0  0  0
  162.0440  211.5520  152.1320 O   0  0  0  0  0  1  0  0  0  0  0  0
  160.3400  211.8760  154.7610 C   0  0  1  0  0  3  0  0  0  0  0  0
  160.3030  208.9570  152.7030 N   0  0  2  0  0  0  0  0  0  0  0  0
  161.5830  208.3610  156.9730 C   0  0  0  0  0  2  0  0  0  0  0  0
  159.1620  212.5410  151.9170 C   0  0  1  0  0  3  0  0  0  0  0  0
  159.8710  206.5760  156.1440 C   0  0  0  0  0  3  0  0  0  0  0  0
  161.2720  209.3510  151.6680 C   0  0  1  0  0  3  0  0  0  0  0  0
  159.9100  213.4450  152.8790 C   0  0  0  0  0  2  0  0  0  0  0  0
  160.1940  213.5610  149.8430 C   0  0  0  0  0  3  0  0  0  0  0  0
  159.0540  213.1560  150.5550 C   0  0  0  0  0  0  0  0  0  0  0  0
  157.7900  213.3040  149.9750 C   0  0  0  0  0  3  0  0  0  0  0  0
  156.3160  214.0170  148.0900 C   0  0  0  0  0  1  0  0  0  0  0  0
  158.8000  214.2660  147.9950 C   0  0  0  0  0  3  0  0  0  0  0  0
  157.6610  213.8600  148.6990 C   0  0  0  0  0  0  0  0  0  0  0  0
  160.0660  214.1160  148.5670 C   0  0  0  0  0  3  0  0  0  0  0  0
  161.0260  208.6190  150.5030 O   0  0  0  0  0  0  0  0  0  0  0  0
  161.7200  207.4130  150.6650 C   0  0  2  0  0  3  0  0  0  0  0  0
  162.9300  207.3610  149.7350 C   0  0  0  0  0  2  0  0  0  0  0  0
  162.5600  207.6680  148.2930 C   0  0  0  0  0  1  0  0  0  0  0  0
  160.7930  206.2320  150.4080 C   0  0  0  0  0  2  0  0  0  0  0  0
  161.4310  204.3160  151.9340 C   0  0  0  0  0  1  0  0  0  0  0  0
  161.5510  204.9100  150.5350 C   0  0  1  0  0  3  0  0  0  0  0  0
  160.5520  202.8930  150.0680 C   0  0  0  0  0  1  0  0  0  0  0  0
  161.2440  203.9830  149.5120 O   0  0  0  0  0  0  0  0  0  0  0  0
  2 15  1  0  0  0  0
  2  6  1  0  0  0  0
  3 20  1  0  0  0  0
  3  7  1  0  0  0  0
  3 14  1  0  0  0  0
  4 17  1  0  0  0  0
  4  8  1  0  0  0  0
  5  2  1  0  0  0  0
  6  4  1  0  0  0  0
  7 18  1  0  0  0  0
  7  5  1  0  0  0  0
  9 13  1  0  0  0  0
  9  6  1  0  0  0  0
 10 19  2  0  0  0  0
 11 15  1  0  0  0  0
 12  8  1  0  0  0  0
 13 10  1  0  0  0  0
 15 12  1  0  0  0  0
 16  5  1  0  0  0  0
 16  9  1  0  0  0  0
 17  1  1  0  0  0  0
 18 21  1  0  0  0  0
 19  1  1  0  0  0  0
 20 16  1  0  0  0  0
 21 11  1  0  0  0  0
 22 23  1  0  0  0  0
 23 18  1  0  0  0  0
 24 23  2  0  0  0  0
 25 27  1  0  0  0  0
 26 28  1  0  0  0  0
 26 27  2  0  0  0  0
 27 24  1  0  0  0  0
 28 22  2  0  0  0  0
 29 30  1  0  0  0  0
 29 20  1  0  0  0  0
 31 30  1  0  0  0  0
 32 31  1  0  0  0  0
 33 35  1  0  0  0  0
 33 30  1  0  0  0  0
 35 34  1  0  0  0  0
 37 36  1  0  0  0  0
 37 35  1  0  0  0  0
M  END
>  <MODEL>
5

>  <REMARK>
 VINA RESULT:      -4.5      2.578      8.006
  Name = 
  7 active torsions:
  status: ('A' for Active; 'I' for Inactive)
    1  A    between atoms: C_5  and  C_17
    2  A    between atoms: C_5  and  O_23
    3  A    between atoms: C_6  and  C_31
    4  A    between atoms: C_11  and  C_26
    5  A    between atoms: C_17  and  C_26
    6  A    between atoms: C_26  and  O_33
    7  A    between atoms: O_33  and  C_36
                            x       y       z     vdW  Elec       q    Type
                         _______ _______ _______ _____ _____    ______ ____

>  <TORSDO>
F 7

$$$$
=
 OpenBabel11062409173D

 37 42  0  0  1  0  0  0  0  0999 V2000
  162.1040  209.4450  155.3250 C   0  0  0  0  0  2  0  0  0  0  0  0
  162.0780  206.7580  152.0460 C   0  0  1  0  0  3  0  0  0  0  0  0
  160.9510  207.5100  148.8920 C   0  0  1  0  0  3  0  0  0  0  0  0
  160.6410  207.9470  153.8410 C   0  0  1  0  0  3  0  0  0  0  0  0
  162.5630  207.3170  150.6840 C   0  0  1  0  0  3  0  0  0  0  0  0
  161.7660  208.0230  152.8180 C   0  0  2  0  0  3  0  0  0  0  0  0
  162.0980  206.6730  149.3940 C   0  0  1  0  0  3  0  0  0  0  0  0
  160.6740  206.6010  154.5360 C   0  0  0  0  0  2  0  0  0  0  0  0
  161.4270  209.0500  151.7810 C   0  0  1  0  0  3  0  0  0  0  0  0
  162.8390  210.6960  153.1560 C   0  0  0  0  0  3  0  0  0  0  0  0
  161.2450  204.4410  151.4560 C   0  0  0  0  0  2  0  0  0  0  0  0
  160.4130  205.4800  153.5180 C   0  0  0  0  0  2  0  0  0  0  0  0
  161.6250  210.4850  152.2870 C   0  0  0  0  0  2  0  0  0  0  0  0
  159.7440  207.0840  149.4490 O   0  0  0  0  0  1  0  0  0  0  0  0
  160.8850  205.7760  152.0770 C   0  0  1  0  0  3  0  0  0  0  0  0
  162.2020  208.7430  150.5890 N   0  0  2  0  0  0  0  0  0  0  0  0
  160.6940  209.1360  154.8070 C   0  0  0  0  0  2  0  0  0  0  0  0
  162.0960  205.1480  149.2380 C   0  0  1  0  0  3  0  0  0  0  0  0
  163.0130  210.2680  154.4250 C   0  0  0  0  0  3  0  0  0  0  0  0
  161.2930  208.8890  149.4410 C   0  0  1  0  0  3  0  0  0  0  0  0
  160.9650  204.4520  149.9720 C   0  0  0  0  0  2  0  0  0  0  0  0
  162.9140  205.4600  146.8640 C   0  0  0  0  0  3  0  0  0  0  0  0
  162.1490  204.7430  147.7970 C   0  0  0  0  0  0  0  0  0  0  0  0
  161.4400  203.6110  147.3830 C   0  0  0  0  0  3  0  0  0  0  0  0
  160.7280  201.9990  145.6140 C   0  0  0  0  0  1  0  0  0  0  0  0
  162.2450  203.9200  145.1200 C   0  0  0  0  0  3  0  0  0  0  0  0
  161.4850  203.2000  146.0470 C   0  0  0  0  0  0  0  0  0  0  0  0
  162.9600  205.0500  145.5280 C   0  0  0  0  0  3  0  0  0  0  0  0
  161.9230  209.6420  148.4460 O   0  0  0  0  0  0  0  0  0  0  0  0
  162.0030  210.9440  148.9550 C   0  0  2  0  0  3  0  0  0  0  0  0
  160.6690  211.6680  148.7870 C   0  0  0  0  0  2  0  0  0  0  0  0
  160.4290  212.6920  149.8860 C   0  0  0  0  0  1  0  0  0  0  0  0
  163.1230  211.7130  148.2670 C   0  0  0  0  0  2  0  0  0  0  0  0
  163.1070  214.2260  147.9690 C   0  0  0  0  0  1  0  0  0  0  0  0
  162.5620  212.8920  147.4720 C   0  0  1  0  0  3  0  0  0  0  0  0
  161.5140  213.2160  145.4510 C   0  0  0  0  0  1  0  0  0  0  0  0
  162.6800  212.7350  146.0710 O   0  0  0  0  0  0  0  0  0  0  0  0
  2 15  1  0  0  0  0
  2  6  1  0  0  0  0
  3  7  1  0  0  0  0
  3 20  1  0  0  0  0
  3 14  1  0  0  0  0
  4  8  1  0  0  0  0
  4 17  1  0  0  0  0
  5  2  1  0  0  0  0
  6  4  1  0  0  0  0
  7  5  1  0  0  0  0
  9 13  1  0  0  0  0
  9  6  1  0  0  0  0
 10 19  2  0  0  0  0
 11 15  1  0  0  0  0
 12  8  1  0  0  0  0
 13 10  1  0  0  0  0
 15 12  1  0  0  0  0
 16  5  1  0  0  0  0
 16  9  1  0  0  0  0
 17  1  1  0  0  0  0
 18  7  1  0  0  0  0
 18 21  1  0  0  0  0
 19  1  1  0  0  0  0
 20 16  1  0  0  0  0
 21 11  1  0  0  0  0
 22 23  1  0  0  0  0
 23 18  1  0  0  0  0
 24 23  2  0  0  0  0
 25 27  1  0  0  0  0
 26 28  1  0  0  0  0
 26 27  2  0  0  0  0
 27 24  1  0  0  0  0
 28 22  2  0  0  0  0
 29 30  1  0  0  0  0
 29 20  1  0  0  0  0
 31 30  1  0  0  0  0
 31 32  1  0  0  0  0
 33 30  1  0  0  0  0
 35 34  1  0  0  0  0
 35 33  1  0  0  0  0
 36 37  1  0  0  0  0
 37 35  1  0  0  0  0
M  END
>  <MODEL>
6

>  <REMARK>
 VINA RESULT:      -4.4      1.532      6.371
  Name = 
  7 active torsions:
  status: ('A' for Active; 'I' for Inactive)
    1  A    between atoms: C_5  and  C_17
    2  A    between atoms: C_5  and  O_23
    3  A    between atoms: C_6  and  C_31
    4  A    between atoms: C_11  and  C_26
    5  A    between atoms: C_17  and  C_26
    6  A    between atoms: C_26  and  O_33
    7  A    between atoms: O_33  and  C_36
                            x       y       z     vdW  Elec       q    Type
                         _______ _______ _______ _____ _____    ______ ____

>  <TORSDO>
F 7

$$$$
=
 OpenBabel11062409173D

 37 42  0  0  1  0  0  0  0  0999 V2000
  161.4560  200.1130  146.6760 C   0  0  0  0  0  2  0  0  0  0  0  0
  161.9900  204.2730  147.2980 C   0  0  1  0  0  3  0  0  0  0  0  0
  160.1200  206.2000  149.4360 C   0  0  1  0  0  3  0  0  0  0  0  0
  160.5240  202.4530  146.1840 C   0  0  1  0  0  3  0  0  0  0  0  0
  161.9490  204.7680  148.7670 C   0  0  1  0  0  3  0  0  0  0  0  0
  161.3150  202.9200  147.3980 C   0  0  2  0  0  3  0  0  0  0  0  0
  161.5810  206.2050  149.0690 C   0  0  1  0  0  3  0  0  0  0  0  0
  161.2400  202.8720  144.9170 C   0  0  0  0  0  2  0  0  0  0  0  0
  160.4000  203.0170  148.5810 C   0  0  1  0  0  3  0  0  0  0  0  0
  161.2060  200.6620  149.2150 C   0  0  0  0  0  3  0  0  0  0  0  0
  162.1190  206.4220  145.9670 C   0  0  0  0  0  2  0  0  0  0  0  0
  161.3020  204.4050  144.8330 C   0  0  0  0  0  2  0  0  0  0  0  0
  160.0620  201.6430  149.1770 C   0  0  0  0  0  2  0  0  0  0  0  0
  159.3210  206.3160  148.2970 O   0  0  0  0  0  1  0  0  0  0  0  0
  161.3450  205.1380  146.1920 C   0  0  1  0  0  3  0  0  0  0  0  0
  161.0110  203.9290  149.5360 N   0  0  2  0  0  0  0  0  0  0  0  0
  160.2400  200.9480  146.2580 C   0  0  0  0  0  2  0  0  0  0  0  0
  162.1930  207.3560  148.2620 C   0  0  1  0  0  3  0  0  0  0  0  0
  161.7620  200.0230  148.1630 C   0  0  0  0  0  3  0  0  0  0  0  0
  159.9400  204.8080  150.0290 C   0  0  1  0  0  3  0  0  0  0  0  0
  161.6060  207.5170  146.8720 C   0  0  0  0  0  2  0  0  0  0  0  0
  162.3310  208.6700  150.4200 C   0  0  0  0  0  3  0  0  0  0  0  0
  162.1590  208.6430  149.0270 C   0  0  0  0  0  0  0  0  0  0  0  0
  161.9760  209.8420  148.3310 C   0  0  0  0  0  3  0  0  0  0  0  0
  161.7590  212.3290  148.2730 C   0  0  0  0  0  1  0  0  0  0  0  0
  162.1240  211.0820  150.4060 C   0  0  0  0  0  3  0  0  0  0  0  0
  161.9560  211.0600  149.0180 C   0  0  0  0  0  0  0  0  0  0  0  0
  162.3120  209.8870  151.1070 C   0  0  0  0  0  3  0  0  0  0  0  0
  160.0110  204.8850  151.4230 O   0  0  0  0  0  0  0  0  0  0  0  0
  161.2900  204.4240  151.7590 C   0  0  2  0  0  3  0  0  0  0  0  0
  161.2080  203.0500  152.4220 C   0  0  0  0  0  2  0  0  0  0  0  0
  162.3480  202.1380  151.9980 C   0  0  0  0  0  1  0  0  0  0  0  0
  161.9890  205.4220  152.6720 C   0  0  0  0  0  2  0  0  0  0  0  0
  161.2070  206.2040  154.9480 C   0  0  0  0  0  1  0  0  0  0  0  0
  160.9680  206.2580  153.4440 C   0  0  1  0  0  3  0  0  0  0  0  0
  160.8310  208.4760  154.0320 C   0  0  0  0  0  1  0  0  0  0  0  0
  160.8320  207.5770  152.9520 O   0  0  0  0  0  0  0  0  0  0  0  0
  1 19  1  0  0  0  0
  2  6  1  0  0  0  0
  2  5  1  0  0  0  0
  3 20  1  0  0  0  0
  4 17  1  0  0  0  0
  4  6  1  0  0  0  0
  5  7  1  0  0  0  0
  5 16  1  0  0  0  0
  6  9  1  0  0  0  0
  7  3  1  0  0  0  0
  8  4  1  0  0  0  0
  9 13  1  0  0  0  0
  9 16  1  0  0  0  0
 11 15  1  0  0  0  0
 11 21  1  0  0  0  0
 12  8  1  0  0  0  0
 12 15  1  0  0  0  0
 13 10  1  0  0  0  0
 14  3  1  0  0  0  0
 15  2  1  0  0  0  0
 16 20  1  0  0  0  0
 17  1  1  0  0  0  0
 18 23  1  0  0  0  0
 18  7  1  0  0  0  0
 19 10  2  0  0  0  0
 20 29  1  0  0  0  0
 21 18  1  0  0  0  0
 22 28  1  0  0  0  0
 23 22  2  0  0  0  0
 24 27  2  0  0  0  0
 24 23  1  0  0  0  0
 25 27  1  0  0  0  0
 26 28  2  0  0  0  0
 27 26  1  0  0  0  0
 29 30  1  0  0  0  0
 30 31  1  0  0  0  0
 30 33  1  0  0  0  0
 32 31  1  0  0  0  0
 33 35  1  0  0  0  0
 35 34  1  0  0  0  0
 37 35  1  0  0  0  0
 37 36  1  0  0  0  0
M  END
>  <MODEL>
7

>  <REMARK>
 VINA RESULT:      -4.4      1.917      5.455
  Name = 
  7 active torsions:
  status: ('A' for Active; 'I' for Inactive)
    1  A    between atoms: C_5  and  C_17
    2  A    between atoms: C_5  and  O_23
    3  A    between atoms: C_6  and  C_31
    4  A    between atoms: C_11  and  C_26
    5  A    between atoms: C_17  and  C_26
    6  A    between atoms: C_26  and  O_33
    7  A    between atoms: O_33  and  C_36
                            x       y       z     vdW  Elec       q    Type
                         _______ _______ _______ _____ _____    ______ ____

>  <TORSDO>
F 7

$$$$
