=
 OpenBabel11052422433D

 31 34  0  0  1  0  0  0  0  0999 V2000
  160.7810  208.4470  154.4970 C   0  0  1  0  0  3  0  0  0  0  0  0
  161.8790  207.2370  151.0640 C   0  0  0  0  0  0  0  0  0  0  0  0
  161.6340  205.7650  151.0180 C   0  0  0  0  0  0  0  0  0  0  0  0
  161.6370  203.5660  152.0240 C   0  0  0  0  0  3  0  0  0  0  0  0
  161.7480  207.9920  152.1880 C   0  0  0  0  0  0  0  0  0  0  0  0
  160.4480  209.7580  153.8100 C   0  0  0  0  0  2  0  0  0  0  0  0
  161.8720  204.9370  152.1220 C   0  0  0  0  0  3  0  0  0  0  0  0
  162.1920  209.4100  149.6860 C   0  0  1  0  0  3  0  0  0  0  0  0
  159.6810  207.9930  155.2000 F   0  0  0  0  0  0  0  0  0  0  0  0
  161.0430  206.0340  148.5630 C   0  0  0  0  0  2  0  0  0  0  0  0
  161.1920  203.0320  150.8570 N   0  0  0  0  0  0  0  0  0  0  0  0
  161.4230  210.0770  150.8140 C   0  0  0  0  0  2  0  0  0  0  0  0
  162.0110  207.8780  149.6910 C   0  0  2  0  0  3  0  0  0  0  0  0
  161.1920  207.4040  153.4640 C   0  0  0  0  0  2  0  0  0  0  0  0
  160.4990  203.1340  148.5050 C   0  0  0  0  0  1  0  0  0  0  0  0
  161.9790  209.4960  152.1000 C   0  0  1  0  0  3  0  0  0  0  0  0
  161.6230  210.2680  153.2340 O   0  0  0  0  0  0  0  0  0  0  0  0
  160.8710  207.4540  148.8780 N   0  0  0  0  0  2  0  0  0  0  0  0
  161.1840  205.1860  149.8100 C   0  0  0  0  0  0  0  0  0  0  0  0
  160.9670  203.7980  149.7570 C   0  0  0  0  0  0  0  0  0  0  0  0
  161.8840  210.0430  148.3320 C   0  0  0  0  0  2  0  0  0  0  0  0
  163.4470  211.9330  148.3700 C   0  0  0  0  0  2  0  0  0  0  0  0
  162.1810  211.5080  148.3420 C   0  0  0  0  0  0  0  0  0  0  0  0
  161.4880  213.7400  148.8410 O   0  0  0  0  0  1  0  0  0  0  0  0
  161.0370  212.4700  148.4680 C   0  0  1  0  0  3  0  0  0  0  0  0
  161.0000  212.8610  146.0910 O   0  0  0  0  0  1  0  0  0  0  0  0
  160.2000  212.5290  147.1870 C   0  0  2  0  0  3  0  0  0  0  0  0
  159.0750  213.5450  147.3200 C   0  0  0  0  0  2  0  0  0  0  0  0
  157.7550  212.8570  147.4130 C   0  0  0  0  0  0  0  0  0  0  0  0
  157.2190  212.2290  146.2970 O   0  0  0  0  0  0  0  0  0  0  0  0
  157.1410  212.8220  148.5100 O   0  0  0  0  0  1  0  0  0  0  0  0
  1  9  1  6  0  0  0
  2  5  2  0  0  0  0
  3  2  1  0  0  0  0
  3  7  1  0  0  0  0
  4  7  2  0  0  0  0
  5 14  1  0  0  0  0
  6  1  1  0  0  0  0
  8 21  1  6  0  0  0
  8 13  1  0  0  0  0
  8 12  1  0  0  0  0
 10 18  1  0  0  0  0
 10 19  1  0  0  0  0
 11  4  1  0  0  0  0
 13 18  1  6  0  0  0
 13  2  1  0  0  0  0
 14  1  1  0  0  0  0
 15 20  1  0  0  0  0
 16 12  1  6  0  0  0
 16  5  1  0  0  0  0
 16 17  1  0  0  0  0
 17  6  1  0  0  0  0
 19  3  2  0  0  0  0
 20 19  1  0  0  0  0
 20 11  2  0  0  0  0
 21 23  1  0  0  0  0
 23 22  2  0  0  0  0
 23 25  1  0  0  0  0
 25 24  1  6  0  0  0
 27 26  1  6  0  0  0
 27 28  1  0  0  0  0
 27 25  1  0  0  0  0
 28 29  1  0  0  0  0
 29 31  1  0  0  0  0
 30 29  2  0  0  0  0
M  END
>  <MODEL>
1

>  <REMARK>
 VINA RESULT:      -7.6      0.000      0.000
  Name = 
  6 active torsions:
  status: ('A' for Active; 'I' for Inactive)
    1  A    between atoms: C_1  and  C_24
    2  A    between atoms: C_9  and  C_22
    3  A    between atoms: C_9  and  C_23
    4  A    between atoms: C_15  and  C_23
    5  A    between atoms: C_19  and  C_22
    6  A    between atoms: C_19  and  C_24
                            x       y       z     vdW  Elec       q    Type
                         _______ _______ _______ _____ _____    ______ ____

>  <TORSDO>
F 6

$$$$
=
 OpenBabel11052422433D

 31 34  0  0  1  0  0  0  0  0999 V2000
  161.4550  202.1540  151.6460 C   0  0  1  0  0  3  0  0  0  0  0  0
  160.8130  205.7610  150.6280 C   0  0  0  0  0  0  0  0  0  0  0  0
  160.9960  206.6010  151.8470 C   0  0  0  0  0  0  0  0  0  0  0  0
  160.7490  207.0080  154.2190 C   0  0  0  0  0  3  0  0  0  0  0  0
  160.8130  204.4000  150.6370 C   0  0  0  0  0  0  0  0  0  0  0  0
  161.9420  201.9520  150.2230 C   0  0  0  0  0  2  0  0  0  0  0  0
  160.5640  206.1810  153.1120 C   0  0  0  0  0  3  0  0  0  0  0  0
  160.8000  205.7050  148.0360 C   0  0  1  0  0  3  0  0  0  0  0  0
  162.4200  201.7260  152.5370 F   0  0  0  0  0  0  0  0  0  0  0  0
  161.9480  208.4120  150.3430 C   0  0  0  0  0  2  0  0  0  0  0  0
  161.3350  208.2240  154.0700 N   0  0  0  0  0  0  0  0  0  0  0  0
  161.4260  204.3290  148.1960 C   0  0  0  0  0  2  0  0  0  0  0  0
  160.9090  206.5430  149.3260 C   0  0  2  0  0  3  0  0  0  0  0  0
  161.1510  203.6280  151.8910 C   0  0  0  0  0  2  0  0  0  0  0  0
  162.3650  210.0350  152.7730 C   0  0  0  0  0  1  0  0  0  0  0  0
  160.6640  203.6510  149.3180 C   0  0  1  0  0  3  0  0  0  0  0  0
  160.8870  202.2520  149.3460 O   0  0  0  0  0  0  0  0  0  0  0  0
  162.1350  207.3400  149.3630 N   0  0  0  0  0  2  0  0  0  0  0  0
  161.5900  207.8760  151.7140 C   0  0  0  0  0  0  0  0  0  0  0  0
  161.7510  208.6780  152.8580 C   0  0  0  0  0  0  0  0  0  0  0  0
  161.3280  206.4330  146.8040 C   0  0  0  0  0  2  0  0  0  0  0  0
  162.9860  204.9710  145.7400 C   0  0  0  0  0  2  0  0  0  0  0  0
  161.7450  205.4650  145.7430 C   0  0  0  0  0  0  0  0  0  0  0  0
  161.2720  205.7150  143.4140 O   0  0  0  0  0  1  0  0  0  0  0  0
  160.7960  205.1840  144.6170 C   0  0  1  0  0  3  0  0  0  0  0  0
  159.1610  203.4840  144.1230 O   0  0  0  0  0  1  0  0  0  0  0  0
  160.4940  203.6880  144.4870 C   0  0  2  0  0  3  0  0  0  0  0  0
  160.7810  202.9610  145.7920 C   0  0  0  0  0  2  0  0  0  0  0  0
  160.5910  201.4910  145.6280 C   0  0  0  0  0  0  0  0  0  0  0  0
  161.1130  200.6140  146.5690 O   0  0  0  0  0  1  0  0  0  0  0  0
  159.9330  201.0480  144.6520 O   0  0  0  0  0  0  0  0  0  0  0  0
  1 14  1  0  0  0  0
  1  9  1  1  0  0  0
  2  5  2  0  0  0  0
  2  3  1  0  0  0  0
  3  7  1  0  0  0  0
  5 14  1  0  0  0  0
  6  1  1  0  0  0  0
  7  4  2  0  0  0  0
  8 21  1  6  0  0  0
  8 12  1  0  0  0  0
  8 13  1  0  0  0  0
 10 19  1  0  0  0  0
 11  4  1  0  0  0  0
 13 18  1  6  0  0  0
 13  2  1  0  0  0  0
 15 20  1  0  0  0  0
 16 12  1  6  0  0  0
 16 17  1  0  0  0  0
 16  5  1  0  0  0  0
 17  6  1  0  0  0  0
 18 10  1  0  0  0  0
 19  3  2  0  0  0  0
 19 20  1  0  0  0  0
 20 11  2  0  0  0  0
 22 23  2  0  0  0  0
 23 21  1  0  0  0  0
 25 24  1  6  0  0  0
 25 23  1  0  0  0  0
 27 26  1  1  0  0  0
 27 25  1  0  0  0  0
 27 28  1  0  0  0  0
 29 28  1  0  0  0  0
 29 30  1  0  0  0  0
 31 29  2  0  0  0  0
M  END
>  <MODEL>
2

>  <REMARK>
 VINA RESULT:      -7.2      4.671      7.212
  Name = 
  6 active torsions:
  status: ('A' for Active; 'I' for Inactive)
    1  A    between atoms: C_1  and  C_24
    2  A    between atoms: C_9  and  C_22
    3  A    between atoms: C_9  and  C_23
    4  A    between atoms: C_15  and  C_23
    5  A    between atoms: C_19  and  C_22
    6  A    between atoms: C_19  and  C_24
                            x       y       z     vdW  Elec       q    Type
                         _______ _______ _______ _____ _____    ______ ____

>  <TORSDO>
F 6

$$$$
=
 OpenBabel11052422433D

 31 34  0  0  1  0  0  0  0  0999 V2000
  162.1530  209.6590  148.7930 C   0  0  1  0  0  3  0  0  0  0  0  0
  160.9100  207.1320  151.3480 C   0  0  0  0  0  0  0  0  0  0  0  0
  160.9500  205.7910  150.6960 C   0  0  0  0  0  0  0  0  0  0  0  0
  160.6400  204.3310  148.7920 C   0  0  0  0  0  3  0  0  0  0  0  0
  161.1410  208.3020  150.6930 C   0  0  0  0  0  0  0  0  0  0  0  0
  162.6660  210.4480  149.9820 C   0  0  0  0  0  2  0  0  0  0  0  0
  160.5970  205.6070  149.3520 C   0  0  0  0  0  3  0  0  0  0  0  0
  160.9050  208.4350  153.5890 C   0  0  1  0  0  3  0  0  0  0  0  0
  163.1770  209.4550  147.8880 F   0  0  0  0  0  0  0  0  0  0  0  0
  161.5810  204.8140  152.9530 C   0  0  0  0  0  2  0  0  0  0  0  0
  161.0120  203.2660  149.5490 N   0  0  0  0  0  0  0  0  0  0  0  0
  161.7540  209.4520  152.8460 C   0  0  0  0  0  2  0  0  0  0  0  0
  160.8720  207.0720  152.8680 C   0  0  2  0  0  3  0  0  0  0  0  0
  161.6050  208.3130  149.2540 C   0  0  0  0  0  2  0  0  0  0  0  0
  161.7190  202.1780  151.6320 C   0  0  0  0  0  1  0  0  0  0  0  0
  161.1190  209.6080  151.4780 C   0  0  1  0  0  3  0  0  0  0  0  0
  161.5750  210.7690  150.8060 O   0  0  0  0  0  0  0  0  0  0  0  0
  161.9460  206.1850  153.3160 N   0  0  0  0  0  2  0  0  0  0  0  0
  161.3200  204.6670  151.4680 C   0  0  0  0  0  0  0  0  0  0  0  0
  161.3440  203.3980  150.8610 C   0  0  0  0  0  0  0  0  0  0  0  0
  161.3020  208.3230  155.0590 C   0  0  0  0  0  2  0  0  0  0  0  0
  159.3320  207.3350  156.1350 C   0  0  0  0  0  2  0  0  0  0  0  0
  160.1030  208.4090  155.9490 C   0  0  0  0  0  0  0  0  0  0  0  0
  160.8330  210.4350  156.9840 O   0  0  0  0  0  1  0  0  0  0  0  0
  159.7150  209.7490  156.5000 C   0  0  1  0  0  3  0  0  0  0  0  0
  159.7780  211.5550  154.9070 O   0  0  0  0  0  1  0  0  0  0  0  0
  158.9470  210.5850  155.4730 C   0  0  2  0  0  3  0  0  0  0  0  0
  157.7430  211.2600  156.1140 C   0  0  0  0  0  2  0  0  0  0  0  0
  156.5880  211.2790  155.1710 C   0  0  0  0  0  0  0  0  0  0  0  0
  155.5810  210.3300  155.2860 O   0  0  0  0  0  1  0  0  0  0  0  0
  156.5110  212.1730  154.2890 O   0  0  0  0  0  0  0  0  0  0  0  0
  1  9  1  6  0  0  0
  1 14  1  0  0  0  0
  1  6  1  0  0  0  0
  3  2  1  0  0  0  0
  3 19  1  0  0  0  0
  4  7  1  0  0  0  0
  4 11  2  0  0  0  0
  5  2  2  0  0  0  0
  5 16  1  0  0  0  0
  6 17  1  0  0  0  0
  7  3  2  0  0  0  0
  8 21  1  1  0  0  0
 10 18  1  0  0  0  0
 11 20  1  0  0  0  0
 12  8  1  0  0  0  0
 13  2  1  6  0  0  0
 13 18  1  0  0  0  0
 13  8  1  0  0  0  0
 14  5  1  0  0  0  0
 16 12  1  1  0  0  0
 17 16  1  0  0  0  0
 19 10  1  0  0  0  0
 20 19  2  0  0  0  0
 20 15  1  0  0  0  0
 21 23  1  0  0  0  0
 23 22  2  0  0  0  0
 23 25  1  0  0  0  0
 25 24  1  6  0  0  0
 27 26  1  1  0  0  0
 27 28  1  0  0  0  0
 27 25  1  0  0  0  0
 29 30  1  0  0  0  0
 29 28  1  0  0  0  0
 31 29  2  0  0  0  0
M  END
>  <MODEL>
3

>  <REMARK>
 VINA RESULT:      -6.8      3.172      5.867
  Name = 
  6 active torsions:
  status: ('A' for Active; 'I' for Inactive)
    1  A    between atoms: C_1  and  C_24
    2  A    between atoms: C_9  and  C_22
    3  A    between atoms: C_9  and  C_23
    4  A    between atoms: C_15  and  C_23
    5  A    between atoms: C_19  and  C_22
    6  A    between atoms: C_19  and  C_24
                            x       y       z     vdW  Elec       q    Type
                         _______ _______ _______ _____ _____    ______ ____

>  <TORSDO>
F 6

$$$$
=
 OpenBabel11052422433D

 31 34  0  0  1  0  0  0  0  0999 V2000
  162.1110  209.6050  148.8600 C   0  0  1  0  0  3  0  0  0  0  0  0
  160.8560  207.0810  151.4100 C   0  0  0  0  0  0  0  0  0  0  0  0
  160.9160  205.7370  150.7650 C   0  0  0  0  0  0  0  0  0  0  0  0
  160.6440  204.2650  148.8650 C   0  0  0  0  0  3  0  0  0  0  0  0
  161.0850  208.2490  150.7520 C   0  0  0  0  0  0  0  0  0  0  0  0
  162.6010  210.4050  150.0520 C   0  0  0  0  0  2  0  0  0  0  0  0
  160.5820  205.5430  149.4180 C   0  0  0  0  0  3  0  0  0  0  0  0
  160.8090  208.3930  153.6450 C   0  0  1  0  0  3  0  0  0  0  0  0
  163.1490  209.4060  147.9700 F   0  0  0  0  0  0  0  0  0  0  0  0
  161.5250  204.7750  153.0350 C   0  0  0  0  0  2  0  0  0  0  0  0
  161.0150  203.2070  149.6320 N   0  0  0  0  0  0  0  0  0  0  0  0
  161.6600  209.4140  152.9080 C   0  0  0  0  0  2  0  0  0  0  0  0
  160.7980  207.0270  152.9300 C   0  0  2  0  0  3  0  0  0  0  0  0
  161.5690  208.2570  149.3210 C   0  0  0  0  0  2  0  0  0  0  0  0
  161.7040  202.1350  151.7290 C   0  0  0  0  0  1  0  0  0  0  0  0
  161.0420  209.5590  151.5310 C   0  0  1  0  0  3  0  0  0  0  0  0
  161.4970  210.7200  150.8600 O   0  0  0  0  0  0  0  0  0  0  0  0
  161.8730  206.1510  153.3960 N   0  0  0  0  0  2  0  0  0  0  0  0
  161.2850  204.6190  151.5480 C   0  0  0  0  0  0  0  0  0  0  0  0
  161.3280  203.3480  150.9470 C   0  0  0  0  0  0  0  0  0  0  0  0
  161.1870  208.2920  155.1200 C   0  0  0  0  0  2  0  0  0  0  0  0
  162.1390  210.1380  156.4250 C   0  0  0  0  0  2  0  0  0  0  0  0
  161.0810  209.6220  155.7970 C   0  0  0  0  0  0  0  0  0  0  0  0
  159.3840  210.5460  157.2020 O   0  0  0  0  0  1  0  0  0  0  0  0
  159.7350  210.2790  155.8750 C   0  0  1  0  0  3  0  0  0  0  0  0
  159.4110  212.6650  155.8060 O   0  0  0  0  0  1  0  0  0  0  0  0
  159.6680  211.5430  155.0140 C   0  0  2  0  0  3  0  0  0  0  0  0
  158.5910  211.4180  153.9470 C   0  0  0  0  0  2  0  0  0  0  0  0
  158.5550  212.6380  153.0910 C   0  0  0  0  0  0  0  0  0  0  0  0
  159.6830  213.0190  152.3770 O   0  0  0  0  0  0  0  0  0  0  0  0
  157.4930  213.3050  152.9920 O   0  0  0  0  0  1  0  0  0  0  0  0
  1  9  1  6  0  0  0
  1 14  1  0  0  0  0
  1  6  1  0  0  0  0
  3  2  1  0  0  0  0
  3 19  1  0  0  0  0
  4  7  1  0  0  0  0
  4 11  2  0  0  0  0
  5  2  2  0  0  0  0
  5 16  1  0  0  0  0
  6 17  1  0  0  0  0
  7  3  2  0  0  0  0
  8 21  1  1  0  0  0
 10 18  1  0  0  0  0
 11 20  1  0  0  0  0
 12  8  1  0  0  0  0
 13  2  1  6  0  0  0
 13 18  1  0  0  0  0
 13  8  1  0  0  0  0
 14  5  1  0  0  0  0
 16 12  1  1  0  0  0
 17 16  1  0  0  0  0
 19 10  1  0  0  0  0
 20 19  2  0  0  0  0
 20 15  1  0  0  0  0
 21 23  1  0  0  0  0
 23 25  1  0  0  0  0
 23 22  2  0  0  0  0
 25 24  1  1  0  0  0
 27 26  1  1  0  0  0
 27 25  1  0  0  0  0
 28 27  1  0  0  0  0
 29 28  1  0  0  0  0
 30 29  2  0  0  0  0
 31 29  1  0  0  0  0
M  END
>  <MODEL>
4

>  <REMARK>
 VINA RESULT:      -6.7      3.135      5.394
  Name = 
  6 active torsions:
  status: ('A' for Active; 'I' for Inactive)
    1  A    between atoms: C_1  and  C_24
    2  A    between atoms: C_9  and  C_22
    3  A    between atoms: C_9  and  C_23
    4  A    between atoms: C_15  and  C_23
    5  A    between atoms: C_19  and  C_22
    6  A    between atoms: C_19  and  C_24
                            x       y       z     vdW  Elec       q    Type
                         _______ _______ _______ _____ _____    ______ ____

>  <TORSDO>
F 6

$$$$
=
 OpenBabel11052422433D

 31 34  0  0  1  0  0  0  0  0999 V2000
  161.9560  210.2240  149.1360 C   0  0  1  0  0  3  0  0  0  0  0  0
  162.0400  208.0960  152.2850 C   0  0  0  0  0  0  0  0  0  0  0  0
  161.6010  208.9650  153.4160 C   0  0  0  0  0  0  0  0  0  0  0  0
  161.5560  211.0770  154.5940 C   0  0  0  0  0  3  0  0  0  0  0  0
  162.2790  208.5520  151.0260 C   0  0  0  0  0  0  0  0  0  0  0  0
  161.6440  208.9340  148.4020 C   0  0  0  0  0  2  0  0  0  0  0  0
  161.9840  210.3100  153.5120 C   0  0  0  0  0  3  0  0  0  0  0  0
  162.2980  205.6680  151.4140 C   0  0  1  0  0  3  0  0  0  0  0  0
  161.0050  211.1800  148.8320 F   0  0  0  0  0  0  0  0  0  0  0  0
  160.4850  206.9230  154.4320 C   0  0  0  0  0  2  0  0  0  0  0  0
  160.7800  210.5210  155.5600 N   0  0  0  0  0  0  0  0  0  0  0  0
  161.9130  206.2540  150.0660 C   0  0  0  0  0  2  0  0  0  0  0  0
  161.9260  206.6080  152.5790 C   0  0  2  0  0  3  0  0  0  0  0  0
  161.9710  209.9800  150.6410 C   0  0  0  0  0  2  0  0  0  0  0  0
  159.5690  208.6720  156.6260 C   0  0  0  0  0  1  0  0  0  0  0  0
  162.6780  207.5570  149.9420 C   0  0  1  0  0  3  0  0  0  0  0  0
  162.7040  208.0380  148.6090 O   0  0  0  0  0  0  0  0  0  0  0  0
  160.5800  206.3460  153.0900 N   0  0  0  0  0  2  0  0  0  0  0  0
  160.8060  208.4040  154.4400 C   0  0  0  0  0  0  0  0  0  0  0  0
  160.4030  209.2160  155.5150 C   0  0  0  0  0  0  0  0  0  0  0  0
  161.7630  204.2500  151.5950 C   0  0  0  0  0  2  0  0  0  0  0  0
  159.7040  204.5140  150.2890 C   0  0  0  0  0  2  0  0  0  0  0  0
  160.8580  203.8680  150.4680 C   0  0  0  0  0  0  0  0  0  0  0  0
  160.5690  201.5190  150.1390 O   0  0  0  0  0  1  0  0  0  0  0  0
  161.2070  202.6620  149.6470 C   0  0  1  0  0  3  0  0  0  0  0  0
  160.8440  201.6530  147.4900 O   0  0  0  0  0  1  0  0  0  0  0  0
  160.9020  202.8760  148.1620 C   0  0  2  0  0  3  0  0  0  0  0  0
  161.9560  203.7620  147.5140 C   0  0  0  0  0  2  0  0  0  0  0  0
  161.3570  204.5770  146.4190 C   0  0  0  0  0  0  0  0  0  0  0  0
  161.1970  204.0300  145.1530 O   0  0  0  0  0  0  0  0  0  0  0  0
  160.9690  205.7510  146.6510 O   0  0  0  0  0  1  0  0  0  0  0  0
  1  9  1  1  0  0  0
  1 14  1  0  0  0  0
  2  3  1  0  0  0  0
  3  7  2  0  0  0  0
  3 19  1  0  0  0  0
  4 11  2  0  0  0  0
  5  2  2  0  0  0  0
  6 17  1  0  0  0  0
  6  1  1  0  0  0  0
  7  4  1  0  0  0  0
  8 21  1  1  0  0  0
  8 13  1  0  0  0  0
 10 19  1  0  0  0  0
 12  8  1  0  0  0  0
 13  2  1  6  0  0  0
 13 18  1  0  0  0  0
 14  5  1  0  0  0  0
 16 12  1  6  0  0  0
 16  5  1  0  0  0  0
 17 16  1  0  0  0  0
 18 10  1  0  0  0  0
 19 20  2  0  0  0  0
 20 11  1  0  0  0  0
 20 15  1  0  0  0  0
 22 23  2  0  0  0  0
 23 21  1  0  0  0  0
 25 24  1  1  0  0  0
 25 23  1  0  0  0  0
 27 26  1  6  0  0  0
 27 25  1  0  0  0  0
 28 27  1  0  0  0  0
 29 31  1  0  0  0  0
 29 28  1  0  0  0  0
 30 29  2  0  0  0  0
M  END
>  <MODEL>
5

>  <REMARK>
 VINA RESULT:      -6.4      4.085      7.280
  Name = 
  6 active torsions:
  status: ('A' for Active; 'I' for Inactive)
    1  A    between atoms: C_1  and  C_24
    2  A    between atoms: C_9  and  C_22
    3  A    between atoms: C_9  and  C_23
    4  A    between atoms: C_15  and  C_23
    5  A    between atoms: C_19  and  C_22
    6  A    between atoms: C_19  and  C_24
                            x       y       z     vdW  Elec       q    Type
                         _______ _______ _______ _____ _____    ______ ____

>  <TORSDO>
F 6

$$$$
=
 OpenBabel11052422433D

 31 34  0  0  1  0  0  0  0  0999 V2000
  161.1730  204.5920  151.0180 C   0  0  1  0  0  3  0  0  0  0  0  0
  160.9990  208.2100  152.1730 C   0  0  0  0  0  0  0  0  0  0  0  0
  160.9520  208.1940  153.6640 C   0  0  0  0  0  0  0  0  0  0  0  0
  160.1990  207.2680  155.7680 C   0  0  0  0  0  3  0  0  0  0  0  0
  160.9140  207.0950  151.3990 C   0  0  0  0  0  0  0  0  0  0  0  0
  161.9570  205.1210  149.8310 C   0  0  0  0  0  2  0  0  0  0  0  0
  160.2200  207.2340  154.3750 C   0  0  0  0  0  3  0  0  0  0  0  0
  161.5690  209.5900  150.0540 C   0  0  1  0  0  3  0  0  0  0  0  0
  161.8830  203.5810  151.6360 F   0  0  0  0  0  0  0  0  0  0  0  0
  162.3280  210.3280  153.6390 C   0  0  0  0  0  2  0  0  0  0  0  0
  160.8760  208.2380  156.4360 N   0  0  0  0  0  0  0  0  0  0  0  0
  162.0580  208.2670  149.4870 C   0  0  0  0  0  2  0  0  0  0  0  0
  161.4340  209.5460  151.5900 C   0  0  2  0  0  3  0  0  0  0  0  0
  160.9120  205.7150  152.0160 C   0  0  0  0  0  2  0  0  0  0  0  0
  162.2810  210.2450  156.5880 C   0  0  0  0  0  1  0  0  0  0  0  0
  161.0220  207.2340  149.8850 C   0  0  1  0  0  3  0  0  0  0  0  0
  161.1480  206.0360  149.1380 O   0  0  0  0  0  0  0  0  0  0  0  0
  162.6660  209.9580  152.2630 N   0  0  0  0  0  2  0  0  0  0  0  0
  161.6360  209.2020  154.3800 C   0  0  0  0  0  0  0  0  0  0  0  0
  161.5820  209.2000  155.7850 C   0  0  0  0  0  0  0  0  0  0  0  0
  162.4060  210.7670  149.5610 C   0  0  0  0  0  2  0  0  0  0  0  0
  160.8170  212.6120  149.8530 C   0  0  0  0  0  2  0  0  0  0  0  0
  161.5380  211.8580  149.0200 C   0  0  0  0  0  0  0  0  0  0  0  0
  160.0940  212.3920  147.1920 O   0  0  0  0  0  1  0  0  0  0  0  0
  161.3870  211.9820  147.5330 C   0  0  1  0  0  3  0  0  0  0  0  0
  162.9750  213.7540  147.9080 O   0  0  0  0  0  1  0  0  0  0  0  0
  162.4450  212.9100  146.9290 C   0  0  2  0  0  3  0  0  0  0  0  0
  161.8550  213.7470  145.8040 C   0  0  0  0  0  2  0  0  0  0  0  0
  162.2670  213.2070  144.4760 C   0  0  0  0  0  0  0  0  0  0  0  0
  161.3290  212.6030  143.6500 O   0  0  0  0  0  0  0  0  0  0  0  0
  163.4590  213.3260  144.0930 O   0  0  0  0  0  1  0  0  0  0  0  0
  1  9  1  1  0  0  0
  1 14  1  0  0  0  0
  2  3  1  0  0  0  0
  3  7  2  0  0  0  0
  3 19  1  0  0  0  0
  4 11  2  0  0  0  0
  5 14  1  0  0  0  0
  5  2  2  0  0  0  0
  6  1  1  0  0  0  0
  7  4  1  0  0  0  0
  8 21  1  1  0  0  0
  8 13  1  0  0  0  0
 10 19  1  0  0  0  0
 12  8  1  0  0  0  0
 13  2  1  1  0  0  0
 13 18  1  0  0  0  0
 16 12  1  1  0  0  0
 16  5  1  0  0  0  0
 17  6  1  0  0  0  0
 17 16  1  0  0  0  0
 18 10  1  0  0  0  0
 19 20  2  0  0  0  0
 20 11  1  0  0  0  0
 20 15  1  0  0  0  0
 23 21  1  0  0  0  0
 23 22  2  0  0  0  0
 25 24  1  1  0  0  0
 25 23  1  0  0  0  0
 27 25  1  0  0  0  0
 27 26  1  1  0  0  0
 28 27  1  0  0  0  0
 29 28  1  0  0  0  0
 30 29  2  0  0  0  0
 31 29  1  0  0  0  0
M  END
>  <MODEL>
6

>  <REMARK>
 VINA RESULT:      -6.4      2.735      4.862
  Name = 
  6 active torsions:
  status: ('A' for Active; 'I' for Inactive)
    1  A    between atoms: C_1  and  C_24
    2  A    between atoms: C_9  and  C_22
    3  A    between atoms: C_9  and  C_23
    4  A    between atoms: C_15  and  C_23
    5  A    between atoms: C_19  and  C_22
    6  A    between atoms: C_19  and  C_24
                            x       y       z     vdW  Elec       q    Type
                         _______ _______ _______ _____ _____    ______ ____

>  <TORSDO>
F 6

$$$$
=
 OpenBabel11052422433D

 31 34  0  0  1  0  0  0  0  0999 V2000
  160.9300  203.9750  152.4670 C   0  0  1  0  0  3  0  0  0  0  0  0
  160.8210  206.8070  149.9320 C   0  0  0  0  0  0  0  0  0  0  0  0
  161.0400  208.0770  150.6830 C   0  0  0  0  0  0  0  0  0  0  0  0
  160.7110  209.5070  152.6060 C   0  0  0  0  0  3  0  0  0  0  0  0
  160.6450  205.5950  150.5260 C   0  0  0  0  0  0  0  0  0  0  0  0
  161.4690  203.1240  151.3320 C   0  0  0  0  0  2  0  0  0  0  0  0
  160.4850  208.2980  151.9500 C   0  0  0  0  0  3  0  0  0  0  0  0
  160.9520  205.6170  147.6330 C   0  0  1  0  0  3  0  0  0  0  0  0
  161.7780  203.8970  153.5550 F   0  0  0  0  0  0  0  0  0  0  0  0
  162.3050  208.9470  148.6590 C   0  0  0  0  0  2  0  0  0  0  0  0
  161.4570  210.4750  152.0130 N   0  0  0  0  0  0  0  0  0  0  0  0
  161.3840  204.4020  148.4360 C   0  0  0  0  0  2  0  0  0  0  0  0
  161.0940  206.9240  148.4400 C   0  0  2  0  0  3  0  0  0  0  0  0
  160.8060  205.4270  152.0190 C   0  0  0  0  0  2  0  0  0  0  0  0
  162.7860  211.4280  150.1830 C   0  0  0  0  0  1  0  0  0  0  0  0
  160.4770  204.3590  149.6500 C   0  0  1  0  0  3  0  0  0  0  0  0
  160.5140  203.1020  150.3020 O   0  0  0  0  0  0  0  0  0  0  0  0
  162.4080  207.5410  148.2630 N   0  0  0  0  0  2  0  0  0  0  0  0
  161.8010  209.1040  150.0800 C   0  0  0  0  0  0  0  0  0  0  0  0
  161.9980  210.3090  150.7770 C   0  0  0  0  0  0  0  0  0  0  0  0
  161.6410  205.6770  146.2720 C   0  0  0  0  0  2  0  0  0  0  0  0
  162.9750  203.8640  145.2990 C   0  0  0  0  0  2  0  0  0  0  0  0
  161.7760  204.3130  145.6750 C   0  0  0  0  0  0  0  0  0  0  0  0
  160.0390  203.8360  144.1050 O   0  0  0  0  0  1  0  0  0  0  0  0
  160.5280  203.5340  145.3800 C   0  0  1  0  0  3  0  0  0  0  0  0
  160.0580  201.3160  144.5670 O   0  0  0  0  0  1  0  0  0  0  0  0
  160.7430  202.0280  145.5540 C   0  0  2  0  0  3  0  0  0  0  0  0
  160.2760  201.5690  146.9270 C   0  0  0  0  0  2  0  0  0  0  0  0
  161.2220  200.5650  147.4950 C   0  0  0  0  0  0  0  0  0  0  0  0
  161.6020  199.4640  146.7390 O   0  0  0  0  0  0  0  0  0  0  0  0
  161.6960  200.7310  148.6480 O   0  0  0  0  0  1  0  0  0  0  0  0
  1  9  1  1  0  0  0
  2  5  2  0  0  0  0
  2  3  1  0  0  0  0
  3  7  1  0  0  0  0
  5 14  1  0  0  0  0
  6  1  1  0  0  0  0
  7  4  2  0  0  0  0
  8 21  1  6  0  0  0
  8 12  1  0  0  0  0
  8 13  1  0  0  0  0
 10 19  1  0  0  0  0
 11  4  1  0  0  0  0
 13 18  1  1  0  0  0
 13  2  1  0  0  0  0
 14  1  1  0  0  0  0
 15 20  1  0  0  0  0
 16 12  1  6  0  0  0
 16 17  1  0  0  0  0
 16  5  1  0  0  0  0
 17  6  1  0  0  0  0
 18 10  1  0  0  0  0
 19  3  2  0  0  0  0
 19 20  1  0  0  0  0
 20 11  2  0  0  0  0
 22 23  2  0  0  0  0
 23 21  1  0  0  0  0
 25 24  1  6  0  0  0
 25 27  1  0  0  0  0
 25 23  1  0  0  0  0
 27 26  1  6  0  0  0
 27 28  1  0  0  0  0
 28 29  1  0  0  0  0
 29 31  1  0  0  0  0
 30 29  2  0  0  0  0
M  END
>  <MODEL>
7

>  <REMARK>
 VINA RESULT:      -6.3      4.683      7.649
  Name = 
  6 active torsions:
  status: ('A' for Active; 'I' for Inactive)
    1  A    between atoms: C_1  and  C_24
    2  A    between atoms: C_9  and  C_22
    3  A    between atoms: C_9  and  C_23
    4  A    between atoms: C_15  and  C_23
    5  A    between atoms: C_19  and  C_22
    6  A    between atoms: C_19  and  C_24
                            x       y       z     vdW  Elec       q    Type
                         _______ _______ _______ _____ _____    ______ ____

>  <TORSDO>
F 6

$$$$
=
 OpenBabel11052422433D

 31 34  0  0  1  0  0  0  0  0999 V2000
  161.1570  204.7360  151.3890 C   0  0  1  0  0  3  0  0  0  0  0  0
  160.9210  208.3320  152.6000 C   0  0  0  0  0  0  0  0  0  0  0  0
  160.8540  208.2910  154.0900 C   0  0  0  0  0  0  0  0  0  0  0  0
  160.0840  207.3210  156.1690 C   0  0  0  0  0  3  0  0  0  0  0  0
  160.8620  207.2280  151.8070 C   0  0  0  0  0  0  0  0  0  0  0  0
  161.9500  205.2940  150.2220 C   0  0  0  0  0  2  0  0  0  0  0  0
  160.1250  207.3100  154.7750 C   0  0  0  0  0  3  0  0  0  0  0  0
  161.5030  209.7540  150.5120 C   0  0  1  0  0  3  0  0  0  0  0  0
  161.8720  203.7230  152.0000 F   0  0  0  0  0  0  0  0  0  0  0  0
  162.2030  210.4420  154.1190 C   0  0  0  0  0  2  0  0  0  0  0  0
  160.7400  208.2880  156.8620 N   0  0  0  0  0  0  0  0  0  0  0  0
  162.0170  208.4470  149.9320 C   0  0  0  0  0  2  0  0  0  0  0  0
  161.3480  209.6830  152.0460 C   0  0  2  0  0  3  0  0  0  0  0  0
  160.8680  205.8390  152.4010 C   0  0  0  0  0  2  0  0  0  0  0  0
  162.1170  210.3090  157.0660 C   0  0  0  0  0  1  0  0  0  0  0  0
  160.9890  207.3940  150.2970 C   0  0  1  0  0  3  0  0  0  0  0  0
  161.1400  206.2100  149.5330 O   0  0  0  0  0  0  0  0  0  0  0  0
  162.5650  210.0980  152.7430 N   0  0  0  0  0  2  0  0  0  0  0  0
  161.5160  209.2950  154.8320 C   0  0  0  0  0  0  0  0  0  0  0  0
  161.4430  209.2690  156.2360 C   0  0  0  0  0  0  0  0  0  0  0  0
  162.3320  210.9490  150.0510 C   0  0  0  0  0  2  0  0  0  0  0  0
  161.3370  211.4120  147.8580 C   0  0  0  0  0  2  0  0  0  0  0  0
  161.5540  211.8140  149.1120 C   0  0  0  0  0  0  0  0  0  0  0  0
  161.3450  214.1260  148.5450 O   0  0  0  0  0  1  0  0  0  0  0  0
  161.1580  213.1880  149.5650 C   0  0  1  0  0  3  0  0  0  0  0  0
  158.9920  214.2380  149.4820 O   0  0  0  0  0  1  0  0  0  0  0  0
  159.7230  213.2200  150.0980 C   0  0  2  0  0  3  0  0  0  0  0  0
  159.7090  213.4250  151.6060 C   0  0  0  0  0  2  0  0  0  0  0  0
  158.5140  212.7720  152.2130 C   0  0  0  0  0  0  0  0  0  0  0  0
  158.6120  211.4860  152.7280 O   0  0  0  0  0  1  0  0  0  0  0  0
  157.4240  213.3970  152.2850 O   0  0  0  0  0  0  0  0  0  0  0  0
  1  9  1  1  0  0  0
  1 14  1  0  0  0  0
  2  3  1  0  0  0  0
  3  7  2  0  0  0  0
  3 19  1  0  0  0  0
  4 11  2  0  0  0  0
  5 14  1  0  0  0  0
  5  2  2  0  0  0  0
  6  1  1  0  0  0  0
  7  4  1  0  0  0  0
  8 21  1  1  0  0  0
  8 13  1  0  0  0  0
 10 19  1  0  0  0  0
 12  8  1  0  0  0  0
 13  2  1  6  0  0  0
 13 18  1  0  0  0  0
 16 12  1  1  0  0  0
 16  5  1  0  0  0  0
 17  6  1  0  0  0  0
 17 16  1  0  0  0  0
 18 10  1  0  0  0  0
 19 20  2  0  0  0  0
 20 11  1  0  0  0  0
 20 15  1  0  0  0  0
 22 23  2  0  0  0  0
 23 25  1  0  0  0  0
 23 21  1  0  0  0  0
 25 24  1  6  0  0  0
 25 27  1  0  0  0  0
 27 26  1  6  0  0  0
 27 28  1  0  0  0  0
 28 29  1  0  0  0  0
 29 31  2  0  0  0  0
 29 30  1  0  0  0  0
M  END
>  <MODEL>
8

>  <REMARK>
 VINA RESULT:      -6.1      2.893      4.894
  Name = 
  6 active torsions:
  status: ('A' for Active; 'I' for Inactive)
    1  A    between atoms: C_1  and  C_24
    2  A    between atoms: C_9  and  C_22
    3  A    between atoms: C_9  and  C_23
    4  A    between atoms: C_15  and  C_23
    5  A    between atoms: C_19  and  C_22
    6  A    between atoms: C_19  and  C_24
                            x       y       z     vdW  Elec       q    Type
                         _______ _______ _______ _____ _____    ______ ____

>  <TORSDO>
F 6

$$$$
=
 OpenBabel11052422433D

 31 34  0  0  1  0  0  0  0  0999 V2000
  161.7340  206.9200  148.3600 C   0  0  1  0  0  3  0  0  0  0  0  0
  161.6910  209.7810  150.8640 C   0  0  0  0  0  0  0  0  0  0  0  0
  161.5720  211.0470  150.0830 C   0  0  0  0  0  0  0  0  0  0  0  0
  162.1090  212.4430  148.1820 C   0  0  0  0  0  3  0  0  0  0  0  0
  161.8880  208.5580  150.3010 C   0  0  0  0  0  0  0  0  0  0  0  0
  161.0750  206.0970  149.4510 C   0  0  0  0  0  2  0  0  0  0  0  0
  162.2440  211.2370  148.8680 C   0  0  0  0  0  3  0  0  0  0  0  0
  161.3250  208.6250  153.1550 C   0  0  1  0  0  3  0  0  0  0  0  0
  160.9850  206.8500  147.2010 F   0  0  0  0  0  0  0  0  0  0  0  0
  160.1560  211.9740  151.9760 C   0  0  0  0  0  2  0  0  0  0  0  0
  161.3380  213.4370  148.6950 N   0  0  0  0  0  0  0  0  0  0  0  0
  160.9350  207.4110  152.3290 C   0  0  0  0  0  2  0  0  0  0  0  0
  161.2900  209.9240  152.3240 C   0  0  2  0  0  3  0  0  0  0  0  0
  161.8550  208.3740  148.8010 C   0  0  0  0  0  2  0  0  0  0  0  0
  159.8770  214.4460  150.3880 C   0  0  0  0  0  1  0  0  0  0  0  0
  161.9450  207.3290  151.2010 C   0  0  1  0  0  3  0  0  0  0  0  0
  161.9330  206.0650  150.5620 O   0  0  0  0  0  0  0  0  0  0  0  0
  159.9810  210.5760  152.3760 N   0  0  0  0  0  2  0  0  0  0  0  0
  160.7880  212.1000  150.6050 C   0  0  0  0  0  0  0  0  0  0  0  0
  160.6850  213.3010  149.8790 C   0  0  0  0  0  0  0  0  0  0  0  0
  160.5190  208.7200  154.4470 C   0  0  0  0  0  2  0  0  0  0  0  0
  162.3310  210.0980  155.3610 C   0  0  0  0  0  2  0  0  0  0  0  0
  161.0250  209.8260  155.3170 C   0  0  0  0  0  0  0  0  0  0  0  0
  160.7320  211.1850  157.2610 O   0  0  0  0  0  1  0  0  0  0  0  0
  160.0590  210.5130  156.2360 C   0  0  1  0  0  3  0  0  0  0  0  0
  159.6870  212.7230  155.3520 O   0  0  0  0  0  1  0  0  0  0  0  0
  159.1190  211.4520  155.4750 C   0  0  2  0  0  3  0  0  0  0  0  0
  157.7750  211.5630  156.1790 C   0  0  0  0  0  2  0  0  0  0  0  0
  156.6660  211.6390  155.1840 C   0  0  0  0  0  0  0  0  0  0  0  0
  156.7190  212.5670  154.1530 O   0  0  0  0  0  0  0  0  0  0  0  0
  155.6960  210.8420  155.2630 O   0  0  0  0  0  1  0  0  0  0  0  0
  1  9  1  6  0  0  0
  1 14  1  0  0  0  0
  1  6  1  0  0  0  0
  3 19  1  0  0  0  0
  3  2  1  0  0  0  0
  4 11  2  0  0  0  0
  4  7  1  0  0  0  0
  5  2  2  0  0  0  0
  5 16  1  0  0  0  0
  6 17  1  0  0  0  0
  7  3  2  0  0  0  0
  8 21  1  1  0  0  0
 10 18  1  0  0  0  0
 11 20  1  0  0  0  0
 12  8  1  0  0  0  0
 13  2  1  6  0  0  0
 13 18  1  0  0  0  0
 13  8  1  0  0  0  0
 14  5  1  0  0  0  0
 16 12  1  1  0  0  0
 17 16  1  0  0  0  0
 19 10  1  0  0  0  0
 20 15  1  0  0  0  0
 20 19  2  0  0  0  0
 21 23  1  0  0  0  0
 23 22  2  0  0  0  0
 23 25  1  0  0  0  0
 25 24  1  1  0  0  0
 27 26  1  1  0  0  0
 27 28  1  0  0  0  0
 27 25  1  0  0  0  0
 29 31  1  0  0  0  0
 29 28  1  0  0  0  0
 30 29  2  0  0  0  0
M  END
>  <MODEL>
9

>  <REMARK>
 VINA RESULT:      -6.0      3.825      7.131
  Name = 
  6 active torsions:
  status: ('A' for Active; 'I' for Inactive)
    1  A    between atoms: C_1  and  C_24
    2  A    between atoms: C_9  and  C_22
    3  A    between atoms: C_9  and  C_23
    4  A    between atoms: C_15  and  C_23
    5  A    between atoms: C_19  and  C_22
    6  A    between atoms: C_19  and  C_24
                            x       y       z     vdW  Elec       q    Type
                         _______ _______ _______ _____ _____    ______ ____

>  <TORSDO>
F 6

$$$$
