=
 OpenBabel11052423033D

 28 29  0  0  1  0  0  0  0  0999 V2000
  160.4420  208.6690  152.9970 C   0  0  0  0  0  2  0  0  0  0  0  0
  159.8130  210.8090  154.2390 C   0  0  2  0  0  0  0  0  0  0  0  0
  159.9070  209.1230  156.1320 C   0  0  0  0  0  0  0  0  0  0  0  0
  158.6040  210.1120  155.4190 S   0  0  0  0  0  0  0  0  0  0  0  0
  159.7760  208.5990  157.2280 O   0  0  0  0  0  0  0  0  0  0  0  0
  161.1640  208.9890  155.3420 C   0  0  2  0  0  3  0  0  0  0  0  0
  162.2050  210.3640  153.4310 C   0  0  0  0  0  1  0  0  0  0  0  0
  162.3610  209.4830  156.1510 C   0  0  0  0  0  1  0  0  0  0  0  0
  159.0670  211.1370  152.9510 C   0  0  0  0  0  1  0  0  0  0  0  0
  160.9310  209.7300  154.0040 C   0  0  1  0  0  0  0  0  0  0  0  0
  160.3410  212.1650  154.7530 C   0  0  0  0  0  2  0  0  0  0  0  0
  159.4930  212.8310  155.8290 C   0  0  0  0  0  2  0  0  0  0  0  0
  158.6680  213.8750  155.2470 N   0  0  0  0  0  2  0  0  0  0  0  0
  157.2820  213.7120  155.1120 C   0  0  0  0  0  0  0  0  0  0  0  0
  156.0910  213.5720  154.9970 C   0  0  0  0  0  3  0  0  0  0  0  0
  161.1320  207.3110  153.1570 C   0  0  0  0  0  2  0  0  0  0  0  0
  161.2540  206.5600  151.8300 C   0  0  1  0  0  3  0  0  0  0  0  0
  162.3600  207.1380  150.9580 C   0  0  0  0  0  2  0  0  0  0  0  0
  161.8050  207.8150  149.8710 O   0  0  0  0  0  1  0  0  0  0  0  0
  161.4820  205.0670  152.0380 C   0  0  0  0  0  2  0  0  0  0  0  0
  160.4920  204.2270  151.2400 C   0  0  0  0  0  2  0  0  0  0  0  0
  161.7200  203.8430  147.6060 C   0  0  0  0  0  2  0  0  0  0  0  0
  161.1600  203.5860  150.0340 C   0  0  2  0  0  3  0  0  0  0  0  0
  161.0750  201.6290  148.5130 C   0  0  0  0  0  0  0  0  0  0  0  0
  161.0040  204.4770  148.7980 C   0  0  0  0  0  2  0  0  0  0  0  0
  160.5360  202.2130  149.7840 C   0  0  0  0  0  2  0  0  0  0  0  0
  161.4100  200.4570  148.4690 O   0  0  0  0  0  0  0  0  0  0  0  0
  161.1200  202.4770  147.2790 C   0  0  0  0  0  2  0  0  0  0  0  0
  1 16  1  0  0  0  0
  1 10  1  0  0  0  0
  2  9  1  6  0  0  0
  2 11  1  0  0  0  0
  2  4  1  0  0  0  0
  3  5  2  0  0  0  0
  4  3  1  0  0  0  0
  6  3  1  0  0  0  0
  6  8  1  1  0  0  0
 10  7  1  6  0  0  0
 10  2  1  0  0  0  0
 10  6  1  0  0  0  0
 11 12  1  0  0  0  0
 13 12  1  0  0  0  0
 14 13  1  0  0  0  0
 15 14  3  0  0  0  0
 17 18  1  1  0  0  0
 17 20  1  0  0  0  0
 17 16  1  0  0  0  0
 19 18  1  0  0  0  0
 21 20  1  0  0  0  0
 22 25  1  0  0  0  0
 23 21  1  1  0  0  0
 24 26  1  0  0  0  0
 25 23  1  0  0  0  0
 26 23  1  0  0  0  0
 27 24  2  0  0  0  0
 28 22  1  0  0  0  0
 28 24  1  0  0  0  0
M  END
>  <MODEL>
1

>  <REMARK>
 VINA RESULT:      -6.4      0.000      0.000
  Name = 
  11 active torsions:
  status: ('A' for Active; 'I' for Inactive)
    1  A    between atoms: C_1  and  C_11
    2  A    between atoms: C_5  and  C_25
    3  A    between atoms: N_6  and  C_8
    4  A    between atoms: N_6  and  C_22
    5  A    between atoms: C_8  and  C_11
    6  A    between atoms: C_9  and  C_18
    7  A    between atoms: C_10  and  C_17
    8  A    between atoms: C_10  and  C_25
    9  A    between atoms: C_14  and  C_18
   10  A    between atoms: C_14  and  C_25
   11  A    between atoms: C_17  and  C_27
                            x       y       z     vdW  Elec       q    Type
                         _______ _______ _______ _____ _____    ______ ____

>  <TORSDO>
F 11

$$$$
=
 OpenBabel11052423033D

 28 29  0  0  1  0  0  0  0  0999 V2000
  160.4270  208.5850  153.0240 C   0  0  0  0  0  2  0  0  0  0  0  0
  159.7360  210.8160  154.0550 C   0  0  2  0  0  0  0  0  0  0  0  0
  159.9730  209.3510  156.1120 C   0  0  0  0  0  0  0  0  0  0  0  0
  158.6010  210.1970  155.3470 S   0  0  0  0  0  0  0  0  0  0  0  0
  159.9030  208.9430  157.2610 O   0  0  0  0  0  0  0  0  0  0  0  0
  161.2090  209.1880  155.2940 C   0  0  2  0  0  3  0  0  0  0  0  0
  162.1190  210.3940  153.2090 C   0  0  0  0  0  1  0  0  0  0  0  0
  162.4060  209.8200  156.0000 C   0  0  0  0  0  1  0  0  0  0  0  0
  158.9330  210.9700  152.7680 C   0  0  0  0  0  1  0  0  0  0  0  0
  160.8960  209.7690  153.8940 C   0  0  1  0  0  0  0  0  0  0  0  0
  160.2140  212.2420  154.4010 C   0  0  0  0  0  2  0  0  0  0  0  0
  159.2490  213.0690  155.2410 C   0  0  0  0  0  2  0  0  0  0  0  0
  158.5240  214.0060  154.4010 N   0  0  0  0  0  2  0  0  0  0  0  0
  157.1420  213.8820  154.2030 C   0  0  0  0  0  0  0  0  0  0  0  0
  155.9530  213.7750  154.0350 C   0  0  0  0  0  3  0  0  0  0  0  0
  161.3020  208.3500  151.7890 C   0  0  0  0  0  2  0  0  0  0  0  0
  161.7580  206.8940  151.6670 C   0  0  1  0  0  3  0  0  0  0  0  0
  161.9720  206.2570  153.0330 C   0  0  0  0  0  2  0  0  0  0  0  0
  161.1720  205.1220  153.1600 O   0  0  0  0  0  1  0  0  0  0  0  0
  160.7810  206.0580  150.8500 C   0  0  0  0  0  2  0  0  0  0  0  0
  161.3990  205.5870  149.5390 C   0  0  0  0  0  2  0  0  0  0  0  0
  160.4110  201.8710  149.8230 C   0  0  0  0  0  2  0  0  0  0  0  0
  160.8390  204.2370  149.1190 C   0  0  2  0  0  3  0  0  0  0  0  0
  161.1200  202.3770  147.5020 C   0  0  0  0  0  0  0  0  0  0  0  0
  161.0190  203.2090  150.2400 C   0  0  0  0  0  2  0  0  0  0  0  0
  161.5500  203.7710  147.8490 C   0  0  0  0  0  2  0  0  0  0  0  0
  160.8510  202.0850  146.3490 O   0  0  0  0  0  0  0  0  0  0  0  0
  161.1030  201.3290  148.5730 C   0  0  0  0  0  2  0  0  0  0  0  0
  1 10  1  0  0  0  0
  2  9  1  6  0  0  0
  2 11  1  0  0  0  0
  2  4  1  0  0  0  0
  3  5  2  0  0  0  0
  4  3  1  0  0  0  0
  6  8  1  1  0  0  0
  6  3  1  0  0  0  0
 10  7  1  6  0  0  0
 10  2  1  0  0  0  0
 10  6  1  0  0  0  0
 11 12  1  0  0  0  0
 13 12  1  0  0  0  0
 14 13  1  0  0  0  0
 15 14  3  0  0  0  0
 16  1  1  0  0  0  0
 17 20  1  1  0  0  0
 17 16  1  0  0  0  0
 17 18  1  0  0  0  0
 18 19  1  0  0  0  0
 21 20  1  0  0  0  0
 22 25  1  0  0  0  0
 23 21  1  1  0  0  0
 23 25  1  0  0  0  0
 24 26  1  0  0  0  0
 24 28  1  0  0  0  0
 26 23  1  0  0  0  0
 27 24  2  0  0  0  0
 28 22  1  0  0  0  0
M  END
>  <MODEL>
2

>  <REMARK>
 VINA RESULT:      -6.2      1.174      1.627
  Name = 
  11 active torsions:
  status: ('A' for Active; 'I' for Inactive)
    1  A    between atoms: C_1  and  C_11
    2  A    between atoms: C_5  and  C_25
    3  A    between atoms: N_6  and  C_8
    4  A    between atoms: N_6  and  C_22
    5  A    between atoms: C_8  and  C_11
    6  A    between atoms: C_9  and  C_18
    7  A    between atoms: C_10  and  C_17
    8  A    between atoms: C_10  and  C_25
    9  A    between atoms: C_14  and  C_18
   10  A    between atoms: C_14  and  C_25
   11  A    between atoms: C_17  and  C_27
                            x       y       z     vdW  Elec       q    Type
                         _______ _______ _______ _____ _____    ______ ____

>  <TORSDO>
F 11

$$$$
=
 OpenBabel11052423033D

 28 29  0  0  1  0  0  0  0  0999 V2000
  160.4720  208.5960  153.0230 C   0  0  0  0  0  2  0  0  0  0  0  0
  159.7370  210.8320  154.0130 C   0  0  2  0  0  0  0  0  0  0  0  0
  160.0080  209.4100  156.0970 C   0  0  0  0  0  0  0  0  0  0  0  0
  158.6170  210.2140  155.3190 S   0  0  0  0  0  0  0  0  0  0  0  0
  159.9490  209.0220  157.2530 O   0  0  0  0  0  0  0  0  0  0  0  0
  161.2450  209.2580  155.2790 C   0  0  2  0  0  3  0  0  0  0  0  0
  162.1270  210.4430  153.1700 C   0  0  0  0  0  1  0  0  0  0  0  0
  162.4300  209.9270  155.9710 C   0  0  0  0  0  1  0  0  0  0  0  0
  158.9290  210.9450  152.7260 C   0  0  0  0  0  1  0  0  0  0  0  0
  160.9180  209.8060  153.8690 C   0  0  1  0  0  0  0  0  0  0  0  0
  160.1860  212.2740  154.3320 C   0  0  0  0  0  2  0  0  0  0  0  0
  159.4640  212.9410  155.4960 C   0  0  0  0  0  2  0  0  0  0  0  0
  158.6530  214.0480  155.0190 N   0  0  0  0  0  2  0  0  0  0  0  0
  157.3950  213.8280  154.4420 C   0  0  0  0  0  0  0  0  0  0  0  0
  156.3130  213.6380  153.9470 C   0  0  0  0  0  3  0  0  0  0  0  0
  161.4140  208.2870  151.8550 C   0  0  0  0  0  2  0  0  0  0  0  0
  161.8220  206.8130  151.8130 C   0  0  1  0  0  3  0  0  0  0  0  0
  161.8130  206.1880  153.2000 C   0  0  0  0  0  2  0  0  0  0  0  0
  161.1150  204.9800  153.1740 O   0  0  0  0  0  1  0  0  0  0  0  0
  160.9390  206.0040  150.8710 C   0  0  0  0  0  2  0  0  0  0  0  0
  160.6860  206.7400  149.5600 C   0  0  0  0  0  2  0  0  0  0  0  0
  161.4040  203.5630  147.4980 C   0  0  0  0  0  2  0  0  0  0  0  0
  160.6350  205.7750  148.3870 C   0  0  2  0  0  3  0  0  0  0  0  0
  161.2130  205.5190  145.9890 C   0  0  0  0  0  0  0  0  0  0  0  0
  161.5020  204.5450  148.6650 C   0  0  0  0  0  2  0  0  0  0  0  0
  161.1150  206.4920  147.1250 C   0  0  0  0  0  2  0  0  0  0  0  0
  160.7950  205.8200  144.8830 O   0  0  0  0  0  0  0  0  0  0  0  0
  161.9030  204.2070  146.2060 C   0  0  0  0  0  2  0  0  0  0  0  0
  1 10  1  0  0  0  0
  2  9  1  6  0  0  0
  2 11  1  0  0  0  0
  2  4  1  0  0  0  0
  3  5  2  0  0  0  0
  4  3  1  0  0  0  0
  6  8  1  1  0  0  0
  6  3  1  0  0  0  0
 10  7  1  6  0  0  0
 10  2  1  0  0  0  0
 10  6  1  0  0  0  0
 11 12  1  0  0  0  0
 13 12  1  0  0  0  0
 14 13  1  0  0  0  0
 15 14  3  0  0  0  0
 16  1  1  0  0  0  0
 17 20  1  6  0  0  0
 17 16  1  0  0  0  0
 17 18  1  0  0  0  0
 19 18  1  0  0  0  0
 21 20  1  0  0  0  0
 22 25  1  0  0  0  0
 23 25  1  0  0  0  0
 23 21  1  1  0  0  0
 24 28  1  0  0  0  0
 24 26  1  0  0  0  0
 26 23  1  0  0  0  0
 27 24  2  0  0  0  0
 28 22  1  0  0  0  0
M  END
>  <MODEL>
3

>  <REMARK>
 VINA RESULT:      -6.2      1.801      2.281
  Name = 
  11 active torsions:
  status: ('A' for Active; 'I' for Inactive)
    1  A    between atoms: C_1  and  C_11
    2  A    between atoms: C_5  and  C_25
    3  A    between atoms: N_6  and  C_8
    4  A    between atoms: N_6  and  C_22
    5  A    between atoms: C_8  and  C_11
    6  A    between atoms: C_9  and  C_18
    7  A    between atoms: C_10  and  C_17
    8  A    between atoms: C_10  and  C_25
    9  A    between atoms: C_14  and  C_18
   10  A    between atoms: C_14  and  C_25
   11  A    between atoms: C_17  and  C_27
                            x       y       z     vdW  Elec       q    Type
                         _______ _______ _______ _____ _____    ______ ____

>  <TORSDO>
F 11

$$$$
=
 OpenBabel11052423033D

 28 29  0  0  1  0  0  0  0  0999 V2000
  161.7670  208.5970  152.9920 C   0  0  0  0  0  2  0  0  0  0  0  0
  160.5180  208.6180  155.2190 C   0  0  2  0  0  0  0  0  0  0  0  0
  162.3600  210.3090  155.6470 C   0  0  0  0  0  0  0  0  0  0  0  0
  161.9500  208.7210  156.3510 S   0  0  0  0  0  0  0  0  0  0  0  0
  163.1250  211.0730  156.2130 O   0  0  0  0  0  0  0  0  0  0  0  0
  161.7090  210.6640  154.3530 C   0  0  2  0  0  3  0  0  0  0  0  0
  159.6040  209.8100  153.1410 C   0  0  0  0  0  1  0  0  0  0  0  0
  160.9230  211.9660  154.4890 C   0  0  0  0  0  1  0  0  0  0  0  0
  160.2810  207.1440  154.9060 C   0  0  0  0  0  1  0  0  0  0  0  0
  160.8700  209.4360  153.9250 C   0  0  1  0  0  0  0  0  0  0  0  0
  159.2340  209.0870  155.9360 C   0  0  0  0  0  2  0  0  0  0  0  0
  159.4470  210.0670  157.0830 C   0  0  0  0  0  2  0  0  0  0  0  0
  158.4010  211.0750  157.0860 N   0  0  0  0  0  2  0  0  0  0  0  0
  157.6670  211.3600  155.9270 C   0  0  0  0  0  0  0  0  0  0  0  0
  157.0340  211.6050  154.9310 C   0  0  0  0  0  3  0  0  0  0  0  0
  161.7920  209.1070  151.5480 C   0  0  0  0  0  2  0  0  0  0  0  0
  161.3720  208.0300  150.5440 C   0  0  1  0  0  3  0  0  0  0  0  0
  161.7800  208.3980  149.1250 C   0  0  0  0  0  2  0  0  0  0  0  0
  162.7470  207.5060  148.6600 O   0  0  0  0  0  1  0  0  0  0  0  0
  161.9330  206.6610  150.9100 C   0  0  0  0  0  2  0  0  0  0  0  0
  160.8560  205.5830  150.8820 C   0  0  0  0  0  2  0  0  0  0  0  0
  161.4660  203.4010  147.7640 C   0  0  0  0  0  2  0  0  0  0  0  0
  161.2980  204.3820  150.0630 C   0  0  2  0  0  3  0  0  0  0  0  0
  160.9040  201.9600  149.7000 C   0  0  0  0  0  0  0  0  0  0  0  0
  160.9740  204.5950  148.5810 C   0  0  0  0  0  2  0  0  0  0  0  0
  160.5970  203.1290  150.5870 C   0  0  0  0  0  2  0  0  0  0  0  0
  161.1900  200.8780  150.1850 O   0  0  0  0  0  0  0  0  0  0  0  0
  160.7770  202.1150  148.2150 C   0  0  0  0  0  2  0  0  0  0  0  0
  1 10  1  0  0  0  0
  2  9  1  6  0  0  0
  2 11  1  0  0  0  0
  2  4  1  0  0  0  0
  3  5  2  0  0  0  0
  3  4  1  0  0  0  0
  6  8  1  1  0  0  0
  6  3  1  0  0  0  0
 10  7  1  6  0  0  0
 10  6  1  0  0  0  0
 10  2  1  0  0  0  0
 11 12  1  0  0  0  0
 12 13  1  0  0  0  0
 14 13  1  0  0  0  0
 15 14  3  0  0  0  0
 16  1  1  0  0  0  0
 17 18  1  6  0  0  0
 17 20  1  0  0  0  0
 17 16  1  0  0  0  0
 19 18  1  0  0  0  0
 21 20  1  0  0  0  0
 22 28  1  0  0  0  0
 22 25  1  0  0  0  0
 23 26  1  0  0  0  0
 23 21  1  1  0  0  0
 24 27  2  0  0  0  0
 24 26  1  0  0  0  0
 25 23  1  0  0  0  0
 28 24  1  0  0  0  0
M  END
>  <MODEL>
4

>  <REMARK>
 VINA RESULT:      -5.8      1.781      2.447
  Name = 
  11 active torsions:
  status: ('A' for Active; 'I' for Inactive)
    1  A    between atoms: C_1  and  C_11
    2  A    between atoms: C_5  and  C_25
    3  A    between atoms: N_6  and  C_8
    4  A    between atoms: N_6  and  C_22
    5  A    between atoms: C_8  and  C_11
    6  A    between atoms: C_9  and  C_18
    7  A    between atoms: C_10  and  C_17
    8  A    between atoms: C_10  and  C_25
    9  A    between atoms: C_14  and  C_18
   10  A    between atoms: C_14  and  C_25
   11  A    between atoms: C_17  and  C_27
                            x       y       z     vdW  Elec       q    Type
                         _______ _______ _______ _____ _____    ______ ____

>  <TORSDO>
F 11

$$$$
=
 OpenBabel11052423033D

 28 29  0  0  1  0  0  0  0  0999 V2000
  159.4650  209.5040  154.7570 C   0  0  0  0  0  2  0  0  0  0  0  0
  158.6400  211.7950  153.9870 C   0  0  2  0  0  0  0  0  0  0  0  0
  157.5660  211.6040  156.2770 C   0  0  0  0  0  0  0  0  0  0  0  0
  156.9250  211.7090  154.6150 S   0  0  0  0  0  0  0  0  0  0  0  0
  156.8520  211.8120  157.2450 O   0  0  0  0  0  0  0  0  0  0  0  0
  159.0130  211.2750  156.4250 C   0  0  2  0  0  3  0  0  0  0  0  0
  161.0320  211.4300  154.8350 C   0  0  0  0  0  1  0  0  0  0  0  0
  159.7340  212.3700  157.2080 C   0  0  0  0  0  1  0  0  0  0  0  0
  158.6590  211.1500  152.6050 C   0  0  0  0  0  1  0  0  0  0  0  0
  159.5610  211.0240  155.0000 C   0  0  1  0  0  0  0  0  0  0  0  0
  159.0500  213.2640  153.7490 C   0  0  0  0  0  2  0  0  0  0  0  0
  158.8170  213.7860  152.3380 C   0  0  0  0  0  2  0  0  0  0  0  0
  157.4920  214.3730  152.2290 N   0  0  0  0  0  2  0  0  0  0  0  0
  156.7450  214.2600  151.0490 C   0  0  0  0  0  0  0  0  0  0  0  0
  156.1030  214.1630  150.0340 C   0  0  0  0  0  3  0  0  0  0  0  0
  160.7820  208.8750  154.2910 C   0  0  0  0  0  2  0  0  0  0  0  0
  161.0400  207.5150  154.9430 C   0  0  1  0  0  3  0  0  0  0  0  0
  160.0320  207.2210  156.0440 C   0  0  0  0  0  2  0  0  0  0  0  0
  160.6910  207.0470  157.2610 O   0  0  0  0  0  1  0  0  0  0  0  0
  161.0410  206.3850  153.9210 C   0  0  0  0  0  2  0  0  0  0  0  0
  161.2600  206.9030  152.5040 C   0  0  0  0  0  2  0  0  0  0  0  0
  161.1920  204.8930  149.2150 C   0  0  0  0  0  2  0  0  0  0  0  0
  161.5430  205.7640  151.5380 C   0  0  2  0  0  3  0  0  0  0  0  0
  161.1790  203.3420  151.1490 C   0  0  0  0  0  0  0  0  0  0  0  0
  160.8600  206.0210  150.1910 C   0  0  0  0  0  2  0  0  0  0  0  0
  161.0460  204.4530  152.1460 C   0  0  0  0  0  2  0  0  0  0  0  0
  161.6210  202.2580  151.4900 O   0  0  0  0  0  0  0  0  0  0  0  0
  160.6890  203.5520  149.7480 C   0  0  0  0  0  2  0  0  0  0  0  0
  1 10  1  0  0  0  0
  2  9  1  6  0  0  0
  2  4  1  0  0  0  0
  2 10  1  0  0  0  0
  3  6  1  0  0  0  0
  3  5  2  0  0  0  0
  4  3  1  0  0  0  0
  6  8  1  6  0  0  0
 10  7  1  6  0  0  0
 10  6  1  0  0  0  0
 11  2  1  0  0  0  0
 12 11  1  0  0  0  0
 13 12  1  0  0  0  0
 14 13  1  0  0  0  0
 15 14  3  0  0  0  0
 16  1  1  0  0  0  0
 16 17  1  0  0  0  0
 17 20  1  6  0  0  0
 17 18  1  0  0  0  0
 18 19  1  0  0  0  0
 21 20  1  0  0  0  0
 22 28  1  0  0  0  0
 22 25  1  0  0  0  0
 23 26  1  0  0  0  0
 23 21  1  1  0  0  0
 24 27  2  0  0  0  0
 24 26  1  0  0  0  0
 25 23  1  0  0  0  0
 28 24  1  0  0  0  0
M  END
>  <MODEL>
5

>  <REMARK>
 VINA RESULT:      -5.8      2.202      3.400
  Name = 
  11 active torsions:
  status: ('A' for Active; 'I' for Inactive)
    1  A    between atoms: C_1  and  C_11
    2  A    between atoms: C_5  and  C_25
    3  A    between atoms: N_6  and  C_8
    4  A    between atoms: N_6  and  C_22
    5  A    between atoms: C_8  and  C_11
    6  A    between atoms: C_9  and  C_18
    7  A    between atoms: C_10  and  C_17
    8  A    between atoms: C_10  and  C_25
    9  A    between atoms: C_14  and  C_18
   10  A    between atoms: C_14  and  C_25
   11  A    between atoms: C_17  and  C_27
                            x       y       z     vdW  Elec       q    Type
                         _______ _______ _______ _____ _____    ______ ____

>  <TORSDO>
F 11

$$$$
=
 OpenBabel11052423033D

 28 29  0  0  1  0  0  0  0  0999 V2000
  161.5540  207.4800  154.4790 C   0  0  0  0  0  2  0  0  0  0  0  0
  161.3250  209.4350  156.1050 C   0  0  2  0  0  0  0  0  0  0  0  0
  161.2050  210.6140  153.8620 C   0  0  0  0  0  0  0  0  0  0  0  0
  162.3550  210.6620  155.2260 S   0  0  0  0  0  0  0  0  0  0  0  0
  161.1980  211.4880  153.0090 O   0  0  0  0  0  0  0  0  0  0  0  0
  160.2430  209.4750  153.8290 C   0  0  2  0  0  3  0  0  0  0  0  0
  159.3770  207.8400  155.6190 C   0  0  0  0  0  1  0  0  0  0  0  0
  158.8050  209.9890  153.8140 C   0  0  0  0  0  1  0  0  0  0  0  0
  162.2500  208.5960  156.9800 C   0  0  0  0  0  1  0  0  0  0  0  0
  160.5960  208.5580  155.0240 C   0  0  1  0  0  0  0  0  0  0  0  0
  160.3730  210.1430  157.0930 C   0  0  0  0  0  2  0  0  0  0  0  0
  160.1210  211.6190  156.8110 C   0  0  0  0  0  2  0  0  0  0  0  0
  158.7920  211.9980  157.2600 N   0  0  0  0  0  2  0  0  0  0  0  0
  158.0190  212.9170  156.5380 C   0  0  0  0  0  0  0  0  0  0  0  0
  157.3540  213.7080  155.9180 C   0  0  0  0  0  3  0  0  0  0  0  0
  160.8340  206.2460  153.9260 C   0  0  0  0  0  2  0  0  0  0  0  0
  161.0830  206.0490  152.4290 C   0  0  1  0  0  3  0  0  0  0  0  0
  162.1350  207.0150  151.9030 C   0  0  0  0  0  2  0  0  0  0  0  0
  161.5500  207.9250  151.0230 O   0  0  0  0  0  1  0  0  0  0  0  0
  161.4810  204.6160  152.1000 C   0  0  0  0  0  2  0  0  0  0  0  0
  160.4720  203.9460  151.1750 C   0  0  0  0  0  2  0  0  0  0  0  0
  161.7700  204.1160  147.5490 C   0  0  0  0  0  2  0  0  0  0  0  0
  161.1310  203.4800  149.8860 C   0  0  2  0  0  3  0  0  0  0  0  0
  160.9650  201.8260  148.0460 C   0  0  0  0  0  0  0  0  0  0  0  0
  161.0640  204.5800  148.8220 C   0  0  0  0  0  2  0  0  0  0  0  0
  160.4300  202.2160  149.3910 C   0  0  0  0  0  2  0  0  0  0  0  0
  161.2280  200.6600  147.8040 O   0  0  0  0  0  0  0  0  0  0  0  0
  161.0950  202.8700  146.9790 C   0  0  0  0  0  2  0  0  0  0  0  0
  1 10  1  0  0  0  0
  2  9  1  1  0  0  0
  2 11  1  0  0  0  0
  3  4  1  0  0  0  0
  4  2  1  0  0  0  0
  5  3  2  0  0  0  0
  6  8  1  1  0  0  0
  6  3  1  0  0  0  0
  6 10  1  0  0  0  0
 10  7  1  1  0  0  0
 10  2  1  0  0  0  0
 12 11  1  0  0  0  0
 12 13  1  0  0  0  0
 14 13  1  0  0  0  0
 15 14  3  0  0  0  0
 16  1  1  0  0  0  0
 17 18  1  1  0  0  0
 17 16  1  0  0  0  0
 19 18  1  0  0  0  0
 20 17  1  0  0  0  0
 21 20  1  0  0  0  0
 22 25  1  0  0  0  0
 23 21  1  1  0  0  0
 24 26  1  0  0  0  0
 25 23  1  0  0  0  0
 26 23  1  0  0  0  0
 27 24  2  0  0  0  0
 28 22  1  0  0  0  0
 28 24  1  0  0  0  0
M  END
>  <MODEL>
6

>  <REMARK>
 VINA RESULT:      -5.5      1.661      2.482
  Name = 
  11 active torsions:
  status: ('A' for Active; 'I' for Inactive)
    1  A    between atoms: C_1  and  C_11
    2  A    between atoms: C_5  and  C_25
    3  A    between atoms: N_6  and  C_8
    4  A    between atoms: N_6  and  C_22
    5  A    between atoms: C_8  and  C_11
    6  A    between atoms: C_9  and  C_18
    7  A    between atoms: C_10  and  C_17
    8  A    between atoms: C_10  and  C_25
    9  A    between atoms: C_14  and  C_18
   10  A    between atoms: C_14  and  C_25
   11  A    between atoms: C_17  and  C_27
                            x       y       z     vdW  Elec       q    Type
                         _______ _______ _______ _____ _____    ______ ____

>  <TORSDO>
F 11

$$$$
=
 OpenBabel11052423033D

 28 29  0  0  1  0  0  0  0  0999 V2000
  161.5800  207.6790  153.9500 C   0  0  0  0  0  2  0  0  0  0  0  0
  160.2210  208.7480  155.8290 C   0  0  2  0  0  0  0  0  0  0  0  0
  162.3390  210.1430  155.8680 C   0  0  0  0  0  0  0  0  0  0  0  0
  161.5670  209.0320  157.0320 S   0  0  0  0  0  0  0  0  0  0  0  0
  163.2070  210.9260  156.2210 O   0  0  0  0  0  0  0  0  0  0  0  0
  161.8590  210.0850  154.4580 C   0  0  2  0  0  3  0  0  0  0  0  0
  159.7060  209.2000  153.3580 C   0  0  0  0  0  1  0  0  0  0  0  0
  161.3500  211.4530  154.0090 C   0  0  0  0  0  1  0  0  0  0  0  0
  159.7060  207.3280  156.0360 C   0  0  0  0  0  1  0  0  0  0  0  0
  160.8160  208.9450  154.3880 C   0  0  1  0  0  0  0  0  0  0  0  0
  159.0170  209.6610  156.1470 C   0  0  0  0  0  2  0  0  0  0  0  0
  159.3060  210.8140  157.1000 C   0  0  0  0  0  2  0  0  0  0  0  0
  158.2980  211.8500  156.9580 N   0  0  0  0  0  2  0  0  0  0  0  0
  158.2790  212.6930  155.8390 C   0  0  0  0  0  0  0  0  0  0  0  0
  158.2610  213.4180  154.8760 C   0  0  0  0  0  3  0  0  0  0  0  0
  161.0300  207.0470  152.6670 C   0  0  0  0  0  2  0  0  0  0  0  0
  162.1010  206.2730  151.8950 C   0  0  1  0  0  3  0  0  0  0  0  0
  161.8770  204.7700  151.9810 C   0  0  0  0  0  2  0  0  0  0  0  0
  161.1300  204.4630  153.1180 O   0  0  0  0  0  1  0  0  0  0  0  0
  162.1750  206.7060  150.4360 C   0  0  0  0  0  2  0  0  0  0  0  0
  160.8180  206.6170  149.7490 C   0  0  0  0  0  2  0  0  0  0  0  0
  161.2200  203.4320  147.6140 C   0  0  0  0  0  2  0  0  0  0  0  0
  160.8870  205.7510  148.5010 C   0  0  2  0  0  3  0  0  0  0  0  0
  162.1460  205.3830  146.3970 C   0  0  0  0  0  0  0  0  0  0  0  0
  161.2010  204.2990  148.8720 C   0  0  0  0  0  2  0  0  0  0  0  0
  161.9580  206.3050  147.5630 C   0  0  0  0  0  2  0  0  0  0  0  0
  162.2400  205.8310  145.2660 O   0  0  0  0  0  0  0  0  0  0  0  0
  162.2980  203.9130  146.6430 C   0  0  0  0  0  2  0  0  0  0  0  0
  1 10  1  0  0  0  0
  2  9  1  1  0  0  0
  2 11  1  0  0  0  0
  2  4  1  0  0  0  0
  3  5  2  0  0  0  0
  3  4  1  0  0  0  0
  6  8  1  1  0  0  0
  6  3  1  0  0  0  0
 10  7  1  6  0  0  0
 10  6  1  0  0  0  0
 10  2  1  0  0  0  0
 11 12  1  0  0  0  0
 13 12  1  0  0  0  0
 14 13  1  0  0  0  0
 15 14  3  0  0  0  0
 16  1  1  0  0  0  0
 17 20  1  6  0  0  0
 17 18  1  0  0  0  0
 17 16  1  0  0  0  0
 18 19  1  0  0  0  0
 21 20  1  0  0  0  0
 22 25  1  0  0  0  0
 23 25  1  0  0  0  0
 23 21  1  1  0  0  0
 24 28  1  0  0  0  0
 24 26  1  0  0  0  0
 26 23  1  0  0  0  0
 27 24  2  0  0  0  0
 28 22  1  0  0  0  0
M  END
>  <MODEL>
7

>  <REMARK>
 VINA RESULT:      -5.3      2.213      3.056
  Name = 
  11 active torsions:
  status: ('A' for Active; 'I' for Inactive)
    1  A    between atoms: C_1  and  C_11
    2  A    between atoms: C_5  and  C_25
    3  A    between atoms: N_6  and  C_8
    4  A    between atoms: N_6  and  C_22
    5  A    between atoms: C_8  and  C_11
    6  A    between atoms: C_9  and  C_18
    7  A    between atoms: C_10  and  C_17
    8  A    between atoms: C_10  and  C_25
    9  A    between atoms: C_14  and  C_18
   10  A    between atoms: C_14  and  C_25
   11  A    between atoms: C_17  and  C_27
                            x       y       z     vdW  Elec       q    Type
                         _______ _______ _______ _____ _____    ______ ____

>  <TORSDO>
F 11

$$$$
=
 OpenBabel11052423033D

 28 29  0  0  1  0  0  0  0  0999 V2000
  161.1960  203.2880  146.9850 C   0  0  0  0  0  2  0  0  0  0  0  0
  161.0600  205.0600  145.1510 C   0  0  2  0  0  0  0  0  0  0  0  0
  160.8980  206.4770  147.2490 C   0  0  0  0  0  0  0  0  0  0  0  0
  159.7880  206.1440  145.8930 S   0  0  0  0  0  0  0  0  0  0  0  0
  160.7140  207.4220  148.0000 O   0  0  0  0  0  0  0  0  0  0  0  0
  162.0680  205.5660  147.4050 C   0  0  2  0  0  3  0  0  0  0  0  0
  163.2780  203.9530  145.8040 C   0  0  0  0  0  1  0  0  0  0  0  0
  163.3730  206.3570  147.3580 C   0  0  0  0  0  1  0  0  0  0  0  0
  160.3380  203.9620  144.3780 C   0  0  0  0  0  1  0  0  0  0  0  0
  161.9290  204.4710  146.3200 C   0  0  1  0  0  0  0  0  0  0  0  0
  161.8680  205.8330  144.0880 C   0  0  0  0  0  2  0  0  0  0  0  0
  161.2750  205.8280  142.6850 C   0  0  0  0  0  2  0  0  0  0  0  0
  162.2850  206.2010  141.7090 N   0  0  0  0  0  2  0  0  0  0  0  0
  161.9560  206.9750  140.5870 C   0  0  0  0  0  0  0  0  0  0  0  0
  161.6730  207.6400  139.6240 C   0  0  0  0  0  3  0  0  0  0  0  0
  161.6550  203.0140  148.4200 C   0  0  0  0  0  2  0  0  0  0  0  0
  160.4790  202.8610  149.3880 C   0  0  1  0  0  3  0  0  0  0  0  0
  160.5130  201.5190  150.1040 C   0  0  0  0  0  2  0  0  0  0  0  0
  161.1910  200.5800  149.3250 O   0  0  0  0  0  1  0  0  0  0  0  0
  160.4280  203.9940  150.4060 C   0  0  0  0  0  2  0  0  0  0  0  0
  161.5890  203.9220  151.3900 C   0  0  0  0  0  2  0  0  0  0  0  0
  161.5800  206.8560  153.8910 C   0  0  0  0  0  2  0  0  0  0  0  0
  161.9130  205.2930  151.9610 C   0  0  2  0  0  3  0  0  0  0  0  0
  161.6530  207.7290  151.5720 C   0  0  0  0  0  0  0  0  0  0  0  0
  161.2080  205.4950  153.3060 C   0  0  0  0  0  2  0  0  0  0  0  0
  161.4800  206.3690  150.9660 C   0  0  0  0  0  2  0  0  0  0  0  0
  162.1450  208.6350  150.9210 O   0  0  0  0  0  0  0  0  0  0  0  0
  161.1420  207.9830  152.9570 C   0  0  0  0  0  2  0  0  0  0  0  0
  1 16  1  0  0  0  0
  2  9  1  6  0  0  0
  2  4  1  0  0  0  0
  2 10  1  0  0  0  0
  3  6  1  0  0  0  0
  3  5  2  0  0  0  0
  4  3  1  0  0  0  0
  6  8  1  6  0  0  0
 10  7  1  6  0  0  0
 10  1  1  0  0  0  0
 10  6  1  0  0  0  0
 11  2  1  0  0  0  0
 12 11  1  0  0  0  0
 13 12  1  0  0  0  0
 14 13  1  0  0  0  0
 15 14  3  0  0  0  0
 17 16  1  1  0  0  0
 17 18  1  0  0  0  0
 17 20  1  0  0  0  0
 19 18  1  0  0  0  0
 20 21  1  0  0  0  0
 23 21  1  6  0  0  0
 23 25  1  0  0  0  0
 24 28  1  0  0  0  0
 25 22  1  0  0  0  0
 26 24  1  0  0  0  0
 26 23  1  0  0  0  0
 27 24  2  0  0  0  0
 28 22  1  0  0  0  0
M  END
>  <MODEL>
8

>  <REMARK>
 VINA RESULT:      -5.0      4.862      9.630
  Name = 
  11 active torsions:
  status: ('A' for Active; 'I' for Inactive)
    1  A    between atoms: C_1  and  C_11
    2  A    between atoms: C_5  and  C_25
    3  A    between atoms: N_6  and  C_8
    4  A    between atoms: N_6  and  C_22
    5  A    between atoms: C_8  and  C_11
    6  A    between atoms: C_9  and  C_18
    7  A    between atoms: C_10  and  C_17
    8  A    between atoms: C_10  and  C_25
    9  A    between atoms: C_14  and  C_18
   10  A    between atoms: C_14  and  C_25
   11  A    between atoms: C_17  and  C_27
                            x       y       z     vdW  Elec       q    Type
                         _______ _______ _______ _____ _____    ______ ____

>  <TORSDO>
F 11

$$$$
=
 OpenBabel11052423033D

 28 29  0  0  1  0  0  0  0  0999 V2000
  161.9350  204.2160  150.8370 C   0  0  0  0  0  2  0  0  0  0  0  0
  161.5480  206.6030  151.6560 C   0  0  2  0  0  0  0  0  0  0  0  0
  162.3910  206.9990  149.2970 C   0  0  0  0  0  0  0  0  0  0  0  0
  163.0170  207.4020  150.9190 S   0  0  0  0  0  0  0  0  0  0  0  0
  162.8250  207.5480  148.2970 O   0  0  0  0  0  0  0  0  0  0  0  0
  161.3010  205.9840  149.2260 C   0  0  2  0  0  3  0  0  0  0  0  0
  159.6100  205.0830  150.9450 C   0  0  0  0  0  1  0  0  0  0  0  0
  160.0690  206.5680  148.5390 C   0  0  0  0  0  1  0  0  0  0  0  0
  161.9630  206.0270  153.0060 C   0  0  0  0  0  1  0  0  0  0  0  0
  161.0670  205.4790  150.6690 C   0  0  1  0  0  0  0  0  0  0  0  0
  160.4720  207.6600  151.9860 C   0  0  0  0  0  2  0  0  0  0  0  0
  160.9590  209.1030  152.0060 C   0  0  0  0  0  2  0  0  0  0  0  0
  160.5240  209.7650  153.2240 N   0  0  0  0  0  2  0  0  0  0  0  0
  160.7610  209.1940  154.4820 C   0  0  0  0  0  0  0  0  0  0  0  0
  160.9670  208.7040  155.5630 C   0  0  0  0  0  3  0  0  0  0  0  0
  161.1260  202.9150  150.8500 C   0  0  0  0  0  2  0  0  0  0  0  0
  161.2740  202.1250  149.5480 C   0  0  1  0  0  3  0  0  0  0  0  0
  160.8310  200.6790  149.7170 C   0  0  0  0  0  2  0  0  0  0  0  0
  159.4450  200.6190  149.8640 O   0  0  0  0  0  1  0  0  0  0  0  0
  160.5110  202.7730  148.3990 C   0  0  0  0  0  2  0  0  0  0  0  0
  160.8460  202.1240  147.0610 C   0  0  0  0  0  2  0  0  0  0  0  0
  163.2640  204.9430  146.0270 C   0  0  0  0  0  2  0  0  0  0  0  0
  161.5810  203.0900  146.1470 C   0  0  2  0  0  3  0  0  0  0  0  0
  161.2620  204.9740  144.5660 C   0  0  0  0  0  0  0  0  0  0  0  0
  162.4960  204.0090  146.9620 C   0  0  0  0  0  2  0  0  0  0  0  0
  160.5620  203.9140  145.3610 C   0  0  0  0  0  2  0  0  0  0  0  0
  160.9440  205.1870  143.4080 O   0  0  0  0  0  0  0  0  0  0  0  0
  162.3010  205.8240  145.2330 C   0  0  0  0  0  2  0  0  0  0  0  0
  1 16  1  0  0  0  0
  2 11  1  0  0  0  0
  2  9  1  1  0  0  0
  3  4  1  0  0  0  0
  4  2  1  0  0  0  0
  5  3  2  0  0  0  0
  6  8  1  1  0  0  0
  6  3  1  0  0  0  0
  6 10  1  0  0  0  0
 10  1  1  0  0  0  0
 10  7  1  1  0  0  0
 10  2  1  0  0  0  0
 11 12  1  0  0  0  0
 12 13  1  0  0  0  0
 13 14  1  0  0  0  0
 14 15  3  0  0  0  0
 17 20  1  6  0  0  0
 17 18  1  0  0  0  0
 17 16  1  0  0  0  0
 18 19  1  0  0  0  0
 21 20  1  0  0  0  0
 22 25  1  0  0  0  0
 23 25  1  0  0  0  0
 23 21  1  1  0  0  0
 24 28  1  0  0  0  0
 24 26  1  0  0  0  0
 26 23  1  0  0  0  0
 27 24  2  0  0  0  0
 28 22  1  0  0  0  0
M  END
>  <MODEL>
9

>  <REMARK>
 VINA RESULT:      -4.6      3.319      5.888
  Name = 
  11 active torsions:
  status: ('A' for Active; 'I' for Inactive)
    1  A    between atoms: C_1  and  C_11
    2  A    between atoms: C_5  and  C_25
    3  A    between atoms: N_6  and  C_8
    4  A    between atoms: N_6  and  C_22
    5  A    between atoms: C_8  and  C_11
    6  A    between atoms: C_9  and  C_18
    7  A    between atoms: C_10  and  C_17
    8  A    between atoms: C_10  and  C_25
    9  A    between atoms: C_14  and  C_18
   10  A    between atoms: C_14  and  C_25
   11  A    between atoms: C_17  and  C_27
                            x       y       z     vdW  Elec       q    Type
                         _______ _______ _______ _____ _____    ______ ____

>  <TORSDO>
F 11

$$$$
