=
 OpenBabel11052422193D

 25 28  0  0  1  0  0  0  0  0999 V2000
  161.3040  205.6320  149.9550 N   0  0  0  0  0  0  0  0  0  0  0  0
  161.8730  206.4620  151.0210 C   0  0  2  0  0  3  0  0  0  0  0  0
  161.6270  207.3280  148.2970 C   0  0  0  0  0  3  0  0  0  0  0  0
  161.1780  204.2150  149.9820 C   0  0  0  0  0  0  0  0  0  0  0  0
  160.9540  201.4490  149.7430 C   0  0  0  0  0  3  0  0  0  0  0  0
  161.8640  208.2720  149.3540 N   0  0  0  0  0  0  0  0  0  0  0  0
  161.0300  203.6350  148.7320 C   0  0  0  0  0  0  0  0  0  0  0  0
  160.9190  202.2500  148.5940 C   0  0  0  0  0  3  0  0  0  0  0  0
  162.0370  208.9210  151.6790 C   0  0  0  0  0  0  0  0  0  0  0  0
  162.5140  210.3030  151.3960 C   0  0  0  0  0  1  0  0  0  0  0  0
  161.1360  206.3130  152.3250 C   0  0  0  0  0  3  0  0  0  0  0  0
  161.1040  202.0350  151.0110 C   0  0  0  0  0  3  0  0  0  0  0  0
  161.3280  206.0660  148.5970 C   0  0  0  0  0  0  0  0  0  0  0  0
  161.0440  204.7940  147.3620 S   0  0  0  0  0  0  0  0  0  0  0  0
  161.6480  208.6110  152.8820 N   0  0  0  0  0  0  0  0  0  0  0  0
  161.2220  203.4260  151.1360 C   0  0  0  0  0  3  0  0  0  0  0  0
  161.1110  207.3150  153.2130 C   0  0  0  0  0  0  0  0  0  0  0  0
  161.9330  207.9180  150.6070 C   0  0  0  0  0  0  0  0  0  0  0  0
  160.4240  207.1200  154.5190 C   0  0  0  0  0  2  0  0  0  0  0  0
  159.9460  208.4610  155.0630 C   0  0  0  0  0  2  0  0  0  0  0  0
  160.6230  207.4090  157.2600 C   0  0  0  0  0  1  0  0  0  0  0  0
  160.3920  208.7070  156.5040 C   0  0  1  0  0  3  0  0  0  0  0  0
  161.5800  209.6120  156.5850 C   0  0  0  0  0  0  0  0  0  0  0  0
  162.7290  209.2160  157.2600 O   0  0  0  0  0  1  0  0  0  0  0  0
  161.5430  210.7960  155.9940 C   0  0  0  0  0  2  0  0  0  0  0  0
  1  4  1  0  0  0  0
  1  2  1  0  0  0  0
  2 11  1  1  0  0  0
  3 13  2  0  0  0  0
  3  6  1  0  0  0  0
  4 16  1  0  0  0  0
  5 12  1  0  0  0  0
  6 18  2  0  0  0  0
  7  4  2  0  0  0  0
  8  7  1  0  0  0  0
  8  5  2  0  0  0  0
  9 15  2  0  0  0  0
 10  9  1  0  0  0  0
 11 17  2  0  0  0  0
 12 16  2  0  0  0  0
 13  1  1  0  0  0  0
 14 13  1  0  0  0  0
 14  7  1  0  0  0  0
 15 17  1  0  0  0  0
 17 19  1  0  0  0  0
 18  2  1  0  0  0  0
 18  9  1  0  0  0  0
 19 20  1  0  0  0  0
 20 22  1  0  0  0  0
 22 23  1  0  0  0  0
 22 21  1  6  0  0  0
 23 24  1  0  0  0  0
 25 23  2  0  0  0  0
M  END
>  <MODEL>
1

>  <REMARK>
 VINA RESULT:      -8.4      0.000      0.000
  Name = 
  4 active torsions:
  status: ('A' for Active; 'I' for Inactive)
    1  A    between atoms: C_2  and  C_25
    2  A    between atoms: C_6  and  C_15
    3  A    between atoms: C_6  and  C_23
    4  A    between atoms: C_15  and  C_25
                            x       y       z     vdW  Elec       q    Type
                         _______ _______ _______ _____ _____    ______ ____

>  <TORSDO>
F 4

$$$$
=
 OpenBabel11052422193D

 25 28  0  0  1  0  0  0  0  0999 V2000
  161.2800  206.1600  149.8410 N   0  0  0  0  0  0  0  0  0  0  0  0
  161.8470  207.3130  150.5480 C   0  0  0  0  0  0  0  0  0  0  0  0
  161.5420  207.1930  147.6980 C   0  0  0  0  0  3  0  0  0  0  0  0
  161.1840  204.8360  150.3530 C   0  0  0  0  0  0  0  0  0  0  0  0
  161.0150  202.1520  151.0760 C   0  0  0  0  0  3  0  0  0  0  0  0
  161.7760  208.4440  148.3640 N   0  0  0  0  0  0  0  0  0  0  0  0
  161.0290  203.8620  149.3780 C   0  0  0  0  0  0  0  0  0  0  0  0
  160.9460  202.5120  149.7240 C   0  0  0  0  0  3  0  0  0  0  0  0
  161.9700  209.8500  150.3240 C   0  0  1  0  0  3  0  0  0  0  0  0
  162.4130  211.0590  149.5760 C   0  0  0  0  0  1  0  0  0  0  0  0
  161.1330  207.6070  151.8390 C   0  0  0  0  0  3  0  0  0  0  0  0
  161.1720  203.1370  152.0650 C   0  0  0  0  0  3  0  0  0  0  0  0
  161.2750  206.1050  148.4160 C   0  0  0  0  0  0  0  0  0  0  0  0
  160.9990  204.4830  147.6950 S   0  0  0  0  0  0  0  0  0  0  0  0
  161.6050  209.9640  151.5680 N   0  0  0  0  0  0  0  0  0  0  0  0
  161.2620  204.4890  151.7050 C   0  0  0  0  0  3  0  0  0  0  0  0
  161.1000  208.8520  152.3330 C   0  0  0  0  0  0  0  0  0  0  0  0
  161.8710  208.5400  149.6610 C   0  0  0  0  0  0  0  0  0  0  0  0
  160.4370  209.1040  153.6410 C   0  0  0  0  0  2  0  0  0  0  0  0
  160.6970  207.9410  154.5910 C   0  0  0  0  0  2  0  0  0  0  0  0
  160.1100  206.9360  156.8370 C   0  0  0  0  0  1  0  0  0  0  0  0
  160.1820  208.2070  156.0050 C   0  0  1  0  0  3  0  0  0  0  0  0
  160.9580  209.2790  156.7020 C   0  0  0  0  0  0  0  0  0  0  0  0
  162.3470  209.2300  156.7540 O   0  0  0  0  0  1  0  0  0  0  0  0
  160.3170  210.2940  157.2610 C   0  0  0  0  0  2  0  0  0  0  0  0
  1  4  1  0  0  0  0
  1  2  1  0  0  0  0
  2 11  2  0  0  0  0
  3  6  1  0  0  0  0
  3 13  2  0  0  0  0
  4 16  1  0  0  0  0
  5 12  1  0  0  0  0
  6 18  2  0  0  0  0
  7  8  1  0  0  0  0
  7  4  2  0  0  0  0
  8  5  2  0  0  0  0
  9 10  1  6  0  0  0
  9 15  1  0  0  0  0
 11 17  1  0  0  0  0
 13  1  1  0  0  0  0
 14 13  1  0  0  0  0
 14  7  1  0  0  0  0
 15 17  2  0  0  0  0
 16 12  2  0  0  0  0
 17 19  1  0  0  0  0
 18  9  1  0  0  0  0
 18  2  1  0  0  0  0
 19 20  1  0  0  0  0
 20 22  1  0  0  0  0
 22 23  1  0  0  0  0
 22 21  1  1  0  0  0
 23 24  1  0  0  0  0
 23 25  2  0  0  0  0
M  END
>  <MODEL>
2

>  <REMARK>
 VINA RESULT:      -8.3      1.069      1.249
  Name = 
  4 active torsions:
  status: ('A' for Active; 'I' for Inactive)
    1  A    between atoms: C_2  and  C_25
    2  A    between atoms: C_6  and  C_15
    3  A    between atoms: C_6  and  C_23
    4  A    between atoms: C_15  and  C_25
                            x       y       z     vdW  Elec       q    Type
                         _______ _______ _______ _____ _____    ______ ____

>  <TORSDO>
F 4

$$$$
=
 OpenBabel11052422193D

 25 28  0  0  1  0  0  0  0  0999 V2000
  161.3930  207.7000  151.2630 N   0  0  0  0  0  0  0  0  0  0  0  0
  160.7130  206.8440  150.2860 C   0  0  0  0  0  0  0  0  0  0  0  0
  161.9750  209.3300  149.6090 C   0  0  0  0  0  3  0  0  0  0  0  0
  161.1980  207.6720  152.6720 C   0  0  0  0  0  0  0  0  0  0  0  0
  160.8860  207.9020  155.4300 C   0  0  0  0  0  3  0  0  0  0  0  0
  161.6280  208.3760  148.5920 N   0  0  0  0  0  0  0  0  0  0  0  0
  161.6000  208.8280  153.3230 C   0  0  0  0  0  0  0  0  0  0  0  0
  161.4480  208.9610  154.7040 C   0  0  0  0  0  3  0  0  0  0  0  0
  160.8840  206.2050  147.8230 C   0  0  1  0  0  3  0  0  0  0  0  0
  160.8270  206.5870  146.3850 C   0  0  0  0  0  1  0  0  0  0  0  0
  160.9570  205.3790  150.5330 C   0  0  0  0  0  3  0  0  0  0  0  0
  160.4770  206.7300  154.7720 C   0  0  0  0  0  3  0  0  0  0  0  0
  161.8870  208.9850  150.8920 C   0  0  0  0  0  0  0  0  0  0  0  0
  162.2610  210.1030  152.2470 S   0  0  0  0  0  0  0  0  0  0  0  0
  160.8030  204.9500  148.1570 N   0  0  0  0  0  0  0  0  0  0  0  0
  160.6280  206.6110  153.3840 C   0  0  0  0  0  3  0  0  0  0  0  0
  160.9190  204.5010  149.5220 C   0  0  0  0  0  0  0  0  0  0  0  0
  161.0980  207.2170  148.8700 C   0  0  0  0  0  0  0  0  0  0  0  0
  161.1070  203.0520  149.8020 C   0  0  0  0  0  2  0  0  0  0  0  0
  160.3790  202.2190  148.7530 C   0  0  0  0  0  2  0  0  0  0  0  0
  161.5550  200.1450  147.9110 C   0  0  0  0  0  1  0  0  0  0  0  0
  161.3240  201.6330  147.7050 C   0  0  1  0  0  3  0  0  0  0  0  0
  160.8810  201.9340  146.3080 C   0  0  0  0  0  0  0  0  0  0  0  0
  160.0140  201.0780  145.6380 O   0  0  0  0  0  1  0  0  0  0  0  0
  161.3060  203.0370  145.7090 C   0  0  0  0  0  2  0  0  0  0  0  0
  1  4  1  0  0  0  0
  2 11  2  0  0  0  0
  2  1  1  0  0  0  0
  3 13  2  0  0  0  0
  4  7  2  0  0  0  0
  4 16  1  0  0  0  0
  6 18  2  0  0  0  0
  6  3  1  0  0  0  0
  7  8  1  0  0  0  0
  8  5  2  0  0  0  0
  9 10  1  6  0  0  0
  9 15  1  0  0  0  0
  9 18  1  0  0  0  0
 12  5  1  0  0  0  0
 13  1  1  0  0  0  0
 13 14  1  0  0  0  0
 14  7  1  0  0  0  0
 15 17  2  0  0  0  0
 16 12  2  0  0  0  0
 17 19  1  0  0  0  0
 17 11  1  0  0  0  0
 18  2  1  0  0  0  0
 20 19  1  0  0  0  0
 22 21  1  6  0  0  0
 22 20  1  0  0  0  0
 23 22  1  0  0  0  0
 24 23  1  0  0  0  0
 25 23  2  0  0  0  0
M  END
>  <MODEL>
3

>  <REMARK>
 VINA RESULT:      -8.3      3.550      7.530
  Name = 
  4 active torsions:
  status: ('A' for Active; 'I' for Inactive)
    1  A    between atoms: C_2  and  C_25
    2  A    between atoms: C_6  and  C_15
    3  A    between atoms: C_6  and  C_23
    4  A    between atoms: C_15  and  C_25
                            x       y       z     vdW  Elec       q    Type
                         _______ _______ _______ _____ _____    ______ ____

>  <TORSDO>
F 4

$$$$
=
 OpenBabel11052422193D

 25 28  0  0  1  0  0  0  0  0999 V2000
  161.2560  205.2770  149.0590 N   0  0  0  0  0  0  0  0  0  0  0  0
  160.8360  206.3780  149.9320 C   0  0  2  0  0  3  0  0  0  0  0  0
  161.2060  203.6830  150.8450 C   0  0  0  0  0  3  0  0  0  0  0  0
  161.1490  205.2530  147.6410 C   0  0  0  0  0  0  0  0  0  0  0  0
  160.9170  204.9150  144.8860 C   0  0  0  0  0  3  0  0  0  0  0  0
  161.1310  204.7750  151.7750 N   0  0  0  0  0  0  0  0  0  0  0  0
  161.1950  203.9810  147.0910 C   0  0  0  0  0  0  0  0  0  0  0  0
  161.0770  203.7940  145.7120 C   0  0  0  0  0  3  0  0  0  0  0  0
  161.0780  207.1230  152.3590 C   0  0  0  0  0  0  0  0  0  0  0  0
  160.8310  206.8940  153.8090 C   0  0  0  0  0  1  0  0  0  0  0  0
  161.5440  207.6670  149.6170 C   0  0  0  0  0  3  0  0  0  0  0  0
  160.8700  206.2040  145.4420 C   0  0  0  0  0  3  0  0  0  0  0  0
  161.2960  203.9360  149.5410 C   0  0  0  0  0  0  0  0  0  0  0  0
  161.3630  202.6530  148.2850 S   0  0  0  0  0  0  0  0  0  0  0  0
  161.4170  208.3100  151.9460 N   0  0  0  0  0  0  0  0  0  0  0  0
  160.9820  206.3790  146.8280 C   0  0  0  0  0  3  0  0  0  0  0  0
  161.7370  208.5900  150.5690 C   0  0  0  0  0  0  0  0  0  0  0  0
  161.0110  206.0150  151.3920 C   0  0  0  0  0  0  0  0  0  0  0  0
  162.3890  209.8800  150.2170 C   0  0  0  0  0  2  0  0  0  0  0  0
  161.9570  210.3200  148.8230 C   0  0  0  0  0  2  0  0  0  0  0  0
  163.3590  212.2040  147.8830 C   0  0  0  0  0  1  0  0  0  0  0  0
  162.0800  211.8300  148.6160 C   0  0  1  0  0  3  0  0  0  0  0  0
  160.8730  212.4130  147.9510 C   0  0  0  0  0  0  0  0  0  0  0  0
  160.4800  211.9830  146.6890 O   0  0  0  0  0  1  0  0  0  0  0  0
  160.1640  213.3380  148.5790 C   0  0  0  0  0  2  0  0  0  0  0  0
  1 13  1  0  0  0  0
  1  2  1  0  0  0  0
  2 11  1  6  0  0  0
  2 18  1  0  0  0  0
  3  6  1  0  0  0  0
  4  1  1  0  0  0  0
  5 12  2  0  0  0  0
  5  8  1  0  0  0  0
  7  4  1  0  0  0  0
  7 14  1  0  0  0  0
  8  7  2  0  0  0  0
  9 10  1  0  0  0  0
 11 17  2  0  0  0  0
 12 16  1  0  0  0  0
 13  3  2  0  0  0  0
 14 13  1  0  0  0  0
 15  9  2  0  0  0  0
 16  4  2  0  0  0  0
 17 15  1  0  0  0  0
 18  6  2  0  0  0  0
 18  9  1  0  0  0  0
 19 17  1  0  0  0  0
 20 19  1  0  0  0  0
 22 21  1  6  0  0  0
 22 20  1  0  0  0  0
 23 25  2  0  0  0  0
 23 22  1  0  0  0  0
 24 23  1  0  0  0  0
M  END
>  <MODEL>
4

>  <REMARK>
 VINA RESULT:      -8.1      3.236      5.564
  Name = 
  4 active torsions:
  status: ('A' for Active; 'I' for Inactive)
    1  A    between atoms: C_2  and  C_25
    2  A    between atoms: C_6  and  C_15
    3  A    between atoms: C_6  and  C_23
    4  A    between atoms: C_15  and  C_25
                            x       y       z     vdW  Elec       q    Type
                         _______ _______ _______ _____ _____    ______ ____

>  <TORSDO>
F 4

$$$$
=
 OpenBabel11052422193D

 25 28  0  0  1  0  0  0  0  0999 V2000
  161.3160  206.1020  151.1620 N   0  0  0  0  0  0  0  0  0  0  0  0
  160.8860  207.4740  151.4500 C   0  0  2  0  0  3  0  0  0  0  0  0
  161.1440  205.4390  153.4560 C   0  0  0  0  0  3  0  0  0  0  0  0
  161.2720  205.4670  149.8900 C   0  0  0  0  0  0  0  0  0  0  0  0
  161.1550  203.9690  147.5450 C   0  0  0  0  0  3  0  0  0  0  0  0
  161.0560  206.8260  153.8180 N   0  0  0  0  0  0  0  0  0  0  0  0
  161.3090  204.0820  149.9470 C   0  0  0  0  0  0  0  0  0  0  0  0
  161.2480  203.3160  148.7810 C   0  0  0  0  0  3  0  0  0  0  0  0
  161.0380  209.1960  153.3250 C   0  0  0  0  0  0  0  0  0  0  0  0
  160.7210  209.6180  154.7170 C   0  0  0  0  0  1  0  0  0  0  0  0
  161.6410  208.4970  150.6460 C   0  0  0  0  0  3  0  0  0  0  0  0
  161.1170  205.3720  147.4850 C   0  0  0  0  0  3  0  0  0  0  0  0
  161.2990  205.1010  152.1780 C   0  0  0  0  0  0  0  0  0  0  0  0
  161.3880  203.4010  151.6050 S   0  0  0  0  0  0  0  0  0  0  0  0
  161.4260  210.0850  152.4580 N   0  0  0  0  0  0  0  0  0  0  0  0
  161.1710  206.1300  148.6630 C   0  0  0  0  0  3  0  0  0  0  0  0
  161.8150  209.7400  151.1140 C   0  0  0  0  0  0  0  0  0  0  0  0
  160.9860  207.7790  152.9300 C   0  0  0  0  0  0  0  0  0  0  0  0
  162.5160  210.7480  150.2730 C   0  0  0  0  0  2  0  0  0  0  0  0
  161.9340  210.7480  148.8640 C   0  0  0  0  0  2  0  0  0  0  0  0
  160.8030  212.9310  149.4570 C   0  0  0  0  0  1  0  0  0  0  0  0
  161.5440  212.1460  148.3870 C   0  0  1  0  0  3  0  0  0  0  0  0
  162.7130  212.9120  147.8530 C   0  0  0  0  0  0  0  0  0  0  0  0
  163.9070  212.2660  147.5510 O   0  0  0  0  0  1  0  0  0  0  0  0
  162.6050  214.2160  147.6500 C   0  0  0  0  0  2  0  0  0  0  0  0
  1  2  1  0  0  0  0
  1 13  1  0  0  0  0
  2 11  1  6  0  0  0
  2 18  1  0  0  0  0
  3  6  1  0  0  0  0
  4  7  1  0  0  0  0
  4  1  1  0  0  0  0
  5  8  1  0  0  0  0
  7 14  1  0  0  0  0
  8  7  2  0  0  0  0
  9 10  1  0  0  0  0
 11 17  2  0  0  0  0
 12  5  2  0  0  0  0
 12 16  1  0  0  0  0
 13  3  2  0  0  0  0
 14 13  1  0  0  0  0
 15  9  2  0  0  0  0
 16  4  2  0  0  0  0
 17 15  1  0  0  0  0
 18  9  1  0  0  0  0
 18  6  2  0  0  0  0
 19 17  1  0  0  0  0
 20 19  1  0  0  0  0
 22 20  1  0  0  0  0
 22 21  1  1  0  0  0
 23 22  1  0  0  0  0
 24 23  1  0  0  0  0
 25 23  2  0  0  0  0
M  END
>  <MODEL>
5

>  <REMARK>
 VINA RESULT:      -7.7      3.070      5.362
  Name = 
  4 active torsions:
  status: ('A' for Active; 'I' for Inactive)
    1  A    between atoms: C_2  and  C_25
    2  A    between atoms: C_6  and  C_15
    3  A    between atoms: C_6  and  C_23
    4  A    between atoms: C_15  and  C_25
                            x       y       z     vdW  Elec       q    Type
                         _______ _______ _______ _____ _____    ______ ____

>  <TORSDO>
F 4

$$$$
=
 OpenBabel11052422193D

 25 28  0  0  1  0  0  0  0  0999 V2000
  161.1570  206.6100  152.0100 N   0  0  0  0  0  0  0  0  0  0  0  0
  161.6090  205.7380  150.9210 C   0  0  0  0  0  0  0  0  0  0  0  0
  160.8310  204.7710  153.5080 C   0  0  0  0  0  3  0  0  0  0  0  0
  161.4100  208.0050  152.1170 C   0  0  0  0  0  0  0  0  0  0  0  0
  161.8900  210.7030  152.6170 C   0  0  0  0  0  3  0  0  0  0  0  0
  160.9350  203.8800  152.3860 N   0  0  0  0  0  0  0  0  0  0  0  0
  161.2740  208.5090  153.4020 C   0  0  0  0  0  0  0  0  0  0  0  0
  161.5140  209.8580  153.6700 C   0  0  0  0  0  3  0  0  0  0  0  0
  161.2000  203.3820  150.0320 C   0  0  1  0  0  3  0  0  0  0  0  0
  161.2640  201.9060  150.2150 C   0  0  0  0  0  1  0  0  0  0  0  0
  161.0920  206.1780  149.5780 C   0  0  0  0  0  3  0  0  0  0  0  0
  162.0280  210.1950  151.3150 C   0  0  0  0  0  3  0  0  0  0  0  0
  160.9090  206.0850  153.3130 C   0  0  0  0  0  0  0  0  0  0  0  0
  160.8270  207.2920  154.6410 S   0  0  0  0  0  0  0  0  0  0  0  0
  161.0480  203.8750  148.8370 N   0  0  0  0  0  0  0  0  0  0  0  0
  161.7920  208.8370  151.0590 C   0  0  0  0  0  3  0  0  0  0  0  0
  160.9090  205.2890  148.5920 C   0  0  0  0  0  0  0  0  0  0  0  0
  161.2390  204.2940  151.1880 C   0  0  0  0  0  0  0  0  0  0  0  0
  160.4540  205.7590  147.2570 C   0  0  0  0  0  2  0  0  0  0  0  0
  161.6480  206.2240  146.4320 C   0  0  0  0  0  2  0  0  0  0  0  0
  163.4250  204.4480  146.1410 C   0  0  0  0  0  1  0  0  0  0  0  0
  162.2080  205.1240  145.5300 C   0  0  1  0  0  3  0  0  0  0  0  0
  161.1640  204.1280  145.1330 C   0  0  0  0  0  0  0  0  0  0  0  0
  160.1620  204.4700  144.2330 O   0  0  0  0  0  1  0  0  0  0  0  0
  161.2060  202.9020  145.6340 C   0  0  0  0  0  2  0  0  0  0  0  0
  1  4  1  0  0  0  0
  1 13  1  0  0  0  0
  2 18  1  0  0  0  0
  2  1  1  0  0  0  0
  4  7  1  0  0  0  0
  5  8  1  0  0  0  0
  6  3  1  0  0  0  0
  7  8  2  0  0  0  0
  7 14  1  0  0  0  0
  9 10  1  1  0  0  0
  9 18  1  0  0  0  0
 11  2  2  0  0  0  0
 12  5  2  0  0  0  0
 13  3  2  0  0  0  0
 13 14  1  0  0  0  0
 15  9  1  0  0  0  0
 16 12  1  0  0  0  0
 16  4  2  0  0  0  0
 17 15  2  0  0  0  0
 17 11  1  0  0  0  0
 18  6  2  0  0  0  0
 19 17  1  0  0  0  0
 20 19  1  0  0  0  0
 22 21  1  1  0  0  0
 22 20  1  0  0  0  0
 23 22  1  0  0  0  0
 23 25  2  0  0  0  0
 24 23  1  0  0  0  0
M  END
>  <MODEL>
6

>  <REMARK>
 VINA RESULT:      -7.6      3.745      8.073
  Name = 
  4 active torsions:
  status: ('A' for Active; 'I' for Inactive)
    1  A    between atoms: C_2  and  C_25
    2  A    between atoms: C_6  and  C_15
    3  A    between atoms: C_6  and  C_23
    4  A    between atoms: C_15  and  C_25
                            x       y       z     vdW  Elec       q    Type
                         _______ _______ _______ _____ _____    ______ ____

>  <TORSDO>
F 4

$$$$
=
 OpenBabel11052422193D

 25 28  0  0  1  0  0  0  0  0999 V2000
  161.3470  206.3140  149.8890 N   0  0  0  0  0  0  0  0  0  0  0  0
  161.8720  207.5310  150.5160 C   0  0  0  0  0  0  0  0  0  0  0  0
  161.7480  207.1380  147.6770 C   0  0  0  0  0  3  0  0  0  0  0  0
  161.2160  205.0450  150.5180 C   0  0  0  0  0  0  0  0  0  0  0  0
  160.9940  202.4420  151.4830 C   0  0  0  0  0  3  0  0  0  0  0  0
  161.9420  208.4480  148.2340 N   0  0  0  0  0  0  0  0  0  0  0  0
  161.1210  203.9810  149.6330 C   0  0  0  0  0  0  0  0  0  0  0  0
  161.0120  202.6700  150.1000 C   0  0  0  0  0  3  0  0  0  0  0  0
  162.0150  210.0360  150.0580 C   0  0  1  0  0  3  0  0  0  0  0  0
  162.5080  211.1700  149.2280 C   0  0  0  0  0  1  0  0  0  0  0  0
  161.0780  207.9450  151.7260 C   0  0  0  0  0  3  0  0  0  0  0  0
  161.0910  203.5180  152.3810 C   0  0  0  0  0  3  0  0  0  0  0  0
  161.4330  206.1230  148.4780 C   0  0  0  0  0  0  0  0  0  0  0  0
  161.1990  204.4380  147.9000 S   0  0  0  0  0  0  0  0  0  0  0  0
  161.5730  210.2670  151.2610 N   0  0  0  0  0  0  0  0  0  0  0  0
  161.2070  204.8300  151.9000 C   0  0  0  0  0  3  0  0  0  0  0  0
  161.0170  209.2320  152.0950 C   0  0  0  0  0  0  0  0  0  0  0  0
  161.9550  208.6680  149.5190 C   0  0  0  0  0  0  0  0  0  0  0  0
  160.2730  209.6060  153.3280 C   0  0  0  0  0  2  0  0  0  0  0  0
  160.0730  211.1160  153.3790 C   0  0  0  0  0  2  0  0  0  0  0  0
  158.1730  211.5610  154.9880 C   0  0  0  0  0  1  0  0  0  0  0  0
  158.6050  211.5120  153.5310 C   0  0  1  0  0  3  0  0  0  0  0  0
  158.2830  212.7880  152.8180 C   0  0  0  0  0  0  0  0  0  0  0  0
  157.0030  213.3280  152.8720 O   0  0  0  0  0  1  0  0  0  0  0  0
  159.2320  213.4170  152.1410 C   0  0  0  0  0  2  0  0  0  0  0  0
  1  2  1  0  0  0  0
  1  4  1  0  0  0  0
  2 11  2  0  0  0  0
  3  6  1  0  0  0  0
  3 13  2  0  0  0  0
  4 16  1  0  0  0  0
  5 12  1  0  0  0  0
  6 18  2  0  0  0  0
  7  8  1  0  0  0  0
  7  4  2  0  0  0  0
  8  5  2  0  0  0  0
  9 10  1  6  0  0  0
  9 15  1  0  0  0  0
 11 17  1  0  0  0  0
 13  1  1  0  0  0  0
 14 13  1  0  0  0  0
 14  7  1  0  0  0  0
 15 17  2  0  0  0  0
 16 12  2  0  0  0  0
 17 19  1  0  0  0  0
 18  9  1  0  0  0  0
 18  2  1  0  0  0  0
 19 20  1  0  0  0  0
 20 22  1  0  0  0  0
 22 21  1  1  0  0  0
 23 24  1  0  0  0  0
 23 22  1  0  0  0  0
 25 23  2  0  0  0  0
M  END
>  <MODEL>
7

>  <REMARK>
 VINA RESULT:      -7.6      2.697      3.101
  Name = 
  4 active torsions:
  status: ('A' for Active; 'I' for Inactive)
    1  A    between atoms: C_2  and  C_25
    2  A    between atoms: C_6  and  C_15
    3  A    between atoms: C_6  and  C_23
    4  A    between atoms: C_15  and  C_25
                            x       y       z     vdW  Elec       q    Type
                         _______ _______ _______ _____ _____    ______ ____

>  <TORSDO>
F 4

$$$$
=
 OpenBabel11052422193D

 25 28  0  0  1  0  0  0  0  0999 V2000
  161.2290  204.5180  147.5760 N   0  0  0  0  0  0  0  0  0  0  0  0
  161.8480  205.4380  148.5350 C   0  0  2  0  0  3  0  0  0  0  0  0
  161.1500  206.1770  145.8520 C   0  0  0  0  0  3  0  0  0  0  0  0
  161.2540  203.0980  147.6510 C   0  0  0  0  0  0  0  0  0  0  0  0
  161.2840  200.3160  147.5070 C   0  0  0  0  0  3  0  0  0  0  0  0
  161.4300  207.1770  146.8450 N   0  0  0  0  0  0  0  0  0  0  0  0
  160.9980  202.4610  146.4460 C   0  0  0  0  0  0  0  0  0  0  0  0
  161.0130  201.0680  146.3560 C   0  0  0  0  0  3  0  0  0  0  0  0
  161.8480  207.9230  149.1090 C   0  0  0  0  0  0  0  0  0  0  0  0
  162.1390  209.3340  148.7320 C   0  0  0  0  0  1  0  0  0  0  0  0
  161.3130  205.2640  149.9300 C   0  0  0  0  0  3  0  0  0  0  0  0
  161.5430  200.9590  148.7290 C   0  0  0  0  0  3  0  0  0  0  0  0
  161.0260  204.9030  146.2180 C   0  0  0  0  0  0  0  0  0  0  0  0
  160.7090  203.5650  145.0620 S   0  0  0  0  0  0  0  0  0  0  0  0
  161.6580  207.6190  150.3610 N   0  0  0  0  0  0  0  0  0  0  0  0
  161.5340  202.3590  148.8060 C   0  0  0  0  0  3  0  0  0  0  0  0
  161.3060  206.2900  150.7920 C   0  0  0  0  0  0  0  0  0  0  0  0
  161.7040  206.8760  148.0840 C   0  0  0  0  0  0  0  0  0  0  0  0
  160.8250  206.0750  152.1830 C   0  0  0  0  0  2  0  0  0  0  0  0
  161.6860  206.8660  153.1610 C   0  0  0  0  0  2  0  0  0  0  0  0
  160.8510  207.3110  155.5060 C   0  0  0  0  0  1  0  0  0  0  0  0
  160.8640  207.7860  154.0620 C   0  0  1  0  0  3  0  0  0  0  0  0
  161.2900  209.2160  153.9560 C   0  0  0  0  0  0  0  0  0  0  0  0
  161.9230  209.6850  152.8100 O   0  0  0  0  0  1  0  0  0  0  0  0
  161.0470  210.0480  154.9570 C   0  0  0  0  0  2  0  0  0  0  0  0
  1  4  1  0  0  0  0
  1  2  1  0  0  0  0
  2 11  1  1  0  0  0
  3 13  2  0  0  0  0
  3  6  1  0  0  0  0
  4 16  1  0  0  0  0
  5 12  1  0  0  0  0
  6 18  2  0  0  0  0
  7  4  2  0  0  0  0
  8  7  1  0  0  0  0
  8  5  2  0  0  0  0
  9 15  2  0  0  0  0
 10  9  1  0  0  0  0
 11 17  2  0  0  0  0
 12 16  2  0  0  0  0
 13  1  1  0  0  0  0
 14 13  1  0  0  0  0
 14  7  1  0  0  0  0
 15 17  1  0  0  0  0
 17 19  1  0  0  0  0
 18  2  1  0  0  0  0
 18  9  1  0  0  0  0
 19 20  1  0  0  0  0
 20 22  1  0  0  0  0
 22 21  1  1  0  0  0
 23 22  1  0  0  0  0
 23 25  2  0  0  0  0
 24 23  1  0  0  0  0
M  END
>  <MODEL>
8

>  <REMARK>
 VINA RESULT:      -7.3      1.941      2.705
  Name = 
  4 active torsions:
  status: ('A' for Active; 'I' for Inactive)
    1  A    between atoms: C_2  and  C_25
    2  A    between atoms: C_6  and  C_15
    3  A    between atoms: C_6  and  C_23
    4  A    between atoms: C_15  and  C_25
                            x       y       z     vdW  Elec       q    Type
                         _______ _______ _______ _____ _____    ______ ____

>  <TORSDO>
F 4

$$$$
=
 OpenBabel11052422193D

 25 28  0  0  1  0  0  0  0  0999 V2000
  161.3280  207.2720  151.1980 N   0  0  0  0  0  0  0  0  0  0  0  0
  161.8140  205.9410  150.8230 C   0  0  2  0  0  3  0  0  0  0  0  0
  160.8730  206.6030  153.4510 C   0  0  0  0  0  3  0  0  0  0  0  0
  161.6110  208.4850  150.5110 C   0  0  0  0  0  0  0  0  0  0  0  0
  162.1350  210.9960  149.4240 C   0  0  0  0  0  3  0  0  0  0  0  0
  161.0130  205.2340  153.0390 N   0  0  0  0  0  0  0  0  0  0  0  0
  161.4200  209.6270  151.2740 C   0  0  0  0  0  0  0  0  0  0  0  0
  161.6800  210.8930  150.7460 C   0  0  0  0  0  3  0  0  0  0  0  0
  161.3930  203.4930  151.4010 C   0  0  0  0  0  0  0  0  0  0  0  0
  161.4070  202.3810  152.3900 C   0  0  0  0  0  1  0  0  0  0  0  0
  161.3830  205.5380  149.4390 C   0  0  0  0  0  3  0  0  0  0  0  0
  162.3300  209.8400  148.6490 C   0  0  0  0  0  3  0  0  0  0  0  0
  160.9960  207.5760  152.5510 C   0  0  0  0  0  0  0  0  0  0  0  0
  160.8740  209.3220  152.9560 S   0  0  0  0  0  0  0  0  0  0  0  0
  161.3180  203.2200  150.1300 N   0  0  0  0  0  0  0  0  0  0  0  0
  162.0720  208.5740  149.1930 C   0  0  0  0  0  3  0  0  0  0  0  0
  161.2310  204.2450  149.1210 C   0  0  0  0  0  0  0  0  0  0  0  0
  161.3920  204.8990  151.8370 C   0  0  0  0  0  0  0  0  0  0  0  0
  160.8600  203.8720  147.7290 C   0  0  0  0  0  2  0  0  0  0  0  0
  161.8530  204.4790  146.7440 C   0  0  0  0  0  2  0  0  0  0  0  0
  160.4940  203.0360  145.1730 C   0  0  0  0  0  1  0  0  0  0  0  0
  161.5110  204.1600  145.2890 C   0  0  1  0  0  3  0  0  0  0  0  0
  161.0800  205.3730  144.5270 C   0  0  0  0  0  0  0  0  0  0  0  0
  161.5780  205.6260  143.2540 O   0  0  0  0  0  1  0  0  0  0  0  0
  160.2020  206.2060  145.0640 C   0  0  0  0  0  2  0  0  0  0  0  0
  1 13  1  0  0  0  0
  2 11  1  6  0  0  0
  2  1  1  0  0  0  0
  2 18  1  0  0  0  0
  4  1  1  0  0  0  0
  4  7  1  0  0  0  0
  5  8  1  0  0  0  0
  6  3  1  0  0  0  0
  7 14  1  0  0  0  0
  8  7  2  0  0  0  0
  9 18  1  0  0  0  0
  9 10  1  0  0  0  0
 12 16  1  0  0  0  0
 12  5  2  0  0  0  0
 13 14  1  0  0  0  0
 13  3  2  0  0  0  0
 15  9  2  0  0  0  0
 16  4  2  0  0  0  0
 17 11  2  0  0  0  0
 17 15  1  0  0  0  0
 18  6  2  0  0  0  0
 19 17  1  0  0  0  0
 20 19  1  0  0  0  0
 22 21  1  1  0  0  0
 22 20  1  0  0  0  0
 23 25  2  0  0  0  0
 23 22  1  0  0  0  0
 24 23  1  0  0  0  0
M  END
>  <MODEL>
9

>  <REMARK>
 VINA RESULT:      -7.2      3.890      8.027
  Name = 
  4 active torsions:
  status: ('A' for Active; 'I' for Inactive)
    1  A    between atoms: C_2  and  C_25
    2  A    between atoms: C_6  and  C_15
    3  A    between atoms: C_6  and  C_23
    4  A    between atoms: C_15  and  C_25
                            x       y       z     vdW  Elec       q    Type
                         _______ _______ _______ _____ _____    ______ ____

>  <TORSDO>
F 4

$$$$
