=
 OpenBabel11052422083D

 25 28  0  0  1  0  0  0  0  0999 V2000
  161.1660  206.2970  151.4390 N   0  0  0  0  0  0  0  0  0  0  0  0
  160.6810  205.5660  150.2690 C   0  0  1  0  0  3  0  0  0  0  0  0
  161.0780  204.3490  152.8270 C   0  0  0  0  0  3  0  0  0  0  0  0
  160.9770  207.7190  151.6800 C   0  0  1  0  0  3  0  0  0  0  0  0
  161.2530  210.2520  152.8310 C   0  0  0  0  0  2  0  0  0  0  0  0
  161.0430  203.5480  151.6320 N   0  0  0  0  0  0  0  0  0  0  0  0
  161.0170  207.8210  153.1800 C   0  0  0  0  0  0  0  0  0  0  0  0
  161.1470  209.1360  153.8740 C   0  0  0  0  0  2  0  0  0  0  0  0
  160.9780  203.2390  149.2350 C   0  0  0  0  0  0  0  0  0  0  0  0
  160.8100  201.8280  149.3150 N   0  0  0  0  0  1  0  0  0  0  0  0
  161.2950  206.0750  148.9910 C   0  0  0  0  0  3  0  0  0  0  0  0
  162.3080  209.9240  151.7610 C   0  0  0  0  0  2  0  0  0  0  0  0
  161.1470  205.6730  152.7120 C   0  0  0  0  0  0  0  0  0  0  0  0
  161.1140  206.6420  153.7880 C   0  0  0  0  0  3  0  0  0  0  0  0
  161.2560  203.8100  148.0600 C   0  0  0  0  0  3  0  0  0  0  0  0
  162.1270  208.5430  151.0910 C   0  0  0  0  0  2  0  0  0  0  0  0
  161.5080  205.2710  147.9410 C   0  0  0  0  0  0  0  0  0  0  0  0
  160.9150  204.0760  150.4440 C   0  0  0  0  0  0  0  0  0  0  0  0
  162.0050  205.8490  146.7630 O   0  0  0  0  0  0  0  0  0  0  0  0
  162.1320  205.2120  145.5200 C   0  0  0  0  0  0  0  0  0  0  0  0
  163.1300  204.4890  145.2510 O   0  0  0  0  0  0  0  0  0  0  0  0
  161.5260  205.7780  143.3130 F   0  0  0  0  0  0  0  0  0  0  0  0
  161.0260  205.3310  144.5220 C   0  0  0  0  0  0  0  0  0  0  0  0
  160.0870  206.2330  144.9860 F   0  0  0  0  0  0  0  0  0  0  0  0
  160.4240  204.1000  144.3320 F   0  0  0  0  0  0  0  0  0  0  0  0
  1  4  1  0  0  0  0
  1 13  1  0  0  0  0
  2 11  1  6  0  0  0
  2 18  1  0  0  0  0
  2  1  1  0  0  0  0
  4 16  1  6  0  0  0
  4  7  1  0  0  0  0
  5  8  1  0  0  0  0
  6  3  1  0  0  0  0
  7 14  2  0  0  0  0
  7  8  1  0  0  0  0
  9 10  1  0  0  0  0
  9 18  1  0  0  0  0
 12  5  1  0  0  0  0
 13  3  2  0  0  0  0
 13 14  1  0  0  0  0
 15  9  2  0  0  0  0
 16 12  1  0  0  0  0
 17 15  1  0  0  0  0
 17 11  2  0  0  0  0
 18  6  2  0  0  0  0
 19 17  1  0  0  0  0
 20 19  1  0  0  0  0
 21 20  2  0  0  0  0
 22 23  1  0  0  0  0
 23 24  1  0  0  0  0
 23 20  1  0  0  0  0
 25 23  1  0  0  0  0
M  END
>  <MODEL>
1

>  <REMARK>
 VINA RESULT:     -10.2      0.000      0.000
  Name = 
  3 active torsions:
  status: ('A' for Active; 'I' for Inactive)
    1  A    between atoms: O_6  and  C_15
    2  A    between atoms: O_6  and  C_23
    3  A    between atoms: C_7  and  C_15
                            x       y       z     vdW  Elec       q    Type
                         _______ _______ _______ _____ _____    ______ ____

>  <TORSDO>
F 3

$$$$
=
 OpenBabel11052422083D

 25 28  0  0  1  0  0  0  0  0999 V2000
  161.1620  206.4160  151.6200 N   0  0  0  0  0  0  0  0  0  0  0  0
  160.6330  205.6250  150.5110 C   0  0  1  0  0  3  0  0  0  0  0  0
  161.1860  204.5300  153.0950 C   0  0  0  0  0  3  0  0  0  0  0  0
  160.9570  207.8440  151.8090 C   0  0  1  0  0  3  0  0  0  0  0  0
  161.2400  210.4300  152.8310 C   0  0  0  0  0  2  0  0  0  0  0  0
  161.1060  203.6770  151.9400 N   0  0  0  0  0  0  0  0  0  0  0  0
  161.0720  208.0130  153.2990 C   0  0  0  0  0  0  0  0  0  0  0  0
  161.2110  209.3600  153.9270 C   0  0  0  0  0  2  0  0  0  0  0  0
  160.9240  203.2590  149.5650 C   0  0  0  0  0  0  0  0  0  0  0  0
  160.7890  201.8500  149.7160 N   0  0  0  0  0  1  0  0  0  0  0  0
  161.1710  206.0870  149.1820 C   0  0  0  0  0  3  0  0  0  0  0  0
  162.2450  210.0740  151.7230 C   0  0  0  0  0  2  0  0  0  0  0  0
  161.2220  205.8490  152.9190 C   0  0  0  0  0  0  0  0  0  0  0  0
  161.2240  206.8650  153.9510 C   0  0  0  0  0  3  0  0  0  0  0  0
  161.1300  203.7820  148.3530 C   0  0  0  0  0  3  0  0  0  0  0  0
  162.0580  208.6610  151.1250 C   0  0  0  0  0  2  0  0  0  0  0  0
  161.3450  205.2410  148.1570 C   0  0  0  0  0  0  0  0  0  0  0  0
  160.9060  204.1480  150.7380 C   0  0  0  0  0  0  0  0  0  0  0  0
  161.7690  205.7740  146.9310 O   0  0  0  0  0  0  0  0  0  0  0  0
  161.0920  205.6690  145.7070 C   0  0  0  0  0  0  0  0  0  0  0  0
  160.2110  206.5050  145.3690 O   0  0  0  0  0  0  0  0  0  0  0  0
  160.5870  203.5340  144.8440 F   0  0  0  0  0  0  0  0  0  0  0  0
  161.4790  204.5870  144.7510 C   0  0  0  0  0  0  0  0  0  0  0  0
  162.7480  204.1350  145.0590 F   0  0  0  0  0  0  0  0  0  0  0  0
  161.4680  205.0720  143.4560 F   0  0  0  0  0  0  0  0  0  0  0  0
  1  4  1  0  0  0  0
  1 13  1  0  0  0  0
  2 11  1  6  0  0  0
  2 18  1  0  0  0  0
  2  1  1  0  0  0  0
  4 16  1  6  0  0  0
  4  7  1  0  0  0  0
  5  8  1  0  0  0  0
  6  3  1  0  0  0  0
  7  8  1  0  0  0  0
  7 14  2  0  0  0  0
  9 10  1  0  0  0  0
  9 18  1  0  0  0  0
 12  5  1  0  0  0  0
 13  3  2  0  0  0  0
 13 14  1  0  0  0  0
 15  9  2  0  0  0  0
 16 12  1  0  0  0  0
 17 15  1  0  0  0  0
 17 11  2  0  0  0  0
 18  6  2  0  0  0  0
 19 17  1  0  0  0  0
 20 19  1  0  0  0  0
 21 20  2  0  0  0  0
 23 22  1  0  0  0  0
 23 24  1  0  0  0  0
 23 20  1  0  0  0  0
 25 23  1  0  0  0  0
M  END
>  <MODEL>
2

>  <REMARK>
 VINA RESULT:      -9.9      0.815      1.244
  Name = 
  3 active torsions:
  status: ('A' for Active; 'I' for Inactive)
    1  A    between atoms: O_6  and  C_15
    2  A    between atoms: O_6  and  C_23
    3  A    between atoms: C_7  and  C_15
                            x       y       z     vdW  Elec       q    Type
                         _______ _______ _______ _____ _____    ______ ____

>  <TORSDO>
F 3

$$$$
=
 OpenBabel11052422083D

 25 28  0  0  1  0  0  0  0  0999 V2000
  161.1540  205.4130  150.9820 N   0  0  0  0  0  0  0  0  0  0  0  0
  160.6690  204.4700  149.9760 C   0  0  1  0  0  3  0  0  0  0  0  0
  160.9930  203.7920  152.7360 C   0  0  0  0  0  3  0  0  0  0  0  0
  160.9990  206.8590  150.9250 C   0  0  1  0  0  3  0  0  0  0  0  0
  161.3240  209.5670  151.5410 C   0  0  0  0  0  2  0  0  0  0  0  0
  160.9560  202.7660  151.7290 N   0  0  0  0  0  0  0  0  0  0  0  0
  161.0180  207.2640  152.3740 C   0  0  0  0  0  0  0  0  0  0  0  0
  161.1720  208.6900  152.7870 C   0  0  0  0  0  2  0  0  0  0  0  0
  160.9200  201.9750  149.4440 C   0  0  0  0  0  0  0  0  0  0  0  0
  160.7140  200.6140  149.8070 N   0  0  0  0  0  1  0  0  0  0  0  0
  161.3160  204.6940  148.6350 C   0  0  0  0  0  3  0  0  0  0  0  0
  162.3860  209.0030  150.5820 C   0  0  0  0  0  2  0  0  0  0  0  0
  161.0990  205.0630  152.3550 C   0  0  0  0  0  0  0  0  0  0  0  0
  161.0740  206.2320  153.2100 C   0  0  0  0  0  3  0  0  0  0  0  0
  161.2320  202.2880  148.1830 C   0  0  0  0  0  3  0  0  0  0  0  0
  162.1790  207.5190  150.2040 C   0  0  0  0  0  2  0  0  0  0  0  0
  161.5240  203.6880  147.7740 C   0  0  0  0  0  0  0  0  0  0  0  0
  160.8610  203.0420  150.4560 C   0  0  0  0  0  0  0  0  0  0  0  0
  162.0540  204.0020  146.5140 O   0  0  0  0  0  0  0  0  0  0  0  0
  161.3190  204.2130  145.3380 C   0  0  0  0  0  0  0  0  0  0  0  0
  160.5710  203.3170  144.8600 O   0  0  0  0  0  0  0  0  0  0  0  0
  160.2420  206.2860  145.0210 F   0  0  0  0  0  0  0  0  0  0  0  0
  161.3650  205.5540  144.6810 C   0  0  0  0  0  0  0  0  0  0  0  0
  161.4020  205.3920  143.3090 F   0  0  0  0  0  0  0  0  0  0  0  0
  162.4920  206.2450  145.0900 F   0  0  0  0  0  0  0  0  0  0  0  0
  1 13  1  0  0  0  0
  2 11  1  6  0  0  0
  2 18  1  0  0  0  0
  2  1  1  0  0  0  0
  4 16  1  6  0  0  0
  4  1  1  0  0  0  0
  4  7  1  0  0  0  0
  5  8  1  0  0  0  0
  6  3  1  0  0  0  0
  7  8  1  0  0  0  0
  7 14  2  0  0  0  0
  9 10  1  0  0  0  0
  9 18  1  0  0  0  0
 12  5  1  0  0  0  0
 13  3  2  0  0  0  0
 13 14  1  0  0  0  0
 15  9  2  0  0  0  0
 16 12  1  0  0  0  0
 17 15  1  0  0  0  0
 17 11  2  0  0  0  0
 18  6  2  0  0  0  0
 19 17  1  0  0  0  0
 20 19  1  0  0  0  0
 21 20  2  0  0  0  0
 23 22  1  0  0  0  0
 23 25  1  0  0  0  0
 23 20  1  0  0  0  0
 24 23  1  0  0  0  0
M  END
>  <MODEL>
3

>  <REMARK>
 VINA RESULT:      -9.8      1.180      1.529
  Name = 
  3 active torsions:
  status: ('A' for Active; 'I' for Inactive)
    1  A    between atoms: O_6  and  C_15
    2  A    between atoms: O_6  and  C_23
    3  A    between atoms: C_7  and  C_15
                            x       y       z     vdW  Elec       q    Type
                         _______ _______ _______ _____ _____    ______ ____

>  <TORSDO>
F 3

$$$$
=
 OpenBabel11052422083D

 25 28  0  0  1  0  0  0  0  0999 V2000
  161.4040  205.7220  149.4800 N   0  0  0  0  0  0  0  0  0  0  0  0
  161.0510  207.0790  149.8940 C   0  0  1  0  0  3  0  0  0  0  0  0
  162.0680  206.4450  147.2970 C   0  0  0  0  0  3  0  0  0  0  0  0
  160.8100  204.5010  150.0040 C   0  0  1  0  0  3  0  0  0  0  0  0
  160.4060  201.7840  150.5210 C   0  0  0  0  0  2  0  0  0  0  0  0
  162.1590  207.7850  147.8120 N   0  0  0  0  0  0  0  0  0  0  0  0
  160.9710  203.5270  148.8690 C   0  0  0  0  0  0  0  0  0  0  0  0
  160.7590  202.0620  149.0570 C   0  0  0  0  0  2  0  0  0  0  0  0
  161.9450  209.4560  149.5470 C   0  0  0  0  0  0  0  0  0  0  0  0
  162.2320  210.5470  148.6770 N   0  0  0  0  0  1  0  0  0  0  0  0
  161.3420  207.3170  151.3530 C   0  0  0  0  0  3  0  0  0  0  0  0
  161.3930  202.4710  151.4790 C   0  0  0  0  0  2  0  0  0  0  0  0
  161.7110  205.4620  148.1200 C   0  0  0  0  0  0  0  0  0  0  0  0
  161.4910  204.0730  147.7730 C   0  0  0  0  0  3  0  0  0  0  0  0
  161.9100  209.6500  150.8680 C   0  0  0  0  0  3  0  0  0  0  0  0
  161.5810  203.9830  151.2220 C   0  0  0  0  0  2  0  0  0  0  0  0
  161.6830  208.5270  151.8160 C   0  0  0  0  0  0  0  0  0  0  0  0
  161.7520  208.0980  149.0130 C   0  0  0  0  0  0  0  0  0  0  0  0
  161.8520  208.6750  153.2010 O   0  0  0  0  0  0  0  0  0  0  0  0
  160.8260  208.8160  154.1480 C   0  0  0  0  0  0  0  0  0  0  0  0
  160.0570  209.8150  154.1400 O   0  0  0  0  0  0  0  0  0  0  0  0
  160.5320  206.5020  154.4910 F   0  0  0  0  0  0  0  0  0  0  0  0
  160.5940  207.7220  155.1390 C   0  0  0  0  0  0  0  0  0  0  0  0
  159.4010  207.9470  155.7990 F   0  0  0  0  0  0  0  0  0  0  0  0
  161.6260  207.6890  156.0600 F   0  0  0  0  0  0  0  0  0  0  0  0
  1  2  1  0  0  0  0
  1  4  1  0  0  0  0
  2 11  1  1  0  0  0
  3  6  1  0  0  0  0
  3 13  2  0  0  0  0
  4 16  1  1  0  0  0
  5 12  1  0  0  0  0
  6 18  2  0  0  0  0
  7  8  1  0  0  0  0
  7  4  1  0  0  0  0
  8  5  1  0  0  0  0
  9 15  2  0  0  0  0
 10  9  1  0  0  0  0
 11 17  2  0  0  0  0
 13  1  1  0  0  0  0
 14 13  1  0  0  0  0
 14  7  2  0  0  0  0
 15 17  1  0  0  0  0
 16 12  1  0  0  0  0
 17 19  1  0  0  0  0
 18  9  1  0  0  0  0
 18  2  1  0  0  0  0
 19 20  1  0  0  0  0
 20 23  1  0  0  0  0
 21 20  2  0  0  0  0
 22 23  1  0  0  0  0
 23 24  1  0  0  0  0
 23 25  1  0  0  0  0
M  END
>  <MODEL>
4

>  <REMARK>
 VINA RESULT:      -9.4      4.637      7.496
  Name = 
  3 active torsions:
  status: ('A' for Active; 'I' for Inactive)
    1  A    between atoms: O_6  and  C_15
    2  A    between atoms: O_6  and  C_23
    3  A    between atoms: C_7  and  C_15
                            x       y       z     vdW  Elec       q    Type
                         _______ _______ _______ _____ _____    ______ ____

>  <TORSDO>
F 3

$$$$
=
 OpenBabel11052422083D

 25 28  0  0  1  0  0  0  0  0999 V2000
  161.3220  208.1560  153.0910 N   0  0  0  0  0  0  0  0  0  0  0  0
  161.8220  207.3040  152.0130 C   0  0  1  0  0  3  0  0  0  0  0  0
  161.6880  210.1560  151.8270 C   0  0  0  0  0  3  0  0  0  0  0  0
  161.3690  207.8330  154.5090 C   0  0  1  0  0  3  0  0  0  0  0  0
  160.8800  207.9780  157.2570 C   0  0  0  0  0  2  0  0  0  0  0  0
  161.7490  209.3460  150.6400 N   0  0  0  0  0  0  0  0  0  0  0  0
  161.3940  209.1850  155.1670 C   0  0  0  0  0  0  0  0  0  0  0  0
  161.1580  209.3480  156.6320 C   0  0  0  0  0  2  0  0  0  0  0  0
  161.7250  207.2400  149.4520 C   0  0  0  0  0  0  0  0  0  0  0  0
  162.0480  207.8250  148.1940 N   0  0  0  0  0  1  0  0  0  0  0  0
  161.0930  205.9880  151.9480 C   0  0  0  0  0  3  0  0  0  0  0  0
  159.8140  207.2030  156.4650 C   0  0  0  0  0  2  0  0  0  0  0  0
  161.4720  209.5630  152.9990 C   0  0  0  0  0  0  0  0  0  0  0  0
  161.4550  210.1930  154.3030 C   0  0  0  0  0  3  0  0  0  0  0  0
  161.3280  205.9660  149.5110 C   0  0  0  0  0  3  0  0  0  0  0  0
  160.1080  207.0830  154.9520 C   0  0  0  0  0  2  0  0  0  0  0  0
  160.9150  205.3350  150.7920 C   0  0  0  0  0  0  0  0  0  0  0  0
  161.7590  208.0410  150.6860 C   0  0  0  0  0  0  0  0  0  0  0  0
  160.3000  204.0750  150.8390 O   0  0  0  0  0  0  0  0  0  0  0  0
  160.9460  202.8350  150.7120 C   0  0  0  0  0  0  0  0  0  0  0  0
  161.6420  202.3580  151.6480 O   0  0  0  0  0  0  0  0  0  0  0  0
  161.4860  200.8680  149.5320 F   0  0  0  0  0  0  0  0  0  0  0  0
  160.7400  202.0300  149.4700 C   0  0  0  0  0  0  0  0  0  0  0  0
  161.1390  202.7690  148.3730 F   0  0  0  0  0  0  0  0  0  0  0  0
  159.4030  201.6990  149.3360 F   0  0  0  0  0  0  0  0  0  0  0  0
  1  4  1  0  0  0  0
  2 11  1  6  0  0  0
  2  1  1  0  0  0  0
  3 13  2  0  0  0  0
  4 16  1  1  0  0  0
  4  7  1  0  0  0  0
  6 18  2  0  0  0  0
  6  3  1  0  0  0  0
  7  8  1  0  0  0  0
  8  5  1  0  0  0  0
  9 15  2  0  0  0  0
  9 18  1  0  0  0  0
 10  9  1  0  0  0  0
 12  5  1  0  0  0  0
 13  1  1  0  0  0  0
 13 14  1  0  0  0  0
 14  7  2  0  0  0  0
 15 17  1  0  0  0  0
 16 12  1  0  0  0  0
 17 19  1  0  0  0  0
 17 11  2  0  0  0  0
 18  2  1  0  0  0  0
 20 19  1  0  0  0  0
 20 21  2  0  0  0  0
 23 22  1  0  0  0  0
 23 20  1  0  0  0  0
 24 23  1  0  0  0  0
 25 23  1  0  0  0  0
M  END
>  <MODEL>
5

>  <REMARK>
 VINA RESULT:      -8.9      3.316      4.777
  Name = 
  3 active torsions:
  status: ('A' for Active; 'I' for Inactive)
    1  A    between atoms: O_6  and  C_15
    2  A    between atoms: O_6  and  C_23
    3  A    between atoms: C_7  and  C_15
                            x       y       z     vdW  Elec       q    Type
                         _______ _______ _______ _____ _____    ______ ____

>  <TORSDO>
F 3

$$$$
=
 OpenBabel11052422083D

 25 28  0  0  1  0  0  0  0  0999 V2000
  161.5680  206.1690  148.7480 N   0  0  0  0  0  0  0  0  0  0  0  0
  162.2230  207.3560  149.2940 C   0  0  1  0  0  3  0  0  0  0  0  0
  161.0660  205.3110  150.9250 C   0  0  0  0  0  3  0  0  0  0  0  0
  161.8750  205.5530  147.4650 C   0  0  1  0  0  3  0  0  0  0  0  0
  161.6570  203.9010  145.2210 C   0  0  0  0  0  2  0  0  0  0  0  0
  161.2860  206.6320  151.4520 N   0  0  0  0  0  0  0  0  0  0  0  0
  161.4860  204.1150  147.6730 C   0  0  0  0  0  0  0  0  0  0  0  0
  161.3630  203.1630  146.5300 C   0  0  0  0  0  2  0  0  0  0  0  0
  161.8880  208.9660  151.2610 C   0  0  0  0  0  0  0  0  0  0  0  0
  161.8480  209.2000  152.6650 N   0  0  0  0  0  1  0  0  0  0  0  0
  162.0070  208.5690  148.4270 C   0  0  0  0  0  3  0  0  0  0  0  0
  160.8590  205.2120  145.1220 C   0  0  0  0  0  2  0  0  0  0  0  0
  161.1980  205.1110  149.6170 C   0  0  0  0  0  0  0  0  0  0  0  0
  161.0940  203.8480  148.9150 C   0  0  0  0  0  3  0  0  0  0  0  0
  161.9780  209.9970  150.4170 C   0  0  0  0  0  3  0  0  0  0  0  0
  161.0170  206.1470  146.3430 C   0  0  0  0  0  2  0  0  0  0  0  0
  161.9530  209.8040  148.9420 C   0  0  0  0  0  0  0  0  0  0  0  0
  161.7640  207.6030  150.7210 C   0  0  0  0  0  0  0  0  0  0  0  0
  161.8350  210.8810  148.0510 O   0  0  0  0  0  0  0  0  0  0  0  0
  162.1210  212.2250  148.3360 C   0  0  0  0  0  0  0  0  0  0  0  0
  163.2950  212.6770  148.2590 O   0  0  0  0  0  0  0  0  0  0  0  0
  161.3480  214.4520  148.3350 F   0  0  0  0  0  0  0  0  0  0  0  0
  160.9980  213.1550  148.6640 C   0  0  0  0  0  0  0  0  0  0  0  0
  160.7270  213.0880  150.0170 F   0  0  0  0  0  0  0  0  0  0  0  0
  159.8660  212.8010  147.9520 F   0  0  0  0  0  0  0  0  0  0  0  0
  1  2  1  0  0  0  0
  1 13  1  0  0  0  0
  2 11  1  6  0  0  0
  2 18  1  0  0  0  0
  3  6  1  0  0  0  0
  4 16  1  6  0  0  0
  4  7  1  0  0  0  0
  4  1  1  0  0  0  0
  5  8  1  0  0  0  0
  7 14  2  0  0  0  0
  8  7  1  0  0  0  0
  9 10  1  0  0  0  0
 11 17  2  0  0  0  0
 12  5  1  0  0  0  0
 12 16  1  0  0  0  0
 13  3  2  0  0  0  0
 14 13  1  0  0  0  0
 15  9  2  0  0  0  0
 17 15  1  0  0  0  0
 18  9  1  0  0  0  0
 18  6  2  0  0  0  0
 19 20  1  0  0  0  0
 19 17  1  0  0  0  0
 20 23  1  0  0  0  0
 21 20  2  0  0  0  0
 22 23  1  0  0  0  0
 23 24  1  0  0  0  0
 25 23  1  0  0  0  0
M  END
>  <MODEL>
6

>  <REMARK>
 VINA RESULT:      -8.7      3.844      6.678
  Name = 
  3 active torsions:
  status: ('A' for Active; 'I' for Inactive)
    1  A    between atoms: O_6  and  C_15
    2  A    between atoms: O_6  and  C_23
    3  A    between atoms: C_7  and  C_15
                            x       y       z     vdW  Elec       q    Type
                         _______ _______ _______ _____ _____    ______ ____

>  <TORSDO>
F 3

$$$$
=
 OpenBabel11052422083D

 25 28  0  0  1  0  0  0  0  0999 V2000
  161.2430  204.9940  149.1550 N   0  0  0  0  0  0  0  0  0  0  0  0
  161.7610  205.7280  150.3080 C   0  0  1  0  0  3  0  0  0  0  0  0
  160.8310  203.0270  150.4550 C   0  0  0  0  0  3  0  0  0  0  0  0
  161.6190  205.2300  147.7690 C   0  0  1  0  0  3  0  0  0  0  0  0
  161.5900  205.0980  144.9770 C   0  0  0  0  0  2  0  0  0  0  0  0
  160.9030  203.8430  151.6380 N   0  0  0  0  0  0  0  0  0  0  0  0
  161.3900  203.8920  147.1200 C   0  0  0  0  0  0  0  0  0  0  0  0
  161.3750  203.7330  145.6360 C   0  0  0  0  0  2  0  0  0  0  0  0
  161.2460  205.9290  152.8110 C   0  0  0  0  0  0  0  0  0  0  0  0
  161.1760  205.3360  154.1040 N   0  0  0  0  0  1  0  0  0  0  0  0
  161.4160  207.1930  150.2470 C   0  0  0  0  0  3  0  0  0  0  0  0
  160.6540  206.1640  145.5700 C   0  0  0  0  0  2  0  0  0  0  0  0
  160.9880  203.6040  149.2670 C   0  0  0  0  0  0  0  0  0  0  0  0
  161.0260  202.9430  147.9780 C   0  0  0  0  0  3  0  0  0  0  0  0
  161.2250  207.2590  152.6880 C   0  0  0  0  0  3  0  0  0  0  0  0
  160.7040  206.2690  147.1120 C   0  0  0  0  0  2  0  0  0  0  0  0
  161.2250  207.9210  151.3560 C   0  0  0  0  0  0  0  0  0  0  0  0
  161.2740  205.0950  151.6000 C   0  0  0  0  0  0  0  0  0  0  0  0
  160.9920  209.2950  151.2050 O   0  0  0  0  0  0  0  0  0  0  0  0
  161.2140  210.2830  152.1780 C   0  0  0  0  0  0  0  0  0  0  0  0
  162.2900  210.3290  152.8330 O   0  0  0  0  0  0  0  0  0  0  0  0
  158.9300  210.7730  152.4930 F   0  0  0  0  0  0  0  0  0  0  0  0
  160.1840  211.3450  152.3860 C   0  0  0  0  0  0  0  0  0  0  0  0
  160.1970  212.2130  151.3110 F   0  0  0  0  0  0  0  0  0  0  0  0
  160.4570  212.0490  153.5450 F   0  0  0  0  0  0  0  0  0  0  0  0
  1 13  1  0  0  0  0
  1  2  1  0  0  0  0
  2 11  1  6  0  0  0
  2 18  1  0  0  0  0
  3  6  1  0  0  0  0
  4 16  1  6  0  0  0
  4  1  1  0  0  0  0
  5 12  1  0  0  0  0
  5  8  1  0  0  0  0
  7  4  1  0  0  0  0
  7 14  2  0  0  0  0
  8  7  1  0  0  0  0
  9 10  1  0  0  0  0
 11 17  2  0  0  0  0
 12 16  1  0  0  0  0
 13  3  2  0  0  0  0
 14 13  1  0  0  0  0
 15  9  2  0  0  0  0
 17 15  1  0  0  0  0
 18  6  2  0  0  0  0
 18  9  1  0  0  0  0
 19 17  1  0  0  0  0
 19 20  1  0  0  0  0
 20 23  1  0  0  0  0
 20 21  2  0  0  0  0
 23 22  1  0  0  0  0
 23 25  1  0  0  0  0
 24 23  1  0  0  0  0
M  END
>  <MODEL>
7

>  <REMARK>
 VINA RESULT:      -8.6      4.129      6.825
  Name = 
  3 active torsions:
  status: ('A' for Active; 'I' for Inactive)
    1  A    between atoms: O_6  and  C_15
    2  A    between atoms: O_6  and  C_23
    3  A    between atoms: C_7  and  C_15
                            x       y       z     vdW  Elec       q    Type
                         _______ _______ _______ _____ _____    ______ ____

>  <TORSDO>
F 3

$$$$
=
 OpenBabel11052422083D

 25 28  0  0  1  0  0  0  0  0999 V2000
  161.3090  205.3380  149.7920 N   0  0  0  0  0  0  0  0  0  0  0  0
  161.7680  206.1250  150.9340 C   0  0  1  0  0  3  0  0  0  0  0  0
  160.9450  203.3940  151.1400 C   0  0  0  0  0  3  0  0  0  0  0  0
  161.7100  205.5480  148.4090 C   0  0  1  0  0  3  0  0  0  0  0  0
  161.7570  205.3350  145.6220 C   0  0  0  0  0  2  0  0  0  0  0  0
  160.9540  204.2460  152.2990 N   0  0  0  0  0  0  0  0  0  0  0  0
  161.5520  204.1840  147.7950 C   0  0  0  0  0  0  0  0  0  0  0  0
  161.5810  203.9820  146.3160 C   0  0  0  0  0  2  0  0  0  0  0  0
  161.1820  206.3770  153.4170 C   0  0  0  0  0  0  0  0  0  0  0  0
  161.1040  205.8190  154.7250 N   0  0  0  0  0  1  0  0  0  0  0  0
  161.3640  207.5720  150.8210 C   0  0  0  0  0  3  0  0  0  0  0  0
  160.7630  206.3780  146.1610 C   0  0  0  0  0  2  0  0  0  0  0  0
  161.1090  203.9420  149.9390 C   0  0  0  0  0  0  0  0  0  0  0  0
  161.2060  203.2470  148.6710 C   0  0  0  0  0  3  0  0  0  0  0  0
  161.1090  207.7010  153.2540 C   0  0  0  0  0  3  0  0  0  0  0  0
  160.7700  206.5290  147.6990 C   0  0  0  0  0  2  0  0  0  0  0  0
  161.1160  208.3230  151.9030 C   0  0  0  0  0  0  0  0  0  0  0  0
  161.2740  205.5100  152.2320 C   0  0  0  0  0  0  0  0  0  0  0  0
  160.8300  209.6820  151.7060 O   0  0  0  0  0  0  0  0  0  0  0  0
  160.1640  210.5260  152.6080 C   0  0  0  0  0  0  0  0  0  0  0  0
  158.9900  210.9280  152.3860 O   0  0  0  0  0  0  0  0  0  0  0  0
  160.3480  210.1020  154.9190 F   0  0  0  0  0  0  0  0  0  0  0  0
  160.8320  210.8920  153.8930 C   0  0  0  0  0  0  0  0  0  0  0  0
  160.5750  212.2190  154.1810 F   0  0  0  0  0  0  0  0  0  0  0  0
  162.1990  210.7030  153.7870 F   0  0  0  0  0  0  0  0  0  0  0  0
  1 13  1  0  0  0  0
  1  2  1  0  0  0  0
  2 11  1  6  0  0  0
  2 18  1  0  0  0  0
  3  6  1  0  0  0  0
  4 16  1  6  0  0  0
  4  1  1  0  0  0  0
  5 12  1  0  0  0  0
  5  8  1  0  0  0  0
  7  4  1  0  0  0  0
  7 14  2  0  0  0  0
  8  7  1  0  0  0  0
  9 10  1  0  0  0  0
 11 17  2  0  0  0  0
 12 16  1  0  0  0  0
 13  3  2  0  0  0  0
 14 13  1  0  0  0  0
 15  9  2  0  0  0  0
 17 15  1  0  0  0  0
 18  6  2  0  0  0  0
 18  9  1  0  0  0  0
 19 17  1  0  0  0  0
 19 20  1  0  0  0  0
 20 23  1  0  0  0  0
 21 20  2  0  0  0  0
 23 24  1  0  0  0  0
 23 22  1  0  0  0  0
 25 23  1  0  0  0  0
M  END
>  <MODEL>
8

>  <REMARK>
 VINA RESULT:      -8.2      4.571      7.085
  Name = 
  3 active torsions:
  status: ('A' for Active; 'I' for Inactive)
    1  A    between atoms: O_6  and  C_15
    2  A    between atoms: O_6  and  C_23
    3  A    between atoms: C_7  and  C_15
                            x       y       z     vdW  Elec       q    Type
                         _______ _______ _______ _____ _____    ______ ____

>  <TORSDO>
F 3

$$$$
=
 OpenBabel11052422083D

 25 28  0  0  1  0  0  0  0  0999 V2000
  161.3530  205.1630  149.4130 N   0  0  0  0  0  0  0  0  0  0  0  0
  161.9400  206.0580  150.4080 C   0  0  1  0  0  3  0  0  0  0  0  0
  160.6120  203.6160  151.0830 C   0  0  0  0  0  3  0  0  0  0  0  0
  161.8030  205.0250  148.0350 C   0  0  1  0  0  3  0  0  0  0  0  0
  161.8400  204.2720  145.3430 C   0  0  0  0  0  2  0  0  0  0  0  0
  160.7690  204.6600  152.0610 N   0  0  0  0  0  0  0  0  0  0  0  0
  161.3960  203.6200  147.6820 C   0  0  0  0  0  0  0  0  0  0  0  0
  161.4030  203.1340  146.2700 C   0  0  0  0  0  2  0  0  0  0  0  0
  161.3850  206.8890  152.7690 C   0  0  0  0  0  0  0  0  0  0  0  0
  161.1870  206.6170  154.1520 N   0  0  0  0  0  1  0  0  0  0  0  0
  161.8200  207.5050  150.0060 C   0  0  0  0  0  3  0  0  0  0  0  0
  161.0560  205.5640  145.6290 C   0  0  0  0  0  2  0  0  0  0  0  0
  160.8900  203.8820  149.8090 C   0  0  0  0  0  0  0  0  0  0  0  0
  160.8680  202.9500  148.7010 C   0  0  0  0  0  3  0  0  0  0  0  0
  161.5660  208.1460  152.3560 C   0  0  0  0  0  3  0  0  0  0  0  0
  161.0750  206.0050  147.1100 C   0  0  0  0  0  2  0  0  0  0  0  0
  161.7070  208.4830  150.9140 C   0  0  0  0  0  0  0  0  0  0  0  0
  161.3240  205.8070  151.7730 C   0  0  0  0  0  0  0  0  0  0  0  0
  161.6870  209.8070  150.4520 O   0  0  0  0  0  0  0  0  0  0  0  0
  162.0250  210.2370  149.1600 C   0  0  0  0  0  0  0  0  0  0  0  0
  162.4190  209.4250  148.2800 O   0  0  0  0  0  0  0  0  0  0  0  0
  161.1450  211.7770  147.6070 F   0  0  0  0  0  0  0  0  0  0  0  0
  161.8400  211.6750  148.7980 C   0  0  0  0  0  0  0  0  0  0  0  0
  163.0770  212.2740  148.6550 F   0  0  0  0  0  0  0  0  0  0  0  0
  161.1290  212.3260  149.7900 F   0  0  0  0  0  0  0  0  0  0  0  0
  1 13  1  0  0  0  0
  1  2  1  0  0  0  0
  2 11  1  6  0  0  0
  2 18  1  0  0  0  0
  3  6  1  0  0  0  0
  4 16  1  6  0  0  0
  4  1  1  0  0  0  0
  5 12  1  0  0  0  0
  5  8  1  0  0  0  0
  7  4  1  0  0  0  0
  7 14  2  0  0  0  0
  8  7  1  0  0  0  0
  9 10  1  0  0  0  0
 11 17  2  0  0  0  0
 12 16  1  0  0  0  0
 13  3  2  0  0  0  0
 14 13  1  0  0  0  0
 15  9  2  0  0  0  0
 17 15  1  0  0  0  0
 18  6  2  0  0  0  0
 18  9  1  0  0  0  0
 19 17  1  0  0  0  0
 20 19  1  0  0  0  0
 21 20  2  0  0  0  0
 22 23  1  0  0  0  0
 23 20  1  0  0  0  0
 23 25  1  0  0  0  0
 24 23  1  0  0  0  0
M  END
>  <MODEL>
9

>  <REMARK>
 VINA RESULT:      -8.0      3.197      6.035
  Name = 
  3 active torsions:
  status: ('A' for Active; 'I' for Inactive)
    1  A    between atoms: O_6  and  C_15
    2  A    between atoms: O_6  and  C_23
    3  A    between atoms: C_7  and  C_15
                            x       y       z     vdW  Elec       q    Type
                         _______ _______ _______ _____ _____    ______ ____

>  <TORSDO>
F 3

$$$$
