=
 OpenBabel11062410533D

 32 37  0  0  1  0  0  0  0  0999 V2000
  160.5670  202.2370  148.3630 C   0  0  2  0  0  3  0  0  0  0  0  0
  161.2340  206.2410  151.5040 C   0  0  0  0  0  0  0  0  0  0  0  0
  161.7600  209.9740  148.4580 C   0  0  0  0  0  3  0  0  0  0  0  0
  161.7710  210.8170  149.4960 C   0  0  0  0  0  3  0  0  0  0  0  0
  160.8990  206.7450  153.9220 C   0  0  0  0  0  0  0  0  0  0  0  0
  160.9230  207.7050  154.9280 C   0  0  0  0  0  0  0  0  0  0  0  0
  160.9390  203.9900  150.5980 C   0  0  0  0  0  0  0  0  0  0  0  0
  161.5750  205.8070  149.1290 C   0  0  0  0  0  3  0  0  0  0  0  0
  161.1700  209.6630  155.8770 C   0  0  0  0  0  0  0  0  0  0  0  0
  161.3440  203.5330  148.1330 C   0  0  0  0  0  2  0  0  0  0  0  0
  162.2470  208.5650  148.6350 C   0  0  0  0  0  2  0  0  0  0  0  0
  161.5660  206.7040  150.2100 C   0  0  0  0  0  0  0  0  0  0  0  0
  161.8830  208.0570  150.0130 C   0  0  0  0  0  0  0  0  0  0  0  0
  161.5640  208.5200  152.3380 C   0  0  0  0  0  0  0  0  0  0  0  0
  160.8100  208.8040  156.8580 N   0  0  0  0  0  0  0  0  0  0  0  0
  160.9630  201.6380  149.7060 C   0  0  0  0  0  2  0  0  0  0  0  0
  161.2490  204.4640  149.3090 C   0  0  0  0  0  0  0  0  0  0  0  0
  160.6550  207.5880  156.2780 C   0  0  0  0  0  3  0  0  0  0  0  0
  160.5170  202.5670  150.8340 C   0  0  0  0  0  2  0  0  0  0  0  0
  162.2740  210.3350  150.8290 C   0  0  0  0  0  2  0  0  0  0  0  0
  161.8780  208.9360  151.0680 N   0  0  0  0  0  0  0  0  0  0  0  0
  161.5700  209.4490  153.4050 C   0  0  0  0  0  3  0  0  0  0  0  0
  160.9190  204.8810  151.6720 C   0  0  0  0  0  3  0  0  0  0  0  0
  160.5720  205.4660  154.2420 F   0  0  0  0  0  0  0  0  0  0  0  0
  161.4380  211.1100  156.1010 C   0  0  0  0  0  1  0  0  0  0  0  0
  161.2260  207.1470  152.5910 C   0  0  0  0  0  0  0  0  0  0  0  0
  161.2450  209.0020  154.6770 C   0  0  0  0  0  0  0  0  0  0  0  0
  160.8540  201.3310  147.3410 O   0  0  0  0  0  0  0  0  0  0  0  0
  161.0780  202.1220  146.2130 C   0  0  0  0  0  2  0  0  0  0  0  0
  160.1650  201.7000  145.1180 C   0  0  0  0  0  0  0  0  0  0  0  0
  159.3790  202.6430  144.4680 O   0  0  0  0  0  0  0  0  0  0  0  0
  160.0830  200.4860  144.8000 O   0  0  0  0  0  1  0  0  0  0  0  0
  1 28  1  6  0  0  0
  1 16  1  0  0  0  0
  2 23  1  0  0  0  0
  2 26  2  0  0  0  0
  3 11  1  0  0  0  0
  3  4  2  0  0  0  0
  4 20  1  0  0  0  0
  5 24  1  0  0  0  0
  5  6  2  0  0  0  0
  6 18  1  0  0  0  0
  7 19  1  0  0  0  0
  7 23  2  0  0  0  0
  8 17  2  0  0  0  0
  8 12  1  0  0  0  0
  9 25  1  0  0  0  0
  9 15  1  0  0  0  0
 10  1  1  0  0  0  0
 10 17  1  0  0  0  0
 11 13  1  0  0  0  0
 12  2  1  0  0  0  0
 13 12  2  0  0  0  0
 13 21  1  0  0  0  0
 14 26  1  0  0  0  0
 14 22  2  0  0  0  0
 16 19  1  0  0  0  0
 17  7  1  0  0  0  0
 18 15  2  0  0  0  0
 20 21  1  0  0  0  0
 21 14  1  0  0  0  0
 22 27  1  0  0  0  0
 26  5  1  0  0  0  0
 27  6  1  0  0  0  0
 27  9  2  0  0  0  0
 29 28  1  0  0  0  0
 30 29  1  0  0  0  0
 31 30  2  0  0  0  0
 32 30  1  0  0  0  0
M  END
>  <MODEL>
1

>  <REMARK>
 VINA RESULT:     -11.2      0.000      0.000
  Name = 
  3 active torsions:
  status: ('A' for Active; 'I' for Inactive)
    1  A    between atoms: C_1  and  C_10
    2  A    between atoms: C_2  and  O_24
    3  A    between atoms: C_10  and  O_24
                            x       y       z     vdW  Elec       q    Type
                         _______ _______ _______ _____ _____    ______ ____

>  <TORSDO>
F 3

$$$$
=
 OpenBabel11062410533D

 32 37  0  0  1  0  0  0  0  0999 V2000
  161.3310  208.9790  156.3860 C   0  0  2  0  0  3  0  0  0  0  0  0
  161.0200  206.1640  152.1050 C   0  0  0  0  0  0  0  0  0  0  0  0
  162.4350  209.2440  148.6400 C   0  0  0  0  0  3  0  0  0  0  0  0
  162.3860  208.2540  147.7430 C   0  0  0  0  0  3  0  0  0  0  0  0
  160.8200  203.7510  151.5130 C   0  0  0  0  0  0  0  0  0  0  0  0
  160.8030  202.7960  150.5030 C   0  0  0  0  0  0  0  0  0  0  0  0
  160.8890  206.9440  154.4180 C   0  0  0  0  0  0  0  0  0  0  0  0
  161.2250  208.5370  152.6260 C   0  0  0  0  0  3  0  0  0  0  0  0
  160.8820  201.9600  148.4800 C   0  0  0  0  0  0  0  0  0  0  0  0
  161.0520  209.4220  154.9510 C   0  0  0  0  0  2  0  0  0  0  0  0
  161.5340  209.2080  149.8410 C   0  0  0  0  0  2  0  0  0  0  0  0
  161.1990  207.5010  151.6790 C   0  0  0  0  0  0  0  0  0  0  0  0
  161.3500  207.7820  150.3120 C   0  0  0  0  0  0  0  0  0  0  0  0
  161.1480  205.4630  149.7620 C   0  0  0  0  0  0  0  0  0  0  0  0
  160.7010  200.9150  149.3200 N   0  0  0  0  0  0  0  0  0  0  0  0
  160.4320  207.8010  156.7390 C   0  0  0  0  0  2  0  0  0  0  0  0
  161.0890  208.2690  153.9870 C   0  0  0  0  0  0  0  0  0  0  0  0
  160.6500  201.4250  150.5760 C   0  0  0  0  0  3  0  0  0  0  0  0
  160.8040  206.5950  155.8780 C   0  0  0  0  0  2  0  0  0  0  0  0
  161.4250  207.1160  147.9550 C   0  0  0  0  0  2  0  0  0  0  0  0
  161.3220  206.7710  149.3840 N   0  0  0  0  0  0  0  0  0  0  0  0
  161.1210  204.4430  148.7820 C   0  0  0  0  0  3  0  0  0  0  0  0
  160.8740  205.9110  153.4800 C   0  0  0  0  0  3  0  0  0  0  0  0
  160.6660  203.3480  152.8010 F   0  0  0  0  0  0  0  0  0  0  0  0
  160.9910  201.8240  147.0020 C   0  0  0  0  0  1  0  0  0  0  0  0
  160.9950  205.1220  151.1490 C   0  0  0  0  0  0  0  0  0  0  0  0
  160.9480  203.1310  149.1930 C   0  0  0  0  0  0  0  0  0  0  0  0
  161.0830  210.0370  157.2610 O   0  0  0  0  0  0  0  0  0  0  0  0
  161.2070  211.1860  156.4770 C   0  0  0  0  0  2  0  0  0  0  0  0
  160.1390  212.1550  156.8400 C   0  0  0  0  0  0  0  0  0  0  0  0
  158.8140  211.7400  156.8940 O   0  0  0  0  0  0  0  0  0  0  0  0
  160.4310  213.3570  157.0700 O   0  0  0  0  0  1  0  0  0  0  0  0
  1 16  1  0  0  0  0
  1 28  1  1  0  0  0
  2 23  1  0  0  0  0
  3 11  1  0  0  0  0
  4 20  1  0  0  0  0
  4  3  2  0  0  0  0
  5 24  1  0  0  0  0
  6 18  1  0  0  0  0
  6  5  2  0  0  0  0
  7 19  1  0  0  0  0
  8 17  2  0  0  0  0
  9 27  2  0  0  0  0
  9 15  1  0  0  0  0
 10  1  1  0  0  0  0
 11 13  1  0  0  0  0
 12  2  1  0  0  0  0
 12  8  1  0  0  0  0
 13 12  2  0  0  0  0
 14 26  1  0  0  0  0
 15 18  2  0  0  0  0
 17  7  1  0  0  0  0
 17 10  1  0  0  0  0
 19 16  1  0  0  0  0
 20 21  1  0  0  0  0
 21 14  1  0  0  0  0
 21 13  1  0  0  0  0
 22 27  1  0  0  0  0
 22 14  2  0  0  0  0
 23  7  2  0  0  0  0
 25  9  1  0  0  0  0
 26  5  1  0  0  0  0
 26  2  2  0  0  0  0
 27  6  1  0  0  0  0
 29 30  1  0  0  0  0
 29 28  1  0  0  0  0
 30 31  2  0  0  0  0
 30 32  1  0  0  0  0
M  END
>  <MODEL>
2

>  <REMARK>
 VINA RESULT:      -9.9      4.815      8.447
  Name = 
  3 active torsions:
  status: ('A' for Active; 'I' for Inactive)
    1  A    between atoms: C_1  and  C_10
    2  A    between atoms: C_2  and  O_24
    3  A    between atoms: C_10  and  O_24
                            x       y       z     vdW  Elec       q    Type
                         _______ _______ _______ _____ _____    ______ ____

>  <TORSDO>
F 3

$$$$
