=
 OpenBabel11052422383D

 31 35  0  0  0  0  0  0  0  0999 V2000
  161.2370  206.8000  150.9250 C   0  0  0  0  0  0  0  0  0  0  0  0
  160.7580  205.3900  150.6550 C   0  0  0  0  0  0  0  0  0  0  0  0
  161.3540  203.0580  151.2500 C   0  0  0  0  0  0  0  0  0  0  0  0
  161.2770  207.3310  152.1520 C   0  0  0  0  0  0  0  0  0  0  0  0
  160.9690  207.6840  154.2470 C   0  0  0  0  0  0  0  0  0  0  0  0
  161.3060  204.3490  151.6000 C   0  0  0  0  0  3  0  0  0  0  0  0
  161.7300  209.1840  150.0330 C   0  0  0  0  0  0  0  0  0  0  0  0
  161.1950  205.8390  148.2390 C   0  0  0  0  0  3  0  0  0  0  0  0
  161.7820  202.1380  152.1470 F   0  0  0  0  0  0  0  0  0  0  0  0
  161.7690  209.6270  151.3010 C   0  0  0  0  0  3  0  0  0  0  0  0
  161.4720  207.7320  149.7790 C   0  0  0  0  0  0  0  0  0  0  0  0
  160.8940  206.7170  153.3770 N   0  0  0  0  0  0  0  0  0  0  0  0
  161.0180  202.6310  149.8730 C   0  0  0  0  0  3  0  0  0  0  0  0
  161.5870  208.6860  152.3590 N   0  0  0  0  0  0  0  0  0  0  0  0
  161.3710  208.9520  153.7070 N   0  0  0  0  0  2  0  0  0  0  0  0
  161.4260  207.2650  148.5270 C   0  0  0  0  0  3  0  0  0  0  0  0
  160.9400  204.9620  149.2130 C   0  0  0  0  0  0  0  0  0  0  0  0
  160.8370  203.5290  148.8990 C   0  0  0  0  0  2  0  0  0  0  0  0
  161.0970  212.0520  149.8680 O   0  0  0  0  0  0  0  0  0  0  0  0
  161.5950  211.4760  148.8650 C   0  0  0  0  0  0  0  0  0  0  0  0
  161.9150  210.0770  148.9210 N   0  0  0  0  0  2  0  0  0  0  0  0
  162.5090  213.5870  145.2980 C   0  0  0  0  0  0  0  0  0  0  0  0
  163.1620  212.4180  147.2550 N   0  0  0  0  0  0  0  0  0  0  0  0
  159.1290  212.5540  147.0870 Cl  0  0  0  0  0  0  0  0  0  0  0  0
  162.9240  214.4530  143.8350 Cl  0  0  0  0  0  0  0  0  0  0  0  0
  163.5080  213.0860  146.1250 C   0  0  0  0  0  3  0  0  0  0  0  0
  160.8490  212.7320  146.7630 C   0  0  0  0  0  0  0  0  0  0  0  0
  161.8620  212.2180  147.6110 C   0  0  0  0  0  0  0  0  0  0  0  0
  161.2080  213.3990  145.6350 N   0  0  0  0  0  0  0  0  0  0  0  0
  160.6530  207.4970  155.6350 C   0  0  0  0  0  0  0  0  0  0  0  0
  160.3980  207.3450  156.7530 N   0  0  0  0  0  0  0  0  0  0  0  0
  1  4  2  0  0  0  0
  2  1  1  0  0  0  0
  2  6  2  0  0  0  0
  3  6  1  0  0  0  0
  3  9  1  0  0  0  0
  4 14  1  0  0  0  0
  4 12  1  0  0  0  0
  5 30  1  0  0  0  0
  7 10  2  0  0  0  0
  8 16  1  0  0  0  0
  8 17  2  0  0  0  0
 10 14  1  0  0  0  0
 11  7  1  0  0  0  0
 11  1  1  0  0  0  0
 12  5  2  0  0  0  0
 13  3  2  0  0  0  0
 14 15  1  0  0  0  0
 15  5  1  0  0  0  0
 16 11  2  0  0  0  0
 17  2  1  0  0  0  0
 18 17  1  0  0  0  0
 18 13  1  0  0  0  0
 20 21  1  0  0  0  0
 20 19  2  0  0  0  0
 21  7  1  0  0  0  0
 22 29  2  0  0  0  0
 22 26  1  0  0  0  0
 23 28  1  0  0  0  0
 25 22  1  0  0  0  0
 26 23  2  0  0  0  0
 27 24  1  0  0  0  0
 27 28  2  0  0  0  0
 28 20  1  0  0  0  0
 29 27  1  0  0  0  0
 30 31  3  0  0  0  0
M  END
>  <MODEL>
1

>  <REMARK>
 VINA RESULT:      -9.6      0.000      0.000
  Name = 
  3 active torsions:
  status: ('A' for Active; 'I' for Inactive)
    1  A    between atoms: C_2  and  C_13
    2  A    between atoms: C_9  and  C_22
    3  A    between atoms: C_15  and  N_23
                            x       y       z     vdW  Elec       q    Type
                         _______ _______ _______ _____ _____    ______ ____

>  <TORSDO>
F 3

$$$$
=
 OpenBabel11052422383D

 31 35  0  0  1  0  0  0  0  0999 V2000
  161.5060  208.7290  151.3010 C   0  0  0  0  0  0  0  0  0  0  0  0
  161.0490  209.0350  152.7120 C   0  0  2  0  0  3  0  0  0  0  0  0
  161.8470  210.2460  154.7230 C   0  0  0  0  0  0  0  0  0  0  0  0
  161.7440  209.6820  150.3920 C   0  0  0  0  0  0  0  0  0  0  0  0
  161.8030  211.5600  149.3560 C   0  0  0  0  0  0  0  0  0  0  0  0
  161.8060  210.1520  153.3880 C   0  0  0  0  0  3  0  0  0  0  0  0
  161.7220  207.0240  149.3610 C   0  0  0  0  0  0  0  0  0  0  0  0
  161.0220  206.5700  153.1020 C   0  0  0  0  0  3  0  0  0  0  0  0
  162.4710  211.3020  155.2990 F   0  0  0  0  0  0  0  0  0  0  0  0
  161.9700  208.0440  148.5210 C   0  0  0  0  0  3  0  0  0  0  0  0
  161.4880  207.3170  150.8090 C   0  0  0  0  0  0  0  0  0  0  0  0
  161.6160  211.0890  150.5570 N   0  0  0  0  0  0  0  0  0  0  0  0
  161.2880  209.1760  155.5780 C   0  0  0  0  0  3  0  0  0  0  0  0
  162.0250  209.3670  149.0520 N   0  0  0  0  0  0  0  0  0  0  0  0
  162.0440  210.5670  148.3480 N   0  0  0  0  0  2  0  0  0  0  0  0
  161.2370  206.3210  151.6670 C   0  0  0  0  0  3  0  0  0  0  0  0
  160.9870  207.8080  153.6000 C   0  0  0  0  0  0  0  0  0  0  0  0
  160.8930  208.0120  155.0530 C   0  0  0  0  0  3  0  0  0  0  0  0
  160.4320  205.9820  146.9310 O   0  0  0  0  0  0  0  0  0  0  0  0
  161.0230  205.1810  147.7020 C   0  0  0  0  0  0  0  0  0  0  0  0
  161.6630  205.6650  148.8930 N   0  0  0  0  0  2  0  0  0  0  0  0
  161.1770  201.0600  146.7010 C   0  0  0  0  0  0  0  0  0  0  0  0
  161.1450  203.3520  146.0970 N   0  0  0  0  0  0  0  0  0  0  0  0
  160.9670  203.0470  150.1200 Cl  0  0  0  0  0  0  0  0  0  0  0  0
  161.2420  199.3700  146.2500 Cl  0  0  0  0  0  0  0  0  0  0  0  0
  161.1970  202.0490  145.7230 C   0  0  0  0  0  3  0  0  0  0  0  0
  161.0550  202.7180  148.3940 C   0  0  0  0  0  0  0  0  0  0  0  0
  161.0740  203.7310  147.4040 C   0  0  0  0  0  0  0  0  0  0  0  0
  161.1060  201.4160  148.0080 N   0  0  0  0  0  0  0  0  0  0  0  0
  161.7530  212.9650  149.0640 C   0  0  0  0  0  0  0  0  0  0  0  0
  161.7120  214.0970  148.8300 N   0  0  0  0  0  0  0  0  0  0  0  0
  1  2  1  0  0  0  0
  2  6  1  1  0  0  0
  2 17  1  0  0  0  0
  3  9  1  0  0  0  0
  3 13  1  0  0  0  0
  4 12  1  0  0  0  0
  4  1  2  0  0  0  0
  5 12  2  0  0  0  0
  6  3  2  0  0  0  0
  7 11  1  0  0  0  0
  8 17  2  0  0  0  0
 10 14  1  0  0  0  0
 10  7  2  0  0  0  0
 11  1  1  0  0  0  0
 11 16  2  0  0  0  0
 14  4  1  0  0  0  0
 15 14  1  0  0  0  0
 15  5  1  0  0  0  0
 16  8  1  0  0  0  0
 17 18  1  0  0  0  0
 18 13  2  0  0  0  0
 19 20  2  0  0  0  0
 20 21  1  0  0  0  0
 21  7  1  0  0  0  0
 22 29  1  0  0  0  0
 23 28  2  0  0  0  0
 25 22  1  0  0  0  0
 26 23  1  0  0  0  0
 26 22  2  0  0  0  0
 27 24  1  0  0  0  0
 28 20  1  0  0  0  0
 28 27  1  0  0  0  0
 29 27  2  0  0  0  0
 30  5  1  0  0  0  0
 31 30  3  0  0  0  0
M  END
>  <MODEL>
2

>  <REMARK>
 VINA RESULT:      -9.1      4.472      7.787
  Name = 
  3 active torsions:
  status: ('A' for Active; 'I' for Inactive)
    1  A    between atoms: C_2  and  C_13
    2  A    between atoms: C_9  and  C_22
    3  A    between atoms: C_15  and  N_23
                            x       y       z     vdW  Elec       q    Type
                         _______ _______ _______ _____ _____    ______ ____

>  <TORSDO>
F 3

$$$$
=
 OpenBabel11052422383D

 31 35  0  0  1  0  0  0  0  0999 V2000
  161.0840  204.0490  147.4490 C   0  0  0  0  0  0  0  0  0  0  0  0
  161.5590  202.6170  147.3330 C   0  0  2  0  0  3  0  0  0  0  0  0
  160.9190  200.5140  146.1840 C   0  0  0  0  0  0  0  0  0  0  0  0
  161.0070  204.8760  146.4010 C   0  0  0  0  0  0  0  0  0  0  0  0
  161.2470  205.7530  144.4560 C   0  0  0  0  0  0  0  0  0  0  0  0
  160.9670  201.8520  146.1740 C   0  0  0  0  0  3  0  0  0  0  0  0
  160.6470  206.1260  148.9380 C   0  0  0  0  0  0  0  0  0  0  0  0
  161.2090  202.4330  149.7970 C   0  0  0  0  0  3  0  0  0  0  0  0
  160.4510  199.8540  145.0970 F   0  0  0  0  0  0  0  0  0  0  0  0
  160.5690  206.8780  147.8270 C   0  0  0  0  0  3  0  0  0  0  0  0
  160.8980  204.6580  148.8030 C   0  0  0  0  0  0  0  0  0  0  0  0
  161.3420  204.5950  145.0470 N   0  0  0  0  0  0  0  0  0  0  0  0
  161.2980  199.7500  147.3930 C   0  0  0  0  0  3  0  0  0  0  0  0
  160.7040  206.2390  146.5590 N   0  0  0  0  0  0  0  0  0  0  0  0
  160.8770  206.8410  145.3160 N   0  0  0  0  0  2  0  0  0  0  0  0
  160.9830  203.8850  149.8920 C   0  0  0  0  0  3  0  0  0  0  0  0
  161.4220  201.8340  148.6230 C   0  0  0  0  0  0  0  0  0  0  0  0
  161.5220  200.3680  148.5560 C   0  0  0  0  0  3  0  0  0  0  0  0
  162.6410  207.6350  150.4880 O   0  0  0  0  0  0  0  0  0  0  0  0
  161.5010  207.4370  150.9850 C   0  0  0  0  0  0  0  0  0  0  0  0
  160.5090  206.7050  150.2470 N   0  0  0  0  0  2  0  0  0  0  0  0
  160.5030  209.0410  154.7850 C   0  0  0  0  0  0  0  0  0  0  0  0
  160.9500  209.2880  152.4690 N   0  0  0  0  0  0  0  0  0  0  0  0
  161.2580  205.3860  153.4620 Cl  0  0  0  0  0  0  0  0  0  0  0  0
  160.0900  209.7390  156.3360 Cl  0  0  0  0  0  0  0  0  0  0  0  0
  160.6280  209.8520  153.6610 C   0  0  0  0  0  3  0  0  0  0  0  0
  161.0250  207.1290  153.4800 C   0  0  0  0  0  0  0  0  0  0  0  0
  161.1550  207.9480  152.3310 C   0  0  0  0  0  0  0  0  0  0  0  0
  160.7030  207.7040  154.6690 N   0  0  0  0  0  0  0  0  0  0  0  0
  161.5130  205.9260  143.0560 C   0  0  0  0  0  0  0  0  0  0  0  0
  161.7260  206.0660  141.9280 N   0  0  0  0  0  0  0  0  0  0  0  0
  1 11  1  0  0  0  0
  2  6  1  6  0  0  0
  2  1  1  0  0  0  0
  2 17  1  0  0  0  0
  3 13  1  0  0  0  0
  4 14  1  0  0  0  0
  4  1  2  0  0  0  0
  5 12  2  0  0  0  0
  5 15  1  0  0  0  0
  6  3  2  0  0  0  0
  7 21  1  0  0  0  0
  8 16  1  0  0  0  0
  9  3  1  0  0  0  0
 10  7  2  0  0  0  0
 11  7  1  0  0  0  0
 11 16  2  0  0  0  0
 12  4  1  0  0  0  0
 13 18  2  0  0  0  0
 14 10  1  0  0  0  0
 15 14  1  0  0  0  0
 17  8  2  0  0  0  0
 18 17  1  0  0  0  0
 19 20  2  0  0  0  0
 20 28  1  0  0  0  0
 21 20  1  0  0  0  0
 22 25  1  0  0  0  0
 23 26  1  0  0  0  0
 24 27  1  0  0  0  0
 26 22  2  0  0  0  0
 27 29  2  0  0  0  0
 28 23  2  0  0  0  0
 28 27  1  0  0  0  0
 29 22  1  0  0  0  0
 30  5  1  0  0  0  0
 31 30  3  0  0  0  0
M  END
>  <MODEL>
3

>  <REMARK>
 VINA RESULT:      -9.1      4.674      7.596
  Name = 
  3 active torsions:
  status: ('A' for Active; 'I' for Inactive)
    1  A    between atoms: C_2  and  C_13
    2  A    between atoms: C_9  and  C_22
    3  A    between atoms: C_15  and  N_23
                            x       y       z     vdW  Elec       q    Type
                         _______ _______ _______ _____ _____    ______ ____

>  <TORSDO>
F 3

$$$$
=
 OpenBabel11052422383D

 31 35  0  0  1  0  0  0  0  0999 V2000
  161.4850  208.8000  151.2810 C   0  0  0  0  0  0  0  0  0  0  0  0
  161.0240  209.0610  152.6990 C   0  0  2  0  0  3  0  0  0  0  0  0
  161.8090  210.2210  154.7450 C   0  0  0  0  0  0  0  0  0  0  0  0
  161.7150  209.7800  150.4000 C   0  0  0  0  0  0  0  0  0  0  0  0
  161.7600  211.6880  149.4180 C   0  0  0  0  0  0  0  0  0  0  0  0
  161.7700  210.1640  153.4080 C   0  0  0  0  0  3  0  0  0  0  0  0
  161.7170  207.1530  149.2920 C   0  0  0  0  0  0  0  0  0  0  0  0
  161.0180  206.5860  153.0180 C   0  0  0  0  0  3  0  0  0  0  0  0
  162.4230  211.2640  155.3520 F   0  0  0  0  0  0  0  0  0  0  0  0
  161.9570  208.1980  148.4830 C   0  0  0  0  0  3  0  0  0  0  0  0
  161.4800  207.4020  150.7480 C   0  0  0  0  0  0  0  0  0  0  0  0
  161.5750  211.1810  150.6040 N   0  0  0  0  0  0  0  0  0  0  0  0
  161.2580  209.1220  155.5680 C   0  0  0  0  0  3  0  0  0  0  0  0
  162.0010  209.5060  149.0520 N   0  0  0  0  0  0  0  0  0  0  0  0
  162.0100  210.7260  148.3820 N   0  0  0  0  0  2  0  0  0  0  0  0
  161.2360  206.3800  151.5760 C   0  0  0  0  0  3  0  0  0  0  0  0
  160.9710  207.8090  153.5510 C   0  0  0  0  0  0  0  0  0  0  0  0
  160.8740  207.9690  155.0090 C   0  0  0  0  0  3  0  0  0  0  0  0
  160.4190  206.1670  146.8440 O   0  0  0  0  0  0  0  0  0  0  0  0
  161.0260  205.3500  147.5860 C   0  0  0  0  0  0  0  0  0  0  0  0
  161.6700  205.8080  148.7860 N   0  0  0  0  0  2  0  0  0  0  0  0
  161.2220  201.1920  146.7590 C   0  0  0  0  0  0  0  0  0  0  0  0
  161.1680  203.0170  148.2720 N   0  0  0  0  0  0  0  0  0  0  0  0
  160.9880  204.4340  144.4940 Cl  0  0  0  0  0  0  0  0  0  0  0  0
  161.3040  199.4710  146.4560 Cl  0  0  0  0  0  0  0  0  0  0  0  0
  161.2320  201.6780  148.0620 C   0  0  0  0  0  3  0  0  0  0  0  0
  161.0820  203.4080  145.9210 C   0  0  0  0  0  0  0  0  0  0  0  0
  161.0920  203.9110  147.2460 C   0  0  0  0  0  0  0  0  0  0  0  0
  161.1470  202.0660  145.7220 N   0  0  0  0  0  0  0  0  0  0  0  0
  161.6980  213.1000  149.1660 C   0  0  0  0  0  0  0  0  0  0  0  0
  161.6470  214.2380  148.9650 N   0  0  0  0  0  0  0  0  0  0  0  0
  1  2  1  0  0  0  0
  2  6  1  1  0  0  0
  2 17  1  0  0  0  0
  3  9  1  0  0  0  0
  3 13  1  0  0  0  0
  4 12  1  0  0  0  0
  4  1  2  0  0  0  0
  5 12  2  0  0  0  0
  6  3  2  0  0  0  0
  7 11  1  0  0  0  0
  8 17  2  0  0  0  0
 10 14  1  0  0  0  0
 10  7  2  0  0  0  0
 11  1  1  0  0  0  0
 11 16  2  0  0  0  0
 14  4  1  0  0  0  0
 15 14  1  0  0  0  0
 15  5  1  0  0  0  0
 16  8  1  0  0  0  0
 17 18  1  0  0  0  0
 18 13  2  0  0  0  0
 19 20  2  0  0  0  0
 20 21  1  0  0  0  0
 21  7  1  0  0  0  0
 22 26  1  0  0  0  0
 24 27  1  0  0  0  0
 25 22  1  0  0  0  0
 26 23  2  0  0  0  0
 27 28  2  0  0  0  0
 28 20  1  0  0  0  0
 28 23  1  0  0  0  0
 29 27  1  0  0  0  0
 29 22  2  0  0  0  0
 30  5  1  0  0  0  0
 31 30  3  0  0  0  0
M  END
>  <MODEL>
4

>  <REMARK>
 VINA RESULT:      -9.0      4.371      7.657
  Name = 
  3 active torsions:
  status: ('A' for Active; 'I' for Inactive)
    1  A    between atoms: C_2  and  C_13
    2  A    between atoms: C_9  and  C_22
    3  A    between atoms: C_15  and  N_23
                            x       y       z     vdW  Elec       q    Type
                         _______ _______ _______ _____ _____    ______ ____

>  <TORSDO>
F 3

$$$$
=
 OpenBabel11052422383D

 31 35  0  0  1  0  0  0  0  0999 V2000
  161.1410  205.0770  149.7590 C   0  0  0  0  0  0  0  0  0  0  0  0
  161.4750  203.6170  149.9770 C   0  0  2  0  0  3  0  0  0  0  0  0
  160.6210  201.3790  149.3340 C   0  0  0  0  0  0  0  0  0  0  0  0
  161.1290  205.6460  148.5480 C   0  0  0  0  0  0  0  0  0  0  0  0
  161.4240  206.0280  146.4570 C   0  0  0  0  0  0  0  0  0  0  0  0
  160.7970  202.6690  149.0190 C   0  0  0  0  0  3  0  0  0  0  0  0
  160.9260  207.4710  150.7280 C   0  0  0  0  0  0  0  0  0  0  0  0
  161.1440  204.0360  152.4150 C   0  0  0  0  0  3  0  0  0  0  0  0
  160.0770  200.5370  148.4240 F   0  0  0  0  0  0  0  0  0  0  0  0
  160.9040  207.9540  149.4750 C   0  0  0  0  0  3  0  0  0  0  0  0
  161.0330  205.9940  150.9350 C   0  0  0  0  0  0  0  0  0  0  0  0
  161.4160  205.0320  147.2980 N   0  0  0  0  0  0  0  0  0  0  0  0
  160.9420  200.8780  150.6890 C   0  0  0  0  0  3  0  0  0  0  0  0
  160.9600  207.0320  148.3870 N   0  0  0  0  0  0  0  0  0  0  0  0
  161.1720  207.3140  147.0410 N   0  0  0  0  0  2  0  0  0  0  0  0
  161.0590  205.4860  152.1730 C   0  0  0  0  0  3  0  0  0  0  0  0
  161.2820  203.1670  151.4110 C   0  0  0  0  0  0  0  0  0  0  0  0
  161.2400  201.7220  151.6820 C   0  0  0  0  0  3  0  0  0  0  0  0
  162.3590  210.0010  151.1750 O   0  0  0  0  0  0  0  0  0  0  0  0
  161.5760  209.5760  152.0650 C   0  0  0  0  0  0  0  0  0  0  0  0
  160.8620  208.3450  151.8690 N   0  0  0  0  0  2  0  0  0  0  0  0
  161.1070  211.6570  155.7340 C   0  0  0  0  0  0  0  0  0  0  0  0
  162.2340  210.0930  154.3530 N   0  0  0  0  0  0  0  0  0  0  0  0
  159.1440  211.6820  152.2940 Cl  0  0  0  0  0  0  0  0  0  0  0  0
  160.9450  212.4960  157.2610 Cl  0  0  0  0  0  0  0  0  0  0  0  0
  162.1280  210.7320  155.5450 C   0  0  0  0  0  3  0  0  0  0  0  0
  160.3330  211.2720  153.5240 C   0  0  0  0  0  0  0  0  0  0  0  0
  161.3700  210.3270  153.3240 C   0  0  0  0  0  0  0  0  0  0  0  0
  160.2370  211.9050  154.7220 N   0  0  0  0  0  0  0  0  0  0  0  0
  161.6850  205.8500  145.0560 C   0  0  0  0  0  0  0  0  0  0  0  0
  161.8950  205.7060  143.9280 N   0  0  0  0  0  0  0  0  0  0  0  0
  1  2  1  0  0  0  0
  1 11  1  0  0  0  0
  2  6  1  6  0  0  0
  2 17  1  0  0  0  0
  3 13  1  0  0  0  0
  4  1  2  0  0  0  0
  5 15  1  0  0  0  0
  5 12  2  0  0  0  0
  6  3  2  0  0  0  0
  7 11  1  0  0  0  0
  7 21  1  0  0  0  0
  9  3  1  0  0  0  0
 10  7  2  0  0  0  0
 11 16  2  0  0  0  0
 12  4  1  0  0  0  0
 13 18  2  0  0  0  0
 14  4  1  0  0  0  0
 14 10  1  0  0  0  0
 15 14  1  0  0  0  0
 16  8  1  0  0  0  0
 17 18  1  0  0  0  0
 17  8  2  0  0  0  0
 19 20  2  0  0  0  0
 20 28  1  0  0  0  0
 21 20  1  0  0  0  0
 22 25  1  0  0  0  0
 23 26  2  0  0  0  0
 24 27  1  0  0  0  0
 26 22  1  0  0  0  0
 27 29  1  0  0  0  0
 28 27  2  0  0  0  0
 28 23  1  0  0  0  0
 29 22  2  0  0  0  0
 30  5  1  0  0  0  0
 31 30  3  0  0  0  0
M  END
>  <MODEL>
5

>  <REMARK>
 VINA RESULT:      -8.6      3.797      6.423
  Name = 
  3 active torsions:
  status: ('A' for Active; 'I' for Inactive)
    1  A    between atoms: C_2  and  C_13
    2  A    between atoms: C_9  and  C_22
    3  A    between atoms: C_15  and  N_23
                            x       y       z     vdW  Elec       q    Type
                         _______ _______ _______ _____ _____    ______ ____

>  <TORSDO>
F 3

$$$$
=
 OpenBabel11052422383D

 31 35  0  0  0  0  0  0  0  0999 V2000
  161.5550  209.0290  151.0830 C   0  0  0  0  0  0  0  0  0  0  0  0
  161.9530  210.3620  150.4860 C   0  0  0  0  0  0  0  0  0  0  0  0
  161.0850  212.6790  150.3220 C   0  0  0  0  0  0  0  0  0  0  0  0
  161.3740  208.8450  152.3950 C   0  0  0  0  0  0  0  0  0  0  0  0
  161.3900  209.1060  154.5260 C   0  0  0  0  0  0  0  0  0  0  0  0
  161.1850  211.5440  151.0240 C   0  0  0  0  0  3  0  0  0  0  0  0
  161.4000  206.4520  150.8460 C   0  0  0  0  0  0  0  0  0  0  0  0
  161.9230  209.2330  148.2610 C   0  0  0  0  0  3  0  0  0  0  0  0
  160.4520  213.7480  150.8630 F   0  0  0  0  0  0  0  0  0  0  0  0
  161.2060  206.3640  152.1730 C   0  0  0  0  0  3  0  0  0  0  0  0
  161.5730  207.8030  150.2270 C   0  0  0  0  0  0  0  0  0  0  0  0
  161.5160  209.8070  153.4340 N   0  0  0  0  0  0  0  0  0  0  0  0
  161.5890  212.7590  148.9320 C   0  0  0  0  0  3  0  0  0  0  0  0
  161.1480  207.5680  152.9360 N   0  0  0  0  0  0  0  0  0  0  0  0
  161.1800  207.7010  154.3210 N   0  0  0  0  0  2  0  0  0  0  0  0
  161.7690  207.9190  148.9080 C   0  0  0  0  0  3  0  0  0  0  0  0
  161.9560  210.3630  148.9710 C   0  0  0  0  0  0  0  0  0  0  0  0
  161.9880  211.6610  148.2810 C   0  0  0  0  0  2  0  0  0  0  0  0
  160.0810  203.8550  151.2610 O   0  0  0  0  0  0  0  0  0  0  0  0
  160.8060  204.0190  150.2440 C   0  0  0  0  0  0  0  0  0  0  0  0
  161.4580  205.2780  150.0170 N   0  0  0  0  0  2  0  0  0  0  0  0
  161.3570  200.7910  147.5440 C   0  0  0  0  0  0  0  0  0  0  0  0
  160.9910  201.6460  149.7250 N   0  0  0  0  0  0  0  0  0  0  0  0
  161.2390  204.7280  147.1280 Cl  0  0  0  0  0  0  0  0  0  0  0  0
  161.5810  199.4350  146.4610 Cl  0  0  0  0  0  0  0  0  0  0  0  0
  161.1630  200.5780  148.9050 C   0  0  0  0  0  3  0  0  0  0  0  0
  161.2010  203.1350  147.8750 C   0  0  0  0  0  0  0  0  0  0  0  0
  161.0020  202.9270  149.2620 C   0  0  0  0  0  0  0  0  0  0  0  0
  161.3710  202.0600  147.0620 N   0  0  0  0  0  0  0  0  0  0  0  0
  161.4760  209.6960  155.8320 C   0  0  0  0  0  0  0  0  0  0  0  0
  161.5450  210.1710  156.8840 N   0  0  0  0  0  0  0  0  0  0  0  0
  1  4  2  0  0  0  0
  2  6  2  0  0  0  0
  2  1  1  0  0  0  0
  3  9  1  0  0  0  0
  3  6  1  0  0  0  0
  4 14  1  0  0  0  0
  4 12  1  0  0  0  0
  5 30  1  0  0  0  0
  7 10  2  0  0  0  0
  8 16  1  0  0  0  0
  8 17  2  0  0  0  0
 10 14  1  0  0  0  0
 11  7  1  0  0  0  0
 11  1  1  0  0  0  0
 12  5  2  0  0  0  0
 13  3  2  0  0  0  0
 14 15  1  0  0  0  0
 15  5  1  0  0  0  0
 16 11  2  0  0  0  0
 17  2  1  0  0  0  0
 18 13  1  0  0  0  0
 18 17  1  0  0  0  0
 20 19  2  0  0  0  0
 21 20  1  0  0  0  0
 21  7  1  0  0  0  0
 22 26  1  0  0  0  0
 24 27  1  0  0  0  0
 25 22  1  0  0  0  0
 26 23  2  0  0  0  0
 27 28  2  0  0  0  0
 28 23  1  0  0  0  0
 28 20  1  0  0  0  0
 29 22  2  0  0  0  0
 29 27  1  0  0  0  0
 30 31  3  0  0  0  0
M  END
>  <MODEL>
6

>  <REMARK>
 VINA RESULT:      -7.6      4.494      7.654
  Name = 
  3 active torsions:
  status: ('A' for Active; 'I' for Inactive)
    1  A    between atoms: C_2  and  C_13
    2  A    between atoms: C_9  and  C_22
    3  A    between atoms: C_15  and  N_23
                            x       y       z     vdW  Elec       q    Type
                         _______ _______ _______ _____ _____    ______ ____

>  <TORSDO>
F 3

$$$$
=
 OpenBabel11052422383D

 31 35  0  0  0  0  0  0  0  0999 V2000
  161.5470  209.5460  151.3160 C   0  0  0  0  0  0  0  0  0  0  0  0
  161.9520  210.7690  150.5210 C   0  0  0  0  0  0  0  0  0  0  0  0
  161.0790  213.0230  149.9680 C   0  0  0  0  0  0  0  0  0  0  0  0
  161.3380  209.5750  152.6370 C   0  0  0  0  0  0  0  0  0  0  0  0
  161.3070  210.1750  154.6970 C   0  0  0  0  0  0  0  0  0  0  0  0
  161.1680  212.0170  150.8460 C   0  0  0  0  0  3  0  0  0  0  0  0
  161.4070  206.9640  151.4940 C   0  0  0  0  0  0  0  0  0  0  0  0
  161.9750  209.2970  148.5060 C   0  0  0  0  0  3  0  0  0  0  0  0
  160.4310  214.1600  150.3170 F   0  0  0  0  0  0  0  0  0  0  0  0
  161.1850  207.0890  152.8130 C   0  0  0  0  0  3  0  0  0  0  0  0
  161.5880  208.1990  150.6690 C   0  0  0  0  0  0  0  0  0  0  0  0
  161.4540  210.6920  153.5100 N   0  0  0  0  0  0  0  0  0  0  0  0
  161.6130  212.8820  148.5940 C   0  0  0  0  0  3  0  0  0  0  0  0
  161.1050  208.4000  153.3710 N   0  0  0  0  0  0  0  0  0  0  0  0
  161.1070  208.7540  154.7170 N   0  0  0  0  0  2  0  0  0  0  0  0
  161.8120  208.1030  149.3530 C   0  0  0  0  0  3  0  0  0  0  0  0
  161.9880  210.5270  149.0260 C   0  0  0  0  0  0  0  0  0  0  0  0
  162.0300  211.6970  148.1370 C   0  0  0  0  0  2  0  0  0  0  0  0
  159.7660  205.8940  149.2990 O   0  0  0  0  0  0  0  0  0  0  0  0
  160.6710  205.1720  149.7960 C   0  0  0  0  0  0  0  0  0  0  0  0
  161.4870  205.6730  150.8660 N   0  0  0  0  0  2  0  0  0  0  0  0
  161.3810  201.2980  148.2160 C   0  0  0  0  0  0  0  0  0  0  0  0
  161.0840  203.6350  147.9510 N   0  0  0  0  0  0  0  0  0  0  0  0
  160.7930  202.7060  151.8700 Cl  0  0  0  0  0  0  0  0  0  0  0  0
  161.6750  199.7150  147.5280 Cl  0  0  0  0  0  0  0  0  0  0  0  0
  161.3130  202.4190  147.3950 C   0  0  0  0  0  3  0  0  0  0  0  0
  160.9870  202.6540  150.1230 C   0  0  0  0  0  0  0  0  0  0  0  0
  160.9160  203.8010  149.2930 C   0  0  0  0  0  0  0  0  0  0  0  0
  161.2170  201.4410  149.5550 N   0  0  0  0  0  0  0  0  0  0  0  0
  161.3630  210.9680  155.8940 C   0  0  0  0  0  0  0  0  0  0  0  0
  161.4080  211.6060  156.8570 N   0  0  0  0  0  0  0  0  0  0  0  0
  1  4  2  0  0  0  0
  2  6  2  0  0  0  0
  2  1  1  0  0  0  0
  3  9  1  0  0  0  0
  3  6  1  0  0  0  0
  4 14  1  0  0  0  0
  4 12  1  0  0  0  0
  5 15  1  0  0  0  0
  5 30  1  0  0  0  0
  7 10  2  0  0  0  0
  8 17  2  0  0  0  0
  8 16  1  0  0  0  0
 10 14  1  0  0  0  0
 11  1  1  0  0  0  0
 11  7  1  0  0  0  0
 12  5  2  0  0  0  0
 13  3  2  0  0  0  0
 14 15  1  0  0  0  0
 16 11  2  0  0  0  0
 17  2  1  0  0  0  0
 18 13  1  0  0  0  0
 18 17  1  0  0  0  0
 19 20  2  0  0  0  0
 20 21  1  0  0  0  0
 21  7  1  0  0  0  0
 22 29  1  0  0  0  0
 23 28  2  0  0  0  0
 25 22  1  0  0  0  0
 26 23  1  0  0  0  0
 26 22  2  0  0  0  0
 27 24  1  0  0  0  0
 28 20  1  0  0  0  0
 28 27  1  0  0  0  0
 29 27  2  0  0  0  0
 30 31  3  0  0  0  0
M  END
>  <MODEL>
7

>  <REMARK>
 VINA RESULT:      -7.4      4.812      7.659
  Name = 
  3 active torsions:
  status: ('A' for Active; 'I' for Inactive)
    1  A    between atoms: C_2  and  C_13
    2  A    between atoms: C_9  and  C_22
    3  A    between atoms: C_15  and  N_23
                            x       y       z     vdW  Elec       q    Type
                         _______ _______ _______ _____ _____    ______ ____

>  <TORSDO>
F 3

$$$$
