=
 OpenBabel11062407473D

 34 38  0  0  1  0  0  0  0  0999 V2000
  161.5200  209.1300  156.2600 C   0  0  0  0  0  0  0  0  0  0  0  0
  161.1530  208.3730  153.8810 C   0  0  0  0  0  0  0  0  0  0  0  0
  160.3570  210.5690  154.5900 C   0  0  0  0  0  0  0  0  0  0  0  0
  159.9850  213.1830  153.4970 O   0  0  0  0  0  0  0  0  0  0  0  0
  163.1180  210.8850  156.9290 C   0  0  0  0  0  1  0  0  0  0  0  0
  161.7610  207.1490  154.1360 O   0  0  0  0  0  1  0  0  0  0  0  0
  160.1320  209.8420  152.3120 N   0  0  0  0  0  0  0  0  0  0  0  0
  160.9980  209.3430  154.8880 C   0  0  0  0  0  0  0  0  0  0  0  0
  159.3500  212.1340  152.8290 C   0  0  2  0  0  3  0  0  0  0  0  0
  161.8300  207.9820  156.6740 O   0  0  0  0  0  0  0  0  0  0  0  0
  160.1010  211.5400  155.7120 C   0  0  0  0  0  0  0  0  0  0  0  0
  161.7310  210.3120  157.1530 C   0  0  1  0  0  3  0  0  0  0  0  0
  160.6990  208.6450  152.5960 C   0  0  0  0  0  3  0  0  0  0  0  0
  159.0820  213.5830  154.4890 C   0  0  0  0  0  2  0  0  0  0  0  0
  159.0260  212.5980  155.6660 C   0  0  1  0  0  3  0  0  0  0  0  0
  159.9670  210.8190  153.2470 C   0  0  0  0  0  0  0  0  0  0  0  0
  160.7000  211.3710  156.8970 C   0  0  0  0  0  3  0  0  0  0  0  0
  155.7740  210.6810  155.1840 C   0  0  0  0  0  0  0  0  0  0  0  0
  155.1100  211.0300  156.3610 C   0  0  0  0  0  3  0  0  0  0  0  0
  157.6530  212.0390  155.8810 C   0  0  0  0  0  0  0  0  0  0  0  0
  155.7080  211.8570  157.2610 N   0  0  0  0  0  0  0  0  0  0  0  0
  157.0520  211.1870  154.9450 C   0  0  0  0  0  3  0  0  0  0  0  0
  156.9530  212.3630  157.0460 C   0  0  0  0  0  3  0  0  0  0  0  0
  155.1860  209.8570  154.2850 F   0  0  0  0  0  0  0  0  0  0  0  0
  159.4280  212.3790  151.3280 C   0  0  0  0  0  2  0  0  0  0  0  0
  158.3160  213.3190  150.8950 C   0  0  0  0  0  2  0  0  0  0  0  0
  158.8760  214.4420  150.0370 C   0  0  0  0  0  2  0  0  0  0  0  0
  160.3230  212.9860  147.9160 O   0  0  0  0  0  1  0  0  0  0  0  0
  158.4170  214.3040  148.5900 C   0  0  1  0  0  3  0  0  0  0  0  0
  159.5970  214.1420  147.6190 C   0  0  2  0  0  3  0  0  0  0  0  0
  157.6610  213.6650  145.9940 C   0  0  0  0  0  2  0  0  0  0  0  0
  157.2770  212.6160  147.0320 C   0  0  0  0  0  2  0  0  0  0  0  0
  157.3970  213.1630  148.4600 C   0  0  0  0  0  2  0  0  0  0  0  0
  159.1260  214.0910  146.1570 C   0  0  0  0  0  2  0  0  0  0  0  0
  1 10  2  0  0  0  0
  1 12  1  0  0  0  0
  2  6  1  0  0  0  0
  2  8  1  0  0  0  0
  3  8  2  0  0  0  0
  3 11  1  0  0  0  0
  4 14  1  0  0  0  0
  7 13  1  0  0  0  0
  7 16  2  0  0  0  0
  8  1  1  0  0  0  0
  9 25  1  6  0  0  0
  9 16  1  0  0  0  0
  9  4  1  0  0  0  0
 11 17  2  0  0  0  0
 12  5  1  6  0  0  0
 13  2  2  0  0  0  0
 14 15  1  0  0  0  0
 15 11  1  0  0  0  0
 15 20  1  6  0  0  0
 16  3  1  0  0  0  0
 17 12  1  0  0  0  0
 18 19  1  0  0  0  0
 19 21  2  0  0  0  0
 20 23  2  0  0  0  0
 22 18  2  0  0  0  0
 22 20  1  0  0  0  0
 23 21  1  0  0  0  0
 24 18  1  0  0  0  0
 26 25  1  0  0  0  0
 27 26  1  0  0  0  0
 29 27  1  1  0  0  0
 30 28  1  1  0  0  0
 30 29  1  0  0  0  0
 31 34  1  0  0  0  0
 31 32  1  0  0  0  0
 32 33  1  0  0  0  0
 33 29  1  0  0  0  0
 34 30  1  0  0  0  0
M  END
>  <MODEL>
1

>  <REMARK>
 VINA RESULT:      -5.5      0.000      0.000
  Name = 
  5 active torsions:
  status: ('A' for Active; 'I' for Inactive)
    1  A    between atoms: C_3  and  C_13
    2  A    between atoms: C_3  and  C_17
    3  A    between atoms: C_12  and  C_28
    4  A    between atoms: C_17  and  C_29
    5  A    between atoms: C_18  and  C_29
                            x       y       z     vdW  Elec       q    Type
                         _______ _______ _______ _____ _____    ______ ____

>  <TORSDO>
F 5

$$$$
=
 OpenBabel11062407473D

 34 38  0  0  1  0  0  0  0  0999 V2000
  159.8610  212.9140  151.6170 C   0  0  0  0  0  0  0  0  0  0  0  0
  161.5360  211.9100  150.0190 C   0  0  0  0  0  0  0  0  0  0  0  0
  160.8290  210.6470  151.9860 C   0  0  0  0  0  0  0  0  0  0  0  0
  160.3940  207.9310  152.7610 O   0  0  0  0  0  0  0  0  0  0  0  0
  157.5260  212.1520  151.8420 C   0  0  0  0  0  1  0  0  0  0  0  0
  161.5180  213.0490  149.2240 O   0  0  0  0  0  1  0  0  0  0  0  0
  162.3370  209.6980  150.3750 N   0  0  0  0  0  0  0  0  0  0  0  0
  160.7670  211.8190  151.1940 C   0  0  0  0  0  0  0  0  0  0  0  0
  161.6590  208.2390  152.2580 C   0  0  2  0  0  3  0  0  0  0  0  0
  159.9680  214.0760  151.1430 O   0  0  0  0  0  0  0  0  0  0  0  0
  160.0880  210.6220  153.2950 C   0  0  0  0  0  0  0  0  0  0  0  0
  158.7620  212.6180  152.5900 C   0  0  1  0  0  3  0  0  0  0  0  0
  162.3250  210.8330  149.6350 C   0  0  0  0  0  3  0  0  0  0  0  0
  160.4710  208.2010  154.1320 C   0  0  0  0  0  2  0  0  0  0  0  0
  160.4510  209.7060  154.4390 C   0  0  1  0  0  3  0  0  0  0  0  0
  161.6040  209.5540  151.5140 C   0  0  0  0  0  0  0  0  0  0  0  0
  159.1830  211.5680  153.5750 C   0  0  0  0  0  3  0  0  0  0  0  0
  163.9400  211.0080  155.2230 C   0  0  0  0  0  0  0  0  0  0  0  0
  163.8950  210.9950  156.6190 C   0  0  0  0  0  3  0  0  0  0  0  0
  161.6740  210.1570  155.1770 C   0  0  0  0  0  0  0  0  0  0  0  0
  162.7710  210.5740  157.2600 N   0  0  0  0  0  0  0  0  0  0  0  0
  162.8220  210.5880  154.5010 C   0  0  0  0  0  3  0  0  0  0  0  0
  161.6710  210.1600  156.5740 C   0  0  0  0  0  3  0  0  0  0  0  0
  165.0540  211.4260  154.5780 F   0  0  0  0  0  0  0  0  0  0  0  0
  162.1450  207.0840  151.3910 C   0  0  0  0  0  2  0  0  0  0  0  0
  160.9600  206.2710  150.8970 C   0  0  0  0  0  2  0  0  0  0  0  0
  160.3750  206.8960  149.6410 C   0  0  0  0  0  2  0  0  0  0  0  0
  162.7790  206.9220  147.9280 O   0  0  0  0  0  1  0  0  0  0  0  0
  160.6050  206.0020  148.4280 C   0  0  1  0  0  3  0  0  0  0  0  0
  161.5190  206.6620  147.3840 C   0  0  2  0  0  3  0  0  0  0  0  0
  161.3810  204.2990  146.3740 C   0  0  0  0  0  2  0  0  0  0  0  0
  161.8600  203.8680  147.7570 C   0  0  0  0  0  2  0  0  0  0  0  0
  161.1260  204.6270  148.8710 C   0  0  0  0  0  2  0  0  0  0  0  0
  161.6720  205.7870  146.1300 C   0  0  0  0  0  2  0  0  0  0  0  0
  1 12  1  0  0  0  0
  2  8  1  0  0  0  0
  3 11  1  0  0  0  0
  4 14  1  0  0  0  0
  6  2  1  0  0  0  0
  7 16  2  0  0  0  0
  8  1  1  0  0  0  0
  8  3  2  0  0  0  0
  9 25  1  6  0  0  0
  9  4  1  0  0  0  0
 10  1  2  0  0  0  0
 11 17  2  0  0  0  0
 11 15  1  0  0  0  0
 12  5  1  6  0  0  0
 12 17  1  0  0  0  0
 13  2  2  0  0  0  0
 13  7  1  0  0  0  0
 14 15  1  0  0  0  0
 15 20  1  6  0  0  0
 16  3  1  0  0  0  0
 16  9  1  0  0  0  0
 18 19  1  0  0  0  0
 19 21  2  0  0  0  0
 20 23  2  0  0  0  0
 22 20  1  0  0  0  0
 22 18  2  0  0  0  0
 23 21  1  0  0  0  0
 24 18  1  0  0  0  0
 26 25  1  0  0  0  0
 27 26  1  0  0  0  0
 29 33  1  0  0  0  0
 29 27  1  1  0  0  0
 30 28  1  1  0  0  0
 30 29  1  0  0  0  0
 31 32  1  0  0  0  0
 32 33  1  0  0  0  0
 34 31  1  0  0  0  0
 34 30  1  0  0  0  0
M  END
>  <MODEL>
2

>  <REMARK>
 VINA RESULT:      -5.3      3.869      6.703
  Name = 
  5 active torsions:
  status: ('A' for Active; 'I' for Inactive)
    1  A    between atoms: C_3  and  C_13
    2  A    between atoms: C_3  and  C_17
    3  A    between atoms: C_12  and  C_28
    4  A    between atoms: C_17  and  C_29
    5  A    between atoms: C_18  and  C_29
                            x       y       z     vdW  Elec       q    Type
                         _______ _______ _______ _____ _____    ______ ____

>  <TORSDO>
F 5

$$$$
=
 OpenBabel11062407473D

 34 38  0  0  1  0  0  0  0  0999 V2000
  161.4750  209.1020  156.3640 C   0  0  0  0  0  0  0  0  0  0  0  0
  161.0900  208.2080  154.0360 C   0  0  0  0  0  0  0  0  0  0  0  0
  160.3330  210.4570  154.6110 C   0  0  0  0  0  0  0  0  0  0  0  0
  160.0040  213.0050  153.3610 O   0  0  0  0  0  0  0  0  0  0  0  0
  163.1060  210.8660  156.9230 C   0  0  0  0  0  1  0  0  0  0  0  0
  161.6760  206.9910  154.3640 O   0  0  0  0  0  1  0  0  0  0  0  0
  160.0910  209.5960  152.3820 N   0  0  0  0  0  0  0  0  0  0  0  0
  160.9540  209.2400  154.9830 C   0  0  0  0  0  0  0  0  0  0  0  0
  159.3490  211.9290  152.7600 C   0  0  2  0  0  3  0  0  0  0  0  0
  161.7660  207.9760  156.8470 O   0  0  0  0  0  0  0  0  0  0  0  0
  160.0970  211.4980  155.6720 C   0  0  0  0  0  0  0  0  0  0  0  0
  161.7090  210.3320  157.1840 C   0  0  1  0  0  3  0  0  0  0  0  0
  160.6380  208.4090  152.7380 C   0  0  0  0  0  3  0  0  0  0  0  0
  159.1110  213.4800  154.3280 C   0  0  0  0  0  2  0  0  0  0  0  0
  159.0410  212.5700  155.5630 C   0  0  1  0  0  3  0  0  0  0  0  0
  159.9450  210.6310  153.2560 C   0  0  0  0  0  0  0  0  0  0  0  0
  160.6960  211.3920  156.8650 C   0  0  0  0  0  3  0  0  0  0  0  0
  155.7110  210.7750  155.1490 C   0  0  0  0  0  0  0  0  0  0  0  0
  155.1030  211.1090  156.3600 C   0  0  0  0  0  3  0  0  0  0  0  0
  157.6590  212.0490  155.8140 C   0  0  0  0  0  0  0  0  0  0  0  0
  155.7610  211.8880  157.2610 N   0  0  0  0  0  0  0  0  0  0  0  0
  156.9950  211.2470  154.8770 C   0  0  0  0  0  3  0  0  0  0  0  0
  157.0140  212.3590  157.0140 C   0  0  0  0  0  3  0  0  0  0  0  0
  155.0630  209.9990  154.2480 F   0  0  0  0  0  0  0  0  0  0  0  0
  159.4290  212.0800  151.2460 C   0  0  0  0  0  2  0  0  0  0  0  0
  159.8010  213.5080  150.8850 C   0  0  0  0  0  2  0  0  0  0  0  0
  159.3810  213.8210  149.4580 C   0  0  0  0  0  2  0  0  0  0  0  0
  160.9440  211.7300  148.0800 O   0  0  0  0  0  1  0  0  0  0  0  0
  160.5980  214.0660  148.5730 C   0  0  1  0  0  3  0  0  0  0  0  0
  161.5700  212.8760  148.5760 C   0  0  2  0  0  3  0  0  0  0  0  0
  162.6390  214.2730  146.6990 C   0  0  0  0  0  2  0  0  0  0  0  0
  161.2390  214.2140  146.0940 C   0  0  0  0  0  2  0  0  0  0  0  0
  160.1550  214.4520  147.1540 C   0  0  0  0  0  2  0  0  0  0  0  0
  162.8310  213.1710  147.7500 C   0  0  0  0  0  2  0  0  0  0  0  0
  1 10  2  0  0  0  0
  1 12  1  0  0  0  0
  2  6  1  0  0  0  0
  2  8  1  0  0  0  0
  3  8  2  0  0  0  0
  3 11  1  0  0  0  0
  4 14  1  0  0  0  0
  7 13  1  0  0  0  0
  7 16  2  0  0  0  0
  8  1  1  0  0  0  0
  9 25  1  6  0  0  0
  9 16  1  0  0  0  0
  9  4  1  0  0  0  0
 11 17  2  0  0  0  0
 12  5  1  6  0  0  0
 13  2  2  0  0  0  0
 14 15  1  0  0  0  0
 15 11  1  0  0  0  0
 15 20  1  6  0  0  0
 16  3  1  0  0  0  0
 17 12  1  0  0  0  0
 18 19  1  0  0  0  0
 19 21  2  0  0  0  0
 20 23  2  0  0  0  0
 22 18  2  0  0  0  0
 22 20  1  0  0  0  0
 23 21  1  0  0  0  0
 24 18  1  0  0  0  0
 26 25  1  0  0  0  0
 27 26  1  0  0  0  0
 29 30  1  0  0  0  0
 29 27  1  1  0  0  0
 30 28  1  6  0  0  0
 31 34  1  0  0  0  0
 32 31  1  0  0  0  0
 32 33  1  0  0  0  0
 33 29  1  0  0  0  0
 34 30  1  0  0  0  0
M  END
>  <MODEL>
3

>  <REMARK>
 VINA RESULT:      -5.2      1.088      1.627
  Name = 
  5 active torsions:
  status: ('A' for Active; 'I' for Inactive)
    1  A    between atoms: C_3  and  C_13
    2  A    between atoms: C_3  and  C_17
    3  A    between atoms: C_12  and  C_28
    4  A    between atoms: C_17  and  C_29
    5  A    between atoms: C_18  and  C_29
                            x       y       z     vdW  Elec       q    Type
                         _______ _______ _______ _____ _____    ______ ____

>  <TORSDO>
F 5

$$$$
=
 OpenBabel11062407473D

 34 38  0  0  1  0  0  0  0  0999 V2000
  161.6680  212.4690  144.3740 C   0  0  0  0  0  0  0  0  0  0  0  0
  159.1570  212.5310  144.6150 C   0  0  0  0  0  0  0  0  0  0  0  0
  160.5710  212.8190  146.5840 C   0  0  0  0  0  0  0  0  0  0  0  0
  160.5430  214.2290  149.0700 O   0  0  0  0  0  0  0  0  0  0  0  0
  163.1330  214.4420  144.5840 C   0  0  0  0  0  1  0  0  0  0  0  0
  158.9820  212.2960  143.2570 O   0  0  0  0  0  1  0  0  0  0  0  0
  158.1800  212.9780  146.7380 N   0  0  0  0  0  0  0  0  0  0  0  0
  160.4390  212.5960  145.1930 C   0  0  0  0  0  0  0  0  0  0  0  0
  159.4570  213.3880  148.8200 C   0  0  2  0  0  3  0  0  0  0  0  0
  161.6360  211.9870  143.2110 O   0  0  0  0  0  0  0  0  0  0  0  0
  161.9470  212.7700  147.1930 C   0  0  0  0  0  0  0  0  0  0  0  0
  162.9670  212.9720  144.9220 C   0  0  1  0  0  3  0  0  0  0  0  0
  158.0370  212.7150  145.4160 C   0  0  0  0  0  3  0  0  0  0  0  0
  161.5090  213.4090  149.6650 C   0  0  0  0  0  2  0  0  0  0  0  0
  162.1990  212.4820  148.6530 C   0  0  1  0  0  3  0  0  0  0  0  0
  159.3960  213.0620  147.3450 C   0  0  0  0  0  0  0  0  0  0  0  0
  163.0310  212.7850  146.4090 C   0  0  0  0  0  3  0  0  0  0  0  0
  161.8090  209.2370  150.6030 C   0  0  0  0  0  0  0  0  0  0  0  0
  161.7000  208.3310  149.5460 C   0  0  0  0  0  3  0  0  0  0  0  0
  162.0300  211.0330  148.9950 C   0  0  0  0  0  0  0  0  0  0  0  0
  161.7550  208.7740  148.2610 N   0  0  0  0  0  0  0  0  0  0  0  0
  161.9740  210.5930  150.3240 C   0  0  0  0  0  3  0  0  0  0  0  0
  161.9160  210.0930  147.9680 C   0  0  0  0  0  3  0  0  0  0  0  0
  161.7540  208.8030  151.8840 F   0  0  0  0  0  0  0  0  0  0  0  0
  158.1850  214.0490  149.3370 C   0  0  0  0  0  2  0  0  0  0  0  0
  157.7080  213.3460  150.5950 C   0  0  0  0  0  2  0  0  0  0  0  0
  158.0270  214.1820  151.8240 C   0  0  0  0  0  2  0  0  0  0  0  0
  157.1370  213.0310  154.3920 O   0  0  0  0  0  1  0  0  0  0  0  0
  158.9080  213.4090  152.7970 C   0  0  1  0  0  3  0  0  0  0  0  0
  158.4290  213.5460  154.2510 C   0  0  2  0  0  3  0  0  0  0  0  0
  160.2230  211.7320  154.5800 C   0  0  0  0  0  2  0  0  0  0  0  0
  159.4340  210.9990  153.5000 C   0  0  0  0  0  2  0  0  0  0  0  0
  159.0270  211.9420  152.3590 C   0  0  0  0  0  2  0  0  0  0  0  0
  159.3750  212.8340  155.2300 C   0  0  0  0  0  2  0  0  0  0  0  0
  1 12  1  0  0  0  0
  1  8  1  0  0  0  0
  2  8  2  0  0  0  0
  2 13  1  0  0  0  0
  3 11  1  0  0  0  0
  3 16  2  0  0  0  0
  4 14  1  0  0  0  0
  6  2  1  0  0  0  0
  7 16  1  0  0  0  0
  8  3  1  0  0  0  0
  9  4  1  0  0  0  0
  9 25  1  6  0  0  0
 10  1  2  0  0  0  0
 11 15  1  0  0  0  0
 12  5  1  1  0  0  0
 12 17  1  0  0  0  0
 13  7  2  0  0  0  0
 15 20  1  1  0  0  0
 15 14  1  0  0  0  0
 16  9  1  0  0  0  0
 17 11  2  0  0  0  0
 18 24  1  0  0  0  0
 19 18  2  0  0  0  0
 20 22  2  0  0  0  0
 21 19  1  0  0  0  0
 22 18  1  0  0  0  0
 23 21  2  0  0  0  0
 23 20  1  0  0  0  0
 25 26  1  0  0  0  0
 26 27  1  0  0  0  0
 29 27  1  6  0  0  0
 29 30  1  0  0  0  0
 30 28  1  6  0  0  0
 30 34  1  0  0  0  0
 31 34  1  0  0  0  0
 32 31  1  0  0  0  0
 33 29  1  0  0  0  0
 33 32  1  0  0  0  0
M  END
>  <MODEL>
4

>  <REMARK>
 VINA RESULT:      -4.8      3.642      8.599
  Name = 
  5 active torsions:
  status: ('A' for Active; 'I' for Inactive)
    1  A    between atoms: C_3  and  C_13
    2  A    between atoms: C_3  and  C_17
    3  A    between atoms: C_12  and  C_28
    4  A    between atoms: C_17  and  C_29
    5  A    between atoms: C_18  and  C_29
                            x       y       z     vdW  Elec       q    Type
                         _______ _______ _______ _____ _____    ______ ____

>  <TORSDO>
F 5

$$$$
=
 OpenBabel11062407473D

 34 38  0  0  1  0  0  0  0  0999 V2000
  160.8400  209.2690  156.2250 C   0  0  0  0  0  0  0  0  0  0  0  0
  160.2790  207.1410  154.9910 C   0  0  0  0  0  0  0  0  0  0  0  0
  161.2130  209.0380  153.7710 C   0  0  0  0  0  0  0  0  0  0  0  0
  162.9140  209.5330  151.5290 O   0  0  0  0  0  0  0  0  0  0  0  0
  163.1360  210.0460  156.6840 C   0  0  0  0  0  1  0  0  0  0  0  0
  159.8100  206.5440  156.1560 O   0  0  0  0  0  1  0  0  0  0  0  0
  160.7620  206.9520  152.6690 N   0  0  0  0  0  0  0  0  0  0  0  0
  160.7610  208.4630  154.9830 C   0  0  0  0  0  0  0  0  0  0  0  0
  161.7910  208.7360  151.2940 C   0  0  2  0  0  3  0  0  0  0  0  0
  160.2020  208.9450  157.2610 O   0  0  0  0  0  0  0  0  0  0  0  0
  161.6130  210.4890  153.7680 C   0  0  0  0  0  0  0  0  0  0  0  0
  161.7390  210.4660  156.2630 C   0  0  1  0  0  3  0  0  0  0  0  0
  160.2810  206.4070  153.8120 C   0  0  0  0  0  3  0  0  0  0  0  0
  162.4710  210.8480  151.3510 C   0  0  0  0  0  2  0  0  0  0  0  0
  161.6180  211.3470  152.5270 C   0  0  1  0  0  3  0  0  0  0  0  0
  161.2490  208.2230  152.6080 C   0  0  0  0  0  0  0  0  0  0  0  0
  161.7960  211.1390  154.9240 C   0  0  0  0  0  3  0  0  0  0  0  0
  158.7400  213.0170  150.6800 C   0  0  0  0  0  0  0  0  0  0  0  0
  157.6580  212.4620  151.3660 C   0  0  0  0  0  3  0  0  0  0  0  0
  160.2420  211.7600  152.1030 C   0  0  0  0  0  0  0  0  0  0  0  0
  157.8730  211.5870  152.3850 N   0  0  0  0  0  0  0  0  0  0  0  0
  160.0370  212.6620  151.0510 C   0  0  0  0  0  3  0  0  0  0  0  0
  159.1310  211.2280  152.7630 C   0  0  0  0  0  3  0  0  0  0  0  0
  158.5330  213.8870  149.6650 F   0  0  0  0  0  0  0  0  0  0  0  0
  162.1670  207.6200  150.3280 C   0  0  0  0  0  2  0  0  0  0  0  0
  160.9340  207.1460  149.5770 C   0  0  0  0  0  2  0  0  0  0  0  0
  161.2600  206.9260  148.1090 C   0  0  0  0  0  2  0  0  0  0  0  0
  163.1960  205.1230  146.8000 O   0  0  0  0  0  1  0  0  0  0  0  0
  160.9870  205.4830  147.6990 C   0  0  1  0  0  3  0  0  0  0  0  0
  161.8350  205.0500  146.4940 C   0  0  2  0  0  3  0  0  0  0  0  0
  160.8310  202.7680  147.1300 C   0  0  0  0  0  2  0  0  0  0  0  0
  161.4190  203.0860  148.5010 C   0  0  0  0  0  2  0  0  0  0  0  0
  161.1620  204.5450  148.9020 C   0  0  0  0  0  2  0  0  0  0  0  0
  161.4870  203.6240  146.0380 C   0  0  0  0  0  2  0  0  0  0  0  0
  1 12  1  0  0  0  0
  1 10  2  0  0  0  0
  2  6  1  0  0  0  0
  3  8  2  0  0  0  0
  7 13  1  0  0  0  0
  8  2  1  0  0  0  0
  8  1  1  0  0  0  0
  9 25  1  6  0  0  0
  9  4  1  0  0  0  0
  9 16  1  0  0  0  0
 11  3  1  0  0  0  0
 11 17  2  0  0  0  0
 12  5  1  6  0  0  0
 13  2  2  0  0  0  0
 14  4  1  0  0  0  0
 14 15  1  0  0  0  0
 15 20  1  6  0  0  0
 15 11  1  0  0  0  0
 16  7  2  0  0  0  0
 16  3  1  0  0  0  0
 17 12  1  0  0  0  0
 18 22  2  0  0  0  0
 18 19  1  0  0  0  0
 19 21  2  0  0  0  0
 20 23  2  0  0  0  0
 21 23  1  0  0  0  0
 22 20  1  0  0  0  0
 24 18  1  0  0  0  0
 26 25  1  0  0  0  0
 27 26  1  0  0  0  0
 29 27  1  1  0  0  0
 29 33  1  0  0  0  0
 30 28  1  1  0  0  0
 30 29  1  0  0  0  0
 31 32  1  0  0  0  0
 32 33  1  0  0  0  0
 34 30  1  0  0  0  0
 34 31  1  0  0  0  0
M  END
>  <MODEL>
5

>  <REMARK>
 VINA RESULT:      -4.6      3.941      5.945
  Name = 
  5 active torsions:
  status: ('A' for Active; 'I' for Inactive)
    1  A    between atoms: C_3  and  C_13
    2  A    between atoms: C_3  and  C_17
    3  A    between atoms: C_12  and  C_28
    4  A    between atoms: C_17  and  C_29
    5  A    between atoms: C_18  and  C_29
                            x       y       z     vdW  Elec       q    Type
                         _______ _______ _______ _____ _____    ______ ____

>  <TORSDO>
F 5

$$$$
=
 OpenBabel11062407473D

 34 38  0  0  1  0  0  0  0  0999 V2000
  160.7990  209.1640  156.2440 C   0  0  0  0  0  0  0  0  0  0  0  0
  160.3090  207.0760  154.9140 C   0  0  0  0  0  0  0  0  0  0  0  0
  161.1910  209.0530  153.7860 C   0  0  0  0  0  0  0  0  0  0  0  0
  162.8900  209.6970  151.5790 O   0  0  0  0  0  0  0  0  0  0  0  0
  163.0680  209.9870  156.7530 C   0  0  0  0  0  1  0  0  0  0  0  0
  159.8520  206.4150  156.0480 O   0  0  0  0  0  1  0  0  0  0  0  0
  160.8100  207.0060  152.5900 N   0  0  0  0  0  0  0  0  0  0  0  0
  160.7510  208.4110  154.9680 C   0  0  0  0  0  0  0  0  0  0  0  0
  161.7930  208.8790  151.3010 C   0  0  2  0  0  3  0  0  0  0  0  0
  160.1650  208.7760  157.2610 O   0  0  0  0  0  0  0  0  0  0  0  0
  161.5480  210.5140  153.8500 C   0  0  0  0  0  0  0  0  0  0  0  0
  161.6610  210.3840  156.3420 C   0  0  1  0  0  3  0  0  0  0  0  0
  160.3390  206.3960  153.7040 C   0  0  0  0  0  3  0  0  0  0  0  0
  162.4080  211.0050  151.4570 C   0  0  0  0  0  2  0  0  0  0  0  0
  161.5340  211.4260  152.6470 C   0  0  1  0  0  3  0  0  0  0  0  0
  161.2590  208.2920  152.5880 C   0  0  0  0  0  0  0  0  0  0  0  0
  161.7050  211.1180  155.0340 C   0  0  0  0  0  3  0  0  0  0  0  0
  158.6120  212.9700  150.7600 C   0  0  0  0  0  0  0  0  0  0  0  0
  157.5480  212.4800  151.5190 C   0  0  0  0  0  3  0  0  0  0  0  0
  160.1490  211.8160  152.2320 C   0  0  0  0  0  0  0  0  0  0  0  0
  157.7890  211.6860  152.5970 N   0  0  0  0  0  0  0  0  0  0  0  0
  159.9180  212.6340  151.1190 C   0  0  0  0  0  3  0  0  0  0  0  0
  159.0540  211.3470  152.9640 C   0  0  0  0  0  3  0  0  0  0  0  0
  158.3810  213.7600  149.6860 F   0  0  0  0  0  0  0  0  0  0  0  0
  162.2070  207.8180  150.2900 C   0  0  0  0  0  2  0  0  0  0  0  0
  161.0010  207.3710  149.4820 C   0  0  0  0  0  2  0  0  0  0  0  0
  161.1650  205.9260  149.0400 C   0  0  0  0  0  2  0  0  0  0  0  0
  161.1700  203.4810  147.3850 O   0  0  0  0  0  1  0  0  0  0  0  0
  161.6000  205.8470  147.5810 C   0  0  1  0  0  3  0  0  0  0  0  0
  162.1510  204.4610  147.2120 C   0  0  2  0  0  3  0  0  0  0  0  0
  162.0580  205.5040  144.8620 C   0  0  0  0  0  2  0  0  0  0  0  0
  160.5970  205.7600  145.2220 C   0  0  0  0  0  2  0  0  0  0  0  0
  160.4530  206.2820  146.6580 C   0  0  0  0  0  2  0  0  0  0  0  0
  162.6650  204.4220  145.7650 C   0  0  0  0  0  2  0  0  0  0  0  0
  1 12  1  0  0  0  0
  1 10  2  0  0  0  0
  2  8  1  0  0  0  0
  2  6  1  0  0  0  0
  3 11  1  0  0  0  0
  3  8  2  0  0  0  0
  7 13  1  0  0  0  0
  8  1  1  0  0  0  0
  9 25  1  6  0  0  0
  9  4  1  0  0  0  0
  9 16  1  0  0  0  0
 11 17  2  0  0  0  0
 12  5  1  6  0  0  0
 13  2  2  0  0  0  0
 14  4  1  0  0  0  0
 14 15  1  0  0  0  0
 15 20  1  6  0  0  0
 15 11  1  0  0  0  0
 16  7  2  0  0  0  0
 16  3  1  0  0  0  0
 17 12  1  0  0  0  0
 18 22  2  0  0  0  0
 18 19  1  0  0  0  0
 19 21  2  0  0  0  0
 20 23  2  0  0  0  0
 21 23  1  0  0  0  0
 22 20  1  0  0  0  0
 24 18  1  0  0  0  0
 26 25  1  0  0  0  0
 27 26  1  0  0  0  0
 29 27  1  1  0  0  0
 30 28  1  6  0  0  0
 30 29  1  0  0  0  0
 31 32  1  0  0  0  0
 31 34  1  0  0  0  0
 32 33  1  0  0  0  0
 33 29  1  0  0  0  0
 34 30  1  0  0  0  0
M  END
>  <MODEL>
6

>  <REMARK>
 VINA RESULT:      -4.6      4.016      5.659
  Name = 
  5 active torsions:
  status: ('A' for Active; 'I' for Inactive)
    1  A    between atoms: C_3  and  C_13
    2  A    between atoms: C_3  and  C_17
    3  A    between atoms: C_12  and  C_28
    4  A    between atoms: C_17  and  C_29
    5  A    between atoms: C_18  and  C_29
                            x       y       z     vdW  Elec       q    Type
                         _______ _______ _______ _____ _____    ______ ____

>  <TORSDO>
F 5

$$$$
=
 OpenBabel11062407473D

 34 38  0  0  1  0  0  0  0  0999 V2000
  159.8720  212.5880  145.1420 C   0  0  0  0  0  0  0  0  0  0  0  0
  157.7040  212.8320  146.4110 C   0  0  0  0  0  0  0  0  0  0  0  0
  159.8300  213.0260  147.5950 C   0  0  0  0  0  0  0  0  0  0  0  0
  160.9380  214.4430  149.8150 O   0  0  0  0  0  0  0  0  0  0  0  0
  161.4120  214.4510  144.6520 C   0  0  0  0  0  1  0  0  0  0  0  0
  156.9600  212.6050  145.2590 O   0  0  0  0  0  1  0  0  0  0  0  0
  157.7390  213.3570  148.7310 N   0  0  0  0  0  0  0  0  0  0  0  0
  159.1110  212.8070  146.3960 C   0  0  0  0  0  0  0  0  0  0  0  0
  159.7960  213.6820  150.0720 C   0  0  2  0  0  3  0  0  0  0  0  0
  159.3230  212.1060  144.1160 O   0  0  0  0  0  0  0  0  0  0  0  0
  161.3270  212.8790  147.5740 C   0  0  0  0  0  0  0  0  0  0  0  0
  161.3100  212.9980  145.0790 C   0  0  1  0  0  3  0  0  0  0  0  0
  157.0390  213.1000  147.6000 C   0  0  0  0  0  3  0  0  0  0  0  0
  162.0100  213.5580  149.9780 C   0  0  0  0  0  2  0  0  0  0  0  0
  162.1510  212.5790  148.8030 C   0  0  1  0  0  3  0  0  0  0  0  0
  159.1010  213.3560  148.7690 C   0  0  0  0  0  0  0  0  0  0  0  0
  161.9810  212.8130  146.4080 C   0  0  0  0  0  3  0  0  0  0  0  0
  161.9190  208.7820  148.7420 C   0  0  0  0  0  0  0  0  0  0  0  0
  161.8770  208.5190  150.1130 C   0  0  0  0  0  3  0  0  0  0  0  0
  162.0490  211.1480  149.2330 C   0  0  0  0  0  0  0  0  0  0  0  0
  161.9220  209.5460  151.0040 N   0  0  0  0  0  0  0  0  0  0  0  0
  162.0060  210.1030  148.3030 C   0  0  0  0  0  3  0  0  0  0  0  0
  162.0060  210.8420  150.5960 C   0  0  0  0  0  3  0  0  0  0  0  0
  161.8760  207.7650  147.8490 F   0  0  0  0  0  0  0  0  0  0  0  0
  158.9050  214.4360  151.0500 C   0  0  0  0  0  2  0  0  0  0  0  0
  158.3780  213.4850  152.1120 C   0  0  0  0  0  2  0  0  0  0  0  0
  159.4090  212.4120  152.4200 C   0  0  0  0  0  2  0  0  0  0  0  0
  161.4280  211.0420  154.0820 O   0  0  0  0  0  1  0  0  0  0  0  0
  159.1510  211.7830  153.7850 C   0  0  1  0  0  3  0  0  0  0  0  0
  160.0990  210.6090  154.0730 C   0  0  2  0  0  3  0  0  0  0  0  0
  159.0040  210.8300  156.3900 C   0  0  0  0  0  2  0  0  0  0  0  0
  159.4680  212.2790  156.2800 C   0  0  0  0  0  2  0  0  0  0  0  0
  159.1990  212.8540  154.8840 C   0  0  0  0  0  2  0  0  0  0  0  0
  159.7710  209.9310  155.4120 C   0  0  0  0  0  2  0  0  0  0  0  0
  1  8  1  0  0  0  0
  2 13  1  0  0  0  0
  3 16  2  0  0  0  0
  4 14  1  0  0  0  0
  4  9  1  0  0  0  0
  6  2  1  0  0  0  0
  7 16  1  0  0  0  0
  8  2  2  0  0  0  0
  8  3  1  0  0  0  0
  9 25  1  1  0  0  0
 10  1  2  0  0  0  0
 11  3  1  0  0  0  0
 11 15  1  0  0  0  0
 12  5  1  1  0  0  0
 12  1  1  0  0  0  0
 12 17  1  0  0  0  0
 13  7  2  0  0  0  0
 15 20  1  1  0  0  0
 15 14  1  0  0  0  0
 16  9  1  0  0  0  0
 17 11  2  0  0  0  0
 18 19  1  0  0  0  0
 19 21  2  0  0  0  0
 20 23  2  0  0  0  0
 22 18  2  0  0  0  0
 22 20  1  0  0  0  0
 23 21  1  0  0  0  0
 24 18  1  0  0  0  0
 25 26  1  0  0  0  0
 26 27  1  0  0  0  0
 29 27  1  6  0  0  0
 29 30  1  0  0  0  0
 29 33  1  0  0  0  0
 30 28  1  1  0  0  0
 30 34  1  0  0  0  0
 32 31  1  0  0  0  0
 33 32  1  0  0  0  0
 34 31  1  0  0  0  0
M  END
>  <MODEL>
7

>  <REMARK>
 VINA RESULT:      -4.2      3.071      8.519
  Name = 
  5 active torsions:
  status: ('A' for Active; 'I' for Inactive)
    1  A    between atoms: C_3  and  C_13
    2  A    between atoms: C_3  and  C_17
    3  A    between atoms: C_12  and  C_28
    4  A    between atoms: C_17  and  C_29
    5  A    between atoms: C_18  and  C_29
                            x       y       z     vdW  Elec       q    Type
                         _______ _______ _______ _____ _____    ______ ____

>  <TORSDO>
F 5

$$$$
=
 OpenBabel11062407473D

 34 38  0  0  1  0  0  0  0  0999 V2000
  160.5240  213.1090  148.1910 C   0  0  0  0  0  0  0  0  0  0  0  0
  158.6770  213.2770  149.9020 C   0  0  0  0  0  0  0  0  0  0  0  0
  160.6540  211.9260  150.3800 C   0  0  0  0  0  0  0  0  0  0  0  0
  162.2530  211.1650  152.6240 O   0  0  0  0  0  0  0  0  0  0  0  0
  162.7380  214.1710  148.4270 C   0  0  0  0  0  1  0  0  0  0  0  0
  157.9220  214.0900  149.0640 O   0  0  0  0  0  1  0  0  0  0  0  0
  158.9170  212.2090  152.0140 N   0  0  0  0  0  0  0  0  0  0  0  0
  159.9260  212.7660  149.5030 C   0  0  0  0  0  0  0  0  0  0  0  0
  160.8890  210.8800  152.7070 C   0  0  2  0  0  3  0  0  0  0  0  0
  159.8300  213.5950  147.2590 O   0  0  0  0  0  0  0  0  0  0  0  0
  161.9300  211.3010  149.8850 C   0  0  0  0  0  0  0  0  0  0  0  0
  161.9950  212.9230  147.9860 C   0  0  1  0  0  3  0  0  0  0  0  0
  158.1880  212.9730  151.1660 C   0  0  0  0  0  3  0  0  0  0  0  0
  162.8170  210.0590  151.9780 C   0  0  0  0  0  2  0  0  0  0  0  0
  162.5210  210.0420  150.4710 C   0  0  1  0  0  3  0  0  0  0  0  0
  160.1350  211.6980  151.6830 C   0  0  0  0  0  0  0  0  0  0  0  0
  162.4990  211.7370  148.7550 C   0  0  0  0  0  3  0  0  0  0  0  0
  161.0280  207.2630  148.3430 C   0  0  0  0  0  0  0  0  0  0  0  0
  160.4260  206.4920  149.3390 C   0  0  0  0  0  3  0  0  0  0  0  0
  161.7890  208.8060  150.0450 C   0  0  0  0  0  0  0  0  0  0  0  0
  160.5100  206.8750  150.6410 N   0  0  0  0  0  0  0  0  0  0  0  0
  161.7130  208.4240  148.7000 C   0  0  0  0  0  3  0  0  0  0  0  0
  161.1730  208.0050  151.0100 C   0  0  0  0  0  3  0  0  0  0  0  0
  160.9490  206.8870  147.0450 F   0  0  0  0  0  0  0  0  0  0  0  0
  160.4150  211.1290  154.1340 C   0  0  0  0  0  2  0  0  0  0  0  0
  159.5970  209.9460  154.6230 C   0  0  0  0  0  2  0  0  0  0  0  0
  158.8150  210.3220  155.8710 C   0  0  0  0  0  2  0  0  0  0  0  0
  155.9060  210.4440  155.3850 O   0  0  0  0  0  1  0  0  0  0  0  0
  158.0090  211.5970  155.6470 C   0  0  1  0  0  3  0  0  0  0  0  0
  156.7690  211.3550  154.7720 C   0  0  2  0  0  3  0  0  0  0  0  0
  156.2870  213.7730  155.5050 C   0  0  0  0  0  2  0  0  0  0  0  0
  156.4520  213.1970  156.9090 C   0  0  0  0  0  2  0  0  0  0  0  0
  157.6540  212.2470  156.9920 C   0  0  0  0  0  2  0  0  0  0  0  0
  156.0150  212.6620  154.4830 C   0  0  0  0  0  2  0  0  0  0  0  0
  1  8  1  0  0  0  0
  2 13  1  0  0  0  0
  3 16  2  0  0  0  0
  4  9  1  0  0  0  0
  6  2  1  0  0  0  0
  8  2  2  0  0  0  0
  8  3  1  0  0  0  0
  9 25  1  1  0  0  0
 10  1  2  0  0  0  0
 11  3  1  0  0  0  0
 11 15  1  0  0  0  0
 12  1  1  0  0  0  0
 12  5  1  1  0  0  0
 12 17  1  0  0  0  0
 13  7  2  0  0  0  0
 14  4  1  0  0  0  0
 15 20  1  1  0  0  0
 15 14  1  0  0  0  0
 16  7  1  0  0  0  0
 16  9  1  0  0  0  0
 17 11  2  0  0  0  0
 18 22  2  0  0  0  0
 18 19  1  0  0  0  0
 19 21  2  0  0  0  0
 20 23  2  0  0  0  0
 21 23  1  0  0  0  0
 22 20  1  0  0  0  0
 24 18  1  0  0  0  0
 25 26  1  0  0  0  0
 26 27  1  0  0  0  0
 29 27  1  1  0  0  0
 29 33  1  0  0  0  0
 30 28  1  1  0  0  0
 30 29  1  0  0  0  0
 31 32  1  0  0  0  0
 32 33  1  0  0  0  0
 34 30  1  0  0  0  0
 34 31  1  0  0  0  0
M  END
>  <MODEL>
8

>  <REMARK>
 VINA RESULT:      -3.9      3.022      7.721
  Name = 
  5 active torsions:
  status: ('A' for Active; 'I' for Inactive)
    1  A    between atoms: C_3  and  C_13
    2  A    between atoms: C_3  and  C_17
    3  A    between atoms: C_12  and  C_28
    4  A    between atoms: C_17  and  C_29
    5  A    between atoms: C_18  and  C_29
                            x       y       z     vdW  Elec       q    Type
                         _______ _______ _______ _____ _____    ______ ____

>  <TORSDO>
F 5

$$$$
=
 OpenBabel11062407473D

 34 38  0  0  1  0  0  0  0  0999 V2000
  160.8310  209.0480  156.2600 C   0  0  0  0  0  0  0  0  0  0  0  0
  160.4130  206.9950  154.8540 C   0  0  0  0  0  0  0  0  0  0  0  0
  161.2340  209.0380  153.8000 C   0  0  0  0  0  0  0  0  0  0  0  0
  162.9170  209.8160  151.6260 O   0  0  0  0  0  0  0  0  0  0  0  0
  163.0700  209.9260  156.8070 C   0  0  0  0  0  1  0  0  0  0  0  0
  159.9740  206.2780  155.9620 O   0  0  0  0  0  1  0  0  0  0  0  0
  160.9230  207.0230  152.5310 N   0  0  0  0  0  0  0  0  0  0  0  0
  160.8110  208.3400  154.9570 C   0  0  0  0  0  0  0  0  0  0  0  0
  161.8480  208.9730  151.3140 C   0  0  2  0  0  3  0  0  0  0  0  0
  160.2060  208.6030  157.2590 O   0  0  0  0  0  0  0  0  0  0  0  0
  161.5430  210.5060  153.9180 C   0  0  0  0  0  0  0  0  0  0  0  0
  161.6520  210.2910  156.4040 C   0  0  1  0  0  3  0  0  0  0  0  0
  160.4690  206.3590  153.6200 C   0  0  0  0  0  3  0  0  0  0  0  0
  162.3930  211.1110  151.5480 C   0  0  0  0  0  2  0  0  0  0  0  0
  161.5030  211.4610  152.7490 C   0  0  1  0  0  3  0  0  0  0  0  0
  161.3300  208.3230  152.5770 C   0  0  0  0  0  0  0  0  0  0  0  0
  161.6760  211.0720  155.1240 C   0  0  0  0  0  3  0  0  0  0  0  0
  157.7310  211.9680  152.7850 C   0  0  0  0  0  0  0  0  0  0  0  0
  157.5500  212.5290  151.5200 C   0  0  0  0  0  3  0  0  0  0  0  0
  160.1060  211.8200  152.3430 C   0  0  0  0  0  0  0  0  0  0  0  0
  158.6200  212.7240  150.7020 N   0  0  0  0  0  0  0  0  0  0  0  0
  159.0160  211.6140  153.1970 C   0  0  0  0  0  3  0  0  0  0  0  0
  159.8810  212.3850  151.0840 C   0  0  0  0  0  3  0  0  0  0  0  0
  156.6720  211.7720  153.6050 F   0  0  0  0  0  0  0  0  0  0  0  0
  162.3000  207.9630  150.2670 C   0  0  0  0  0  2  0  0  0  0  0  0
  161.8000  208.3780  148.8940 C   0  0  0  0  0  2  0  0  0  0  0  0
  162.5500  207.6270  147.8070 C   0  0  0  0  0  2  0  0  0  0  0  0
  159.9140  206.3370  148.1220 O   0  0  0  0  0  1  0  0  0  0  0  0
  162.3090  206.1260  147.9140 C   0  0  1  0  0  3  0  0  0  0  0  0
  161.0500  205.7960  148.7300 C   0  0  2  0  0  3  0  0  0  0  0  0
  161.5870  203.4440  147.8360 C   0  0  0  0  0  2  0  0  0  0  0  0
  161.5500  204.1400  146.4790 C   0  0  0  0  0  2  0  0  0  0  0  0
  162.2800  205.4900  146.5160 C   0  0  0  0  0  2  0  0  0  0  0  0
  160.8680  204.2800  148.9030 C   0  0  0  0  0  2  0  0  0  0  0  0
  1 12  1  0  0  0  0
  1 10  2  0  0  0  0
  2  8  1  0  0  0  0
  2  6  1  0  0  0  0
  3 11  1  0  0  0  0
  3  8  2  0  0  0  0
  7 16  2  0  0  0  0
  7 13  1  0  0  0  0
  8  1  1  0  0  0  0
  9 25  1  6  0  0  0
  9  4  1  0  0  0  0
  9 16  1  0  0  0  0
 11 17  2  0  0  0  0
 12  5  1  6  0  0  0
 13  2  2  0  0  0  0
 14  4  1  0  0  0  0
 14 15  1  0  0  0  0
 15 20  1  6  0  0  0
 15 11  1  0  0  0  0
 16  3  1  0  0  0  0
 17 12  1  0  0  0  0
 18 22  1  0  0  0  0
 18 24  1  0  0  0  0
 19 18  2  0  0  0  0
 20 22  2  0  0  0  0
 21 23  2  0  0  0  0
 21 19  1  0  0  0  0
 23 20  1  0  0  0  0
 26 25  1  0  0  0  0
 27 26  1  0  0  0  0
 29 27  1  6  0  0  0
 29 30  1  0  0  0  0
 30 28  1  6  0  0  0
 30 34  1  0  0  0  0
 31 34  1  0  0  0  0
 32 33  1  0  0  0  0
 32 31  1  0  0  0  0
 33 29  1  0  0  0  0
M  END
>  <MODEL>
9

>  <REMARK>
 VINA RESULT:      -3.6      3.541      5.560
  Name = 
  5 active torsions:
  status: ('A' for Active; 'I' for Inactive)
    1  A    between atoms: C_3  and  C_13
    2  A    between atoms: C_3  and  C_17
    3  A    between atoms: C_12  and  C_28
    4  A    between atoms: C_17  and  C_29
    5  A    between atoms: C_18  and  C_29
                            x       y       z     vdW  Elec       q    Type
                         _______ _______ _______ _____ _____    ______ ____

>  <TORSDO>
F 5

$$$$
