=
 OpenBabel11052422583D

 28 32  0  0  1  0  0  0  0  0999 V2000
  161.9560  209.5600  150.0220 N   0  0  0  0  0  0  0  0  0  0  0  0
  161.2320  204.6490  147.9890 C   0  0  0  0  0  3  0  0  0  0  0  0
  161.0870  206.9610  153.6930 O   0  0  0  0  0  0  0  0  0  0  0  0
  161.1160  203.3600  150.0460 C   0  0  0  0  0  0  0  0  0  0  0  0
  161.1500  205.8980  150.1790 C   0  0  2  0  0  3  0  0  0  0  0  0
  161.1420  202.2330  147.8980 C   0  0  0  0  0  0  0  0  0  0  0  0
  161.2200  204.6110  149.3910 C   0  0  0  0  0  0  0  0  0  0  0  0
  160.6860  204.5430  152.2320 C   0  0  0  0  0  2  0  0  0  0  0  0
  161.0980  202.1820  149.2930 C   0  0  0  0  0  3  0  0  0  0  0  0
  161.5490  208.2320  151.7380 C   0  0  0  0  0  0  0  0  0  0  0  0
  161.9580  207.0500  149.5450 C   0  0  0  0  0  2  0  0  0  0  0  0
  161.1110  203.2470  151.5470 C   0  0  0  0  0  2  0  0  0  0  0  0
  161.5270  209.5530  152.1410 C   0  0  0  0  0  0  0  0  0  0  0  0
  161.3310  206.9730  152.4560 C   0  0  0  0  0  0  0  0  0  0  0  0
  161.2650  210.0610  153.5150 C   0  0  0  0  0  1  0  0  0  0  0  0
  161.1120  200.7520  146.9680 Cl  0  0  0  0  0  0  0  0  0  0  0  0
  161.2030  203.4660  147.2460 C   0  0  0  0  0  3  0  0  0  0  0  0
  161.5120  205.6930  151.6720 C   0  0  2  0  0  3  0  0  0  0  0  0
  161.7770  210.3480  151.0770 N   0  0  0  0  0  0  0  0  0  0  0  0
  161.8110  208.2750  150.3960 C   0  0  0  0  0  0  0  0  0  0  0  0
  162.2100  210.0510  148.6730 C   0  0  0  0  0  2  0  0  0  0  0  0
  161.9990  211.5630  148.5710 C   0  0  2  0  0  3  0  0  0  0  0  0
  161.9170  213.1250  146.1450 C   0  0  0  0  0  0  0  0  0  0  0  0
  160.7080  211.8880  147.8530 C   0  0  0  0  0  3  0  0  0  0  0  0
  163.2210  212.2460  147.9980 C   0  0  0  0  0  3  0  0  0  0  0  0
  163.1830  212.9510  146.8660 C   0  0  0  0  0  3  0  0  0  0  0  0
  161.8920  213.7460  145.0510 O   0  0  0  0  0  0  0  0  0  0  0  0
  160.6760  212.5960  146.7220 C   0  0  0  0  0  3  0  0  0  0  0  0
  1 20  1  0  0  0  0
  1 19  1  0  0  0  0
  2  7  1  0  0  0  0
  4 12  1  0  0  0  0
  5 11  1  6  0  0  0
  5 18  1  0  0  0  0
  6  9  2  0  0  0  0
  7  4  2  0  0  0  0
  7  5  1  0  0  0  0
  9  4  1  0  0  0  0
 10 13  1  0  0  0  0
 10 14  1  0  0  0  0
 11 20  1  0  0  0  0
 12  8  1  0  0  0  0
 13 15  1  0  0  0  0
 14  3  2  0  0  0  0
 16  6  1  0  0  0  0
 17  6  1  0  0  0  0
 17  2  2  0  0  0  0
 18  8  1  1  0  0  0
 18 14  1  0  0  0  0
 19 13  2  0  0  0  0
 20 10  2  0  0  0  0
 21  1  1  0  0  0  0
 22 21  1  6  0  0  0
 23 28  1  0  0  0  0
 23 26  1  0  0  0  0
 24 22  1  0  0  0  0
 25 22  1  0  0  0  0
 26 25  2  0  0  0  0
 27 23  2  0  0  0  0
 28 24  2  0  0  0  0
M  END
>  <MODEL>
1

>  <REMARK>
 VINA RESULT:     -10.8      0.000      0.000
  Name = 
  2 active torsions:
  status: ('A' for Active; 'I' for Inactive)
    1  A    between atoms: N_1  and  C_2
    2  A    between atoms: C_2  and  C_3
                            x       y       z     vdW  Elec       q    Type
                         _______ _______ _______ _____ _____    ______ ____

>  <TORSDO>
F 2

$$$$
=
 OpenBabel11052422583D

 28 32  0  0  1  0  0  0  0  0999 V2000
  161.1200  209.3640  152.8820 N   0  0  0  0  0  0  0  0  0  0  0  0
  160.9860  206.9610  148.0870 C   0  0  0  0  0  3  0  0  0  0  0  0
  160.9670  204.8970  153.8870 O   0  0  0  0  0  0  0  0  0  0  0  0
  161.2390  204.6440  148.7760 C   0  0  0  0  0  0  0  0  0  0  0  0
  160.8970  206.4300  150.5520 C   0  0  2  0  0  3  0  0  0  0  0  0
  161.2570  205.2290  146.4210 C   0  0  0  0  0  0  0  0  0  0  0  0
  161.0970  206.0120  149.1140 C   0  0  0  0  0  0  0  0  0  0  0  0
  160.8180  204.0090  151.1800 C   0  0  0  0  0  2  0  0  0  0  0  0
  161.3380  204.2680  147.4320 C   0  0  0  0  0  3  0  0  0  0  0  0
  161.0660  207.1920  153.2770 C   0  0  0  0  0  0  0  0  0  0  0  0
  161.4650  207.8300  150.8670 C   0  0  0  0  0  2  0  0  0  0  0  0
  161.3770  203.5760  149.8270 C   0  0  0  0  0  2  0  0  0  0  0  0
  160.8760  207.8960  154.4510 C   0  0  0  0  0  0  0  0  0  0  0  0
  161.1020  205.7580  152.9760 C   0  0  0  0  0  0  0  0  0  0  0  0
  160.6550  207.3250  155.8060 C   0  0  0  0  0  1  0  0  0  0  0  0
  161.3760  204.7430  144.7450 Cl  0  0  0  0  0  0  0  0  0  0  0  0
  161.0750  206.5730  146.7480 C   0  0  0  0  0  3  0  0  0  0  0  0
  161.4090  205.3610  151.5500 C   0  0  2  0  0  3  0  0  0  0  0  0
  160.9120  209.2210  154.1860 N   0  0  0  0  0  0  0  0  0  0  0  0
  161.2040  208.1490  152.3090 C   0  0  0  0  0  0  0  0  0  0  0  0
  161.1820  210.6530  152.2030 C   0  0  0  0  0  2  0  0  0  0  0  0
  159.7880  211.2380  151.9700 C   0  0  2  0  0  3  0  0  0  0  0  0
  158.6100  213.4730  153.3650 C   0  0  0  0  0  0  0  0  0  0  0  0
  159.8710  212.6580  151.4530 C   0  0  0  0  0  3  0  0  0  0  0  0
  158.9140  211.0690  153.1920 C   0  0  0  0  0  3  0  0  0  0  0  0
  158.3870  212.1050  153.8460 C   0  0  0  0  0  3  0  0  0  0  0  0
  158.1560  214.4530  154.0110 O   0  0  0  0  0  0  0  0  0  0  0  0
  159.3400  213.6910  152.1110 C   0  0  0  0  0  3  0  0  0  0  0  0
  1 19  1  0  0  0  0
  2  7  1  0  0  0  0
  4  7  2  0  0  0  0
  4 12  1  0  0  0  0
  5 11  1  6  0  0  0
  5 18  1  0  0  0  0
  6 17  1  0  0  0  0
  6  9  2  0  0  0  0
  7  5  1  0  0  0  0
  9  4  1  0  0  0  0
 10 13  1  0  0  0  0
 11 20  1  0  0  0  0
 12  8  1  0  0  0  0
 13 15  1  0  0  0  0
 14 10  1  0  0  0  0
 14  3  2  0  0  0  0
 16  6  1  0  0  0  0
 17  2  2  0  0  0  0
 18  8  1  6  0  0  0
 18 14  1  0  0  0  0
 19 13  2  0  0  0  0
 20  1  1  0  0  0  0
 20 10  2  0  0  0  0
 21  1  1  0  0  0  0
 22 21  1  1  0  0  0
 22 25  1  0  0  0  0
 23 26  1  0  0  0  0
 23 27  2  0  0  0  0
 24 22  1  0  0  0  0
 24 28  2  0  0  0  0
 25 26  2  0  0  0  0
 28 23  1  0  0  0  0
M  END
>  <MODEL>
2

>  <REMARK>
 VINA RESULT:      -9.5      3.282      4.134
  Name = 
  2 active torsions:
  status: ('A' for Active; 'I' for Inactive)
    1  A    between atoms: N_1  and  C_2
    2  A    between atoms: C_2  and  C_3
                            x       y       z     vdW  Elec       q    Type
                         _______ _______ _______ _____ _____    ______ ____

>  <TORSDO>
F 2

$$$$
=
 OpenBabel11052422583D

 28 32  0  0  1  0  0  0  0  0999 V2000
  161.4330  206.3270  152.6300 N   0  0  0  0  0  0  0  0  0  0  0  0
  161.9560  210.5360  149.3450 C   0  0  0  0  0  3  0  0  0  0  0  0
  159.8890  209.8600  155.1040 O   0  0  0  0  0  0  0  0  0  0  0  0
  160.8100  212.2310  150.6550 C   0  0  0  0  0  0  0  0  0  0  0  0
  161.2630  209.9590  151.7010 C   0  0  2  0  0  3  0  0  0  0  0  0
  161.5590  212.7270  148.4010 C   0  0  0  0  0  0  0  0  0  0  0  0
  161.2980  210.9080  150.5260 C   0  0  0  0  0  0  0  0  0  0  0  0
  160.4020  211.8380  153.1130 C   0  0  0  0  0  2  0  0  0  0  0  0
  160.9270  213.1220  149.5840 C   0  0  0  0  0  3  0  0  0  0  0  0
  160.6870  208.0810  153.7450 C   0  0  0  0  0  0  0  0  0  0  0  0
  161.1170  208.4800  151.2890 C   0  0  0  0  0  2  0  0  0  0  0  0
  160.0830  212.6930  151.8890 C   0  0  0  0  0  2  0  0  0  0  0  0
  160.8000  206.9920  154.5870 C   0  0  0  0  0  0  0  0  0  0  0  0
  160.2660  209.4670  153.9670 C   0  0  0  0  0  0  0  0  0  0  0  0
  160.4860  206.9550  156.0410 C   0  0  0  0  0  1  0  0  0  0  0  0
  161.7040  213.8540  147.0710 Cl  0  0  0  0  0  0  0  0  0  0  0  0
  162.0780  211.4370  148.2840 C   0  0  0  0  0  3  0  0  0  0  0  0
  160.2060  210.3710  152.7570 C   0  0  2  0  0  3  0  0  0  0  0  0
  161.2580  205.9320  153.8860 N   0  0  0  0  0  0  0  0  0  0  0  0
  161.1050  207.6280  152.5230 C   0  0  0  0  0  0  0  0  0  0  0  0
  161.9570  205.4710  151.5720 C   0  0  0  0  0  2  0  0  0  0  0  0
  160.8450  204.9590  150.6540 C   0  0  2  0  0  3  0  0  0  0  0  0
  161.1540  203.1470  148.4290 C   0  0  0  0  0  0  0  0  0  0  0  0
  160.6700  203.4630  150.7910 C   0  0  0  0  0  3  0  0  0  0  0  0
  161.0470  205.4370  149.2340 C   0  0  0  0  0  3  0  0  0  0  0  0
  161.2090  204.5970  148.2110 C   0  0  0  0  0  3  0  0  0  0  0  0
  161.3590  202.3550  147.4730 O   0  0  0  0  0  0  0  0  0  0  0  0
  160.8310  202.6270  149.7630 C   0  0  0  0  0  3  0  0  0  0  0  0
  1 19  1  0  0  0  0
  2  7  1  0  0  0  0
  4 12  1  0  0  0  0
  5 11  1  6  0  0  0
  5 18  1  0  0  0  0
  6  9  2  0  0  0  0
  7  4  2  0  0  0  0
  7  5  1  0  0  0  0
  9  4  1  0  0  0  0
 10 14  1  0  0  0  0
 10 13  1  0  0  0  0
 11 20  1  0  0  0  0
 12  8  1  0  0  0  0
 13 15  1  0  0  0  0
 14  3  2  0  0  0  0
 16  6  1  0  0  0  0
 17  6  1  0  0  0  0
 17  2  2  0  0  0  0
 18  8  1  1  0  0  0
 18 14  1  0  0  0  0
 19 13  2  0  0  0  0
 20  1  1  0  0  0  0
 20 10  2  0  0  0  0
 21  1  1  0  0  0  0
 22 24  1  0  0  0  0
 22 21  1  1  0  0  0
 23 28  1  0  0  0  0
 25 22  1  0  0  0  0
 26 23  1  0  0  0  0
 26 25  2  0  0  0  0
 27 23  2  0  0  0  0
 28 24  2  0  0  0  0
M  END
>  <MODEL>
3

>  <REMARK>
 VINA RESULT:      -9.2      3.665      7.468
  Name = 
  2 active torsions:
  status: ('A' for Active; 'I' for Inactive)
    1  A    between atoms: N_1  and  C_2
    2  A    between atoms: C_2  and  C_3
                            x       y       z     vdW  Elec       q    Type
                         _______ _______ _______ _____ _____    ______ ____

>  <TORSDO>
F 2

$$$$
=
 OpenBabel11052422583D

 28 32  0  0  1  0  0  0  0  0999 V2000
  161.1190  207.4450  153.1210 N   0  0  0  0  0  0  0  0  0  0  0  0
  161.2320  203.0940  149.9850 C   0  0  0  0  0  3  0  0  0  0  0  0
  161.9560  209.1170  148.9390 O   0  0  0  0  0  0  0  0  0  0  0  0
  161.3500  204.1570  147.8020 C   0  0  0  0  0  0  0  0  0  0  0  0
  161.5720  205.5920  149.8890 C   0  0  2  0  0  3  0  0  0  0  0  0
  161.0810  201.7520  147.9780 C   0  0  0  0  0  0  0  0  0  0  0  0
  161.3270  204.2620  149.2140 C   0  0  0  0  0  0  0  0  0  0  0  0
  162.0280  206.5810  147.6350 C   0  0  0  0  0  2  0  0  0  0  0  0
  161.2060  202.9040  147.1970 C   0  0  0  0  0  3  0  0  0  0  0  0
  161.5000  208.1680  151.0690 C   0  0  0  0  0  0  0  0  0  0  0  0
  160.8420  205.7360  151.2400 C   0  0  0  0  0  2  0  0  0  0  0  0
  161.4360  205.3710  146.9170 C   0  0  0  0  0  2  0  0  0  0  0  0
  161.6760  209.1940  151.9780 C   0  0  0  0  0  0  0  0  0  0  0  0
  161.6390  208.1000  149.6120 C   0  0  0  0  0  0  0  0  0  0  0  0
  162.0710  210.5950  151.6730 C   0  0  0  0  0  1  0  0  0  0  0  0
  160.9080  200.1910  147.2080 Cl  0  0  0  0  0  0  0  0  0  0  0  0
  161.1000  201.8460  149.3700 C   0  0  0  0  0  3  0  0  0  0  0  0
  161.2850  206.7890  148.9470 C   0  0  2  0  0  3  0  0  0  0  0  0
  161.4390  208.7290  153.2250 N   0  0  0  0  0  0  0  0  0  0  0  0
  161.1610  207.0790  151.8260 C   0  0  0  0  0  0  0  0  0  0  0  0
  160.8310  206.5820  154.2600 C   0  0  0  0  0  2  0  0  0  0  0  0
  160.3990  207.3880  155.4870 C   0  0  2  0  0  3  0  0  0  0  0  0
  161.1870  210.0880  156.1300 C   0  0  0  0  0  0  0  0  0  0  0  0
  159.5780  208.5940  155.0870 C   0  0  0  0  0  3  0  0  0  0  0  0
  161.5810  207.7030  156.3760 C   0  0  0  0  0  3  0  0  0  0  0  0
  161.9540  208.9530  156.6550 C   0  0  0  0  0  3  0  0  0  0  0  0
  161.5690  211.2670  156.3510 O   0  0  0  0  0  0  0  0  0  0  0  0
  159.9560  209.8420  155.3710 C   0  0  0  0  0  3  0  0  0  0  0  0
  1 19  1  0  0  0  0
  1 21  1  0  0  0  0
  3 14  2  0  0  0  0
  4  7  1  0  0  0  0
  5 11  1  1  0  0  0
  6 17  2  0  0  0  0
  7  5  1  0  0  0  0
  7  2  2  0  0  0  0
  9  4  2  0  0  0  0
  9  6  1  0  0  0  0
 10 20  2  0  0  0  0
 10 13  1  0  0  0  0
 11 20  1  0  0  0  0
 12  8  1  0  0  0  0
 12  4  1  0  0  0  0
 13 19  2  0  0  0  0
 14 10  1  0  0  0  0
 15 13  1  0  0  0  0
 16  6  1  0  0  0  0
 17  2  1  0  0  0  0
 18  8  1  6  0  0  0
 18 14  1  0  0  0  0
 18  5  1  0  0  0  0
 20  1  1  0  0  0  0
 22 21  1  6  0  0  0
 22 25  1  0  0  0  0
 23 27  2  0  0  0  0
 23 26  1  0  0  0  0
 24 28  2  0  0  0  0
 24 22  1  0  0  0  0
 25 26  2  0  0  0  0
 28 23  1  0  0  0  0
M  END
>  <MODEL>
4

>  <REMARK>
 VINA RESULT:      -8.5      2.939      5.581
  Name = 
  2 active torsions:
  status: ('A' for Active; 'I' for Inactive)
    1  A    between atoms: N_1  and  C_2
    2  A    between atoms: C_2  and  C_3
                            x       y       z     vdW  Elec       q    Type
                         _______ _______ _______ _____ _____    ______ ____

>  <TORSDO>
F 2

$$$$
=
 OpenBabel11052422583D

 28 32  0  0  1  0  0  0  0  0999 V2000
  160.9660  207.4620  152.4480 N   0  0  0  0  0  0  0  0  0  0  0  0
  161.2550  202.9160  149.6160 C   0  0  0  0  0  3  0  0  0  0  0  0
  161.9780  208.8650  148.2070 O   0  0  0  0  0  0  0  0  0  0  0  0
  161.4630  203.8340  147.3750 C   0  0  0  0  0  0  0  0  0  0  0  0
  161.5790  205.4060  149.3700 C   0  0  2  0  0  3  0  0  0  0  0  0
  161.2050  201.4430  147.6970 C   0  0  0  0  0  0  0  0  0  0  0  0
  161.3760  204.0310  148.7750 C   0  0  0  0  0  0  0  0  0  0  0  0
  162.1280  206.2490  147.0780 C   0  0  0  0  0  2  0  0  0  0  0  0
  161.3560  202.5430  146.8490 C   0  0  0  0  0  3  0  0  0  0  0  0
  161.4330  208.0530  150.3730 C   0  0  0  0  0  0  0  0  0  0  0  0
  160.7870  205.6310  150.6750 C   0  0  0  0  0  2  0  0  0  0  0  0
  161.5800  204.9880  146.4160 C   0  0  0  0  0  2  0  0  0  0  0  0
  161.5600  209.1380  151.2190 C   0  0  0  0  0  0  0  0  0  0  0  0
  161.6380  207.8900  148.9310 C   0  0  0  0  0  0  0  0  0  0  0  0
  161.9570  210.5210  150.8390 C   0  0  0  0  0  1  0  0  0  0  0  0
  161.0790  199.8330  147.0250 Cl  0  0  0  0  0  0  0  0  0  0  0  0
  161.1610  201.6290  149.0800 C   0  0  0  0  0  3  0  0  0  0  0  0
  161.3260  206.5350  148.3390 C   0  0  2  0  0  3  0  0  0  0  0  0
  161.2710  208.7540  152.4820 N   0  0  0  0  0  0  0  0  0  0  0  0
  161.0690  207.0130  151.1840 C   0  0  0  0  0  0  0  0  0  0  0  0
  160.6330  206.6730  153.6290 C   0  0  0  0  0  2  0  0  0  0  0  0
  161.2530  207.2620  154.8980 C   0  0  2  0  0  3  0  0  0  0  0  0
  160.1070  209.3140  156.5730 C   0  0  0  0  0  0  0  0  0  0  0  0
  160.4110  206.9460  156.1140 C   0  0  0  0  0  3  0  0  0  0  0  0
  161.5660  208.7310  154.7190 C   0  0  0  0  0  3  0  0  0  0  0  0
  161.0200  209.6780  155.4830 C   0  0  0  0  0  3  0  0  0  0  0  0
  159.5520  210.2100  157.2600 O   0  0  0  0  0  0  0  0  0  0  0  0
  159.8690  207.8980  156.8760 C   0  0  0  0  0  3  0  0  0  0  0  0
  1 19  1  0  0  0  0
  1 21  1  0  0  0  0
  3 14  2  0  0  0  0
  4  7  1  0  0  0  0
  5 11  1  1  0  0  0
  6 17  2  0  0  0  0
  7  5  1  0  0  0  0
  7  2  2  0  0  0  0
  9  4  2  0  0  0  0
  9  6  1  0  0  0  0
 10 20  2  0  0  0  0
 10 13  1  0  0  0  0
 11 20  1  0  0  0  0
 12  8  1  0  0  0  0
 12  4  1  0  0  0  0
 13 19  2  0  0  0  0
 14 10  1  0  0  0  0
 15 13  1  0  0  0  0
 16  6  1  0  0  0  0
 17  2  1  0  0  0  0
 18  8  1  6  0  0  0
 18 14  1  0  0  0  0
 18  5  1  0  0  0  0
 20  1  1  0  0  0  0
 22 21  1  6  0  0  0
 22 24  1  0  0  0  0
 23 28  1  0  0  0  0
 23 27  2  0  0  0  0
 24 28  2  0  0  0  0
 25 22  1  0  0  0  0
 25 26  2  0  0  0  0
 26 23  1  0  0  0  0
M  END
>  <MODEL>
5

>  <REMARK>
 VINA RESULT:      -8.3      2.704      5.807
  Name = 
  2 active torsions:
  status: ('A' for Active; 'I' for Inactive)
    1  A    between atoms: N_1  and  C_2
    2  A    between atoms: C_2  and  C_3
                            x       y       z     vdW  Elec       q    Type
                         _______ _______ _______ _____ _____    ______ ____

>  <TORSDO>
F 2

$$$$
=
 OpenBabel11052422583D

 28 32  0  0  1  0  0  0  0  0999 V2000
  161.3530  205.6930  148.4320 N   0  0  0  0  0  0  0  0  0  0  0  0
  161.5650  209.3650  152.3380 C   0  0  0  0  0  3  0  0  0  0  0  0
  160.6980  203.2710  152.2640 O   0  0  0  0  0  0  0  0  0  0  0  0
  160.8820  208.0010  154.2290 C   0  0  0  0  0  0  0  0  0  0  0  0
  161.3300  206.8770  151.9930 C   0  0  2  0  0  3  0  0  0  0  0  0
  161.1840  210.3930  154.4940 C   0  0  0  0  0  0  0  0  0  0  0  0
  161.2060  208.1120  152.8550 C   0  0  0  0  0  0  0  0  0  0  0  0
  160.9630  205.4860  154.0420 C   0  0  0  0  0  2  0  0  0  0  0  0
  160.8540  209.1460  155.0310 C   0  0  0  0  0  3  0  0  0  0  0  0
  161.0240  204.6060  150.3250 C   0  0  0  0  0  0  0  0  0  0  0  0
  160.9640  207.1220  150.5150 C   0  0  0  0  0  2  0  0  0  0  0  0
  160.4750  206.6890  154.8450 C   0  0  0  0  0  2  0  0  0  0  0  0
  161.2100  203.7130  149.2870 C   0  0  0  0  0  0  0  0  0  0  0  0
  160.7900  204.4230  151.7600 C   0  0  0  0  0  0  0  0  0  0  0  0
  161.2050  202.2280  149.3780 C   0  0  0  0  0  1  0  0  0  0  0  0
  161.1510  211.8170  155.5100 Cl  0  0  0  0  0  0  0  0  0  0  0  0
  161.5440  210.5020  153.1500 C   0  0  0  0  0  3  0  0  0  0  0  0
  160.5610  205.6690  152.5850 C   0  0  2  0  0  3  0  0  0  0  0  0
  161.4100  204.3990  148.1400 N   0  0  0  0  0  0  0  0  0  0  0  0
  161.1320  205.8430  149.7510 C   0  0  0  0  0  0  0  0  0  0  0  0
  161.5620  206.7590  147.4580 C   0  0  0  0  0  2  0  0  0  0  0  0
  161.7740  206.2030  146.0480 C   0  0  2  0  0  3  0  0  0  0  0  0
  160.8760  203.6460  145.0580 C   0  0  0  0  0  0  0  0  0  0  0  0
  160.4560  206.0250  145.3270 C   0  0  0  0  0  3  0  0  0  0  0  0
  162.6440  204.9670  146.0750 C   0  0  0  0  0  3  0  0  0  0  0  0
  162.2190  203.7820  145.6340 C   0  0  0  0  0  3  0  0  0  0  0  0
  160.4560  202.5180  144.6900 O   0  0  0  0  0  0  0  0  0  0  0  0
  160.0370  204.8370  144.8860 C   0  0  0  0  0  3  0  0  0  0  0  0
  1 20  1  0  0  0  0
  2  7  2  0  0  0  0
  2 17  1  0  0  0  0
  4 12  1  0  0  0  0
  4  9  2  0  0  0  0
  5 11  1  6  0  0  0
  5 18  1  0  0  0  0
  5  7  1  0  0  0  0
  6  9  1  0  0  0  0
  6 16  1  0  0  0  0
  7  4  1  0  0  0  0
  8 12  1  0  0  0  0
 10 14  1  0  0  0  0
 13 15  1  0  0  0  0
 13 10  1  0  0  0  0
 14  3  2  0  0  0  0
 14 18  1  0  0  0  0
 17  6  2  0  0  0  0
 18  8  1  1  0  0  0
 19  1  1  0  0  0  0
 19 13  2  0  0  0  0
 20 10  2  0  0  0  0
 20 11  1  0  0  0  0
 21  1  1  0  0  0  0
 22 25  1  0  0  0  0
 22 21  1  1  0  0  0
 23 26  1  0  0  0  0
 24 22  1  0  0  0  0
 26 25  2  0  0  0  0
 27 23  2  0  0  0  0
 28 23  1  0  0  0  0
 28 24  2  0  0  0  0
M  END
>  <MODEL>
6

>  <REMARK>
 VINA RESULT:      -8.2      4.682      6.959
  Name = 
  2 active torsions:
  status: ('A' for Active; 'I' for Inactive)
    1  A    between atoms: N_1  and  C_2
    2  A    between atoms: C_2  and  C_3
                            x       y       z     vdW  Elec       q    Type
                         _______ _______ _______ _____ _____    ______ ____

>  <TORSDO>
F 2

$$$$
=
 OpenBabel11052422583D

 28 32  0  0  1  0  0  0  0  0999 V2000
  161.1060  203.8400  149.0950 N   0  0  0  0  0  0  0  0  0  0  0  0
  161.9560  209.1170  148.6360 C   0  0  0  0  0  3  0  0  0  0  0  0
  161.2100  205.3250  153.4280 O   0  0  0  0  0  0  0  0  0  0  0  0
  161.6570  209.7900  150.9520 C   0  0  0  0  0  0  0  0  0  0  0  0
  161.7120  207.3130  150.3830 C   0  0  2  0  0  3  0  0  0  0  0  0
  161.9560  211.4640  149.2220 C   0  0  0  0  0  0  0  0  0  0  0  0
  161.7230  208.7680  149.9740 C   0  0  0  0  0  0  0  0  0  0  0  0
  161.7530  208.0480  152.7740 C   0  0  0  0  0  2  0  0  0  0  0  0
  161.7540  211.1290  150.5630 C   0  0  0  0  0  3  0  0  0  0  0  0
  161.1500  204.6430  151.1520 C   0  0  0  0  0  0  0  0  0  0  0  0
  161.0770  206.3850  149.3260 C   0  0  0  0  0  2  0  0  0  0  0  0
  161.3960  209.4850  152.4030 C   0  0  0  0  0  2  0  0  0  0  0  0
  161.1600  203.2620  151.1780 C   0  0  0  0  0  0  0  0  0  0  0  0
  161.1860  205.6550  152.2110 C   0  0  0  0  0  0  0  0  0  0  0  0
  161.2020  202.3940  152.3860 C   0  0  0  0  0  1  0  0  0  0  0  0
  162.0810  213.1440  148.7500 Cl  0  0  0  0  0  0  0  0  0  0  0  0
  162.0620  210.4590  148.2600 C   0  0  0  0  0  3  0  0  0  0  0  0
  161.0880  207.1020  151.7850 C   0  0  2  0  0  3  0  0  0  0  0  0
  161.1340  202.7920  149.9110 N   0  0  0  0  0  0  0  0  0  0  0  0
  161.1280  204.9720  149.8240 C   0  0  0  0  0  0  0  0  0  0  0  0
  161.1130  203.7410  147.6400 C   0  0  0  0  0  2  0  0  0  0  0  0
  161.5940  205.0370  146.9860 C   0  0  2  0  0  3  0  0  0  0  0  0
  161.6050  205.6320  144.1620 C   0  0  0  0  0  0  0  0  0  0  0  0
  160.4550  205.7590  146.3000 C   0  0  0  0  0  3  0  0  0  0  0  0
  162.7970  204.7880  146.1030 C   0  0  0  0  0  3  0  0  0  0  0  0
  162.7910  205.0460  144.7950 C   0  0  0  0  0  3  0  0  0  0  0  0
  161.5810  205.8280  142.9190 O   0  0  0  0  0  0  0  0  0  0  0  0
  160.4560  206.0170  144.9910 C   0  0  0  0  0  3  0  0  0  0  0  0
  1 20  1  0  0  0  0
  1 19  1  0  0  0  0
  2  7  1  0  0  0  0
  4 12  1  0  0  0  0
  5 11  1  6  0  0  0
  5 18  1  0  0  0  0
  6  9  2  0  0  0  0
  7  5  1  0  0  0  0
  7  4  2  0  0  0  0
  9  4  1  0  0  0  0
 10 13  1  0  0  0  0
 10 14  1  0  0  0  0
 11 20  1  0  0  0  0
 12  8  1  0  0  0  0
 13 15  1  0  0  0  0
 14  3  2  0  0  0  0
 16  6  1  0  0  0  0
 17  2  2  0  0  0  0
 17  6  1  0  0  0  0
 18 14  1  0  0  0  0
 18  8  1  1  0  0  0
 19 13  2  0  0  0  0
 20 10  2  0  0  0  0
 21  1  1  0  0  0  0
 22 21  1  6  0  0  0
 23 26  1  0  0  0  0
 23 28  1  0  0  0  0
 24 22  1  0  0  0  0
 25 22  1  0  0  0  0
 26 25  2  0  0  0  0
 27 23  2  0  0  0  0
 28 24  2  0  0  0  0
M  END
>  <MODEL>
7

>  <REMARK>
 VINA RESULT:      -8.1      3.647      6.463
  Name = 
  2 active torsions:
  status: ('A' for Active; 'I' for Inactive)
    1  A    between atoms: N_1  and  C_2
    2  A    between atoms: C_2  and  C_3
                            x       y       z     vdW  Elec       q    Type
                         _______ _______ _______ _____ _____    ______ ____

>  <TORSDO>
F 2

$$$$
=
 OpenBabel11052422583D

 28 32  0  0  1  0  0  0  0  0999 V2000
  161.4000  209.2480  152.4420 N   0  0  0  0  0  0  0  0  0  0  0  0
  161.1630  203.9870  151.4210 C   0  0  0  0  0  3  0  0  0  0  0  0
  161.9810  208.9750  147.9070 O   0  0  0  0  0  0  0  0  0  0  0  0
  161.1530  204.0350  148.9910 C   0  0  0  0  0  0  0  0  0  0  0  0
  161.5660  206.1940  150.2670 C   0  0  2  0  0  3  0  0  0  0  0  0
  160.8290  201.9410  150.1740 C   0  0  0  0  0  0  0  0  0  0  0  0
  161.2360  204.7200  150.2280 C   0  0  0  0  0  0  0  0  0  0  0  0
  161.8860  206.1260  147.7860 C   0  0  0  0  0  2  0  0  0  0  0  0
  160.9300  202.6540  148.9770 C   0  0  0  0  0  3  0  0  0  0  0  0
  161.6520  209.0270  150.2600 C   0  0  0  0  0  0  0  0  0  0  0  0
  160.9400  206.9300  151.4710 C   0  0  0  0  0  2  0  0  0  0  0  0
  161.2100  204.7620  147.6750 C   0  0  0  0  0  2  0  0  0  0  0  0
  161.9230  210.3270  150.6430 C   0  0  0  0  0  0  0  0  0  0  0  0
  161.6840  208.3500  148.9610 C   0  0  0  0  0  0  0  0  0  0  0  0
  162.3350  211.4490  149.7580 C   0  0  0  0  0  1  0  0  0  0  0  0
  160.5570  200.2130  150.1410 Cl  0  0  0  0  0  0  0  0  0  0  0  0
  160.9520  202.6060  151.3950 C   0  0  0  0  0  3  0  0  0  0  0  0
  161.2460  206.9030  148.9270 C   0  0  2  0  0  3  0  0  0  0  0  0
  161.7640  210.4390  151.9810 N   0  0  0  0  0  0  0  0  0  0  0  0
  161.3380  208.3740  151.4210 C   0  0  0  0  0  0  0  0  0  0  0  0
  161.1710  208.9560  153.8530 C   0  0  0  0  0  2  0  0  0  0  0  0
  161.1840  210.2270  154.7040 C   0  0  2  0  0  3  0  0  0  0  0  0
  159.0980  211.1190  156.4880 C   0  0  0  0  0  0  0  0  0  0  0  0
  161.1770  209.8970  156.1800 C   0  0  0  0  0  3  0  0  0  0  0  0
  160.0940  211.1830  154.2730 C   0  0  0  0  0  3  0  0  0  0  0  0
  159.1200  211.5780  155.0950 C   0  0  0  0  0  3  0  0  0  0  0  0
  158.1520  211.4500  157.2490 O   0  0  0  0  0  0  0  0  0  0  0  0
  160.2020  210.2960  156.9980 C   0  0  0  0  0  3  0  0  0  0  0  0
  1 21  1  0  0  0  0
  3 14  2  0  0  0  0
  4  7  1  0  0  0  0
  5 11  1  1  0  0  0
  6 17  2  0  0  0  0
  7  5  1  0  0  0  0
  7  2  2  0  0  0  0
  9  4  2  0  0  0  0
  9  6  1  0  0  0  0
 10 13  1  0  0  0  0
 10 20  2  0  0  0  0
 12  8  1  0  0  0  0
 12  4  1  0  0  0  0
 13 19  2  0  0  0  0
 14 10  1  0  0  0  0
 15 13  1  0  0  0  0
 16  6  1  0  0  0  0
 17  2  1  0  0  0  0
 18  8  1  6  0  0  0
 18 14  1  0  0  0  0
 18  5  1  0  0  0  0
 19  1  1  0  0  0  0
 20 11  1  0  0  0  0
 20  1  1  0  0  0  0
 22 21  1  6  0  0  0
 22 24  1  0  0  0  0
 23 28  1  0  0  0  0
 23 27  2  0  0  0  0
 24 28  2  0  0  0  0
 25 22  1  0  0  0  0
 25 26  2  0  0  0  0
 26 23  1  0  0  0  0
M  END
>  <MODEL>
8

>  <REMARK>
 VINA RESULT:      -8.1      2.371      5.559
  Name = 
  2 active torsions:
  status: ('A' for Active; 'I' for Inactive)
    1  A    between atoms: N_1  and  C_2
    2  A    between atoms: C_2  and  C_3
                            x       y       z     vdW  Elec       q    Type
                         _______ _______ _______ _____ _____    ______ ____

>  <TORSDO>
F 2

$$$$
