=
 OpenBabel11062409583D

 43 49  0  0  1  0  0  0  0  0999 V2000
  160.0920  210.2830  155.9430 N   0  0  0  0  0  0  0  0  0  0  0  0
  161.1200  206.8240  152.4350 C   0  0  0  0  0  0  0  0  0  0  0  0
  161.5540  208.0420  149.9870 C   0  0  2  0  0  3  0  0  0  0  0  0
  160.6210  208.1830  154.8070 C   0  0  0  0  0  0  0  0  0  0  0  0
  161.1610  210.9150  155.1750 C   0  0  0  0  0  2  0  0  0  0  0  0
  160.1080  210.8900  157.2610 C   0  0  0  0  0  1  0  0  0  0  0  0
  161.0230  208.9100  153.6690 C   0  0  0  0  0  0  0  0  0  0  0  0
  160.4340  208.8730  156.1280 C   0  0  0  0  0  2  0  0  0  0  0  0
  161.1210  210.4140  153.7320 C   0  0  0  0  0  2  0  0  0  0  0  0
  161.6630  208.9610  151.2130 C   0  0  0  0  0  2  0  0  0  0  0  0
  161.2440  208.2270  152.4610 C   0  0  0  0  0  0  0  0  0  0  0  0
  160.7250  206.1550  153.5520 N   0  0  0  0  0  0  0  0  0  0  0  0
  161.2930  206.0990  151.1180 C   0  0  1  0  0  3  0  0  0  0  0  0
  162.1680  206.8090  150.2680 O   0  0  0  0  0  0  0  0  0  0  0  0
  160.4890  206.7970  154.7260 C   0  0  0  0  0  3  0  0  0  0  0  0
  162.1920  208.6640  148.7500 C   0  0  1  0  0  3  0  0  0  0  0  0
  162.5460  207.5950  147.7290 C   0  0  0  0  0  1  0  0  0  0  0  0
  161.3210  209.6360  148.1730 O   0  0  0  0  0  0  0  0  0  0  0  0
  161.6080  211.0070  148.1260 C   0  0  0  0  0  0  0  0  0  0  0  0
  162.6220  211.5300  148.8130 C   0  0  0  0  0  2  0  0  0  0  0  0
  160.7840  211.9030  147.2580 C   0  0  2  0  0  3  0  0  0  0  0  0
  161.6860  212.7020  146.3360 C   0  0  2  0  0  3  0  0  0  0  0  0
  160.1750  214.3960  145.6110 O   0  0  0  0  0  0  0  0  0  0  0  0
  161.0960  213.3600  147.5460 C   0  0  1  0  0  3  0  0  0  0  0  0
  160.8740  213.2560  145.1860 C   0  0  1  0  0  3  0  0  0  0  0  0
  159.9960  214.2390  146.9950 C   0  0  0  0  0  2  0  0  0  0  0  0
  161.7380  213.5810  144.0530 N   0  0  0  0  0  0  0  0  0  0  0  0
  162.8890  214.4530  144.2680 C   0  0  0  0  0  1  0  0  0  0  0  0
  161.4880  213.0060  142.7550 C   0  0  0  0  0  0  0  0  0  0  0  0
  162.1770  211.5740  140.9090 C   0  0  0  0  0  3  0  0  0  0  0  0
  160.0680  212.7530  140.7930 C   0  0  0  0  0  3  0  0  0  0  0  0
  161.0010  211.8860  140.2220 C   0  0  0  0  0  3  0  0  0  0  0  0
  160.3110  213.3100  142.0520 C   0  0  0  0  0  3  0  0  0  0  0  0
  162.4190  212.1310  142.1680 C   0  0  0  0  0  3  0  0  0  0  0  0
  161.8320  204.6890  151.3330 C   0  0  0  0  0  2  0  0  0  0  0  0
  161.1220  203.5450  147.7920 C   0  0  0  0  0  3  0  0  0  0  0  0
  160.8440  202.1890  147.9920 C   0  0  0  0  0  0  0  0  0  0  0  0
  161.2240  202.4600  150.3680 C   0  0  0  0  0  3  0  0  0  0  0  0
  161.4500  204.3580  148.8810 C   0  0  0  0  0  3  0  0  0  0  0  0
  161.5060  203.8160  150.1700 C   0  0  0  0  0  0  0  0  0  0  0  0
  160.8950  201.6460  149.2790 C   0  0  0  0  0  3  0  0  0  0  0  0
  160.6840  202.0610  145.4140 O   0  0  0  0  0  0  0  0  0  0  0  0
  160.4250  201.1600  146.6130 S   0  0  0  0  0  3  0  0  0  0  0  0
  1  8  1  0  0  0  0
  1  6  1  0  0  0  0
  2 11  2  0  0  0  0
  2 12  1  0  0  0  0
  3 16  1  6  0  0  0
  3 14  1  0  0  0  0
  3 10  1  0  0  0  0
  4  8  1  0  0  0  0
  5  1  1  0  0  0  0
  7  9  1  0  0  0  0
  7  4  2  0  0  0  0
  9  5  1  0  0  0  0
 10 11  1  0  0  0  0
 11  7  1  0  0  0  0
 12 15  2  0  0  0  0
 13 35  1  1  0  0  0
 13  2  1  0  0  0  0
 14 13  1  0  0  0  0
 15  4  1  0  0  0  0
 16 17  1  6  0  0  0
 18 16  1  0  0  0  0
 19 18  1  0  0  0  0
 19 20  2  0  0  0  0
 21 24  1  0  0  0  0
 21 19  1  1  0  0  0
 22 21  1  0  0  0  0
 22 24  1  0  0  0  0
 23 26  1  0  0  0  0
 25 23  1  0  0  0  0
 25 22  1  0  0  0  0
 26 24  1  0  0  0  0
 27 28  1  0  0  0  0
 27 25  1  0  0  0  0
 29 27  1  0  0  0  0
 30 34  2  0  0  0  0
 31 33  1  0  0  0  0
 32 31  2  0  0  0  0
 32 30  1  0  0  0  0
 33 29  2  0  0  0  0
 34 29  1  0  0  0  0
 36 37  2  0  0  0  0
 36 39  1  0  0  0  0
 37 41  1  0  0  0  0
 39 40  2  0  0  0  0
 40 38  1  0  0  0  0
 40 35  1  0  0  0  0
 41 38  2  0  0  0  0
 42 43  2  0  0  0  0
 43 37  1  0  0  0  0
M  END
>  <MODEL>
1

>  <REMARK>
 VINA RESULT:      -8.6      0.000      0.000
  Name = 
  9 active torsions:
  status: ('A' for Active; 'I' for Inactive)
    1  A    between atoms: C_1  and  C_34
    2  A    between atoms: C_1  and  C_35
    3  A    between atoms: C_2  and  O_6
    4  A    between atoms: C_2  and  C_13
    5  A    between atoms: C_3  and  C_12
    6  A    between atoms: O_6  and  C_12
    7  A    between atoms: C_11  and  N_14
    8  A    between atoms: N_14  and  C_22
    9  A    between atoms: C_19  and  S_37
                            x       y       z     vdW  Elec       q    Type
                         _______ _______ _______ _____ _____    ______ ____

>  <TORSDO>
F 9

$$$$
=
 OpenBabel11062409583D

 43 49  0  0  1  0  0  0  0  0999 V2000
  160.2870  207.8350  154.9180 N   0  0  0  0  0  0  0  0  0  0  0  0
  161.7690  207.7460  150.1090 C   0  0  0  0  0  0  0  0  0  0  0  0
  161.5360  210.2670  148.9880 C   0  0  2  0  0  3  0  0  0  0  0  0
  161.2230  207.1450  152.7670 C   0  0  0  0  0  0  0  0  0  0  0  0
  161.0340  209.0830  154.7900 C   0  0  0  0  0  2  0  0  0  0  0  0
  160.3040  207.4780  156.3240 C   0  0  0  0  0  1  0  0  0  0  0  0
  161.2620  208.4940  152.3600 C   0  0  0  0  0  0  0  0  0  0  0  0
  161.0240  206.7870  154.2120 C   0  0  0  0  0  2  0  0  0  0  0  0
  160.9490  209.5870  153.3510 C   0  0  0  0  0  2  0  0  0  0  0  0
  161.5440  210.2230  150.5230 C   0  0  0  0  0  2  0  0  0  0  0  0
  161.5060  208.7960  151.0100 C   0  0  0  0  0  0  0  0  0  0  0  0
  161.7190  206.4550  150.5360 N   0  0  0  0  0  0  0  0  0  0  0  0
  161.9660  208.0720  148.6450 C   0  0  1  0  0  3  0  0  0  0  0  0
  162.4960  209.3700  148.4880 O   0  0  0  0  0  0  0  0  0  0  0  0
  161.4680  206.1380  151.8330 C   0  0  0  0  0  3  0  0  0  0  0  0
  161.8150  211.6690  148.4570 C   0  0  1  0  0  3  0  0  0  0  0  0
  163.3100  211.9360  148.3950 C   0  0  0  0  0  1  0  0  0  0  0  0
  161.2230  211.8430  147.1710 O   0  0  0  0  0  0  0  0  0  0  0  0
  160.0220  212.5330  146.9550 C   0  0  0  0  0  0  0  0  0  0  0  0
  159.4220  213.2100  147.9330 C   0  0  0  0  0  2  0  0  0  0  0  0
  159.4130  212.5440  145.5900 C   0  0  2  0  0  3  0  0  0  0  0  0
  160.4910  212.7670  144.5450 C   0  0  2  0  0  3  0  0  0  0  0  0
  159.1560  213.3540  142.6620 O   0  0  0  0  0  0  0  0  0  0  0  0
  159.5940  213.9020  144.9350 C   0  0  1  0  0  3  0  0  0  0  0  0
  159.9770  212.3440  143.1870 C   0  0  1  0  0  3  0  0  0  0  0  0
  158.6400  214.0420  143.7710 C   0  0  0  0  0  2  0  0  0  0  0  0
  161.0870  212.0660  142.2780 N   0  0  0  0  0  0  0  0  0  0  0  0
  162.4280  212.5140  142.6410 C   0  0  0  0  0  1  0  0  0  0  0  0
  160.8690  211.3130  141.0690 C   0  0  0  0  0  0  0  0  0  0  0  0
  159.4070  210.5960  139.2590 C   0  0  0  0  0  3  0  0  0  0  0  0
  161.6960  209.8170  139.3340 C   0  0  0  0  0  3  0  0  0  0  0  0
  160.4460  209.8410  138.7100 C   0  0  0  0  0  3  0  0  0  0  0  0
  161.9050  210.5480  140.5060 C   0  0  0  0  0  3  0  0  0  0  0  0
  159.6170  211.3270  140.4310 C   0  0  0  0  0  3  0  0  0  0  0  0
  162.8940  207.0630  147.9770 C   0  0  0  0  0  2  0  0  0  0  0  0
  160.2180  205.7600  145.6330 C   0  0  0  0  0  3  0  0  0  0  0  0
  160.6650  204.4550  145.4040 C   0  0  0  0  0  0  0  0  0  0  0  0
  162.5730  204.8540  146.8410 C   0  0  0  0  0  3  0  0  0  0  0  0
  160.9490  206.6120  146.4670 C   0  0  0  0  0  3  0  0  0  0  0  0
  162.1290  206.1620  147.0680 C   0  0  0  0  0  0  0  0  0  0  0  0
  161.8420  204.0020  146.0080 C   0  0  0  0  0  3  0  0  0  0  0  0
  160.0560  201.9920  144.9030 O   0  0  0  0  0  0  0  0  0  0  0  0
  159.7380  203.3750  144.3510 S   0  0  0  0  0  3  0  0  0  0  0  0
  1  6  1  0  0  0  0
  2 12  2  0  0  0  0
  2 11  1  0  0  0  0
  3 16  1  1  0  0  0
  3 10  1  0  0  0  0
  4  8  1  0  0  0  0
  5  1  1  0  0  0  0
  7  4  1  0  0  0  0
  7  9  1  0  0  0  0
  8  1  1  0  0  0  0
  9  5  1  0  0  0  0
 10 11  1  0  0  0  0
 11  7  2  0  0  0  0
 12 15  1  0  0  0  0
 13 35  1  1  0  0  0
 13  2  1  0  0  0  0
 14 13  1  0  0  0  0
 14  3  1  0  0  0  0
 15  4  2  0  0  0  0
 16 17  1  6  0  0  0
 18 16  1  0  0  0  0
 19 18  1  0  0  0  0
 19 20  2  0  0  0  0
 21 19  1  1  0  0  0
 22 24  1  0  0  0  0
 22 21  1  0  0  0  0
 23 25  1  0  0  0  0
 23 26  1  0  0  0  0
 24 21  1  0  0  0  0
 25 22  1  0  0  0  0
 26 24  1  0  0  0  0
 27 28  1  0  0  0  0
 27 25  1  0  0  0  0
 29 27  1  0  0  0  0
 30 34  1  0  0  0  0
 31 33  2  0  0  0  0
 32 30  2  0  0  0  0
 32 31  1  0  0  0  0
 33 29  1  0  0  0  0
 34 29  2  0  0  0  0
 36 39  1  0  0  0  0
 37 36  2  0  0  0  0
 37 41  1  0  0  0  0
 38 40  1  0  0  0  0
 39 40  2  0  0  0  0
 40 35  1  0  0  0  0
 41 38  2  0  0  0  0
 43 42  2  0  0  0  0
 43 37  1  0  0  0  0
M  END
>  <MODEL>
2

>  <REMARK>
 VINA RESULT:      -8.5      1.920      3.010
  Name = 
  9 active torsions:
  status: ('A' for Active; 'I' for Inactive)
    1  A    between atoms: C_1  and  C_34
    2  A    between atoms: C_1  and  C_35
    3  A    between atoms: C_2  and  O_6
    4  A    between atoms: C_2  and  C_13
    5  A    between atoms: C_3  and  C_12
    6  A    between atoms: O_6  and  C_12
    7  A    between atoms: C_11  and  N_14
    8  A    between atoms: N_14  and  C_22
    9  A    between atoms: C_19  and  S_37
                            x       y       z     vdW  Elec       q    Type
                         _______ _______ _______ _____ _____    ______ ____

>  <TORSDO>
F 9

$$$$
=
 OpenBabel11062409583D

 43 49  0  0  1  0  0  0  0  0999 V2000
  156.3060  212.3230  156.3500 N   0  0  0  0  0  0  0  0  0  0  0  0
  158.6250  213.1040  151.9520 C   0  0  0  0  0  0  0  0  0  0  0  0
  160.8340  211.4490  151.7270 C   0  0  2  0  0  3  0  0  0  0  0  0
  156.8500  213.0820  154.0900 C   0  0  0  0  0  0  0  0  0  0  0  0
  156.6610  210.9700  155.9300 C   0  0  0  0  0  2  0  0  0  0  0  0
  155.1840  212.1980  157.2610 C   0  0  0  0  0  1  0  0  0  0  0  0
  157.8190  212.0630  153.9890 C   0  0  0  0  0  0  0  0  0  0  0  0
  155.8170  213.0500  155.1790 C   0  0  0  0  0  2  0  0  0  0  0  0
  157.9200  211.0130  155.0670 C   0  0  0  0  0  2  0  0  0  0  0  0
  159.7990  211.0320  152.7820 C   0  0  0  0  0  2  0  0  0  0  0  0
  158.7360  212.0920  152.9260 C   0  0  0  0  0  0  0  0  0  0  0  0
  157.6800  214.0740  152.0830 N   0  0  0  0  0  0  0  0  0  0  0  0
  159.6560  213.1690  150.8460 C   0  0  1  0  0  3  0  0  0  0  0  0
  160.1720  211.8870  150.5660 O   0  0  0  0  0  0  0  0  0  0  0  0
  156.7940  214.0760  153.1130 C   0  0  0  0  0  3  0  0  0  0  0  0
  161.7850  210.3090  151.3790 C   0  0  1  0  0  3  0  0  0  0  0  0
  162.7130  210.0060  152.5440 C   0  0  0  0  0  1  0  0  0  0  0  0
  161.0530  209.1430  151.0070 O   0  0  0  0  0  0  0  0  0  0  0  0
  161.5870  208.1040  150.2330 C   0  0  0  0  0  0  0  0  0  0  0  0
  161.7880  208.2450  148.9240 C   0  0  0  0  0  2  0  0  0  0  0  0
  161.9750  206.8190  150.8910 C   0  0  2  0  0  3  0  0  0  0  0  0
  161.0680  205.7000  150.4140 C   0  0  2  0  0  3  0  0  0  0  0  0
  161.5190  204.0430  152.0660 O   0  0  0  0  0  0  0  0  0  0  0  0
  160.8460  206.3060  151.7670 C   0  0  1  0  0  3  0  0  0  0  0  0
  161.7120  204.3630  150.7140 C   0  0  1  0  0  3  0  0  0  0  0  0
  161.3770  205.2700  152.7320 C   0  0  0  0  0  2  0  0  0  0  0  0
  161.1530  203.3180  149.8580 N   0  0  0  0  0  0  0  0  0  0  0  0
  160.4290  202.2110  150.4750 C   0  0  0  0  0  1  0  0  0  0  0  0
  161.2690  203.4080  148.4250 C   0  0  0  0  0  0  0  0  0  0  0  0
  161.0170  202.4130  146.2170 C   0  0  0  0  0  3  0  0  0  0  0  0
  161.8640  204.6690  146.4280 C   0  0  0  0  0  3  0  0  0  0  0  0
  161.4970  203.5850  145.6270 C   0  0  0  0  0  3  0  0  0  0  0  0
  161.7510  204.5800  147.8180 C   0  0  0  0  0  3  0  0  0  0  0  0
  160.9040  202.3250  147.6070 C   0  0  0  0  0  3  0  0  0  0  0  0
  159.0600  213.7630  149.5740 C   0  0  0  0  0  2  0  0  0  0  0  0
  160.5640  212.9450  146.1940 C   0  0  0  0  0  3  0  0  0  0  0  0
  161.8600  213.4500  146.3410 C   0  0  0  0  0  0  0  0  0  0  0  0
  161.3260  214.1710  148.5900 C   0  0  0  0  0  3  0  0  0  0  0  0
  159.6500  213.0530  147.2460 C   0  0  0  0  0  3  0  0  0  0  0  0
  160.0280  213.6700  148.4440 C   0  0  0  0  0  0  0  0  0  0  0  0
  162.2410  214.0630  147.5380 C   0  0  0  0  0  3  0  0  0  0  0  0
  162.2460  213.8530  143.8150 O   0  0  0  0  0  0  0  0  0  0  0  0
  163.0180  213.3100  145.0090 S   0  0  0  0  0  3  0  0  0  0  0  0
  1  6  1  0  0  0  0
  2 12  2  0  0  0  0
  2 11  1  0  0  0  0
  3 16  1  6  0  0  0
  3 10  1  0  0  0  0
  4  8  1  0  0  0  0
  5  1  1  0  0  0  0
  7  4  1  0  0  0  0
  7  9  1  0  0  0  0
  8  1  1  0  0  0  0
  9  5  1  0  0  0  0
 10 11  1  0  0  0  0
 11  7  2  0  0  0  0
 12 15  1  0  0  0  0
 13 35  1  6  0  0  0
 13  2  1  0  0  0  0
 14 13  1  0  0  0  0
 14  3  1  0  0  0  0
 15  4  2  0  0  0  0
 16 17  1  1  0  0  0
 18 16  1  0  0  0  0
 19 18  1  0  0  0  0
 20 19  2  0  0  0  0
 21 19  1  6  0  0  0
 21 24  1  0  0  0  0
 22 25  1  0  0  0  0
 22 21  1  0  0  0  0
 22 24  1  0  0  0  0
 23 26  1  0  0  0  0
 24 26  1  0  0  0  0
 25 23  1  0  0  0  0
 27 28  1  0  0  0  0
 27 25  1  0  0  0  0
 29 27  1  0  0  0  0
 30 34  1  0  0  0  0
 31 33  2  0  0  0  0
 32 30  2  0  0  0  0
 32 31  1  0  0  0  0
 33 29  1  0  0  0  0
 34 29  2  0  0  0  0
 36 37  2  0  0  0  0
 36 39  1  0  0  0  0
 37 41  1  0  0  0  0
 39 40  2  0  0  0  0
 40 38  1  0  0  0  0
 40 35  1  0  0  0  0
 41 38  2  0  0  0  0
 42 43  2  0  0  0  0
 43 37  1  0  0  0  0
M  END
>  <MODEL>
3

>  <REMARK>
 VINA RESULT:      -8.4      3.745      8.662
  Name = 
  9 active torsions:
  status: ('A' for Active; 'I' for Inactive)
    1  A    between atoms: C_1  and  C_34
    2  A    between atoms: C_1  and  C_35
    3  A    between atoms: C_2  and  O_6
    4  A    between atoms: C_2  and  C_13
    5  A    between atoms: C_3  and  C_12
    6  A    between atoms: O_6  and  C_12
    7  A    between atoms: C_11  and  N_14
    8  A    between atoms: N_14  and  C_22
    9  A    between atoms: C_19  and  S_37
                            x       y       z     vdW  Elec       q    Type
                         _______ _______ _______ _____ _____    ______ ____

>  <TORSDO>
F 9

$$$$
=
 OpenBabel11062409583D

 43 49  0  0  1  0  0  0  0  0999 V2000
  161.3720  202.9060  146.6640 N   0  0  0  0  0  0  0  0  0  0  0  0
  161.2560  205.5550  150.9410 C   0  0  0  0  0  0  0  0  0  0  0  0
  161.8360  208.2150  150.4370 C   0  0  2  0  0  3  0  0  0  0  0  0
  161.0440  203.5890  148.9880 C   0  0  0  0  0  0  0  0  0  0  0  0
  160.7130  204.1440  146.2550 C   0  0  0  0  0  2  0  0  0  0  0  0
  160.9650  201.8840  145.7170 C   0  0  0  0  0  1  0  0  0  0  0  0
  161.1450  204.9390  148.5970 C   0  0  0  0  0  0  0  0  0  0  0  0
  160.8350  202.5100  147.9650 C   0  0  0  0  0  2  0  0  0  0  0  0
  161.1980  205.2970  147.1330 C   0  0  0  0  0  2  0  0  0  0  0  0
  161.4090  207.3870  149.2160 C   0  0  0  0  0  2  0  0  0  0  0  0
  161.2850  205.9300  149.5830 C   0  0  0  0  0  0  0  0  0  0  0  0
  161.1620  204.2400  151.2820 N   0  0  0  0  0  0  0  0  0  0  0  0
  161.4730  206.6160  151.9970 C   0  0  1  0  0  3  0  0  0  0  0  0
  161.0320  207.8750  151.5390 O   0  0  0  0  0  0  0  0  0  0  0  0
  161.0440  203.2640  150.3440 C   0  0  0  0  0  3  0  0  0  0  0  0
  161.7410  209.7130  150.1710 C   0  0  1  0  0  3  0  0  0  0  0  0
  162.4060  210.5020  151.2880 C   0  0  0  0  0  1  0  0  0  0  0  0
  162.3300  210.0360  148.9130 O   0  0  0  0  0  0  0  0  0  0  0  0
  162.1500  211.2660  148.2640 C   0  0  0  0  0  0  0  0  0  0  0  0
  163.0770  212.2200  148.3130 C   0  0  0  0  0  2  0  0  0  0  0  0
  160.9080  211.5030  147.4660 C   0  0  2  0  0  3  0  0  0  0  0  0
  161.1360  212.6310  146.4780 C   0  0  2  0  0  3  0  0  0  0  0  0
  158.8870  213.1460  145.8810 O   0  0  0  0  0  0  0  0  0  0  0  0
  160.3600  212.8940  147.7330 C   0  0  1  0  0  3  0  0  0  0  0  0
  160.0770  212.5810  145.3980 C   0  0  1  0  0  3  0  0  0  0  0  0
  158.9220  212.9750  147.2740 C   0  0  0  0  0  2  0  0  0  0  0  0
  160.5270  213.2880  144.2000 N   0  0  0  0  0  0  0  0  0  0  0  0
  161.4360  214.4210  144.3480 C   0  0  0  0  0  1  0  0  0  0  0  0
  160.1240  212.8390  142.8920 C   0  0  0  0  0  0  0  0  0  0  0  0
  158.6140  212.9650  140.9860 C   0  0  0  0  0  3  0  0  0  0  0  0
  160.4500  211.3900  140.9620 C   0  0  0  0  0  3  0  0  0  0  0  0
  159.3370  211.9590  140.3400 C   0  0  0  0  0  3  0  0  0  0  0  0
  160.8410  211.8280  142.2310 C   0  0  0  0  0  3  0  0  0  0  0  0
  159.0050  213.4020  142.2540 C   0  0  0  0  0  3  0  0  0  0  0  0
  160.7420  206.2650  153.2890 C   0  0  0  0  0  2  0  0  0  0  0  0
  160.1220  208.4040  156.3530 C   0  0  0  0  0  3  0  0  0  0  0  0
  160.8680  209.5460  156.0460 C   0  0  0  0  0  0  0  0  0  0  0  0
  161.5430  208.5440  153.9470 C   0  0  0  0  0  3  0  0  0  0  0  0
  160.0870  207.3320  155.4560 C   0  0  0  0  0  3  0  0  0  0  0  0
  160.8010  207.3980  154.2550 C   0  0  0  0  0  0  0  0  0  0  0  0
  161.5790  209.6160  154.8440 C   0  0  0  0  0  3  0  0  0  0  0  0
  159.7750  211.7980  156.6980 O   0  0  0  0  0  0  0  0  0  0  0  0
  160.9110  210.9060  157.1800 S   0  0  0  0  0  3  0  0  0  0  0  0
  1  8  1  0  0  0  0
  2 12  1  0  0  0  0
  2 13  1  0  0  0  0
  3 16  1  6  0  0  0
  3 14  1  0  0  0  0
  4 15  1  0  0  0  0
  5  1  1  0  0  0  0
  5  9  1  0  0  0  0
  6  1  1  0  0  0  0
  7  4  2  0  0  0  0
  7 11  1  0  0  0  0
  8  4  1  0  0  0  0
  9  7  1  0  0  0  0
 10 11  1  0  0  0  0
 10  3  1  0  0  0  0
 11  2  2  0  0  0  0
 13 35  1  1  0  0  0
 14 13  1  0  0  0  0
 15 12  2  0  0  0  0
 16 17  1  1  0  0  0
 18 16  1  0  0  0  0
 19 20  2  0  0  0  0
 19 18  1  0  0  0  0
 21 24  1  0  0  0  0
 21 19  1  1  0  0  0
 22 21  1  0  0  0  0
 22 24  1  0  0  0  0
 23 26  1  0  0  0  0
 25 23  1  0  0  0  0
 25 22  1  0  0  0  0
 26 24  1  0  0  0  0
 27 28  1  0  0  0  0
 27 25  1  0  0  0  0
 29 27  1  0  0  0  0
 30 34  2  0  0  0  0
 31 33  1  0  0  0  0
 32 31  2  0  0  0  0
 32 30  1  0  0  0  0
 33 29  2  0  0  0  0
 34 29  1  0  0  0  0
 35 40  1  0  0  0  0
 37 36  1  0  0  0  0
 37 43  1  0  0  0  0
 38 40  2  0  0  0  0
 38 41  1  0  0  0  0
 39 36  2  0  0  0  0
 40 39  1  0  0  0  0
 41 37  2  0  0  0  0
 42 43  2  0  0  0  0
M  END
>  <MODEL>
4

>  <REMARK>
 VINA RESULT:      -8.3      3.065      6.446
  Name = 
  9 active torsions:
  status: ('A' for Active; 'I' for Inactive)
    1  A    between atoms: C_1  and  C_34
    2  A    between atoms: C_1  and  C_35
    3  A    between atoms: C_2  and  O_6
    4  A    between atoms: C_2  and  C_13
    5  A    between atoms: C_3  and  C_12
    6  A    between atoms: O_6  and  C_12
    7  A    between atoms: C_11  and  N_14
    8  A    between atoms: N_14  and  C_22
    9  A    between atoms: C_19  and  S_37
                            x       y       z     vdW  Elec       q    Type
                         _______ _______ _______ _____ _____    ______ ____

>  <TORSDO>
F 9

$$$$
=
 OpenBabel11062409583D

 43 49  0  0  1  0  0  0  0  0999 V2000
  160.6170  202.2550  146.7130 N   0  0  0  0  0  0  0  0  0  0  0  0
  161.5890  206.8380  148.5510 C   0  0  0  0  0  0  0  0  0  0  0  0
  160.8360  206.9830  151.2110 C   0  0  2  0  0  3  0  0  0  0  0  0
  161.4260  204.5460  146.9880 C   0  0  0  0  0  0  0  0  0  0  0  0
  161.1340  201.9610  148.0470 C   0  0  0  0  0  2  0  0  0  0  0  0
  160.8360  201.0670  145.9090 C   0  0  0  0  0  1  0  0  0  0  0  0
  161.2020  204.4500  148.3760 C   0  0  0  0  0  0  0  0  0  0  0  0
  161.4370  203.3150  146.1280 C   0  0  0  0  0  2  0  0  0  0  0  0
  160.8200  203.1250  148.9870 C   0  0  0  0  0  2  0  0  0  0  0  0
  161.0090  205.5650  150.6480 C   0  0  0  0  0  2  0  0  0  0  0  0
  161.2540  205.6130  149.1610 C   0  0  0  0  0  0  0  0  0  0  0  0
  161.7950  206.8940  147.2060 N   0  0  0  0  0  0  0  0  0  0  0  0
  161.5790  208.0990  149.3870 C   0  0  1  0  0  3  0  0  0  0  0  0
  161.8710  207.8070  150.7360 O   0  0  0  0  0  0  0  0  0  0  0  0
  161.7320  205.7840  146.4250 C   0  0  0  0  0  3  0  0  0  0  0  0
  160.8270  206.9940  152.7350 C   0  0  1  0  0  3  0  0  0  0  0  0
  161.2270  205.6360  153.2880 C   0  0  0  0  0  1  0  0  0  0  0  0
  161.6930  208.0120  153.2330 O   0  0  0  0  0  0  0  0  0  0  0  0
  161.2580  209.2920  153.6030 C   0  0  0  0  0  0  0  0  0  0  0  0
  161.6650  210.3800  152.9530 C   0  0  0  0  0  2  0  0  0  0  0  0
  160.2860  209.4430  154.7290 C   0  0  2  0  0  3  0  0  0  0  0  0
  160.1940  210.9000  155.1410 C   0  0  2  0  0  3  0  0  0  0  0  0
  159.1260  210.6850  157.2600 O   0  0  0  0  0  0  0  0  0  0  0  0
  160.9880  209.9430  155.9780 C   0  0  1  0  0  3  0  0  0  0  0  0
  158.9300  211.1220  155.9410 C   0  0  1  0  0  3  0  0  0  0  0  0
  160.1190  209.6950  157.1890 C   0  0  0  0  0  2  0  0  0  0  0  0
  158.5490  212.5330  155.9240 N   0  0  0  0  0  0  0  0  0  0  0  0
  159.0510  213.4140  156.9750 C   0  0  0  0  0  1  0  0  0  0  0  0
  157.7360  213.0580  154.8560 C   0  0  0  0  0  0  0  0  0  0  0  0
  155.5470  213.5600  153.9170 C   0  0  0  0  0  3  0  0  0  0  0  0
  157.5440  214.0900  152.6590 C   0  0  0  0  0  3  0  0  0  0  0  0
  156.1510  214.0790  152.7690 C   0  0  0  0  0  3  0  0  0  0  0  0
  158.3310  213.5820  153.6960 C   0  0  0  0  0  3  0  0  0  0  0  0
  156.3340  213.0530  154.9540 C   0  0  0  0  0  3  0  0  0  0  0  0
  162.5840  209.1170  148.8610 C   0  0  0  0  0  2  0  0  0  0  0  0
  161.3530  212.6550  149.4200 C   0  0  0  0  0  3  0  0  0  0  0  0
  160.6600  212.8960  148.2300 C   0  0  0  0  0  0  0  0  0  0  0  0
  161.2330  210.6790  147.4440 C   0  0  0  0  0  3  0  0  0  0  0  0
  161.9850  211.4250  149.6220 C   0  0  0  0  0  3  0  0  0  0  0  0
  161.9300  210.4370  148.6330 C   0  0  0  0  0  0  0  0  0  0  0  0
  160.6010  211.9090  147.2420 C   0  0  0  0  0  3  0  0  0  0  0  0
  158.5790  214.3250  148.7940 O   0  0  0  0  0  0  0  0  0  0  0  0
  159.8560  214.4530  147.9740 S   0  0  0  0  0  3  0  0  0  0  0  0
  1  5  1  0  0  0  0
  2 11  1  0  0  0  0
  2 13  1  0  0  0  0
  3 16  1  1  0  0  0
  4  7  1  0  0  0  0
  5  9  1  0  0  0  0
  6  1  1  0  0  0  0
  7  9  1  0  0  0  0
  7 11  2  0  0  0  0
  8  1  1  0  0  0  0
  8  4  1  0  0  0  0
 10  3  1  0  0  0  0
 11 10  1  0  0  0  0
 12  2  2  0  0  0  0
 13 35  1  6  0  0  0
 13 14  1  0  0  0  0
 14  3  1  0  0  0  0
 15  4  2  0  0  0  0
 15 12  1  0  0  0  0
 16 18  1  0  0  0  0
 16 17  1  1  0  0  0
 18 19  1  0  0  0  0
 20 19  2  0  0  0  0
 21 19  1  6  0  0  0
 21 22  1  0  0  0  0
 21 24  1  0  0  0  0
 22 25  1  0  0  0  0
 22 24  1  0  0  0  0
 24 26  1  0  0  0  0
 25 23  1  0  0  0  0
 26 23  1  0  0  0  0
 27 25  1  0  0  0  0
 27 28  1  0  0  0  0
 29 34  1  0  0  0  0
 29 27  1  0  0  0  0
 30 34  2  0  0  0  0
 31 32  2  0  0  0  0
 31 33  1  0  0  0  0
 32 30  1  0  0  0  0
 33 29  2  0  0  0  0
 36 39  1  0  0  0  0
 37 36  2  0  0  0  0
 38 40  1  0  0  0  0
 40 35  1  0  0  0  0
 40 39  2  0  0  0  0
 41 38  2  0  0  0  0
 41 37  1  0  0  0  0
 43 37  1  0  0  0  0
 43 42  2  0  0  0  0
M  END
>  <MODEL>
5

>  <REMARK>
 VINA RESULT:      -8.3      3.890      9.657
  Name = 
  9 active torsions:
  status: ('A' for Active; 'I' for Inactive)
    1  A    between atoms: C_1  and  C_34
    2  A    between atoms: C_1  and  C_35
    3  A    between atoms: C_2  and  O_6
    4  A    between atoms: C_2  and  C_13
    5  A    between atoms: C_3  and  C_12
    6  A    between atoms: O_6  and  C_12
    7  A    between atoms: C_11  and  N_14
    8  A    between atoms: N_14  and  C_22
    9  A    between atoms: C_19  and  S_37
                            x       y       z     vdW  Elec       q    Type
                         _______ _______ _______ _____ _____    ______ ____

>  <TORSDO>
F 9

$$$$
=
 OpenBabel11062409583D

 43 49  0  0  1  0  0  0  0  0999 V2000
  161.6050  204.1830  148.2850 N   0  0  0  0  0  0  0  0  0  0  0  0
  161.8190  208.4050  151.0150 C   0  0  0  0  0  0  0  0  0  0  0  0
  162.2740  210.5860  149.3710 C   0  0  2  0  0  3  0  0  0  0  0  0
  161.4790  205.7980  150.1170 C   0  0  0  0  0  0  0  0  0  0  0  0
  160.8760  205.1370  147.4550 C   0  0  0  0  0  2  0  0  0  0  0  0
  161.1390  202.8600  147.9100 C   0  0  0  0  0  1  0  0  0  0  0  0
  161.5050  206.8500  149.1800 C   0  0  0  0  0  0  0  0  0  0  0  0
  161.2040  204.3880  149.6760 C   0  0  0  0  0  2  0  0  0  0  0  0
  161.4080  206.5470  147.7060 C   0  0  0  0  0  2  0  0  0  0  0  0
  161.7570  209.3230  148.6670 C   0  0  0  0  0  2  0  0  0  0  0  0
  161.7080  208.1640  149.6310 C   0  0  0  0  0  0  0  0  0  0  0  0
  161.7940  207.3640  151.8910 N   0  0  0  0  0  0  0  0  0  0  0  0
  162.1040  209.8130  151.4910 C   0  0  1  0  0  3  0  0  0  0  0  0
  161.5870  210.7620  150.5850 O   0  0  0  0  0  0  0  0  0  0  0  0
  161.6160  206.0830  151.4750 C   0  0  0  0  0  3  0  0  0  0  0  0
  162.1120  211.8290  148.5030 C   0  0  1  0  0  3  0  0  0  0  0  0
  163.4330  212.2090  147.8530 C   0  0  0  0  0  1  0  0  0  0  0  0
  161.1090  211.6190  147.5110 O   0  0  0  0  0  0  0  0  0  0  0  0
  160.0850  212.5360  147.2350 C   0  0  0  0  0  0  0  0  0  0  0  0
  159.5870  213.3280  148.1820 C   0  0  0  0  0  2  0  0  0  0  0  0
  159.5600  212.6560  145.8410 C   0  0  2  0  0  3  0  0  0  0  0  0
  160.6990  212.9540  144.8840 C   0  0  2  0  0  3  0  0  0  0  0  0
  159.4800  213.6950  142.9750 O   0  0  0  0  0  0  0  0  0  0  0  0
  159.7800  214.0600  145.3070 C   0  0  1  0  0  3  0  0  0  0  0  0
  160.2670  212.6420  143.4670 C   0  0  1  0  0  3  0  0  0  0  0  0
  158.8980  214.2960  144.1020 C   0  0  0  0  0  2  0  0  0  0  0  0
  161.4290  212.4300  142.6080 N   0  0  0  0  0  0  0  0  0  0  0  0
  162.7260  212.9520  143.0300 C   0  0  0  0  0  1  0  0  0  0  0  0
  161.3080  211.6700  141.3900 C   0  0  0  0  0  0  0  0  0  0  0  0
  162.3290  210.4010  139.5790 C   0  0  0  0  0  3  0  0  0  0  0  0
  159.9300  210.7120  139.6250 C   0  0  0  0  0  3  0  0  0  0  0  0
  161.0700  210.1880  139.0110 C   0  0  0  0  0  3  0  0  0  0  0  0
  160.0490  211.4480  140.8070 C   0  0  0  0  0  3  0  0  0  0  0  0
  162.4470  211.1380  140.7610 C   0  0  0  0  0  3  0  0  0  0  0  0
  161.5090  210.0570  152.8740 C   0  0  0  0  0  2  0  0  0  0  0  0
  159.3880  213.0700  151.9950 C   0  0  0  0  0  3  0  0  0  0  0  0
  158.2060  212.7840  152.6830 C   0  0  0  0  0  0  0  0  0  0  0  0
  159.1710  210.7130  153.4850 C   0  0  0  0  0  3  0  0  0  0  0  0
  160.4630  212.1780  152.0520 C   0  0  0  0  0  3  0  0  0  0  0  0
  160.3540  210.9960  152.7930 C   0  0  0  0  0  0  0  0  0  0  0  0
  158.0960  211.6060  153.4280 C   0  0  0  0  0  3  0  0  0  0  0  0
  156.7420  214.2460  151.1300 O   0  0  0  0  0  0  0  0  0  0  0  0
  156.8460  213.9160  152.6130 S   0  0  0  0  0  3  0  0  0  0  0  0
  1  8  1  0  0  0  0
  2 13  1  0  0  0  0
  2 12  1  0  0  0  0
  3 16  1  6  0  0  0
  3 14  1  0  0  0  0
  4 15  1  0  0  0  0
  5  9  1  0  0  0  0
  5  1  1  0  0  0  0
  6  1  1  0  0  0  0
  7 11  1  0  0  0  0
  7  4  2  0  0  0  0
  8  4  1  0  0  0  0
  9  7  1  0  0  0  0
 10  3  1  0  0  0  0
 10 11  1  0  0  0  0
 11  2  2  0  0  0  0
 13 35  1  1  0  0  0
 14 13  1  0  0  0  0
 15 12  2  0  0  0  0
 16 17  1  6  0  0  0
 18 16  1  0  0  0  0
 19 18  1  0  0  0  0
 19 20  2  0  0  0  0
 21 19  1  1  0  0  0
 22 24  1  0  0  0  0
 22 21  1  0  0  0  0
 23 25  1  0  0  0  0
 23 26  1  0  0  0  0
 24 21  1  0  0  0  0
 25 22  1  0  0  0  0
 26 24  1  0  0  0  0
 27 28  1  0  0  0  0
 27 25  1  0  0  0  0
 29 27  1  0  0  0  0
 30 34  1  0  0  0  0
 31 33  2  0  0  0  0
 32 30  2  0  0  0  0
 32 31  1  0  0  0  0
 33 29  1  0  0  0  0
 34 29  2  0  0  0  0
 36 39  2  0  0  0  0
 36 37  1  0  0  0  0
 37 41  2  0  0  0  0
 39 40  1  0  0  0  0
 40 35  1  0  0  0  0
 40 38  2  0  0  0  0
 41 38  1  0  0  0  0
 42 43  2  0  0  0  0
 43 37  1  0  0  0  0
M  END
>  <MODEL>
6

>  <REMARK>
 VINA RESULT:      -8.2      3.314      6.360
  Name = 
  9 active torsions:
  status: ('A' for Active; 'I' for Inactive)
    1  A    between atoms: C_1  and  C_34
    2  A    between atoms: C_1  and  C_35
    3  A    between atoms: C_2  and  O_6
    4  A    between atoms: C_2  and  C_13
    5  A    between atoms: C_3  and  C_12
    6  A    between atoms: O_6  and  C_12
    7  A    between atoms: C_11  and  N_14
    8  A    between atoms: N_14  and  C_22
    9  A    between atoms: C_19  and  S_37
                            x       y       z     vdW  Elec       q    Type
                         _______ _______ _______ _____ _____    ______ ____

>  <TORSDO>
F 9

$$$$
=
 OpenBabel11062409583D

 43 49  0  0  1  0  0  0  0  0999 V2000
  156.2240  212.9470  156.3570 N   0  0  0  0  0  0  0  0  0  0  0  0
  158.6190  213.1770  151.9360 C   0  0  0  0  0  0  0  0  0  0  0  0
  160.7290  211.3850  151.8950 C   0  0  2  0  0  3  0  0  0  0  0  0
  156.8290  213.4590  154.0440 C   0  0  0  0  0  0  0  0  0  0  0  0
  156.5020  211.5420  156.0700 C   0  0  0  0  0  2  0  0  0  0  0  0
  155.0890  212.9730  157.2610 C   0  0  0  0  0  1  0  0  0  0  0  0
  157.7370  212.3810  154.0510 C   0  0  0  0  0  0  0  0  0  0  0  0
  155.7880  213.5890  155.1180 C   0  0  0  0  0  2  0  0  0  0  0  0
  157.7680  211.4320  155.2230 C   0  0  0  0  0  2  0  0  0  0  0  0
  159.6630  211.1290  152.9710 C   0  0  0  0  0  2  0  0  0  0  0  0
  158.6630  212.2570  153.0020 C   0  0  0  0  0  0  0  0  0  0  0  0
  157.7320  214.2090  151.9650 N   0  0  0  0  0  0  0  0  0  0  0  0
  159.6600  213.0800  150.8430 C   0  0  1  0  0  3  0  0  0  0  0  0
  160.1020  211.7490  150.6900 O   0  0  0  0  0  0  0  0  0  0  0  0
  156.8390  214.3580  152.9780 C   0  0  0  0  0  3  0  0  0  0  0  0
  161.6130  210.1640  151.6680 C   0  0  1  0  0  3  0  0  0  0  0  0
  162.8610  210.2330  152.5340 C   0  0  0  0  0  1  0  0  0  0  0  0
  160.8880  208.9650  151.9310 O   0  0  0  0  0  0  0  0  0  0  0  0
  161.1830  207.7310  151.3330 C   0  0  0  0  0  0  0  0  0  0  0  0
  161.7660  206.7480  152.0150 C   0  0  0  0  0  2  0  0  0  0  0  0
  160.8030  207.4950  149.9060 C   0  0  2  0  0  3  0  0  0  0  0  0
  161.7500  206.4900  149.2790 C   0  0  2  0  0  3  0  0  0  0  0  0
  161.2840  206.8380  146.9680 O   0  0  0  0  0  0  0  0  0  0  0  0
  161.9150  207.9480  148.9760 C   0  0  1  0  0  3  0  0  0  0  0  0
  161.1280  205.9230  148.0210 C   0  0  1  0  0  3  0  0  0  0  0  0
  161.3770  208.1020  147.5710 C   0  0  0  0  0  2  0  0  0  0  0  0
  161.7370  204.6400  147.6760 N   0  0  0  0  0  0  0  0  0  0  0  0
  162.7860  204.6050  146.6600 C   0  0  0  0  0  1  0  0  0  0  0  0
  161.3480  203.4380  148.3670 C   0  0  0  0  0  0  0  0  0  0  0  0
  161.0930  201.0160  148.4170 C   0  0  0  0  0  3  0  0  0  0  0  0
  160.4570  202.3320  150.3450 C   0  0  0  0  0  3  0  0  0  0  0  0
  160.5850  201.0910  149.7170 C   0  0  0  0  0  3  0  0  0  0  0  0
  160.8350  203.4970  149.6730 C   0  0  0  0  0  3  0  0  0  0  0  0
  161.4720  202.1820  147.7460 C   0  0  0  0  0  3  0  0  0  0  0  0
  159.1100  213.5850  149.5130 C   0  0  0  0  0  2  0  0  0  0  0  0
  162.4010  213.8670  147.6570 C   0  0  0  0  0  3  0  0  0  0  0  0
  162.0610  213.3280  146.4130 C   0  0  0  0  0  0  0  0  0  0  0  0
  159.8010  212.9440  147.1930 C   0  0  0  0  0  3  0  0  0  0  0  0
  161.4400  213.9440  148.6700 C   0  0  0  0  0  3  0  0  0  0  0  0
  160.1400  213.4790  148.4410 C   0  0  0  0  0  0  0  0  0  0  0  0
  160.7620  212.8660  146.1800 C   0  0  0  0  0  3  0  0  0  0  0  0
  162.4590  212.8580  143.9010 O   0  0  0  0  0  0  0  0  0  0  0  0
  163.2770  213.2330  145.1290 S   0  0  0  0  0  3  0  0  0  0  0  0
  1  6  1  0  0  0  0
  2 12  2  0  0  0  0
  2 11  1  0  0  0  0
  3 16  1  6  0  0  0
  3 10  1  0  0  0  0
  4  7  1  0  0  0  0
  4  8  1  0  0  0  0
  5  1  1  0  0  0  0
  7  9  1  0  0  0  0
  8  1  1  0  0  0  0
  9  5  1  0  0  0  0
 10 11  1  0  0  0  0
 11  7  2  0  0  0  0
 12 15  1  0  0  0  0
 13 35  1  6  0  0  0
 13  2  1  0  0  0  0
 14 13  1  0  0  0  0
 14  3  1  0  0  0  0
 15  4  2  0  0  0  0
 16 18  1  0  0  0  0
 16 17  1  1  0  0  0
 19 18  1  0  0  0  0
 19 20  2  0  0  0  0
 21 19  1  1  0  0  0
 22 21  1  0  0  0  0
 23 26  1  0  0  0  0
 23 25  1  0  0  0  0
 24 22  1  0  0  0  0
 24 21  1  0  0  0  0
 25 22  1  0  0  0  0
 26 24  1  0  0  0  0
 27 25  1  0  0  0  0
 27 29  1  0  0  0  0
 28 27  1  0  0  0  0
 29 33  1  0  0  0  0
 30 32  2  0  0  0  0
 32 31  1  0  0  0  0
 33 31  2  0  0  0  0
 34 29  2  0  0  0  0
 34 30  1  0  0  0  0
 36 39  1  0  0  0  0
 37 36  2  0  0  0  0
 38 40  1  0  0  0  0
 40 39  2  0  0  0  0
 40 35  1  0  0  0  0
 41 37  1  0  0  0  0
 41 38  2  0  0  0  0
 42 43  2  0  0  0  0
 43 37  1  0  0  0  0
M  END
>  <MODEL>
7

>  <REMARK>
 VINA RESULT:      -8.1      3.744      8.543
  Name = 
  9 active torsions:
  status: ('A' for Active; 'I' for Inactive)
    1  A    between atoms: C_1  and  C_34
    2  A    between atoms: C_1  and  C_35
    3  A    between atoms: C_2  and  O_6
    4  A    between atoms: C_2  and  C_13
    5  A    between atoms: C_3  and  C_12
    6  A    between atoms: O_6  and  C_12
    7  A    between atoms: C_11  and  N_14
    8  A    between atoms: N_14  and  C_22
    9  A    between atoms: C_19  and  S_37
                            x       y       z     vdW  Elec       q    Type
                         _______ _______ _______ _____ _____    ______ ____

>  <TORSDO>
F 9

$$$$
=
 OpenBabel11062409583D

 43 49  0  0  1  0  0  0  0  0999 V2000
  160.7230  203.2590  148.1110 N   0  0  0  0  0  0  0  0  0  0  0  0
  161.8160  208.0050  149.3810 C   0  0  0  0  0  0  0  0  0  0  0  0
  160.8520  208.5640  151.9150 C   0  0  2  0  0  3  0  0  0  0  0  0
  161.6440  205.5240  148.1400 C   0  0  0  0  0  0  0  0  0  0  0  0
  161.1070  203.1340  149.5140 C   0  0  0  0  0  2  0  0  0  0  0  0
  160.9360  201.9600  147.5010 C   0  0  0  0  0  1  0  0  0  0  0  0
  161.3000  205.6370  149.5020 C   0  0  0  0  0  0  0  0  0  0  0  0
  161.6520  204.1830  147.4630 C   0  0  0  0  0  2  0  0  0  0  0  0
  160.7880  204.4330  150.2520 C   0  0  0  0  0  2  0  0  0  0  0  0
  160.9850  207.0740  151.5710 C   0  0  0  0  0  2  0  0  0  0  0  0
  161.3560  206.8980  150.1210 C   0  0  0  0  0  0  0  0  0  0  0  0
  162.1360  207.8590  148.0660 N   0  0  0  0  0  0  0  0  0  0  0  0
  161.8120  209.3710  150.0310 C   0  0  1  0  0  3  0  0  0  0  0  0
  161.9720  209.2610  151.4280 O   0  0  0  0  0  0  0  0  0  0  0  0
  162.0720  206.6530  147.4430 C   0  0  0  0  0  3  0  0  0  0  0  0
  160.7160  208.7940  153.4160 C   0  0  1  0  0  3  0  0  0  0  0  0
  161.4620  207.7230  154.1960 C   0  0  0  0  0  1  0  0  0  0  0  0
  161.1900  210.0910  153.7690 O   0  0  0  0  0  0  0  0  0  0  0  0
  160.6440  210.8630  154.8040 C   0  0  0  0  0  0  0  0  0  0  0  0
  161.2510  210.9750  155.9840 C   0  0  0  0  0  2  0  0  0  0  0  0
  159.3710  211.6110  154.5720 C   0  0  2  0  0  3  0  0  0  0  0  0
  159.5820  212.6770  153.5130 C   0  0  2  0  0  3  0  0  0  0  0  0
  157.6470  214.0230  153.8590 O   0  0  0  0  0  0  0  0  0  0  0  0
  159.5300  213.0710  154.9580 C   0  0  1  0  0  3  0  0  0  0  0  0
  158.2430  213.1210  152.9650 C   0  0  1  0  0  3  0  0  0  0  0  0
  158.1700  213.7090  155.1230 C   0  0  0  0  0  2  0  0  0  0  0  0
  158.4030  213.7370  151.6500 N   0  0  0  0  0  0  0  0  0  0  0  0
  159.7470  214.0520  151.1740 C   0  0  0  0  0  1  0  0  0  0  0  0
  157.2550  213.9790  150.8130 C   0  0  0  0  0  0  0  0  0  0  0  0
  154.8790  214.4530  150.5690 C   0  0  0  0  0  3  0  0  0  0  0  0
  156.2650  214.2120  148.6000 C   0  0  0  0  0  3  0  0  0  0  0  0
  155.0150  214.4500  149.1780 C   0  0  0  0  0  3  0  0  0  0  0  0
  157.3770  213.9780  149.4130 C   0  0  0  0  0  3  0  0  0  0  0  0
  155.9920  214.2190  151.3810 C   0  0  0  0  0  3  0  0  0  0  0  0
  162.9190  210.2530  149.4630 C   0  0  0  0  0  2  0  0  0  0  0  0
  160.4330  212.3960  147.5710 C   0  0  0  0  0  3  0  0  0  0  0  0
  161.2880  213.2300  146.8430 C   0  0  0  0  0  0  0  0  0  0  0  0
  163.2060  212.1330  147.8340 C   0  0  0  0  0  3  0  0  0  0  0  0
  160.9660  211.4300  148.4300 C   0  0  0  0  0  3  0  0  0  0  0  0
  162.3520  211.3000  148.5660 C   0  0  0  0  0  0  0  0  0  0  0  0
  162.6730  213.0990  146.9740 C   0  0  0  0  0  3  0  0  0  0  0  0
  159.1140  214.1950  145.8250 O   0  0  0  0  0  0  0  0  0  0  0  0
  160.6140  214.4510  145.7530 S   0  0  0  0  0  3  0  0  0  0  0  0
  1  5  1  0  0  0  0
  2 13  1  0  0  0  0
  2 11  1  0  0  0  0
  3 16  1  1  0  0  0
  4  7  1  0  0  0  0
  5  9  1  0  0  0  0
  6  1  1  0  0  0  0
  7 11  2  0  0  0  0
  7  9  1  0  0  0  0
  8  1  1  0  0  0  0
  8  4  1  0  0  0  0
 10  3  1  0  0  0  0
 11 10  1  0  0  0  0
 12  2  2  0  0  0  0
 13 35  1  6  0  0  0
 13 14  1  0  0  0  0
 14  3  1  0  0  0  0
 15 12  1  0  0  0  0
 15  4  2  0  0  0  0
 16 18  1  0  0  0  0
 16 17  1  1  0  0  0
 18 19  1  0  0  0  0
 19 20  2  0  0  0  0
 21 19  1  1  0  0  0
 21 24  1  0  0  0  0
 22 21  1  0  0  0  0
 22 24  1  0  0  0  0
 23 26  1  0  0  0  0
 24 26  1  0  0  0  0
 25 22  1  0  0  0  0
 25 23  1  0  0  0  0
 27 25  1  0  0  0  0
 28 27  1  0  0  0  0
 29 34  1  0  0  0  0
 29 27  1  0  0  0  0
 30 34  2  0  0  0  0
 31 32  2  0  0  0  0
 31 33  1  0  0  0  0
 32 30  1  0  0  0  0
 33 29  2  0  0  0  0
 36 39  1  0  0  0  0
 37 41  1  0  0  0  0
 37 36  2  0  0  0  0
 38 40  1  0  0  0  0
 39 40  2  0  0  0  0
 40 35  1  0  0  0  0
 41 38  2  0  0  0  0
 43 42  2  0  0  0  0
 43 37  1  0  0  0  0
M  END
>  <MODEL>
8

>  <REMARK>
 VINA RESULT:      -8.1      3.855      8.353
  Name = 
  9 active torsions:
  status: ('A' for Active; 'I' for Inactive)
    1  A    between atoms: C_1  and  C_34
    2  A    between atoms: C_1  and  C_35
    3  A    between atoms: C_2  and  O_6
    4  A    between atoms: C_2  and  C_13
    5  A    between atoms: C_3  and  C_12
    6  A    between atoms: O_6  and  C_12
    7  A    between atoms: C_11  and  N_14
    8  A    between atoms: N_14  and  C_22
    9  A    between atoms: C_19  and  S_37
                            x       y       z     vdW  Elec       q    Type
                         _______ _______ _______ _____ _____    ______ ____

>  <TORSDO>
F 9

$$$$
=
 OpenBabel11062409583D

 43 49  0  0  1  0  0  0  0  0999 V2000
  160.3090  207.4200  154.8300 N   0  0  0  0  0  0  0  0  0  0  0  0
  161.8640  207.3520  150.0440 C   0  0  0  0  0  0  0  0  0  0  0  0
  161.5820  209.8610  148.9100 C   0  0  2  0  0  3  0  0  0  0  0  0
  161.2950  206.7470  152.6960 C   0  0  0  0  0  0  0  0  0  0  0  0
  161.0240  208.6870  154.7090 C   0  0  0  0  0  2  0  0  0  0  0  0
  160.3140  207.0700  156.2390 C   0  0  0  0  0  1  0  0  0  0  0  0
  161.3040  208.0950  152.2850 C   0  0  0  0  0  0  0  0  0  0  0  0
  161.0830  206.3900  154.1400 C   0  0  0  0  0  2  0  0  0  0  0  0
  160.9480  209.1830  153.2660 C   0  0  0  0  0  2  0  0  0  0  0  0
  161.5680  209.8230  150.4450 C   0  0  0  0  0  2  0  0  0  0  0  0
  161.5600  208.3980  150.9370 C   0  0  0  0  0  0  0  0  0  0  0  0
  161.8420  206.0610  150.4760 N   0  0  0  0  0  0  0  0  0  0  0  0
  162.0740  207.6770  148.5820 C   0  0  1  0  0  3  0  0  0  0  0  0
  162.5720  208.9870  148.4270 O   0  0  0  0  0  0  0  0  0  0  0  0
  161.5790  205.7430  151.7710 C   0  0  0  0  0  3  0  0  0  0  0  0
  161.8320  211.2680  148.3770 C   0  0  1  0  0  3  0  0  0  0  0  0
  160.8950  211.5810  147.2210 C   0  0  0  0  0  1  0  0  0  0  0  0
  161.6800  212.2310  149.4170 O   0  0  0  0  0  0  0  0  0  0  0  0
  161.2740  213.5550  149.1980 C   0  0  0  0  0  0  0  0  0  0  0  0
  161.8350  214.3080  148.2540 C   0  0  0  0  0  2  0  0  0  0  0  0
  160.1610  214.1290  150.0150 C   0  0  2  0  0  3  0  0  0  0  0  0
  159.7170  213.1250  151.0610 C   0  0  2  0  0  3  0  0  0  0  0  0
  157.6210  214.0610  151.6990 O   0  0  0  0  0  0  0  0  0  0  0  0
  158.8900  213.3210  149.8270 C   0  0  1  0  0  3  0  0  0  0  0  0
  158.9320  213.8330  152.1440 C   0  0  1  0  0  3  0  0  0  0  0  0
  157.6980  214.1230  150.2990 C   0  0  0  0  0  2  0  0  0  0  0  0
  158.9230  213.0450  153.3750 N   0  0  0  0  0  0  0  0  0  0  0  0
  160.0780  212.2090  153.6880 C   0  0  0  0  0  1  0  0  0  0  0  0
  157.8150  213.1360  154.2920 C   0  0  0  0  0  0  0  0  0  0  0  0
  156.4830  214.4150  155.8780 C   0  0  0  0  0  3  0  0  0  0  0  0
  155.8990  212.1180  155.3970 C   0  0  0  0  0  3  0  0  0  0  0  0
  155.6540  213.3100  156.0820 C   0  0  0  0  0  3  0  0  0  0  0  0
  156.9740  212.0320  154.5080 C   0  0  0  0  0  3  0  0  0  0  0  0
  157.5570  214.3290  154.9890 C   0  0  0  0  0  3  0  0  0  0  0  0
  163.0390  206.6900  147.9320 C   0  0  0  0  0  2  0  0  0  0  0  0
  161.2630  203.4450  147.1170 C   0  0  0  0  0  3  0  0  0  0  0  0
  160.9400  203.6380  145.7710 C   0  0  0  0  0  0  0  0  0  0  0  0
  161.9740  205.8270  145.8360 C   0  0  0  0  0  3  0  0  0  0  0  0
  161.9410  204.4430  147.8230 C   0  0  0  0  0  3  0  0  0  0  0  0
  162.2930  205.6370  147.1850 C   0  0  0  0  0  0  0  0  0  0  0  0
  161.2950  204.8290  145.1300 C   0  0  0  0  0  3  0  0  0  0  0  0
  160.4110  201.1090  145.6590 O   0  0  0  0  0  0  0  0  0  0  0  0
  160.0840  202.3730  144.8760 S   0  0  0  0  0  3  0  0  0  0  0  0
  1  6  1  0  0  0  0
  2 12  2  0  0  0  0
  2 11  1  0  0  0  0
  3 16  1  1  0  0  0
  3 10  1  0  0  0  0
  4  8  1  0  0  0  0
  5  1  1  0  0  0  0
  7  4  1  0  0  0  0
  7  9  1  0  0  0  0
  8  1  1  0  0  0  0
  9  5  1  0  0  0  0
 10 11  1  0  0  0  0
 11  7  2  0  0  0  0
 12 15  1  0  0  0  0
 13 35  1  1  0  0  0
 13  2  1  0  0  0  0
 14 13  1  0  0  0  0
 14  3  1  0  0  0  0
 15  4  2  0  0  0  0
 16 17  1  6  0  0  0
 16 18  1  0  0  0  0
 19 18  1  0  0  0  0
 20 19  2  0  0  0  0
 21 19  1  6  0  0  0
 21 22  1  0  0  0  0
 22 25  1  0  0  0  0
 23 25  1  0  0  0  0
 24 21  1  0  0  0  0
 24 26  1  0  0  0  0
 24 22  1  0  0  0  0
 25 27  1  0  0  0  0
 26 23  1  0  0  0  0
 27 28  1  0  0  0  0
 27 29  1  0  0  0  0
 29 33  2  0  0  0  0
 29 34  1  0  0  0  0
 30 32  1  0  0  0  0
 31 32  2  0  0  0  0
 33 31  1  0  0  0  0
 34 30  2  0  0  0  0
 36 39  1  0  0  0  0
 37 36  2  0  0  0  0
 38 40  1  0  0  0  0
 40 39  2  0  0  0  0
 40 35  1  0  0  0  0
 41 37  1  0  0  0  0
 41 38  2  0  0  0  0
 43 42  2  0  0  0  0
 43 37  1  0  0  0  0
M  END
>  <MODEL>
9

>  <REMARK>
 VINA RESULT:      -7.8      3.243      6.657
  Name = 
  9 active torsions:
  status: ('A' for Active; 'I' for Inactive)
    1  A    between atoms: C_1  and  C_34
    2  A    between atoms: C_1  and  C_35
    3  A    between atoms: C_2  and  O_6
    4  A    between atoms: C_2  and  C_13
    5  A    between atoms: C_3  and  C_12
    6  A    between atoms: O_6  and  C_12
    7  A    between atoms: C_11  and  N_14
    8  A    between atoms: N_14  and  C_22
    9  A    between atoms: C_19  and  S_37
                            x       y       z     vdW  Elec       q    Type
                         _______ _______ _______ _____ _____    ______ ____

>  <TORSDO>
F 9

$$$$
