=
 OpenBabel11062410563D

 32 31  0  0  1  0  0  0  0  0999 V2000
  161.6610  206.0290  148.7610 C   0  0  2  0  0  3  0  0  0  0  0  0
  161.2180  205.3280  147.5410 N   0  0  0  0  0  0  0  0  0  0  0  0
  160.4080  206.4860  145.6780 O   0  0  0  0  0  1  0  0  0  0  0  0
  161.5680  206.1190  146.3610 C   0  0  0  0  0  2  0  0  0  0  0  0
  161.8610  204.0090  147.4220 C   0  0  0  0  0  2  0  0  0  0  0  0
  161.6010  203.3290  146.0750 C   0  0  0  0  0  2  0  0  0  0  0  0
  160.8340  202.1130  146.2800 N   0  0  0  0  0  2  0  0  0  0  0  0
  160.8860  201.8140  147.7010 C   0  0  0  0  0  2  0  0  0  0  0  0
  161.4030  200.4050  147.9020 C   0  0  0  0  0  1  0  0  0  0  0  0
  160.5040  206.2310  149.7520 C   0  0  0  0  0  2  0  0  0  0  0  0
  160.6700  205.3910  150.9310 N   0  0  0  0  0  0  0  0  0  0  0  0
  160.5630  204.1050  150.5140 O   0  0  0  0  0  0  0  0  0  0  0  0
  161.2050  203.3530  151.4990 C   0  0  0  0  0  1  0  0  0  0  0  0
  162.0390  205.5780  151.3830 C   0  0  0  0  0  2  0  0  0  0  0  0
  162.1320  206.7540  152.1260 O   0  0  0  0  0  0  0  0  0  0  0  0
  161.4490  206.4760  153.3110 C   0  0  0  0  0  2  0  0  0  0  0  0
  160.7390  207.6660  153.7620 N   0  0  0  0  0  0  0  0  0  0  0  0
  160.9190  208.7090  152.7620 C   0  0  0  0  0  1  0  0  0  0  0  0
  161.2620  208.1240  155.0590 C   0  0  0  0  0  2  0  0  0  0  0  0
  159.4290  209.4520  155.8660 O   0  0  0  0  0  1  0  0  0  0  0  0
  160.7680  209.5120  155.4810 C   0  0  0  0  0  2  0  0  0  0  0  0
  162.2900  207.3830  148.4260 C   0  0  0  0  0  2  0  0  0  0  0  0
  161.7140  208.3840  149.2080 O   0  0  0  0  0  0  0  0  0  0  0  0
  161.9720  209.5650  148.5130 C   0  0  0  0  0  2  0  0  0  0  0  0
  162.2400  210.6970  149.4940 C   0  0  0  0  0  2  0  0  0  0  0  0
  161.5890  211.9890  149.0290 C   0  0  0  0  0  2  0  0  0  0  0  0
  161.9770  212.2770  147.6570 N   0  0  0  0  0  2  0  0  0  0  0  0
  161.0250  212.6630  146.6670 C   0  0  0  0  0  0  0  0  0  0  0  0
  161.4690  212.9400  145.3390 N   0  0  0  0  0  2  0  0  0  0  0  0
  159.8020  212.7620  146.9630 O   0  0  0  0  0  0  0  0  0  0  0  0
  160.5510  213.3400  144.2870 C   0  0  0  0  0  2  0  0  0  0  0  0
  160.0520  212.1110  143.5580 C   0  0  0  0  0  1  0  0  0  0  0  0
  1 22  1  6  0  0  0
  1 10  1  0  0  0  0
  2  1  1  0  0  0  0
  3  4  1  0  0  0  0
  4  2  1  0  0  0  0
  5  2  1  0  0  0  0
  6  7  1  0  0  0  0
  6  5  1  0  0  0  0
  7  8  1  0  0  0  0
  8  9  1  0  0  0  0
 10 11  1  0  0  0  0
 11 14  1  0  0  0  0
 12 11  1  0  0  0  0
 12 13  1  0  0  0  0
 14 15  1  0  0  0  0
 15 16  1  0  0  0  0
 16 17  1  0  0  0  0
 17 19  1  0  0  0  0
 18 17  1  0  0  0  0
 19 21  1  0  0  0  0
 21 20  1  0  0  0  0
 22 23  1  0  0  0  0
 24 23  1  0  0  0  0
 24 25  1  0  0  0  0
 26 25  1  0  0  0  0
 27 26  1  0  0  0  0
 28 30  2  0  0  0  0
 28 27  1  0  0  0  0
 29 28  1  0  0  0  0
 31 29  1  0  0  0  0
 32 31  1  0  0  0  0
M  END
>  <MODEL>
1

>  <REMARK>
 VINA RESULT:      -5.2      0.000      0.000
  Name = 
  22 active torsions:
  status: ('A' for Active; 'I' for Inactive)
    1  A    between atoms: C_1  and  N_20
    2  A    between atoms: C_2  and  C_12
    3  A    between atoms: C_2  and  O_23
    4  A    between atoms: N_4  and  C_5
    5  A    between atoms: N_4  and  C_15
    6  A    between atoms: O_6  and  N_31
    7  A    between atoms: C_8  and  O_23
    8  A    between atoms: C_8  and  C_28
    9  A    between atoms: C_9  and  N_10
   10  A    between atoms: C_9  and  C_12
   11  A    between atoms: N_11  and  C_18
   12  A    between atoms: N_11  and  C_32
   13  A    between atoms: C_13  and  C_28
   14  A    between atoms: C_13  and  N_31
   15  A    between atoms: N_14  and  C_21
   16  A    between atoms: N_14  and  C_26
   17  A    between atoms: N_14  and  C_28
   18  A    between atoms: C_15  and  C_26
   19  A    between atoms: C_16  and  O_27
   20  A    between atoms: C_16  and  N_31
   21  A    between atoms: C_18  and  C_22
   22  A    between atoms: O_27  and  C_32
                            x       y       z     vdW  Elec       q    Type
                         _______ _______ _______ _____ _____    ______ ____

>  <TORSDO>
F 22

$$$$
=
 OpenBabel11062410563D

 32 31  0  0  1  0  0  0  0  0999 V2000
  161.0620  208.2760  151.9900 C   0  0  2  0  0  3  0  0  0  0  0  0
  161.3770  208.5870  150.5830 N   0  0  0  0  0  0  0  0  0  0  0  0
  162.0930  210.3730  149.2540 O   0  0  0  0  0  1  0  0  0  0  0  0
  162.2100  209.7880  150.5150 C   0  0  0  0  0  2  0  0  0  0  0  0
  162.1060  207.4800  149.9430 C   0  0  0  0  0  2  0  0  0  0  0  0
  161.3980  206.9230  148.7050 C   0  0  0  0  0  2  0  0  0  0  0  0
  162.2760  207.0190  147.5530 N   0  0  0  0  0  2  0  0  0  0  0  0
  162.0300  205.8460  146.7330 C   0  0  0  0  0  2  0  0  0  0  0  0
  160.7640  206.0490  145.9290 C   0  0  0  0  0  1  0  0  0  0  0  0
  161.5060  209.4030  152.9340 C   0  0  0  0  0  2  0  0  0  0  0  0
  160.4540  209.7390  153.8840 N   0  0  0  0  0  0  0  0  0  0  0  0
  160.8480  209.2620  155.0900 O   0  0  0  0  0  0  0  0  0  0  0  0
  160.7700  210.3570  155.9530 C   0  0  0  0  0  1  0  0  0  0  0  0
  160.4360  211.1890  153.9860 C   0  0  0  0  0  2  0  0  0  0  0  0
  160.3390  211.7480  152.7120 O   0  0  0  0  0  0  0  0  0  0  0  0
  158.9690  211.9120  152.5040 C   0  0  0  0  0  2  0  0  0  0  0  0
  158.6880  213.2900  152.1230 N   0  0  0  0  0  0  0  0  0  0  0  0
  157.5410  213.7490  152.8930 C   0  0  0  0  0  1  0  0  0  0  0  0
  158.3930  213.3830  150.6840 C   0  0  0  0  0  2  0  0  0  0  0  0
  159.4420  213.3920  148.5220 O   0  0  0  0  0  1  0  0  0  0  0  0
  159.5740  213.8580  149.8300 C   0  0  0  0  0  2  0  0  0  0  0  0
  161.7060  206.9590  152.4250 C   0  0  0  0  0  2  0  0  0  0  0  0
  160.8590  206.2810  153.3020 O   0  0  0  0  0  0  0  0  0  0  0  0
  161.1400  204.9310  153.0890 C   0  0  0  0  0  2  0  0  0  0  0  0
  161.5870  204.7140  151.6520 C   0  0  0  0  0  2  0  0  0  0  0  0
  160.8120  203.5780  151.0040 C   0  0  0  0  0  2  0  0  0  0  0  0
  161.1200  203.5080  149.5850 N   0  0  0  0  0  2  0  0  0  0  0  0
  160.8020  202.3610  148.7980 C   0  0  0  0  0  0  0  0  0  0  0  0
  161.1250  202.3570  147.4070 N   0  0  0  0  0  2  0  0  0  0  0  0
  160.2390  201.3630  149.3240 O   0  0  0  0  0  0  0  0  0  0  0  0
  160.8260  201.2220  146.5510 C   0  0  0  0  0  2  0  0  0  0  0  0
  160.1810  201.7110  145.2720 C   0  0  0  0  0  1  0  0  0  0  0  0
  1 22  1  1  0  0  0
  1 10  1  0  0  0  0
  2  1  1  0  0  0  0
  3  4  1  0  0  0  0
  4  2  1  0  0  0  0
  5  2  1  0  0  0  0
  6  5  1  0  0  0  0
  7  6  1  0  0  0  0
  8  7  1  0  0  0  0
  9  8  1  0  0  0  0
 10 11  1  0  0  0  0
 11 14  1  0  0  0  0
 11 12  1  0  0  0  0
 12 13  1  0  0  0  0
 15 14  1  0  0  0  0
 16 15  1  0  0  0  0
 17 16  1  0  0  0  0
 17 18  1  0  0  0  0
 19 17  1  0  0  0  0
 20 21  1  0  0  0  0
 21 19  1  0  0  0  0
 22 23  1  0  0  0  0
 24 23  1  0  0  0  0
 25 24  1  0  0  0  0
 26 25  1  0  0  0  0
 27 26  1  0  0  0  0
 28 30  2  0  0  0  0
 28 27  1  0  0  0  0
 29 28  1  0  0  0  0
 31 29  1  0  0  0  0
 32 31  1  0  0  0  0
M  END
>  <MODEL>
2

>  <REMARK>
 VINA RESULT:      -5.1      2.858      7.173
  Name = 
  22 active torsions:
  status: ('A' for Active; 'I' for Inactive)
    1  A    between atoms: C_1  and  N_20
    2  A    between atoms: C_2  and  C_12
    3  A    between atoms: C_2  and  O_23
    4  A    between atoms: N_4  and  C_5
    5  A    between atoms: N_4  and  C_15
    6  A    between atoms: O_6  and  N_31
    7  A    between atoms: C_8  and  O_23
    8  A    between atoms: C_8  and  C_28
    9  A    between atoms: C_9  and  N_10
   10  A    between atoms: C_9  and  C_12
   11  A    between atoms: N_11  and  C_18
   12  A    between atoms: N_11  and  C_32
   13  A    between atoms: C_13  and  C_28
   14  A    between atoms: C_13  and  N_31
   15  A    between atoms: N_14  and  C_21
   16  A    between atoms: N_14  and  C_26
   17  A    between atoms: N_14  and  C_28
   18  A    between atoms: C_15  and  C_26
   19  A    between atoms: C_16  and  O_27
   20  A    between atoms: C_16  and  N_31
   21  A    between atoms: C_18  and  C_22
   22  A    between atoms: O_27  and  C_32
                            x       y       z     vdW  Elec       q    Type
                         _______ _______ _______ _____ _____    ______ ____

>  <TORSDO>
F 22

$$$$
=
 OpenBabel11062410563D

 32 31  0  0  1  0  0  0  0  0999 V2000
  161.5030  208.0590  151.8690 C   0  0  2  0  0  3  0  0  0  0  0  0
  161.9410  207.0870  152.8880 N   0  0  0  0  0  0  0  0  0  0  0  0
  161.1060  207.3590  155.0550 O   0  0  0  0  0  1  0  0  0  0  0  0
  160.8380  206.7990  153.8050 C   0  0  0  0  0  2  0  0  0  0  0  0
  162.3690  205.8210  152.2680 C   0  0  0  0  0  2  0  0  0  0  0  0
  161.3230  204.7090  152.3770 C   0  0  0  0  0  2  0  0  0  0  0  0
  160.8860  204.3160  151.0490 N   0  0  0  0  0  2  0  0  0  0  0  0
  160.8580  202.8640  151.0250 C   0  0  0  0  0  2  0  0  0  0  0  0
  160.7310  202.3850  149.5940 C   0  0  0  0  0  1  0  0  0  0  0  0
  162.2800  207.8950  150.5550 C   0  0  0  0  0  2  0  0  0  0  0  0
  161.4930  208.3530  149.4180 N   0  0  0  0  0  0  0  0  0  0  0  0
  162.3570  208.9400  148.5540 O   0  0  0  0  0  0  0  0  0  0  0  0
  162.1020  210.3090  148.6630 C   0  0  0  0  0  1  0  0  0  0  0  0
  160.9810  207.1610  148.7610 C   0  0  0  0  0  2  0  0  0  0  0  0
  161.9780  206.6000  147.9640 O   0  0  0  0  0  0  0  0  0  0  0  0
  161.4590  205.3650  147.5710 C   0  0  0  0  0  2  0  0  0  0  0  0
  162.3500  204.7420  146.6010 N   0  0  0  0  0  0  0  0  0  0  0  0
  162.3860  205.5830  145.4130 C   0  0  0  0  0  1  0  0  0  0  0  0
  161.8730  203.3960  146.2450 C   0  0  0  0  0  2  0  0  0  0  0  0
  160.2750  202.1000  145.0020 O   0  0  0  0  0  1  0  0  0  0  0  0
  160.8270  203.3770  145.1260 C   0  0  0  0  0  2  0  0  0  0  0  0
  161.6480  209.4960  152.3750 C   0  0  0  0  0  2  0  0  0  0  0  0
  160.4110  210.1400  152.3410 O   0  0  0  0  0  0  0  0  0  0  0  0
  160.3970  210.9360  153.4860 C   0  0  0  0  0  2  0  0  0  0  0  0
  159.0660  211.6630  153.5980 C   0  0  0  0  0  2  0  0  0  0  0  0
  159.1260  213.0190  152.9140 C   0  0  0  0  0  2  0  0  0  0  0  0
  158.0890  213.1130  151.8990 N   0  0  0  0  0  2  0  0  0  0  0  0
  158.3830  213.4660  150.5480 C   0  0  0  0  0  0  0  0  0  0  0  0
  157.3220  213.5340  149.5960 N   0  0  0  0  0  2  0  0  0  0  0  0
  159.5700  213.7120  150.1970 O   0  0  0  0  0  0  0  0  0  0  0  0
  157.5550  213.8840  148.2050 C   0  0  0  0  0  2  0  0  0  0  0  0
  157.3700  212.6580  147.3370 C   0  0  0  0  0  1  0  0  0  0  0  0
  1 10  1  6  0  0  0
  1 22  1  0  0  0  0
  1  2  1  0  0  0  0
  2  4  1  0  0  0  0
  4  3  1  0  0  0  0
  5  6  1  0  0  0  0
  5  2  1  0  0  0  0
  7  6  1  0  0  0  0
  8  7  1  0  0  0  0
  9  8  1  0  0  0  0
 11 10  1  0  0  0  0
 12 13  1  0  0  0  0
 12 11  1  0  0  0  0
 14 11  1  0  0  0  0
 15 14  1  0  0  0  0
 16 15  1  0  0  0  0
 17 16  1  0  0  0  0
 18 17  1  0  0  0  0
 19 17  1  0  0  0  0
 20 21  1  0  0  0  0
 21 19  1  0  0  0  0
 23 22  1  0  0  0  0
 23 24  1  0  0  0  0
 24 25  1  0  0  0  0
 26 25  1  0  0  0  0
 27 26  1  0  0  0  0
 28 27  1  0  0  0  0
 29 28  1  0  0  0  0
 30 28  2  0  0  0  0
 31 29  1  0  0  0  0
 32 31  1  0  0  0  0
M  END
>  <MODEL>
3

>  <REMARK>
 VINA RESULT:      -5.1      2.763      6.339
  Name = 
  22 active torsions:
  status: ('A' for Active; 'I' for Inactive)
    1  A    between atoms: C_1  and  N_20
    2  A    between atoms: C_2  and  C_12
    3  A    between atoms: C_2  and  O_23
    4  A    between atoms: N_4  and  C_5
    5  A    between atoms: N_4  and  C_15
    6  A    between atoms: O_6  and  N_31
    7  A    between atoms: C_8  and  O_23
    8  A    between atoms: C_8  and  C_28
    9  A    between atoms: C_9  and  N_10
   10  A    between atoms: C_9  and  C_12
   11  A    between atoms: N_11  and  C_18
   12  A    between atoms: N_11  and  C_32
   13  A    between atoms: C_13  and  C_28
   14  A    between atoms: C_13  and  N_31
   15  A    between atoms: N_14  and  C_21
   16  A    between atoms: N_14  and  C_26
   17  A    between atoms: N_14  and  C_28
   18  A    between atoms: C_15  and  C_26
   19  A    between atoms: C_16  and  O_27
   20  A    between atoms: C_16  and  N_31
   21  A    between atoms: C_18  and  C_22
   22  A    between atoms: O_27  and  C_32
                            x       y       z     vdW  Elec       q    Type
                         _______ _______ _______ _____ _____    ______ ____

>  <TORSDO>
F 22

$$$$
=
 OpenBabel11062410563D

 32 31  0  0  1  0  0  0  0  0999 V2000
  161.1910  206.1150  151.6340 C   0  0  2  0  0  3  0  0  0  0  0  0
  161.3030  204.7140  151.1880 N   0  0  0  0  0  0  0  0  0  0  0  0
  161.7000  202.6450  152.2030 O   0  0  0  0  0  1  0  0  0  0  0  0
  160.9440  203.8150  152.2850 C   0  0  0  0  0  2  0  0  0  0  0  0
  160.4050  204.4410  150.0540 C   0  0  0  0  0  2  0  0  0  0  0  0
  160.9170  203.3330  149.1290 C   0  0  0  0  0  2  0  0  0  0  0  0
  160.0330  202.1840  149.2070 N   0  0  0  0  0  2  0  0  0  0  0  0
  160.8750  201.0140  149.3870 C   0  0  0  0  0  2  0  0  0  0  0  0
  161.4160  200.5700  148.0440 C   0  0  0  0  0  1  0  0  0  0  0  0
  162.3070  206.9900  151.0450 C   0  0  0  0  0  2  0  0  0  0  0  0
  161.7560  208.1070  150.2890 N   0  0  0  0  0  0  0  0  0  0  0  0
  162.1990  209.2410  150.8860 O   0  0  0  0  0  0  0  0  0  0  0  0
  161.9320  210.2590  149.9690 C   0  0  0  0  0  1  0  0  0  0  0  0
  162.3670  208.0560  148.9700 C   0  0  0  0  0  2  0  0  0  0  0  0
  162.1990  206.7840  148.4240 O   0  0  0  0  0  0  0  0  0  0  0  0
  161.1260  206.9190  147.5420 C   0  0  0  0  0  2  0  0  0  0  0  0
  161.5030  206.4230  146.2250 N   0  0  0  0  0  0  0  0  0  0  0  0
  160.2850  206.1890  145.4620 C   0  0  0  0  0  1  0  0  0  0  0  0
  162.2680  205.1710  146.3400 C   0  0  0  0  0  2  0  0  0  0  0  0
  161.4450  203.0270  145.6300 O   0  0  0  0  0  1  0  0  0  0  0  0
  162.0560  204.1970  145.1760 C   0  0  0  0  0  2  0  0  0  0  0  0
  161.2120  206.2160  153.1600 C   0  0  0  0  0  2  0  0  0  0  0  0
  161.0500  207.5450  153.5520 O   0  0  0  0  0  0  0  0  0  0  0  0
  160.7120  207.4740  154.9040 C   0  0  0  0  0  2  0  0  0  0  0  0
  161.3340  208.6400  155.6570 C   0  0  0  0  0  2  0  0  0  0  0  0
  160.2670  209.4820  156.3370 C   0  0  0  0  0  2  0  0  0  0  0  0
  160.3570  210.8610  155.8840 N   0  0  0  0  0  2  0  0  0  0  0  0
  159.5900  211.3470  154.7820 C   0  0  0  0  0  0  0  0  0  0  0  0
  159.7170  212.7130  154.3900 N   0  0  0  0  0  2  0  0  0  0  0  0
  158.8050  210.5770  154.1640 O   0  0  0  0  0  0  0  0  0  0  0  0
  158.9630  213.2700  153.2800 C   0  0  0  0  0  2  0  0  0  0  0  0
  159.6640  212.9450  151.9790 C   0  0  0  0  0  1  0  0  0  0  0  0
  1 10  1  6  0  0  0
  1 22  1  0  0  0  0
  2  1  1  0  0  0  0
  2  4  1  0  0  0  0
  3  4  1  0  0  0  0
  5  2  1  0  0  0  0
  6  7  1  0  0  0  0
  6  5  1  0  0  0  0
  7  8  1  0  0  0  0
  9  8  1  0  0  0  0
 11 12  1  0  0  0  0
 11 10  1  0  0  0  0
 13 12  1  0  0  0  0
 14 11  1  0  0  0  0
 15 14  1  0  0  0  0
 16 15  1  0  0  0  0
 17 19  1  0  0  0  0
 17 16  1  0  0  0  0
 18 17  1  0  0  0  0
 21 20  1  0  0  0  0
 21 19  1  0  0  0  0
 22 23  1  0  0  0  0
 23 24  1  0  0  0  0
 24 25  1  0  0  0  0
 25 26  1  0  0  0  0
 27 26  1  0  0  0  0
 28 27  1  0  0  0  0
 29 28  1  0  0  0  0
 30 28  2  0  0  0  0
 31 29  1  0  0  0  0
 32 31  1  0  0  0  0
M  END
>  <MODEL>
4

>  <REMARK>
 VINA RESULT:      -5.1      2.999      6.695
  Name = 
  22 active torsions:
  status: ('A' for Active; 'I' for Inactive)
    1  A    between atoms: C_1  and  N_20
    2  A    between atoms: C_2  and  C_12
    3  A    between atoms: C_2  and  O_23
    4  A    between atoms: N_4  and  C_5
    5  A    between atoms: N_4  and  C_15
    6  A    between atoms: O_6  and  N_31
    7  A    between atoms: C_8  and  O_23
    8  A    between atoms: C_8  and  C_28
    9  A    between atoms: C_9  and  N_10
   10  A    between atoms: C_9  and  C_12
   11  A    between atoms: N_11  and  C_18
   12  A    between atoms: N_11  and  C_32
   13  A    between atoms: C_13  and  C_28
   14  A    between atoms: C_13  and  N_31
   15  A    between atoms: N_14  and  C_21
   16  A    between atoms: N_14  and  C_26
   17  A    between atoms: N_14  and  C_28
   18  A    between atoms: C_15  and  C_26
   19  A    between atoms: C_16  and  O_27
   20  A    between atoms: C_16  and  N_31
   21  A    between atoms: C_18  and  C_22
   22  A    between atoms: O_27  and  C_32
                            x       y       z     vdW  Elec       q    Type
                         _______ _______ _______ _____ _____    ______ ____

>  <TORSDO>
F 22

$$$$
=
 OpenBabel11062410563D

 32 31  0  0  1  0  0  0  0  0999 V2000
  161.4420  208.3800  152.5500 C   0  0  2  0  0  3  0  0  0  0  0  0
  160.6680  209.2880  153.4170 N   0  0  0  0  0  0  0  0  0  0  0  0
  162.0970  210.2970  154.9680 O   0  0  0  0  0  1  0  0  0  0  0  0
  161.1990  209.2460  154.7790 C   0  0  0  0  0  2  0  0  0  0  0  0
  160.7410  210.6770  152.9340 C   0  0  0  0  0  2  0  0  0  0  0  0
  159.4270  211.4460  153.0990 C   0  0  0  0  0  2  0  0  0  0  0  0
  159.4260  212.6070  152.2270 N   0  0  0  0  0  2  0  0  0  0  0  0
  158.0800  213.1530  152.2500 C   0  0  0  0  0  2  0  0  0  0  0  0
  158.0490  214.4520  151.4730 C   0  0  0  0  0  1  0  0  0  0  0  0
  161.1310  208.6100  151.0640 C   0  0  0  0  0  2  0  0  0  0  0  0
  162.3460  208.8860  150.3090 N   0  0  0  0  0  0  0  0  0  0  0  0
  162.7670  207.7030  149.7970 O   0  0  0  0  0  0  0  0  0  0  0  0
  162.2100  207.6460  148.5180 C   0  0  0  0  0  1  0  0  0  0  0  0
  161.9550  209.7200  149.1840 C   0  0  0  0  0  2  0  0  0  0  0  0
  162.0990  211.0640  149.5250 O   0  0  0  0  0  0  0  0  0  0  0  0
  162.3330  211.7110  148.3110 C   0  0  0  0  0  2  0  0  0  0  0  0
  162.1460  213.1470  148.4720 N   0  0  0  0  0  0  0  0  0  0  0  0
  160.7870  213.3780  148.9400 C   0  0  0  0  0  1  0  0  0  0  0  0
  162.3590  213.8460  147.1950 C   0  0  0  0  0  2  0  0  0  0  0  0
  162.6450  213.3770  144.8550 O   0  0  0  0  0  1  0  0  0  0  0  0
  161.8560  213.0790  145.9670 C   0  0  0  0  0  2  0  0  0  0  0  0
  161.1810  206.9160  152.9080 C   0  0  0  0  0  2  0  0  0  0  0  0
  160.8790  206.1900  151.7560 O   0  0  0  0  0  0  0  0  0  0  0  0
  161.7980  205.1410  151.7500 C   0  0  0  0  0  2  0  0  0  0  0  0
  161.0850  203.8250  152.0230 C   0  0  0  0  0  2  0  0  0  0  0  0
  160.8370  203.0600  150.7320 C   0  0  0  0  0  2  0  0  0  0  0  0
  161.2250  203.8710  149.5890 N   0  0  0  0  0  2  0  0  0  0  0  0
  161.2250  203.3530  148.2600 C   0  0  0  0  0  0  0  0  0  0  0  0
  161.6100  204.2020  147.1780 N   0  0  0  0  0  2  0  0  0  0  0  0
  160.8840  202.1580  148.0410 O   0  0  0  0  0  0  0  0  0  0  0  0
  161.6280  203.7360  145.8020 C   0  0  0  0  0  2  0  0  0  0  0  0
  161.1640  204.8490  144.8870 C   0  0  0  0  0  1  0  0  0  0  0  0
  1 10  1  6  0  0  0
  1 22  1  0  0  0  0
  1  2  1  0  0  0  0
  2  4  1  0  0  0  0
  4  3  1  0  0  0  0
  5  6  1  0  0  0  0
  5  2  1  0  0  0  0
  7  8  1  0  0  0  0
  7  6  1  0  0  0  0
  9  8  1  0  0  0  0
 11 10  1  0  0  0  0
 12 11  1  0  0  0  0
 13 12  1  0  0  0  0
 14 15  1  0  0  0  0
 14 11  1  0  0  0  0
 16 17  1  0  0  0  0
 16 15  1  0  0  0  0
 17 18  1  0  0  0  0
 19 17  1  0  0  0  0
 20 21  1  0  0  0  0
 21 19  1  0  0  0  0
 23 22  1  0  0  0  0
 24 23  1  0  0  0  0
 24 25  1  0  0  0  0
 26 25  1  0  0  0  0
 27 26  1  0  0  0  0
 28 27  1  0  0  0  0
 29 28  1  0  0  0  0
 30 28  2  0  0  0  0
 31 29  1  0  0  0  0
 32 31  1  0  0  0  0
M  END
>  <MODEL>
5

>  <REMARK>
 VINA RESULT:      -5.1      2.368      8.483
  Name = 
  22 active torsions:
  status: ('A' for Active; 'I' for Inactive)
    1  A    between atoms: C_1  and  N_20
    2  A    between atoms: C_2  and  C_12
    3  A    between atoms: C_2  and  O_23
    4  A    between atoms: N_4  and  C_5
    5  A    between atoms: N_4  and  C_15
    6  A    between atoms: O_6  and  N_31
    7  A    between atoms: C_8  and  O_23
    8  A    between atoms: C_8  and  C_28
    9  A    between atoms: C_9  and  N_10
   10  A    between atoms: C_9  and  C_12
   11  A    between atoms: N_11  and  C_18
   12  A    between atoms: N_11  and  C_32
   13  A    between atoms: C_13  and  C_28
   14  A    between atoms: C_13  and  N_31
   15  A    between atoms: N_14  and  C_21
   16  A    between atoms: N_14  and  C_26
   17  A    between atoms: N_14  and  C_28
   18  A    between atoms: C_15  and  C_26
   19  A    between atoms: C_16  and  O_27
   20  A    between atoms: C_16  and  N_31
   21  A    between atoms: C_18  and  C_22
   22  A    between atoms: O_27  and  C_32
                            x       y       z     vdW  Elec       q    Type
                         _______ _______ _______ _____ _____    ______ ____

>  <TORSDO>
F 22

$$$$
=
 OpenBabel11062410563D

 32 31  0  0  1  0  0  0  0  0999 V2000
  161.6340  208.2280  151.1630 C   0  0  2  0  0  3  0  0  0  0  0  0
  162.3100  208.7960  149.9830 N   0  0  0  0  0  0  0  0  0  0  0  0
  162.6070  207.4840  148.0700 O   0  0  0  0  0  1  0  0  0  0  0  0
  161.6930  208.2800  148.7610 C   0  0  0  0  0  2  0  0  0  0  0  0
  162.2100  210.2650  149.9660 C   0  0  0  0  0  2  0  0  0  0  0  0
  161.9660  210.8400  148.5680 C   0  0  0  0  0  2  0  0  0  0  0  0
  162.5060  212.1850  148.4910 N   0  0  0  0  0  2  0  0  0  0  0  0
  162.0890  212.7370  147.2130 C   0  0  0  0  0  2  0  0  0  0  0  0
  160.6390  212.3800  146.9590 C   0  0  0  0  0  1  0  0  0  0  0  0
  161.7180  209.1690  152.3740 C   0  0  0  0  0  2  0  0  0  0  0  0
  160.4120  209.3460  152.9940 N   0  0  0  0  0  0  0  0  0  0  0  0
  160.6190  209.4150  154.3330 O   0  0  0  0  0  0  0  0  0  0  0  0
  160.8160  208.0920  154.7350 C   0  0  0  0  0  1  0  0  0  0  0  0
  159.9260  210.6500  152.5730 C   0  0  0  0  0  2  0  0  0  0  0  0
  158.7190  210.9300  153.2120 O   0  0  0  0  0  0  0  0  0  0  0  0
  158.6810  212.3230  153.2960 C   0  0  0  0  0  2  0  0  0  0  0  0
  157.9750  212.7250  154.5060 N   0  0  0  0  0  0  0  0  0  0  0  0
  158.7680  212.3090  155.6540 C   0  0  0  0  0  1  0  0  0  0  0  0
  156.6450  212.0990  154.5650 C   0  0  0  0  0  2  0  0  0  0  0  0
  155.4030  212.4720  156.5890 O   0  0  0  0  0  1  0  0  0  0  0  0
  156.2590  211.5730  155.9520 C   0  0  0  0  0  2  0  0  0  0  0  0
  162.2170  206.8630  151.5330 C   0  0  0  0  0  2  0  0  0  0  0  0
  161.1950  206.0000  151.9290 O   0  0  0  0  0  0  0  0  0  0  0  0
  161.7730  204.7310  151.8940 C   0  0  0  0  0  2  0  0  0  0  0  0
  160.6900  203.6690  151.7850 C   0  0  0  0  0  2  0  0  0  0  0  0
  160.8290  202.8780  150.4940 C   0  0  0  0  0  2  0  0  0  0  0  0
  161.1230  203.7740  149.3880 N   0  0  0  0  0  2  0  0  0  0  0  0
  161.2580  203.3030  148.0480 C   0  0  0  0  0  0  0  0  0  0  0  0
  161.5400  204.2350  147.0040 N   0  0  0  0  0  2  0  0  0  0  0  0
  161.1260  202.0760  147.7870 O   0  0  0  0  0  0  0  0  0  0  0  0
  161.6860  203.8200  145.6190 C   0  0  0  0  0  2  0  0  0  0  0  0
  161.2760  204.9540  144.7060 C   0  0  0  0  0  1  0  0  0  0  0  0
  1 22  1  1  0  0  0
  1 10  1  0  0  0  0
  2  1  1  0  0  0  0
  3  4  1  0  0  0  0
  4  2  1  0  0  0  0
  5  2  1  0  0  0  0
  6  5  1  0  0  0  0
  7  6  1  0  0  0  0
  8  7  1  0  0  0  0
  9  8  1  0  0  0  0
 10 11  1  0  0  0  0
 11 12  1  0  0  0  0
 12 13  1  0  0  0  0
 14 11  1  0  0  0  0
 14 15  1  0  0  0  0
 15 16  1  0  0  0  0
 16 17  1  0  0  0  0
 17 19  1  0  0  0  0
 17 18  1  0  0  0  0
 19 21  1  0  0  0  0
 21 20  1  0  0  0  0
 22 23  1  0  0  0  0
 24 23  1  0  0  0  0
 25 24  1  0  0  0  0
 26 25  1  0  0  0  0
 27 26  1  0  0  0  0
 28 27  1  0  0  0  0
 29 28  1  0  0  0  0
 30 28  2  0  0  0  0
 31 29  1  0  0  0  0
 32 31  1  0  0  0  0
M  END
>  <MODEL>
6

>  <REMARK>
 VINA RESULT:      -5.1      2.612      7.091
  Name = 
  22 active torsions:
  status: ('A' for Active; 'I' for Inactive)
    1  A    between atoms: C_1  and  N_20
    2  A    between atoms: C_2  and  C_12
    3  A    between atoms: C_2  and  O_23
    4  A    between atoms: N_4  and  C_5
    5  A    between atoms: N_4  and  C_15
    6  A    between atoms: O_6  and  N_31
    7  A    between atoms: C_8  and  O_23
    8  A    between atoms: C_8  and  C_28
    9  A    between atoms: C_9  and  N_10
   10  A    between atoms: C_9  and  C_12
   11  A    between atoms: N_11  and  C_18
   12  A    between atoms: N_11  and  C_32
   13  A    between atoms: C_13  and  C_28
   14  A    between atoms: C_13  and  N_31
   15  A    between atoms: N_14  and  C_21
   16  A    between atoms: N_14  and  C_26
   17  A    between atoms: N_14  and  C_28
   18  A    between atoms: C_15  and  C_26
   19  A    between atoms: C_16  and  O_27
   20  A    between atoms: C_16  and  N_31
   21  A    between atoms: C_18  and  C_22
   22  A    between atoms: O_27  and  C_32
                            x       y       z     vdW  Elec       q    Type
                         _______ _______ _______ _____ _____    ______ ____

>  <TORSDO>
F 22

$$$$
=
 OpenBabel11062410563D

 32 31  0  0  1  0  0  0  0  0999 V2000
  161.5760  209.7750  153.0120 C   0  0  2  0  0  3  0  0  0  0  0  0
  161.5070  208.7080  154.0280 N   0  0  0  0  0  0  0  0  0  0  0  0
  161.5160  209.1410  156.3260 O   0  0  0  0  0  1  0  0  0  0  0  0
  160.7250  209.1660  155.1760 C   0  0  0  0  0  2  0  0  0  0  0  0
  160.8690  207.4970  153.4870 C   0  0  0  0  0  2  0  0  0  0  0  0
  161.7050  206.2300  153.6880 C   0  0  0  0  0  2  0  0  0  0  0  0
  160.9680  205.0750  153.2070 N   0  0  0  0  0  2  0  0  0  0  0  0
  161.5000  204.7480  151.8960 C   0  0  0  0  0  2  0  0  0  0  0  0
  161.4530  203.2480  151.6930 C   0  0  0  0  0  1  0  0  0  0  0  0
  160.7670  211.0120  153.4320 C   0  0  0  0  0  2  0  0  0  0  0  0
  159.7480  211.3340  152.4420 N   0  0  0  0  0  0  0  0  0  0  0  0
  158.5460  211.1620  153.0480 O   0  0  0  0  0  0  0  0  0  0  0  0
  158.5700  212.0230  154.1460 C   0  0  0  0  0  1  0  0  0  0  0  0
  159.8800  212.7530  152.1580 C   0  0  0  0  0  2  0  0  0  0  0  0
  159.1940  213.0620  150.9840 O   0  0  0  0  0  0  0  0  0  0  0  0
  160.1190  213.7650  150.2110 C   0  0  0  0  0  2  0  0  0  0  0  0
  159.5860  213.9730  148.8700 N   0  0  0  0  0  0  0  0  0  0  0  0
  158.1810  213.5910  148.8770 C   0  0  0  0  0  1  0  0  0  0  0  0
  160.3190  213.1610  147.8870 C   0  0  0  0  0  2  0  0  0  0  0  0
  162.1620  211.6700  148.2840 O   0  0  0  0  0  1  0  0  0  0  0  0
  161.8160  213.0180  148.1820 C   0  0  0  0  0  2  0  0  0  0  0  0
  161.0840  209.2780  151.6520 C   0  0  0  0  0  2  0  0  0  0  0  0
  162.1290  209.3070  150.7280 O   0  0  0  0  0  0  0  0  0  0  0  0
  162.0950  208.0520  150.1200 C   0  0  0  0  0  2  0  0  0  0  0  0
  161.6940  208.1920  148.6600 C   0  0  0  0  0  2  0  0  0  0  0  0
  162.1280  206.9780  147.8550 C   0  0  0  0  0  2  0  0  0  0  0  0
  161.5000  205.7780  148.3850 N   0  0  0  0  0  2  0  0  0  0  0  0
  161.5770  204.5230  147.7100 C   0  0  0  0  0  0  0  0  0  0  0  0
  160.9450  203.3800  148.2850 N   0  0  0  0  0  2  0  0  0  0  0  0
  162.2010  204.4240  146.6180 O   0  0  0  0  0  0  0  0  0  0  0  0
  160.9900  202.0740  147.6500 C   0  0  0  0  0  2  0  0  0  0  0  0
  161.2060  201.0080  148.7020 C   0  0  0  0  0  1  0  0  0  0  0  0
  1 22  1  6  0  0  0
  1 10  1  0  0  0  0
  1  2  1  0  0  0  0
  2  4  1  0  0  0  0
  4  3  1  0  0  0  0
  5  6  1  0  0  0  0
  5  2  1  0  0  0  0
  7  6  1  0  0  0  0
  8  7  1  0  0  0  0
  9  8  1  0  0  0  0
 11 12  1  0  0  0  0
 11 10  1  0  0  0  0
 12 13  1  0  0  0  0
 14 11  1  0  0  0  0
 15 14  1  0  0  0  0
 16 15  1  0  0  0  0
 17 18  1  0  0  0  0
 17 16  1  0  0  0  0
 19 21  1  0  0  0  0
 19 17  1  0  0  0  0
 21 20  1  0  0  0  0
 23 22  1  0  0  0  0
 24 23  1  0  0  0  0
 25 24  1  0  0  0  0
 26 27  1  0  0  0  0
 26 25  1  0  0  0  0
 28 29  1  0  0  0  0
 28 27  1  0  0  0  0
 30 28  2  0  0  0  0
 31 29  1  0  0  0  0
 31 32  1  0  0  0  0
M  END
>  <MODEL>
7

>  <REMARK>
 VINA RESULT:      -5.1      2.246      7.648
  Name = 
  22 active torsions:
  status: ('A' for Active; 'I' for Inactive)
    1  A    between atoms: C_1  and  N_20
    2  A    between atoms: C_2  and  C_12
    3  A    between atoms: C_2  and  O_23
    4  A    between atoms: N_4  and  C_5
    5  A    between atoms: N_4  and  C_15
    6  A    between atoms: O_6  and  N_31
    7  A    between atoms: C_8  and  O_23
    8  A    between atoms: C_8  and  C_28
    9  A    between atoms: C_9  and  N_10
   10  A    between atoms: C_9  and  C_12
   11  A    between atoms: N_11  and  C_18
   12  A    between atoms: N_11  and  C_32
   13  A    between atoms: C_13  and  C_28
   14  A    between atoms: C_13  and  N_31
   15  A    between atoms: N_14  and  C_21
   16  A    between atoms: N_14  and  C_26
   17  A    between atoms: N_14  and  C_28
   18  A    between atoms: C_15  and  C_26
   19  A    between atoms: C_16  and  O_27
   20  A    between atoms: C_16  and  N_31
   21  A    between atoms: C_18  and  C_22
   22  A    between atoms: O_27  and  C_32
                            x       y       z     vdW  Elec       q    Type
                         _______ _______ _______ _____ _____    ______ ____

>  <TORSDO>
F 22

$$$$
=
 OpenBabel11062410563D

 32 31  0  0  1  0  0  0  0  0999 V2000
  161.8600  206.8050  150.9840 C   0  0  2  0  0  3  0  0  0  0  0  0
  162.2850  207.7280  149.9150 N   0  0  0  0  0  0  0  0  0  0  0  0
  162.4430  207.0430  147.6850 O   0  0  0  0  0  1  0  0  0  0  0  0
  161.5510  207.4330  148.6850 C   0  0  0  0  0  2  0  0  0  0  0  0
  162.0230  209.1290  150.2850 C   0  0  0  0  0  2  0  0  0  0  0  0
  161.9560  210.0710  149.0800 C   0  0  0  0  0  2  0  0  0  0  0  0
  162.0140  211.4500  149.5320 N   0  0  0  0  0  2  0  0  0  0  0  0
  161.7240  212.2860  148.3810 C   0  0  0  0  0  2  0  0  0  0  0  0
  160.8200  213.4260  148.8000 C   0  0  0  0  0  1  0  0  0  0  0  0
  160.9070  205.7240  150.4550 C   0  0  0  0  0  2  0  0  0  0  0  0
  161.6130  204.4720  150.2160 N   0  0  0  0  0  0  0  0  0  0  0  0
  161.7510  203.8640  151.4210 O   0  0  0  0  0  0  0  0  0  0  0  0
  160.5210  203.2460  151.6550 C   0  0  0  0  0  1  0  0  0  0  0  0
  160.7250  203.6400  149.4210 C   0  0  0  0  0  2  0  0  0  0  0  0
  161.4760  202.8430  148.5580 O   0  0  0  0  0  0  0  0  0  0  0  0
  162.0180  203.7380  147.6340 C   0  0  0  0  0  2  0  0  0  0  0  0
  161.2270  203.7210  146.4100 N   0  0  0  0  0  0  0  0  0  0  0  0
  160.9210  202.3350  146.0860 C   0  0  0  0  0  1  0  0  0  0  0  0
  161.9710  204.3400  145.3010 C   0  0  0  0  0  2  0  0  0  0  0  0
  161.2030  205.5570  143.3760 O   0  0  0  0  0  1  0  0  0  0  0  0
  161.3400  205.6290  144.7630 C   0  0  0  0  0  2  0  0  0  0  0  0
  161.1910  207.5600  152.1350 C   0  0  0  0  0  2  0  0  0  0  0  0
  160.8030  206.6630  153.1310 O   0  0  0  0  0  0  0  0  0  0  0  0
  161.5500  207.0330  154.2490 C   0  0  0  0  0  2  0  0  0  0  0  0
  160.6350  207.6190  155.3140 C   0  0  0  0  0  2  0  0  0  0  0  0
  161.0400  209.0430  155.6580 C   0  0  0  0  0  2  0  0  0  0  0  0
  160.0890  209.9840  155.0870 N   0  0  0  0  0  2  0  0  0  0  0  0
  160.4220  210.8170  153.9780 C   0  0  0  0  0  0  0  0  0  0  0  0
  159.4420  211.7160  153.4590 N   0  0  0  0  0  2  0  0  0  0  0  0
  161.5700  210.7570  153.4580 O   0  0  0  0  0  0  0  0  0  0  0  0
  159.7180  212.5880  152.3300 C   0  0  0  0  0  2  0  0  0  0  0  0
  158.4200  213.1700  151.8130 C   0  0  0  0  0  1  0  0  0  0  0  0
  1 10  1  6  0  0  0
  1 22  1  0  0  0  0
  2  5  1  0  0  0  0
  2  1  1  0  0  0  0
  3  4  1  0  0  0  0
  4  2  1  0  0  0  0
  6  7  1  0  0  0  0
  6  5  1  0  0  0  0
  8  9  1  0  0  0  0
  8  7  1  0  0  0  0
 11 10  1  0  0  0  0
 11 12  1  0  0  0  0
 12 13  1  0  0  0  0
 14 11  1  0  0  0  0
 15 14  1  0  0  0  0
 16 15  1  0  0  0  0
 17 16  1  0  0  0  0
 18 17  1  0  0  0  0
 19 17  1  0  0  0  0
 20 21  1  0  0  0  0
 21 19  1  0  0  0  0
 22 23  1  0  0  0  0
 23 24  1  0  0  0  0
 24 25  1  0  0  0  0
 25 26  1  0  0  0  0
 27 26  1  0  0  0  0
 28 27  1  0  0  0  0
 29 28  1  0  0  0  0
 30 28  2  0  0  0  0
 31 29  1  0  0  0  0
 32 31  1  0  0  0  0
M  END
>  <MODEL>
8

>  <REMARK>
 VINA RESULT:      -4.9      2.401      7.309
  Name = 
  22 active torsions:
  status: ('A' for Active; 'I' for Inactive)
    1  A    between atoms: C_1  and  N_20
    2  A    between atoms: C_2  and  C_12
    3  A    between atoms: C_2  and  O_23
    4  A    between atoms: N_4  and  C_5
    5  A    between atoms: N_4  and  C_15
    6  A    between atoms: O_6  and  N_31
    7  A    between atoms: C_8  and  O_23
    8  A    between atoms: C_8  and  C_28
    9  A    between atoms: C_9  and  N_10
   10  A    between atoms: C_9  and  C_12
   11  A    between atoms: N_11  and  C_18
   12  A    between atoms: N_11  and  C_32
   13  A    between atoms: C_13  and  C_28
   14  A    between atoms: C_13  and  N_31
   15  A    between atoms: N_14  and  C_21
   16  A    between atoms: N_14  and  C_26
   17  A    between atoms: N_14  and  C_28
   18  A    between atoms: C_15  and  C_26
   19  A    between atoms: C_16  and  O_27
   20  A    between atoms: C_16  and  N_31
   21  A    between atoms: C_18  and  C_22
   22  A    between atoms: O_27  and  C_32
                            x       y       z     vdW  Elec       q    Type
                         _______ _______ _______ _____ _____    ______ ____

>  <TORSDO>
F 22

$$$$
=
 OpenBabel11062410563D

 32 31  0  0  1  0  0  0  0  0999 V2000
  161.3600  207.3870  151.3770 C   0  0  2  0  0  3  0  0  0  0  0  0
  160.8310  207.9490  152.6340 N   0  0  0  0  0  0  0  0  0  0  0  0
  160.3440  206.7840  154.6020 O   0  0  0  0  0  1  0  0  0  0  0  0
  161.3810  207.2160  153.7740 C   0  0  0  0  0  2  0  0  0  0  0  0
  161.1960  209.3690  152.7780 C   0  0  0  0  0  2  0  0  0  0  0  0
  159.9980  210.2720  153.0860 C   0  0  0  0  0  2  0  0  0  0  0  0
  160.4670  211.5950  153.4590 N   0  0  0  0  0  2  0  0  0  0  0  0
  159.4580  212.1720  154.3300 C   0  0  0  0  0  2  0  0  0  0  0  0
  160.0770  212.5000  155.6720 C   0  0  0  0  0  1  0  0  0  0  0  0
  162.2950  206.1960  151.6360 C   0  0  0  0  0  2  0  0  0  0  0  0
  162.0050  205.0940  150.7280 N   0  0  0  0  0  0  0  0  0  0  0  0
  161.9520  203.9690  151.4830 O   0  0  0  0  0  0  0  0  0  0  0  0
  160.6720  203.9700  152.0410 C   0  0  0  0  0  1  0  0  0  0  0  0
  160.6660  205.3230  150.2130 C   0  0  0  0  0  2  0  0  0  0  0  0
  160.7180  205.4930  148.8290 O   0  0  0  0  0  0  0  0  0  0  0  0
  161.2020  204.2780  148.3440 C   0  0  0  0  0  2  0  0  0  0  0  0
  162.0510  204.5130  147.1830 N   0  0  0  0  0  0  0  0  0  0  0  0
  162.4750  205.9060  147.2060 C   0  0  0  0  0  1  0  0  0  0  0  0
  161.3190  204.2350  145.9370 C   0  0  0  0  0  2  0  0  0  0  0  0
  159.9770  206.1100  145.2590 O   0  0  0  0  0  1  0  0  0  0  0  0
  161.1790  205.4460  145.0080 C   0  0  0  0  0  2  0  0  0  0  0  0
  162.0960  208.4500  150.5600 C   0  0  0  0  0  2  0  0  0  0  0  0
  161.5890  208.4890  149.2610 O   0  0  0  0  0  0  0  0  0  0  0  0
  162.2460  209.5620  148.6590 C   0  0  0  0  0  2  0  0  0  0  0  0
  161.9750  210.8400  149.4390 C   0  0  0  0  0  2  0  0  0  0  0  0
  162.2250  212.0680  148.5780 C   0  0  0  0  0  2  0  0  0  0  0  0
  161.4360  211.9920  147.3590 N   0  0  0  0  0  2  0  0  0  0  0  0
  160.2090  212.7050  147.2060 C   0  0  0  0  0  0  0  0  0  0  0  0
  159.4840  212.5940  145.9820 N   0  0  0  0  0  2  0  0  0  0  0  0
  159.7720  213.4280  148.1430 O   0  0  0  0  0  0  0  0  0  0  0  0
  158.2310  213.2960  145.7620 C   0  0  0  0  0  2  0  0  0  0  0  0
  157.0800  212.4360  146.2380 C   0  0  0  0  0  1  0  0  0  0  0  0
  1 22  1  1  0  0  0
  1 10  1  0  0  0  0
  1  2  1  0  0  0  0
  2  5  1  0  0  0  0
  2  4  1  0  0  0  0
  4  3  1  0  0  0  0
  5  6  1  0  0  0  0
  6  7  1  0  0  0  0
  7  8  1  0  0  0  0
  8  9  1  0  0  0  0
 11 12  1  0  0  0  0
 11 10  1  0  0  0  0
 12 13  1  0  0  0  0
 14 11  1  0  0  0  0
 15 14  1  0  0  0  0
 16 15  1  0  0  0  0
 17 18  1  0  0  0  0
 17 16  1  0  0  0  0
 19 17  1  0  0  0  0
 21 20  1  0  0  0  0
 21 19  1  0  0  0  0
 23 22  1  0  0  0  0
 24 23  1  0  0  0  0
 24 25  1  0  0  0  0
 26 25  1  0  0  0  0
 27 26  1  0  0  0  0
 28 27  1  0  0  0  0
 28 30  2  0  0  0  0
 29 28  1  0  0  0  0
 31 29  1  0  0  0  0
 31 32  1  0  0  0  0
M  END
>  <MODEL>
9

>  <REMARK>
 VINA RESULT:      -4.9      1.871      6.570
  Name = 
  22 active torsions:
  status: ('A' for Active; 'I' for Inactive)
    1  A    between atoms: C_1  and  N_20
    2  A    between atoms: C_2  and  C_12
    3  A    between atoms: C_2  and  O_23
    4  A    between atoms: N_4  and  C_5
    5  A    between atoms: N_4  and  C_15
    6  A    between atoms: O_6  and  N_31
    7  A    between atoms: C_8  and  O_23
    8  A    between atoms: C_8  and  C_28
    9  A    between atoms: C_9  and  N_10
   10  A    between atoms: C_9  and  C_12
   11  A    between atoms: N_11  and  C_18
   12  A    between atoms: N_11  and  C_32
   13  A    between atoms: C_13  and  C_28
   14  A    between atoms: C_13  and  N_31
   15  A    between atoms: N_14  and  C_21
   16  A    between atoms: N_14  and  C_26
   17  A    between atoms: N_14  and  C_28
   18  A    between atoms: C_15  and  C_26
   19  A    between atoms: C_16  and  O_27
   20  A    between atoms: C_16  and  N_31
   21  A    between atoms: C_18  and  C_22
   22  A    between atoms: O_27  and  C_32
                            x       y       z     vdW  Elec       q    Type
                         _______ _______ _______ _____ _____    ______ ____

>  <TORSDO>
F 22

$$$$
