=
 OpenBabel11052423143D

 27 31  0  0  1  0  0  0  0  0999 V2000
  160.6880  210.8300  151.3670 N   0  0  0  0  0  2  0  0  0  0  0  0
  161.6000  209.0030  150.0690 C   0  0  0  0  0  0  0  0  0  0  0  0
  161.6730  208.1410  152.4240 N   0  0  0  0  0  0  0  0  0  0  0  0
  161.1930  205.0890  148.6830 N   0  0  0  0  0  2  0  0  0  0  0  0
  161.0620  202.8600  149.0760 O   0  0  0  0  0  0  0  0  0  0  0  0
  161.4710  208.7280  148.6960 C   0  0  0  0  0  3  0  0  0  0  0  0
  161.4260  205.5260  151.4020 C   0  0  0  0  0  3  0  0  0  0  0  0
  160.6610  209.6740  155.4250 C   0  0  0  0  0  0  0  0  0  0  0  0
  161.2960  204.2270  150.9080 C   0  0  0  0  0  3  0  0  0  0  0  0
  160.8540  209.5110  156.8250 N   0  0  0  0  0  1  0  0  0  0  0  0
  161.4410  206.6170  150.5220 C   0  0  0  0  0  0  0  0  0  0  0  0
  161.8090  210.4130  150.5480 C   0  0  1  0  0  3  0  0  0  0  0  0
  161.1790  204.0260  149.5320 C   0  0  0  0  0  0  0  0  0  0  0  0
  161.3190  206.3650  149.1370 C   0  0  0  0  0  0  0  0  0  0  0  0
  160.4670  210.2790  152.6620 C   0  0  0  0  0  0  0  0  0  0  0  0
  161.5560  207.9390  151.0000 C   0  0  0  0  0  0  0  0  0  0  0  0
  161.3950  208.9960  154.5940 N   0  0  0  0  0  0  0  0  0  0  0  0
  161.3280  207.4230  148.2340 C   0  0  0  0  0  3  0  0  0  0  0  0
  159.4990  210.4980  154.9340 C   0  0  0  0  0  2  0  0  0  0  0  0
  159.6980  210.9550  153.5160 C   0  0  0  0  0  3  0  0  0  0  0  0
  161.2360  209.1150  153.1740 C   0  0  0  0  0  0  0  0  0  0  0  0
  162.5860  213.3480  147.4980 C   0  0  0  0  0  3  0  0  0  0  0  0
  162.0860  211.4200  149.4680 C   0  0  0  0  0  0  0  0  0  0  0  0
  161.1940  212.4830  149.2800 C   0  0  0  0  0  3  0  0  0  0  0  0
  161.4420  213.4430  148.2960 C   0  0  0  0  0  3  0  0  0  0  0  0
  163.4830  212.2940  147.6840 C   0  0  0  0  0  3  0  0  0  0  0  0
  163.2370  211.3330  148.6680 C   0  0  0  0  0  3  0  0  0  0  0  0
  1 15  1  0  0  0  0
  2 12  1  0  0  0  0
  2 16  1  0  0  0  0
  3 21  2  0  0  0  0
  4 14  1  0  0  0  0
  4 13  1  0  0  0  0
  5 13  2  0  0  0  0
  6  2  2  0  0  0  0
  8 10  1  0  0  0  0
  9  7  2  0  0  0  0
 11 16  2  0  0  0  0
 11  7  1  0  0  0  0
 12 23  1  6  0  0  0
 12  1  1  0  0  0  0
 13  9  1  0  0  0  0
 14 11  1  0  0  0  0
 15 21  1  0  0  0  0
 15 20  2  0  0  0  0
 16  3  1  0  0  0  0
 17  8  2  0  0  0  0
 18  6  1  0  0  0  0
 18 14  2  0  0  0  0
 19  8  1  0  0  0  0
 20 19  1  0  0  0  0
 21 17  1  0  0  0  0
 22 26  2  0  0  0  0
 22 25  1  0  0  0  0
 24 23  1  0  0  0  0
 25 24  2  0  0  0  0
 26 27  1  0  0  0  0
 27 23  2  0  0  0  0
M  END
>  <MODEL>
1

>  <REMARK>
 VINA RESULT:      -7.5      0.000      0.000
  Name = 
  1 active torsions:
  status: ('A' for Active; 'I' for Inactive)
    1  A    between atoms: C_9  and  C_15
                            x       y       z     vdW  Elec       q    Type
                         _______ _______ _______ _____ _____    ______ ____

>  <TORSDO>
F 1

$$$$
=
 OpenBabel11052423143D

 27 31  0  0  1  0  0  0  0  0999 V2000
  160.8930  211.4170  150.8930 N   0  0  0  0  0  2  0  0  0  0  0  0
  161.7330  209.3540  149.9470 C   0  0  0  0  0  0  0  0  0  0  0  0
  161.9640  209.0020  152.4210 N   0  0  0  0  0  0  0  0  0  0  0  0
  161.2660  205.2390  149.4370 N   0  0  0  0  0  2  0  0  0  0  0  0
  161.1770  203.1420  150.2930 O   0  0  0  0  0  0  0  0  0  0  0  0
  161.5180  208.8000  148.6730 C   0  0  0  0  0  3  0  0  0  0  0  0
  161.6700  206.2330  151.9840 C   0  0  0  0  0  3  0  0  0  0  0  0
  161.1350  211.1330  155.0950 C   0  0  0  0  0  0  0  0  0  0  0  0
  161.5190  204.8600  151.7820 C   0  0  0  0  0  3  0  0  0  0  0  0
  161.4190  211.2640  156.4830 N   0  0  0  0  0  1  0  0  0  0  0  0
  161.6200  207.1160  150.8970 C   0  0  0  0  0  0  0  0  0  0  0  0
  161.9620  210.8320  150.1080 C   0  0  1  0  0  3  0  0  0  0  0  0
  161.3150  204.3770  150.4880 C   0  0  0  0  0  0  0  0  0  0  0  0
  161.4120  206.5820  149.6060 C   0  0  0  0  0  0  0  0  0  0  0  0
  160.7590  211.1490  152.2850 C   0  0  0  0  0  0  0  0  0  0  0  0
  161.7570  208.5080  151.0810 C   0  0  0  0  0  0  0  0  0  0  0  0
  161.8190  210.2920  154.3780 N   0  0  0  0  0  0  0  0  0  0  0  0
  161.3550  207.4280  148.5030 C   0  0  0  0  0  3  0  0  0  0  0  0
  159.9380  211.8440  154.5190 C   0  0  0  0  0  2  0  0  0  0  0  0
  160.0420  211.9940  153.0270 C   0  0  0  0  0  3  0  0  0  0  0  0
  161.5680  210.1130  152.9780 C   0  0  0  0  0  0  0  0  0  0  0  0
  162.4900  213.0500  146.4580 C   0  0  0  0  0  3  0  0  0  0  0  0
  162.1620  211.5900  148.8260 C   0  0  0  0  0  0  0  0  0  0  0  0
  161.0480  212.1230  148.1670 C   0  0  0  0  0  3  0  0  0  0  0  0
  161.2110  212.8490  146.9840 C   0  0  0  0  0  3  0  0  0  0  0  0
  163.6070  212.5260  147.1140 C   0  0  0  0  0  3  0  0  0  0  0  0
  163.4450  211.8000  148.2960 C   0  0  0  0  0  3  0  0  0  0  0  0
  1 15  1  0  0  0  0
  2 12  1  0  0  0  0
  2 16  1  0  0  0  0
  3 21  2  0  0  0  0
  4 14  1  0  0  0  0
  4 13  1  0  0  0  0
  5 13  2  0  0  0  0
  6  2  2  0  0  0  0
  8 10  1  0  0  0  0
  9  7  2  0  0  0  0
 11 16  2  0  0  0  0
 11  7  1  0  0  0  0
 12 23  1  6  0  0  0
 12  1  1  0  0  0  0
 13  9  1  0  0  0  0
 14 11  1  0  0  0  0
 15 21  1  0  0  0  0
 15 20  2  0  0  0  0
 16  3  1  0  0  0  0
 17  8  2  0  0  0  0
 18  6  1  0  0  0  0
 18 14  2  0  0  0  0
 19  8  1  0  0  0  0
 20 19  1  0  0  0  0
 21 17  1  0  0  0  0
 22 25  2  0  0  0  0
 22 26  1  0  0  0  0
 24 23  2  0  0  0  0
 25 24  1  0  0  0  0
 26 27  2  0  0  0  0
 27 23  1  0  0  0  0
M  END
>  <MODEL>
2

>  <REMARK>
 VINA RESULT:      -7.4      0.991      1.019
  Name = 
  1 active torsions:
  status: ('A' for Active; 'I' for Inactive)
    1  A    between atoms: C_9  and  C_15
                            x       y       z     vdW  Elec       q    Type
                         _______ _______ _______ _____ _____    ______ ____

>  <TORSDO>
F 1

$$$$
=
 OpenBabel11052423143D

 27 31  0  0  1  0  0  0  0  0999 V2000
  161.5130  206.7330  153.2570 N   0  0  0  0  0  2  0  0  0  0  0  0
  161.3260  207.6530  151.0270 C   0  0  0  0  0  0  0  0  0  0  0  0
  160.4230  209.4800  152.4920 N   0  0  0  0  0  0  0  0  0  0  0  0
  162.5580  210.5240  148.2610 N   0  0  0  0  0  2  0  0  0  0  0  0
  162.7110  212.6860  147.5960 O   0  0  0  0  0  0  0  0  0  0  0  0
  161.9950  207.2850  149.8470 C   0  0  0  0  0  3  0  0  0  0  0  0
  161.2610  211.3510  150.5570 C   0  0  0  0  0  3  0  0  0  0  0  0
  160.0720  209.6070  155.9910 C   0  0  0  0  0  0  0  0  0  0  0  0
  161.6780  212.2880  149.6100 C   0  0  0  0  0  3  0  0  0  0  0  0
  159.3690  210.3670  156.9660 N   0  0  0  0  0  1  0  0  0  0  0  0
  161.4960  209.9840  150.3490 C   0  0  0  0  0  0  0  0  0  0  0  0
  160.8330  206.6030  151.9840 C   0  0  1  0  0  3  0  0  0  0  0  0
  162.3310  211.8510  148.4570 C   0  0  0  0  0  0  0  0  0  0  0  0
  162.1610  209.5900  149.1670 C   0  0  0  0  0  0  0  0  0  0  0  0
  161.2640  207.8350  154.1250 C   0  0  0  0  0  0  0  0  0  0  0  0
  161.0960  209.0220  151.3000 C   0  0  0  0  0  0  0  0  0  0  0  0
  159.7730  209.7440  154.7330 N   0  0  0  0  0  0  0  0  0  0  0  0
  162.4130  208.2430  148.9270 C   0  0  0  0  0  3  0  0  0  0  0  0
  161.2610  208.7840  156.4160 C   0  0  0  0  0  2  0  0  0  0  0  0
  161.5860  207.7120  155.4140 C   0  0  0  0  0  3  0  0  0  0  0  0
  160.4560  209.0100  153.7080 C   0  0  0  0  0  0  0  0  0  0  0  0
  161.0170  202.5360  150.5880 C   0  0  0  0  0  3  0  0  0  0  0  0
  160.9100  205.1910  151.4780 C   0  0  0  0  0  0  0  0  0  0  0  0
  161.1500  204.1530  152.3850 C   0  0  0  0  0  3  0  0  0  0  0  0
  161.2060  202.8290  151.9410 C   0  0  0  0  0  3  0  0  0  0  0  0
  160.7700  203.5680  149.6770 C   0  0  0  0  0  3  0  0  0  0  0  0
  160.7140  204.8920  150.1200 C   0  0  0  0  0  3  0  0  0  0  0  0
  1 15  1  0  0  0  0
  2 16  1  0  0  0  0
  2 12  1  0  0  0  0
  3 21  2  0  0  0  0
  4 13  1  0  0  0  0
  4 14  1  0  0  0  0
  5 13  2  0  0  0  0
  6  2  2  0  0  0  0
  8 19  1  0  0  0  0
  8 10  1  0  0  0  0
  9  7  2  0  0  0  0
 11  7  1  0  0  0  0
 11 16  2  0  0  0  0
 12 23  1  6  0  0  0
 12  1  1  0  0  0  0
 13  9  1  0  0  0  0
 14 11  1  0  0  0  0
 15 20  2  0  0  0  0
 16  3  1  0  0  0  0
 17  8  2  0  0  0  0
 18 14  2  0  0  0  0
 18  6  1  0  0  0  0
 20 19  1  0  0  0  0
 21 15  1  0  0  0  0
 21 17  1  0  0  0  0
 22 25  1  0  0  0  0
 23 24  1  0  0  0  0
 25 24  2  0  0  0  0
 26 27  1  0  0  0  0
 26 22  2  0  0  0  0
 27 23  2  0  0  0  0
M  END
>  <MODEL>
3

>  <REMARK>
 VINA RESULT:      -7.3      2.504      5.872
  Name = 
  1 active torsions:
  status: ('A' for Active; 'I' for Inactive)
    1  A    between atoms: C_9  and  C_15
                            x       y       z     vdW  Elec       q    Type
                         _______ _______ _______ _____ _____    ______ ____

>  <TORSDO>
F 1

$$$$
=
 OpenBabel11052423143D

 27 31  0  0  1  0  0  0  0  0999 V2000
  161.5720  208.8600  153.4170 N   0  0  0  0  0  2  0  0  0  0  0  0
  161.3020  209.4030  151.0750 C   0  0  0  0  0  0  0  0  0  0  0  0
  160.3720  211.4140  152.2540 N   0  0  0  0  0  0  0  0  0  0  0  0
  162.3710  211.8280  147.8520 N   0  0  0  0  0  2  0  0  0  0  0  0
  162.4350  213.8590  146.8460 O   0  0  0  0  0  0  0  0  0  0  0  0
  161.9560  208.8710  149.9500 C   0  0  0  0  0  3  0  0  0  0  0  0
  161.1000  212.9740  150.0220 C   0  0  0  0  0  3  0  0  0  0  0  0
  160.0970  212.0900  155.6960 C   0  0  0  0  0  0  0  0  0  0  0  0
  161.4630  213.7590  148.9260 C   0  0  0  0  0  3  0  0  0  0  0  0
  159.3920  212.9760  156.5570 N   0  0  0  0  0  1  0  0  0  0  0  0
  161.3760  211.6000  150.0290 C   0  0  0  0  0  0  0  0  0  0  0  0
  160.8670  208.5070  152.2010 C   0  0  1  0  0  3  0  0  0  0  0  0
  162.1040  213.1620  147.8400 C   0  0  0  0  0  0  0  0  0  0  0  0
  162.0280  211.0400  148.9070 C   0  0  0  0  0  0  0  0  0  0  0  0
  161.3050  210.0780  154.1050 C   0  0  0  0  0  0  0  0  0  0  0  0
  161.0320  210.7910  151.1320 C   0  0  0  0  0  0  0  0  0  0  0  0
  159.7650  212.0150  154.4420 N   0  0  0  0  0  0  0  0  0  0  0  0
  162.3190  209.6800  148.8780 C   0  0  0  0  0  3  0  0  0  0  0  0
  161.3230  211.3830  156.2130 C   0  0  0  0  0  2  0  0  0  0  0  0
  161.6610  210.1740  155.3870 C   0  0  0  0  0  3  0  0  0  0  0  0
  160.4480  211.1470  153.5280 C   0  0  0  0  0  0  0  0  0  0  0  0
  161.1540  204.2760  151.4650 C   0  0  0  0  0  3  0  0  0  0  0  0
  160.9810  207.0340  151.9250 C   0  0  0  0  0  0  0  0  0  0  0  0
  161.2080  206.1560  152.9910 C   0  0  0  0  0  3  0  0  0  0  0  0
  161.2970  204.7800  152.7610 C   0  0  0  0  0  3  0  0  0  0  0  0
  160.9210  205.1470  150.3980 C   0  0  0  0  0  3  0  0  0  0  0  0
  160.8320  206.5230  150.6260 C   0  0  0  0  0  3  0  0  0  0  0  0
  1 15  1  0  0  0  0
  2 16  1  0  0  0  0
  2 12  1  0  0  0  0
  3 21  2  0  0  0  0
  4 14  1  0  0  0  0
  5 13  2  0  0  0  0
  6  2  2  0  0  0  0
  7 11  1  0  0  0  0
  8 19  1  0  0  0  0
  8 10  1  0  0  0  0
  9  7  2  0  0  0  0
 11 16  2  0  0  0  0
 12 23  1  6  0  0  0
 12  1  1  0  0  0  0
 13  4  1  0  0  0  0
 13  9  1  0  0  0  0
 14 11  1  0  0  0  0
 15 20  2  0  0  0  0
 16  3  1  0  0  0  0
 17  8  2  0  0  0  0
 18 14  2  0  0  0  0
 18  6  1  0  0  0  0
 20 19  1  0  0  0  0
 21 15  1  0  0  0  0
 21 17  1  0  0  0  0
 22 25  1  0  0  0  0
 23 24  1  0  0  0  0
 25 24  2  0  0  0  0
 26 27  1  0  0  0  0
 26 22  2  0  0  0  0
 27 23  2  0  0  0  0
M  END
>  <MODEL>
4

>  <REMARK>
 VINA RESULT:      -6.7      2.808      5.887
  Name = 
  1 active torsions:
  status: ('A' for Active; 'I' for Inactive)
    1  A    between atoms: C_9  and  C_15
                            x       y       z     vdW  Elec       q    Type
                         _______ _______ _______ _____ _____    ______ ____

>  <TORSDO>
F 1

$$$$
=
 OpenBabel11052423143D

 27 31  0  0  1  0  0  0  0  0999 V2000
  162.5510  208.6010  148.2580 N   0  0  0  0  0  2  0  0  0  0  0  0
  161.6240  209.3140  150.3770 C   0  0  0  0  0  0  0  0  0  0  0  0
  160.8610  206.9320  150.1750 N   0  0  0  0  0  0  0  0  0  0  0  0
  161.5810  208.9410  154.5330 N   0  0  0  0  0  2  0  0  0  0  0  0
  161.1950  207.7150  156.4000 O   0  0  0  0  0  0  0  0  0  0  0  0
  162.0030  210.3840  151.2070 C   0  0  0  0  0  3  0  0  0  0  0  0
  160.8310  206.7750  152.9890 C   0  0  0  0  0  3  0  0  0  0  0  0
  161.4460  204.5790  147.6250 C   0  0  0  0  0  0  0  0  0  0  0  0
  160.8190  206.6820  154.3820 C   0  0  0  0  0  3  0  0  0  0  0  0
  160.9160  203.3380  147.1760 N   0  0  0  0  0  1  0  0  0  0  0  0
  161.2220  207.9670  152.3640 C   0  0  0  0  0  0  0  0  0  0  0  0
  161.5840  209.4830  148.8830 C   0  0  1  0  0  3  0  0  0  0  0  0
  161.2010  207.7870  155.1440 C   0  0  0  0  0  0  0  0  0  0  0  0
  161.6010  209.0580  153.1770 C   0  0  0  0  0  0  0  0  0  0  0  0
  162.3670  207.1890  148.2390 C   0  0  0  0  0  0  0  0  0  0  0  0
  161.2550  208.0780  150.9590 C   0  0  0  0  0  0  0  0  0  0  0  0
  160.8020  205.2630  148.5230 N   0  0  0  0  0  0  0  0  0  0  0  0
  161.9960  210.2580  152.5930 C   0  0  0  0  0  3  0  0  0  0  0  0
  162.8230  204.9950  147.1780 C   0  0  0  0  0  2  0  0  0  0  0  0
  163.0380  206.4750  147.3350 C   0  0  0  0  0  3  0  0  0  0  0  0
  161.2950  206.5150  149.0180 C   0  0  0  0  0  0  0  0  0  0  0  0
  162.1220  213.5060  147.4510 C   0  0  0  0  0  3  0  0  0  0  0  0
  161.7530  210.8940  148.3960 C   0  0  0  0  0  0  0  0  0  0  0  0
  163.0350  211.4530  148.3550 C   0  0  0  0  0  3  0  0  0  0  0  0
  163.2200  212.7570  147.8860 C   0  0  0  0  0  3  0  0  0  0  0  0
  160.8400  212.9510  147.4840 C   0  0  0  0  0  3  0  0  0  0  0  0
  160.6540  211.6480  147.9530 C   0  0  0  0  0  3  0  0  0  0  0  0
  1 12  1  0  0  0  0
  2 16  2  0  0  0  0
  2  6  1  0  0  0  0
  3 16  1  0  0  0  0
  4 13  1  0  0  0  0
  6 18  2  0  0  0  0
  7  9  2  0  0  0  0
  8 17  2  0  0  0  0
  9 13  1  0  0  0  0
 10  8  1  0  0  0  0
 11  7  1  0  0  0  0
 11 14  2  0  0  0  0
 12 23  1  1  0  0  0
 12  2  1  0  0  0  0
 13  5  2  0  0  0  0
 14  4  1  0  0  0  0
 15  1  1  0  0  0  0
 15 21  1  0  0  0  0
 16 11  1  0  0  0  0
 17 21  1  0  0  0  0
 18 14  1  0  0  0  0
 19 20  1  0  0  0  0
 19  8  1  0  0  0  0
 20 15  2  0  0  0  0
 21  3  2  0  0  0  0
 22 26  2  0  0  0  0
 22 25  1  0  0  0  0
 24 23  1  0  0  0  0
 25 24  2  0  0  0  0
 26 27  1  0  0  0  0
 27 23  2  0  0  0  0
M  END
>  <MODEL>
5

>  <REMARK>
 VINA RESULT:      -6.4      2.388      5.487
  Name = 
  1 active torsions:
  status: ('A' for Active; 'I' for Inactive)
    1  A    between atoms: C_9  and  C_15
                            x       y       z     vdW  Elec       q    Type
                         _______ _______ _______ _____ _____    ______ ____

>  <TORSDO>
F 1

$$$$
=
 OpenBabel11052423143D

 27 31  0  0  1  0  0  0  0  0999 V2000
  161.2060  208.8790  148.1440 N   0  0  0  0  0  2  0  0  0  0  0  0
  161.6650  207.9980  150.3500 C   0  0  0  0  0  0  0  0  0  0  0  0
  162.4760  210.3690  150.4850 N   0  0  0  0  0  0  0  0  0  0  0  0
  160.8460  208.0790  154.4410 N   0  0  0  0  0  2  0  0  0  0  0  0
  160.8470  209.1610  156.4330 O   0  0  0  0  0  0  0  0  0  0  0  0
  161.1110  206.8830  151.0020 C   0  0  0  0  0  3  0  0  0  0  0  0
  161.9210  210.3280  153.2490 C   0  0  0  0  0  3  0  0  0  0  0  0
  162.4570  212.9070  148.0490 C   0  0  0  0  0  0  0  0  0  0  0  0
  161.6440  210.3230  154.6170 C   0  0  0  0  0  3  0  0  0  0  0  0
  163.0810  214.1640  147.8120 N   0  0  0  0  0  1  0  0  0  0  0  0
  161.6580  209.1920  152.4710 C   0  0  0  0  0  0  0  0  0  0  0  0
  162.0130  207.9320  148.8890 C   0  0  1  0  0  3  0  0  0  0  0  0
  161.1010  209.1780  155.2010 C   0  0  0  0  0  0  0  0  0  0  0  0
  161.1070  208.0570  153.1060 C   0  0  0  0  0  0  0  0  0  0  0  0
  161.4040  210.2840  148.2660 C   0  0  0  0  0  0  0  0  0  0  0  0
  161.9170  209.1810  151.0850 C   0  0  0  0  0  0  0  0  0  0  0  0
  162.8940  212.1460  149.0080 N   0  0  0  0  0  0  0  0  0  0  0  0
  160.8310  206.9110  152.3660 C   0  0  0  0  0  3  0  0  0  0  0  0
  161.1990  212.5570  147.2970 C   0  0  0  0  0  2  0  0  0  0  0  0
  160.9420  211.0760  147.2980 C   0  0  0  0  0  3  0  0  0  0  0  0
  162.2960  210.8760  149.2970 C   0  0  0  0  0  0  0  0  0  0  0  0
  161.8590  204.0150  147.1140 C   0  0  0  0  0  3  0  0  0  0  0  0
  161.9360  206.5630  148.2740 C   0  0  0  0  0  0  0  0  0  0  0  0
  162.5920  206.3210  147.0620 C   0  0  0  0  0  3  0  0  0  0  0  0
  162.5520  205.0510  146.4820 C   0  0  0  0  0  3  0  0  0  0  0  0
  161.2060  204.2480  148.3280 C   0  0  0  0  0  3  0  0  0  0  0  0
  161.2460  205.5180  148.9090 C   0  0  0  0  0  3  0  0  0  0  0  0
  1 15  1  0  0  0  0
  1 12  1  0  0  0  0
  2  6  2  0  0  0  0
  2 16  1  0  0  0  0
  3 16  1  0  0  0  0
  4 13  1  0  0  0  0
  6 18  1  0  0  0  0
  7  9  2  0  0  0  0
  8 17  2  0  0  0  0
  9 13  1  0  0  0  0
 10  8  1  0  0  0  0
 11 14  1  0  0  0  0
 11  7  1  0  0  0  0
 12 23  1  6  0  0  0
 12  2  1  0  0  0  0
 13  5  2  0  0  0  0
 14  4  1  0  0  0  0
 15 21  1  0  0  0  0
 16 11  2  0  0  0  0
 17 21  1  0  0  0  0
 18 14  2  0  0  0  0
 19 20  1  0  0  0  0
 19  8  1  0  0  0  0
 20 15  2  0  0  0  0
 21  3  2  0  0  0  0
 22 26  1  0  0  0  0
 23 27  1  0  0  0  0
 24 23  2  0  0  0  0
 25 24  1  0  0  0  0
 25 22  2  0  0  0  0
 26 27  2  0  0  0  0
M  END
>  <MODEL>
6

>  <REMARK>
 VINA RESULT:      -5.9      2.743      6.292
  Name = 
  1 active torsions:
  status: ('A' for Active; 'I' for Inactive)
    1  A    between atoms: C_9  and  C_15
                            x       y       z     vdW  Elec       q    Type
                         _______ _______ _______ _____ _____    ______ ____

>  <TORSDO>
F 1

$$$$
=
 OpenBabel11052423143D

 27 31  0  0  1  0  0  0  0  0999 V2000
  162.1170  208.7370  152.6130 N   0  0  0  0  0  2  0  0  0  0  0  0
  161.1020  206.5660  152.2780 C   0  0  0  0  0  0  0  0  0  0  0  0
  160.9120  207.6550  150.0260 N   0  0  0  0  0  0  0  0  0  0  0  0
  161.2490  202.8310  150.4240 N   0  0  0  0  0  2  0  0  0  0  0  0
  161.2060  201.5550  148.5500 O   0  0  0  0  0  0  0  0  0  0  0  0
  161.2410  205.3860  153.0300 C   0  0  0  0  0  3  0  0  0  0  0  0
  160.9880  205.0920  148.8560 C   0  0  0  0  0  3  0  0  0  0  0  0
  161.9660  210.8380  148.9570 C   0  0  0  0  0  0  0  0  0  0  0  0
  161.0320  203.8290  148.2640 C   0  0  0  0  0  3  0  0  0  0  0  0
  161.7300  211.7340  147.8780 N   0  0  0  0  0  1  0  0  0  0  0  0
  161.0740  205.2220  150.2490 C   0  0  0  0  0  0  0  0  0  0  0  0
  160.9870  207.8990  152.9640 C   0  0  1  0  0  3  0  0  0  0  0  0
  161.1650  202.6990  149.0720 C   0  0  0  0  0  0  0  0  0  0  0  0
  161.2080  204.0500  151.0260 C   0  0  0  0  0  0  0  0  0  0  0  0
  162.2670  209.2730  151.3020 C   0  0  0  0  0  0  0  0  0  0  0  0
  161.0460  206.4900  150.8660 C   0  0  0  0  0  0  0  0  0  0  0  0
  161.2030  209.7960  149.1040 N   0  0  0  0  0  0  0  0  0  0  0  0
  161.2980  204.1410  152.4120 C   0  0  0  0  0  3  0  0  0  0  0  0
  163.1970  211.0190  149.8070 C   0  0  0  0  0  2  0  0  0  0  0  0
  163.0650  210.3280  151.1360 C   0  0  0  0  0  3  0  0  0  0  0  0
  161.4020  208.8550  150.1680 C   0  0  0  0  0  0  0  0  0  0  0  0
  160.4810  207.7900  157.2370 C   0  0  0  0  0  3  0  0  0  0  0  0
  160.8100  207.8370  154.4550 C   0  0  0  0  0  0  0  0  0  0  0  0
  161.5790  208.6770  155.2690 C   0  0  0  0  0  3  0  0  0  0  0  0
  161.4170  208.6520  156.6570 C   0  0  0  0  0  3  0  0  0  0  0  0
  159.7060  206.9530  156.4290 C   0  0  0  0  0  3  0  0  0  0  0  0
  159.8670  206.9780  155.0410 C   0  0  0  0  0  3  0  0  0  0  0  0
  1 12  1  0  0  0  0
  2 12  1  0  0  0  0
  2  6  1  0  0  0  0
  3 21  2  0  0  0  0
  3 16  1  0  0  0  0
  4 14  1  0  0  0  0
  5 13  2  0  0  0  0
  7 11  1  0  0  0  0
  8 17  2  0  0  0  0
  8 19  1  0  0  0  0
  9  7  2  0  0  0  0
  9 13  1  0  0  0  0
 10  8  1  0  0  0  0
 11 16  1  0  0  0  0
 11 14  2  0  0  0  0
 12 23  1  1  0  0  0
 13  4  1  0  0  0  0
 14 18  1  0  0  0  0
 15  1  1  0  0  0  0
 16  2  2  0  0  0  0
 17 21  1  0  0  0  0
 18  6  2  0  0  0  0
 19 20  1  0  0  0  0
 20 15  2  0  0  0  0
 21 15  1  0  0  0  0
 23 27  2  0  0  0  0
 23 24  1  0  0  0  0
 24 25  2  0  0  0  0
 25 22  1  0  0  0  0
 26 22  2  0  0  0  0
 27 26  1  0  0  0  0
M  END
>  <MODEL>
7

>  <REMARK>
 VINA RESULT:      -5.7      2.060      5.689
  Name = 
  1 active torsions:
  status: ('A' for Active; 'I' for Inactive)
    1  A    between atoms: C_9  and  C_15
                            x       y       z     vdW  Elec       q    Type
                         _______ _______ _______ _____ _____    ______ ____

>  <TORSDO>
F 1

$$$$
=
 OpenBabel11052423143D

 27 31  0  0  1  0  0  0  0  0999 V2000
  160.6600  206.8750  151.4040 N   0  0  0  0  0  2  0  0  0  0  0  0
  161.2810  209.2130  151.4540 C   0  0  0  0  0  0  0  0  0  0  0  0
  162.2700  208.3900  149.3000 N   0  0  0  0  0  0  0  0  0  0  0  0
  160.8980  213.0190  149.7860 N   0  0  0  0  0  2  0  0  0  0  0  0
  161.1840  214.4520  148.0530 O   0  0  0  0  0  0  0  0  0  0  0  0
  160.7180  210.2740  152.1860 C   0  0  0  0  0  3  0  0  0  0  0  0
  162.0040  210.9970  148.2610 C   0  0  0  0  0  3  0  0  0  0  0  0
  162.1820  205.1850  147.8500 C   0  0  0  0  0  0  0  0  0  0  0  0
  161.8700  212.2820  147.7330 C   0  0  0  0  0  3  0  0  0  0  0  0
  162.8670  204.4500  146.8430 N   0  0  0  0  0  1  0  0  0  0  0  0
  161.5800  210.7240  149.5690 C   0  0  0  0  0  0  0  0  0  0  0  0
  161.4690  207.8640  152.0890 C   0  0  1  0  0  3  0  0  0  0  0  0
  161.3090  213.2900  148.5180 C   0  0  0  0  0  0  0  0  0  0  0  0
  161.0170  211.7760  150.3260 C   0  0  0  0  0  0  0  0  0  0  0  0
  160.9700  206.4460  150.0820 C   0  0  0  0  0  0  0  0  0  0  0  0
  161.6920  209.4300  150.1170 C   0  0  0  0  0  0  0  0  0  0  0  0
  162.6590  206.3280  148.2460 N   0  0  0  0  0  0  0  0  0  0  0  0
  160.5840  211.5420  151.6270 C   0  0  0  0  0  3  0  0  0  0  0  0
  160.8310  204.7100  148.3180 C   0  0  0  0  0  2  0  0  0  0  0  0
  160.4680  205.2860  149.6580 C   0  0  0  0  0  3  0  0  0  0  0  0
  162.0050  207.1140  149.2500 C   0  0  0  0  0  0  0  0  0  0  0  0
  160.8080  207.6650  156.3380 C   0  0  0  0  0  3  0  0  0  0  0  0
  161.2300  207.8170  153.5720 C   0  0  0  0  0  0  0  0  0  0  0  0
  160.6740  206.6640  154.1370 C   0  0  0  0  0  3  0  0  0  0  0  0
  160.4610  206.5890  155.5170 C   0  0  0  0  0  3  0  0  0  0  0  0
  161.3700  208.8170  155.7800 C   0  0  0  0  0  3  0  0  0  0  0  0
  161.5830  208.8930  154.4010 C   0  0  0  0  0  3  0  0  0  0  0  0
  1 12  1  0  0  0  0
  2 12  1  0  0  0  0
  2  6  1  0  0  0  0
  3 16  1  0  0  0  0
  4 14  1  0  0  0  0
  5 13  2  0  0  0  0
  7 11  1  0  0  0  0
  8 17  2  0  0  0  0
  8 19  1  0  0  0  0
  9  7  2  0  0  0  0
  9 13  1  0  0  0  0
 10  8  1  0  0  0  0
 11 16  1  0  0  0  0
 11 14  2  0  0  0  0
 12 23  1  1  0  0  0
 13  4  1  0  0  0  0
 14 18  1  0  0  0  0
 15  1  1  0  0  0  0
 16  2  2  0  0  0  0
 17 21  1  0  0  0  0
 18  6  2  0  0  0  0
 19 20  1  0  0  0  0
 20 15  2  0  0  0  0
 21  3  2  0  0  0  0
 21 15  1  0  0  0  0
 23 24  2  0  0  0  0
 23 27  1  0  0  0  0
 24 25  1  0  0  0  0
 25 22  2  0  0  0  0
 26 22  1  0  0  0  0
 27 26  2  0  0  0  0
M  END
>  <MODEL>
8

>  <REMARK>
 VINA RESULT:      -5.6      2.982      7.166
  Name = 
  1 active torsions:
  status: ('A' for Active; 'I' for Inactive)
    1  A    between atoms: C_9  and  C_15
                            x       y       z     vdW  Elec       q    Type
                         _______ _______ _______ _____ _____    ______ ____

>  <TORSDO>
F 1

$$$$
=
 OpenBabel11052423143D

 27 31  0  0  1  0  0  0  0  0999 V2000
  162.2300  209.3630  150.9010 N   0  0  0  0  0  2  0  0  0  0  0  0
  161.3040  207.2210  150.2580 C   0  0  0  0  0  0  0  0  0  0  0  0
  161.0260  208.6230  148.1960 N   0  0  0  0  0  0  0  0  0  0  0  0
  161.5810  203.8130  147.8660 N   0  0  0  0  0  2  0  0  0  0  0  0
  161.5590  202.8280  145.8250 O   0  0  0  0  0  0  0  0  0  0  0  0
  161.5090  205.9510  150.8240 C   0  0  0  0  0  3  0  0  0  0  0  0
  161.1930  206.2670  146.6560 C   0  0  0  0  0  3  0  0  0  0  0  0
  161.9210  211.9730  147.6000 C   0  0  0  0  0  0  0  0  0  0  0  0
  161.2810  205.1090  145.8820 C   0  0  0  0  0  3  0  0  0  0  0  0
  161.6260  213.0070  146.6690 N   0  0  0  0  0  1  0  0  0  0  0  0
  161.2980  206.1930  148.0520 C   0  0  0  0  0  0  0  0  0  0  0  0
  161.1440  208.4310  151.1360 C   0  0  1  0  0  3  0  0  0  0  0  0
  161.4780  203.8790  146.5110 C   0  0  0  0  0  0  0  0  0  0  0  0
  161.4970  204.9270  148.6440 C   0  0  0  0  0  0  0  0  0  0  0  0
  162.3320  210.0930  149.6820 C   0  0  0  0  0  0  0  0  0  0  0  0
  161.2260  207.3530  148.8510 C   0  0  0  0  0  0  0  0  0  0  0  0
  161.2060  210.8870  147.5990 N   0  0  0  0  0  0  0  0  0  0  0  0
  161.6080  204.8140  150.0270 C   0  0  0  0  0  3  0  0  0  0  0  0
  163.1570  212.0830  148.4540 C   0  0  0  0  0  2  0  0  0  0  0  0
  163.0800  211.1970  149.6660 C   0  0  0  0  0  3  0  0  0  0  0  0
  161.4660  209.8100  148.5090 C   0  0  0  0  0  0  0  0  0  0  0  0
  160.6720  207.6460  155.3420 C   0  0  0  0  0  3  0  0  0  0  0  0
  160.9970  208.1410  152.6030 C   0  0  0  0  0  0  0  0  0  0  0  0
  160.8310  209.2060  153.4960 C   0  0  0  0  0  3  0  0  0  0  0  0
  160.6720  208.9600  154.8630 C   0  0  0  0  0  3  0  0  0  0  0  0
  160.8310  206.5780  154.4540 C   0  0  0  0  0  3  0  0  0  0  0  0
  160.9910  206.8230  153.0880 C   0  0  0  0  0  3  0  0  0  0  0  0
  1 12  1  0  0  0  0
  2  6  1  0  0  0  0
  2 12  1  0  0  0  0
  3 21  2  0  0  0  0
  3 16  1  0  0  0  0
  4 14  1  0  0  0  0
  5 13  2  0  0  0  0
  7 11  1  0  0  0  0
  8 19  1  0  0  0  0
  9 13  1  0  0  0  0
  9  7  2  0  0  0  0
 10  8  1  0  0  0  0
 11 14  2  0  0  0  0
 11 16  1  0  0  0  0
 12 23  1  1  0  0  0
 13  4  1  0  0  0  0
 14 18  1  0  0  0  0
 15  1  1  0  0  0  0
 16  2  2  0  0  0  0
 17  8  2  0  0  0  0
 17 21  1  0  0  0  0
 18  6  2  0  0  0  0
 19 20  1  0  0  0  0
 20 15  2  0  0  0  0
 21 15  1  0  0  0  0
 23 27  2  0  0  0  0
 23 24  1  0  0  0  0
 24 25  2  0  0  0  0
 25 22  1  0  0  0  0
 26 22  2  0  0  0  0
 27 26  1  0  0  0  0
M  END
>  <MODEL>
9

>  <REMARK>
 VINA RESULT:      -5.6      2.176      5.567
  Name = 
  1 active torsions:
  status: ('A' for Active; 'I' for Inactive)
    1  A    between atoms: C_9  and  C_15
                            x       y       z     vdW  Elec       q    Type
                         _______ _______ _______ _____ _____    ______ ____

>  <TORSDO>
F 1

$$$$
