=
 OpenBabel11062408223D

 32 37  0  0  1  0  0  0  0  0999 V2000
  162.0970  208.9110  151.2040 C   0  0  2  0  0  3  0  0  0  0  0  0
  161.9920  206.7990  149.8660 C   0  0  0  0  0  0  0  0  0  0  0  0
  161.5270  210.2490  151.0490 N   0  0  0  0  0  2  0  0  0  0  0  0
  162.0930  208.1860  149.8850 C   0  0  0  0  0  0  0  0  0  0  0  0
  161.8560  206.1200  148.6450 C   0  0  0  0  0  0  0  0  0  0  0  0
  160.8540  202.4930  152.2330 C   0  0  0  0  0  2  0  0  0  0  0  0
  161.8540  206.1160  151.1950 C   0  0  1  0  0  3  0  0  0  0  0  0
  160.7250  202.6780  149.7350 C   0  0  0  0  0  2  0  0  0  0  0  0
  160.8130  204.1960  149.8390 C   0  0  2  0  0  3  0  0  0  0  0  0
  162.1230  208.9130  148.6880 C   0  0  0  0  0  0  0  0  0  0  0  0
  161.4660  204.7440  148.6550 N   0  0  0  0  0  2  0  0  0  0  0  0
  162.1000  208.2320  147.4660 C   0  0  0  0  0  3  0  0  0  0  0  0
  162.0190  210.3440  148.7240 N   0  0  0  0  0  0  0  0  0  0  0  0
  160.8650  206.8540  151.9830 N   0  0  0  0  0  2  0  0  0  0  0  0
  161.4020  208.1380  152.2600 N   0  0  0  0  0  0  0  0  0  0  0  0
  161.5910  204.5980  151.1000 C   0  0  2  0  0  3  0  0  0  0  0  0
  161.9820  206.8340  147.4380 C   0  0  0  0  0  0  0  0  0  0  0  0
  161.7160  210.9740  149.8230 C   0  0  0  0  0  3  0  0  0  0  0  0
  160.0590  202.1080  150.9860 C   0  0  0  0  0  2  0  0  0  0  0  0
  160.9520  204.0110  152.3580 C   0  0  0  0  0  2  0  0  0  0  0  0
  160.2730  208.0320  155.8060 C   0  0  0  0  0  0  0  0  0  0  0  0
  160.7890  211.1740  157.2430 O   0  0  0  0  0  1  0  0  0  0  0  0
  160.0090  207.0310  156.8800 C   0  0  0  0  0  1  0  0  0  0  0  0
  161.5410  210.6890  155.0720 C   0  0  0  0  0  3  0  0  0  0  0  0
  161.3150  208.6340  153.6090 C   0  0  0  0  0  0  0  0  0  0  0  0
  159.6520  209.3800  155.9550 C   0  0  0  0  0  2  0  0  0  0  0  0
  161.5860  209.9380  153.8020 C   0  0  0  0  0  3  0  0  0  0  0  0
  161.0030  207.6920  154.7310 C   0  0  0  0  0  0  0  0  0  0  0  0
  161.4400  206.4100  154.6420 F   0  0  0  0  0  0  0  0  0  0  0  0
  160.7050  210.4280  156.0750 C   0  0  0  0  0  0  0  0  0  0  0  0
  161.9120  206.1360  146.1200 C   0  0  0  0  0  2  0  0  0  0  0  0
  160.5030  206.2100  145.5660 C   0  0  0  0  0  1  0  0  0  0  0  0
  1  4  1  6  0  0  0
  1 15  1  0  0  0  0
  2  4  1  0  0  0  0
  3  1  1  0  0  0  0
  5 11  1  0  0  0  0
  5  2  2  0  0  0  0
  6 20  1  0  0  0  0
  7  2  1  6  0  0  0
  7 14  1  0  0  0  0
  8 19  1  0  0  0  0
  9  8  1  6  0  0  0
  9 16  1  0  0  0  0
 10 13  1  0  0  0  0
 10  4  2  0  0  0  0
 11  9  1  0  0  0  0
 12 10  1  0  0  0  0
 13 18  2  0  0  0  0
 14 15  1  0  0  0  0
 15 25  1  0  0  0  0
 16  7  1  0  0  0  0
 16 20  1  1  0  0  0
 17 12  2  0  0  0  0
 17  5  1  0  0  0  0
 18  3  1  0  0  0  0
 19  6  1  0  0  0  0
 21 26  1  0  0  0  0
 21 23  1  0  0  0  0
 24 30  2  0  0  0  0
 25 27  2  0  0  0  0
 25 28  1  0  0  0  0
 26 30  1  0  0  0  0
 27 24  1  0  0  0  0
 28 21  2  0  0  0  0
 29 28  1  0  0  0  0
 30 22  1  0  0  0  0
 31 17  1  0  0  0  0
 32 31  1  0  0  0  0
M  END
>  <MODEL>
1

>  <REMARK>
 VINA RESULT:      -9.1      0.000      0.000
  Name = 
  2 active torsions:
  status: ('A' for Active; 'I' for Inactive)
    1  A    between atoms: C_13  and  C_29
    2  A    between atoms: C_16  and  N_27
                            x       y       z     vdW  Elec       q    Type
                         _______ _______ _______ _____ _____    ______ ____

>  <TORSDO>
F 2

$$$$
=
 OpenBabel11062408223D

 32 37  0  0  1  0  0  0  0  0999 V2000
  162.0440  208.3280  149.4690 C   0  0  2  0  0  3  0  0  0  0  0  0
  161.6870  207.0610  151.5970 C   0  0  0  0  0  0  0  0  0  0  0  0
  161.4410  208.2800  148.1370 N   0  0  0  0  0  2  0  0  0  0  0  0
  161.7770  207.0460  150.2090 C   0  0  0  0  0  0  0  0  0  0  0  0
  161.3120  205.9000  152.2920 C   0  0  0  0  0  0  0  0  0  0  0  0
  161.0960  209.6530  155.8840 C   0  0  0  0  0  2  0  0  0  0  0  0
  161.8290  208.3970  152.2660 C   0  0  1  0  0  3  0  0  0  0  0  0
  160.4580  207.2320  155.7280 C   0  0  0  0  0  2  0  0  0  0  0  0
  160.5520  207.3010  154.2080 C   0  0  2  0  0  3  0  0  0  0  0  0
  161.5560  205.8610  149.4960 C   0  0  0  0  0  0  0  0  0  0  0  0
  160.9450  206.0040  153.6700 N   0  0  0  0  0  2  0  0  0  0  0  0
  161.2910  204.6760  150.1920 C   0  0  0  0  0  3  0  0  0  0  0  0
  161.4480  205.9030  148.0650 N   0  0  0  0  0  0  0  0  0  0  0  0
  161.0150  209.3630  151.5260 N   0  0  0  0  0  2  0  0  0  0  0  0
  161.5860  209.5120  150.2350 N   0  0  0  0  0  0  0  0  0  0  0  0
  161.5670  208.3720  153.7870 C   0  0  2  0  0  3  0  0  0  0  0  0
  161.1820  204.6860  151.5910 C   0  0  0  0  0  0  0  0  0  0  0  0
  161.3700  207.0350  147.4250 C   0  0  0  0  0  3  0  0  0  0  0  0
  160.0670  208.5980  156.2890 C   0  0  0  0  0  2  0  0  0  0  0  0
  161.2030  209.7400  154.3640 C   0  0  0  0  0  2  0  0  0  0  0  0
  160.5680  213.0400  149.6210 C   0  0  0  0  0  0  0  0  0  0  0  0
  162.6550  214.4010  147.1720 O   0  0  0  0  0  1  0  0  0  0  0  0
  159.8170  214.1360  150.3000 C   0  0  0  0  0  1  0  0  0  0  0  0
  163.0410  212.2570  148.0480 C   0  0  0  0  0  3  0  0  0  0  0  0
  161.7710  210.8460  149.7250 C   0  0  0  0  0  0  0  0  0  0  0  0
  160.7460  213.1420  148.1440 C   0  0  0  0  0  2  0  0  0  0  0  0
  162.6860  211.0080  148.7510 C   0  0  0  0  0  3  0  0  0  0  0  0
  161.0100  211.9860  150.3270 C   0  0  0  0  0  0  0  0  0  0  0  0
  160.7100  211.9390  151.6510 F   0  0  0  0  0  0  0  0  0  0  0  0
  162.1920  213.2520  147.8000 C   0  0  0  0  0  0  0  0  0  0  0  0
  160.8510  203.4170  152.3040 C   0  0  0  0  0  2  0  0  0  0  0  0
  161.2300  202.2240  151.4480 C   0  0  0  0  0  1  0  0  0  0  0  0
  1  3  1  6  0  0  0
  1  4  1  0  0  0  0
  1 15  1  0  0  0  0
  2  7  1  0  0  0  0
  2  5  1  0  0  0  0
  4  2  2  0  0  0  0
  5 11  1  0  0  0  0
  6 19  1  0  0  0  0
  7 14  1  6  0  0  0
  7 16  1  0  0  0  0
  8 19  1  0  0  0  0
  9  8  1  1  0  0  0
 10 12  2  0  0  0  0
 10  4  1  0  0  0  0
 11  9  1  0  0  0  0
 12 17  1  0  0  0  0
 13 10  1  0  0  0  0
 15 14  1  0  0  0  0
 16  9  1  0  0  0  0
 16 20  1  6  0  0  0
 17  5  2  0  0  0  0
 17 31  1  0  0  0  0
 18 13  2  0  0  0  0
 18  3  1  0  0  0  0
 20  6  1  0  0  0  0
 21 23  1  0  0  0  0
 21 28  2  0  0  0  0
 22 30  1  0  0  0  0
 24 27  1  0  0  0  0
 25 15  1  0  0  0  0
 25 28  1  0  0  0  0
 26 21  1  0  0  0  0
 27 25  2  0  0  0  0
 28 29  1  0  0  0  0
 30 24  2  0  0  0  0
 30 26  1  0  0  0  0
 32 31  1  0  0  0  0
M  END
>  <MODEL>
2

>  <REMARK>
 VINA RESULT:      -9.0      2.665      6.019
  Name = 
  2 active torsions:
  status: ('A' for Active; 'I' for Inactive)
    1  A    between atoms: C_13  and  C_29
    2  A    between atoms: C_16  and  N_27
                            x       y       z     vdW  Elec       q    Type
                         _______ _______ _______ _____ _____    ______ ____

>  <TORSDO>
F 2

$$$$
=
 OpenBabel11062408223D

 32 37  0  0  1  0  0  0  0  0999 V2000
  161.1690  209.1560  151.2530 C   0  0  2  0  0  3  0  0  0  0  0  0
  160.9150  206.7840  150.4970 C   0  0  0  0  0  0  0  0  0  0  0  0
  161.9580  209.8190  152.2910 N   0  0  0  0  0  2  0  0  0  0  0  0
  161.0510  207.6850  151.5480 C   0  0  0  0  0  0  0  0  0  0  0  0
  160.9340  205.4030  150.7460 C   0  0  0  0  0  0  0  0  0  0  0  0
  161.3070  205.7630  145.5720 C   0  0  0  0  0  2  0  0  0  0  0  0
  160.9360  207.3600  149.1110 C   0  0  1  0  0  3  0  0  0  0  0  0
  161.4650  203.9470  147.2950 C   0  0  0  0  0  2  0  0  0  0  0  0
  161.6360  204.9940  148.3890 C   0  0  2  0  0  3  0  0  0  0  0  0
  161.1450  207.2270  152.8680 C   0  0  0  0  0  0  0  0  0  0  0  0
  161.0850  204.5010  149.6460 N   0  0  0  0  0  2  0  0  0  0  0  0
  161.0510  205.8560  153.1310 C   0  0  0  0  0  3  0  0  0  0  0  0
  161.4890  208.1460  153.9160 N   0  0  0  0  0  0  0  0  0  0  0  0
  162.0350  208.3230  149.0370 N   0  0  0  0  0  2  0  0  0  0  0  0
  161.7230  209.4040  149.9020 N   0  0  0  0  0  0  0  0  0  0  0  0
  160.9370  206.3000  147.9880 C   0  0  2  0  0  3  0  0  0  0  0  0
  160.9310  204.9390  152.0750 C   0  0  0  0  0  0  0  0  0  0  0  0
  161.8950  209.3550  153.6490 C   0  0  0  0  0  3  0  0  0  0  0  0
  162.0250  204.4760  145.9750 C   0  0  0  0  0  2  0  0  0  0  0  0
  161.4680  206.8280  146.6550 C   0  0  0  0  0  2  0  0  0  0  0  0
  160.6130  212.8860  149.1900 C   0  0  0  0  0  0  0  0  0  0  0  0
  162.8340  214.3290  146.9120 O   0  0  0  0  0  1  0  0  0  0  0  0
  159.7650  213.9510  149.8000 C   0  0  0  0  0  1  0  0  0  0  0  0
  163.2370  212.2050  147.8270 C   0  0  0  0  0  3  0  0  0  0  0  0
  161.8940  210.7440  149.4020 C   0  0  0  0  0  0  0  0  0  0  0  0
  160.9070  212.9940  147.7320 C   0  0  0  0  0  2  0  0  0  0  0  0
  162.8770  210.9430  148.5040 C   0  0  0  0  0  3  0  0  0  0  0  0
  161.0400  211.8530  149.9350 C   0  0  0  0  0  0  0  0  0  0  0  0
  160.6360  211.7960  151.2300 F   0  0  0  0  0  0  0  0  0  0  0  0
  162.3700  213.1630  147.5060 C   0  0  0  0  0  0  0  0  0  0  0  0
  160.8820  203.4790  152.3810 C   0  0  0  0  0  2  0  0  0  0  0  0
  161.9520  202.7460  151.5960 C   0  0  0  0  0  1  0  0  0  0  0  0
  1  4  1  1  0  0  0
  1  3  1  0  0  0  0
  2  5  2  0  0  0  0
  2  4  1  0  0  0  0
  3 18  1  0  0  0  0
  4 10  2  0  0  0  0
  5 17  1  0  0  0  0
  6 19  1  0  0  0  0
  6 20  1  0  0  0  0
  7 14  1  1  0  0  0
  7  2  1  0  0  0  0
  9  8  1  6  0  0  0
  9 11  1  0  0  0  0
 10 12  1  0  0  0  0
 10 13  1  0  0  0  0
 11  5  1  0  0  0  0
 14 15  1  0  0  0  0
 15  1  1  0  0  0  0
 16 20  1  6  0  0  0
 16  9  1  0  0  0  0
 16  7  1  0  0  0  0
 17 31  1  0  0  0  0
 17 12  2  0  0  0  0
 18 13  2  0  0  0  0
 19  8  1  0  0  0  0
 21 23  1  0  0  0  0
 21 28  2  0  0  0  0
 22 30  1  0  0  0  0
 24 27  1  0  0  0  0
 25 15  1  0  0  0  0
 25 28  1  0  0  0  0
 26 21  1  0  0  0  0
 27 25  2  0  0  0  0
 28 29  1  0  0  0  0
 30 26  1  0  0  0  0
 30 24  2  0  0  0  0
 32 31  1  0  0  0  0
M  END
>  <MODEL>
3

>  <REMARK>
 VINA RESULT:      -8.5      2.858      5.796
  Name = 
  2 active torsions:
  status: ('A' for Active; 'I' for Inactive)
    1  A    between atoms: C_13  and  C_29
    2  A    between atoms: C_16  and  N_27
                            x       y       z     vdW  Elec       q    Type
                         _______ _______ _______ _____ _____    ______ ____

>  <TORSDO>
F 2

$$$$
=
 OpenBabel11062408223D

 32 37  0  0  1  0  0  0  0  0999 V2000
  161.0190  208.4340  154.3650 C   0  0  2  0  0  3  0  0  0  0  0  0
  160.3730  210.8490  154.4710 C   0  0  0  0  0  0  0  0  0  0  0  0
  160.4740  207.2040  154.9400 N   0  0  0  0  0  2  0  0  0  0  0  0
  160.5190  209.6320  155.1270 C   0  0  0  0  0  0  0  0  0  0  0  0
  159.7870  211.9400  155.1320 C   0  0  0  0  0  0  0  0  0  0  0  0
  160.0180  213.4470  150.1620 C   0  0  0  0  0  2  0  0  0  0  0  0
  160.6980  210.8670  153.0060 C   0  0  1  0  0  3  0  0  0  0  0  0
  159.0100  214.3120  152.2900 C   0  0  0  0  0  2  0  0  0  0  0  0
  159.1780  212.9390  152.9310 C   0  0  2  0  0  3  0  0  0  0  0  0
  160.1420  209.4990  156.4700 C   0  0  0  0  0  0  0  0  0  0  0  0
  159.3820  213.0800  154.3690 N   0  0  0  0  0  2  0  0  0  0  0  0
  159.6610  210.6130  157.1660 C   0  0  0  0  0  3  0  0  0  0  0  0
  160.1050  208.1950  157.0700 N   0  0  0  0  0  0  0  0  0  0  0  0
  160.0810  209.6910  152.3910 N   0  0  0  0  0  2  0  0  0  0  0  0
  160.7230  208.5400  152.9170 N   0  0  0  0  0  0  0  0  0  0  0  0
  160.3690  212.2020  152.3030 C   0  0  2  0  0  3  0  0  0  0  0  0
  159.4950  211.8410  156.5060 C   0  0  0  0  0  0  0  0  0  0  0  0
  160.2360  207.1150  156.3540 C   0  0  0  0  0  3  0  0  0  0  0  0
  158.8170  214.1610  150.7810 C   0  0  0  0  0  2  0  0  0  0  0  0
  160.2040  212.0680  150.7890 C   0  0  0  0  0  2  0  0  0  0  0  0
  161.6630  207.2240  149.5640 C   0  0  0  0  0  0  0  0  0  0  0  0
  161.5780  203.7330  149.6630 O   0  0  0  0  0  1  0  0  0  0  0  0
  162.3790  207.6690  148.3330 C   0  0  0  0  0  1  0  0  0  0  0  0
  161.2610  205.0150  151.6040 C   0  0  0  0  0  3  0  0  0  0  0  0
  161.1410  207.5150  151.9960 C   0  0  0  0  0  0  0  0  0  0  0  0
  160.7390  206.0600  149.4370 C   0  0  0  0  0  2  0  0  0  0  0  0
  160.9470  206.2360  152.3720 C   0  0  0  0  0  3  0  0  0  0  0  0
  161.8210  207.8940  150.7170 C   0  0  0  0  0  0  0  0  0  0  0  0
  162.6080  209.0010  150.7040 F   0  0  0  0  0  0  0  0  0  0  0  0
  161.2130  204.9240  150.2770 C   0  0  0  0  0  0  0  0  0  0  0  0
  158.9350  213.0020  157.2600 C   0  0  0  0  0  2  0  0  0  0  0  0
  157.4200  212.9420  157.2580 C   0  0  0  0  0  1  0  0  0  0  0  0
  1  3  1  1  0  0  0
  1  4  1  0  0  0  0
  2  4  2  0  0  0  0
  2  5  1  0  0  0  0
  3 18  1  0  0  0  0
  4 10  1  0  0  0  0
  5 17  2  0  0  0  0
  6 19  1  0  0  0  0
  6 20  1  0  0  0  0
  7 14  1  6  0  0  0
  7  2  1  0  0  0  0
  9  8  1  6  0  0  0
  9 11  1  0  0  0  0
 10 13  1  0  0  0  0
 10 12  2  0  0  0  0
 11  5  1  0  0  0  0
 14 15  1  0  0  0  0
 15  1  1  0  0  0  0
 16 20  1  6  0  0  0
 16  9  1  0  0  0  0
 16  7  1  0  0  0  0
 17 12  1  0  0  0  0
 17 31  1  0  0  0  0
 18 13  2  0  0  0  0
 19  8  1  0  0  0  0
 21 28  2  0  0  0  0
 22 30  1  0  0  0  0
 23 21  1  0  0  0  0
 24 27  1  0  0  0  0
 25 27  2  0  0  0  0
 25 15  1  0  0  0  0
 26 21  1  0  0  0  0
 26 30  1  0  0  0  0
 28 25  1  0  0  0  0
 29 28  1  0  0  0  0
 30 24  2  0  0  0  0
 32 31  1  0  0  0  0
M  END
>  <MODEL>
4

>  <REMARK>
 VINA RESULT:      -8.3      3.255      8.325
  Name = 
  2 active torsions:
  status: ('A' for Active; 'I' for Inactive)
    1  A    between atoms: C_13  and  C_29
    2  A    between atoms: C_16  and  N_27
                            x       y       z     vdW  Elec       q    Type
                         _______ _______ _______ _____ _____    ______ ____

>  <TORSDO>
F 2

$$$$
=
 OpenBabel11062408223D

 32 37  0  0  1  0  0  0  0  0999 V2000
  161.6480  204.7850  150.6390 C   0  0  2  0  0  3  0  0  0  0  0  0
  161.8120  207.1170  151.5320 C   0  0  0  0  0  0  0  0  0  0  0  0
  160.7520  203.6560  150.8870 N   0  0  0  0  0  2  0  0  0  0  0  0
  161.5760  205.7680  151.7760 C   0  0  0  0  0  0  0  0  0  0  0  0
  161.6220  208.0610  152.5530 C   0  0  0  0  0  0  0  0  0  0  0  0
  162.2120  210.9360  148.2610 C   0  0  0  0  0  2  0  0  0  0  0  0
  162.0930  207.5040  150.1100 C   0  0  1  0  0  3  0  0  0  0  0  0
  161.5810  211.3340  150.6560 C   0  0  0  0  0  2  0  0  0  0  0  0
  161.3160  209.8440  150.8380 C   0  0  2  0  0  3  0  0  0  0  0  0
  161.2060  205.3320  153.0550 C   0  0  0  0  0  0  0  0  0  0  0  0
  161.5860  209.4510  152.2160 N   0  0  0  0  0  2  0  0  0  0  0  0
  161.1230  206.2550  154.1030 C   0  0  0  0  0  3  0  0  0  0  0  0
  160.7670  203.9780  153.2430 N   0  0  0  0  0  0  0  0  0  0  0  0
  161.1180  206.8240  149.2550 N   0  0  0  0  0  2  0  0  0  0  0  0
  161.3700  205.4300  149.3350 N   0  0  0  0  0  0  0  0  0  0  0  0
  162.1930  209.0270  149.8790 C   0  0  2  0  0  3  0  0  0  0  0  0
  161.3450  207.6200  153.8610 C   0  0  0  0  0  0  0  0  0  0  0  0
  160.5290  203.1960  152.2290 C   0  0  0  0  0  3  0  0  0  0  0  0
  161.3170  211.7370  149.2060 C   0  0  0  0  0  2  0  0  0  0  0  0
  161.9600  209.4390  148.4250 C   0  0  0  0  0  2  0  0  0  0  0  0
  161.2250  205.0320  145.6360 C   0  0  0  0  0  0  0  0  0  0  0  0
  160.8220  201.6440  144.8860 O   0  0  0  0  0  1  0  0  0  0  0  0
  161.6200  205.7720  144.4020 C   0  0  0  0  0  1  0  0  0  0  0  0
  161.1750  202.3700  147.0900 C   0  0  0  0  0  3  0  0  0  0  0  0
  161.4160  204.6780  148.1080 C   0  0  0  0  0  0  0  0  0  0  0  0
  160.1900  203.9670  145.4970 C   0  0  0  0  0  2  0  0  0  0  0  0
  161.2060  203.3500  148.1940 C   0  0  0  0  0  3  0  0  0  0  0  0
  161.7570  205.3670  146.8230 C   0  0  0  0  0  0  0  0  0  0  0  0
  162.6170  206.4170  146.8580 F   0  0  0  0  0  0  0  0  0  0  0  0
  160.7590  202.6370  145.8540 C   0  0  0  0  0  0  0  0  0  0  0  0
  161.2030  208.5900  154.9870 C   0  0  0  0  0  2  0  0  0  0  0  0
  160.1050  208.1380  155.9300 C   0  0  0  0  0  1  0  0  0  0  0  0
  1  3  1  1  0  0  0
  1  4  1  0  0  0  0
  2  4  2  0  0  0  0
  2  5  1  0  0  0  0
  3 18  1  0  0  0  0
  4 10  1  0  0  0  0
  5 17  2  0  0  0  0
  6 20  1  0  0  0  0
  6 19  1  0  0  0  0
  7 14  1  6  0  0  0
  7  2  1  0  0  0  0
  9  8  1  1  0  0  0
  9 11  1  0  0  0  0
 10 13  1  0  0  0  0
 10 12  2  0  0  0  0
 11  5  1  0  0  0  0
 14 15  1  0  0  0  0
 15  1  1  0  0  0  0
 16 20  1  6  0  0  0
 16  7  1  0  0  0  0
 16  9  1  0  0  0  0
 17 12  1  0  0  0  0
 17 31  1  0  0  0  0
 18 13  2  0  0  0  0
 19  8  1  0  0  0  0
 21 28  2  0  0  0  0
 22 30  1  0  0  0  0
 23 21  1  0  0  0  0
 24 27  1  0  0  0  0
 25 27  2  0  0  0  0
 25 15  1  0  0  0  0
 26 21  1  0  0  0  0
 26 30  1  0  0  0  0
 28 29  1  0  0  0  0
 28 25  1  0  0  0  0
 30 24  2  0  0  0  0
 31 32  1  0  0  0  0
M  END
>  <MODEL>
5

>  <REMARK>
 VINA RESULT:      -8.2      3.468      8.243
  Name = 
  2 active torsions:
  status: ('A' for Active; 'I' for Inactive)
    1  A    between atoms: C_13  and  C_29
    2  A    between atoms: C_16  and  N_27
                            x       y       z     vdW  Elec       q    Type
                         _______ _______ _______ _____ _____    ______ ____

>  <TORSDO>
F 2

$$$$
=
 OpenBabel11062408223D

 32 37  0  0  1  0  0  0  0  0999 V2000
  161.1450  207.2770  151.2510 C   0  0  2  0  0  3  0  0  0  0  0  0
  160.9210  205.2530  149.7970 C   0  0  0  0  0  0  0  0  0  0  0  0
  161.9480  207.6060  152.4290 N   0  0  0  0  0  2  0  0  0  0  0  0
  161.0660  205.7850  151.0740 C   0  0  0  0  0  0  0  0  0  0  0  0
  160.9760  203.8640  149.6020 C   0  0  0  0  0  0  0  0  0  0  0  0
  161.2000  205.8290  144.7930 C   0  0  0  0  0  2  0  0  0  0  0  0
  160.8910  206.2320  148.6600 C   0  0  1  0  0  3  0  0  0  0  0  0
  161.4440  203.5720  145.8590 C   0  0  0  0  0  2  0  0  0  0  0  0
  161.6220  204.2310  147.2220 C   0  0  2  0  0  3  0  0  0  0  0  0
  161.2060  204.9410  152.1830 C   0  0  0  0  0  0  0  0  0  0  0  0
  161.1170  203.3540  148.2730 N   0  0  0  0  0  2  0  0  0  0  0  0
  161.1490  203.5540  152.0070 C   0  0  0  0  0  3  0  0  0  0  0  0
  161.5600  205.4980  153.4580 N   0  0  0  0  0  0  0  0  0  0  0  0
  161.9680  207.2020  148.8690 N   0  0  0  0  0  2  0  0  0  0  0  0
  161.6570  207.9500  150.0340 N   0  0  0  0  0  0  0  0  0  0  0  0
  160.8850  205.5760  147.2620 C   0  0  2  0  0  3  0  0  0  0  0  0
  161.0200  203.0090  150.7200 C   0  0  0  0  0  0  0  0  0  0  0  0
  161.9320  206.7400  153.5750 C   0  0  0  0  0  3  0  0  0  0  0  0
  161.9560  204.5020  144.7600 C   0  0  0  0  0  2  0  0  0  0  0  0
  161.3670  206.5080  146.1510 C   0  0  0  0  0  2  0  0  0  0  0  0
  160.8290  211.4380  151.0430 C   0  0  0  0  0  0  0  0  0  0  0  0
  162.0920  213.6320  148.6350 O   0  0  0  0  0  1  0  0  0  0  0  0
  160.4560  212.2030  152.2670 C   0  0  0  0  0  1  0  0  0  0  0  0
  162.5460  211.3300  148.5430 C   0  0  0  0  0  3  0  0  0  0  0  0
  161.7840  209.3830  149.9750 C   0  0  0  0  0  0  0  0  0  0  0  0
  160.5100  212.0550  149.7230 C   0  0  0  0  0  2  0  0  0  0  0  0
  162.3310  209.9040  148.8600 C   0  0  0  0  0  3  0  0  0  0  0  0
  161.3810  210.2180  151.1500 C   0  0  0  0  0  0  0  0  0  0  0  0
  161.5400  209.7020  152.3970 F   0  0  0  0  0  0  0  0  0  0  0  0
  161.7600  212.3220  148.9570 C   0  0  0  0  0  0  0  0  0  0  0  0
  161.0100  201.5260  150.5550 C   0  0  0  0  0  2  0  0  0  0  0  0
  159.7920  201.0980  149.7610 C   0  0  0  0  0  1  0  0  0  0  0  0
  1  4  1  6  0  0  0
  1  3  1  0  0  0  0
  2  4  1  0  0  0  0
  3 18  1  0  0  0  0
  4 10  2  0  0  0  0
  5  2  2  0  0  0  0
  5 17  1  0  0  0  0
  6 20  1  0  0  0  0
  7 14  1  6  0  0  0
  7  2  1  0  0  0  0
  9  8  1  6  0  0  0
  9 16  1  0  0  0  0
  9 11  1  0  0  0  0
 10 13  1  0  0  0  0
 11  5  1  0  0  0  0
 12 10  1  0  0  0  0
 13 18  2  0  0  0  0
 14 15  1  0  0  0  0
 15  1  1  0  0  0  0
 16 20  1  6  0  0  0
 16  7  1  0  0  0  0
 17 12  2  0  0  0  0
 19  6  1  0  0  0  0
 19  8  1  0  0  0  0
 21 28  2  0  0  0  0
 21 23  1  0  0  0  0
 22 30  1  0  0  0  0
 24 27  1  0  0  0  0
 24 30  2  0  0  0  0
 25 15  1  0  0  0  0
 25 28  1  0  0  0  0
 26 21  1  0  0  0  0
 27 25  2  0  0  0  0
 28 29  1  0  0  0  0
 30 26  1  0  0  0  0
 31 17  1  0  0  0  0
 32 31  1  0  0  0  0
M  END
>  <MODEL>
6

>  <REMARK>
 VINA RESULT:      -8.1      2.666      5.316
  Name = 
  2 active torsions:
  status: ('A' for Active; 'I' for Inactive)
    1  A    between atoms: C_13  and  C_29
    2  A    between atoms: C_16  and  N_27
                            x       y       z     vdW  Elec       q    Type
                         _______ _______ _______ _____ _____    ______ ____

>  <TORSDO>
F 2

$$$$
=
 OpenBabel11062408223D

 32 37  0  0  1  0  0  0  0  0999 V2000
  161.6130  205.1630  150.0760 C   0  0  2  0  0  3  0  0  0  0  0  0
  161.6750  207.1870  151.5470 C   0  0  0  0  0  0  0  0  0  0  0  0
  160.7820  203.9610  150.0260 N   0  0  0  0  0  2  0  0  0  0  0  0
  161.5140  205.8100  151.4310 C   0  0  0  0  0  0  0  0  0  0  0  0
  161.4570  207.8200  152.7810 C   0  0  0  0  0  0  0  0  0  0  0  0
  161.8050  211.7430  149.3860 C   0  0  0  0  0  2  0  0  0  0  0  0
  161.9040  207.9470  150.2730 C   0  0  1  0  0  3  0  0  0  0  0  0
  161.2060  211.4670  151.8060 C   0  0  0  0  0  2  0  0  0  0  0  0
  161.0230  209.9680  151.5930 C   0  0  2  0  0  3  0  0  0  0  0  0
  161.1950  205.0350  152.5530 C   0  0  0  0  0  0  0  0  0  0  0  0
  161.3420  209.2450  152.8190 N   0  0  0  0  0  2  0  0  0  0  0  0
  161.0870  205.6470  153.8070 C   0  0  0  0  0  3  0  0  0  0  0  0
  160.8310  203.6570  152.3840 N   0  0  0  0  0  0  0  0  0  0  0  0
  160.9490  207.4600  149.2770 N   0  0  0  0  0  2  0  0  0  0  0  0
  161.2740  206.1100  148.9870 N   0  0  0  0  0  0  0  0  0  0  0  0
  161.9210  209.4810  150.4480 C   0  0  2  0  0  3  0  0  0  0  0  0
  161.2310  207.0380  153.9290 C   0  0  0  0  0  0  0  0  0  0  0  0
  160.6120  203.1550  151.2020 C   0  0  0  0  0  3  0  0  0  0  0  0
  160.8910  212.2190  150.5140 C   0  0  0  0  0  2  0  0  0  0  0  0
  161.6350  210.2430  149.1550 C   0  0  0  0  0  2  0  0  0  0  0  0
  162.9480  204.7160  145.9680 C   0  0  0  0  0  0  0  0  0  0  0  0
  161.0370  205.5180  143.1550 O   0  0  0  0  0  1  0  0  0  0  0  0
  163.9440  203.6650  145.6090 C   0  0  0  0  0  1  0  0  0  0  0  0
  160.2770  206.0040  145.3220 C   0  0  0  0  0  3  0  0  0  0  0  0
  161.3330  205.7070  147.6060 C   0  0  0  0  0  0  0  0  0  0  0  0
  162.7060  205.8010  144.9730 C   0  0  0  0  0  2  0  0  0  0  0  0
  160.4130  206.2320  146.7740 C   0  0  0  0  0  3  0  0  0  0  0  0
  162.3430  204.6930  147.1670 C   0  0  0  0  0  0  0  0  0  0  0  0
  162.7060  203.7190  148.0410 F   0  0  0  0  0  0  0  0  0  0  0  0
  161.2940  205.7660  144.4970 C   0  0  0  0  0  0  0  0  0  0  0  0
  161.0630  207.6710  155.2710 C   0  0  0  0  0  2  0  0  0  0  0  0
  159.7060  207.3190  155.8470 C   0  0  0  0  0  1  0  0  0  0  0  0
  1  3  1  1  0  0  0
  1  4  1  0  0  0  0
  2  5  1  0  0  0  0
  3 18  1  0  0  0  0
  4  2  2  0  0  0  0
  4 10  1  0  0  0  0
  5 11  1  0  0  0  0
  5 17  2  0  0  0  0
  6 19  1  0  0  0  0
  7 14  1  6  0  0  0
  7 16  1  0  0  0  0
  7  2  1  0  0  0  0
  9  8  1  1  0  0  0
  9 11  1  0  0  0  0
 10 12  2  0  0  0  0
 12 17  1  0  0  0  0
 13 10  1  0  0  0  0
 15 14  1  0  0  0  0
 15  1  1  0  0  0  0
 16 20  1  6  0  0  0
 16  9  1  0  0  0  0
 17 31  1  0  0  0  0
 18 13  2  0  0  0  0
 19  8  1  0  0  0  0
 20  6  1  0  0  0  0
 21 28  2  0  0  0  0
 22 30  1  0  0  0  0
 23 21  1  0  0  0  0
 24 27  1  0  0  0  0
 25 15  1  0  0  0  0
 26 21  1  0  0  0  0
 27 25  2  0  0  0  0
 28 25  1  0  0  0  0
 28 29  1  0  0  0  0
 30 26  1  0  0  0  0
 30 24  2  0  0  0  0
 31 32  1  0  0  0  0
M  END
>  <MODEL>
7

>  <REMARK>
 VINA RESULT:      -7.8      3.382      8.156
  Name = 
  2 active torsions:
  status: ('A' for Active; 'I' for Inactive)
    1  A    between atoms: C_13  and  C_29
    2  A    between atoms: C_16  and  N_27
                            x       y       z     vdW  Elec       q    Type
                         _______ _______ _______ _____ _____    ______ ____

>  <TORSDO>
F 2

$$$$
=
 OpenBabel11062408223D

 32 37  0  0  1  0  0  0  0  0999 V2000
  162.0210  207.7400  150.5600 C   0  0  2  0  0  3  0  0  0  0  0  0
  161.9530  205.6210  149.2320 C   0  0  0  0  0  0  0  0  0  0  0  0
  161.5540  209.1070  150.3300 N   0  0  0  0  0  2  0  0  0  0  0  0
  162.1330  207.0000  149.2550 C   0  0  0  0  0  0  0  0  0  0  0  0
  161.9250  204.9350  148.0070 C   0  0  0  0  0  0  0  0  0  0  0  0
  160.2800  201.4190  151.4660 C   0  0  0  0  0  2  0  0  0  0  0  0
  161.6140  204.9640  150.5380 C   0  0  1  0  0  3  0  0  0  0  0  0
  160.4670  201.5800  148.9700 C   0  0  0  0  0  2  0  0  0  0  0  0
  160.6320  203.0920  149.0760 C   0  0  2  0  0  3  0  0  0  0  0  0
  162.3510  207.7080  148.0670 C   0  0  0  0  0  0  0  0  0  0  0  0
  161.4550  203.5850  147.9770 N   0  0  0  0  0  2  0  0  0  0  0  0
  162.4360  207.0140  146.8550 C   0  0  0  0  0  3  0  0  0  0  0  0
  162.3300  209.1440  148.0820 N   0  0  0  0  0  0  0  0  0  0  0  0
  160.5830  205.7690  151.1950 N   0  0  0  0  0  2  0  0  0  0  0  0
  161.1580  207.0230  151.5280 N   0  0  0  0  0  0  0  0  0  0  0  0
  161.2740  203.4630  150.4190 C   0  0  2  0  0  3  0  0  0  0  0  0
  162.2390  205.6250  146.8200 C   0  0  0  0  0  0  0  0  0  0  0  0
  161.9340  209.8040  149.1330 C   0  0  0  0  0  3  0  0  0  0  0  0
  159.6210  201.0660  150.1340 C   0  0  0  0  0  2  0  0  0  0  0  0
  160.4530  202.9310  151.5940 C   0  0  0  0  0  2  0  0  0  0  0  0
  160.9440  209.7210  154.0850 C   0  0  0  0  0  0  0  0  0  0  0  0
  160.9730  208.2630  157.2600 O   0  0  0  0  0  1  0  0  0  0  0  0
  160.5120  211.1440  154.1950 C   0  0  0  0  0  1  0  0  0  0  0  0
  160.8800  206.9490  155.3170 C   0  0  0  0  0  3  0  0  0  0  0  0
  160.9370  207.5400  152.8540 C   0  0  0  0  0  0  0  0  0  0  0  0
  161.8630  209.1990  155.1380 C   0  0  0  0  0  2  0  0  0  0  0  0
  161.0340  206.6680  153.8760 C   0  0  0  0  0  3  0  0  0  0  0  0
  160.5500  208.9740  153.0410 C   0  0  0  0  0  0  0  0  0  0  0  0
  159.7950  209.5710  152.0840 F   0  0  0  0  0  0  0  0  0  0  0  0
  161.2090  208.0990  155.9010 C   0  0  0  0  0  0  0  0  0  0  0  0
  162.2880  204.9160  145.5070 C   0  0  0  0  0  2  0  0  0  0  0  0
  161.2070  205.4490  144.5870 C   0  0  0  0  0  1  0  0  0  0  0  0
  1  4  1  6  0  0  0
  1 15  1  0  0  0  0
  2  4  1  0  0  0  0
  3  1  1  0  0  0  0
  5  2  2  0  0  0  0
  6 20  1  0  0  0  0
  7  2  1  6  0  0  0
  7 14  1  0  0  0  0
  8 19  1  0  0  0  0
  9  8  1  6  0  0  0
  9 16  1  0  0  0  0
 10 13  1  0  0  0  0
 10  4  2  0  0  0  0
 11  5  1  0  0  0  0
 11  9  1  0  0  0  0
 12 10  1  0  0  0  0
 13 18  2  0  0  0  0
 14 15  1  0  0  0  0
 15 25  1  0  0  0  0
 16  7  1  0  0  0  0
 16 20  1  1  0  0  0
 17 12  2  0  0  0  0
 17  5  1  0  0  0  0
 18  3  1  0  0  0  0
 19  6  1  0  0  0  0
 21 23  1  0  0  0  0
 21 26  1  0  0  0  0
 24 30  2  0  0  0  0
 25 28  1  0  0  0  0
 25 27  2  0  0  0  0
 26 30  1  0  0  0  0
 27 24  1  0  0  0  0
 28 21  2  0  0  0  0
 29 28  1  0  0  0  0
 30 22  1  0  0  0  0
 31 17  1  0  0  0  0
 32 31  1  0  0  0  0
M  END
>  <MODEL>
8

>  <REMARK>
 VINA RESULT:      -7.5      1.479      2.117
  Name = 
  2 active torsions:
  status: ('A' for Active; 'I' for Inactive)
    1  A    between atoms: C_13  and  C_29
    2  A    between atoms: C_16  and  N_27
                            x       y       z     vdW  Elec       q    Type
                         _______ _______ _______ _____ _____    ______ ____

>  <TORSDO>
F 2

$$$$
=
 OpenBabel11062408223D

 32 37  0  0  1  0  0  0  0  0999 V2000
  161.9200  210.1320  151.2290 C   0  0  2  0  0  3  0  0  0  0  0  0
  162.0140  207.8050  150.3140 C   0  0  0  0  0  0  0  0  0  0  0  0
  161.2880  211.3770  150.7930 N   0  0  0  0  0  2  0  0  0  0  0  0
  162.0370  209.1750  150.0740 C   0  0  0  0  0  0  0  0  0  0  0  0
  161.9910  206.9010  149.2400 C   0  0  0  0  0  0  0  0  0  0  0  0
  160.9690  203.9520  153.3980 C   0  0  0  0  0  2  0  0  0  0  0  0
  161.8310  207.3750  151.7400 C   0  0  1  0  0  3  0  0  0  0  0  0
  160.9850  203.6580  150.9070 C   0  0  0  0  0  2  0  0  0  0  0  0
  160.9830  205.1720  150.7250 C   0  0  2  0  0  3  0  0  0  0  0  0
  162.1010  209.6650  148.7630 C   0  0  0  0  0  0  0  0  0  0  0  0
  161.6770  205.5290  149.4930 N   0  0  0  0  0  2  0  0  0  0  0  0
  162.1920  208.7670  147.6940 C   0  0  0  0  0  3  0  0  0  0  0  0
  161.9170  211.0680  148.5200 N   0  0  0  0  0  0  0  0  0  0  0  0
  160.7570  208.1810  152.3220 N   0  0  0  0  0  2  0  0  0  0  0  0
  161.2040  209.5270  152.3760 N   0  0  0  0  0  0  0  0  0  0  0  0
  161.6590  205.8520  151.9230 C   0  0  2  0  0  3  0  0  0  0  0  0
  162.1520  207.3830  147.9270 C   0  0  0  0  0  0  0  0  0  0  0  0
  161.5120  211.8710  149.4630 C   0  0  0  0  0  3  0  0  0  0  0  0
  160.2750  203.2890  152.2090 C   0  0  0  0  0  2  0  0  0  0  0  0
  160.9760  205.4700  153.2370 C   0  0  0  0  0  2  0  0  0  0  0  0
  162.0400  210.5150  155.8670 C   0  0  0  0  0  0  0  0  0  0  0  0
  159.2880  212.1580  157.2580 O   0  0  0  0  0  1  0  0  0  0  0  0
  163.2410  210.7440  156.7220 C   0  0  0  0  0  1  0  0  0  0  0  0
  159.3160  211.5280  154.9960 C   0  0  0  0  0  3  0  0  0  0  0  0
  161.0060  210.2590  153.6000 C   0  0  0  0  0  0  0  0  0  0  0  0
  160.7410  210.2680  156.5590 C   0  0  0  0  0  2  0  0  0  0  0  0
  159.7790  210.7690  153.8190 C   0  0  0  0  0  3  0  0  0  0  0  0
  162.1580  210.4840  154.5300 C   0  0  0  0  0  0  0  0  0  0  0  0
  163.4020  210.6200  154.0010 F   0  0  0  0  0  0  0  0  0  0  0  0
  159.7660  211.3480  156.2360 C   0  0  0  0  0  0  0  0  0  0  0  0
  162.2020  206.4480  146.7640 C   0  0  0  0  0  2  0  0  0  0  0  0
  160.8150  206.2700  146.1790 C   0  0  0  0  0  1  0  0  0  0  0  0
  1  4  1  6  0  0  0
  1 15  1  0  0  0  0
  3  1  1  0  0  0  0
  4  2  1  0  0  0  0
  5 11  1  0  0  0  0
  5  2  2  0  0  0  0
  7  2  1  6  0  0  0
  7 16  1  0  0  0  0
  7 14  1  0  0  0  0
  8 19  1  0  0  0  0
  9  8  1  1  0  0  0
  9 16  1  0  0  0  0
 10  4  2  0  0  0  0
 11  9  1  0  0  0  0
 12 17  2  0  0  0  0
 12 10  1  0  0  0  0
 13 10  1  0  0  0  0
 13 18  2  0  0  0  0
 14 15  1  0  0  0  0
 15 25  1  0  0  0  0
 16 20  1  1  0  0  0
 17  5  1  0  0  0  0
 18  3  1  0  0  0  0
 19  6  1  0  0  0  0
 20  6  1  0  0  0  0
 21 26  1  0  0  0  0
 21 23  1  0  0  0  0
 24 30  2  0  0  0  0
 25 27  2  0  0  0  0
 25 28  1  0  0  0  0
 27 24  1  0  0  0  0
 28 21  2  0  0  0  0
 29 28  1  0  0  0  0
 30 26  1  0  0  0  0
 30 22  1  0  0  0  0
 31 17  1  0  0  0  0
 32 31  1  0  0  0  0
M  END
>  <MODEL>
9

>  <REMARK>
 VINA RESULT:      -7.3      1.565      1.916
  Name = 
  2 active torsions:
  status: ('A' for Active; 'I' for Inactive)
    1  A    between atoms: C_13  and  C_29
    2  A    between atoms: C_16  and  N_27
                            x       y       z     vdW  Elec       q    Type
                         _______ _______ _______ _____ _____    ______ ____

>  <TORSDO>
F 2

$$$$
