=
 OpenBabel11052422443D

 31 34  0  0  1  0  0  0  0  0999 V2000
  161.5260  207.2910  150.4490 C   0  0  0  0  0  0  0  0  0  0  0  0
  161.3460  205.9500  150.0230 C   0  0  0  0  0  0  0  0  0  0  0  0
  160.8980  203.6670  150.4960 C   0  0  0  0  0  3  0  0  0  0  0  0
  161.4510  207.7130  151.8020 C   0  0  0  0  0  0  0  0  0  0  0  0
  160.7340  208.1970  154.1940 C   0  0  2  0  0  3  0  0  0  0  0  0
  161.0710  204.9500  150.9040 N   0  0  0  0  0  0  0  0  0  0  0  0
  162.0030  209.6240  149.8190 C   0  0  0  0  0  0  0  0  0  0  0  0
  161.7330  206.6410  147.7300 C   0  0  0  0  0  3  0  0  0  0  0  0
  160.9970  203.3510  149.1790 N   0  0  0  0  0  2  0  0  0  0  0  0
  161.9000  210.0000  151.1630 C   0  0  0  0  0  3  0  0  0  0  0  0
  161.8110  208.2760  149.4580 C   0  0  0  0  0  0  0  0  0  0  0  0
  161.1150  206.6900  153.2330 S   0  0  0  0  0  0  0  0  0  0  0  0
  161.3550  203.9760  147.0360 O   0  0  0  0  0  0  0  0  0  0  0  0
  161.6180  209.0440  152.1310 C   0  0  0  0  0  0  0  0  0  0  0  0
  161.4670  209.3750  153.5660 C   0  0  0  0  0  2  0  0  0  0  0  0
  161.9030  207.9190  148.1480 N   0  0  0  0  0  0  0  0  0  0  0  0
  161.4510  205.6330  148.6520 C   0  0  0  0  0  0  0  0  0  0  0  0
  161.2690  204.3030  148.2500 C   0  0  0  0  0  0  0  0  0  0  0  0
  161.0760  212.4210  149.6170 O   0  0  0  0  0  0  0  0  0  0  0  0
  161.8260  211.9450  148.7250 C   0  0  0  0  0  0  0  0  0  0  0  0
  162.2930  210.5890  148.7950 N   0  0  0  0  0  2  0  0  0  0  0  0
  162.4360  214.2500  148.0440 C   0  0  0  0  0  1  0  0  0  0  0  0
  162.2340  212.8140  147.5810 C   0  0  2  0  0  3  0  0  0  0  0  0
  161.8630  213.2190  145.1360 C   0  0  0  0  0  1  0  0  0  0  0  0
  161.2390  212.7070  146.4240 C   0  0  2  0  0  3  0  0  0  0  0  0
  160.0410  213.4230  146.7120 O   0  0  0  0  0  0  0  0  0  0  0  0
  158.7760  212.8480  146.5810 C   0  0  0  0  0  0  0  0  0  0  0  0
  157.9770  212.8150  147.5550 O   0  0  0  0  0  1  0  0  0  0  0  0
  158.3910  212.3120  145.3600 O   0  0  0  0  0  0  0  0  0  0  0  0
  161.1670  208.0310  155.6370 C   0  0  0  0  0  2  0  0  0  0  0  0
  160.5140  206.9520  156.2040 F   0  0  0  0  0  0  0  0  0  0  0  0
  1  4  1  0  0  0  0
  2  1  1  0  0  0  0
  2  6  1  0  0  0  0
  3  6  2  0  0  0  0
  4 14  2  0  0  0  0
  4 12  1  0  0  0  0
  5 30  1  1  0  0  0
  7 10  2  0  0  0  0
  8 16  2  0  0  0  0
  8 17  1  0  0  0  0
  9  3  1  0  0  0  0
 10 14  1  0  0  0  0
 11  7  1  0  0  0  0
 11  1  2  0  0  0  0
 12  5  1  0  0  0  0
 13 18  2  0  0  0  0
 14 15  1  0  0  0  0
 15  5  1  0  0  0  0
 16 11  1  0  0  0  0
 17  2  2  0  0  0  0
 18 17  1  0  0  0  0
 18  9  1  0  0  0  0
 20 21  1  0  0  0  0
 20 19  2  0  0  0  0
 21  7  1  0  0  0  0
 23 22  1  1  0  0  0
 23 20  1  0  0  0  0
 25 24  1  6  0  0  0
 25 26  1  0  0  0  0
 25 23  1  0  0  0  0
 27 26  1  0  0  0  0
 27 28  1  0  0  0  0
 29 27  2  0  0  0  0
 30 31  1  0  0  0  0
M  END
>  <MODEL>
1

>  <REMARK>
 VINA RESULT:      -8.5      0.000      0.000
  Name = 
  6 active torsions:
  status: ('A' for Active; 'I' for Inactive)
    1  A    between atoms: C_1  and  O_24
    2  A    between atoms: C_2  and  C_13
    3  A    between atoms: C_9  and  C_22
    4  A    between atoms: C_15  and  N_23
    5  A    between atoms: C_19  and  C_22
    6  A    between atoms: C_19  and  O_24
                            x       y       z     vdW  Elec       q    Type
                         _______ _______ _______ _____ _____    ______ ____

>  <TORSDO>
F 6

$$$$
=
 OpenBabel11052422443D

 31 34  0  0  1  0  0  0  0  0999 V2000
  161.4460  208.5360  152.2160 C   0  0  0  0  0  0  0  0  0  0  0  0
  161.2680  209.1160  153.4990 C   0  0  0  0  0  0  0  0  0  0  0  0
  161.2230  211.0100  154.9290 C   0  0  0  0  0  3  0  0  0  0  0  0
  161.7750  209.2730  151.0490 C   0  0  0  0  0  0  0  0  0  0  0  0
  161.8330  210.9210  149.1120 C   0  0  2  0  0  3  0  0  0  0  0  0
  161.3940  210.4560  153.7020 N   0  0  0  0  0  2  0  0  0  0  0  0
  161.4620  206.4890  150.8470 C   0  0  0  0  0  0  0  0  0  0  0  0
  160.8180  206.9160  154.4150 C   0  0  0  0  0  3  0  0  0  0  0  0
  160.9180  210.2270  155.9950 N   0  0  0  0  0  0  0  0  0  0  0  0
  161.7660  207.2560  149.7170 C   0  0  0  0  0  3  0  0  0  0  0  0
  161.2960  207.1240  152.0930 C   0  0  0  0  0  0  0  0  0  0  0  0
  162.0250  211.0420  150.9250 S   0  0  0  0  0  0  0  0  0  0  0  0
  160.4960  208.1840  156.8690 O   0  0  0  0  0  0  0  0  0  0  0  0
  161.9090  208.6340  149.8310 C   0  0  0  0  0  0  0  0  0  0  0  0
  162.2030  209.5100  148.6750 C   0  0  0  0  0  2  0  0  0  0  0  0
  160.9910  206.3730  153.1860 N   0  0  0  0  0  0  0  0  0  0  0  0
  160.9510  208.2920  154.5990 C   0  0  0  0  0  0  0  0  0  0  0  0
  160.7790  208.8830  155.8580 C   0  0  0  0  0  0  0  0  0  0  0  0
  160.1740  204.9090  148.7090 O   0  0  0  0  0  0  0  0  0  0  0  0
  160.6750  204.3240  149.7050 C   0  0  0  0  0  0  0  0  0  0  0  0
  161.3080  205.0640  150.7590 N   0  0  0  0  0  2  0  0  0  0  0  0
  161.5950  202.3030  150.8110 C   0  0  0  0  0  1  0  0  0  0  0  0
  160.6080  202.8330  149.7790 C   0  0  2  0  0  3  0  0  0  0  0  0
  161.2930  200.7670  148.5370 C   0  0  0  0  0  1  0  0  0  0  0  0
  160.8100  202.2020  148.4000 C   0  0  2  0  0  3  0  0  0  0  0  0
  161.7280  202.9610  147.6190 O   0  0  0  0  0  0  0  0  0  0  0  0
  161.5780  203.1280  146.2410 C   0  0  0  0  0  0  0  0  0  0  0  0
  160.8110  202.3790  145.5790 O   0  0  0  0  0  0  0  0  0  0  0  0
  162.2800  204.1350  145.5940 O   0  0  0  0  0  1  0  0  0  0  0  0
  162.7260  211.9270  148.4140 C   0  0  0  0  0  2  0  0  0  0  0  0
  162.3120  213.2120  148.7130 F   0  0  0  0  0  0  0  0  0  0  0  0
  1  2  2  0  0  0  0
  2  6  1  0  0  0  0
  2 17  1  0  0  0  0
  3  9  2  0  0  0  0
  4  1  1  0  0  0  0
  5 30  1  6  0  0  0
  5 12  1  0  0  0  0
  6  3  1  0  0  0  0
  7 11  1  0  0  0  0
  8 17  2  0  0  0  0
 10 14  1  0  0  0  0
 10  7  2  0  0  0  0
 11  1  1  0  0  0  0
 11 16  2  0  0  0  0
 12  4  1  0  0  0  0
 14  4  2  0  0  0  0
 15  5  1  0  0  0  0
 15 14  1  0  0  0  0
 16  8  1  0  0  0  0
 17 18  1  0  0  0  0
 18  9  1  0  0  0  0
 18 13  2  0  0  0  0
 19 20  2  0  0  0  0
 20 23  1  0  0  0  0
 20 21  1  0  0  0  0
 21  7  1  0  0  0  0
 23 22  1  1  0  0  0
 25 24  1  1  0  0  0
 25 23  1  0  0  0  0
 26 25  1  0  0  0  0
 27 26  1  0  0  0  0
 28 27  2  0  0  0  0
 29 27  1  0  0  0  0
 30 31  1  0  0  0  0
M  END
>  <MODEL>
2

>  <REMARK>
 VINA RESULT:      -7.5      4.047      7.923
  Name = 
  6 active torsions:
  status: ('A' for Active; 'I' for Inactive)
    1  A    between atoms: C_1  and  O_24
    2  A    between atoms: C_2  and  C_13
    3  A    between atoms: C_9  and  C_22
    4  A    between atoms: C_15  and  N_23
    5  A    between atoms: C_19  and  C_22
    6  A    between atoms: C_19  and  O_24
                            x       y       z     vdW  Elec       q    Type
                         _______ _______ _______ _____ _____    ______ ____

>  <TORSDO>
F 6

$$$$
=
 OpenBabel11052422443D

 31 34  0  0  1  0  0  0  0  0999 V2000
  161.4630  209.3610  150.9840 C   0  0  0  0  0  0  0  0  0  0  0  0
  161.0770  209.2440  152.3440 C   0  0  0  0  0  0  0  0  0  0  0  0
  160.3200  210.2130  154.3750 C   0  0  0  0  0  3  0  0  0  0  0  0
  161.4950  210.5870  150.2700 C   0  0  0  0  0  0  0  0  0  0  0  0
  160.9370  212.8130  149.1710 C   0  0  2  0  0  3  0  0  0  0  0  0
  160.6900  210.3250  153.0740 N   0  0  0  0  0  2  0  0  0  0  0  0
  162.2500  208.2290  148.9430 C   0  0  0  0  0  0  0  0  0  0  0  0
  161.4810  206.8550  152.2380 C   0  0  0  0  0  3  0  0  0  0  0  0
  160.3280  208.9990  154.9840 N   0  0  0  0  0  0  0  0  0  0  0  0
  162.2470  209.4560  148.2700 C   0  0  0  0  0  3  0  0  0  0  0  0
  161.8540  208.1770  150.2940 C   0  0  0  0  0  0  0  0  0  0  0  0
  161.0640  212.2100  150.8920 S   0  0  0  0  0  0  0  0  0  0  0  0
  160.7000  206.7700  154.9050 O   0  0  0  0  0  0  0  0  0  0  0  0
  161.8630  210.6120  148.9380 C   0  0  0  0  0  0  0  0  0  0  0  0
  161.8110  211.9380  148.2820 C   0  0  0  0  0  2  0  0  0  0  0  0
  161.8490  206.9790  150.9390 N   0  0  0  0  0  0  0  0  0  0  0  0
  161.0880  207.9780  152.9660 C   0  0  0  0  0  0  0  0  0  0  0  0
  160.7030  207.8810  154.3100 C   0  0  0  0  0  0  0  0  0  0  0  0
  160.7460  206.6630  146.9400 O   0  0  0  0  0  0  0  0  0  0  0  0
  161.8860  206.2770  147.3090 C   0  0  0  0  0  0  0  0  0  0  0  0
  162.6410  207.0160  148.2800 N   0  0  0  0  0  2  0  0  0  0  0  0
  162.2280  204.9980  145.2110 C   0  0  0  0  0  1  0  0  0  0  0  0
  162.4560  205.0300  146.7160 C   0  0  2  0  0  3  0  0  0  0  0  0
  161.1760  202.8950  146.4240 C   0  0  0  0  0  1  0  0  0  0  0  0
  161.9070  203.7850  147.4160 C   0  0  2  0  0  3  0  0  0  0  0  0
  161.0420  204.1420  148.4910 O   0  0  0  0  0  0  0  0  0  0  0  0
  160.8810  203.3380  149.6210 C   0  0  0  0  0  0  0  0  0  0  0  0
  161.3920  203.6650  150.7250 O   0  0  0  0  0  1  0  0  0  0  0  0
  160.1420  202.1670  149.5270 O   0  0  0  0  0  0  0  0  0  0  0  0
  161.3900  214.2570  149.0790 C   0  0  0  0  0  2  0  0  0  0  0  0
  162.5900  214.3310  148.3960 F   0  0  0  0  0  0  0  0  0  0  0  0
  1  2  2  0  0  0  0
  2 17  1  0  0  0  0
  2  6  1  0  0  0  0
  3  9  2  0  0  0  0
  4 12  1  0  0  0  0
  4  1  1  0  0  0  0
  5 30  1  1  0  0  0
  5 12  1  0  0  0  0
  6  3  1  0  0  0  0
  7 11  1  0  0  0  0
  8 17  2  0  0  0  0
 10 14  1  0  0  0  0
 10  7  2  0  0  0  0
 11 16  2  0  0  0  0
 11  1  1  0  0  0  0
 14  4  2  0  0  0  0
 15 14  1  0  0  0  0
 15  5  1  0  0  0  0
 16  8  1  0  0  0  0
 17 18  1  0  0  0  0
 18 13  2  0  0  0  0
 18  9  1  0  0  0  0
 19 20  2  0  0  0  0
 20 21  1  0  0  0  0
 21  7  1  0  0  0  0
 23 22  1  6  0  0  0
 23 20  1  0  0  0  0
 23 25  1  0  0  0  0
 25 24  1  6  0  0  0
 25 26  1  0  0  0  0
 26 27  1  0  0  0  0
 27 28  1  0  0  0  0
 29 27  2  0  0  0  0
 31 30  1  0  0  0  0
M  END
>  <MODEL>
3

>  <REMARK>
 VINA RESULT:      -7.5      3.665      7.099
  Name = 
  6 active torsions:
  status: ('A' for Active; 'I' for Inactive)
    1  A    between atoms: C_1  and  O_24
    2  A    between atoms: C_2  and  C_13
    3  A    between atoms: C_9  and  C_22
    4  A    between atoms: C_15  and  N_23
    5  A    between atoms: C_19  and  C_22
    6  A    between atoms: C_19  and  O_24
                            x       y       z     vdW  Elec       q    Type
                         _______ _______ _______ _____ _____    ______ ____

>  <TORSDO>
F 6

$$$$
=
 OpenBabel11052422443D

 31 34  0  0  1  0  0  0  0  0999 V2000
  161.4810  208.0710  151.0930 C   0  0  0  0  0  0  0  0  0  0  0  0
  161.2310  208.0080  152.4880 C   0  0  0  0  0  0  0  0  0  0  0  0
  160.6360  206.7870  154.4350 C   0  0  0  0  0  3  0  0  0  0  0  0
  161.3750  206.9600  150.2160 C   0  0  0  0  0  0  0  0  0  0  0  0
  161.6080  204.7090  149.0540 C   0  0  2  0  0  3  0  0  0  0  0  0
  160.8740  206.8470  153.1000 N   0  0  0  0  0  2  0  0  0  0  0  0
  162.1080  209.4560  149.1550 C   0  0  0  0  0  0  0  0  0  0  0  0
  161.7190  210.3770  152.6670 C   0  0  0  0  0  3  0  0  0  0  0  0
  160.7510  207.9040  155.1990 N   0  0  0  0  0  0  0  0  0  0  0  0
  162.0130  208.3300  148.3290 C   0  0  0  0  0  3  0  0  0  0  0  0
  161.8500  209.3290  150.5340 C   0  0  0  0  0  0  0  0  0  0  0  0
  160.9280  205.2820  150.6500 S   0  0  0  0  0  0  0  0  0  0  0  0
  161.2020  210.1110  155.3860 O   0  0  0  0  0  0  0  0  0  0  0  0
  161.6570  207.1010  148.8700 C   0  0  0  0  0  0  0  0  0  0  0  0
  161.5640  205.8640  148.0620 C   0  0  0  0  0  2  0  0  0  0  0  0
  161.9540  210.4260  151.3330 N   0  0  0  0  0  0  0  0  0  0  0  0
  161.3540  209.1750  153.2720 C   0  0  0  0  0  0  0  0  0  0  0  0
  161.1040  209.0930  154.6490 C   0  0  0  0  0  0  0  0  0  0  0  0
  160.4680  211.3130  147.5470 O   0  0  0  0  0  0  0  0  0  0  0  0
  161.6520  211.6210  147.8450 C   0  0  0  0  0  0  0  0  0  0  0  0
  162.4740  210.7400  148.6250 N   0  0  0  0  0  2  0  0  0  0  0  0
  161.9760  214.0100  148.4260 C   0  0  0  0  0  1  0  0  0  0  0  0
  162.2000  212.9290  147.3770 C   0  0  2  0  0  3  0  0  0  0  0  0
  162.7460  213.6360  145.0360 C   0  0  0  0  0  1  0  0  0  0  0  0
  161.6270  213.3120  146.0120 C   0  0  2  0  0  3  0  0  0  0  0  0
  160.7330  214.4160  146.1240 O   0  0  0  0  0  0  0  0  0  0  0  0
  159.3680  214.3040  145.8520 C   0  0  0  0  0  0  0  0  0  0  0  0
  158.5170  214.3730  146.7790 O   0  0  0  0  0  1  0  0  0  0  0  0
  158.9440  214.1210  144.5440 O   0  0  0  0  0  0  0  0  0  0  0  0
  160.8030  203.5410  148.5200 C   0  0  0  0  0  2  0  0  0  0  0  0
  160.2470  202.8340  149.5700 F   0  0  0  0  0  0  0  0  0  0  0  0
  1  2  2  0  0  0  0
  2  6  1  0  0  0  0
  2 17  1  0  0  0  0
  3  9  2  0  0  0  0
  4 12  1  0  0  0  0
  4  1  1  0  0  0  0
  5 30  1  6  0  0  0
  5 12  1  0  0  0  0
  6  3  1  0  0  0  0
  7 11  1  0  0  0  0
  8 17  2  0  0  0  0
 10 14  1  0  0  0  0
 10  7  2  0  0  0  0
 11  1  1  0  0  0  0
 11 16  2  0  0  0  0
 14  4  2  0  0  0  0
 15 14  1  0  0  0  0
 15  5  1  0  0  0  0
 16  8  1  0  0  0  0
 17 18  1  0  0  0  0
 18  9  1  0  0  0  0
 18 13  2  0  0  0  0
 19 20  2  0  0  0  0
 20 21  1  0  0  0  0
 21  7  1  0  0  0  0
 23 20  1  0  0  0  0
 23 22  1  1  0  0  0
 25 24  1  6  0  0  0
 25 26  1  0  0  0  0
 25 23  1  0  0  0  0
 27 26  1  0  0  0  0
 27 28  1  0  0  0  0
 29 27  2  0  0  0  0
 30 31  1  0  0  0  0
M  END
>  <MODEL>
4

>  <REMARK>
 VINA RESULT:      -7.3      2.574      4.534
  Name = 
  6 active torsions:
  status: ('A' for Active; 'I' for Inactive)
    1  A    between atoms: C_1  and  O_24
    2  A    between atoms: C_2  and  C_13
    3  A    between atoms: C_9  and  C_22
    4  A    between atoms: C_15  and  N_23
    5  A    between atoms: C_19  and  C_22
    6  A    between atoms: C_19  and  O_24
                            x       y       z     vdW  Elec       q    Type
                         _______ _______ _______ _____ _____    ______ ____

>  <TORSDO>
F 6

$$$$
=
 OpenBabel11052422443D

 31 34  0  0  1  0  0  0  0  0999 V2000
  161.1490  210.1660  151.4980 C   0  0  0  0  0  0  0  0  0  0  0  0
  160.7230  210.5190  152.8050 C   0  0  0  0  0  0  0  0  0  0  0  0
  160.0450  212.1450  154.3960 C   0  0  0  0  0  3  0  0  0  0  0  0
  161.3420  211.0990  150.4460 C   0  0  0  0  0  0  0  0  0  0  0  0
  161.0760  212.9210  148.6900 C   0  0  2  0  0  3  0  0  0  0  0  0
  160.4530  211.8080  153.1460 N   0  0  0  0  0  2  0  0  0  0  0  0
  161.8380  208.3790  149.9500 C   0  0  0  0  0  0  0  0  0  0  0  0
  160.8420  208.1860  153.4570 C   0  0  0  0  0  3  0  0  0  0  0  0
  159.8950  211.1860  155.3460 N   0  0  0  0  0  0  0  0  0  0  0  0
  161.9960  209.3300  148.9350 C   0  0  0  0  0  3  0  0  0  0  0  0
  161.4100  208.7920  151.2270 C   0  0  0  0  0  0  0  0  0  0  0  0
  161.0940  212.8710  150.5170 S   0  0  0  0  0  0  0  0  0  0  0  0
  160.0000  209.0170  155.9740 O   0  0  0  0  0  0  0  0  0  0  0  0
  161.7390  210.6700  149.1940 C   0  0  0  0  0  0  0  0  0  0  0  0
  161.8580  211.7250  148.1620 C   0  0  0  0  0  2  0  0  0  0  0  0
  161.2490  207.8610  152.2060 N   0  0  0  0  0  0  0  0  0  0  0  0
  160.5710  209.5150  153.7840 C   0  0  0  0  0  0  0  0  0  0  0  0
  160.1490  209.8820  155.0690 C   0  0  0  0  0  0  0  0  0  0  0  0
  160.1000  206.3880  148.6320 O   0  0  0  0  0  0  0  0  0  0  0  0
  161.2290  206.0420  149.0670 C   0  0  0  0  0  0  0  0  0  0  0  0
  162.0970  206.9870  149.7120 N   0  0  0  0  0  2  0  0  0  0  0  0
  161.6360  204.2200  147.4340 C   0  0  0  0  0  1  0  0  0  0  0  0
  161.6670  204.6230  148.9020 C   0  0  2  0  0  3  0  0  0  0  0  0
  160.8630  204.1540  151.2290 C   0  0  0  0  0  1  0  0  0  0  0  0
  160.8410  203.6840  149.7840 C   0  0  2  0  0  3  0  0  0  0  0  0
  161.3170  202.3450  149.6910 O   0  0  0  0  0  0  0  0  0  0  0  0
  160.5940  201.3360  149.0520 C   0  0  0  0  0  0  0  0  0  0  0  0
  159.3460  201.2420  149.2020 O   0  0  0  0  0  1  0  0  0  0  0  0
  161.2570  200.4300  148.2370 O   0  0  0  0  0  0  0  0  0  0  0  0
  161.7000  214.2070  148.1870 C   0  0  0  0  0  2  0  0  0  0  0  0
  163.0280  213.9940  147.8680 F   0  0  0  0  0  0  0  0  0  0  0  0
  1  2  2  0  0  0  0
  2  6  1  0  0  0  0
  2 17  1  0  0  0  0
  3  9  2  0  0  0  0
  4 12  1  0  0  0  0
  4  1  1  0  0  0  0
  5 30  1  1  0  0  0
  5 12  1  0  0  0  0
  6  3  1  0  0  0  0
  7 11  1  0  0  0  0
  8 17  2  0  0  0  0
 10 14  1  0  0  0  0
 10  7  2  0  0  0  0
 11  1  1  0  0  0  0
 11 16  2  0  0  0  0
 14  4  2  0  0  0  0
 15  5  1  0  0  0  0
 15 14  1  0  0  0  0
 16  8  1  0  0  0  0
 17 18  1  0  0  0  0
 18  9  1  0  0  0  0
 18 13  2  0  0  0  0
 19 20  2  0  0  0  0
 20 21  1  0  0  0  0
 21  7  1  0  0  0  0
 23 22  1  6  0  0  0
 23 20  1  0  0  0  0
 23 25  1  0  0  0  0
 25 24  1  1  0  0  0
 26 25  1  0  0  0  0
 27 28  1  0  0  0  0
 27 26  1  0  0  0  0
 29 27  2  0  0  0  0
 31 30  1  0  0  0  0
M  END
>  <MODEL>
5

>  <REMARK>
 VINA RESULT:      -7.1      3.812      8.014
  Name = 
  6 active torsions:
  status: ('A' for Active; 'I' for Inactive)
    1  A    between atoms: C_1  and  O_24
    2  A    between atoms: C_2  and  C_13
    3  A    between atoms: C_9  and  C_22
    4  A    between atoms: C_15  and  N_23
    5  A    between atoms: C_19  and  C_22
    6  A    between atoms: C_19  and  O_24
                            x       y       z     vdW  Elec       q    Type
                         _______ _______ _______ _____ _____    ______ ____

>  <TORSDO>
F 6

$$$$
=
 OpenBabel11052422443D

 31 34  0  0  1  0  0  0  0  0999 V2000
  161.2780  209.4010  151.1860 C   0  0  0  0  0  0  0  0  0  0  0  0
  161.0670  210.7810  150.9300 C   0  0  0  0  0  0  0  0  0  0  0  0
  160.4110  212.9460  151.6510 C   0  0  0  0  0  3  0  0  0  0  0  0
  161.0350  208.7780  152.4370 C   0  0  0  0  0  0  0  0  0  0  0  0
  161.0030  208.1120  154.8920 C   0  0  2  0  0  3  0  0  0  0  0  0
  160.6130  211.6260  151.8950 N   0  0  0  0  0  0  0  0  0  0  0  0
  161.9830  207.2110  150.3080 C   0  0  0  0  0  0  0  0  0  0  0  0
  161.7970  210.4540  148.6410 C   0  0  0  0  0  3  0  0  0  0  0  0
  160.6620  213.4570  150.4180 N   0  0  0  0  0  2  0  0  0  0  0  0
  161.7490  206.6400  151.5640 C   0  0  0  0  0  3  0  0  0  0  0  0
  161.7550  208.5880  150.1170 C   0  0  0  0  0  0  0  0  0  0  0  0
  160.4330  209.5590  153.9320 S   0  0  0  0  0  0  0  0  0  0  0  0
  161.3400  213.1720  148.2800 O   0  0  0  0  0  0  0  0  0  0  0  0
  161.2880  207.4310  152.6100 C   0  0  0  0  0  0  0  0  0  0  0  0
  161.0450  206.9010  153.9710 C   0  0  0  0  0  2  0  0  0  0  0  0
  161.9950  209.1380  148.8960 N   0  0  0  0  0  0  0  0  0  0  0  0
  161.3320  211.3010  149.6460 C   0  0  0  0  0  0  0  0  0  0  0  0
  161.1170  212.6660  149.4130 C   0  0  0  0  0  0  0  0  0  0  0  0
  160.4580  206.1530  148.0100 O   0  0  0  0  0  0  0  0  0  0  0  0
  161.6920  205.9190  148.1040 C   0  0  0  0  0  0  0  0  0  0  0  0
  162.4600  206.4190  149.2080 N   0  0  0  0  0  2  0  0  0  0  0  0
  162.0870  205.7020  145.6640 C   0  0  0  0  0  1  0  0  0  0  0  0
  162.3600  205.1090  147.0400 C   0  0  2  0  0  3  0  0  0  0  0  0
  161.1880  203.2170  145.8890 C   0  0  0  0  0  1  0  0  0  0  0  0
  161.9560  203.6370  147.1320 C   0  0  2  0  0  3  0  0  0  0  0  0
  161.1780  203.3910  148.3010 O   0  0  0  0  0  0  0  0  0  0  0  0
  160.7710  202.1090  148.6730 C   0  0  0  0  0  0  0  0  0  0  0  0
  159.6780  201.9270  149.2740 O   0  0  0  0  0  1  0  0  0  0  0  0
  161.5760  201.0200  148.3700 O   0  0  0  0  0  0  0  0  0  0  0  0
  160.0670  207.8430  156.0550 C   0  0  0  0  0  2  0  0  0  0  0  0
  159.1130  206.9130  155.6860 F   0  0  0  0  0  0  0  0  0  0  0  0
  1  4  1  0  0  0  0
  2  1  1  0  0  0  0
  2  6  1  0  0  0  0
  3  6  2  0  0  0  0
  4 14  2  0  0  0  0
  4 12  1  0  0  0  0
  5 30  1  1  0  0  0
  7 10  2  0  0  0  0
  8 16  2  0  0  0  0
  8 17  1  0  0  0  0
  9  3  1  0  0  0  0
 10 14  1  0  0  0  0
 11  7  1  0  0  0  0
 11  1  2  0  0  0  0
 12  5  1  0  0  0  0
 13 18  2  0  0  0  0
 14 15  1  0  0  0  0
 15  5  1  0  0  0  0
 16 11  1  0  0  0  0
 17  2  2  0  0  0  0
 18 17  1  0  0  0  0
 18  9  1  0  0  0  0
 19 20  2  0  0  0  0
 20 21  1  0  0  0  0
 21  7  1  0  0  0  0
 23 22  1  6  0  0  0
 23 25  1  0  0  0  0
 23 20  1  0  0  0  0
 25 24  1  6  0  0  0
 25 26  1  0  0  0  0
 26 27  1  0  0  0  0
 27 28  1  0  0  0  0
 29 27  2  0  0  0  0
 31 30  1  0  0  0  0
M  END
>  <MODEL>
6

>  <REMARK>
 VINA RESULT:      -7.0      2.160      6.806
  Name = 
  6 active torsions:
  status: ('A' for Active; 'I' for Inactive)
    1  A    between atoms: C_1  and  O_24
    2  A    between atoms: C_2  and  C_13
    3  A    between atoms: C_9  and  C_22
    4  A    between atoms: C_15  and  N_23
    5  A    between atoms: C_19  and  C_22
    6  A    between atoms: C_19  and  O_24
                            x       y       z     vdW  Elec       q    Type
                         _______ _______ _______ _____ _____    ______ ____

>  <TORSDO>
F 6

$$$$
=
 OpenBabel11052422443D

 31 34  0  0  1  0  0  0  0  0999 V2000
  161.3240  208.9520  151.2990 C   0  0  0  0  0  0  0  0  0  0  0  0
  161.2660  210.2970  150.8500 C   0  0  0  0  0  0  0  0  0  0  0  0
  160.8440  212.5990  151.2460 C   0  0  0  0  0  3  0  0  0  0  0  0
  161.0020  208.5410  152.6190 C   0  0  0  0  0  0  0  0  0  0  0  0
  160.8750  208.2350  155.1410 C   0  0  2  0  0  3  0  0  0  0  0  0
  160.8990  211.3130  151.6760 N   0  0  0  0  0  0  0  0  0  0  0  0
  161.7930  206.5970  150.7520 C   0  0  0  0  0  0  0  0  0  0  0  0
  161.9770  209.5740  148.6460 C   0  0  0  0  0  3  0  0  0  0  0  0
  161.1610  212.9020  149.9600 N   0  0  0  0  0  2  0  0  0  0  0  0
  161.4860  206.2380  152.0700 C   0  0  0  0  0  3  0  0  0  0  0  0
  161.7190  207.9500  150.3660 C   0  0  0  0  0  0  0  0  0  0  0  0
  160.4760  209.5850  153.9760 S   0  0  0  0  0  0  0  0  0  0  0  0
  161.8230  212.2480  147.8990 O   0  0  0  0  0  0  0  0  0  0  0  0
  161.1050  207.2120  152.9830 C   0  0  0  0  0  0  0  0  0  0  0  0
  160.7930  206.9090  154.3980 C   0  0  0  0  0  2  0  0  0  0  0  0
  162.0280  208.2940  149.0860 N   0  0  0  0  0  0  0  0  0  0  0  0
  161.5980  210.6000  149.5120 C   0  0  0  0  0  0  0  0  0  0  0  0
  161.5360  211.9330  149.0860 C   0  0  0  0  0  0  0  0  0  0  0  0
  160.2420  205.5260  148.4780 O   0  0  0  0  0  0  0  0  0  0  0  0
  161.4110  205.1110  148.6880 C   0  0  0  0  0  0  0  0  0  0  0  0
  162.1900  205.6130  149.7850 N   0  0  0  0  0  2  0  0  0  0  0  0
  162.5460  204.7360  146.5150 C   0  0  0  0  0  1  0  0  0  0  0  0
  161.9920  204.0820  147.7740 C   0  0  2  0  0  3  0  0  0  0  0  0
  160.8990  201.9870  148.6070 C   0  0  0  0  0  1  0  0  0  0  0  0
  160.9740  202.9830  147.4620 C   0  0  2  0  0  3  0  0  0  0  0  0
  161.2990  202.3160  146.2450 O   0  0  0  0  0  0  0  0  0  0  0  0
  160.3970  202.2150  145.1840 C   0  0  0  0  0  0  0  0  0  0  0  0
  159.9320  201.0960  144.8370 O   0  0  0  0  0  1  0  0  0  0  0  0
  160.0030  203.3610  144.5090 O   0  0  0  0  0  0  0  0  0  0  0  0
  159.9060  208.2340  156.3070 C   0  0  0  0  0  2  0  0  0  0  0  0
  159.2890  207.0010  156.4060 F   0  0  0  0  0  0  0  0  0  0  0  0
  1  4  1  0  0  0  0
  2  1  1  0  0  0  0
  2  6  1  0  0  0  0
  3  6  2  0  0  0  0
  4 14  2  0  0  0  0
  4 12  1  0  0  0  0
  5 30  1  1  0  0  0
  7 10  2  0  0  0  0
  8 16  2  0  0  0  0
  8 17  1  0  0  0  0
  9  3  1  0  0  0  0
 10 14  1  0  0  0  0
 11  7  1  0  0  0  0
 11  1  2  0  0  0  0
 12  5  1  0  0  0  0
 13 18  2  0  0  0  0
 14 15  1  0  0  0  0
 15  5  1  0  0  0  0
 16 11  1  0  0  0  0
 17  2  2  0  0  0  0
 18 17  1  0  0  0  0
 18  9  1  0  0  0  0
 19 20  2  0  0  0  0
 20 21  1  0  0  0  0
 21  7  1  0  0  0  0
 23 22  1  6  0  0  0
 23 20  1  0  0  0  0
 25 23  1  0  0  0  0
 25 24  1  1  0  0  0
 26 25  1  0  0  0  0
 27 26  1  0  0  0  0
 28 27  1  0  0  0  0
 29 27  2  0  0  0  0
 30 31  1  0  0  0  0
M  END
>  <MODEL>
7

>  <REMARK>
 VINA RESULT:      -7.0      2.157      6.851
  Name = 
  6 active torsions:
  status: ('A' for Active; 'I' for Inactive)
    1  A    between atoms: C_1  and  O_24
    2  A    between atoms: C_2  and  C_13
    3  A    between atoms: C_9  and  C_22
    4  A    between atoms: C_15  and  N_23
    5  A    between atoms: C_19  and  C_22
    6  A    between atoms: C_19  and  O_24
                            x       y       z     vdW  Elec       q    Type
                         _______ _______ _______ _____ _____    ______ ____

>  <TORSDO>
F 6

$$$$
=
 OpenBabel11052422443D

 31 34  0  0  1  0  0  0  0  0999 V2000
  161.5030  205.8660  150.5720 C   0  0  0  0  0  0  0  0  0  0  0  0
  161.6080  206.7240  149.4470 C   0  0  0  0  0  0  0  0  0  0  0  0
  161.5740  207.0800  147.1000 C   0  0  0  0  0  3  0  0  0  0  0  0
  161.2640  204.4690  150.4860 C   0  0  0  0  0  0  0  0  0  0  0  0
  160.3190  202.1580  150.0010 C   0  0  2  0  0  3  0  0  0  0  0  0
  161.4740  206.2590  148.1760 N   0  0  0  0  0  0  0  0  0  0  0  0
  161.5650  205.6370  153.0230 C   0  0  0  0  0  0  0  0  0  0  0  0
  161.9990  208.6000  150.9340 C   0  0  0  0  0  3  0  0  0  0  0  0
  161.8140  208.4060  147.2740 N   0  0  0  0  0  2  0  0  0  0  0  0
  161.3080  204.2670  152.8940 C   0  0  0  0  0  3  0  0  0  0  0  0
  161.6570  206.4380  151.8680 C   0  0  0  0  0  0  0  0  0  0  0  0
  161.0400  203.5030  148.9950 S   0  0  0  0  0  0  0  0  0  0  0  0
  162.1800  210.1670  148.6450 O   0  0  0  0  0  0  0  0  0  0  0  0
  161.1530  203.7060  151.6330 C   0  0  0  0  0  0  0  0  0  0  0  0
  160.8520  202.2720  151.4230 C   0  0  0  0  0  2  0  0  0  0  0  0
  161.8970  207.7710  152.0010 N   0  0  0  0  0  0  0  0  0  0  0  0
  161.8570  208.1000  149.6400 C   0  0  0  0  0  0  0  0  0  0  0  0
  161.9570  208.9320  148.5170 C   0  0  0  0  0  0  0  0  0  0  0  0
  159.8620  207.6690  154.3260 O   0  0  0  0  0  0  0  0  0  0  0  0
  160.8830  207.2330  154.9200 C   0  0  0  0  0  0  0  0  0  0  0  0
  161.7300  206.2450  154.3140 N   0  0  0  0  0  2  0  0  0  0  0  0
  160.0770  207.4530  157.2560 C   0  0  0  0  0  1  0  0  0  0  0  0
  161.2080  207.7550  156.2820 C   0  0  2  0  0  3  0  0  0  0  0  0
  162.7030  209.5540  157.1800 C   0  0  0  0  0  1  0  0  0  0  0  0
  161.5550  209.2440  156.2340 C   0  0  2  0  0  3  0  0  0  0  0  0
  160.4200  210.0450  156.5530 O   0  0  0  0  0  0  0  0  0  0  0  0
  159.7420  210.7980  155.5930 C   0  0  0  0  0  0  0  0  0  0  0  0
  160.3710  211.5310  154.7850 O   0  0  0  0  0  0  0  0  0  0  0  0
  158.3570  210.7330  155.5250 O   0  0  0  0  0  1  0  0  0  0  0  0
  160.6840  200.8060  149.4210 C   0  0  0  0  0  2  0  0  0  0  0  0
  161.3960  200.9730  148.2470 F   0  0  0  0  0  0  0  0  0  0  0  0
  1 11  1  0  0  0  0
  2 17  2  0  0  0  0
  2  1  1  0  0  0  0
  3  9  1  0  0  0  0
  3  6  2  0  0  0  0
  4  1  2  0  0  0  0
  4 14  1  0  0  0  0
  5 30  1  6  0  0  0
  5 15  1  0  0  0  0
  6  2  1  0  0  0  0
  7 21  1  0  0  0  0
  8 16  2  0  0  0  0
  9 18  1  0  0  0  0
 10  7  1  0  0  0  0
 11 16  1  0  0  0  0
 11  7  2  0  0  0  0
 12  5  1  0  0  0  0
 12  4  1  0  0  0  0
 14 10  2  0  0  0  0
 15 14  1  0  0  0  0
 17  8  1  0  0  0  0
 18 13  2  0  0  0  0
 18 17  1  0  0  0  0
 19 20  2  0  0  0  0
 20 23  1  0  0  0  0
 21 20  1  0  0  0  0
 23 22  1  1  0  0  0
 25 23  1  0  0  0  0
 25 26  1  0  0  0  0
 25 24  1  1  0  0  0
 27 26  1  0  0  0  0
 28 27  2  0  0  0  0
 29 27  1  0  0  0  0
 31 30  1  0  0  0  0
M  END
>  <MODEL>
8

>  <REMARK>
 VINA RESULT:      -6.7      3.755      7.255
  Name = 
  6 active torsions:
  status: ('A' for Active; 'I' for Inactive)
    1  A    between atoms: C_1  and  O_24
    2  A    between atoms: C_2  and  C_13
    3  A    between atoms: C_9  and  C_22
    4  A    between atoms: C_15  and  N_23
    5  A    between atoms: C_19  and  C_22
    6  A    between atoms: C_19  and  O_24
                            x       y       z     vdW  Elec       q    Type
                         _______ _______ _______ _____ _____    ______ ____

>  <TORSDO>
F 6

$$$$
=
 OpenBabel11052422443D

 31 34  0  0  1  0  0  0  0  0999 V2000
  161.3100  207.7010  151.0330 C   0  0  0  0  0  0  0  0  0  0  0  0
  161.5640  209.0140  150.5580 C   0  0  0  0  0  0  0  0  0  0  0  0
  161.9230  211.3280  150.9510 C   0  0  0  0  0  3  0  0  0  0  0  0
  161.1440  207.3700  152.4030 C   0  0  0  0  0  0  0  0  0  0  0  0
  161.4240  207.0510  154.9110 C   0  0  2  0  0  3  0  0  0  0  0  0
  161.6790  210.0720  151.4050 N   0  0  0  0  0  0  0  0  0  0  0  0
  160.9510  205.3270  150.4840 C   0  0  0  0  0  0  0  0  0  0  0  0
  161.5900  208.1700  148.2840 C   0  0  0  0  0  3  0  0  0  0  0  0
  162.0590  211.5560  149.6190 N   0  0  0  0  0  2  0  0  0  0  0  0
  160.8140  205.0410  151.8470 C   0  0  0  0  0  3  0  0  0  0  0  0
  161.2050  206.6510  150.0750 C   0  0  0  0  0  0  0  0  0  0  0  0
  161.2210  208.4880  153.8000 S   0  0  0  0  0  0  0  0  0  0  0  0
  162.0870  210.7890  147.4920 O   0  0  0  0  0  0  0  0  0  0  0  0
  160.9200  206.0610  152.7850 C   0  0  0  0  0  0  0  0  0  0  0  0
  160.8130  205.8270  154.2420 C   0  0  0  0  0  2  0  0  0  0  0  0
  161.3470  206.9210  148.7490 N   0  0  0  0  0  0  0  0  0  0  0  0
  161.7050  209.2400  149.1720 C   0  0  0  0  0  0  0  0  0  0  0  0
  161.9560  210.5430  148.7220 C   0  0  0  0  0  0  0  0  0  0  0  0
  160.8230  202.4040  150.8840 O   0  0  0  0  0  0  0  0  0  0  0  0
  160.7860  202.8780  149.7190 C   0  0  0  0  0  0  0  0  0  0  0  0
  160.8470  204.2940  149.4920 N   0  0  0  0  0  2  0  0  0  0  0  0
  161.6570  200.7890  148.7030 C   0  0  0  0  0  1  0  0  0  0  0  0
  160.6750  201.9440  148.5580 C   0  0  2  0  0  3  0  0  0  0  0  0
  160.7950  201.7140  146.0660 C   0  0  0  0  0  1  0  0  0  0  0  0
  160.8400  202.6880  147.2320 C   0  0  2  0  0  3  0  0  0  0  0  0
  162.0560  203.4310  147.2110 O   0  0  0  0  0  0  0  0  0  0  0  0
  162.2900  204.4560  146.2920 C   0  0  0  0  0  0  0  0  0  0  0  0
  163.4560  204.7050  145.8860 O   0  0  0  0  0  1  0  0  0  0  0  0
  161.2230  205.2050  145.8170 O   0  0  0  0  0  0  0  0  0  0  0  0
  160.7420  207.3060  156.2400 C   0  0  0  0  0  2  0  0  0  0  0  0
  159.4060  206.9610  156.1580 F   0  0  0  0  0  0  0  0  0  0  0  0
  1  4  1  0  0  0  0
  2  1  1  0  0  0  0
  2  6  1  0  0  0  0
  3  6  2  0  0  0  0
  4 14  2  0  0  0  0
  4 12  1  0  0  0  0
  5 30  1  1  0  0  0
  7 10  2  0  0  0  0
  8 16  2  0  0  0  0
  8 17  1  0  0  0  0
  9  3  1  0  0  0  0
 10 14  1  0  0  0  0
 11  7  1  0  0  0  0
 11  1  2  0  0  0  0
 12  5  1  0  0  0  0
 13 18  2  0  0  0  0
 14 15  1  0  0  0  0
 15  5  1  0  0  0  0
 16 11  1  0  0  0  0
 17  2  2  0  0  0  0
 18 17  1  0  0  0  0
 18  9  1  0  0  0  0
 20 19  2  0  0  0  0
 21 20  1  0  0  0  0
 21  7  1  0  0  0  0
 23 22  1  1  0  0  0
 23 20  1  0  0  0  0
 25 24  1  6  0  0  0
 25 23  1  0  0  0  0
 26 25  1  0  0  0  0
 27 26  1  0  0  0  0
 28 27  1  0  0  0  0
 29 27  2  0  0  0  0
 31 30  1  0  0  0  0
M  END
>  <MODEL>
9

>  <REMARK>
 VINA RESULT:      -6.7      2.371      6.872
  Name = 
  6 active torsions:
  status: ('A' for Active; 'I' for Inactive)
    1  A    between atoms: C_1  and  O_24
    2  A    between atoms: C_2  and  C_13
    3  A    between atoms: C_9  and  C_22
    4  A    between atoms: C_15  and  N_23
    5  A    between atoms: C_19  and  C_22
    6  A    between atoms: C_19  and  O_24
                            x       y       z     vdW  Elec       q    Type
                         _______ _______ _______ _____ _____    ______ ____

>  <TORSDO>
F 6

$$$$
