=
 OpenBabel11062408223D

 32 38  0  0  1  0  0  0  0  0999 V2000
  159.6540  210.6490  153.3890 C   0  0  2  0  0  3  0  0  0  0  0  0
  160.8970  210.4940  151.1880 C   0  0  2  0  0  3  0  0  0  0  0  0
  159.6410  210.2590  154.8810 C   0  0  0  0  0  2  0  0  0  0  0  0
  160.8910  210.0970  152.6670 C   0  0  2  0  0  3  0  0  0  0  0  0
  162.1410  209.9050  150.4980 C   0  0  2  0  0  3  0  0  0  0  0  0
  161.9750  214.4530  148.6090 O   0  0  0  0  0  0  0  0  0  0  0  0
  160.8780  212.0270  151.0690 C   0  0  2  0  0  3  0  0  0  0  0  0
  162.3670  212.3340  147.5070 C   0  0  0  0  0  2  0  0  0  0  0  0
  162.2210  211.8540  148.9510 C   0  0  2  0  0  3  0  0  0  0  0  0
  160.9290  208.5710  152.8190 C   0  0  1  0  0  3  0  0  0  0  0  0
  162.2200  210.3350  149.0320 C   0  0  0  0  0  2  0  0  0  0  0  0
  162.1690  207.9940  152.1380 C   0  0  0  0  0  2  0  0  0  0  0  0
  160.8530  208.1150  154.2840 C   0  0  0  0  0  2  0  0  0  0  0  0
  159.6030  212.5630  151.7190 C   0  0  0  0  0  2  0  0  0  0  0  0
  159.5390  212.1710  153.2020 C   0  0  1  0  0  3  0  0  0  0  0  0
  160.9550  212.4370  149.5940 C   0  0  2  0  0  3  0  0  0  0  0  0
  162.2090  208.3760  150.6520 C   0  0  1  0  0  3  0  0  0  0  0  0
  160.7540  209.2800  155.2730 C   0  0  0  0  0  2  0  0  0  0  0  0
  161.8990  213.7900  147.3700 C   0  0  0  0  0  2  0  0  0  0  0  0
  160.9140  213.9700  149.4070 C   0  0  0  0  0  2  0  0  0  0  0  0
  157.2560  213.9330  155.8320 C   0  0  2  0  0  3  0  0  0  0  0  0
  155.7540  214.1210  153.5970 O   0  0  0  0  0  1  0  0  0  0  0  0
  157.4120  214.4300  157.2610 C   0  0  0  0  0  1  0  0  0  0  0  0
  155.9330  211.9600  154.7030 C   0  0  2  0  0  3  0  0  0  0  0  0
  158.3040  212.7690  153.9030 C   0  0  1  0  0  3  0  0  0  0  0  0
  156.0070  213.0430  155.7840 C   0  0  2  0  0  3  0  0  0  0  0  0
  157.1620  211.7610  153.7920 C   0  0  0  0  0  2  0  0  0  0  0  0
  158.5220  213.2220  155.3540 C   0  0  1  0  0  3  0  0  0  0  0  0
  159.7050  214.1800  155.4500 C   0  0  0  0  0  1  0  0  0  0  0  0
  155.1520  213.2620  154.5240 C   0  0  1  0  0  3  0  0  0  0  0  0
  161.1020  207.6660  149.8710 C   0  0  0  0  0  2  0  0  0  0  0  0
  161.2410  206.1610  150.0030 C   0  0  0  0  0  1  0  0  0  0  0  0
  1  3  1  1  0  0  0
  2  4  1  0  0  0  0
  3 18  1  0  0  0  0
  4 10  1  0  0  0  0
  4  1  1  0  0  0  0
  5 17  1  0  0  0  0
  5  2  1  0  0  0  0
  6 20  1  0  0  0  0
  7  2  1  0  0  0  0
  7 14  1  0  0  0  0
  8  9  1  0  0  0  0
  9 11  1  0  0  0  0
  9 16  1  0  0  0  0
 10 13  1  0  0  0  0
 11  5  1  0  0  0  0
 12 10  1  0  0  0  0
 13 18  1  0  0  0  0
 14 15  1  0  0  0  0
 15  1  1  0  0  0  0
 15 25  1  0  0  0  0
 16  7  1  0  0  0  0
 17 12  1  0  0  0  0
 19  8  1  0  0  0  0
 19  6  1  0  0  0  0
 20 16  1  0  0  0  0
 21 23  1  0  0  0  0
 22 30  1  0  0  0  0
 24 26  1  0  0  0  0
 25 28  1  0  0  0  0
 26 21  1  0  0  0  0
 27 25  1  0  0  0  0
 27 24  1  0  0  0  0
 28 29  1  0  0  0  0
 28 21  1  0  0  0  0
 30 24  1  0  0  0  0
 30 26  1  0  0  0  0
 31 32  1  0  0  0  0
 31 17  1  0  0  0  0
M  END
>  <MODEL>
1

>  <REMARK>
 VINA RESULT:      -5.8      0.000      0.000
  Name = 
  2 active torsions:
  status: ('A' for Active; 'I' for Inactive)
    1  A    between atoms: C_13  and  C_29
    2  A    between atoms: C_16  and  C_27
                            x       y       z     vdW  Elec       q    Type
                         _______ _______ _______ _____ _____    ______ ____

>  <TORSDO>
F 2

$$$$
=
 OpenBabel11062408223D

 32 38  0  0  1  0  0  0  0  0999 V2000
  160.3050  209.6700  153.4460 C   0  0  2  0  0  3  0  0  0  0  0  0
  161.1360  209.7130  151.0550 C   0  0  2  0  0  3  0  0  0  0  0  0
  160.5020  209.0830  154.8590 C   0  0  0  0  0  2  0  0  0  0  0  0
  161.3370  209.1200  152.4520 C   0  0  2  0  0  3  0  0  0  0  0  0
  162.1760  209.1200  150.0860 C   0  0  2  0  0  3  0  0  0  0  0  0
  162.1790  213.8810  148.8140 O   0  0  0  0  0  0  0  0  0  0  0  0
  161.2600  211.2430  151.1250 C   0  0  2  0  0  3  0  0  0  0  0  0
  162.1520  211.9060  147.4140 C   0  0  0  0  0  2  0  0  0  0  0  0
  162.2010  211.2480  148.7940 C   0  0  2  0  0  3  0  0  0  0  0  0
  161.2380  207.5900  152.4110 C   0  0  1  0  0  3  0  0  0  0  0  0
  162.0530  209.7380  148.6920 C   0  0  0  0  0  2  0  0  0  0  0  0
  162.2770  207.0090  151.4540 C   0  0  0  0  0  2  0  0  0  0  0  0
  161.3610  206.9470  153.8010 C   0  0  0  0  0  2  0  0  0  0  0  0
  160.1770  211.7910  152.0530 C   0  0  0  0  0  2  0  0  0  0  0  0
  160.3220  211.2080  153.4650 C   0  0  1  0  0  3  0  0  0  0  0  0
  161.1310  211.8420  149.7190 C   0  0  2  0  0  3  0  0  0  0  0  0
  162.1060  207.5850  150.0420 C   0  0  1  0  0  3  0  0  0  0  0  0
  161.5540  207.9710  154.9240 C   0  0  0  0  0  2  0  0  0  0  0  0
  161.8260  213.4020  147.5390 C   0  0  0  0  0  2  0  0  0  0  0  0
  161.2220  213.3840  149.7270 C   0  0  0  0  0  2  0  0  0  0  0  0
  157.1740  213.0260  154.8870 C   0  0  2  0  0  3  0  0  0  0  0  0
  157.9790  211.5850  157.0220 O   0  0  0  0  0  1  0  0  0  0  0  0
  156.0340  213.8530  154.3140 C   0  0  0  0  0  1  0  0  0  0  0  0
  159.2570  213.5620  156.4010 C   0  0  2  0  0  3  0  0  0  0  0  0
  159.2930  211.8060  154.4440 C   0  0  1  0  0  3  0  0  0  0  0  0
  157.7910  213.8250  156.0440 C   0  0  2  0  0  3  0  0  0  0  0  0
  160.0550  212.5860  155.5140 C   0  0  0  0  0  2  0  0  0  0  0  0
  158.1860  212.6570  153.8030 C   0  0  1  0  0  3  0  0  0  0  0  0
  157.4800  211.8790  152.6970 C   0  0  0  0  0  1  0  0  0  0  0  0
  158.1480  212.9540  157.2610 C   0  0  1  0  0  3  0  0  0  0  0  0
  160.8140  207.0830  149.3950 C   0  0  0  0  0  2  0  0  0  0  0  0
  160.8040  205.5670  149.3380 C   0  0  0  0  0  1  0  0  0  0  0  0
  1 15  1  0  0  0  0
  1  3  1  1  0  0  0
  2  7  1  0  0  0  0
  2  4  1  0  0  0  0
  3 18  1  0  0  0  0
  4  1  1  0  0  0  0
  5  2  1  0  0  0  0
  6 20  1  0  0  0  0
  7 14  1  0  0  0  0
  8 19  1  0  0  0  0
  8  9  1  0  0  0  0
  9 16  1  0  0  0  0
 10  4  1  0  0  0  0
 10 13  1  0  0  0  0
 11  9  1  0  0  0  0
 11  5  1  0  0  0  0
 12 10  1  0  0  0  0
 13 18  1  0  0  0  0
 14 15  1  0  0  0  0
 15 25  1  0  0  0  0
 16 20  1  0  0  0  0
 16  7  1  0  0  0  0
 17  5  1  0  0  0  0
 17 12  1  0  0  0  0
 19  6  1  0  0  0  0
 21 26  1  0  0  0  0
 22 30  1  0  0  0  0
 23 21  1  0  0  0  0
 24 30  1  0  0  0  0
 25 27  1  0  0  0  0
 26 24  1  0  0  0  0
 26 30  1  0  0  0  0
 27 24  1  0  0  0  0
 28 25  1  0  0  0  0
 28 21  1  0  0  0  0
 29 28  1  0  0  0  0
 31 17  1  0  0  0  0
 32 31  1  0  0  0  0
M  END
>  <MODEL>
2

>  <REMARK>
 VINA RESULT:      -5.7      1.286      2.011
  Name = 
  2 active torsions:
  status: ('A' for Active; 'I' for Inactive)
    1  A    between atoms: C_13  and  C_29
    2  A    between atoms: C_16  and  C_27
                            x       y       z     vdW  Elec       q    Type
                         _______ _______ _______ _____ _____    ______ ____

>  <TORSDO>
F 2

$$$$
=
 OpenBabel11062408223D

 32 38  0  0  1  0  0  0  0  0999 V2000
  159.5660  209.5170  154.5580 C   0  0  2  0  0  3  0  0  0  0  0  0
  160.7940  208.5430  152.5690 C   0  0  2  0  0  3  0  0  0  0  0  0
  159.4760  209.5880  156.0960 C   0  0  0  0  0  2  0  0  0  0  0  0
  160.7100  208.6030  154.0970 C   0  0  2  0  0  3  0  0  0  0  0  0
  161.9390  207.6020  152.1500 C   0  0  2  0  0  3  0  0  0  0  0  0
  162.5060  211.3680  149.0230 O   0  0  0  0  0  0  0  0  0  0  0  0
  161.0160  209.9590  152.0120 C   0  0  2  0  0  3  0  0  0  0  0  0
  162.5740  208.9850  148.6030 C   0  0  0  0  0  2  0  0  0  0  0  0
  162.3390  208.9770  150.1140 C   0  0  2  0  0  3  0  0  0  0  0  0
  160.5070  207.2000  154.6840 C   0  0  1  0  0  3  0  0  0  0  0  0
  162.1010  207.5660  150.6290 C   0  0  0  0  0  2  0  0  0  0  0  0
  161.6500  206.2740  154.2690 C   0  0  0  0  0  2  0  0  0  0  0  0
  160.3450  207.2110  156.2120 C   0  0  0  0  0  2  0  0  0  0  0  0
  159.8330  210.8420  152.4070 C   0  0  0  0  0  2  0  0  0  0  0  0
  159.6910  210.9160  153.9330 C   0  0  1  0  0  3  0  0  0  0  0  0
  161.1730  209.9020  150.4890 C   0  0  2  0  0  3  0  0  0  0  0  0
  161.7650  206.1930  152.7410 C   0  0  1  0  0  3  0  0  0  0  0  0
  160.4170  208.6170  156.8160 C   0  0  0  0  0  2  0  0  0  0  0  0
  162.3420  210.3890  148.0260 C   0  0  0  0  0  2  0  0  0  0  0  0
  161.3730  211.3010  149.8650 C   0  0  0  0  0  2  0  0  0  0  0  0
  157.6140  213.5550  155.9240 C   0  0  2  0  0  3  0  0  0  0  0  0
  156.4050  213.6190  153.5110 O   0  0  0  0  0  1  0  0  0  0  0  0
  157.7400  214.2670  157.2610 C   0  0  0  0  0  1  0  0  0  0  0  0
  156.0030  211.7080  154.9660 C   0  0  2  0  0  3  0  0  0  0  0  0
  158.5570  211.8670  154.3610 C   0  0  1  0  0  3  0  0  0  0  0  0
  156.2100  212.9370  155.8570 C   0  0  2  0  0  3  0  0  0  0  0  0
  157.2380  211.1040  154.2670 C   0  0  0  0  0  2  0  0  0  0  0  0
  158.7320  212.5290  155.7360 C   0  0  1  0  0  3  0  0  0  0  0  0
  160.0820  213.2340  155.8290 C   0  0  0  0  0  1  0  0  0  0  0  0
  155.5450  213.0830  154.4780 C   0  0  1  0  0  3  0  0  0  0  0  0
  160.5700  205.4540  152.1380 C   0  0  0  0  0  2  0  0  0  0  0  0
  160.8860  203.9800  151.9720 C   0  0  0  0  0  1  0  0  0  0  0  0
  1  3  1  1  0  0  0
  2  4  1  0  0  0  0
  3 18  1  0  0  0  0
  4  1  1  0  0  0  0
  4 10  1  0  0  0  0
  5  2  1  0  0  0  0
  5 17  1  0  0  0  0
  6 20  1  0  0  0  0
  7 14  1  0  0  0  0
  7  2  1  0  0  0  0
  8  9  1  0  0  0  0
  9 16  1  0  0  0  0
  9 11  1  0  0  0  0
 10 13  1  0  0  0  0
 11  5  1  0  0  0  0
 12 10  1  0  0  0  0
 13 18  1  0  0  0  0
 14 15  1  0  0  0  0
 15 25  1  0  0  0  0
 15  1  1  0  0  0  0
 16  7  1  0  0  0  0
 17 12  1  0  0  0  0
 19  8  1  0  0  0  0
 19  6  1  0  0  0  0
 20 16  1  0  0  0  0
 21 23  1  0  0  0  0
 22 30  1  0  0  0  0
 24 26  1  0  0  0  0
 25 28  1  0  0  0  0
 26 21  1  0  0  0  0
 27 25  1  0  0  0  0
 27 24  1  0  0  0  0
 28 29  1  0  0  0  0
 28 21  1  0  0  0  0
 30 24  1  0  0  0  0
 30 26  1  0  0  0  0
 31 17  1  0  0  0  0
 32 31  1  0  0  0  0
M  END
>  <MODEL>
3

>  <REMARK>
 VINA RESULT:      -5.5      1.395      2.217
  Name = 
  2 active torsions:
  status: ('A' for Active; 'I' for Inactive)
    1  A    between atoms: C_13  and  C_29
    2  A    between atoms: C_16  and  C_27
                            x       y       z     vdW  Elec       q    Type
                         _______ _______ _______ _____ _____    ______ ____

>  <TORSDO>
F 2

$$$$
=
 OpenBabel11062408223D

 32 38  0  0  1  0  0  0  0  0999 V2000
  161.0910  209.2420  149.8960 C   0  0  2  0  0  3  0  0  0  0  0  0
  160.4690  209.7740  152.2920 C   0  0  2  0  0  3  0  0  0  0  0  0
  161.8460  209.7100  148.6360 C   0  0  0  0  0  2  0  0  0  0  0  0
  161.2180  210.2520  151.0450 C   0  0  2  0  0  3  0  0  0  0  0  0
  160.6040  210.8230  153.4110 C   0  0  2  0  0  3  0  0  0  0  0  0
  161.2540  206.6040  155.8730 O   0  0  0  0  0  0  0  0  0  0  0  0
  161.0350  208.4170  152.7410 C   0  0  2  0  0  3  0  0  0  0  0  0
  159.9220  208.5420  156.4490 C   0  0  0  0  0  2  0  0  0  0  0  0
  160.5220  209.0210  155.1270 C   0  0  2  0  0  3  0  0  0  0  0  0
  160.6870  211.6150  150.5830 C   0  0  1  0  0  3  0  0  0  0  0  0
  159.9260  210.3530  154.6990 C   0  0  0  0  0  2  0  0  0  0  0  0
  160.8310  212.6520  151.6960 C   0  0  0  0  0  2  0  0  0  0  0  0
  161.3560  212.1090  149.2910 C   0  0  0  0  0  2  0  0  0  0  0  0
  160.8310  207.3960  151.6230 C   0  0  0  0  0  2  0  0  0  0  0  0
  161.5460  207.8410  150.3400 C   0  0  1  0  0  3  0  0  0  0  0  0
  160.3410  207.9630  154.0300 C   0  0  2  0  0  3  0  0  0  0  0  0
  160.0940  212.2030  152.9650 C   0  0  1  0  0  3  0  0  0  0  0  0
  162.4040  211.1340  148.7440 C   0  0  0  0  0  2  0  0  0  0  0  0
  160.1500  207.0340  156.6330 C   0  0  0  0  0  2  0  0  0  0  0  0
  160.8500  206.5890  154.5200 C   0  0  0  0  0  2  0  0  0  0  0  0
  161.1890  204.4310  148.4740 C   0  0  2  0  0  3  0  0  0  0  0  0
  160.4560  206.1800  146.5530 O   0  0  0  0  0  1  0  0  0  0  0  0
  161.2100  202.9610  148.8640 C   0  0  0  0  0  1  0  0  0  0  0  0
  162.8150  206.0020  147.1300 C   0  0  2  0  0  3  0  0  0  0  0  0
  161.4270  206.7900  149.2200 C   0  0  1  0  0  3  0  0  0  0  0  0
  162.1840  204.6190  147.3210 C   0  0  2  0  0  3  0  0  0  0  0  0
  162.4910  207.0950  148.1680 C   0  0  0  0  0  2  0  0  0  0  0  0
  161.4870  205.3250  149.6780 C   0  0  1  0  0  3  0  0  0  0  0  0
  160.4560  205.0580  150.7710 C   0  0  0  0  0  1  0  0  0  0  0  0
  161.6680  205.5620  146.2200 C   0  0  1  0  0  3  0  0  0  0  0  0
  158.5790  212.2210  152.7560 C   0  0  0  0  0  2  0  0  0  0  0  0
  158.1020  213.6270  152.4470 C   0  0  0  0  0  1  0  0  0  0  0  0
  1  3  1  6  0  0  0
  1 15  1  0  0  0  0
  1  4  1  0  0  0  0
  2  7  1  0  0  0  0
  2  5  1  0  0  0  0
  3 18  1  0  0  0  0
  4  2  1  0  0  0  0
  5 11  1  0  0  0  0
  6 19  1  0  0  0  0
  7 16  1  0  0  0  0
  8 19  1  0  0  0  0
  9  8  1  0  0  0  0
 10  4  1  0  0  0  0
 10 12  1  0  0  0  0
 11  9  1  0  0  0  0
 12 17  1  0  0  0  0
 13 10  1  0  0  0  0
 14  7  1  0  0  0  0
 15 14  1  0  0  0  0
 16 20  1  0  0  0  0
 16  9  1  0  0  0  0
 17  5  1  0  0  0  0
 18 13  1  0  0  0  0
 20  6  1  0  0  0  0
 21 23  1  0  0  0  0
 21 28  1  0  0  0  0
 24 26  1  0  0  0  0
 24 27  1  0  0  0  0
 25 28  1  0  0  0  0
 25 15  1  0  0  0  0
 26 21  1  0  0  0  0
 27 25  1  0  0  0  0
 28 29  1  0  0  0  0
 30 22  1  0  0  0  0
 30 24  1  0  0  0  0
 30 26  1  0  0  0  0
 31 17  1  0  0  0  0
 32 31  1  0  0  0  0
M  END
>  <MODEL>
4

>  <REMARK>
 VINA RESULT:      -4.9      3.017      8.531
  Name = 
  2 active torsions:
  status: ('A' for Active; 'I' for Inactive)
    1  A    between atoms: C_13  and  C_29
    2  A    between atoms: C_16  and  C_27
                            x       y       z     vdW  Elec       q    Type
                         _______ _______ _______ _____ _____    ______ ____

>  <TORSDO>
F 2

$$$$
=
 OpenBabel11062408223D

 32 38  0  0  1  0  0  0  0  0999 V2000
  160.9830  206.5610  151.4560 C   0  0  2  0  0  3  0  0  0  0  0  0
  161.0180  204.8140  149.6230 C   0  0  2  0  0  3  0  0  0  0  0  0
  161.3810  206.9020  152.9060 C   0  0  0  0  0  2  0  0  0  0  0  0
  161.4140  205.1400  151.0660 C   0  0  2  0  0  3  0  0  0  0  0  0
  161.4500  203.3760  149.2800 C   0  0  2  0  0  3  0  0  0  0  0  0
  162.7030  205.8280  145.1940 O   0  0  0  0  0  0  0  0  0  0  0  0
  161.6750  205.8260  148.6700 C   0  0  2  0  0  3  0  0  0  0  0  0
  161.5810  203.6970  145.4370 C   0  0  0  0  0  2  0  0  0  0  0  0
  161.8130  204.0380  146.9080 C   0  0  2  0  0  3  0  0  0  0  0  0
  160.7880  204.1340  152.0410 C   0  0  1  0  0  3  0  0  0  0  0  0
  161.1330  203.0320  147.8240 C   0  0  0  0  0  2  0  0  0  0  0  0
  161.2260  202.7110  151.6980 C   0  0  0  0  0  2  0  0  0  0  0  0
  161.0950  204.4580  153.5110 C   0  0  0  0  0  2  0  0  0  0  0  0
  161.1780  207.2300  149.0120 C   0  0  0  0  0  2  0  0  0  0  0  0
  161.5310  207.5970  150.4600 C   0  0  1  0  0  3  0  0  0  0  0  0
  161.3430  205.4660  147.2180 C   0  0  2  0  0  3  0  0  0  0  0  0
  160.8470  202.3510  150.2560 C   0  0  1  0  0  3  0  0  0  0  0  0
  161.9560  205.7130  153.6840 C   0  0  0  0  0  2  0  0  0  0  0  0
  161.8410  204.9220  144.5480 C   0  0  0  0  0  2  0  0  0  0  0  0
  161.9560  206.4640  146.2100 C   0  0  0  0  0  2  0  0  0  0  0  0
  161.1320  211.4780  150.3250 C   0  0  2  0  0  3  0  0  0  0  0  0
  159.0840  210.7770  151.9370 O   0  0  0  0  0  1  0  0  0  0  0  0
  161.7280  212.6130  149.5070 C   0  0  0  0  0  1  0  0  0  0  0  0
  161.3480  210.7030  152.8300 C   0  0  2  0  0  3  0  0  0  0  0  0
  161.1150  209.0390  150.8070 C   0  0  1  0  0  3  0  0  0  0  0  0
  161.2880  211.8430  151.8080 C   0  0  2  0  0  3  0  0  0  0  0  0
  161.3510  209.2550  152.3000 C   0  0  0  0  0  2  0  0  0  0  0  0
  161.7770  210.1390  149.9630 C   0  0  1  0  0  3  0  0  0  0  0  0
  161.5810  209.8710  148.4740 C   0  0  0  0  0  1  0  0  0  0  0  0
  160.0510  211.4930  152.6530 C   0  0  1  0  0  3  0  0  0  0  0  0
  159.3310  202.2250  150.1000 C   0  0  0  0  0  2  0  0  0  0  0  0
  158.9790  200.9530  149.3510 C   0  0  0  0  0  1  0  0  0  0  0  0
  1  3  1  1  0  0  0
  2  4  1  0  0  0  0
  3 18  1  0  0  0  0
  4  1  1  0  0  0  0
  4 10  1  0  0  0  0
  5  2  1  0  0  0  0
  5 17  1  0  0  0  0
  6 20  1  0  0  0  0
  7 14  1  0  0  0  0
  7  2  1  0  0  0  0
  8  9  1  0  0  0  0
  9 16  1  0  0  0  0
  9 11  1  0  0  0  0
 10 13  1  0  0  0  0
 11  5  1  0  0  0  0
 12 10  1  0  0  0  0
 13 18  1  0  0  0  0
 14 15  1  0  0  0  0
 15 25  1  0  0  0  0
 15  1  1  0  0  0  0
 16  7  1  0  0  0  0
 17 12  1  0  0  0  0
 19  6  1  0  0  0  0
 19  8  1  0  0  0  0
 20 16  1  0  0  0  0
 21 26  1  0  0  0  0
 22 30  1  0  0  0  0
 23 21  1  0  0  0  0
 25 27  1  0  0  0  0
 26 30  1  0  0  0  0
 26 24  1  0  0  0  0
 27 24  1  0  0  0  0
 28 21  1  0  0  0  0
 28 25  1  0  0  0  0
 29 28  1  0  0  0  0
 30 24  1  0  0  0  0
 31 17  1  0  0  0  0
 32 31  1  0  0  0  0
M  END
>  <MODEL>
5

>  <REMARK>
 VINA RESULT:      -4.1      3.365      6.587
  Name = 
  2 active torsions:
  status: ('A' for Active; 'I' for Inactive)
    1  A    between atoms: C_13  and  C_29
    2  A    between atoms: C_16  and  C_27
                            x       y       z     vdW  Elec       q    Type
                         _______ _______ _______ _____ _____    ______ ____

>  <TORSDO>
F 2

$$$$
=
 OpenBabel11062408223D

 32 38  0  0  1  0  0  0  0  0999 V2000
  160.9300  208.1530  153.9370 C   0  0  2  0  0  3  0  0  0  0  0  0
  160.3410  210.5810  154.3470 C   0  0  2  0  0  3  0  0  0  0  0  0
  160.8390  206.7070  154.4660 C   0  0  0  0  0  2  0  0  0  0  0  0
  160.2500  209.1500  154.8850 C   0  0  2  0  0  3  0  0  0  0  0  0
  159.6660  211.5500  155.3360 C   0  0  2  0  0  3  0  0  0  0  0  0
  158.0630  213.2330  150.9910 O   0  0  0  0  0  0  0  0  0  0  0  0
  159.6710  210.6530  152.9650 C   0  0  2  0  0  3  0  0  0  0  0  0
  158.9130  214.4500  152.9040 C   0  0  0  0  0  2  0  0  0  0  0  0
  158.9880  213.0230  153.4470 C   0  0  2  0  0  3  0  0  0  0  0  0
  160.8940  209.0510  156.2740 C   0  0  1  0  0  3  0  0  0  0  0  0
  159.6760  212.9840  154.8040 C   0  0  0  0  0  2  0  0  0  0  0  0
  160.2160  210.0100  157.2500 C   0  0  0  0  0  2  0  0  0  0  0  0
  160.8940  207.6190  156.8300 C   0  0  0  0  0  2  0  0  0  0  0  0
  160.4040  209.7180  152.0050 C   0  0  0  0  0  2  0  0  0  0  0  0
  160.3610  208.2700  152.5130 C   0  0  1  0  0  3  0  0  0  0  0  0
  159.6930  212.0960  152.4490 C   0  0  2  0  0  3  0  0  0  0  0  0
  160.2860  211.4550  156.7400 C   0  0  1  0  0  3  0  0  0  0  0  0
  160.2540  206.6030  155.8790 C   0  0  0  0  0  2  0  0  0  0  0  0
  158.6690  214.4400  151.3870 C   0  0  0  0  0  2  0  0  0  0  0  0
  159.0550  212.2290  151.0480 C   0  0  0  0  0  2  0  0  0  0  0  0
  162.1550  206.8300  149.3580 C   0  0  2  0  0  3  0  0  0  0  0  0
  162.6080  204.8860  151.1750 O   0  0  0  0  0  1  0  0  0  0  0  0
  162.5490  207.3550  147.9870 C   0  0  0  0  0  1  0  0  0  0  0  0
  160.3760  205.0970  150.2250 C   0  0  2  0  0  3  0  0  0  0  0  0
  161.0220  207.2920  151.5220 C   0  0  1  0  0  3  0  0  0  0  0  0
  161.3810  205.5210  149.1500 C   0  0  2  0  0  3  0  0  0  0  0  0
  160.1260  206.0610  151.4030 C   0  0  0  0  0  2  0  0  0  0  0  0
  161.3660  207.8780  150.1440 C   0  0  1  0  0  3  0  0  0  0  0  0
  162.2090  209.1410  150.2890 C   0  0  0  0  0  1  0  0  0  0  0  0
  161.7500  204.4280  150.1680 C   0  0  1  0  0  3  0  0  0  0  0  0
  161.7210  211.9830  156.7770 C   0  0  0  0  0  2  0  0  0  0  0  0
  162.6770  210.8910  157.2150 C   0  0  0  0  0  1  0  0  0  0  0  0
  1  3  1  1  0  0  0
  1  4  1  0  0  0  0
  2  4  1  0  0  0  0
  2  5  1  0  0  0  0
  3 18  1  0  0  0  0
  4 10  1  0  0  0  0
  5 17  1  0  0  0  0
  6 20  1  0  0  0  0
  6 19  1  0  0  0  0
  7  2  1  0  0  0  0
  8  9  1  0  0  0  0
  9 11  1  0  0  0  0
 10 13  1  0  0  0  0
 10 12  1  0  0  0  0
 11  5  1  0  0  0  0
 14 15  1  0  0  0  0
 14  7  1  0  0  0  0
 15  1  1  0  0  0  0
 16  7  1  0  0  0  0
 16  9  1  0  0  0  0
 17 31  1  0  0  0  0
 17 12  1  0  0  0  0
 18 13  1  0  0  0  0
 19  8  1  0  0  0  0
 20 16  1  0  0  0  0
 21 28  1  0  0  0  0
 23 21  1  0  0  0  0
 24 27  1  0  0  0  0
 25 15  1  0  0  0  0
 26 21  1  0  0  0  0
 26 30  1  0  0  0  0
 26 24  1  0  0  0  0
 27 25  1  0  0  0  0
 28 29  1  0  0  0  0
 28 25  1  0  0  0  0
 30 24  1  0  0  0  0
 30 22  1  0  0  0  0
 31 32  1  0  0  0  0
M  END
>  <MODEL>
6

>  <REMARK>
 VINA RESULT:      -3.6      2.456      6.929
  Name = 
  2 active torsions:
  status: ('A' for Active; 'I' for Inactive)
    1  A    between atoms: C_13  and  C_29
    2  A    between atoms: C_16  and  C_27
                            x       y       z     vdW  Elec       q    Type
                         _______ _______ _______ _____ _____    ______ ____

>  <TORSDO>
F 2

$$$$
=
 OpenBabel11062408223D

 32 38  0  0  1  0  0  0  0  0999 V2000
  160.9550  206.5620  152.0740 C   0  0  2  0  0  3  0  0  0  0  0  0
  161.3330  207.6450  149.8170 C   0  0  2  0  0  3  0  0  0  0  0  0
  161.2460  205.3430  152.9740 C   0  0  0  0  0  2  0  0  0  0  0  0
  161.6250  206.4280  150.7000 C   0  0  2  0  0  3  0  0  0  0  0  0
  162.0060  207.4620  148.4440 C   0  0  2  0  0  3  0  0  0  0  0  0
  162.9670  212.1920  149.4370 O   0  0  0  0  0  0  0  0  0  0  0  0
  161.8450  208.9170  150.5130 C   0  0  2  0  0  3  0  0  0  0  0  0
  162.2020  211.1670  147.3810 C   0  0  0  0  0  2  0  0  0  0  0  0
  162.3300  209.9240  148.2610 C   0  0  2  0  0  3  0  0  0  0  0  0
  161.1430  205.1390  150.0220 C   0  0  1  0  0  3  0  0  0  0  0  0
  161.7960  208.6880  147.5540 C   0  0  0  0  0  2  0  0  0  0  0  0
  161.8190  204.9610  148.6640 C   0  0  0  0  0  2  0  0  0  0  0  0
  161.3470  203.8930  150.8970 C   0  0  0  0  0  2  0  0  0  0  0  0
  161.1130  209.0870  151.8440 C   0  0  0  0  0  2  0  0  0  0  0  0
  161.3560  207.8790  152.7590 C   0  0  1  0  0  3  0  0  0  0  0  0
  161.6220  210.1330  149.6070 C   0  0  2  0  0  3  0  0  0  0  0  0
  161.5500  206.1660  147.7530 C   0  0  1  0  0  3  0  0  0  0  0  0
  161.9840  204.2080  152.2550 C   0  0  0  0  0  2  0  0  0  0  0  0
  162.2860  212.4440  148.2310 C   0  0  0  0  0  2  0  0  0  0  0  0
  162.0930  211.4500  150.2630 C   0  0  0  0  0  2  0  0  0  0  0  0
  159.5900  209.4910  155.8440 C   0  0  2  0  0  3  0  0  0  0  0  0
  159.0900  206.8680  156.2410 O   0  0  0  0  0  1  0  0  0  0  0  0
  159.2200  210.8990  156.2840 C   0  0  0  0  0  1  0  0  0  0  0  0
  161.3370  207.7040  156.6660 C   0  0  2  0  0  3  0  0  0  0  0  0
  160.6980  208.0610  154.1400 C   0  0  1  0  0  3  0  0  0  0  0  0
  160.3510  208.8280  157.0010 C   0  0  2  0  0  3  0  0  0  0  0  0
  161.5810  207.3730  155.1790 C   0  0  0  0  0  2  0  0  0  0  0  0
  160.3800  209.5110  154.5360 C   0  0  1  0  0  3  0  0  0  0  0  0
  159.5490  210.1960  153.4550 C   0  0  0  0  0  1  0  0  0  0  0  0
  159.9560  207.3580  157.2260 C   0  0  1  0  0  3  0  0  0  0  0  0
  160.0810  206.2200  147.3320 C   0  0  0  0  0  2  0  0  0  0  0  0
  159.9610  206.2000  145.8200 C   0  0  0  0  0  1  0  0  0  0  0  0
  1 15  1  0  0  0  0
  1  3  1  1  0  0  0
  2  7  1  0  0  0  0
  2  4  1  0  0  0  0
  4  1  1  0  0  0  0
  5  2  1  0  0  0  0
  6 20  1  0  0  0  0
  7 14  1  0  0  0  0
  8 19  1  0  0  0  0
  8  9  1  0  0  0  0
  9 16  1  0  0  0  0
 10  4  1  0  0  0  0
 10 13  1  0  0  0  0
 11  9  1  0  0  0  0
 11  5  1  0  0  0  0
 12 10  1  0  0  0  0
 13 18  1  0  0  0  0
 14 15  1  0  0  0  0
 15 25  1  0  0  0  0
 16 20  1  0  0  0  0
 16  7  1  0  0  0  0
 17  5  1  0  0  0  0
 17 12  1  0  0  0  0
 18  3  1  0  0  0  0
 19  6  1  0  0  0  0
 21 23  1  0  0  0  0
 21 26  1  0  0  0  0
 22 30  1  0  0  0  0
 24 26  1  0  0  0  0
 24 30  1  0  0  0  0
 25 28  1  0  0  0  0
 25 27  1  0  0  0  0
 26 30  1  0  0  0  0
 27 24  1  0  0  0  0
 28 21  1  0  0  0  0
 29 28  1  0  0  0  0
 31 17  1  0  0  0  0
 32 31  1  0  0  0  0
M  END
>  <MODEL>
7

>  <REMARK>
 VINA RESULT:      -3.4      2.716      4.655
  Name = 
  2 active torsions:
  status: ('A' for Active; 'I' for Inactive)
    1  A    between atoms: C_13  and  C_29
    2  A    between atoms: C_16  and  C_27
                            x       y       z     vdW  Elec       q    Type
                         _______ _______ _______ _____ _____    ______ ____

>  <TORSDO>
F 2

$$$$
=
 OpenBabel11062408223D

 32 38  0  0  1  0  0  0  0  0999 V2000
  161.5830  209.2960  150.5920 C   0  0  2  0  0  3  0  0  0  0  0  0
  161.5330  206.8610  149.9010 C   0  0  2  0  0  3  0  0  0  0  0  0
  162.0950  210.3240  151.6220 C   0  0  0  0  0  2  0  0  0  0  0  0
  162.0420  207.8720  150.9330 C   0  0  2  0  0  3  0  0  0  0  0  0
  161.9980  205.4450  150.2910 C   0  0  2  0  0  3  0  0  0  0  0  0
  162.7620  205.4760  145.4230 O   0  0  0  0  0  0  0  0  0  0  0  0
  162.0530  207.2450  148.5070 C   0  0  2  0  0  3  0  0  0  0  0  0
  161.7660  203.7690  146.8220 C   0  0  0  0  0  2  0  0  0  0  0  0
  162.1150  204.8090  147.8870 C   0  0  2  0  0  3  0  0  0  0  0  0
  161.5550  207.5040  152.3400 C   0  0  1  0  0  3  0  0  0  0  0  0
  161.5670  204.4120  149.2490 C   0  0  0  0  0  2  0  0  0  0  0  0
  162.0250  206.1020  152.7220 C   0  0  0  0  0  2  0  0  0  0  0  0
  161.9780  208.5270  153.4040 C   0  0  0  0  0  2  0  0  0  0  0  0
  161.5250  208.6310  148.1400 C   0  0  0  0  0  2  0  0  0  0  0  0
  161.9900  209.6800  149.1600 C   0  0  1  0  0  3  0  0  0  0  0  0
  161.6090  206.1990  147.4780 C   0  0  2  0  0  3  0  0  0  0  0  0
  161.5340  205.0610  151.7060 C   0  0  1  0  0  3  0  0  0  0  0  0
  162.7920  209.6920  152.8310 C   0  0  0  0  0  2  0  0  0  0  0  0
  161.8880  204.3730  145.4150 C   0  0  0  0  0  2  0  0  0  0  0  0
  162.0810  206.5440  146.0480 C   0  0  0  0  0  2  0  0  0  0  0  0
  162.0630  213.4090  148.0080 C   0  0  2  0  0  3  0  0  0  0  0  0
  159.4830  212.7530  147.5620 O   0  0  0  0  0  1  0  0  0  0  0  0
  163.1350  214.4530  147.7400 C   0  0  0  0  0  1  0  0  0  0  0  0
  160.2180  213.0960  149.8580 C   0  0  2  0  0  3  0  0  0  0  0  0
  161.5410  211.1010  148.7690 C   0  0  1  0  0  3  0  0  0  0  0  0
  161.0350  214.0330  148.9620 C   0  0  2  0  0  3  0  0  0  0  0  0
  160.5480  211.5900  149.8210 C   0  0  0  0  0  2  0  0  0  0  0  0
  162.6740  212.1150  148.5440 C   0  0  1  0  0  3  0  0  0  0  0  0
  163.6860  211.5790  147.5360 C   0  0  0  0  0  1  0  0  0  0  0  0
  159.5800  213.6880  148.6000 C   0  0  1  0  0  3  0  0  0  0  0  0
  160.0180  204.8820  151.7900 C   0  0  0  0  0  2  0  0  0  0  0  0
  159.6660  203.4220  152.0010 C   0  0  0  0  0  1  0  0  0  0  0  0
  1  4  1  0  0  0  0
  1  3  1  1  0  0  0
  2  5  1  0  0  0  0
  2  4  1  0  0  0  0
  3 18  1  0  0  0  0
  4 10  1  0  0  0  0
  5 17  1  0  0  0  0
  6 20  1  0  0  0  0
  7  2  1  0  0  0  0
  8  9  1  0  0  0  0
  9 11  1  0  0  0  0
 10 12  1  0  0  0  0
 10 13  1  0  0  0  0
 11  5  1  0  0  0  0
 14  7  1  0  0  0  0
 14 15  1  0  0  0  0
 15  1  1  0  0  0  0
 16  9  1  0  0  0  0
 16  7  1  0  0  0  0
 17 31  1  0  0  0  0
 17 12  1  0  0  0  0
 18 13  1  0  0  0  0
 19  6  1  0  0  0  0
 19  8  1  0  0  0  0
 20 16  1  0  0  0  0
 21 28  1  0  0  0  0
 21 26  1  0  0  0  0
 22 30  1  0  0  0  0
 23 21  1  0  0  0  0
 25 15  1  0  0  0  0
 25 27  1  0  0  0  0
 26 24  1  0  0  0  0
 27 24  1  0  0  0  0
 28 25  1  0  0  0  0
 29 28  1  0  0  0  0
 30 26  1  0  0  0  0
 30 24  1  0  0  0  0
 31 32  1  0  0  0  0
M  END
>  <MODEL>
8

>  <REMARK>
 VINA RESULT:      -2.9      3.900      6.440
  Name = 
  2 active torsions:
  status: ('A' for Active; 'I' for Inactive)
    1  A    between atoms: C_13  and  C_29
    2  A    between atoms: C_16  and  C_27
                            x       y       z     vdW  Elec       q    Type
                         _______ _______ _______ _____ _____    ______ ____

>  <TORSDO>
F 2

$$$$
=
 OpenBabel11062408223D

 32 38  0  0  1  0  0  0  0  0999 V2000
  159.6460  212.7110  152.1110 C   0  0  2  0  0  3  0  0  0  0  0  0
  161.0150  210.9930  150.8490 C   0  0  2  0  0  3  0  0  0  0  0  0
  158.5770  213.8180  152.0130 C   0  0  0  0  0  2  0  0  0  0  0  0
  159.9560  212.0950  150.7390 C   0  0  2  0  0  3  0  0  0  0  0  0
  161.3100  210.4180  149.4520 C   0  0  2  0  0  3  0  0  0  0  0  0
  161.1310  206.3480  152.2230 O   0  0  0  0  0  0  0  0  0  0  0  0
  160.5130  209.8950  151.8000 C   0  0  2  0  0  3  0  0  0  0  0  0
  162.7190  206.9850  150.5100 C   0  0  0  0  0  2  0  0  0  0  0  0
  161.7800  208.1890  150.4560 C   0  0  2  0  0  3  0  0  0  0  0  0
  160.4210  213.1990  149.7800 C   0  0  1  0  0  3  0  0  0  0  0  0
  162.3140  209.2670  149.5250 C   0  0  0  0  0  2  0  0  0  0  0  0
  160.7060  212.6220  148.3950 C   0  0  0  0  0  2  0  0  0  0  0  0
  159.4260  214.3660  149.6880 C   0  0  0  0  0  2  0  0  0  0  0  0
  160.2840  210.4980  153.1850 C   0  0  0  0  0  2  0  0  0  0  0  0
  159.2450  211.6260  153.1250 C   0  0  1  0  0  3  0  0  0  0  0  0
  161.5340  208.7530  151.8620 C   0  0  2  0  0  3  0  0  0  0  0  0
  161.7610  211.5110  148.4680 C   0  0  1  0  0  3  0  0  0  0  0  0
  158.1900  214.1760  150.5740 C   0  0  0  0  0  2  0  0  0  0  0  0
  162.4450  206.1390  151.7630 C   0  0  0  0  0  2  0  0  0  0  0  0
  161.0970  207.6260  152.8240 C   0  0  0  0  0  2  0  0  0  0  0  0
  157.3140  212.7870  156.3120 C   0  0  2  0  0  3  0  0  0  0  0  0
  159.8300  212.5450  157.2600 O   0  0  0  0  0  1  0  0  0  0  0  0
  155.8560  212.9580  156.7090 C   0  0  0  0  0  1  0  0  0  0  0  0
  159.2980  214.4460  155.8340 C   0  0  2  0  0  3  0  0  0  0  0  0
  158.9330  212.1970  154.5210 C   0  0  1  0  0  3  0  0  0  0  0  0
  158.0400  214.1000  156.6360 C   0  0  2  0  0  3  0  0  0  0  0  0
  159.7040  213.5060  154.6810 C   0  0  0  0  0  2  0  0  0  0  0  0
  157.4420  212.3740  154.8460 C   0  0  1  0  0  3  0  0  0  0  0  0
  156.6820  211.0710  154.6210 C   0  0  0  0  0  1  0  0  0  0  0  0
  159.4340  213.8880  157.2510 C   0  0  1  0  0  3  0  0  0  0  0  0
  163.1350  212.0800  148.8250 C   0  0  0  0  0  2  0  0  0  0  0  0
  163.5040  213.2080  147.8810 C   0  0  0  0  0  1  0  0  0  0  0  0
  1  3  1  6  0  0  0
  1 15  1  0  0  0  0
  2  7  1  0  0  0  0
  4  2  1  0  0  0  0
  4  1  1  0  0  0  0
  5 11  1  0  0  0  0
  5  2  1  0  0  0  0
  6 20  1  0  0  0  0
  7 16  1  0  0  0  0
  7 14  1  0  0  0  0
  8 19  1  0  0  0  0
  9  8  1  0  0  0  0
  9 16  1  0  0  0  0
 10  4  1  0  0  0  0
 11  9  1  0  0  0  0
 12 17  1  0  0  0  0
 12 10  1  0  0  0  0
 13 10  1  0  0  0  0
 13 18  1  0  0  0  0
 15 14  1  0  0  0  0
 15 25  1  0  0  0  0
 16 20  1  0  0  0  0
 17 31  1  0  0  0  0
 17  5  1  0  0  0  0
 18  3  1  0  0  0  0
 19  6  1  0  0  0  0
 21 26  1  0  0  0  0
 21 23  1  0  0  0  0
 24 26  1  0  0  0  0
 24 30  1  0  0  0  0
 25 27  1  0  0  0  0
 25 28  1  0  0  0  0
 26 30  1  0  0  0  0
 27 24  1  0  0  0  0
 28 21  1  0  0  0  0
 29 28  1  0  0  0  0
 30 22  1  0  0  0  0
 32 31  1  0  0  0  0
M  END
>  <MODEL>
9

>  <REMARK>
 VINA RESULT:      -2.8      2.222      4.809
  Name = 
  2 active torsions:
  status: ('A' for Active; 'I' for Inactive)
    1  A    between atoms: C_13  and  C_29
    2  A    between atoms: C_16  and  C_27
                            x       y       z     vdW  Elec       q    Type
                         _______ _______ _______ _____ _____    ______ ____

>  <TORSDO>
F 2

$$$$
