=
 OpenBabel11052422083D

 25 27  0  0  0  0  0  0  0  0999 V2000
  161.4500  205.0150  148.6590 C   0  0  0  0  0  0  0  0  0  0  0  0
  161.4950  206.2310  149.3700 C   0  0  0  0  0  0  0  0  0  0  0  0
  161.9680  206.2340  146.6310 C   0  0  0  0  0  3  0  0  0  0  0  0
  161.0260  207.3940  152.8270 N   0  0  0  0  0  2  0  0  0  0  0  0
  162.0040  207.3960  147.3330 N   0  0  0  0  0  0  0  0  0  0  0  0
  161.8130  208.6350  149.3810 C   0  0  0  0  0  0  0  0  0  0  0  0
  162.0960  209.8620  148.7150 N   0  0  0  0  0  1  0  0  0  0  0  0
  161.0130  208.5070  153.7350 C   0  0  0  0  0  0  0  0  0  0  0  0
  161.2560  206.2730  150.7110 N   0  0  0  0  0  0  0  0  0  0  0  0
  161.6940  205.0290  147.2800 C   0  0  0  0  0  3  0  0  0  0  0  0
  161.5680  208.6380  150.7550 C   0  0  0  0  0  3  0  0  0  0  0  0
  161.2860  207.4360  151.4180 C   0  0  0  0  0  0  0  0  0  0  0  0
  161.7760  207.4270  148.6740 C   0  0  0  0  0  0  0  0  0  0  0  0
  161.2460  209.6760  153.3240 O   0  0  0  0  0  0  0  0  0  0  0  0
  161.1910  203.7260  149.3370 C   0  0  0  0  0  0  0  0  0  0  0  0
  160.7470  201.3110  150.7050 C   0  0  0  0  0  3  0  0  0  0  0  0
  160.9920  202.5250  148.6190 C   0  0  0  0  0  0  0  0  0  0  0  0
  160.7700  201.3290  149.3090 C   0  0  0  0  0  3  0  0  0  0  0  0
  160.9390  202.4930  151.4200 C   0  0  0  0  0  3  0  0  0  0  0  0
  160.9540  202.4780  146.8620 Cl  0  0  0  0  0  0  0  0  0  0  0  0
  161.1600  203.6920  150.7400 C   0  0  0  0  0  3  0  0  0  0  0  0
  160.7200  208.2800  155.1920 C   0  0  0  0  0  0  0  0  0  0  0  0
  159.6990  209.2930  155.6760 C   0  0  0  0  0  1  0  0  0  0  0  0
  160.1640  206.8820  155.3930 C   0  0  0  0  0  1  0  0  0  0  0  0
  161.8830  208.4150  155.9510 O   0  0  0  0  0  1  0  0  0  0  0  0
  1 15  1  0  0  0  0
  1  2  1  0  0  0  0
  2  9  1  0  0  0  0
  3 10  1  0  0  0  0
  3  5  2  0  0  0  0
  4  8  1  0  0  0  0
  5 13  1  0  0  0  0
  6 11  2  0  0  0  0
  7  6  1  0  0  0  0
  8 22  1  0  0  0  0
  9 12  2  0  0  0  0
 10  1  2  0  0  0  0
 11 12  1  0  0  0  0
 12  4  1  0  0  0  0
 13  2  2  0  0  0  0
 13  6  1  0  0  0  0
 14  8  2  0  0  0  0
 15 21  1  0  0  0  0
 16 19  1  0  0  0  0
 17 18  1  0  0  0  0
 17 15  2  0  0  0  0
 18 16  2  0  0  0  0
 20 17  1  0  0  0  0
 21 19  2  0  0  0  0
 22 24  1  0  0  0  0
 22 23  1  0  0  0  0
 22 25  1  0  0  0  0
M  END
>  <MODEL>
1

>  <REMARK>
 VINA RESULT:      -9.9      0.000      0.000
  Name = 
  2 active torsions:
  status: ('A' for Active; 'I' for Inactive)
    1  A    between atoms: C_1  and  C_5
    2  A    between atoms: C_2  and  C_15
                            x       y       z     vdW  Elec       q    Type
                         _______ _______ _______ _____ _____    ______ ____

>  <TORSDO>
F 2

$$$$
=
 OpenBabel11052422083D

 25 27  0  0  0  0  0  0  0  0999 V2000
  161.4510  205.7870  149.3430 C   0  0  0  0  0  0  0  0  0  0  0  0
  161.5030  206.9250  150.1730 C   0  0  0  0  0  0  0  0  0  0  0  0
  161.9570  207.2050  147.4450 C   0  0  0  0  0  3  0  0  0  0  0  0
  161.0580  207.7330  153.7330 N   0  0  0  0  0  2  0  0  0  0  0  0
  161.9990  208.2900  148.2610 N   0  0  0  0  0  0  0  0  0  0  0  0
  161.8240  209.3150  150.4250 C   0  0  0  0  0  0  0  0  0  0  0  0
  162.1040  210.6030  149.8850 N   0  0  0  0  0  1  0  0  0  0  0  0
  161.0530  208.7480  154.7490 C   0  0  0  0  0  0  0  0  0  0  0  0
  161.2730  206.8320  151.5130 N   0  0  0  0  0  0  0  0  0  0  0  0
  161.6860  205.9410  147.9710 C   0  0  0  0  0  3  0  0  0  0  0  0
  161.5880  209.1790  151.7930 C   0  0  0  0  0  3  0  0  0  0  0  0
  161.3090  207.9170  152.3330 C   0  0  0  0  0  0  0  0  0  0  0  0
  161.7800  208.1850  149.6000 C   0  0  0  0  0  0  0  0  0  0  0  0
  161.2850  209.9520  154.4560 O   0  0  0  0  0  0  0  0  0  0  0  0
  161.1950  204.4360  149.8890 C   0  0  0  0  0  0  0  0  0  0  0  0
  160.7470  201.8990  151.0110 C   0  0  0  0  0  3  0  0  0  0  0  0
  161.1040  203.2950  149.0600 C   0  0  0  0  0  0  0  0  0  0  0  0
  160.8790  202.0370  149.6280 C   0  0  0  0  0  3  0  0  0  0  0  0
  160.8330  203.0210  151.8350 C   0  0  0  0  0  3  0  0  0  0  0  0
  161.2060  203.3970  147.3070 Cl  0  0  0  0  0  0  0  0  0  0  0  0
  161.0550  204.2810  151.2760 C   0  0  0  0  0  3  0  0  0  0  0  0
  160.7690  208.3750  156.1770 C   0  0  0  0  0  0  0  0  0  0  0  0
  160.0810  209.5280  156.8840 C   0  0  0  0  0  1  0  0  0  0  0  0
  159.8650  207.1570  156.2210 C   0  0  0  0  0  1  0  0  0  0  0  0
  161.9560  208.0780  156.8500 O   0  0  0  0  0  1  0  0  0  0  0  0
  1 15  1  0  0  0  0
  1  2  1  0  0  0  0
  2  9  1  0  0  0  0
  3 10  1  0  0  0  0
  3  5  2  0  0  0  0
  4  8  1  0  0  0  0
  5 13  1  0  0  0  0
  6 11  2  0  0  0  0
  7  6  1  0  0  0  0
  8 22  1  0  0  0  0
  9 12  2  0  0  0  0
 10  1  2  0  0  0  0
 11 12  1  0  0  0  0
 12  4  1  0  0  0  0
 13  2  2  0  0  0  0
 13  6  1  0  0  0  0
 14  8  2  0  0  0  0
 15 21  1  0  0  0  0
 16 19  1  0  0  0  0
 17 18  1  0  0  0  0
 17 15  2  0  0  0  0
 18 16  2  0  0  0  0
 20 17  1  0  0  0  0
 21 19  2  0  0  0  0
 22 24  1  0  0  0  0
 22 25  1  0  0  0  0
 22 23  1  0  0  0  0
M  END
>  <MODEL>
2

>  <REMARK>
 VINA RESULT:      -9.7      0.975      1.053
  Name = 
  2 active torsions:
  status: ('A' for Active; 'I' for Inactive)
    1  A    between atoms: C_1  and  C_5
    2  A    between atoms: C_2  and  C_15
                            x       y       z     vdW  Elec       q    Type
                         _______ _______ _______ _____ _____    ______ ____

>  <TORSDO>
F 2

$$$$
=
 OpenBabel11052422083D

 25 27  0  0  0  0  0  0  0  0999 V2000
  161.2290  204.6600  149.1700 C   0  0  0  0  0  0  0  0  0  0  0  0
  161.3080  205.9090  149.8180 C   0  0  0  0  0  0  0  0  0  0  0  0
  161.0110  203.6020  151.3390 C   0  0  0  0  0  3  0  0  0  0  0  0
  161.7180  209.4440  148.8910 N   0  0  0  0  0  2  0  0  0  0  0  0
  161.0930  204.8160  151.9440 N   0  0  0  0  0  0  0  0  0  0  0  0
  161.3250  207.2040  151.8680 C   0  0  0  0  0  0  0  0  0  0  0  0
  161.2560  207.2990  153.2870 N   0  0  0  0  0  1  0  0  0  0  0  0
  161.8280  210.8050  149.3390 C   0  0  0  0  0  0  0  0  0  0  0  0
  161.4670  207.0620  149.1080 N   0  0  0  0  0  0  0  0  0  0  0  0
  161.0750  203.5050  149.9480 C   0  0  0  0  0  3  0  0  0  0  0  0
  161.4830  208.3630  151.1070 C   0  0  0  0  0  3  0  0  0  0  0  0
  161.5540  208.2790  149.7100 C   0  0  0  0  0  0  0  0  0  0  0  0
  161.2390  205.9620  151.2260 C   0  0  0  0  0  0  0  0  0  0  0  0
  161.7850  211.0830  150.5680 O   0  0  0  0  0  0  0  0  0  0  0  0
  161.2640  204.5430  147.6960 C   0  0  0  0  0  0  0  0  0  0  0  0
  161.2930  204.4100  144.8890 C   0  0  0  0  0  3  0  0  0  0  0  0
  161.2410  203.2910  147.0400 C   0  0  0  0  0  0  0  0  0  0  0  0
  161.2570  203.2360  145.6430 C   0  0  0  0  0  3  0  0  0  0  0  0
  161.3180  205.6490  145.5290 C   0  0  0  0  0  3  0  0  0  0  0  0
  161.2510  201.7690  147.9220 Cl  0  0  0  0  0  0  0  0  0  0  0  0
  161.3040  205.7140  146.9240 C   0  0  0  0  0  3  0  0  0  0  0  0
  161.9970  211.9110  148.3350 C   0  0  0  0  0  0  0  0  0  0  0  0
  161.5250  213.2240  148.9320 C   0  0  0  0  0  1  0  0  0  0  0  0
  163.4590  212.0390  147.9510 C   0  0  0  0  0  1  0  0  0  0  0  0
  161.2510  211.6450  147.1860 O   0  0  0  0  0  1  0  0  0  0  0  0
  1  2  2  0  0  0  0
  1 10  1  0  0  0  0
  2 13  1  0  0  0  0
  3  5  1  0  0  0  0
  4  8  1  0  0  0  0
  4 12  1  0  0  0  0
  6  7  1  0  0  0  0
  8 14  2  0  0  0  0
  9 12  2  0  0  0  0
  9  2  1  0  0  0  0
 10  3  2  0  0  0  0
 11  6  2  0  0  0  0
 12 11  1  0  0  0  0
 13  6  1  0  0  0  0
 13  5  2  0  0  0  0
 15  1  1  0  0  0  0
 16 19  2  0  0  0  0
 16 18  1  0  0  0  0
 17 15  1  0  0  0  0
 17 20  1  0  0  0  0
 18 17  2  0  0  0  0
 19 21  1  0  0  0  0
 21 15  2  0  0  0  0
 22 23  1  0  0  0  0
 22  8  1  0  0  0  0
 24 22  1  0  0  0  0
 25 22  1  0  0  0  0
M  END
>  <MODEL>
3

>  <REMARK>
 VINA RESULT:      -9.4      2.352      4.967
  Name = 
  2 active torsions:
  status: ('A' for Active; 'I' for Inactive)
    1  A    between atoms: C_1  and  C_5
    2  A    between atoms: C_2  and  C_15
                            x       y       z     vdW  Elec       q    Type
                         _______ _______ _______ _____ _____    ______ ____

>  <TORSDO>
F 2

$$$$
=
 OpenBabel11052422083D

 25 27  0  0  0  0  0  0  0  0999 V2000
  161.2080  203.1280  147.9090 C   0  0  0  0  0  0  0  0  0  0  0  0
  161.1510  203.7540  149.1710 C   0  0  0  0  0  0  0  0  0  0  0  0
  160.8340  200.9980  149.0010 C   0  0  0  0  0  3  0  0  0  0  0  0
  161.4510  207.1490  150.5510 N   0  0  0  0  0  2  0  0  0  0  0  0
  160.7870  201.6200  150.2080 N   0  0  0  0  0  0  0  0  0  0  0  0
  160.8910  203.5900  151.5750 C   0  0  0  0  0  0  0  0  0  0  0  0
  160.6750  202.8300  152.7610 N   0  0  0  0  0  1  0  0  0  0  0  0
  161.4400  207.9830  151.7210 C   0  0  0  0  0  0  0  0  0  0  0  0
  161.3150  205.1010  149.2970 N   0  0  0  0  0  0  0  0  0  0  0  0
  161.0420  201.7390  147.8370 C   0  0  0  0  0  3  0  0  0  0  0  0
  161.0580  204.9720  151.6640 C   0  0  0  0  0  3  0  0  0  0  0  0
  161.2730  205.7280  150.5040 C   0  0  0  0  0  0  0  0  0  0  0  0
  160.9390  202.9670  150.3220 C   0  0  0  0  0  0  0  0  0  0  0  0
  161.2580  207.4830  152.8640 O   0  0  0  0  0  0  0  0  0  0  0  0
  161.3970  203.9020  146.6630 C   0  0  0  0  0  0  0  0  0  0  0  0
  161.7700  205.4550  144.3500 C   0  0  0  0  0  3  0  0  0  0  0  0
  160.8310  203.4970  145.4320 C   0  0  0  0  0  0  0  0  0  0  0  0
  161.0250  204.2760  144.2870 C   0  0  0  0  0  3  0  0  0  0  0  0
  162.3330  205.8590  145.5600 C   0  0  0  0  0  3  0  0  0  0  0  0
  159.9260  201.9990  145.2640 Cl  0  0  0  0  0  0  0  0  0  0  0  0
  162.1470  205.0870  146.7080 C   0  0  0  0  0  3  0  0  0  0  0  0
  161.6450  209.4660  151.5850 C   0  0  0  0  0  0  0  0  0  0  0  0
  161.9560  209.8130  150.1410 C   0  0  0  0  0  1  0  0  0  0  0  0
  160.3870  210.2000  152.0110 C   0  0  0  0  0  1  0  0  0  0  0  0
  162.7060  209.8870  152.3890 O   0  0  0  0  0  1  0  0  0  0  0  0
  1  2  1  0  0  0  0
  2  9  1  0  0  0  0
  2 13  2  0  0  0  0
  3  5  2  0  0  0  0
  4  8  1  0  0  0  0
  5 13  1  0  0  0  0
  6 11  2  0  0  0  0
  6  7  1  0  0  0  0
  8 14  2  0  0  0  0
  9 12  2  0  0  0  0
 10  1  2  0  0  0  0
 10  3  1  0  0  0  0
 12  4  1  0  0  0  0
 12 11  1  0  0  0  0
 13  6  1  0  0  0  0
 15 21  1  0  0  0  0
 15  1  1  0  0  0  0
 16 19  1  0  0  0  0
 17 15  2  0  0  0  0
 18 16  2  0  0  0  0
 18 17  1  0  0  0  0
 19 21  2  0  0  0  0
 20 17  1  0  0  0  0
 22  8  1  0  0  0  0
 22 24  1  0  0  0  0
 22 25  1  0  0  0  0
 23 22  1  0  0  0  0
M  END
>  <MODEL>
4

>  <REMARK>
 VINA RESULT:      -9.4      2.141      4.601
  Name = 
  2 active torsions:
  status: ('A' for Active; 'I' for Inactive)
    1  A    between atoms: C_1  and  C_5
    2  A    between atoms: C_2  and  C_15
                            x       y       z     vdW  Elec       q    Type
                         _______ _______ _______ _____ _____    ______ ____

>  <TORSDO>
F 2

$$$$
=
 OpenBabel11052422083D

 25 27  0  0  0  0  0  0  0  0999 V2000
  161.2110  207.7130  152.3380 C   0  0  0  0  0  0  0  0  0  0  0  0
  161.2170  206.5550  151.5350 C   0  0  0  0  0  0  0  0  0  0  0  0
  161.1990  206.2950  154.3030 C   0  0  0  0  0  3  0  0  0  0  0  0
  161.2090  205.7130  147.9560 N   0  0  0  0  0  2  0  0  0  0  0  0
  161.2010  205.1910  153.5110 N   0  0  0  0  0  0  0  0  0  0  0  0
  161.2090  204.1370  151.3550 C   0  0  0  0  0  0  0  0  0  0  0  0
  161.2040  202.8400  151.9420 N   0  0  0  0  0  1  0  0  0  0  0  0
  161.2070  204.6790  146.9590 C   0  0  0  0  0  0  0  0  0  0  0  0
  161.2130  206.6400  150.1750 N   0  0  0  0  0  0  0  0  0  0  0  0
  161.2060  207.5690  153.7310 C   0  0  0  0  0  3  0  0  0  0  0  0
  161.2090  204.2640  149.9650 C   0  0  0  0  0  3  0  0  0  0  0  0
  161.2100  205.5370  149.3780 C   0  0  0  0  0  0  0  0  0  0  0  0
  161.2100  205.2870  152.1540 C   0  0  0  0  0  0  0  0  0  0  0  0
  161.2070  203.4630  147.2930 O   0  0  0  0  0  0  0  0  0  0  0  0
  161.2490  209.0700  151.7490 C   0  0  0  0  0  0  0  0  0  0  0  0
  161.4060  211.6230  150.5840 C   0  0  0  0  0  3  0  0  0  0  0  0
  160.6180  210.1750  152.3640 C   0  0  0  0  0  0  0  0  0  0  0  0
  160.7000  211.4410  151.7750 C   0  0  0  0  0  3  0  0  0  0  0  0
  162.0290  210.5370  149.9710 C   0  0  0  0  0  3  0  0  0  0  0  0
  159.6660  210.0140  153.8340 Cl  0  0  0  0  0  0  0  0  0  0  0  0
  161.9510  209.2690  150.5500 C   0  0  0  0  0  3  0  0  0  0  0  0
  161.2060  205.0450  145.5010 C   0  0  0  0  0  0  0  0  0  0  0  0
  160.2560  206.2040  145.2620 C   0  0  0  0  0  1  0  0  0  0  0  0
  162.6030  205.4540  145.0720 C   0  0  0  0  0  1  0  0  0  0  0  0
  160.7960  203.9590  144.7250 O   0  0  0  0  0  1  0  0  0  0  0  0
  1 10  1  0  0  0  0
  2 13  1  0  0  0  0
  2  1  2  0  0  0  0
  4 12  1  0  0  0  0
  5  3  1  0  0  0  0
  6  7  1  0  0  0  0
  6 13  1  0  0  0  0
  8 14  2  0  0  0  0
  8  4  1  0  0  0  0
  9  2  1  0  0  0  0
 10  3  2  0  0  0  0
 11  6  2  0  0  0  0
 12 11  1  0  0  0  0
 12  9  2  0  0  0  0
 13  5  2  0  0  0  0
 15  1  1  0  0  0  0
 15 17  1  0  0  0  0
 16 18  1  0  0  0  0
 17 20  1  0  0  0  0
 18 17  2  0  0  0  0
 19 21  1  0  0  0  0
 19 16  2  0  0  0  0
 21 15  2  0  0  0  0
 22  8  1  0  0  0  0
 23 22  1  0  0  0  0
 24 22  1  0  0  0  0
 25 22  1  0  0  0  0
M  END
>  <MODEL>
5

>  <REMARK>
 VINA RESULT:      -8.7      3.819      7.702
  Name = 
  2 active torsions:
  status: ('A' for Active; 'I' for Inactive)
    1  A    between atoms: C_1  and  C_5
    2  A    between atoms: C_2  and  C_15
                            x       y       z     vdW  Elec       q    Type
                         _______ _______ _______ _____ _____    ______ ____

>  <TORSDO>
F 2

$$$$
=
 OpenBabel11052422083D

 25 27  0  0  0  0  0  0  0  0999 V2000
  161.2710  209.8120  151.6270 C   0  0  0  0  0  0  0  0  0  0  0  0
  161.3020  208.4650  151.2150 C   0  0  0  0  0  0  0  0  0  0  0  0
  161.2170  209.0580  153.9290 C   0  0  0  0  0  3  0  0  0  0  0  0
  161.3850  206.5750  148.0610 N   0  0  0  0  0  2  0  0  0  0  0  0
  161.2440  207.7650  153.5110 N   0  0  0  0  0  0  0  0  0  0  0  0
  161.3080  206.1060  151.7770 C   0  0  0  0  0  0  0  0  0  0  0  0
  161.2950  205.0480  152.7310 N   0  0  0  0  0  1  0  0  0  0  0  0
  161.4120  205.2870  147.4260 C   0  0  0  0  0  0  0  0  0  0  0  0
  161.3310  208.1330  149.8930 N   0  0  0  0  0  0  0  0  0  0  0  0
  161.2320  210.0980  152.9980 C   0  0  0  0  0  3  0  0  0  0  0  0
  161.3420  205.8050  150.4150 C   0  0  0  0  0  3  0  0  0  0  0  0
  161.3520  206.8390  149.4700 C   0  0  0  0  0  0  0  0  0  0  0  0
  161.2850  207.4440  152.1900 C   0  0  0  0  0  0  0  0  0  0  0  0
  161.4080  204.2300  148.1140 O   0  0  0  0  0  0  0  0  0  0  0  0
  161.3180  210.9260  150.6550 C   0  0  0  0  0  0  0  0  0  0  0  0
  161.4990  213.0150  148.7840 C   0  0  0  0  0  3  0  0  0  0  0  0
  160.5150  212.0800  150.7940 C   0  0  0  0  0  0  0  0  0  0  0  0
  160.6110  213.1140  149.8560 C   0  0  0  0  0  3  0  0  0  0  0  0
  162.2930  211.8780  148.6390 C   0  0  0  0  0  3  0  0  0  0  0  0
  159.3350  212.2520  152.0870 Cl  0  0  0  0  0  0  0  0  0  0  0  0
  162.2020  210.8400  149.5690 C   0  0  0  0  0  3  0  0  0  0  0  0
  161.4450  205.1930  145.9260 C   0  0  0  0  0  0  0  0  0  0  0  0
  161.2160  203.7570  145.4950 C   0  0  0  0  0  1  0  0  0  0  0  0
  160.3570  206.0680  145.3320 C   0  0  0  0  0  1  0  0  0  0  0  0
  162.6810  205.6190  145.4370 O   0  0  0  0  0  1  0  0  0  0  0  0
  1 10  1  0  0  0  0
  2  1  2  0  0  0  0
  2 13  1  0  0  0  0
  4 12  1  0  0  0  0
  5  3  1  0  0  0  0
  6 13  1  0  0  0  0
  6  7  1  0  0  0  0
  8  4  1  0  0  0  0
  8 14  2  0  0  0  0
  9  2  1  0  0  0  0
 10  3  2  0  0  0  0
 11  6  2  0  0  0  0
 12  9  2  0  0  0  0
 12 11  1  0  0  0  0
 13  5  2  0  0  0  0
 15 17  1  0  0  0  0
 15  1  1  0  0  0  0
 16 18  1  0  0  0  0
 17 20  1  0  0  0  0
 18 17  2  0  0  0  0
 19 16  2  0  0  0  0
 19 21  1  0  0  0  0
 21 15  2  0  0  0  0
 22  8  1  0  0  0  0
 23 22  1  0  0  0  0
 24 22  1  0  0  0  0
 25 22  1  0  0  0  0
M  END
>  <MODEL>
6

>  <REMARK>
 VINA RESULT:      -8.5      3.860      7.930
  Name = 
  2 active torsions:
  status: ('A' for Active; 'I' for Inactive)
    1  A    between atoms: C_1  and  C_5
    2  A    between atoms: C_2  and  C_15
                            x       y       z     vdW  Elec       q    Type
                         _______ _______ _______ _____ _____    ______ ____

>  <TORSDO>
F 2

$$$$
=
 OpenBabel11052422083D

 25 27  0  0  0  0  0  0  0  0999 V2000
  161.5450  205.8910  149.4400 C   0  0  0  0  0  0  0  0  0  0  0  0
  161.5220  207.0470  150.2470 C   0  0  0  0  0  0  0  0  0  0  0  0
  162.1110  207.2840  147.5400 C   0  0  0  0  0  3  0  0  0  0  0  0
  160.8690  207.9120  153.7610 N   0  0  0  0  0  2  0  0  0  0  0  0
  162.0800  208.3860  148.3340 N   0  0  0  0  0  0  0  0  0  0  0  0
  161.7630  209.4490  150.4630 C   0  0  0  0  0  0  0  0  0  0  0  0
  162.0360  210.7330  149.9110 N   0  0  0  0  0  1  0  0  0  0  0  0
  160.7820  208.9470  154.7530 C   0  0  0  0  0  0  0  0  0  0  0  0
  161.2240  206.9730  151.5750 N   0  0  0  0  0  0  0  0  0  0  0  0
  161.8470  206.0240  148.0790 C   0  0  0  0  0  3  0  0  0  0  0  0
  161.4600  209.3340  151.8200 C   0  0  0  0  0  3  0  0  0  0  0  0
  161.1870  208.0750  152.3720 C   0  0  0  0  0  0  0  0  0  0  0  0
  161.7940  208.3010  149.6620 C   0  0  0  0  0  0  0  0  0  0  0  0
  160.9960  210.1510  154.4470 O   0  0  0  0  0  0  0  0  0  0  0  0
  161.2980  204.5440  150.0010 C   0  0  0  0  0  0  0  0  0  0  0  0
  160.7460  201.9800  151.0110 C   0  0  0  0  0  3  0  0  0  0  0  0
  161.7970  204.1520  151.2640 C   0  0  0  0  0  0  0  0  0  0  0  0
  161.5190  202.8730  151.7560 C   0  0  0  0  0  3  0  0  0  0  0  0
  160.2520  202.3600  149.7630 C   0  0  0  0  0  3  0  0  0  0  0  0
  162.8210  205.2010  152.2340 Cl  0  0  0  0  0  0  0  0  0  0  0  0
  160.5270  203.6340  149.2620 C   0  0  0  0  0  3  0  0  0  0  0  0
  160.4340  208.5950  156.1720 C   0  0  0  0  0  0  0  0  0  0  0  0
  159.6530  207.2940  156.2030 C   0  0  0  0  0  1  0  0  0  0  0  0
  161.7030  208.4300  156.9870 C   0  0  0  0  0  1  0  0  0  0  0  0
  159.6560  209.6010  156.7480 O   0  0  0  0  0  1  0  0  0  0  0  0
  1 15  1  0  0  0  0
  1  2  1  0  0  0  0
  2  9  1  0  0  0  0
  3 10  1  0  0  0  0
  3  5  2  0  0  0  0
  4  8  1  0  0  0  0
  5 13  1  0  0  0  0
  6 11  2  0  0  0  0
  7  6  1  0  0  0  0
  8 22  1  0  0  0  0
  9 12  2  0  0  0  0
 10  1  2  0  0  0  0
 11 12  1  0  0  0  0
 12  4  1  0  0  0  0
 13  2  2  0  0  0  0
 13  6  1  0  0  0  0
 14  8  2  0  0  0  0
 15 17  1  0  0  0  0
 16 18  1  0  0  0  0
 17 18  2  0  0  0  0
 17 20  1  0  0  0  0
 19 16  2  0  0  0  0
 21 19  1  0  0  0  0
 21 15  2  0  0  0  0
 22 23  1  0  0  0  0
 22 25  1  0  0  0  0
 22 24  1  0  0  0  0
M  END
>  <MODEL>
7

>  <REMARK>
 VINA RESULT:      -8.3      1.738      2.084
  Name = 
  2 active torsions:
  status: ('A' for Active; 'I' for Inactive)
    1  A    between atoms: C_1  and  C_5
    2  A    between atoms: C_2  and  C_15
                            x       y       z     vdW  Elec       q    Type
                         _______ _______ _______ _____ _____    ______ ____

>  <TORSDO>
F 2

$$$$
=
 OpenBabel11052422083D

 25 27  0  0  0  0  0  0  0  0999 V2000
  161.5880  206.1390  150.3940 C   0  0  0  0  0  0  0  0  0  0  0  0
  161.5790  207.5300  150.6210 C   0  0  0  0  0  0  0  0  0  0  0  0
  161.4450  205.7950  152.7880 C   0  0  0  0  0  3  0  0  0  0  0  0
  161.7410  210.6220  148.6360 N   0  0  0  0  0  2  0  0  0  0  0  0
  161.4410  207.1390  152.9860 N   0  0  0  0  0  0  0  0  0  0  0  0
  161.5060  209.3960  152.1680 C   0  0  0  0  0  0  0  0  0  0  0  0
  161.4310  209.9220  153.4890 N   0  0  0  0  0  1  0  0  0  0  0  0
  161.7560  212.0580  148.6370 C   0  0  0  0  0  0  0  0  0  0  0  0
  161.6570  208.4130  149.5860 N   0  0  0  0  0  0  0  0  0  0  0  0
  161.5150  205.2760  151.4950 C   0  0  0  0  0  3  0  0  0  0  0  0
  161.5820  210.2690  151.0820 C   0  0  0  0  0  3  0  0  0  0  0  0
  161.6590  209.7610  149.7790 C   0  0  0  0  0  0  0  0  0  0  0  0
  161.5070  208.0130  151.9450 C   0  0  0  0  0  0  0  0  0  0  0  0
  161.6920  212.7010  149.7200 O   0  0  0  0  0  0  0  0  0  0  0  0
  161.6320  205.5720  149.0290 C   0  0  0  0  0  0  0  0  0  0  0  0
  161.7090  204.5870  146.3970 C   0  0  0  0  0  3  0  0  0  0  0  0
  161.2060  204.2540  148.7470 C   0  0  0  0  0  0  0  0  0  0  0  0
  161.2500  203.7730  147.4340 C   0  0  0  0  0  3  0  0  0  0  0  0
  162.1330  205.8880  146.6680 C   0  0  0  0  0  3  0  0  0  0  0  0
  160.6670  203.1530  150.0070 Cl  0  0  0  0  0  0  0  0  0  0  0  0
  162.0940  206.3760  147.9760 C   0  0  0  0  0  3  0  0  0  0  0  0
  161.8460  212.8070  147.3370 C   0  0  0  0  0  0  0  0  0  0  0  0
  160.7450  212.3460  146.4000 C   0  0  0  0  0  1  0  0  0  0  0  0
  161.6920  214.2950  147.5880 C   0  0  0  0  0  1  0  0  0  0  0  0
  163.0810  212.5790  146.7270 O   0  0  0  0  0  1  0  0  0  0  0  0
  1  2  2  0  0  0  0
  1 10  1  0  0  0  0
  2 13  1  0  0  0  0
  3  5  1  0  0  0  0
  4  8  1  0  0  0  0
  4 12  1  0  0  0  0
  6  7  1  0  0  0  0
  8 14  2  0  0  0  0
  9 12  2  0  0  0  0
  9  2  1  0  0  0  0
 10  3  2  0  0  0  0
 11  6  2  0  0  0  0
 12 11  1  0  0  0  0
 13  6  1  0  0  0  0
 13  5  2  0  0  0  0
 15  1  1  0  0  0  0
 16 19  2  0  0  0  0
 16 18  1  0  0  0  0
 17 15  1  0  0  0  0
 17 20  1  0  0  0  0
 18 17  2  0  0  0  0
 19 21  1  0  0  0  0
 21 15  2  0  0  0  0
 22 24  1  0  0  0  0
 22  8  1  0  0  0  0
 23 22  1  0  0  0  0
 25 22  1  0  0  0  0
M  END
>  <MODEL>
8

>  <REMARK>
 VINA RESULT:      -8.2      2.931      5.500
  Name = 
  2 active torsions:
  status: ('A' for Active; 'I' for Inactive)
    1  A    between atoms: C_1  and  C_5
    2  A    between atoms: C_2  and  C_15
                            x       y       z     vdW  Elec       q    Type
                         _______ _______ _______ _____ _____    ______ ____

>  <TORSDO>
F 2

$$$$
=
 OpenBabel11052422083D

 25 27  0  0  0  0  0  0  0  0999 V2000
  161.3610  208.4550  151.8300 C   0  0  0  0  0  0  0  0  0  0  0  0
  161.3840  207.5900  150.7170 C   0  0  0  0  0  0  0  0  0  0  0  0
  161.9560  210.2870  150.3600 C   0  0  0  0  0  3  0  0  0  0  0  0
  160.8560  204.0180  150.0230 N   0  0  0  0  0  2  0  0  0  0  0  0
  161.9760  209.4360  149.3010 N   0  0  0  0  0  0  0  0  0  0  0  0
  161.7300  207.2500  148.3420 C   0  0  0  0  0  0  0  0  0  0  0  0
  162.0430  207.7380  147.0410 N   0  0  0  0  0  1  0  0  0  0  0  0
  160.8310  202.9690  149.0420 C   0  0  0  0  0  0  0  0  0  0  0  0
  161.1220  206.2600  150.8530 N   0  0  0  0  0  0  0  0  0  0  0  0
  161.6470  209.8130  151.6360 C   0  0  0  0  0  3  0  0  0  0  0  0
  161.4510  205.8940  148.5190 C   0  0  0  0  0  3  0  0  0  0  0  0
  161.1460  205.4030  149.7960 C   0  0  0  0  0  0  0  0  0  0  0  0
  161.7010  208.1120  149.4450 C   0  0  0  0  0  0  0  0  0  0  0  0
  161.0800  203.2160  147.8310 O   0  0  0  0  0  0  0  0  0  0  0  0
  161.0060  207.9750  153.1830 C   0  0  0  0  0  0  0  0  0  0  0  0
  160.3210  206.9700  155.7170 C   0  0  0  0  0  3  0  0  0  0  0  0
  160.4560  208.8300  154.1650 C   0  0  0  0  0  0  0  0  0  0  0  0
  160.1200  208.3200  155.4230 C   0  0  0  0  0  3  0  0  0  0  0  0
  160.8660  206.1210  154.7540 C   0  0  0  0  0  3  0  0  0  0  0  0
  160.2240  210.5500  153.8870 Cl  0  0  0  0  0  0  0  0  0  0  0  0
  161.2060  206.6210  153.4960 C   0  0  0  0  0  3  0  0  0  0  0  0
  160.5050  201.5620  149.4580 C   0  0  0  0  0  0  0  0  0  0  0  0
  161.2090  200.5780  148.5430 C   0  0  0  0  0  1  0  0  0  0  0  0
  160.9650  201.3290  150.8850 C   0  0  0  0  0  1  0  0  0  0  0  0
  159.1290  201.3390  149.3870 O   0  0  0  0  0  1  0  0  0  0  0  0
  1 15  1  0  0  0  0
  2  9  1  0  0  0  0
  2  1  2  0  0  0  0
  3 10  2  0  0  0  0
  5 13  2  0  0  0  0
  5  3  1  0  0  0  0
  6 11  2  0  0  0  0
  6 13  1  0  0  0  0
  7  6  1  0  0  0  0
  8 22  1  0  0  0  0
  8  4  1  0  0  0  0
 10  1  1  0  0  0  0
 11 12  1  0  0  0  0
 12  4  1  0  0  0  0
 12  9  2  0  0  0  0
 13  2  1  0  0  0  0
 14  8  2  0  0  0  0
 15 21  2  0  0  0  0
 15 17  1  0  0  0  0
 17 18  2  0  0  0  0
 18 16  1  0  0  0  0
 19 16  2  0  0  0  0
 20 17  1  0  0  0  0
 21 19  1  0  0  0  0
 22 24  1  0  0  0  0
 23 22  1  0  0  0  0
 25 22  1  0  0  0  0
M  END
>  <MODEL>
9

>  <REMARK>
 VINA RESULT:      -8.1      3.496      6.460
  Name = 
  2 active torsions:
  status: ('A' for Active; 'I' for Inactive)
    1  A    between atoms: C_1  and  C_5
    2  A    between atoms: C_2  and  C_15
                            x       y       z     vdW  Elec       q    Type
                         _______ _______ _______ _____ _____    ______ ____

>  <TORSDO>
F 2

$$$$
