=
 OpenBabel11052421563D

 30 32  0  0  1  0  0  0  0  0999 V2000
  161.1970  205.1930  150.2030 N   0  0  0  0  0  0  0  0  0  0  0  0
  161.2820  202.9610  151.2760 C   0  0  0  0  0  0  0  0  0  0  0  0
  161.1010  203.5960  146.3490 C   0  0  0  0  0  3  0  0  0  0  0  0
  161.1710  206.0460  149.1430 C   0  0  0  0  0  0  0  0  0  0  0  0
  161.0840  204.4480  145.2430 C   0  0  0  0  0  3  0  0  0  0  0  0
  160.9630  201.5940  150.9990 O   0  0  0  0  0  0  0  0  0  0  0  0
  160.4560  203.4340  152.2970 O   0  0  0  0  0  0  0  0  0  0  0  0
  161.1280  204.1190  147.6520 C   0  0  0  0  0  0  0  0  0  0  0  0
  161.0280  201.0330  149.7170 C   0  0  0  0  0  3  0  0  0  0  0  0
  161.1660  203.8420  150.0590 C   0  0  0  0  0  0  0  0  0  0  0  0
  161.1380  205.5240  147.8360 C   0  0  0  0  0  0  0  0  0  0  0  0
  161.0930  205.8320  145.4250 C   0  0  0  0  0  3  0  0  0  0  0  0
  161.1200  206.3680  146.7140 C   0  0  0  0  0  3  0  0  0  0  0  0
  161.1240  201.8050  148.6380 C   0  0  0  0  0  3  0  0  0  0  0  0
  161.1440  203.2730  148.7760 C   0  0  0  0  0  0  0  0  0  0  0  0
  161.2180  207.5340  149.3810 C   0  0  2  0  0  3  0  0  0  0  0  0
  163.4910  207.5740  148.6830 O   0  0  0  0  0  0  0  0  0  0  0  0
  162.4200  208.2240  148.7950 C   0  0  0  0  0  0  0  0  0  0  0  0
  162.3670  209.5630  148.2920 N   0  0  0  0  0  2  0  0  0  0  0  0
  161.3730  210.4320  148.6190 O   0  0  0  0  0  0  0  0  0  0  0  0
  161.0280  212.6240  149.2900 O   0  0  0  0  0  1  0  0  0  0  0  0
  161.9830  211.6530  148.9790 C   0  0  2  0  0  3  0  0  0  0  0  0
  162.9540  212.1700  147.9270 C   0  0  0  0  0  1  0  0  0  0  0  0
  160.9120  207.9520  150.7940 C   0  0  0  0  0  3  0  0  0  0  0  0
  161.7830  208.6260  151.5470 C   0  0  0  0  0  3  0  0  0  0  0  0
  161.4430  209.0100  152.9470 C   0  0  0  0  0  2  0  0  0  0  0  0
  160.9100  207.8610  153.6610 N   0  0  0  0  0  2  0  0  0  0  0  0
  161.2120  208.9600  155.8610 N   0  0  0  0  0  1  0  0  0  0  0  0
  160.7990  207.8400  155.0830 C   0  0  0  0  0  0  0  0  0  0  0  0
  160.3320  206.8220  155.6560 O   0  0  0  0  0  0  0  0  0  0  0  0
  2  7  2  0  0  0  0
  3  8  1  0  0  0  0
  4 16  1  0  0  0  0
  4  1  2  0  0  0  0
  5 12  1  0  0  0  0
  5  3  2  0  0  0  0
  6  2  1  0  0  0  0
  8 11  2  0  0  0  0
  8 15  1  0  0  0  0
  9  6  1  0  0  0  0
 10  1  1  0  0  0  0
 10  2  1  0  0  0  0
 11  4  1  0  0  0  0
 12 13  2  0  0  0  0
 13 11  1  0  0  0  0
 14 15  1  0  0  0  0
 14  9  2  0  0  0  0
 15 10  2  0  0  0  0
 16 24  1  1  0  0  0
 17 18  2  0  0  0  0
 18 16  1  0  0  0  0
 19 20  1  0  0  0  0
 19 18  1  0  0  0  0
 20 22  1  0  0  0  0
 22 23  1  6  0  0  0
 22 21  1  0  0  0  0
 24 25  2  0  0  0  0
 25 26  1  0  0  0  0
 26 27  1  0  0  0  0
 27 29  1  0  0  0  0
 29 30  2  0  0  0  0
 29 28  1  0  0  0  0
M  END
>  <MODEL>
1

>  <REMARK>
 VINA RESULT:      -8.0      0.000      0.000
  Name = 
  7 active torsions:
  status: ('A' for Active; 'I' for Inactive)
    1  A    between atoms: C_4  and  C_13
    2  A    between atoms: N_7  and  C_16
    3  A    between atoms: C_8  and  C_13
    4  A    between atoms: O_9  and  N_12
    5  A    between atoms: O_9  and  C_17
    6  A    between atoms: C_13  and  C_27
    7  A    between atoms: C_16  and  C_30
                            x       y       z     vdW  Elec       q    Type
                         _______ _______ _______ _____ _____    ______ ____

>  <TORSDO>
F 7

$$$$
=
 OpenBabel11052421563D

 30 32  0  0  1  0  0  0  0  0999 V2000
  161.3090  205.7720  147.9450 N   0  0  0  0  0  0  0  0  0  0  0  0
  161.1070  204.1790  146.0580 C   0  0  0  0  0  0  0  0  0  0  0  0
  160.9070  202.7770  150.8230 C   0  0  0  0  0  3  0  0  0  0  0  0
  161.3210  206.1230  149.2600 C   0  0  0  0  0  0  0  0  0  0  0  0
  160.9060  203.1100  152.1790 C   0  0  0  0  0  3  0  0  0  0  0  0
  161.2680  202.7860  145.7720 O   0  0  0  0  0  0  0  0  0  0  0  0
  162.0620  204.9130  145.3530 O   0  0  0  0  0  0  0  0  0  0  0  0
  161.0470  203.7740  149.8430 C   0  0  0  0  0  0  0  0  0  0  0  0
  161.0350  201.7750  146.7120 C   0  0  0  0  0  3  0  0  0  0  0  0
  161.1970  204.4820  147.5310 C   0  0  0  0  0  0  0  0  0  0  0  0
  161.1870  205.1260  150.2440 C   0  0  0  0  0  0  0  0  0  0  0  0
  161.0460  204.4420  152.5720 C   0  0  0  0  0  3  0  0  0  0  0  0
  161.1850  205.4450  151.6110 C   0  0  0  0  0  3  0  0  0  0  0  0
  160.9170  202.0600  148.0070 C   0  0  0  0  0  3  0  0  0  0  0  0
  161.0500  203.4520  148.4740 C   0  0  0  0  0  0  0  0  0  0  0  0
  161.4370  207.5770  149.6420 C   0  0  2  0  0  3  0  0  0  0  0  0
  163.0900  207.8180  147.9500 O   0  0  0  0  0  0  0  0  0  0  0  0
  162.2740  208.4060  148.7070 C   0  0  0  0  0  0  0  0  0  0  0  0
  162.1210  209.8250  148.5910 N   0  0  0  0  0  2  0  0  0  0  0  0
  161.4970  210.5760  149.5380 O   0  0  0  0  0  0  0  0  0  0  0  0
  160.7720  212.7710  149.3600 O   0  0  0  0  0  1  0  0  0  0  0  0
  161.8800  211.9180  149.3290 C   0  0  2  0  0  3  0  0  0  0  0  0
  162.6770  212.1200  148.0490 C   0  0  0  0  0  1  0  0  0  0  0  0
  161.7380  207.8200  151.0970 C   0  0  0  0  0  3  0  0  0  0  0  0
  160.9680  208.5880  151.8690 C   0  0  0  0  0  3  0  0  0  0  0  0
  161.3100  208.8120  153.3030 C   0  0  0  0  0  2  0  0  0  0  0  0
  160.6670  207.8010  154.1290 N   0  0  0  0  0  2  0  0  0  0  0  0
  161.4370  208.8780  156.2230 N   0  0  0  0  0  1  0  0  0  0  0  0
  160.7320  207.8370  155.5540 C   0  0  0  0  0  0  0  0  0  0  0  0
  160.1600  206.9400  156.2250 O   0  0  0  0  0  0  0  0  0  0  0  0
  1  4  1  0  0  0  0
  2 10  1  0  0  0  0
  3  5  2  0  0  0  0
  4 16  1  0  0  0  0
  4 11  2  0  0  0  0
  5 12  1  0  0  0  0
  6  2  1  0  0  0  0
  6  9  1  0  0  0  0
  7  2  2  0  0  0  0
  8 11  1  0  0  0  0
  8  3  1  0  0  0  0
  9 14  2  0  0  0  0
 10  1  2  0  0  0  0
 10 15  1  0  0  0  0
 11 13  1  0  0  0  0
 13 12  2  0  0  0  0
 14 15  1  0  0  0  0
 15  8  2  0  0  0  0
 16 24  1  1  0  0  0
 17 18  2  0  0  0  0
 18 16  1  0  0  0  0
 19 18  1  0  0  0  0
 19 20  1  0  0  0  0
 22 23  1  6  0  0  0
 22 21  1  0  0  0  0
 22 20  1  0  0  0  0
 24 25  2  0  0  0  0
 25 26  1  0  0  0  0
 26 27  1  0  0  0  0
 27 29  1  0  0  0  0
 29 28  1  0  0  0  0
 29 30  2  0  0  0  0
M  END
>  <MODEL>
2

>  <REMARK>
 VINA RESULT:      -8.0      1.656      3.150
  Name = 
  7 active torsions:
  status: ('A' for Active; 'I' for Inactive)
    1  A    between atoms: C_4  and  C_13
    2  A    between atoms: N_7  and  C_16
    3  A    between atoms: C_8  and  C_13
    4  A    between atoms: O_9  and  N_12
    5  A    between atoms: O_9  and  C_17
    6  A    between atoms: C_13  and  C_27
    7  A    between atoms: C_16  and  C_30
                            x       y       z     vdW  Elec       q    Type
                         _______ _______ _______ _____ _____    ______ ____

>  <TORSDO>
F 7

$$$$
=
 OpenBabel11052421563D

 30 32  0  0  1  0  0  0  0  0999 V2000
  161.0950  207.4060  149.1620 N   0  0  0  0  0  0  0  0  0  0  0  0
  161.0580  205.8990  147.1960 C   0  0  0  0  0  0  0  0  0  0  0  0
  161.1480  204.2410  151.8810 C   0  0  0  0  0  3  0  0  0  0  0  0
  161.0910  207.6880  150.4940 C   0  0  0  0  0  0  0  0  0  0  0  0
  161.1350  204.5010  153.2530 C   0  0  0  0  0  3  0  0  0  0  0  0
  161.3910  204.5550  146.8330 O   0  0  0  0  0  0  0  0  0  0  0  0
  161.8940  206.7860  146.5160 O   0  0  0  0  0  0  0  0  0  0  0  0
  161.1360  205.2960  150.9550 C   0  0  0  0  0  0  0  0  0  0  0  0
  161.3120  203.4760  147.7220 C   0  0  0  0  0  3  0  0  0  0  0  0
  161.1410  206.1350  148.6820 C   0  0  0  0  0  0  0  0  0  0  0  0
  161.1090  206.6320  151.4250 C   0  0  0  0  0  0  0  0  0  0  0  0
  161.1100  205.8180  153.7150 C   0  0  0  0  0  3  0  0  0  0  0  0
  161.0970  206.8780  152.8070 C   0  0  0  0  0  3  0  0  0  0  0  0
  161.1870  203.6770  149.0310 C   0  0  0  0  0  3  0  0  0  0  0  0
  161.1490  205.0480  149.5700 C   0  0  0  0  0  0  0  0  0  0  0  0
  161.0280  209.1230  150.9520 C   0  0  2  0  0  3  0  0  0  0  0  0
  163.1390  210.0470  151.5380 O   0  0  0  0  0  0  0  0  0  0  0  0
  162.2580  209.9330  150.6470 C   0  0  0  0  0  0  0  0  0  0  0  0
  162.4970  210.5120  149.3600 N   0  0  0  0  0  2  0  0  0  0  0  0
  161.5110  210.6950  148.4420 O   0  0  0  0  0  0  0  0  0  0  0  0
  160.7720  212.2580  146.8970 O   0  0  0  0  0  1  0  0  0  0  0  0
  161.5680  212.0420  148.0260 C   0  0  2  0  0  3  0  0  0  0  0  0
  162.9880  212.5340  147.7850 C   0  0  0  0  0  1  0  0  0  0  0  0
  160.5140  209.3110  152.3540 C   0  0  0  0  0  3  0  0  0  0  0  0
  160.1790  210.5070  152.8400 C   0  0  0  0  0  3  0  0  0  0  0  0
  159.6850  210.6500  154.2390 C   0  0  0  0  0  2  0  0  0  0  0  0
  160.1440  209.5290  155.0440 N   0  0  0  0  0  2  0  0  0  0  0  0
  162.1950  210.7340  155.7340 N   0  0  0  0  0  1  0  0  0  0  0  0
  161.3700  209.5740  155.7720 C   0  0  0  0  0  0  0  0  0  0  0  0
  161.7260  208.5780  156.4540 O   0  0  0  0  0  0  0  0  0  0  0  0
  1  4  1  0  0  0  0
  2 10  1  0  0  0  0
  3  5  2  0  0  0  0
  4 16  1  0  0  0  0
  4 11  2  0  0  0  0
  5 12  1  0  0  0  0
  6  2  1  0  0  0  0
  6  9  1  0  0  0  0
  7  2  2  0  0  0  0
  8 11  1  0  0  0  0
  8  3  1  0  0  0  0
  9 14  2  0  0  0  0
 10  1  2  0  0  0  0
 10 15  1  0  0  0  0
 11 13  1  0  0  0  0
 13 12  2  0  0  0  0
 14 15  1  0  0  0  0
 15  8  2  0  0  0  0
 16 24  1  1  0  0  0
 18 16  1  0  0  0  0
 18 17  2  0  0  0  0
 19 18  1  0  0  0  0
 20 19  1  0  0  0  0
 21 22  1  0  0  0  0
 22 23  1  6  0  0  0
 22 20  1  0  0  0  0
 24 25  2  0  0  0  0
 25 26  1  0  0  0  0
 26 27  1  0  0  0  0
 27 29  1  0  0  0  0
 28 29  1  0  0  0  0
 29 30  2  0  0  0  0
M  END
>  <MODEL>
3

>  <REMARK>
 VINA RESULT:      -7.7      2.108      3.808
  Name = 
  7 active torsions:
  status: ('A' for Active; 'I' for Inactive)
    1  A    between atoms: C_4  and  C_13
    2  A    between atoms: N_7  and  C_16
    3  A    between atoms: C_8  and  C_13
    4  A    between atoms: O_9  and  N_12
    5  A    between atoms: O_9  and  C_17
    6  A    between atoms: C_13  and  C_27
    7  A    between atoms: C_16  and  C_30
                            x       y       z     vdW  Elec       q    Type
                         _______ _______ _______ _____ _____    ______ ____

>  <TORSDO>
F 7

$$$$
=
 OpenBabel11052421563D

 30 32  0  0  1  0  0  0  0  0999 V2000
  161.2430  206.0110  148.4350 N   0  0  0  0  0  0  0  0  0  0  0  0
  161.2190  205.3910  146.0370 C   0  0  0  0  0  0  0  0  0  0  0  0
  160.9590  202.0450  149.7040 C   0  0  0  0  0  3  0  0  0  0  0  0
  161.1860  205.7540  149.7710 C   0  0  0  0  0  0  0  0  0  0  0  0
  160.8880  201.7540  151.0680 C   0  0  0  0  0  3  0  0  0  0  0  0
  161.4890  204.2710  145.1860 O   0  0  0  0  0  0  0  0  0  0  0  0
  162.1430  206.4050  145.7780 O   0  0  0  0  0  0  0  0  0  0  0  0
  161.0600  203.3750  149.2630 C   0  0  0  0  0  0  0  0  0  0  0  0
  161.2980  202.9420  145.5810 C   0  0  0  0  0  3  0  0  0  0  0  0
  161.2370  205.0260  147.4980 C   0  0  0  0  0  0  0  0  0  0  0  0
  161.0900  204.4220  150.2170 C   0  0  0  0  0  0  0  0  0  0  0  0
  160.9190  202.7870  152.0070 C   0  0  0  0  0  3  0  0  0  0  0  0
  161.0180  204.1140  151.5840 C   0  0  0  0  0  3  0  0  0  0  0  0
  161.1160  202.6280  146.8620 C   0  0  0  0  0  3  0  0  0  0  0  0
  161.1320  203.6820  147.8920 C   0  0  0  0  0  0  0  0  0  0  0  0
  161.1850  206.9000  150.7510 C   0  0  2  0  0  3  0  0  0  0  0  0
  163.0030  207.9100  149.5990 O   0  0  0  0  0  0  0  0  0  0  0  0
  161.9860  208.0960  150.3160 C   0  0  0  0  0  0  0  0  0  0  0  0
  161.5930  209.4380  150.6230 N   0  0  0  0  0  2  0  0  0  0  0  0
  160.7030  209.7360  151.6080 O   0  0  0  0  0  0  0  0  0  0  0  0
  162.5070  210.2210  152.9810 O   0  0  0  0  0  1  0  0  0  0  0  0
  161.3070  210.6980  152.4440 C   0  0  2  0  0  3  0  0  0  0  0  0
  160.3850  211.1950  153.5480 C   0  0  0  0  0  1  0  0  0  0  0  0
  161.4240  206.5000  152.1820 C   0  0  0  0  0  3  0  0  0  0  0  0
  160.8240  207.1100  153.2060 C   0  0  0  0  0  3  0  0  0  0  0  0
  161.0980  206.6890  154.6100 C   0  0  0  0  0  2  0  0  0  0  0  0
  160.2250  207.4100  155.5230 N   0  0  0  0  0  2  0  0  0  0  0  0
  162.0190  209.0040  156.1390 N   0  0  0  0  0  1  0  0  0  0  0  0
  160.6780  208.5390  156.2680 C   0  0  0  0  0  0  0  0  0  0  0  0
  159.8860  209.1300  157.0460 O   0  0  0  0  0  0  0  0  0  0  0  0
  1  4  1  0  0  0  0
  2 10  1  0  0  0  0
  3  5  2  0  0  0  0
  4 11  2  0  0  0  0
  4 16  1  0  0  0  0
  5 12  1  0  0  0  0
  6  9  1  0  0  0  0
  6  2  1  0  0  0  0
  7  2  2  0  0  0  0
  8  3  1  0  0  0  0
  8 11  1  0  0  0  0
  9 14  2  0  0  0  0
 10 15  1  0  0  0  0
 10  1  2  0  0  0  0
 11 13  1  0  0  0  0
 13 12  2  0  0  0  0
 14 15  1  0  0  0  0
 15  8  2  0  0  0  0
 16 24  1  1  0  0  0
 17 18  2  0  0  0  0
 18 19  1  0  0  0  0
 18 16  1  0  0  0  0
 19 20  1  0  0  0  0
 20 22  1  0  0  0  0
 22 21  1  0  0  0  0
 22 23  1  1  0  0  0
 24 25  2  0  0  0  0
 25 26  1  0  0  0  0
 26 27  1  0  0  0  0
 27 29  1  0  0  0  0
 28 29  1  0  0  0  0
 29 30  2  0  0  0  0
M  END
>  <MODEL>
4

>  <REMARK>
 VINA RESULT:      -7.6      2.450      3.837
  Name = 
  7 active torsions:
  status: ('A' for Active; 'I' for Inactive)
    1  A    between atoms: C_4  and  C_13
    2  A    between atoms: N_7  and  C_16
    3  A    between atoms: C_8  and  C_13
    4  A    between atoms: O_9  and  N_12
    5  A    between atoms: O_9  and  C_17
    6  A    between atoms: C_13  and  C_27
    7  A    between atoms: C_16  and  C_30
                            x       y       z     vdW  Elec       q    Type
                         _______ _______ _______ _____ _____    ______ ____

>  <TORSDO>
F 7

$$$$
=
 OpenBabel11052421563D

 30 32  0  0  1  0  0  0  0  0999 V2000
  161.2880  208.3870  151.0460 N   0  0  0  0  0  0  0  0  0  0  0  0
  161.4070  209.2820  153.3530 C   0  0  0  0  0  0  0  0  0  0  0  0
  160.9080  204.4400  152.3450 C   0  0  0  0  0  3  0  0  0  0  0  0
  161.2060  207.3970  150.1150 C   0  0  0  0  0  0  0  0  0  0  0  0
  160.8320  203.4040  151.4130 C   0  0  0  0  0  3  0  0  0  0  0  0
  161.0460  208.9250  154.6920 O   0  0  0  0  0  0  0  0  0  0  0  0
  160.6590  210.3890  152.9490 O   0  0  0  0  0  0  0  0  0  0  0  0
  161.0310  205.7740  151.9230 C   0  0  0  0  0  0  0  0  0  0  0  0
  161.0170  207.6040  155.1550 C   0  0  0  0  0  3  0  0  0  0  0  0
  161.2250  208.1440  152.3820 C   0  0  0  0  0  0  0  0  0  0  0  0
  161.0780  206.0600  150.5360 C   0  0  0  0  0  0  0  0  0  0  0  0
  160.8770  203.6880  150.0460 C   0  0  0  0  0  3  0  0  0  0  0  0
  160.9990  205.0080  149.6100 C   0  0  0  0  0  3  0  0  0  0  0  0
  161.0540  206.5810  154.3040 C   0  0  0  0  0  3  0  0  0  0  0  0
  161.1080  206.8270  152.8520 C   0  0  0  0  0  0  0  0  0  0  0  0
  161.2950  207.7420  148.6500 C   0  0  2  0  0  3  0  0  0  0  0  0
  163.5050  206.9340  148.3080 O   0  0  0  0  0  0  0  0  0  0  0  0
  162.3210  206.9550  147.8820 C   0  0  0  0  0  0  0  0  0  0  0  0
  161.9860  206.1700  146.7330 N   0  0  0  0  0  2  0  0  0  0  0  0
  160.8320  206.3470  146.0340 O   0  0  0  0  0  0  0  0  0  0  0  0
  161.2160  204.0770  145.7630 O   0  0  0  0  0  1  0  0  0  0  0  0
  160.6810  205.2300  145.1840 C   0  0  2  0  0  3  0  0  0  0  0  0
  161.2600  205.4530  143.7940 C   0  0  0  0  0  1  0  0  0  0  0  0
  161.3210  209.2180  148.3550 C   0  0  0  0  0  3  0  0  0  0  0  0
  162.3310  210.0050  148.7290 C   0  0  0  0  0  3  0  0  0  0  0  0
  162.3110  211.4650  148.4260 C   0  0  0  0  0  2  0  0  0  0  0  0
  161.2090  211.7700  147.5270 N   0  0  0  0  0  2  0  0  0  0  0  0
  162.3160  213.8270  146.7040 N   0  0  0  0  0  1  0  0  0  0  0  0
  161.2150  212.9240  146.6890 C   0  0  0  0  0  0  0  0  0  0  0  0
  160.2370  213.1460  145.9290 O   0  0  0  0  0  0  0  0  0  0  0  0
  1 10  1  0  0  0  0
  2  6  1  0  0  0  0
  4 11  1  0  0  0  0
  4  1  2  0  0  0  0
  5  3  2  0  0  0  0
  6  9  1  0  0  0  0
  7  2  2  0  0  0  0
  8  3  1  0  0  0  0
  8 15  1  0  0  0  0
 10 15  2  0  0  0  0
 10  2  1  0  0  0  0
 11  8  2  0  0  0  0
 12  5  1  0  0  0  0
 13 12  2  0  0  0  0
 13 11  1  0  0  0  0
 14  9  2  0  0  0  0
 15 14  1  0  0  0  0
 16 24  1  1  0  0  0
 16  4  1  0  0  0  0
 18 17  2  0  0  0  0
 18 16  1  0  0  0  0
 19 18  1  0  0  0  0
 20 19  1  0  0  0  0
 22 23  1  6  0  0  0
 22 21  1  0  0  0  0
 22 20  1  0  0  0  0
 24 25  2  0  0  0  0
 26 25  1  0  0  0  0
 27 26  1  0  0  0  0
 29 28  1  0  0  0  0
 29 27  1  0  0  0  0
 30 29  2  0  0  0  0
M  END
>  <MODEL>
5

>  <REMARK>
 VINA RESULT:      -7.5      2.532      6.280
  Name = 
  7 active torsions:
  status: ('A' for Active; 'I' for Inactive)
    1  A    between atoms: C_4  and  C_13
    2  A    between atoms: N_7  and  C_16
    3  A    between atoms: C_8  and  C_13
    4  A    between atoms: O_9  and  N_12
    5  A    between atoms: O_9  and  C_17
    6  A    between atoms: C_13  and  C_27
    7  A    between atoms: C_16  and  C_30
                            x       y       z     vdW  Elec       q    Type
                         _______ _______ _______ _____ _____    ______ ____

>  <TORSDO>
F 7

$$$$
=
 OpenBabel11052421563D

 30 32  0  0  1  0  0  0  0  0999 V2000
  161.0680  207.4990  149.3410 N   0  0  0  0  0  0  0  0  0  0  0  0
  161.0370  205.8780  147.4690 C   0  0  0  0  0  0  0  0  0  0  0  0
  161.1360  204.5020  152.2440 C   0  0  0  0  0  3  0  0  0  0  0  0
  161.0640  207.8600  150.6540 C   0  0  0  0  0  0  0  0  0  0  0  0
  161.1220  204.8430  153.5980 C   0  0  0  0  0  3  0  0  0  0  0  0
  161.3770  204.5160  147.1850 O   0  0  0  0  0  0  0  0  0  0  0  0
  161.8700  206.7270  146.7370 O   0  0  0  0  0  0  0  0  0  0  0  0
  161.1190  205.5000  151.2560 C   0  0  0  0  0  0  0  0  0  0  0  0
  161.3030  203.4920  148.1370 C   0  0  0  0  0  3  0  0  0  0  0  0
  161.1200  206.2020  148.9370 C   0  0  0  0  0  0  0  0  0  0  0  0
  161.0870  206.8620  151.6460 C   0  0  0  0  0  0  0  0  0  0  0  0
  161.0910  206.1850  153.9810 C   0  0  0  0  0  3  0  0  0  0  0  0
  161.0730  207.1890  153.0110 C   0  0  0  0  0  3  0  0  0  0  0  0
  161.1770  203.7690  149.4320 C   0  0  0  0  0  3  0  0  0  0  0  0
  161.1330  205.1710  149.8890 C   0  0  0  0  0  0  0  0  0  0  0  0
  160.9940  209.3200  151.0260 C   0  0  2  0  0  3  0  0  0  0  0  0
  163.0830  210.1820  151.7650 O   0  0  0  0  0  0  0  0  0  0  0  0
  162.2710  210.0840  150.8080 C   0  0  0  0  0  0  0  0  0  0  0  0
  162.6310  210.6340  149.5360 N   0  0  0  0  0  2  0  0  0  0  0  0
  161.7260  210.8340  148.5410 O   0  0  0  0  0  0  0  0  0  0  0  0
  163.1950  212.5570  148.0410 O   0  0  0  0  0  1  0  0  0  0  0  0
  161.8520  212.1760  148.1220 C   0  0  2  0  0  3  0  0  0  0  0  0
  161.0680  213.1500  148.9900 C   0  0  0  0  0  1  0  0  0  0  0  0
  160.3440  209.5960  152.3540 C   0  0  0  0  0  3  0  0  0  0  0  0
  159.7770  210.7690  152.6440 C   0  0  0  0  0  3  0  0  0  0  0  0
  159.1540  211.0050  153.9780 C   0  0  0  0  0  2  0  0  0  0  0  0
  158.3090  212.1890  153.9280 N   0  0  0  0  0  2  0  0  0  0  0  0
  156.4200  211.0100  155.0150 N   0  0  0  0  0  1  0  0  0  0  0  0
  156.9760  212.1870  154.4350 C   0  0  0  0  0  0  0  0  0  0  0  0
  156.2840  213.2350  154.3690 O   0  0  0  0  0  0  0  0  0  0  0  0
  1  4  1  0  0  0  0
  2 10  1  0  0  0  0
  3  5  2  0  0  0  0
  4 16  1  0  0  0  0
  4 11  2  0  0  0  0
  5 12  1  0  0  0  0
  6  2  1  0  0  0  0
  6  9  1  0  0  0  0
  7  2  2  0  0  0  0
  8 11  1  0  0  0  0
  8  3  1  0  0  0  0
  9 14  2  0  0  0  0
 10  1  2  0  0  0  0
 10 15  1  0  0  0  0
 11 13  1  0  0  0  0
 13 12  2  0  0  0  0
 14 15  1  0  0  0  0
 15  8  2  0  0  0  0
 16 24  1  1  0  0  0
 18 16  1  0  0  0  0
 18 17  2  0  0  0  0
 19 18  1  0  0  0  0
 20 19  1  0  0  0  0
 21 22  1  0  0  0  0
 22 20  1  0  0  0  0
 22 23  1  1  0  0  0
 24 25  2  0  0  0  0
 25 26  1  0  0  0  0
 27 26  1  0  0  0  0
 27 29  1  0  0  0  0
 29 28  1  0  0  0  0
 30 29  2  0  0  0  0
M  END
>  <MODEL>
6

>  <REMARK>
 VINA RESULT:      -7.5      2.816      4.453
  Name = 
  7 active torsions:
  status: ('A' for Active; 'I' for Inactive)
    1  A    between atoms: C_4  and  C_13
    2  A    between atoms: N_7  and  C_16
    3  A    between atoms: C_8  and  C_13
    4  A    between atoms: O_9  and  N_12
    5  A    between atoms: O_9  and  C_17
    6  A    between atoms: C_13  and  C_27
    7  A    between atoms: C_16  and  C_30
                            x       y       z     vdW  Elec       q    Type
                         _______ _______ _______ _____ _____    ______ ____

>  <TORSDO>
F 7

$$$$
=
 OpenBabel11052421563D

 30 32  0  0  1  0  0  0  0  0999 V2000
  160.8190  206.8210  152.4520 N   0  0  0  0  0  0  0  0  0  0  0  0
  160.4960  207.7760  154.7150 C   0  0  0  0  0  0  0  0  0  0  0  0
  161.8960  210.4980  150.7990 C   0  0  0  0  0  3  0  0  0  0  0  0
  161.0980  206.8830  151.1210 C   0  0  0  0  0  0  0  0  0  0  0  0
  162.1780  210.5930  149.4350 C   0  0  0  0  0  3  0  0  0  0  0  0
  160.8920  208.9060  155.5000 O   0  0  0  0  0  0  0  0  0  0  0  0
  161.0340  206.6130  155.2690 O   0  0  0  0  0  0  0  0  0  0  0  0
  161.5370  209.2660  151.3700 C   0  0  0  0  0  0  0  0  0  0  0  0
  161.1560  210.1670  154.9540 C   0  0  0  0  0  3  0  0  0  0  0  0
  160.9010  207.9040  153.2700 C   0  0  0  0  0  0  0  0  0  0  0  0
  161.4640  208.1150  150.5470 C   0  0  0  0  0  0  0  0  0  0  0  0
  162.1060  209.4570  148.6250 C   0  0  0  0  0  3  0  0  0  0  0  0
  161.7510  208.2260  149.1780 C   0  0  0  0  0  3  0  0  0  0  0  0
  161.3230  210.3230  153.6430 C   0  0  0  0  0  3  0  0  0  0  0  0
  161.2510  209.1570  152.7430 C   0  0  0  0  0  0  0  0  0  0  0  0
  160.9740  205.6410  150.2750 C   0  0  2  0  0  3  0  0  0  0  0  0
  162.4680  204.4670  151.7040 O   0  0  0  0  0  0  0  0  0  0  0  0
  161.4820  204.3850  150.9270 C   0  0  0  0  0  0  0  0  0  0  0  0
  160.8380  203.1170  150.7590 N   0  0  0  0  0  2  0  0  0  0  0  0
  159.9690  202.8640  149.7440 O   0  0  0  0  0  0  0  0  0  0  0  0
  161.1230  200.8900  150.1270 O   0  0  0  0  0  1  0  0  0  0  0  0
  160.2320  201.5570  149.2820 C   0  0  2  0  0  3  0  0  0  0  0  0
  160.7250  201.5190  147.8430 C   0  0  0  0  0  1  0  0  0  0  0  0
  161.4280  205.8070  148.8500 C   0  0  0  0  0  3  0  0  0  0  0  0
  162.0310  204.8290  148.1720 C   0  0  0  0  0  3  0  0  0  0  0  0
  162.4750  205.0400  146.7640 C   0  0  0  0  0  2  0  0  0  0  0  0
  161.7310  204.1630  145.8730 N   0  0  0  0  0  2  0  0  0  0  0  0
  160.3450  206.0330  145.0250 N   0  0  0  0  0  1  0  0  0  0  0  0
  160.6920  204.6510  145.0260 C   0  0  0  0  0  0  0  0  0  0  0  0
  160.0770  203.8530  144.2730 O   0  0  0  0  0  0  0  0  0  0  0  0
  1 10  1  0  0  0  0
  2  7  2  0  0  0  0
  2  6  1  0  0  0  0
  3  8  1  0  0  0  0
  4  1  2  0  0  0  0
  5  3  2  0  0  0  0
  8 15  1  0  0  0  0
  9  6  1  0  0  0  0
 10  2  1  0  0  0  0
 11  4  1  0  0  0  0
 11  8  2  0  0  0  0
 12 13  2  0  0  0  0
 12  5  1  0  0  0  0
 13 11  1  0  0  0  0
 14  9  2  0  0  0  0
 15 10  2  0  0  0  0
 15 14  1  0  0  0  0
 16 24  1  6  0  0  0
 16 18  1  0  0  0  0
 16  4  1  0  0  0  0
 18 17  2  0  0  0  0
 19 18  1  0  0  0  0
 20 19  1  0  0  0  0
 22 23  1  6  0  0  0
 22 20  1  0  0  0  0
 22 21  1  0  0  0  0
 25 24  2  0  0  0  0
 26 25  1  0  0  0  0
 27 26  1  0  0  0  0
 28 29  1  0  0  0  0
 29 27  1  0  0  0  0
 30 29  2  0  0  0  0
M  END
>  <MODEL>
7

>  <REMARK>
 VINA RESULT:      -7.4      2.624      7.524
  Name = 
  7 active torsions:
  status: ('A' for Active; 'I' for Inactive)
    1  A    between atoms: C_4  and  C_13
    2  A    between atoms: N_7  and  C_16
    3  A    between atoms: C_8  and  C_13
    4  A    between atoms: O_9  and  N_12
    5  A    between atoms: O_9  and  C_17
    6  A    between atoms: C_13  and  C_27
    7  A    between atoms: C_16  and  C_30
                            x       y       z     vdW  Elec       q    Type
                         _______ _______ _______ _____ _____    ______ ____

>  <TORSDO>
F 7

$$$$
=
 OpenBabel11052421563D

 30 32  0  0  1  0  0  0  0  0999 V2000
  161.2350  206.7170  151.7770 N   0  0  0  0  0  0  0  0  0  0  0  0
  160.6340  207.2000  154.1310 C   0  0  0  0  0  0  0  0  0  0  0  0
  161.7430  210.7510  150.8340 C   0  0  0  0  0  3  0  0  0  0  0  0
  161.5680  207.0540  150.5010 C   0  0  0  0  0  0  0  0  0  0  0  0
  162.0750  211.1250  149.5310 C   0  0  0  0  0  3  0  0  0  0  0  0
  160.7860  208.2260  155.1190 O   0  0  0  0  0  0  0  0  0  0  0  0
  161.3360  206.0620  154.5310 O   0  0  0  0  0  0  0  0  0  0  0  0
  161.5740  209.3970  151.1670 C   0  0  0  0  0  0  0  0  0  0  0  0
  160.8560  209.5890  154.8070 C   0  0  0  0  0  3  0  0  0  0  0  0
  161.0850  207.6410  152.7640 C   0  0  0  0  0  0  0  0  0  0  0  0
  161.7430  208.4100  150.1650 C   0  0  0  0  0  0  0  0  0  0  0  0
  162.2430  210.1510  148.5450 C   0  0  0  0  0  3  0  0  0  0  0  0
  162.0780  208.8010  148.8600 C   0  0  0  0  0  3  0  0  0  0  0  0
  161.0620  209.9940  153.5560 C   0  0  0  0  0  3  0  0  0  0  0  0
  161.2390  209.0060  152.4760 C   0  0  0  0  0  0  0  0  0  0  0  0
  161.7050  205.9740  149.4570 C   0  0  2  0  0  3  0  0  0  0  0  0
  159.5870  206.4150  148.4710 O   0  0  0  0  0  0  0  0  0  0  0  0
  160.7960  206.1330  148.2690 C   0  0  0  0  0  0  0  0  0  0  0  0
  161.2720  206.0510  146.9210 N   0  0  0  0  0  2  0  0  0  0  0  0
  162.4620  205.4790  146.5950 O   0  0  0  0  0  0  0  0  0  0  0  0
  161.5670  205.2150  144.4730 O   0  0  0  0  0  1  0  0  0  0  0  0
  162.2200  204.5810  145.5340 C   0  0  2  0  0  3  0  0  0  0  0  0
  161.4600  203.3360  145.9650 C   0  0  0  0  0  1  0  0  0  0  0  0
  161.7420  204.5740  150.0060 C   0  0  0  0  0  3  0  0  0  0  0  0
  160.7240  204.0440  150.6870 C   0  0  0  0  0  3  0  0  0  0  0  0
  160.8070  202.6550  151.2240 C   0  0  0  0  0  2  0  0  0  0  0  0
  161.4680  201.7900  150.2600 N   0  0  0  0  0  2  0  0  0  0  0  0
  159.3610  201.3900  149.0210 N   0  0  0  0  0  1  0  0  0  0  0  0
  160.7590  201.1740  149.1860 C   0  0  0  0  0  0  0  0  0  0  0  0
  161.3750  200.4330  148.3780 O   0  0  0  0  0  0  0  0  0  0  0  0
  1 10  1  0  0  0  0
  2  7  2  0  0  0  0
  2  6  1  0  0  0  0
  3  8  1  0  0  0  0
  4  1  2  0  0  0  0
  5  3  2  0  0  0  0
  8 15  1  0  0  0  0
  9  6  1  0  0  0  0
 10  2  1  0  0  0  0
 11  4  1  0  0  0  0
 11  8  2  0  0  0  0
 12 13  2  0  0  0  0
 12  5  1  0  0  0  0
 13 11  1  0  0  0  0
 14  9  2  0  0  0  0
 15 10  2  0  0  0  0
 15 14  1  0  0  0  0
 16 24  1  1  0  0  0
 16  4  1  0  0  0  0
 18 17  2  0  0  0  0
 18 16  1  0  0  0  0
 19 18  1  0  0  0  0
 20 19  1  0  0  0  0
 21 22  1  0  0  0  0
 22 23  1  1  0  0  0
 22 20  1  0  0  0  0
 24 25  2  0  0  0  0
 25 26  1  0  0  0  0
 27 26  1  0  0  0  0
 28 29  1  0  0  0  0
 29 27  1  0  0  0  0
 30 29  2  0  0  0  0
M  END
>  <MODEL>
8

>  <REMARK>
 VINA RESULT:      -7.2      2.375      6.593
  Name = 
  7 active torsions:
  status: ('A' for Active; 'I' for Inactive)
    1  A    between atoms: C_4  and  C_13
    2  A    between atoms: N_7  and  C_16
    3  A    between atoms: C_8  and  C_13
    4  A    between atoms: O_9  and  N_12
    5  A    between atoms: O_9  and  C_17
    6  A    between atoms: C_13  and  C_27
    7  A    between atoms: C_16  and  C_30
                            x       y       z     vdW  Elec       q    Type
                         _______ _______ _______ _____ _____    ______ ____

>  <TORSDO>
F 7

$$$$
=
 OpenBabel11052421563D

 30 32  0  0  1  0  0  0  0  0999 V2000
  160.7840  210.1460  151.7280 N   0  0  0  0  0  0  0  0  0  0  0  0
  160.0600  212.4420  152.3130 C   0  0  0  0  0  0  0  0  0  0  0  0
  160.1770  208.7160  155.6010 C   0  0  0  0  0  3  0  0  0  0  0  0
  161.0750  208.8440  151.9970 C   0  0  0  0  0  0  0  0  0  0  0  0
  160.4760  207.3880  155.9080 C   0  0  0  0  0  3  0  0  0  0  0  0
  159.2800  213.1340  153.2940 O   0  0  0  0  0  0  0  0  0  0  0  0
  159.4420  212.5520  151.0660 O   0  0  0  0  0  0  0  0  0  0  0  0
  160.3710  209.2100  154.3010 C   0  0  0  0  0  0  0  0  0  0  0  0
  159.1580  212.7060  154.6210 C   0  0  0  0  0  3  0  0  0  0  0  0
  160.2790  210.9940  152.6630 C   0  0  0  0  0  0  0  0  0  0  0  0
  160.8760  208.3450  153.2990 C   0  0  0  0  0  0  0  0  0  0  0  0
  160.9730  206.5360  154.9190 C   0  0  0  0  0  3  0  0  0  0  0  0
  161.1730  207.0120  153.6220 C   0  0  0  0  0  3  0  0  0  0  0  0
  159.5350  211.4820  154.9820 C   0  0  0  0  0  3  0  0  0  0  0  0
  160.0730  210.5460  153.9780 C   0  0  0  0  0  0  0  0  0  0  0  0
  161.6440  207.9670  150.9110 C   0  0  2  0  0  3  0  0  0  0  0  0
  161.9380  209.9540  149.6380 O   0  0  0  0  0  0  0  0  0  0  0  0
  162.0460  208.7000  149.6600 C   0  0  0  0  0  0  0  0  0  0  0  0
  162.6170  208.0350  148.5290 N   0  0  0  0  0  2  0  0  0  0  0  0
  162.5120  206.6930  148.3360 O   0  0  0  0  0  0  0  0  0  0  0  0
  160.5890  206.4370  147.0670 O   0  0  0  0  0  1  0  0  0  0  0  0
  161.9860  206.4940  147.0420 C   0  0  2  0  0  3  0  0  0  0  0  0
  162.5610  205.2700  146.3440 C   0  0  0  0  0  1  0  0  0  0  0  0
  160.8610  206.7090  150.6470 C   0  0  0  0  0  3  0  0  0  0  0  0
  161.3730  205.4930  150.8450 C   0  0  0  0  0  3  0  0  0  0  0  0
  160.5660  204.2720  150.5600 C   0  0  0  0  0  2  0  0  0  0  0  0
  160.8390  203.8000  149.2120 N   0  0  0  0  0  2  0  0  0  0  0  0
  160.5130  201.4330  149.8650 N   0  0  0  0  0  1  0  0  0  0  0  0
  160.8120  202.4140  148.8760 C   0  0  0  0  0  0  0  0  0  0  0  0
  161.0560  202.0540  147.6960 O   0  0  0  0  0  0  0  0  0  0  0  0
  1  4  2  0  0  0  0
  1 10  1  0  0  0  0
  2 10  1  0  0  0  0
  2  6  1  0  0  0  0
  3  5  1  0  0  0  0
  4 11  1  0  0  0  0
  6  9  1  0  0  0  0
  7  2  2  0  0  0  0
  8  3  2  0  0  0  0
  9 14  2  0  0  0  0
 10 15  2  0  0  0  0
 11 13  2  0  0  0  0
 11  8  1  0  0  0  0
 12  5  2  0  0  0  0
 13 12  1  0  0  0  0
 15  8  1  0  0  0  0
 15 14  1  0  0  0  0
 16 24  1  6  0  0  0
 16  4  1  0  0  0  0
 17 18  2  0  0  0  0
 18 16  1  0  0  0  0
 19 18  1  0  0  0  0
 20 19  1  0  0  0  0
 22 23  1  1  0  0  0
 22 21  1  0  0  0  0
 22 20  1  0  0  0  0
 24 25  2  0  0  0  0
 26 25  1  0  0  0  0
 27 26  1  0  0  0  0
 29 27  1  0  0  0  0
 29 28  1  0  0  0  0
 30 29  2  0  0  0  0
M  END
>  <MODEL>
9

>  <REMARK>
 VINA RESULT:      -6.9      2.485      7.670
  Name = 
  7 active torsions:
  status: ('A' for Active; 'I' for Inactive)
    1  A    between atoms: C_4  and  C_13
    2  A    between atoms: N_7  and  C_16
    3  A    between atoms: C_8  and  C_13
    4  A    between atoms: O_9  and  N_12
    5  A    between atoms: O_9  and  C_17
    6  A    between atoms: C_13  and  C_27
    7  A    between atoms: C_16  and  C_30
                            x       y       z     vdW  Elec       q    Type
                         _______ _______ _______ _____ _____    ______ ____

>  <TORSDO>
F 7

$$$$
