=
 OpenBabel11062410363D

 32 38  0  0  1  0  0  0  0  0999 V2000
  161.8780  202.4860  147.8970 C   0  0  1  0  0  3  0  0  0  0  0  0
  161.1780  206.1180  151.2190 C   0  0  2  0  0  3  0  0  0  0  0  0
  162.1990  210.0910  148.4930 C   0  0  0  0  0  3  0  0  0  0  0  0
  162.4140  210.8370  149.6520 C   0  0  0  0  0  3  0  0  0  0  0  0
  160.8930  206.4600  153.7600 C   0  0  0  0  0  0  0  0  0  0  0  0
  160.8850  207.3400  154.8390 C   0  0  0  0  0  0  0  0  0  0  0  0
  160.5220  203.9940  149.9920 C   0  0  1  0  0  3  0  0  0  0  0  0
  160.9160  205.9840  148.6910 C   0  0  0  0  0  2  0  0  0  0  0  0
  161.0710  209.3880  155.9590 C   0  0  1  0  0  3  0  0  0  0  0  0
  161.2550  203.8750  147.7730 C   0  0  0  0  0  2  0  0  0  0  0  0
  161.6930  208.7930  148.5810 C   0  0  0  0  0  3  0  0  0  0  0  0
  160.7620  206.8670  149.9450 C   0  0  2  0  0  3  0  0  0  0  0  0
  161.4150  208.2210  149.8330 C   0  0  0  0  0  0  0  0  0  0  0  0
  161.3180  208.3940  152.3290 C   0  0  0  0  0  0  0  0  0  0  0  0
  160.8080  208.2490  156.9700 C   0  0  0  0  0  3  0  0  0  0  0  0
  161.7440  201.8110  149.2680 C   0  0  1  0  0  3  0  0  0  0  0  0
  161.4010  204.6360  149.0040 N   0  0  2  0  0  0  0  0  0  0  0  0
  160.7160  207.0060  156.2000 N   0  0  0  0  0  0  0  0  0  0  0  0
  161.0870  202.6320  150.3930 C   0  0  0  0  0  2  0  0  0  0  0  0
  160.7610  201.4880  148.1630 C   0  0  2  0  0  3  0  0  0  0  0  0
  162.1200  210.2860  150.9020 C   0  0  0  0  0  3  0  0  0  0  0  0
  161.6150  208.9810  151.0020 C   0  0  0  0  0  0  0  0  0  0  0  0
  161.3140  209.1980  153.4350 N   0  0  0  0  0  0  0  0  0  0  0  0
  160.3550  204.8330  151.2720 C   0  0  0  0  0  2  0  0  0  0  0  0
  160.7510  205.0960  153.9890 O   0  0  0  0  0  1  0  0  0  0  0  0
  162.4330  209.9990  156.2350 C   0  0  0  0  0  1  0  0  0  0  0  0
  161.0680  206.9950  152.4570 C   0  0  0  0  0  0  0  0  0  0  0  0
  161.0880  208.6690  154.6620 C   0  0  0  0  0  0  0  0  0  0  0  0
  161.1100  200.2070  147.5710 N   0  0  0  0  0  2  0  0  0  0  0  0
  161.1710  200.3990  146.1310 C   0  0  2  0  0  3  0  0  0  0  0  0
  159.9600  201.1900  145.6790 C   0  0  0  0  0  1  0  0  0  0  0  0
  161.1790  199.1590  145.4920 O   0  0  0  0  0  1  0  0  0  0  0  0
  1 10  1  1  0  0  0
  1 20  1  0  0  0  0
  1 16  1  0  0  0  0
  2 24  1  1  0  0  0
  2 27  1  0  0  0  0
  3 11  2  0  0  0  0
  3  4  1  0  0  0  0
  4 21  2  0  0  0  0
  5 25  1  0  0  0  0
  5  6  1  0  0  0  0
  6 18  1  0  0  0  0
  7 19  1  1  0  0  0
  7 24  1  0  0  0  0
  8 17  1  0  0  0  0
  9 26  1  1  0  0  0
  9 15  1  0  0  0  0
 11 13  1  0  0  0  0
 12  8  1  6  0  0  0
 12  2  1  0  0  0  0
 13 12  1  0  0  0  0
 13 22  2  0  0  0  0
 14 27  1  0  0  0  0
 14 23  2  0  0  0  0
 16 19  1  1  0  0  0
 17 10  1  6  0  0  0
 17  7  1  0  0  0  0
 18 15  2  0  0  0  0
 20 29  1  6  0  0  0
 20 16  1  0  0  0  0
 21 22  1  0  0  0  0
 22 14  1  0  0  0  0
 23 28  1  0  0  0  0
 27  5  2  0  0  0  0
 28  6  2  0  0  0  0
 28  9  1  0  0  0  0
 30 31  1  6  0  0  0
 30 29  1  0  0  0  0
 32 30  1  0  0  0  0
M  END
>  <MODEL>
1

>  <REMARK>
 VINA RESULT:      -8.6      0.000      0.000
  Name = 
  2 active torsions:
  status: ('A' for Active; 'I' for Inactive)
    1  A    between atoms: C_1  and  N_10
    2  A    between atoms: N_10  and  C_24
                            x       y       z     vdW  Elec       q    Type
                         _______ _______ _______ _____ _____    ______ ____

>  <TORSDO>
F 2

$$$$
=
 OpenBabel11062410363D

 32 38  0  0  1  0  0  0  0  0999 V2000
  160.2920  201.8730  149.5000 C   0  0  1  0  0  3  0  0  0  0  0  0
  161.2990  206.6750  150.3060 C   0  0  2  0  0  3  0  0  0  0  0  0
  160.5210  206.9940  155.1590 C   0  0  0  0  0  3  0  0  0  0  0  0
  160.3790  208.3780  155.0500 C   0  0  0  0  0  3  0  0  0  0  0  0
  161.6480  208.8770  149.0090 C   0  0  0  0  0  0  0  0  0  0  0  0
  161.7350  210.2660  149.0440 C   0  0  0  0  0  0  0  0  0  0  0  0
  161.7830  204.3740  149.3470 C   0  0  1  0  0  3  0  0  0  0  0  0
  161.5120  204.5780  151.7340 C   0  0  0  0  0  2  0  0  0  0  0  0
  161.7120  212.4100  149.9860 C   0  0  1  0  0  3  0  0  0  0  0  0
  161.0090  202.5860  150.6440 C   0  0  0  0  0  2  0  0  0  0  0  0
  160.9360  206.2450  154.0560 C   0  0  0  0  0  3  0  0  0  0  0  0
  161.7480  206.0990  151.6570 C   0  0  2  0  0  3  0  0  0  0  0  0
  161.1910  206.8720  152.8260 C   0  0  0  0  0  0  0  0  0  0  0  0
  161.3400  208.9470  151.4320 C   0  0  0  0  0  0  0  0  0  0  0  0
  161.9100  212.5010  148.4550 C   0  0  0  0  0  3  0  0  0  0  0  0
  160.3980  202.5390  148.1230 C   0  0  1  0  0  3  0  0  0  0  0  0
  160.9370  204.0310  150.5000 N   0  0  2  0  0  0  0  0  0  0  0  0
  161.9010  211.1300  147.9400 N   0  0  0  0  0  0  0  0  0  0  0  0
  161.1290  203.8920  148.0530 C   0  0  0  0  0  2  0  0  0  0  0  0
  161.3380  201.4130  148.4970 C   0  0  2  0  0  3  0  0  0  0  0  0
  160.6520  209.0150  153.8360 C   0  0  0  0  0  3  0  0  0  0  0  0
  161.0640  208.2710  152.7210 C   0  0  0  0  0  0  0  0  0  0  0  0
  161.4170  210.3110  151.3910 N   0  0  0  0  0  0  0  0  0  0  0  0
  162.0300  205.8870  149.2200 C   0  0  0  0  0  2  0  0  0  0  0  0
  161.6960  208.2200  147.7850 O   0  0  0  0  0  1  0  0  0  0  0  0
  160.4030  213.0760  150.3630 C   0  0  0  0  0  1  0  0  0  0  0  0
  161.4910  208.1820  150.2370 C   0  0  0  0  0  0  0  0  0  0  0  0
  161.6240  210.9470  150.2120 C   0  0  0  0  0  0  0  0  0  0  0  0
  160.8900  200.1840  147.8640 N   0  0  0  0  0  2  0  0  0  0  0  0
  161.3630  200.2100  146.4890 C   0  0  2  0  0  3  0  0  0  0  0  0
  160.3700  200.9690  145.6310 C   0  0  0  0  0  1  0  0  0  0  0  0
  161.4860  198.9050  146.0100 O   0  0  0  0  0  1  0  0  0  0  0  0
  1 10  1  1  0  0  0
  2 24  1  6  0  0  0
  2 12  1  0  0  0  0
  4  3  1  0  0  0  0
  5  6  2  0  0  0  0
  5 27  1  0  0  0  0
  6 28  1  0  0  0  0
  7 19  1  6  0  0  0
  7 17  1  0  0  0  0
  9 28  1  0  0  0  0
  9 26  1  6  0  0  0
 11  3  2  0  0  0  0
 12  8  1  1  0  0  0
 12 13  1  0  0  0  0
 13 11  1  0  0  0  0
 14 22  1  0  0  0  0
 15  9  1  0  0  0  0
 16 19  1  1  0  0  0
 16 20  1  0  0  0  0
 16  1  1  0  0  0  0
 17 10  1  1  0  0  0
 17  8  1  0  0  0  0
 18 15  2  0  0  0  0
 18  6  1  0  0  0  0
 20 29  1  6  0  0  0
 20  1  1  0  0  0  0
 21  4  2  0  0  0  0
 22 13  2  0  0  0  0
 22 21  1  0  0  0  0
 23 14  1  0  0  0  0
 24  7  1  0  0  0  0
 25  5  1  0  0  0  0
 27  2  1  0  0  0  0
 27 14  2  0  0  0  0
 28 23  2  0  0  0  0
 30 31  1  6  0  0  0
 30 29  1  0  0  0  0
 32 30  1  0  0  0  0
M  END
>  <MODEL>
2

>  <REMARK>
 VINA RESULT:      -8.1      1.973      4.504
  Name = 
  2 active torsions:
  status: ('A' for Active; 'I' for Inactive)
    1  A    between atoms: C_1  and  N_10
    2  A    between atoms: N_10  and  C_24
                            x       y       z     vdW  Elec       q    Type
                         _______ _______ _______ _____ _____    ______ ____

>  <TORSDO>
F 2

$$$$
=
 OpenBabel11062410363D

 32 38  0  0  1  0  0  0  0  0999 V2000
  160.7810  212.2320  146.9950 C   0  0  1  0  0  3  0  0  0  0  0  0
  161.3490  209.5760  151.1600 C   0  0  2  0  0  3  0  0  0  0  0  0
  161.0990  204.9880  149.3870 C   0  0  0  0  0  3  0  0  0  0  0  0
  160.7960  204.5070  150.6610 C   0  0  0  0  0  3  0  0  0  0  0  0
  161.3070  209.8650  153.7230 C   0  0  0  0  0  0  0  0  0  0  0  0
  161.2470  209.2650  154.9770 C   0  0  0  0  0  0  0  0  0  0  0  0
  161.9660  211.4270  149.5350 C   0  0  1  0  0  3  0  0  0  0  0  0
  161.9480  209.1580  148.7210 C   0  0  0  0  0  2  0  0  0  0  0  0
  161.1000  207.5220  156.5350 C   0  0  1  0  0  3  0  0  0  0  0  0
  161.5430  210.9410  147.2850 C   0  0  0  0  0  2  0  0  0  0  0  0
  161.4630  206.3240  149.2130 C   0  0  0  0  0  3  0  0  0  0  0  0
  162.0080  208.6140  150.1620 C   0  0  2  0  0  3  0  0  0  0  0  0
  161.5080  207.1990  150.3100 C   0  0  0  0  0  0  0  0  0  0  0  0
  161.2710  207.6170  152.7680 C   0  0  0  0  0  0  0  0  0  0  0  0
  161.1110  208.8870  157.2600 C   0  0  0  0  0  3  0  0  0  0  0  0
  160.6570  213.2150  148.1660 C   0  0  1  0  0  3  0  0  0  0  0  0
  161.2990  210.4710  148.6390 N   0  0  2  0  0  0  0  0  0  0  0  0
  161.1920  209.9210  156.2260 N   0  0  0  0  0  0  0  0  0  0  0  0
  161.2250  212.7630  149.5240 C   0  0  0  0  0  2  0  0  0  0  0  0
  161.7490  213.3960  147.1340 C   0  0  2  0  0  3  0  0  0  0  0  0
  160.8590  205.3630  151.7640 C   0  0  0  0  0  3  0  0  0  0  0  0
  161.2190  206.7090  151.6000 C   0  0  0  0  0  0  0  0  0  0  0  0
  161.1960  207.0950  154.0290 N   0  0  0  0  0  0  0  0  0  0  0  0
  162.0310  210.9320  150.9900 C   0  0  0  0  0  2  0  0  0  0  0  0
  161.2860  211.2520  153.6270 O   0  0  0  0  0  1  0  0  0  0  0  0
  159.7780  206.8260  156.7950 C   0  0  0  0  0  1  0  0  0  0  0  0
  161.3670  209.0280  152.5780 C   0  0  0  0  0  0  0  0  0  0  0  0
  161.1970  207.9160  155.1080 C   0  0  0  0  0  0  0  0  0  0  0  0
  161.3670  214.4530  146.2120 N   0  0  0  0  0  2  0  0  0  0  0  0
  161.4950  213.9180  144.8660 C   0  0  2  0  0  3  0  0  0  0  0  0
  162.8470  214.3040  144.3000 C   0  0  0  0  0  1  0  0  0  0  0  0
  160.4870  214.4420  144.0550 O   0  0  0  0  0  1  0  0  0  0  0  0
  1 20  1  0  0  0  0
  1 10  1  1  0  0  0
  1 16  1  0  0  0  0
  2 24  1  1  0  0  0
  2 27  1  0  0  0  0
  3  4  1  0  0  0  0
  4 21  2  0  0  0  0
  5  6  1  0  0  0  0
  6 28  2  0  0  0  0
  6 18  1  0  0  0  0
  7 19  1  1  0  0  0
  7 24  1  0  0  0  0
  9 26  1  6  0  0  0
  9 15  1  0  0  0  0
 11  3  2  0  0  0  0
 11 13  1  0  0  0  0
 12  8  1  6  0  0  0
 12 13  1  0  0  0  0
 12  2  1  0  0  0  0
 13 22  2  0  0  0  0
 14 23  2  0  0  0  0
 16 19  1  1  0  0  0
 17 10  1  6  0  0  0
 17  8  1  0  0  0  0
 17  7  1  0  0  0  0
 18 15  2  0  0  0  0
 20 29  1  6  0  0  0
 20 16  1  0  0  0  0
 22 21  1  0  0  0  0
 22 14  1  0  0  0  0
 23 28  1  0  0  0  0
 25  5  1  0  0  0  0
 27 14  1  0  0  0  0
 27  5  2  0  0  0  0
 28  9  1  0  0  0  0
 30 31  1  6  0  0  0
 30 29  1  0  0  0  0
 32 30  1  0  0  0  0
M  END
>  <MODEL>
3

>  <REMARK>
 VINA RESULT:      -7.5      3.949      7.291
  Name = 
  2 active torsions:
  status: ('A' for Active; 'I' for Inactive)
    1  A    between atoms: C_1  and  N_10
    2  A    between atoms: N_10  and  C_24
                            x       y       z     vdW  Elec       q    Type
                         _______ _______ _______ _____ _____    ______ ____

>  <TORSDO>
F 2

$$$$
=
 OpenBabel11062410363D

 32 38  0  0  1  0  0  0  0  0999 V2000
  161.1490  204.7300  149.2770 C   0  0  1  0  0  3  0  0  0  0  0  0
  160.6440  208.6610  152.2790 C   0  0  2  0  0  3  0  0  0  0  0  0
  160.6920  206.4790  156.6950 C   0  0  0  0  0  3  0  0  0  0  0  0
  160.0840  207.6010  157.2610 C   0  0  0  0  0  3  0  0  0  0  0  0
  160.0060  211.1590  152.1930 C   0  0  0  0  0  0  0  0  0  0  0  0
  159.6340  212.3060  152.8880 C   0  0  0  0  0  0  0  0  0  0  0  0
  161.6790  207.3940  150.3370 C   0  0  1  0  0  3  0  0  0  0  0  0
  161.7900  206.4020  152.5310 C   0  0  0  0  0  2  0  0  0  0  0  0
  159.0760  213.6260  154.7400 C   0  0  1  0  0  3  0  0  0  0  0  0
  161.7850  205.0740  150.6220 C   0  0  0  0  0  2  0  0  0  0  0  0
  161.1250  206.5140  155.3680 C   0  0  0  0  0  3  0  0  0  0  0  0
  161.4930  207.7630  153.1900 C   0  0  2  0  0  3  0  0  0  0  0  0
  160.9330  207.6650  154.5870 C   0  0  0  0  0  0  0  0  0  0  0  0
  160.1340  210.0270  154.3540 C   0  0  0  0  0  0  0  0  0  0  0  0
  158.9530  214.4520  153.4390 C   0  0  0  0  0  3  0  0  0  0  0  0
  160.7800  205.9220  148.3860 C   0  0  1  0  0  3  0  0  0  0  0  0
  161.2150  206.2870  151.1860 N   0  0  2  0  0  0  0  0  0  0  0  0
  159.3040  213.5610  152.3310 N   0  0  0  0  0  0  0  0  0  0  0  0
  160.9980  207.3290  148.9700 C   0  0  0  0  0  2  0  0  0  0  0  0
  162.0900  205.1930  148.1750 C   0  0  2  0  0  3  0  0  0  0  0  0
  159.9080  208.7590  156.4990 C   0  0  0  0  0  3  0  0  0  0  0  0
  160.3340  208.8020  155.1630 C   0  0  0  0  0  0  0  0  0  0  0  0
  159.7490  211.1840  154.9700 N   0  0  0  0  0  0  0  0  0  0  0  0
  161.3840  208.7750  150.9480 C   0  0  0  0  0  2  0  0  0  0  0  0
  160.0460  211.1830  150.8040 O   0  0  0  0  0  1  0  0  0  0  0  0
  157.7100  213.5090  155.3910 C   0  0  0  0  0  1  0  0  0  0  0  0
  160.3120  209.9900  152.9390 C   0  0  0  0  0  0  0  0  0  0  0  0
  159.5180  212.3020  154.2390 C   0  0  0  0  0  0  0  0  0  0  0  0
  161.9660  204.3050  147.0310 N   0  0  0  0  0  2  0  0  0  0  0  0
  161.5460  205.1150  145.9000 C   0  0  2  0  0  3  0  0  0  0  0  0
  160.8450  204.2350  144.8850 C   0  0  0  0  0  1  0  0  0  0  0  0
  162.6630  205.7070  145.3070 O   0  0  0  0  0  1  0  0  0  0  0  0
  1 10  1  1  0  0  0
  2 24  1  6  0  0  0
  2 27  1  0  0  0  0
  2 12  1  0  0  0  0
  3  4  1  0  0  0  0
  5  6  2  0  0  0  0
  5 27  1  0  0  0  0
  6 28  1  0  0  0  0
  7 19  1  6  0  0  0
  7 24  1  0  0  0  0
  7 17  1  0  0  0  0
  9 26  1  6  0  0  0
 11  3  2  0  0  0  0
 12  8  1  6  0  0  0
 12 13  1  0  0  0  0
 13 22  2  0  0  0  0
 13 11  1  0  0  0  0
 14 23  1  0  0  0  0
 14 22  1  0  0  0  0
 15  9  1  0  0  0  0
 16 19  1  1  0  0  0
 16  1  1  0  0  0  0
 17 10  1  6  0  0  0
 17  8  1  0  0  0  0
 18  6  1  0  0  0  0
 18 15  2  0  0  0  0
 20 29  1  6  0  0  0
 20 16  1  0  0  0  0
 20  1  1  0  0  0  0
 21  4  2  0  0  0  0
 22 21  1  0  0  0  0
 25  5  1  0  0  0  0
 27 14  2  0  0  0  0
 28  9  1  0  0  0  0
 28 23  2  0  0  0  0
 30 31  1  6  0  0  0
 30 29  1  0  0  0  0
 32 30  1  0  0  0  0
M  END
>  <MODEL>
4

>  <REMARK>
 VINA RESULT:      -7.3      3.047      5.159
  Name = 
  2 active torsions:
  status: ('A' for Active; 'I' for Inactive)
    1  A    between atoms: C_1  and  N_10
    2  A    between atoms: N_10  and  C_24
                            x       y       z     vdW  Elec       q    Type
                         _______ _______ _______ _____ _____    ______ ____

>  <TORSDO>
F 2

$$$$
=
 OpenBabel11062410363D

 32 38  0  0  1  0  0  0  0  0999 V2000
  160.4650  203.5480  151.6900 C   0  0  1  0  0  3  0  0  0  0  0  0
  161.2890  208.4110  151.0650 C   0  0  2  0  0  3  0  0  0  0  0  0
  159.8280  210.1770  155.4250 C   0  0  0  0  0  3  0  0  0  0  0  0
  159.6850  211.4480  154.8670 C   0  0  0  0  0  3  0  0  0  0  0  0
  161.7910  210.1180  149.1980 C   0  0  0  0  0  0  0  0  0  0  0  0
  161.8550  211.4520  148.8040 C   0  0  0  0  0  0  0  0  0  0  0  0
  161.9330  205.9580  150.9530 C   0  0  1  0  0  3  0  0  0  0  0  0
  161.3240  206.8760  153.0960 C   0  0  0  0  0  2  0  0  0  0  0  0
  161.6730  213.7780  149.0100 C   0  0  1  0  0  3  0  0  0  0  0  0
  161.0050  204.6200  152.6340 C   0  0  0  0  0  2  0  0  0  0  0  0
  160.4030  209.1470  154.6780 C   0  0  0  0  0  3  0  0  0  0  0  0
  161.5490  208.3090  152.5750 C   0  0  2  0  0  3  0  0  0  0  0  0
  160.8230  209.3740  153.3580 C   0  0  0  0  0  0  0  0  0  0  0  0
  161.1420  210.9190  151.4130 C   0  0  0  0  0  0  0  0  0  0  0  0
  162.0840  213.4000  147.5690 C   0  0  0  0  0  3  0  0  0  0  0  0
  160.7580  203.7590  150.1990 C   0  0  1  0  0  3  0  0  0  0  0  0
  160.9360  205.9420  152.0340 N   0  0  2  0  0  0  0  0  0  0  0  0
  162.1650  211.9390  147.5160 N   0  0  0  0  0  0  0  0  0  0  0  0
  161.4750  205.0620  149.8030 C   0  0  0  0  0  2  0  0  0  0  0  0
  161.6490  202.8590  151.0290 C   0  0  2  0  0  3  0  0  0  0  0  0
  160.1200  211.6910  153.5620 C   0  0  0  0  0  3  0  0  0  0  0  0
  160.6950  210.6620  152.8010 C   0  0  0  0  0  0  0  0  0  0  0  0
  161.2080  212.2050  150.9540 N   0  0  0  0  0  0  0  0  0  0  0  0
  162.1760  207.3680  150.3880 C   0  0  0  0  0  2  0  0  0  0  0  0
  162.0200  209.1170  148.2610 O   0  0  0  0  0  1  0  0  0  0  0  0
  160.3150  214.4530  148.9840 C   0  0  0  0  0  1  0  0  0  0  0  0
  161.4700  209.8310  150.5510 C   0  0  0  0  0  0  0  0  0  0  0  0
  161.5720  212.4550  149.6730 C   0  0  0  0  0  0  0  0  0  0  0  0
  161.3100  201.4710  150.7620 N   0  0  0  0  0  2  0  0  0  0  0  0
  160.8290  201.4000  149.3920 C   0  0  2  0  0  3  0  0  0  0  0  0
  159.3740  200.9750  149.3920 C   0  0  0  0  0  1  0  0  0  0  0  0
  161.5830  200.4690  148.6770 O   0  0  0  0  0  1  0  0  0  0  0  0
  1 10  1  1  0  0  0
  2 24  1  6  0  0  0
  2 12  1  0  0  0  0
  4  3  1  0  0  0  0
  5 27  1  0  0  0  0
  6  5  2  0  0  0  0
  6 28  1  0  0  0  0
  7 19  1  6  0  0  0
  7 17  1  0  0  0  0
  9 26  1  6  0  0  0
  9 28  1  0  0  0  0
 11  3  2  0  0  0  0
 12  8  1  1  0  0  0
 12 13  1  0  0  0  0
 13 11  1  0  0  0  0
 14 22  1  0  0  0  0
 15  9  1  0  0  0  0
 16 19  1  1  0  0  0
 16 20  1  0  0  0  0
 16  1  1  0  0  0  0
 17 10  1  1  0  0  0
 17  8  1  0  0  0  0
 18 15  2  0  0  0  0
 18  6  1  0  0  0  0
 20 29  1  6  0  0  0
 20  1  1  0  0  0  0
 21  4  2  0  0  0  0
 22 13  2  0  0  0  0
 22 21  1  0  0  0  0
 23 14  1  0  0  0  0
 24  7  1  0  0  0  0
 25  5  1  0  0  0  0
 27  2  1  0  0  0  0
 27 14  2  0  0  0  0
 28 23  2  0  0  0  0
 30 31  1  1  0  0  0
 30 29  1  0  0  0  0
 32 30  1  0  0  0  0
M  END
>  <MODEL>
5

>  <REMARK>
 VINA RESULT:      -7.2      2.712      5.352
  Name = 
  2 active torsions:
  status: ('A' for Active; 'I' for Inactive)
    1  A    between atoms: C_1  and  N_10
    2  A    between atoms: N_10  and  C_24
                            x       y       z     vdW  Elec       q    Type
                         _______ _______ _______ _____ _____    ______ ____

>  <TORSDO>
F 2

$$$$
=
 OpenBabel11062410363D

 32 38  0  0  1  0  0  0  0  0999 V2000
  160.1400  209.8700  154.8620 C   0  0  1  0  0  3  0  0  0  0  0  0
  161.1130  206.1960  151.6560 C   0  0  2  0  0  3  0  0  0  0  0  0
  161.8710  208.7460  147.5110 C   0  0  0  0  0  3  0  0  0  0  0  0
  161.6340  207.5970  146.7550 C   0  0  0  0  0  3  0  0  0  0  0  0
  160.9320  203.6300  151.4580 C   0  0  0  0  0  0  0  0  0  0  0  0
  160.9570  202.5050  150.6390 C   0  0  0  0  0  0  0  0  0  0  0  0
  161.3860  207.4320  153.8570 C   0  0  1  0  0  3  0  0  0  0  0  0
  161.8620  208.6240  151.8160 C   0  0  0  0  0  2  0  0  0  0  0  0
  161.1250  201.2850  148.6480 C   0  0  1  0  0  3  0  0  0  0  0  0
  161.1430  209.7560  153.7160 C   0  0  0  0  0  2  0  0  0  0  0  0
  161.9570  208.6620  148.9020 C   0  0  0  0  0  3  0  0  0  0  0  0
  161.9870  207.2980  151.0410 C   0  0  2  0  0  3  0  0  0  0  0  0
  161.7860  207.4300  149.5520 C   0  0  0  0  0  0  0  0  0  0  0  0
  161.3910  204.9590  149.4600 C   0  0  0  0  0  0  0  0  0  0  0  0
  160.8310  200.3360  149.8320 C   0  0  0  0  0  3  0  0  0  0  0  0
  159.7800  208.5580  155.5700 C   0  0  1  0  0  3  0  0  0  0  0  0
  160.9580  208.5230  152.9680 N   0  0  2  0  0  0  0  0  0  0  0  0
  160.7290  201.1680  151.0330 N   0  0  0  0  0  0  0  0  0  0  0  0
  160.3860  207.2630  155.0000 C   0  0  0  0  0  2  0  0  0  0  0  0
  160.8430  209.4670  156.1490 C   0  0  2  0  0  3  0  0  0  0  0  0
  161.4840  206.3620  147.3910 C   0  0  0  0  0  3  0  0  0  0  0  0
  161.5640  206.2670  148.7880 C   0  0  0  0  0  0  0  0  0  0  0  0
  161.3850  203.8140  148.7120 N   0  0  0  0  0  0  0  0  0  0  0  0
  161.5060  206.0830  153.1280 C   0  0  0  0  0  2  0  0  0  0  0  0
  160.6280  203.4870  152.8080 O   0  0  0  0  0  1  0  0  0  0  0  0
  159.9670  201.2390  147.6680 C   0  0  0  0  0  1  0  0  0  0  0  0
  161.2000  204.8960  150.8720 C   0  0  0  0  0  0  0  0  0  0  0  0
  161.1830  202.6120  149.3060 C   0  0  0  0  0  0  0  0  0  0  0  0
  160.2800  210.2170  157.2600 N   0  0  0  0  0  2  0  0  0  0  0  0
  159.6310  211.3920  156.7010 C   0  0  2  0  0  3  0  0  0  0  0  0
  160.3950  212.6330  157.1180 C   0  0  0  0  0  1  0  0  0  0  0  0
  158.3210  211.4740  157.1760 O   0  0  0  0  0  1  0  0  0  0  0  0
  1 10  1  6  0  0  0
  1 16  1  0  0  0  0
  1 20  1  0  0  0  0
  2 24  1  1  0  0  0
  3 11  1  0  0  0  0
  4 21  1  0  0  0  0
  4  3  2  0  0  0  0
  5 25  1  0  0  0  0
  6 18  1  0  0  0  0
  6  5  2  0  0  0  0
  7 24  1  6  0  0  0
  7 19  1  0  0  0  0
  9 26  1  6  0  0  0
  9 28  1  0  0  0  0
  9 15  1  0  0  0  0
 11 13  2  0  0  0  0
 12  2  1  0  0  0  0
 12  8  1  1  0  0  0
 13 12  1  0  0  0  0
 14 27  2  0  0  0  0
 15 18  2  0  0  0  0
 16 19  1  6  0  0  0
 16 20  1  0  0  0  0
 17  8  1  6  0  0  0
 17 10  1  0  0  0  0
 17  7  1  0  0  0  0
 20 29  1  1  0  0  0
 21 22  2  0  0  0  0
 22 14  1  0  0  0  0
 22 13  1  0  0  0  0
 23 28  2  0  0  0  0
 23 14  1  0  0  0  0
 27  5  1  0  0  0  0
 27  2  1  0  0  0  0
 28  6  1  0  0  0  0
 30 31  1  1  0  0  0
 30 32  1  0  0  0  0
 30 29  1  0  0  0  0
M  END
>  <MODEL>
6

>  <REMARK>
 VINA RESULT:      -6.7      2.149      8.338
  Name = 
  2 active torsions:
  status: ('A' for Active; 'I' for Inactive)
    1  A    between atoms: C_1  and  N_10
    2  A    between atoms: N_10  and  C_24
                            x       y       z     vdW  Elec       q    Type
                         _______ _______ _______ _____ _____    ______ ____

>  <TORSDO>
F 2

$$$$
=
 OpenBabel11062410363D

 32 38  0  0  1  0  0  0  0  0999 V2000
  161.9930  203.5930  146.8330 C   0  0  1  0  0  3  0  0  0  0  0  0
  161.3090  206.7470  150.6150 C   0  0  2  0  0  3  0  0  0  0  0  0
  162.3810  211.0430  148.4580 C   0  0  0  0  0  3  0  0  0  0  0  0
  162.5960  211.6230  149.7100 C   0  0  0  0  0  3  0  0  0  0  0  0
  161.0120  206.7430  153.1770 C   0  0  0  0  0  0  0  0  0  0  0  0
  161.0070  207.4680  154.3660 C   0  0  0  0  0  0  0  0  0  0  0  0
  160.6400  204.8160  149.1080 C   0  0  1  0  0  3  0  0  0  0  0  0
  161.0590  206.9610  148.0900 C   0  0  0  0  0  2  0  0  0  0  0  0
  161.2050  209.3430  155.7550 C   0  0  1  0  0  3  0  0  0  0  0  0
  161.3840  204.9920  146.8960 C   0  0  0  0  0  2  0  0  0  0  0  0
  161.8620  209.7510  148.3670 C   0  0  0  0  0  3  0  0  0  0  0  0
  160.9070  207.6660  149.4520 C   0  0  2  0  0  3  0  0  0  0  0  0
  161.5720  209.0160  149.5280 C   0  0  0  0  0  0  0  0  0  0  0  0
  161.4630  208.8500  152.0240 C   0  0  0  0  0  0  0  0  0  0  0  0
  160.9260  208.0800  156.6000 C   0  0  0  0  0  3  0  0  0  0  0  0
  161.8460  202.7400  148.0980 C   0  0  1  0  0  3  0  0  0  0  0  0
  161.5300  205.5770  148.2190 N   0  0  2  0  0  0  0  0  0  0  0  0
  160.8270  206.9540  155.6680 N   0  0  0  0  0  0  0  0  0  0  0  0
  161.1900  203.4060  149.3210 C   0  0  0  0  0  2  0  0  0  0  0  0
  160.8660  202.5790  146.9550 C   0  0  2  0  0  3  0  0  0  0  0  0
  162.2900  210.9100  150.8710 C   0  0  0  0  0  3  0  0  0  0  0  0
  161.7730  209.6090  150.7910 C   0  0  0  0  0  0  0  0  0  0  0  0
  161.4610  209.4960  153.2290 N   0  0  0  0  0  0  0  0  0  0  0  0
  160.4730  205.4750  150.4890 C   0  0  0  0  0  2  0  0  0  0  0  0
  160.8570  205.3620  153.2180 O   0  0  0  0  0  1  0  0  0  0  0  0
  162.5710  209.8970  156.1170 C   0  0  0  0  0  1  0  0  0  0  0  0
  161.1990  207.4490  151.9600 C   0  0  0  0  0  0  0  0  0  0  0  0
  161.2230  208.8070  154.3720 C   0  0  0  0  0  0  0  0  0  0  0  0
  161.2070  201.3870  146.1960 N   0  0  0  0  0  2  0  0  0  0  0  0
  161.5800  200.3590  147.1530 C   0  0  2  0  0  3  0  0  0  0  0  0
  161.5800  199.0090  146.4650 C   0  0  0  0  0  1  0  0  0  0  0  0
  160.6630  200.3420  148.2050 O   0  0  0  0  0  1  0  0  0  0  0  0
  1 10  1  1  0  0  0
  1 20  1  0  0  0  0
  1 16  1  0  0  0  0
  2 24  1  1  0  0  0
  2 27  1  0  0  0  0
  3  4  1  0  0  0  0
  4 21  2  0  0  0  0
  5 25  1  0  0  0  0
  5  6  1  0  0  0  0
  6 28  2  0  0  0  0
  6 18  1  0  0  0  0
  7 19  1  1  0  0  0
  7 24  1  0  0  0  0
  8 17  1  0  0  0  0
  9 26  1  1  0  0  0
  9 15  1  0  0  0  0
 11  3  2  0  0  0  0
 11 13  1  0  0  0  0
 12  8  1  6  0  0  0
 12 13  1  0  0  0  0
 12  2  1  0  0  0  0
 13 22  2  0  0  0  0
 14 23  2  0  0  0  0
 16 19  1  1  0  0  0
 17 10  1  6  0  0  0
 17  7  1  0  0  0  0
 18 15  2  0  0  0  0
 20 29  1  6  0  0  0
 20 16  1  0  0  0  0
 22 21  1  0  0  0  0
 22 14  1  0  0  0  0
 23 28  1  0  0  0  0
 27 14  1  0  0  0  0
 27  5  2  0  0  0  0
 28  9  1  0  0  0  0
 29 30  1  0  0  0  0
 30 31  1  6  0  0  0
 30 32  1  0  0  0  0
M  END
>  <MODEL>
7

>  <REMARK>
 VINA RESULT:      -6.4      1.109      1.210
  Name = 
  2 active torsions:
  status: ('A' for Active; 'I' for Inactive)
    1  A    between atoms: C_1  and  N_10
    2  A    between atoms: N_10  and  C_24
                            x       y       z     vdW  Elec       q    Type
                         _______ _______ _______ _____ _____    ______ ____

>  <TORSDO>
F 2

$$$$
=
 OpenBabel11062410363D

 32 38  0  0  1  0  0  0  0  0999 V2000
  161.0590  212.6480  146.1910 C   0  0  1  0  0  3  0  0  0  0  0  0
  160.0800  212.2300  151.0480 C   0  0  2  0  0  3  0  0  0  0  0  0
  161.9500  207.7740  152.0000 C   0  0  0  0  0  3  0  0  0  0  0  0
  161.1740  207.6910  153.1570 C   0  0  0  0  0  3  0  0  0  0  0  0
  158.6650  213.3460  152.8930 C   0  0  0  0  0  0  0  0  0  0  0  0
  158.1290  213.2730  154.1760 C   0  0  0  0  0  0  0  0  0  0  0  0
  160.9430  213.4470  148.9930 C   0  0  1  0  0  3  0  0  0  0  0  0
  161.9220  211.3150  149.5480 C   0  0  0  0  0  2  0  0  0  0  0  0
  157.6590  212.3410  156.2730 C   0  0  1  0  0  3  0  0  0  0  0  0
  161.8670  212.0630  147.3470 C   0  0  0  0  0  2  0  0  0  0  0  0
  161.9970  208.9660  151.2750 C   0  0  0  0  0  3  0  0  0  0  0  0
  161.3760  211.4090  150.9860 C   0  0  2  0  0  3  0  0  0  0  0  0
  161.2510  210.0810  151.6890 C   0  0  0  0  0  0  0  0  0  0  0  0
  159.6960  211.1730  153.3210 C   0  0  0  0  0  0  0  0  0  0  0  0
  156.9500  213.7070  156.1240 C   0  0  0  0  0  3  0  0  0  0  0  0
  160.1090  213.7980  146.5510 C   0  0  1  0  0  3  0  0  0  0  0  0
  161.0960  212.0440  148.5800 N   0  0  2  0  0  0  0  0  0  0  0  0
  157.2800  214.2180  154.7920 N   0  0  0  0  0  0  0  0  0  0  0  0
  159.9990  214.1760  148.0390 C   0  0  0  0  0  2  0  0  0  0  0  0
  161.4870  214.0950  145.9970 C   0  0  2  0  0  3  0  0  0  0  0  0
  160.4450  208.8010  153.5910 C   0  0  0  0  0  3  0  0  0  0  0  0
  160.4810  210.0020  152.8670 C   0  0  0  0  0  0  0  0  0  0  0  0
  159.1240  211.1590  154.5620 N   0  0  0  0  0  0  0  0  0  0  0  0
  160.3810  213.5890  150.4180 C   0  0  0  0  0  2  0  0  0  0  0  0
  158.3420  214.4250  152.0780 O   0  0  0  0  0  1  0  0  0  0  0  0
  156.6180  211.2480  156.4180 C   0  0  0  0  0  1  0  0  0  0  0  0
  159.5120  212.2940  152.4570 C   0  0  0  0  0  0  0  0  0  0  0  0
  158.3660  212.2040  154.9760 C   0  0  0  0  0  0  0  0  0  0  0  0
  161.3730  214.4460  144.5920 N   0  0  0  0  0  2  0  0  0  0  0  0
  162.1310  213.4610  143.8380 C   0  0  2  0  0  3  0  0  0  0  0  0
  163.5820  213.8930  143.7660 C   0  0  0  0  0  1  0  0  0  0  0  0
  161.6140  213.3580  142.5460 O   0  0  0  0  0  1  0  0  0  0  0  0
  1 16  1  0  0  0  0
  1 10  1  1  0  0  0
  2 24  1  1  0  0  0
  2 27  1  0  0  0  0
  3  4  1  0  0  0  0
  4 21  2  0  0  0  0
  5  6  1  0  0  0  0
  6 18  1  0  0  0  0
  6 28  2  0  0  0  0
  7 19  1  6  0  0  0
  7 24  1  0  0  0  0
  9 26  1  6  0  0  0
 11 13  1  0  0  0  0
 11  3  2  0  0  0  0
 12  8  1  6  0  0  0
 12  2  1  0  0  0  0
 12 13  1  0  0  0  0
 13 22  2  0  0  0  0
 14 23  2  0  0  0  0
 15  9  1  0  0  0  0
 16 19  1  1  0  0  0
 17 10  1  6  0  0  0
 17  7  1  0  0  0  0
 17  8  1  0  0  0  0
 18 15  2  0  0  0  0
 20 29  1  6  0  0  0
 20  1  1  0  0  0  0
 20 16  1  0  0  0  0
 22 14  1  0  0  0  0
 22 21  1  0  0  0  0
 23 28  1  0  0  0  0
 25  5  1  0  0  0  0
 27  5  2  0  0  0  0
 27 14  1  0  0  0  0
 28  9  1  0  0  0  0
 30 31  1  6  0  0  0
 30 29  1  0  0  0  0
 32 30  1  0  0  0  0
M  END
>  <MODEL>
8

>  <REMARK>
 VINA RESULT:      -5.7      5.676      8.346
  Name = 
  2 active torsions:
  status: ('A' for Active; 'I' for Inactive)
    1  A    between atoms: C_1  and  N_10
    2  A    between atoms: N_10  and  C_24
                            x       y       z     vdW  Elec       q    Type
                         _______ _______ _______ _____ _____    ______ ____

>  <TORSDO>
F 2

$$$$
