=
 OpenBabel11062408063D

 34 39  0  0  1  0  0  0  0  0999 V2000
  160.1270  208.0940  155.3630 C   0  0  2  0  0  3  0  0  0  0  0  0
  162.2600  209.4480  155.1370 C   0  0  1  0  0  3  0  0  0  0  0  0
  160.8060  209.0130  153.1620 N   0  0  0  0  0  0  0  0  0  0  0  0
  161.3360  209.8830  150.9010 C   0  0  0  0  0  0  0  0  0  0  0  0
  161.6710  208.3750  157.2610 N   0  0  0  0  0  2  0  0  0  0  0  0
  162.2440  209.5750  156.6580 C   0  0  0  0  0  2  0  0  0  0  0  0
  160.2710  211.2970  152.5720 C   0  0  0  0  0  2  0  0  0  0  0  0
  160.8240  209.2440  154.6170 C   0  0  1  0  0  3  0  0  0  0  0  0
  160.0850  212.3840  151.5930 C   0  0  0  0  0  3  0  0  0  0  0  0
  161.9650  211.2480  149.9280 S   0  0  0  0  0  0  0  0  0  0  0  0
  160.2630  208.2880  156.8750 C   0  0  0  0  0  2  0  0  0  0  0  0
  160.8500  207.6760  152.6030 C   0  0  2  0  0  3  0  0  0  0  0  0
  160.7260  206.7580  154.9420 C   0  0  0  0  0  2  0  0  0  0  0  0
  162.8860  210.7030  154.5590 C   0  0  0  0  0  1  0  0  0  0  0  0
  161.4780  208.6640  150.4810 N   0  0  0  0  0  0  0  0  0  0  0  0
  161.1410  207.5120  151.2830 C   0  0  0  0  0  0  0  0  0  0  0  0
  160.6620  212.4030  150.3870 C   0  0  0  0  0  0  0  0  0  0  0  0
  160.8360  210.1260  152.2550 C   0  0  0  0  0  0  0  0  0  0  0  0
  160.4540  206.5080  153.4680 C   0  0  0  0  0  2  0  0  0  0  0  0
  161.3830  203.7910  150.7480 N   0  0  0  0  0  0  0  0  0  0  0  0
  161.0650  203.5930  149.3320 C   0  0  0  0  0  2  0  0  0  0  0  0
  161.1760  206.1860  150.6160 C   0  0  0  0  0  0  0  0  0  0  0  0
  161.2090  204.8660  148.5450 C   0  0  0  0  0  3  0  0  0  0  0  0
  161.2920  205.0820  151.3610 C   0  0  0  0  0  3  0  0  0  0  0  0
  161.2300  206.0580  149.1450 C   0  0  0  0  0  3  0  0  0  0  0  0
  161.5710  202.6270  151.5920 C   0  0  0  0  0  1  0  0  0  0  0  0
  160.2770  213.4580  149.4070 C   0  0  0  0  0  2  0  0  0  0  0  0
  160.8330  213.1520  148.0990 N   0  0  0  0  0  2  0  0  0  0  0  0
  158.4530  213.6140  147.7860 C   0  0  0  0  0  2  0  0  0  0  0  0
  157.6060  212.5690  147.3720 O   0  0  0  0  0  0  0  0  0  0  0  0
  158.5540  212.5960  145.1320 C   0  0  0  0  0  2  0  0  0  0  0  0
  159.8350  212.5080  145.9650 C   0  0  0  0  0  2  0  0  0  0  0  0
  159.8330  213.5250  147.1120 C   0  0  2  0  0  3  0  0  0  0  0  0
  157.3170  212.8150  146.0170 C   0  0  0  0  0  2  0  0  0  0  0  0
  1 13  1  6  0  0  0
  1 11  1  0  0  0  0
  2 14  1  6  0  0  0
  2  6  1  0  0  0  0
  4 18  2  0  0  0  0
  6  5  1  0  0  0  0
  8  3  1  6  0  0  0
  8  2  1  0  0  0  0
  8  1  1  0  0  0  0
  9  7  1  0  0  0  0
 10 17  1  0  0  0  0
 10  4  1  0  0  0  0
 11  5  1  0  0  0  0
 12  3  1  0  0  0  0
 12 19  1  6  0  0  0
 15  4  1  0  0  0  0
 15 16  2  0  0  0  0
 16 12  1  0  0  0  0
 17  9  2  0  0  0  0
 18  7  1  0  0  0  0
 18  3  1  0  0  0  0
 19 13  1  0  0  0  0
 20 24  1  0  0  0  0
 20 26  1  0  0  0  0
 21 20  1  0  0  0  0
 22 16  1  0  0  0  0
 22 24  2  0  0  0  0
 23 25  2  0  0  0  0
 23 21  1  0  0  0  0
 25 22  1  0  0  0  0
 27 17  1  0  0  0  0
 28 27  1  0  0  0  0
 30 29  1  0  0  0  0
 31 32  1  0  0  0  0
 31 34  1  0  0  0  0
 32 33  1  0  0  0  0
 33 29  1  0  0  0  0
 33 28  1  1  0  0  0
 34 30  1  0  0  0  0
M  END
>  <MODEL>
1

>  <REMARK>
 VINA RESULT:      -7.0      0.000      0.000
  Name = 
  4 active torsions:
  status: ('A' for Active; 'I' for Inactive)
    1  A    between atoms: C_3  and  N_13
    2  A    between atoms: C_3  and  C_29
    3  A    between atoms: C_12  and  C_28
    4  A    between atoms: N_13  and  C_33
                            x       y       z     vdW  Elec       q    Type
                         _______ _______ _______ _____ _____    ______ ____

>  <TORSDO>
F 4

$$$$
=
 OpenBabel11062408063D

 34 39  0  0  1  0  0  0  0  0999 V2000
  160.1940  208.0740  154.0950 C   0  0  2  0  0  3  0  0  0  0  0  0
  162.3070  209.4780  154.1310 C   0  0  1  0  0  3  0  0  0  0  0  0
  160.9790  209.2220  152.0410 N   0  0  0  0  0  0  0  0  0  0  0  0
  161.6180  210.3240  149.9130 C   0  0  0  0  0  0  0  0  0  0  0  0
  161.6210  208.1860  156.0990 N   0  0  0  0  0  2  0  0  0  0  0  0
  162.2000  209.4500  155.6540 C   0  0  0  0  0  2  0  0  0  0  0  0
  160.4290  211.5450  151.6510 C   0  0  0  0  0  2  0  0  0  0  0  0
  160.9070  209.3040  153.5090 C   0  0  1  0  0  3  0  0  0  0  0  0
  160.2750  212.7220  150.7760 C   0  0  0  0  0  3  0  0  0  0  0  0
  162.2720  211.7900  149.1210 S   0  0  0  0  0  0  0  0  0  0  0  0
  160.2390  208.1160  155.6230 C   0  0  0  0  0  2  0  0  0  0  0  0
  161.0840  207.9490  151.3540 C   0  0  2  0  0  3  0  0  0  0  0  0
  160.8450  206.7970  153.5780 C   0  0  0  0  0  2  0  0  0  0  0  0
  162.9370  210.7950  153.7200 C   0  0  0  0  0  1  0  0  0  0  0  0
  161.8100  209.1560  149.3820 N   0  0  0  0  0  0  0  0  0  0  0  0
  161.4530  207.9240  150.0440 C   0  0  0  0  0  0  0  0  0  0  0  0
  160.9200  212.8720  149.6140 C   0  0  0  0  0  0  0  0  0  0  0  0
  161.0360  210.4210  151.2530 C   0  0  0  0  0  0  0  0  0  0  0  0
  160.6640  206.6920  152.0730 C   0  0  0  0  0  2  0  0  0  0  0  0
  162.0510  205.5530  147.1780 N   0  0  0  0  0  0  0  0  0  0  0  0
  161.9270  204.2160  147.7630 C   0  0  0  0  0  2  0  0  0  0  0  0
  161.5560  206.6730  149.2510 C   0  0  0  0  0  0  0  0  0  0  0  0
  161.1990  204.2490  149.0780 C   0  0  0  0  0  3  0  0  0  0  0  0
  161.9900  206.7330  147.9880 C   0  0  0  0  0  3  0  0  0  0  0  0
  161.0590  205.3810  149.7700 C   0  0  0  0  0  3  0  0  0  0  0  0
  162.4690  205.6740  145.7950 C   0  0  0  0  0  1  0  0  0  0  0  0
  160.5690  214.0140  148.7240 C   0  0  0  0  0  2  0  0  0  0  0  0
  161.6140  214.2150  147.7320 N   0  0  0  0  0  2  0  0  0  0  0  0
  159.6680  213.3200  146.5540 C   0  0  0  0  0  2  0  0  0  0  0  0
  159.7560  212.0430  145.9690 O   0  0  0  0  0  0  0  0  0  0  0  0
  161.2270  212.8710  144.2190 C   0  0  0  0  0  2  0  0  0  0  0  0
  161.9560  213.4020  145.4560 C   0  0  0  0  0  2  0  0  0  0  0  0
  160.9910  214.0940  146.4250 C   0  0  2  0  0  3  0  0  0  0  0  0
  159.8660  212.2570  144.5830 C   0  0  0  0  0  2  0  0  0  0  0  0
  1 13  1  6  0  0  0
  1 11  1  0  0  0  0
  2 14  1  1  0  0  0
  2  6  1  0  0  0  0
  4 18  2  0  0  0  0
  6  5  1  0  0  0  0
  8  3  1  6  0  0  0
  8  1  1  0  0  0  0
  8  2  1  0  0  0  0
  9  7  1  0  0  0  0
 10 17  1  0  0  0  0
 10  4  1  0  0  0  0
 11  5  1  0  0  0  0
 12  3  1  0  0  0  0
 12 19  1  6  0  0  0
 15  4  1  0  0  0  0
 15 16  2  0  0  0  0
 16 12  1  0  0  0  0
 17  9  2  0  0  0  0
 18  7  1  0  0  0  0
 18  3  1  0  0  0  0
 19 13  1  0  0  0  0
 20 21  1  0  0  0  0
 20 24  1  0  0  0  0
 21 23  1  0  0  0  0
 22 25  1  0  0  0  0
 22 16  1  0  0  0  0
 23 25  2  0  0  0  0
 24 22  2  0  0  0  0
 26 20  1  0  0  0  0
 27 17  1  0  0  0  0
 28 27  1  0  0  0  0
 30 29  1  0  0  0  0
 31 34  1  0  0  0  0
 31 32  1  0  0  0  0
 32 33  1  0  0  0  0
 33 29  1  0  0  0  0
 33 28  1  1  0  0  0
 34 30  1  0  0  0  0
M  END
>  <MODEL>
2

>  <REMARK>
 VINA RESULT:      -5.7      1.478      2.059
  Name = 
  4 active torsions:
  status: ('A' for Active; 'I' for Inactive)
    1  A    between atoms: C_3  and  N_13
    2  A    between atoms: C_3  and  C_29
    3  A    between atoms: C_12  and  C_28
    4  A    between atoms: N_13  and  C_33
                            x       y       z     vdW  Elec       q    Type
                         _______ _______ _______ _____ _____    ______ ____

>  <TORSDO>
F 4

$$$$
=
 OpenBabel11062408063D

 34 39  0  0  1  0  0  0  0  0999 V2000
  162.3450  209.4380  155.3840 C   0  0  2  0  0  3  0  0  0  0  0  0
  160.0840  208.2900  155.3390 C   0  0  1  0  0  3  0  0  0  0  0  0
  161.5900  208.2230  153.3580 N   0  0  0  0  0  0  0  0  0  0  0  0
  160.9900  207.0310  151.2670 C   0  0  0  0  0  0  0  0  0  0  0  0
  160.7650  209.6520  157.2610 N   0  0  0  0  0  2  0  0  0  0  0  0
  160.0740  208.4300  156.8600 C   0  0  0  0  0  2  0  0  0  0  0  0
  161.8880  205.8290  153.1850 C   0  0  0  0  0  2  0  0  0  0  0  0
  161.5380  208.2530  154.8290 C   0  0  1  0  0  3  0  0  0  0  0  0
  161.9670  204.5740  152.4140 C   0  0  0  0  0  3  0  0  0  0  0  0
  160.2290  205.5880  150.5290 S   0  0  0  0  0  0  0  0  0  0  0  0
  162.1770  209.5260  156.9030 C   0  0  0  0  0  2  0  0  0  0  0  0
  161.6910  209.4400  152.5750 C   0  0  2  0  0  3  0  0  0  0  0  0
  161.8930  210.7340  154.7230 C   0  0  0  0  0  2  0  0  0  0  0  0
  159.3340  207.0240  154.9710 C   0  0  0  0  0  1  0  0  0  0  0  0
  160.9800  208.1660  150.6400 N   0  0  0  0  0  0  0  0  0  0  0  0
  161.4300  209.3990  151.2400 C   0  0  0  0  0  0  0  0  0  0  0  0
  161.4000  204.4040  151.2140 C   0  0  0  0  0  0  0  0  0  0  0  0
  161.4510  206.9780  152.6560 C   0  0  0  0  0  0  0  0  0  0  0  0
  162.2010  210.6950  153.2360 C   0  0  0  0  0  2  0  0  0  0  0  0
  160.8740  212.8270  149.7780 N   0  0  0  0  0  0  0  0  0  0  0  0
  161.8870  212.9570  148.7290 C   0  0  0  0  0  2  0  0  0  0  0  0
  161.5390  210.5860  150.3530 C   0  0  0  0  0  0  0  0  0  0  0  0
  162.4350  211.6210  148.3140 C   0  0  0  0  0  3  0  0  0  0  0  0
  160.8330  211.6840  150.6400 C   0  0  0  0  0  3  0  0  0  0  0  0
  162.2950  210.5390  149.0840 C   0  0  0  0  0  3  0  0  0  0  0  0
  160.0440  213.9730  150.0950 C   0  0  0  0  0  1  0  0  0  0  0  0
  161.6800  203.1610  150.4420 C   0  0  0  0  0  2  0  0  0  0  0  0
  160.6540  202.9590  149.4300 N   0  0  0  0  0  2  0  0  0  0  0  0
  161.8450  204.0370  147.5870 C   0  0  0  0  0  2  0  0  0  0  0  0
  161.1250  204.4020  146.4340 O   0  0  0  0  0  0  0  0  0  0  0  0
  160.8900  202.0770  145.7610 C   0  0  0  0  0  2  0  0  0  0  0  0
  160.3910  201.9890  147.2050 C   0  0  0  0  0  2  0  0  0  0  0  0
  161.3380  202.7080  148.1730 C   0  0  2  0  0  3  0  0  0  0  0  0
  161.4720  203.4640  145.4450 C   0  0  0  0  0  2  0  0  0  0  0  0
  1 13  1  6  0  0  0
  1 11  1  0  0  0  0
  2 14  1  1  0  0  0
  2  6  1  0  0  0  0
  4 18  2  0  0  0  0
  6  5  1  0  0  0  0
  8  3  1  6  0  0  0
  8  2  1  0  0  0  0
  8  1  1  0  0  0  0
  9  7  1  0  0  0  0
 10 17  1  0  0  0  0
 10  4  1  0  0  0  0
 11  5  1  0  0  0  0
 12 19  1  6  0  0  0
 12  3  1  0  0  0  0
 15 16  2  0  0  0  0
 15  4  1  0  0  0  0
 16 12  1  0  0  0  0
 17  9  2  0  0  0  0
 18  7  1  0  0  0  0
 18  3  1  0  0  0  0
 19 13  1  0  0  0  0
 20 26  1  0  0  0  0
 20 24  1  0  0  0  0
 21 20  1  0  0  0  0
 22 24  2  0  0  0  0
 22 16  1  0  0  0  0
 23 21  1  0  0  0  0
 23 25  2  0  0  0  0
 25 22  1  0  0  0  0
 27 17  1  0  0  0  0
 28 27  1  0  0  0  0
 29 33  1  0  0  0  0
 30 29  1  0  0  0  0
 31 32  1  0  0  0  0
 32 33  1  0  0  0  0
 33 28  1  1  0  0  0
 34 31  1  0  0  0  0
 34 30  1  0  0  0  0
M  END
>  <MODEL>
3

>  <REMARK>
 VINA RESULT:      -5.3      2.612      6.879
  Name = 
  4 active torsions:
  status: ('A' for Active; 'I' for Inactive)
    1  A    between atoms: C_3  and  N_13
    2  A    between atoms: C_3  and  C_29
    3  A    between atoms: C_12  and  C_28
    4  A    between atoms: N_13  and  C_33
                            x       y       z     vdW  Elec       q    Type
                         _______ _______ _______ _____ _____    ______ ____

>  <TORSDO>
F 4

$$$$
=
 OpenBabel11062408063D

 34 39  0  0  1  0  0  0  0  0999 V2000
  162.1870  205.4670  152.0650 C   0  0  2  0  0  3  0  0  0  0  0  0
  160.3860  205.9530  150.3470 C   0  0  1  0  0  3  0  0  0  0  0  0
  161.6440  207.8040  151.4380 N   0  0  0  0  0  0  0  0  0  0  0  0
  161.2340  210.1910  150.9010 C   0  0  0  0  0  0  0  0  0  0  0  0
  160.8050  203.6630  151.1160 N   0  0  0  0  0  2  0  0  0  0  0  0
  160.4810  204.4810  149.9510 C   0  0  0  0  0  2  0  0  0  0  0  0
  162.6330  208.8050  149.4700 C   0  0  0  0  0  2  0  0  0  0  0  0
  161.7270  206.4180  150.9480 C   0  0  1  0  0  3  0  0  0  0  0  0
  163.0140  209.9670  148.6460 C   0  0  0  0  0  3  0  0  0  0  0  0
  160.8780  211.4030  149.6330 S   0  0  0  0  0  0  0  0  0  0  0  0
  162.1480  204.0180  151.5740 C   0  0  0  0  0  2  0  0  0  0  0  0
  161.2960  208.1060  152.8130 C   0  0  2  0  0  3  0  0  0  0  0  0
  161.3030  205.6360  153.2940 C   0  0  0  0  0  2  0  0  0  0  0  0
  160.0220  206.7570  149.1120 C   0  0  0  0  0  1  0  0  0  0  0  0
  160.8210  210.3770  152.1160 N   0  0  0  0  0  0  0  0  0  0  0  0
  160.9320  209.3740  153.1470 C   0  0  0  0  0  0  0  0  0  0  0  0
  162.4120  211.1590  148.7230 C   0  0  0  0  0  0  0  0  0  0  0  0
  161.8210  208.9020  150.5290 C   0  0  0  0  0  0  0  0  0  0  0  0
  161.4630  207.0360  153.8620 C   0  0  0  0  0  2  0  0  0  0  0  0
  159.0620  210.8030  156.0900 N   0  0  0  0  0  0  0  0  0  0  0  0
  159.8530  210.4180  157.2610 C   0  0  0  0  0  2  0  0  0  0  0  0
  160.5900  209.7830  154.5340 C   0  0  0  0  0  0  0  0  0  0  0  0
  161.2570  210.0350  156.8840 C   0  0  0  0  0  3  0  0  0  0  0  0
  159.4030  210.3480  154.7750 C   0  0  0  0  0  3  0  0  0  0  0  0
  161.5800  209.7150  155.6290 C   0  0  0  0  0  3  0  0  0  0  0  0
  157.7890  211.4650  156.2930 C   0  0  0  0  0  1  0  0  0  0  0  0
  162.9790  212.3150  147.9730 C   0  0  0  0  0  2  0  0  0  0  0  0
  162.0970  213.4650  148.0850 N   0  0  0  0  0  2  0  0  0  0  0  0
  160.2400  213.3180  146.5020 C   0  0  0  0  0  2  0  0  0  0  0  0
  160.2080  212.2450  145.5910 O   0  0  0  0  0  0  0  0  0  0  0  0
  162.0530  213.1820  144.3150 C   0  0  0  0  0  2  0  0  0  0  0  0
  162.6550  213.2170  145.7220 C   0  0  0  0  0  2  0  0  0  0  0  0
  161.6770  213.8150  146.7390 C   0  0  2  0  0  3  0  0  0  0  0  0
  160.5700  212.7830  144.3430 C   0  0  0  0  0  2  0  0  0  0  0  0
  1 11  1  6  0  0  0
  1 13  1  0  0  0  0
  2 14  1  6  0  0  0
  2  8  1  0  0  0  0
  3 12  1  0  0  0  0
  4 15  1  0  0  0  0
  5 11  1  0  0  0  0
  6  2  1  0  0  0  0
  6  5  1  0  0  0  0
  7 18  1  0  0  0  0
  8  3  1  1  0  0  0
  8  1  1  0  0  0  0
  9 17  2  0  0  0  0
  9  7  1  0  0  0  0
 10  4  1  0  0  0  0
 12 16  1  0  0  0  0
 12 19  1  1  0  0  0
 13 19  1  0  0  0  0
 15 16  2  0  0  0  0
 16 22  1  0  0  0  0
 17 10  1  0  0  0  0
 18  4  2  0  0  0  0
 18  3  1  0  0  0  0
 20 26  1  0  0  0  0
 20 21  1  0  0  0  0
 22 24  2  0  0  0  0
 22 25  1  0  0  0  0
 23 21  1  0  0  0  0
 24 20  1  0  0  0  0
 25 23  2  0  0  0  0
 27 28  1  0  0  0  0
 27 17  1  0  0  0  0
 29 33  1  0  0  0  0
 30 29  1  0  0  0  0
 31 34  1  0  0  0  0
 31 32  1  0  0  0  0
 32 33  1  0  0  0  0
 33 28  1  1  0  0  0
 34 30  1  0  0  0  0
M  END
>  <MODEL>
4

>  <REMARK>
 VINA RESULT:      -5.3      1.943      5.429
  Name = 
  4 active torsions:
  status: ('A' for Active; 'I' for Inactive)
    1  A    between atoms: C_3  and  N_13
    2  A    between atoms: C_3  and  C_29
    3  A    between atoms: C_12  and  C_28
    4  A    between atoms: N_13  and  C_33
                            x       y       z     vdW  Elec       q    Type
                         _______ _______ _______ _____ _____    ______ ____

>  <TORSDO>
F 4

$$$$
=
 OpenBabel11062408063D

 34 39  0  0  1  0  0  0  0  0999 V2000
  160.1060  213.1070  147.2990 C   0  0  2  0  0  3  0  0  0  0  0  0
  162.5830  212.9250  147.8130 C   0  0  1  0  0  3  0  0  0  0  0  0
  160.9000  211.7040  149.1830 N   0  0  0  0  0  0  0  0  0  0  0  0
  161.5370  210.2430  151.0840 C   0  0  0  0  0  0  0  0  0  0  0  0
  161.7680  214.4530  146.0780 N   0  0  0  0  0  2  0  0  0  0  0  0
  162.8300  213.5140  146.4260 C   0  0  0  0  0  2  0  0  0  0  0  0
  161.6560  209.4400  148.7890 C   0  0  0  0  0  2  0  0  0  0  0  0
  161.2240  212.1980  147.8340 C   0  0  1  0  0  3  0  0  0  0  0  0
  161.9850  208.0750  149.2400 C   0  0  0  0  0  3  0  0  0  0  0  0
  162.6910  209.0340  151.7260 S   0  0  0  0  0  0  0  0  0  0  0  0
  160.5140  213.7090  145.9530 C   0  0  0  0  0  2  0  0  0  0  0  0
  160.1230  212.4950  150.1180 C   0  0  2  0  0  3  0  0  0  0  0  0
  159.8020  214.2110  148.3050 C   0  0  0  0  0  2  0  0  0  0  0  0
  163.7230  211.9790  148.1410 C   0  0  0  0  0  1  0  0  0  0  0  0
  160.9230  211.0510  151.8920 N   0  0  0  0  0  0  0  0  0  0  0  0
  160.1060  212.1490  151.4340 C   0  0  0  0  0  0  0  0  0  0  0  0
  162.3200  207.7700  150.4980 C   0  0  0  0  0  0  0  0  0  0  0  0
  161.4300  210.4490  149.6380 C   0  0  0  0  0  0  0  0  0  0  0  0
  159.2560  213.6080  149.5890 C   0  0  0  0  0  2  0  0  0  0  0  0
  158.9800  213.5540  154.7440 N   0  0  0  0  0  0  0  0  0  0  0  0
  157.8700  214.4500  154.4140 C   0  0  0  0  0  2  0  0  0  0  0  0
  159.3140  212.8790  152.4570 C   0  0  0  0  0  0  0  0  0  0  0  0
  157.3040  214.1590  153.0520 C   0  0  0  0  0  3  0  0  0  0  0  0
  159.7450  212.9040  153.7220 C   0  0  0  0  0  3  0  0  0  0  0  0
  157.9910  213.4590  152.1460 C   0  0  0  0  0  3  0  0  0  0  0  0
  159.4540  213.5030  156.1130 C   0  0  0  0  0  1  0  0  0  0  0  0
  162.4680  206.3400  150.8910 C   0  0  0  0  0  2  0  0  0  0  0  0
  161.4320  205.9730  151.8440 N   0  0  0  0  0  2  0  0  0  0  0  0
  160.8540  203.6240  152.1930 C   0  0  0  0  0  2  0  0  0  0  0  0
  161.6600  202.6320  151.6040 O   0  0  0  0  0  0  0  0  0  0  0  0
  160.8190  203.1650  149.3860 C   0  0  0  0  0  2  0  0  0  0  0  0
  161.2260  204.5620  149.8620 C   0  0  0  0  0  2  0  0  0  0  0  0
  160.7070  204.8500  151.2750 C   0  0  2  0  0  3  0  0  0  0  0  0
  160.9260  202.1280  150.5150 C   0  0  0  0  0  2  0  0  0  0  0  0
  1 11  1  6  0  0  0
  1  8  1  0  0  0  0
  1 13  1  0  0  0  0
  2  8  1  0  0  0  0
  2 14  1  6  0  0  0
  3 18  1  0  0  0  0
  3 12  1  0  0  0  0
  4 10  1  0  0  0  0
  4 15  1  0  0  0  0
  5  6  1  0  0  0  0
  6  2  1  0  0  0  0
  7  9  1  0  0  0  0
  7 18  1  0  0  0  0
  8  3  1  1  0  0  0
  9 17  2  0  0  0  0
 11  5  1  0  0  0  0
 12 19  1  6  0  0  0
 12 16  1  0  0  0  0
 13 19  1  0  0  0  0
 16 15  2  0  0  0  0
 16 22  1  0  0  0  0
 17 27  1  0  0  0  0
 17 10  1  0  0  0  0
 18  4  2  0  0  0  0
 20 26  1  0  0  0  0
 21 20  1  0  0  0  0
 22 24  2  0  0  0  0
 23 21  1  0  0  0  0
 24 20  1  0  0  0  0
 25 22  1  0  0  0  0
 25 23  2  0  0  0  0
 27 28  1  0  0  0  0
 30 29  1  0  0  0  0
 31 32  1  0  0  0  0
 31 34  1  0  0  0  0
 32 33  1  0  0  0  0
 33 28  1  1  0  0  0
 33 29  1  0  0  0  0
 34 30  1  0  0  0  0
M  END
>  <MODEL>
5

>  <REMARK>
 VINA RESULT:      -5.0      3.388      8.695
  Name = 
  4 active torsions:
  status: ('A' for Active; 'I' for Inactive)
    1  A    between atoms: C_3  and  N_13
    2  A    between atoms: C_3  and  C_29
    3  A    between atoms: C_12  and  C_28
    4  A    between atoms: N_13  and  C_33
                            x       y       z     vdW  Elec       q    Type
                         _______ _______ _______ _____ _____    ______ ____

>  <TORSDO>
F 4

$$$$
=
 OpenBabel11062408063D

 34 39  0  0  1  0  0  0  0  0999 V2000
  160.6230  213.0990  148.4010 C   0  0  2  0  0  3  0  0  0  0  0  0
  163.0200  212.2780  148.2630 C   0  0  1  0  0  3  0  0  0  0  0  0
  161.2970  210.9880  149.5150 N   0  0  0  0  0  0  0  0  0  0  0  0
  161.8070  208.8490  150.6630 C   0  0  0  0  0  0  0  0  0  0  0  0
  162.3790  214.4530  147.3300 N   0  0  0  0  0  2  0  0  0  0  0  0
  163.2060  213.2690  147.1160 C   0  0  0  0  0  2  0  0  0  0  0  0
  161.3860  208.9190  148.2660 C   0  0  0  0  0  2  0  0  0  0  0  0
  161.5380  211.8640  148.3560 C   0  0  1  0  0  3  0  0  0  0  0  0
  161.4170  207.4480  148.1750 C   0  0  0  0  0  3  0  0  0  0  0  0
  162.6950  207.2950  150.6130 S   0  0  0  0  0  0  0  0  0  0  0  0
  160.9730  214.0560  147.2600 C   0  0  0  0  0  2  0  0  0  0  0  0
  160.8900  211.5220  150.8010 C   0  0  2  0  0  3  0  0  0  0  0  0
  160.7600  213.8020  149.7460 C   0  0  0  0  0  2  0  0  0  0  0  0
  163.9160  211.0810  148.0110 C   0  0  0  0  0  1  0  0  0  0  0  0
  161.5430  209.4130  151.8000 N   0  0  0  0  0  0  0  0  0  0  0  0
  160.9760  210.7360  151.9090 C   0  0  0  0  0  0  0  0  0  0  0  0
  161.8410  206.6530  149.1640 C   0  0  0  0  0  0  0  0  0  0  0  0
  161.5490  209.5780  149.4190 C   0  0  0  0  0  0  0  0  0  0  0  0
  160.2690  212.8940  150.8600 C   0  0  0  0  0  2  0  0  0  0  0  0
  160.9690  211.3560  155.6250 N   0  0  0  0  0  0  0  0  0  0  0  0
  159.8090  212.2180  155.8600 C   0  0  0  0  0  2  0  0  0  0  0  0
  160.5530  211.1840  153.2600 C   0  0  0  0  0  0  0  0  0  0  0  0
  158.8370  212.1700  154.7150 C   0  0  0  0  0  3  0  0  0  0  0  0
  161.3670  210.9830  154.3010 C   0  0  0  0  0  3  0  0  0  0  0  0
  159.1980  211.7190  153.5120 C   0  0  0  0  0  3  0  0  0  0  0  0
  161.8580  211.0620  156.7320 C   0  0  0  0  0  1  0  0  0  0  0  0
  161.6740  205.1770  149.0400 C   0  0  0  0  0  2  0  0  0  0  0  0
  161.2370  204.8340  147.6960 N   0  0  0  0  0  2  0  0  0  0  0  0
  161.4560  203.1260  145.9620 C   0  0  0  0  0  2  0  0  0  0  0  0
  160.4000  202.2160  145.7670 O   0  0  0  0  0  0  0  0  0  0  0  0
  160.9110  201.0700  147.8500 C   0  0  0  0  0  2  0  0  0  0  0  0
  160.8400  202.5160  148.3490 C   0  0  0  0  0  2  0  0  0  0  0  0
  161.6460  203.4620  147.4510 C   0  0  2  0  0  3  0  0  0  0  0  0
  160.8310  200.9950  146.3170 C   0  0  0  0  0  2  0  0  0  0  0  0
  1 11  1  6  0  0  0
  1 13  1  0  0  0  0
  2 14  1  6  0  0  0
  2  8  1  0  0  0  0
  3 12  1  0  0  0  0
  4 15  1  0  0  0  0
  6  5  1  0  0  0  0
  6  2  1  0  0  0  0
  7 18  1  0  0  0  0
  8  1  1  0  0  0  0
  8  3  1  1  0  0  0
  9  7  1  0  0  0  0
  9 17  2  0  0  0  0
 10  4  1  0  0  0  0
 11  5  1  0  0  0  0
 12 19  1  6  0  0  0
 12 16  1  0  0  0  0
 13 19  1  0  0  0  0
 15 16  2  0  0  0  0
 16 22  1  0  0  0  0
 17 10  1  0  0  0  0
 18  3  1  0  0  0  0
 18  4  2  0  0  0  0
 20 21  1  0  0  0  0
 20 26  1  0  0  0  0
 22 25  1  0  0  0  0
 22 24  2  0  0  0  0
 23 21  1  0  0  0  0
 24 20  1  0  0  0  0
 25 23  2  0  0  0  0
 27 17  1  0  0  0  0
 28 27  1  0  0  0  0
 29 33  1  0  0  0  0
 30 29  1  0  0  0  0
 30 34  1  0  0  0  0
 31 32  1  0  0  0  0
 33 28  1  6  0  0  0
 33 32  1  0  0  0  0
 34 31  1  0  0  0  0
M  END
>  <MODEL>
6

>  <REMARK>
 VINA RESULT:      -4.9      3.022      8.228
  Name = 
  4 active torsions:
  status: ('A' for Active; 'I' for Inactive)
    1  A    between atoms: C_3  and  N_13
    2  A    between atoms: C_3  and  C_29
    3  A    between atoms: C_12  and  C_28
    4  A    between atoms: N_13  and  C_33
                            x       y       z     vdW  Elec       q    Type
                         _______ _______ _______ _____ _____    ______ ____

>  <TORSDO>
F 4

$$$$
=
 OpenBabel11062408063D

 34 39  0  0  1  0  0  0  0  0999 V2000
  160.4270  206.1710  150.0330 C   0  0  2  0  0  3  0  0  0  0  0  0
  162.3060  205.8140  151.6990 C   0  0  1  0  0  3  0  0  0  0  0  0
  161.0440  207.9590  151.6370 N   0  0  0  0  0  0  0  0  0  0  0  0
  161.5240  209.8330  153.1890 C   0  0  0  0  0  0  0  0  0  0  0  0
  161.8090  204.1330  149.9850 N   0  0  0  0  0  2  0  0  0  0  0  0
  162.1960  204.3250  151.3790 C   0  0  0  0  0  2  0  0  0  0  0  0
  160.1550  207.9450  153.8860 C   0  0  0  0  0  2  0  0  0  0  0  0
  160.9520  206.5030  151.4390 C   0  0  1  0  0  3  0  0  0  0  0  0
  159.8320  208.5990  155.1680 C   0  0  0  0  0  3  0  0  0  0  0  0
  161.9560  210.3280  154.8540 S   0  0  0  0  0  0  0  0  0  0  0  0
  160.4560  204.6590  149.8020 C   0  0  0  0  0  2  0  0  0  0  0  0
  161.3420  208.8590  150.5390 C   0  0  2  0  0  3  0  0  0  0  0  0
  161.2650  206.8860  148.9800 C   0  0  0  0  0  2  0  0  0  0  0  0
  162.7350  205.9620  153.1460 C   0  0  0  0  0  1  0  0  0  0  0  0
  161.8920  210.5580  152.1780 N   0  0  0  0  0  0  0  0  0  0  0  0
  161.7180  210.1390  150.8070 C   0  0  0  0  0  0  0  0  0  0  0  0
  160.4550  209.6930  155.6190 C   0  0  0  0  0  0  0  0  0  0  0  0
  160.9260  208.5170  152.9550 C   0  0  0  0  0  0  0  0  0  0  0  0
  161.1100  208.3910  149.1250 C   0  0  0  0  0  2  0  0  0  0  0  0
  161.4330  213.1580  148.5700 N   0  0  0  0  0  0  0  0  0  0  0  0
  162.6840  213.1810  147.8090 C   0  0  0  0  0  2  0  0  0  0  0  0
  162.0120  211.1400  149.7500 C   0  0  0  0  0  0  0  0  0  0  0  0
  163.3780  211.8470  147.8350 C   0  0  0  0  0  3  0  0  0  0  0  0
  161.2100  212.2010  149.6130 C   0  0  0  0  0  3  0  0  0  0  0  0
  163.0810  210.9250  148.7520 C   0  0  0  0  0  3  0  0  0  0  0  0
  160.5030  214.2590  148.4200 C   0  0  0  0  0  1  0  0  0  0  0  0
  159.9430  210.3760  156.8410 C   0  0  0  0  0  2  0  0  0  0  0  0
  159.5200  211.7290  156.5180 N   0  0  0  0  0  2  0  0  0  0  0  0
  158.5540  212.8690  154.5830 C   0  0  0  0  0  2  0  0  0  0  0  0
  157.4270  213.6910  154.7710 O   0  0  0  0  0  0  0  0  0  0  0  0
  155.9960  211.7600  155.1450 C   0  0  0  0  0  2  0  0  0  0  0  0
  157.1250  211.4530  156.1330 C   0  0  0  0  0  2  0  0  0  0  0  0
  158.5030  211.6240  155.4850 C   0  0  2  0  0  3  0  0  0  0  0  0
  156.3310  212.9710  154.2610 C   0  0  0  0  0  2  0  0  0  0  0  0
  1 13  1  6  0  0  0
  1  8  1  0  0  0  0
  2 14  1  1  0  0  0
  3 18  1  0  0  0  0
  4 10  1  0  0  0  0
  5  6  1  0  0  0  0
  6  2  1  0  0  0  0
  7  9  1  0  0  0  0
  8  3  1  6  0  0  0
  8  2  1  0  0  0  0
  9 17  2  0  0  0  0
 10 17  1  0  0  0  0
 11  5  1  0  0  0  0
 11  1  1  0  0  0  0
 12 19  1  6  0  0  0
 12 16  1  0  0  0  0
 12  3  1  0  0  0  0
 13 19  1  0  0  0  0
 15  4  1  0  0  0  0
 16 15  2  0  0  0  0
 17 27  1  0  0  0  0
 18  4  2  0  0  0  0
 18  7  1  0  0  0  0
 20 24  1  0  0  0  0
 21 23  1  0  0  0  0
 21 20  1  0  0  0  0
 22 16  1  0  0  0  0
 23 25  2  0  0  0  0
 24 22  2  0  0  0  0
 25 22  1  0  0  0  0
 26 20  1  0  0  0  0
 28 27  1  0  0  0  0
 29 30  1  0  0  0  0
 29 33  1  0  0  0  0
 31 32  1  0  0  0  0
 33 32  1  0  0  0  0
 33 28  1  1  0  0  0
 34 30  1  0  0  0  0
 34 31  1  0  0  0  0
M  END
>  <MODEL>
7

>  <REMARK>
 VINA RESULT:      -4.7      2.772      6.822
  Name = 
  4 active torsions:
  status: ('A' for Active; 'I' for Inactive)
    1  A    between atoms: C_3  and  N_13
    2  A    between atoms: C_3  and  C_29
    3  A    between atoms: C_12  and  C_28
    4  A    between atoms: N_13  and  C_33
                            x       y       z     vdW  Elec       q    Type
                         _______ _______ _______ _____ _____    ______ ____

>  <TORSDO>
F 4

$$$$
=
 OpenBabel11062408063D

 34 39  0  0  1  0  0  0  0  0999 V2000
  161.8110  213.2120  148.8860 C   0  0  2  0  0  3  0  0  0  0  0  0
  159.2920  213.2430  148.5850 C   0  0  1  0  0  3  0  0  0  0  0  0
  160.3150  212.4660  150.7180 N   0  0  0  0  0  0  0  0  0  0  0  0
  158.9550  211.7110  152.6500 C   0  0  0  0  0  0  0  0  0  0  0  0
  160.7880  213.7970  146.7230 N   0  0  0  0  0  2  0  0  0  0  0  0
  159.5300  214.1460  147.3760 C   0  0  0  0  0  2  0  0  0  0  0  0
  159.3280  214.0790  152.2250 C   0  0  0  0  0  3  0  0  0  0  0  0
  160.4540  213.3970  149.5860 C   0  0  1  0  0  3  0  0  0  0  0  0
  158.6670  214.4530  153.4900 C   0  0  0  0  0  3  0  0  0  0  0  0
  157.4860  211.9670  153.6410 S   0  0  0  0  0  0  0  0  0  0  0  0
  161.8870  214.0980  147.6400 C   0  0  0  0  0  2  0  0  0  0  0  0
  160.9320  211.1530  150.7040 C   0  0  2  0  0  3  0  0  0  0  0  0
  162.0110  211.7490  148.5110 C   0  0  0  0  0  2  0  0  0  0  0  0
  157.9650  213.6250  149.2130 C   0  0  0  0  0  1  0  0  0  0  0  0
  159.4540  210.5220  152.5180 N   0  0  0  0  0  0  0  0  0  0  0  0
  160.5350  210.2190  151.6110 C   0  0  0  0  0  0  0  0  0  0  0  0
  157.9590  213.5980  154.2370 C   0  0  2  0  0  3  0  0  0  0  0  0
  159.4810  212.8090  151.8360 C   0  0  0  0  0  0  0  0  0  0  0  0
  162.0820  210.8950  149.7660 C   0  0  0  0  0  2  0  0  0  0  0  0
  161.4890  206.8120  152.9060 N   0  0  0  0  0  0  0  0  0  0  0  0
  162.1440  206.1500  151.7760 C   0  0  0  0  0  2  0  0  0  0  0  0
  161.1310  208.8610  151.6940 C   0  0  0  0  0  0  0  0  0  0  0  0
  162.5950  207.1370  150.7360 C   0  0  0  0  0  3  0  0  0  0  0  0
  160.8870  208.1040  152.7690 C   0  0  0  0  0  3  0  0  0  0  0  0
  162.1000  208.3760  150.6890 C   0  0  0  0  0  3  0  0  0  0  0  0
  161.2460  206.0520  154.1170 C   0  0  0  0  0  1  0  0  0  0  0  0
  157.4750  214.0270  155.5800 C   0  0  0  0  0  2  0  0  0  0  0  0
  158.5950  214.4530  156.4030 N   0  0  0  0  0  2  0  0  0  0  0  0
  160.4840  212.9140  156.5960 C   0  0  0  0  0  2  0  0  0  0  0  0
  160.4700  211.7230  155.8460 O   0  0  0  0  0  0  0  0  0  0  0  0
  158.7350  210.7730  157.2590 C   0  0  0  0  0  2  0  0  0  0  0  0
  158.0940  212.1200  156.9160 C   0  0  0  0  0  2  0  0  0  0  0  0
  159.0800  213.2780  157.1060 C   0  0  2  0  0  3  0  0  0  0  0  0
  160.1860  210.6910  156.7590 C   0  0  0  0  0  2  0  0  0  0  0  0
  1 11  1  6  0  0  0
  1  8  1  0  0  0  0
  2 14  1  1  0  0  0
  2  8  1  0  0  0  0
  3 18  1  0  0  0  0
  4 10  1  0  0  0  0
  5  6  1  0  0  0  0
  5 11  1  0  0  0  0
  6  2  1  0  0  0  0
  7  9  2  0  0  0  0
  8  3  1  1  0  0  0
  9 17  1  0  0  0  0
 10 17  1  0  0  0  0
 12 19  1  1  0  0  0
 12  3  1  0  0  0  0
 12 16  1  0  0  0  0
 13  1  1  0  0  0  0
 13 19  1  0  0  0  0
 15  4  1  0  0  0  0
 16 22  1  0  0  0  0
 16 15  2  0  0  0  0
 17 27  1  6  0  0  0
 18  7  1  0  0  0  0
 18  4  2  0  0  0  0
 20 26  1  0  0  0  0
 21 20  1  0  0  0  0
 22 24  2  0  0  0  0
 23 21  1  0  0  0  0
 24 20  1  0  0  0  0
 25 23  2  0  0  0  0
 25 22  1  0  0  0  0
 27 28  1  0  0  0  0
 29 33  1  0  0  0  0
 30 29  1  0  0  0  0
 30 34  1  0  0  0  0
 32 33  1  0  0  0  0
 32 31  1  0  0  0  0
 33 28  1  6  0  0  0
 34 31  1  0  0  0  0
M  END
>  <MODEL>
8

>  <REMARK>
 VINA RESULT:      -4.6      3.152      7.166
  Name = 
  4 active torsions:
  status: ('A' for Active; 'I' for Inactive)
    1  A    between atoms: C_3  and  N_13
    2  A    between atoms: C_3  and  C_29
    3  A    between atoms: C_12  and  C_28
    4  A    between atoms: N_13  and  C_33
                            x       y       z     vdW  Elec       q    Type
                         _______ _______ _______ _____ _____    ______ ____

>  <TORSDO>
F 4

$$$$
=
 OpenBabel11062408063D

 34 39  0  0  1  0  0  0  0  0999 V2000
  162.3490  212.3510  148.6880 C   0  0  2  0  0  3  0  0  0  0  0  0
  159.8580  212.7140  148.3720 C   0  0  1  0  0  3  0  0  0  0  0  0
  160.7770  212.0010  150.5740 N   0  0  0  0  0  0  0  0  0  0  0  0
  159.3380  211.6330  152.5610 C   0  0  0  0  0  0  0  0  0  0  0  0
  161.4030  212.8720  146.4750 N   0  0  0  0  0  2  0  0  0  0  0  0
  160.2130  213.4570  147.0860 C   0  0  0  0  0  2  0  0  0  0  0  0
  160.0420  213.8730  151.9190 C   0  0  0  0  0  3  0  0  0  0  0  0
  161.0390  212.7930  149.3600 C   0  0  1  0  0  3  0  0  0  0  0  0
  159.4520  214.4530  153.1390 C   0  0  0  0  0  3  0  0  0  0  0  0
  157.9290  212.1870  153.5160 S   0  0  0  0  0  0  0  0  0  0  0  0
  162.5410  213.0970  147.3660 C   0  0  0  0  0  2  0  0  0  0  0  0
  161.1990  210.6180  150.6860 C   0  0  2  0  0  3  0  0  0  0  0  0
  162.3340  210.8460  148.4530 C   0  0  0  0  0  2  0  0  0  0  0  0
  158.6040  213.3390  148.9550 C   0  0  0  0  0  1  0  0  0  0  0  0
  159.6610  210.3770  152.5430 N   0  0  0  0  0  0  0  0  0  0  0  0
  160.6800  209.8390  151.6740 C   0  0  0  0  0  0  0  0  0  0  0  0
  158.6350  213.7820  153.9590 C   0  0  2  0  0  3  0  0  0  0  0  0
  160.0090  212.5630  151.6500 C   0  0  0  0  0  0  0  0  0  0  0  0
  162.2930  210.1120  149.7820 C   0  0  0  0  0  2  0  0  0  0  0  0
  161.5200  206.2280  151.0050 N   0  0  0  0  0  0  0  0  0  0  0  0
  162.0220  205.7150  152.2820 C   0  0  0  0  0  2  0  0  0  0  0  0
  161.0760  208.4230  151.8870 C   0  0  0  0  0  0  0  0  0  0  0  0
  161.6160  206.5930  153.4330 C   0  0  0  0  0  3  0  0  0  0  0  0
  161.1910  207.6110  150.8320 C   0  0  0  0  0  3  0  0  0  0  0  0
  161.2100  207.8500  153.2420 C   0  0  0  0  0  3  0  0  0  0  0  0
  161.5730  205.3690  149.8380 C   0  0  0  0  0  1  0  0  0  0  0  0
  158.2280  214.4000  155.2530 C   0  0  0  0  0  2  0  0  0  0  0  0
  158.5530  213.5090  156.3560 N   0  0  0  0  0  2  0  0  0  0  0  0
  157.0220  211.8260  157.2480 C   0  0  0  0  0  2  0  0  0  0  0  0
  155.8840  211.4750  156.4970 O   0  0  0  0  0  0  0  0  0  0  0  0
  154.8250  213.6100  156.9780 C   0  0  0  0  0  2  0  0  0  0  0  0
  156.1860  214.0950  156.4710 C   0  0  0  0  0  2  0  0  0  0  0  0
  157.3380  213.3270  157.1300 C   0  0  2  0  0  3  0  0  0  0  0  0
  154.7910  212.0830  157.1400 C   0  0  0  0  0  2  0  0  0  0  0  0
  1 11  1  6  0  0  0
  1  8  1  0  0  0  0
  2 14  1  1  0  0  0
  2  8  1  0  0  0  0
  3 12  1  0  0  0  0
  3 18  1  0  0  0  0
  4 10  1  0  0  0  0
  5  6  1  0  0  0  0
  5 11  1  0  0  0  0
  6  2  1  0  0  0  0
  7  9  2  0  0  0  0
  8  3  1  1  0  0  0
  9 17  1  0  0  0  0
 10 17  1  0  0  0  0
 12 19  1  1  0  0  0
 12 16  1  0  0  0  0
 13  1  1  0  0  0  0
 13 19  1  0  0  0  0
 15  4  1  0  0  0  0
 16 22  1  0  0  0  0
 16 15  2  0  0  0  0
 17 27  1  6  0  0  0
 18  7  1  0  0  0  0
 18  4  2  0  0  0  0
 20 21  1  0  0  0  0
 21 23  1  0  0  0  0
 22 25  1  0  0  0  0
 24 20  1  0  0  0  0
 24 22  2  0  0  0  0
 25 23  2  0  0  0  0
 26 20  1  0  0  0  0
 27 28  1  0  0  0  0
 30 34  1  0  0  0  0
 30 29  1  0  0  0  0
 31 34  1  0  0  0  0
 32 31  1  0  0  0  0
 32 33  1  0  0  0  0
 33 28  1  6  0  0  0
 33 29  1  0  0  0  0
M  END
>  <MODEL>
9

>  <REMARK>
 VINA RESULT:      -4.4      3.615      7.099
  Name = 
  4 active torsions:
  status: ('A' for Active; 'I' for Inactive)
    1  A    between atoms: C_3  and  N_13
    2  A    between atoms: C_3  and  C_29
    3  A    between atoms: C_12  and  C_28
    4  A    between atoms: N_13  and  C_33
                            x       y       z     vdW  Elec       q    Type
                         _______ _______ _______ _____ _____    ______ ____

>  <TORSDO>
F 4

$$$$
