=
 OpenBabel11062410363D

 32 38  0  0  1  0  0  0  0  0999 V2000
  160.5560  210.6040  155.1590 C   0  0  1  0  0  3  0  0  0  0  0  0
  161.1520  207.7510  151.1080 C   0  0  0  0  0  0  0  0  0  0  0  0
  160.3560  203.1700  152.6740 C   0  0  0  0  0  2  0  0  0  0  0  0
  161.1410  202.5860  151.5170 C   0  0  0  0  0  2  0  0  0  0  0  0
  161.0110  209.5530  152.5140 C   0  0  0  0  0  0  0  0  0  0  0  0
  161.1870  207.3800  153.4830 N   0  0  0  0  0  0  0  0  0  0  0  0
  161.2130  209.2880  154.9230 C   0  0  0  0  0  2  0  0  0  0  0  0
  161.1190  204.4830  153.1820 C   0  0  0  0  0  2  0  0  0  0  0  0
  161.2250  206.8400  152.1900 C   0  0  0  0  0  0  0  0  0  0  0  0
  161.2820  205.4530  152.0020 C   0  0  0  0  0  0  0  0  0  0  0  0
  161.3570  205.8860  149.5660 C   0  0  0  0  0  0  0  0  0  0  0  0
  160.2920  211.5730  153.9630 C   0  0  1  0  0  3  0  0  0  0  0  0
  161.0950  208.7030  153.6060 C   0  0  0  0  0  0  0  0  0  0  0  0
  160.9250  211.0350  152.6030 C   0  0  0  0  0  2  0  0  0  0  0  0
  159.1480  210.7520  154.5610 C   0  0  2  0  0  3  0  0  0  0  0  0
  161.1970  203.5700  150.3910 C   0  0  0  0  0  2  0  0  0  0  0  0
  161.3930  205.0050  150.6710 C   0  0  0  0  0  0  0  0  0  0  0  0
  161.0520  209.0750  151.2770 N   0  0  0  0  0  0  0  0  0  0  0  0
  161.2190  207.2700  149.7800 C   0  0  0  0  0  0  0  0  0  0  0  0
  161.3780  208.1810  148.6430 C   0  0  0  0  0  3  0  0  0  0  0  0
  162.5010  208.6670  148.2520 N   0  0  0  0  0  2  0  0  0  0  0  0
  158.3750  211.3720  155.8340 C   0  0  0  0  0  2  0  0  0  0  0  0
  156.8700  211.5440  155.7250 C   0  0  0  0  0  0  0  0  0  0  0  0
  156.1850  211.1550  154.6300 O   0  0  0  0  0  0  0  0  0  0  0  0
  156.2720  212.1630  156.6420 O   0  0  0  0  0  1  0  0  0  0  0  0
  161.0230  205.1830  148.2420 C   0  0  0  0  0  2  0  0  0  0  0  0
  161.9150  205.9500  145.5150 C   0  0  0  0  0  0  0  0  0  0  0  0
  162.8010  205.0490  146.0720 C   0  0  0  0  0  0  0  0  0  0  0  0
  161.4990  204.8320  144.4840 C   0  0  0  0  0  2  0  0  0  0  0  0
  160.5350  205.9330  144.7520 C   0  0  0  0  0  2  0  0  0  0  0  0
  163.8780  204.3860  145.9670 O   0  0  0  0  0  0  0  0  0  0  0  0
  161.5790  205.4550  146.8500 N   0  0  0  0  0  0  0  0  0  0  0  0
  1  7  1  6  0  0  0
  2 18  1  0  0  0  0
  2  9  1  0  0  0  0
  3  8  1  0  0  0  0
  4  3  1  0  0  0  0
  5 14  1  0  0  0  0
  5 13  1  0  0  0  0
  6 13  2  0  0  0  0
  9  6  1  0  0  0  0
 10  9  2  0  0  0  0
 10  8  1  0  0  0  0
 11 19  1  0  0  0  0
 11 17  2  0  0  0  0
 12 14  1  6  0  0  0
 12 15  1  0  0  0  0
 12  1  1  0  0  0  0
 13  7  1  0  0  0  0
 15  1  1  0  0  0  0
 15 22  1  1  0  0  0
 16 17  1  0  0  0  0
 16  4  1  0  0  0  0
 17 10  1  0  0  0  0
 18  5  2  0  0  0  0
 19  2  2  0  0  0  0
 20 19  1  0  0  0  0
 21 20  2  0  0  0  0
 23 22  1  0  0  0  0
 23 25  1  0  0  0  0
 24 23  2  0  0  0  0
 26 11  1  0  0  0  0
 27 28  1  0  0  0  0
 27 32  1  0  0  0  0
 28 32  1  0  0  0  0
 29 30  1  0  0  0  0
 29 27  1  0  0  0  0
 30 27  1  0  0  0  0
 31 28  2  0  0  0  0
 32 26  1  0  0  0  0
M  END
>  <MODEL>
1

>  <REMARK>
 VINA RESULT:      -8.9      0.000      0.000
  Name = 
  5 active torsions:
  status: ('A' for Active; 'I' for Inactive)
    1  A    between atoms: C_1  and  C_10
    2  A    between atoms: C_6  and  C_31
    3  A    between atoms: C_10  and  C_24
    4  A    between atoms: C_16  and  C_27
    5  A    between atoms: C_27  and  N_32
                            x       y       z     vdW  Elec       q    Type
                         _______ _______ _______ _____ _____    ______ ____

>  <TORSDO>
F 5

$$$$
=
 OpenBabel11062410363D

 32 38  0  0  1  0  0  0  0  0999 V2000
  158.6100  211.6160  155.7610 C   0  0  1  0  0  3  0  0  0  0  0  0
  161.2180  209.5740  152.0270 C   0  0  0  0  0  0  0  0  0  0  0  0
  160.9620  204.7390  152.8190 C   0  0  0  0  0  2  0  0  0  0  0  0
  162.2150  204.4890  152.0030 C   0  0  0  0  0  2  0  0  0  0  0  0
  160.1920  211.0830  153.4110 C   0  0  0  0  0  0  0  0  0  0  0  0
  160.4940  208.8540  154.2040 N   0  0  0  0  0  0  0  0  0  0  0  0
  159.5840  210.4900  155.6900 C   0  0  0  0  0  2  0  0  0  0  0  0
  161.1840  206.0730  153.6770 C   0  0  0  0  0  2  0  0  0  0  0  0
  161.1050  208.5350  152.9830 C   0  0  0  0  0  0  0  0  0  0  0  0
  161.5320  207.2270  152.7240 C   0  0  0  0  0  0  0  0  0  0  0  0
  162.3640  208.0360  150.5380 C   0  0  0  0  0  0  0  0  0  0  0  0
  158.5770  212.6940  154.6320 C   0  0  1  0  0  3  0  0  0  0  0  0
  160.0720  210.1040  154.3840 C   0  0  0  0  0  0  0  0  0  0  0  0
  159.7510  212.4950  153.5750 C   0  0  0  0  0  2  0  0  0  0  0  0
  157.5090  211.6000  154.6890 C   0  0  2  0  0  3  0  0  0  0  0  0
  162.4440  205.6300  151.0610 C   0  0  0  0  0  2  0  0  0  0  0  0
  162.2040  207.0160  151.5030 C   0  0  0  0  0  0  0  0  0  0  0  0
  160.7730  210.8170  152.2480 N   0  0  0  0  0  0  0  0  0  0  0  0
  161.8550  209.3230  150.7900 C   0  0  0  0  0  0  0  0  0  0  0  0
  162.1980  210.4120  149.8710 C   0  0  0  0  0  3  0  0  0  0  0  0
  161.8190  210.4750  148.6450 N   0  0  0  0  0  2  0  0  0  0  0  0
  156.2190  211.8690  155.6190 C   0  0  0  0  0  2  0  0  0  0  0  0
  155.2430  210.7220  155.8120 C   0  0  0  0  0  0  0  0  0  0  0  0
  154.5900  210.5290  156.9760 O   0  0  0  0  0  1  0  0  0  0  0  0
  155.1280  209.8730  154.8910 O   0  0  0  0  0  0  0  0  0  0  0  0
  162.6850  207.4970  149.1360 C   0  0  0  0  0  2  0  0  0  0  0  0
  160.9030  205.6190  147.6800 C   0  0  0  0  0  0  0  0  0  0  0  0
  161.8940  206.0880  146.8390 C   0  0  0  0  0  0  0  0  0  0  0  0
  161.5770  204.1960  147.6040 C   0  0  0  0  0  2  0  0  0  0  0  0
  160.7150  204.5020  148.7770 C   0  0  0  0  0  2  0  0  0  0  0  0
  162.4050  206.1100  145.6780 O   0  0  0  0  0  0  0  0  0  0  0  0
  161.8800  206.5300  148.2780 N   0  0  0  0  0  0  0  0  0  0  0  0
  1  7  1  6  0  0  0
  2 18  1  0  0  0  0
  2  9  1  0  0  0  0
  3  8  1  0  0  0  0
  4  3  1  0  0  0  0
  5 14  1  0  0  0  0
  5 13  1  0  0  0  0
  6 13  2  0  0  0  0
  9  6  1  0  0  0  0
 10  9  2  0  0  0  0
 10  8  1  0  0  0  0
 11 19  1  0  0  0  0
 11 17  2  0  0  0  0
 12 14  1  6  0  0  0
 12 15  1  0  0  0  0
 12  1  1  0  0  0  0
 13  7  1  0  0  0  0
 15 22  1  1  0  0  0
 15  1  1  0  0  0  0
 16 17  1  0  0  0  0
 16  4  1  0  0  0  0
 17 10  1  0  0  0  0
 18  5  2  0  0  0  0
 19  2  2  0  0  0  0
 20 19  1  0  0  0  0
 21 20  2  0  0  0  0
 22 23  1  0  0  0  0
 23 24  1  0  0  0  0
 25 23  2  0  0  0  0
 26 11  1  0  0  0  0
 27 32  1  0  0  0  0
 27 30  1  0  0  0  0
 28 27  1  0  0  0  0
 28 32  1  0  0  0  0
 29 27  1  0  0  0  0
 29 30  1  0  0  0  0
 31 28  2  0  0  0  0
 32 26  1  0  0  0  0
M  END
>  <MODEL>
2

>  <REMARK>
 VINA RESULT:      -7.8      1.571      2.335
  Name = 
  5 active torsions:
  status: ('A' for Active; 'I' for Inactive)
    1  A    between atoms: C_1  and  C_10
    2  A    between atoms: C_6  and  C_31
    3  A    between atoms: C_10  and  C_24
    4  A    between atoms: C_16  and  C_27
    5  A    between atoms: C_27  and  N_32
                            x       y       z     vdW  Elec       q    Type
                         _______ _______ _______ _____ _____    ______ ____

>  <TORSDO>
F 5

$$$$
=
 OpenBabel11062410363D

 32 38  0  0  1  0  0  0  0  0999 V2000
  162.2290  205.9890  150.4920 C   0  0  1  0  0  3  0  0  0  0  0  0
  160.5780  209.0220  154.0940 C   0  0  0  0  0  0  0  0  0  0  0  0
  158.8030  212.9330  151.7220 C   0  0  0  0  0  2  0  0  0  0  0  0
  158.9570  213.8090  152.9490 C   0  0  0  0  0  2  0  0  0  0  0  0
  161.4820  207.2380  152.9800 C   0  0  0  0  0  0  0  0  0  0  0  0
  161.2030  209.2860  151.7870 N   0  0  0  0  0  0  0  0  0  0  0  0
  162.3020  207.4620  150.7010 C   0  0  0  0  0  2  0  0  0  0  0  0
  160.0780  211.9680  151.6350 C   0  0  0  0  0  2  0  0  0  0  0  0
  160.6640  209.8540  152.9510 C   0  0  0  0  0  0  0  0  0  0  0  0
  160.1920  211.1720  152.9430 C   0  0  0  0  0  0  0  0  0  0  0  0
  159.6680  210.8940  155.3460 C   0  0  0  0  0  0  0  0  0  0  0  0
  161.9570  205.0390  151.7010 C   0  0  1  0  0  3  0  0  0  0  0  0
  161.6010  208.0160  151.8390 C   0  0  0  0  0  0  0  0  0  0  0  0
  161.9300  205.8240  153.0870 C   0  0  0  0  0  2  0  0  0  0  0  0
  160.8410  205.3630  150.7060 C   0  0  2  0  0  3  0  0  0  0  0  0
  158.9970  212.9580  154.1800 C   0  0  0  0  0  2  0  0  0  0  0  0
  159.7390  211.6830  154.1750 C   0  0  0  0  0  0  0  0  0  0  0  0
  160.9840  207.7470  154.0990 N   0  0  0  0  0  0  0  0  0  0  0  0
  160.0750  209.5480  155.3070 C   0  0  0  0  0  0  0  0  0  0  0  0
  160.1790  208.8030  156.5650 C   0  0  0  0  0  3  0  0  0  0  0  0
  161.2530  208.6970  157.2610 N   0  0  0  0  0  2  0  0  0  0  0  0
  160.7450  204.4540  149.3770 C   0  0  0  0  0  2  0  0  0  0  0  0
  161.1000  205.1080  148.0530 C   0  0  0  0  0  0  0  0  0  0  0  0
  160.4520  206.2000  147.6000 O   0  0  0  0  0  1  0  0  0  0  0  0
  161.9520  204.5450  147.3180 O   0  0  0  0  0  0  0  0  0  0  0  0
  158.7340  211.4800  156.4150 C   0  0  0  0  0  2  0  0  0  0  0  0
  155.7660  211.5390  156.3110 C   0  0  0  0  0  0  0  0  0  0  0  0
  156.2570  212.7830  156.6570 C   0  0  0  0  0  0  0  0  0  0  0  0
  155.2930  212.1580  154.9410 C   0  0  0  0  0  2  0  0  0  0  0  0
  155.5130  210.6880  155.0080 C   0  0  0  0  0  2  0  0  0  0  0  0
  156.0210  213.9850  156.9890 O   0  0  0  0  0  0  0  0  0  0  0  0
  157.2230  211.6660  156.3650 N   0  0  0  0  0  0  0  0  0  0  0  0
  1  7  1  1  0  0  0
  1 15  1  0  0  0  0
  1 12  1  0  0  0  0
  2 18  2  0  0  0  0
  2 19  1  0  0  0  0
  3  4  1  0  0  0  0
  4 16  1  0  0  0  0
  5 14  1  0  0  0  0
  5 18  1  0  0  0  0
  6 13  1  0  0  0  0
  6  9  2  0  0  0  0
  7 13  1  0  0  0  0
  8  3  1  0  0  0  0
  8 10  1  0  0  0  0
  9  2  1  0  0  0  0
 10  9  1  0  0  0  0
 10 17  2  0  0  0  0
 11 26  1  0  0  0  0
 12 14  1  1  0  0  0
 13  5  2  0  0  0  0
 15 22  1  6  0  0  0
 15 12  1  0  0  0  0
 17 16  1  0  0  0  0
 17 11  1  0  0  0  0
 19 11  2  0  0  0  0
 19 20  1  0  0  0  0
 20 21  2  0  0  0  0
 23 22  1  0  0  0  0
 24 23  1  0  0  0  0
 25 23  2  0  0  0  0
 27 32  1  0  0  0  0
 27 28  1  0  0  0  0
 28 31  2  0  0  0  0
 29 30  1  0  0  0  0
 29 27  1  0  0  0  0
 30 27  1  0  0  0  0
 32 26  1  0  0  0  0
 32 28  1  0  0  0  0
M  END
>  <MODEL>
3

>  <REMARK>
 VINA RESULT:      -7.5      2.195      9.273
  Name = 
  5 active torsions:
  status: ('A' for Active; 'I' for Inactive)
    1  A    between atoms: C_1  and  C_10
    2  A    between atoms: C_6  and  C_31
    3  A    between atoms: C_10  and  C_24
    4  A    between atoms: C_16  and  C_27
    5  A    between atoms: C_27  and  N_32
                            x       y       z     vdW  Elec       q    Type
                         _______ _______ _______ _____ _____    ______ ____

>  <TORSDO>
F 5

$$$$
=
 OpenBabel11062410363D

 32 38  0  0  1  0  0  0  0  0999 V2000
  162.2000  205.4640  151.6990 C   0  0  1  0  0  3  0  0  0  0  0  0
  160.6610  210.2060  151.9140 C   0  0  0  0  0  0  0  0  0  0  0  0
  161.7800  212.0870  147.5230 C   0  0  0  0  0  2  0  0  0  0  0  0
  161.7770  213.4990  148.0720 C   0  0  0  0  0  2  0  0  0  0  0  0
  161.1090  208.0250  152.4460 C   0  0  0  0  0  0  0  0  0  0  0  0
  162.2060  208.9680  150.5500 N   0  0  0  0  0  0  0  0  0  0  0  0
  162.7850  206.7510  151.2290 C   0  0  0  0  0  2  0  0  0  0  0  0
  162.4580  211.1300  148.6130 C   0  0  0  0  0  2  0  0  0  0  0  0
  161.5340  210.1740  150.7990 C   0  0  0  0  0  0  0  0  0  0  0  0
  161.6970  211.2670  149.9400 C   0  0  0  0  0  0  0  0  0  0  0  0
  160.1900  212.5410  151.4350 C   0  0  0  0  0  0  0  0  0  0  0  0
  161.1000  205.4620  152.8070 C   0  0  1  0  0  3  0  0  0  0  0  0
  161.9860  207.9480  151.3760 C   0  0  0  0  0  0  0  0  0  0  0  0
  160.8460  206.9170  153.4040 C   0  0  0  0  0  2  0  0  0  0  0  0
  160.7210  205.2460  151.3400 C   0  0  2  0  0  3  0  0  0  0  0  0
  160.9640  213.5560  149.3280 C   0  0  0  0  0  2  0  0  0  0  0  0
  161.0440  212.4590  150.3110 C   0  0  0  0  0  0  0  0  0  0  0  0
  160.4640  209.1530  152.7150 N   0  0  0  0  0  0  0  0  0  0  0  0
  159.9810  211.4030  152.2370 C   0  0  0  0  0  0  0  0  0  0  0  0
  159.2530  211.5530  153.5000 C   0  0  0  0  0  3  0  0  0  0  0  0
  159.7990  211.8560  154.6230 N   0  0  0  0  0  2  0  0  0  0  0  0
  160.7990  203.7400  150.7680 C   0  0  0  0  0  2  0  0  0  0  0  0
  160.9270  203.5670  149.2650 C   0  0  0  0  0  0  0  0  0  0  0  0
  160.6230  202.4040  148.6520 O   0  0  0  0  0  1  0  0  0  0  0  0
  161.4310  204.5050  148.5960 O   0  0  0  0  0  0  0  0  0  0  0  0
  159.2410  213.7470  151.3870 C   0  0  0  0  0  2  0  0  0  0  0  0
  156.8720  214.4530  149.7410 C   0  0  0  0  0  0  0  0  0  0  0  0
  157.8210  213.8170  148.9650 C   0  0  0  0  0  0  0  0  0  0  0  0
  155.9480  213.1870  149.5650 C   0  0  0  0  0  2  0  0  0  0  0  0
  155.7120  214.0720  150.7390 C   0  0  0  0  0  2  0  0  0  0  0  0
  158.1790  213.3970  147.8220 O   0  0  0  0  0  0  0  0  0  0  0  0
  158.0830  214.0130  150.4340 N   0  0  0  0  0  0  0  0  0  0  0  0
  1  7  1  6  0  0  0
  1 12  1  0  0  0  0
  2 19  1  0  0  0  0
  2 18  2  0  0  0  0
  3  4  1  0  0  0  0
  3  8  1  0  0  0  0
  4 16  1  0  0  0  0
  5 18  1  0  0  0  0
  5 14  1  0  0  0  0
  6  9  2  0  0  0  0
  6 13  1  0  0  0  0
  7 13  1  0  0  0  0
  8 10  1  0  0  0  0
  9  2  1  0  0  0  0
 10 17  2  0  0  0  0
 10  9  1  0  0  0  0
 11 19  2  0  0  0  0
 12 14  1  6  0  0  0
 13  5  2  0  0  0  0
 15 22  1  1  0  0  0
 15  1  1  0  0  0  0
 15 12  1  0  0  0  0
 16 17  1  0  0  0  0
 17 11  1  0  0  0  0
 19 20  1  0  0  0  0
 20 21  2  0  0  0  0
 23 22  1  0  0  0  0
 24 23  1  0  0  0  0
 25 23  2  0  0  0  0
 26 11  1  0  0  0  0
 27 32  1  0  0  0  0
 27 30  1  0  0  0  0
 28 27  1  0  0  0  0
 28 32  1  0  0  0  0
 29 27  1  0  0  0  0
 29 30  1  0  0  0  0
 31 28  2  0  0  0  0
 32 26  1  0  0  0  0
M  END
>  <MODEL>
4

>  <REMARK>
 VINA RESULT:      -6.5      3.566      8.202
  Name = 
  5 active torsions:
  status: ('A' for Active; 'I' for Inactive)
    1  A    between atoms: C_1  and  C_10
    2  A    between atoms: C_6  and  C_31
    3  A    between atoms: C_10  and  C_24
    4  A    between atoms: C_16  and  C_27
    5  A    between atoms: C_27  and  N_32
                            x       y       z     vdW  Elec       q    Type
                         _______ _______ _______ _____ _____    ______ ____

>  <TORSDO>
F 5

$$$$
=
 OpenBabel11062410363D

 32 38  0  0  1  0  0  0  0  0999 V2000
  158.3710  214.2280  152.9430 C   0  0  1  0  0  3  0  0  0  0  0  0
  160.9870  210.1540  151.7350 C   0  0  0  0  0  0  0  0  0  0  0  0
  160.0240  206.9400  155.3160 C   0  0  0  0  0  2  0  0  0  0  0  0
  161.2960  206.1670  155.0310 C   0  0  0  0  0  2  0  0  0  0  0  0
  160.0580  212.2470  151.7050 C   0  0  0  0  0  0  0  0  0  0  0  0
  159.9940  211.0160  153.7480 N   0  0  0  0  0  0  0  0  0  0  0  0
  159.1880  213.2670  153.7340 C   0  0  0  0  0  2  0  0  0  0  0  0
  160.3490  208.5020  155.1770 C   0  0  0  0  0  2  0  0  0  0  0  0
  160.6570  209.9650  153.1000 C   0  0  0  0  0  0  0  0  0  0  0  0
  160.9260  208.7700  153.7790 C   0  0  0  0  0  0  0  0  0  0  0  0
  162.0390  207.9650  151.7200 C   0  0  0  0  0  0  0  0  0  0  0  0
  158.5760  214.3460  151.4000 C   0  0  1  0  0  3  0  0  0  0  0  0
  159.7280  212.1150  153.0450 C   0  0  0  0  0  0  0  0  0  0  0  0
  159.7980  213.4620  150.8870 C   0  0  0  0  0  2  0  0  0  0  0  0
  157.3710  213.5910  151.9650 C   0  0  2  0  0  3  0  0  0  0  0  0
  161.7540  206.4370  153.6310 C   0  0  0  0  0  2  0  0  0  0  0  0
  161.6640  207.7990  153.0730 C   0  0  0  0  0  0  0  0  0  0  0  0
  160.6940  211.2740  151.0640 N   0  0  0  0  0  0  0  0  0  0  0  0
  161.6870  209.1430  151.0370 C   0  0  0  0  0  0  0  0  0  0  0  0
  162.2470  209.3830  149.7030 C   0  0  0  0  0  3  0  0  0  0  0  0
  161.5910  209.2600  148.6060 N   0  0  0  0  0  2  0  0  0  0  0  0
  156.0550  214.4530  152.3200 C   0  0  0  0  0  2  0  0  0  0  0  0
  155.2830  214.0710  153.5700 C   0  0  0  0  0  0  0  0  0  0  0  0
  155.8950  213.5630  154.6590 O   0  0  0  0  0  1  0  0  0  0  0  0
  154.0270  214.1340  153.5400 O   0  0  0  0  0  0  0  0  0  0  0  0
  162.4020  206.6440  151.0260 C   0  0  0  0  0  2  0  0  0  0  0  0
  160.6970  205.0980  149.1480 C   0  0  0  0  0  0  0  0  0  0  0  0
  161.6160  205.8550  148.4480 C   0  0  0  0  0  0  0  0  0  0  0  0
  161.4660  203.8080  148.6700 C   0  0  0  0  0  2  0  0  0  0  0  0
  160.6340  203.7140  149.9010 C   0  0  0  0  0  2  0  0  0  0  0  0
  162.0760  206.2320  147.3270 O   0  0  0  0  0  0  0  0  0  0  0  0
  161.6320  205.8860  149.9520 N   0  0  0  0  0  0  0  0  0  0  0  0
  1  7  1  1  0  0  0
  2  9  1  0  0  0  0
  4  3  1  0  0  0  0
  5 13  1  0  0  0  0
  8  3  1  0  0  0  0
  9  6  1  0  0  0  0
  9 10  2  0  0  0  0
 10  8  1  0  0  0  0
 11 17  2  0  0  0  0
 12 14  1  1  0  0  0
 12 15  1  0  0  0  0
 12  1  1  0  0  0  0
 13  7  1  0  0  0  0
 13  6  2  0  0  0  0
 14  5  1  0  0  0  0
 15 22  1  6  0  0  0
 15  1  1  0  0  0  0
 16  4  1  0  0  0  0
 17 16  1  0  0  0  0
 17 10  1  0  0  0  0
 18  5  2  0  0  0  0
 18  2  1  0  0  0  0
 19 11  1  0  0  0  0
 19  2  2  0  0  0  0
 20 19  1  0  0  0  0
 21 20  2  0  0  0  0
 22 23  1  0  0  0  0
 23 24  1  0  0  0  0
 25 23  2  0  0  0  0
 26 11  1  0  0  0  0
 27 30  1  0  0  0  0
 27 32  1  0  0  0  0
 28 27  1  0  0  0  0
 28 32  1  0  0  0  0
 29 27  1  0  0  0  0
 29 30  1  0  0  0  0
 31 28  2  0  0  0  0
 32 26  1  0  0  0  0
M  END
>  <MODEL>
5

>  <REMARK>
 VINA RESULT:      -6.1      2.433      3.754
  Name = 
  5 active torsions:
  status: ('A' for Active; 'I' for Inactive)
    1  A    between atoms: C_1  and  C_10
    2  A    between atoms: C_6  and  C_31
    3  A    between atoms: C_10  and  C_24
    4  A    between atoms: C_16  and  C_27
    5  A    between atoms: C_27  and  N_32
                            x       y       z     vdW  Elec       q    Type
                         _______ _______ _______ _____ _____    ______ ____

>  <TORSDO>
F 5

$$$$
=
 OpenBabel11062410363D

 32 38  0  0  1  0  0  0  0  0999 V2000
  160.4360  214.2040  147.9290 C   0  0  1  0  0  3  0  0  0  0  0  0
  161.9150  209.7840  149.7110 C   0  0  0  0  0  0  0  0  0  0  0  0
  159.8770  209.4850  154.1650 C   0  0  0  0  0  2  0  0  0  0  0  0
  160.9060  208.4700  154.6210 C   0  0  0  0  0  2  0  0  0  0  0  0
  161.5970  211.6010  148.3550 C   0  0  0  0  0  0  0  0  0  0  0  0
  161.0640  211.8190  150.6700 N   0  0  0  0  0  0  0  0  0  0  0  0
  160.9060  213.7470  149.2660 C   0  0  0  0  0  2  0  0  0  0  0  0
  160.6240  210.5850  153.2720 C   0  0  0  0  0  2  0  0  0  0  0  0
  161.4560  210.4850  150.8540 C   0  0  0  0  0  0  0  0  0  0  0  0
  161.3440  209.8800  152.1120 C   0  0  0  0  0  0  0  0  0  0  0  0
  162.3280  207.8420  151.1100 C   0  0  0  0  0  0  0  0  0  0  0  0
  160.7670  213.3660  146.6540 C   0  0  1  0  0  3  0  0  0  0  0  0
  161.1550  212.3340  149.4450 C   0  0  0  0  0  0  0  0  0  0  0  0
  161.7320  212.1400  146.9750 C   0  0  0  0  0  2  0  0  0  0  0  0
  159.3670  213.3180  147.2700 C   0  0  2  0  0  3  0  0  0  0  0  0
  161.5110  207.7890  153.4340 C   0  0  0  0  0  2  0  0  0  0  0  0
  161.8330  208.5630  152.2210 C   0  0  0  0  0  0  0  0  0  0  0  0
  161.9840  210.3400  148.4960 N   0  0  0  0  0  0  0  0  0  0  0  0
  162.3570  208.4470  149.8400 C   0  0  0  0  0  0  0  0  0  0  0  0
  163.0480  207.7610  148.7450 C   0  0  0  0  0  3  0  0  0  0  0  0
  162.4600  207.0820  147.8260 N   0  0  0  0  0  2  0  0  0  0  0  0
  158.3160  214.4530  146.8130 C   0  0  0  0  0  2  0  0  0  0  0  0
  156.8660  214.2740  147.2280 C   0  0  0  0  0  0  0  0  0  0  0  0
  156.5250  213.8450  148.4600 O   0  0  0  0  0  1  0  0  0  0  0  0
  155.9720  214.4300  146.3580 O   0  0  0  0  0  0  0  0  0  0  0  0
  162.3620  206.3240  151.3410 C   0  0  0  0  0  2  0  0  0  0  0  0
  160.2430  204.3130  150.8050 C   0  0  0  0  0  0  0  0  0  0  0  0
  160.8850  204.6560  149.6310 C   0  0  0  0  0  0  0  0  0  0  0  0
  160.8880  202.8790  150.6830 C   0  0  0  0  0  2  0  0  0  0  0  0
  160.4590  203.3430  152.0300 C   0  0  0  0  0  2  0  0  0  0  0  0
  160.9790  204.5250  148.3720 O   0  0  0  0  0  0  0  0  0  0  0  0
  161.3400  205.2730  150.9260 N   0  0  0  0  0  0  0  0  0  0  0  0
  1  7  1  1  0  0  0
  2 19  2  0  0  0  0
  2  9  1  0  0  0  0
  3  4  1  0  0  0  0
  5 18  2  0  0  0  0
  5 13  1  0  0  0  0
  6  9  1  0  0  0  0
  7 13  1  0  0  0  0
  8  3  1  0  0  0  0
  9 10  2  0  0  0  0
 10 17  1  0  0  0  0
 10  8  1  0  0  0  0
 11 26  1  0  0  0  0
 11 17  2  0  0  0  0
 12 14  1  1  0  0  0
 12 15  1  0  0  0  0
 12  1  1  0  0  0  0
 13  6  2  0  0  0  0
 14  5  1  0  0  0  0
 15 22  1  6  0  0  0
 15  1  1  0  0  0  0
 16  4  1  0  0  0  0
 17 16  1  0  0  0  0
 18  2  1  0  0  0  0
 19 11  1  0  0  0  0
 20 19  1  0  0  0  0
 21 20  2  0  0  0  0
 22 23  1  0  0  0  0
 23 24  1  0  0  0  0
 25 23  2  0  0  0  0
 27 32  1  0  0  0  0
 27 30  1  0  0  0  0
 28 27  1  0  0  0  0
 28 32  1  0  0  0  0
 29 27  1  0  0  0  0
 29 30  1  0  0  0  0
 31 28  2  0  0  0  0
 32 26  1  0  0  0  0
M  END
>  <MODEL>
6

>  <REMARK>
 VINA RESULT:      -6.1      3.774      5.873
  Name = 
  5 active torsions:
  status: ('A' for Active; 'I' for Inactive)
    1  A    between atoms: C_1  and  C_10
    2  A    between atoms: C_6  and  C_31
    3  A    between atoms: C_10  and  C_24
    4  A    between atoms: C_16  and  C_27
    5  A    between atoms: C_27  and  N_32
                            x       y       z     vdW  Elec       q    Type
                         _______ _______ _______ _____ _____    ______ ____

>  <TORSDO>
F 5

$$$$
=
 OpenBabel11062410363D

 32 38  0  0  1  0  0  0  0  0999 V2000
  162.2980  204.1190  146.6240 C   0  0  1  0  0  3  0  0  0  0  0  0
  161.4440  207.2520  150.4130 C   0  0  0  0  0  0  0  0  0  0  0  0
  161.4050  211.7110  148.3670 C   0  0  0  0  0  2  0  0  0  0  0  0
  161.7260  212.3750  149.6910 C   0  0  0  0  0  2  0  0  0  0  0  0
  161.7800  205.3550  149.1750 C   0  0  0  0  0  0  0  0  0  0  0  0
  162.3590  207.4530  148.1990 N   0  0  0  0  0  0  0  0  0  0  0  0
  162.8590  205.4480  146.9980 C   0  0  0  0  0  2  0  0  0  0  0  0
  162.2650  210.3640  148.2630 C   0  0  0  0  0  2  0  0  0  0  0  0
  161.9340  208.0840  149.3770 C   0  0  0  0  0  0  0  0  0  0  0  0
  161.9560  209.4800  149.4810 C   0  0  0  0  0  0  0  0  0  0  0  0
  161.1200  209.2220  151.7960 C   0  0  0  0  0  0  0  0  0  0  0  0
  161.5880  203.2390  147.6990 C   0  0  1  0  0  3  0  0  0  0  0  0
  162.2820  206.1250  148.1380 C   0  0  0  0  0  0  0  0  0  0  0  0
  161.6910  203.8700  149.1580 C   0  0  0  0  0  2  0  0  0  0  0  0
  160.7650  204.0160  146.6700 C   0  0  2  0  0  3  0  0  0  0  0  0
  161.3380  211.4740  150.8210 C   0  0  0  0  0  2  0  0  0  0  0  0
  161.5840  210.0220  150.7270 C   0  0  0  0  0  0  0  0  0  0  0  0
  161.3770  205.9200  150.3070 N   0  0  0  0  0  0  0  0  0  0  0  0
  161.0330  207.8270  151.6380 C   0  0  0  0  0  0  0  0  0  0  0  0
  160.7380  206.9980  152.8110 C   0  0  0  0  0  3  0  0  0  0  0  0
  161.5720  206.7530  153.7560 N   0  0  0  0  0  2  0  0  0  0  0  0
  160.4970  203.3090  145.2460 C   0  0  0  0  0  2  0  0  0  0  0  0
  160.1230  201.8370  145.2540 C   0  0  0  0  0  0  0  0  0  0  0  0
  160.8370  200.9230  145.9410 O   0  0  0  0  0  1  0  0  0  0  0  0
  159.1830  201.4550  144.5100 O   0  0  0  0  0  0  0  0  0  0  0  0
  160.3440  210.0180  152.8560 C   0  0  0  0  0  2  0  0  0  0  0  0
  161.0440  210.5500  155.6930 C   0  0  0  0  0  0  0  0  0  0  0  0
  160.0940  209.5510  155.6140 C   0  0  0  0  0  0  0  0  0  0  0  0
  162.0720  209.4670  156.1990 C   0  0  0  0  0  2  0  0  0  0  0  0
  162.6090  210.7050  155.5720 C   0  0  0  0  0  2  0  0  0  0  0  0
  159.3290  208.7360  156.2150 O   0  0  0  0  0  0  0  0  0  0  0  0
  160.6300  210.1570  154.3450 N   0  0  0  0  0  0  0  0  0  0  0  0
  1 15  1  0  0  0  0
  1  7  1  1  0  0  0
  1 12  1  0  0  0  0
  2 19  1  0  0  0  0
  3  4  1  0  0  0  0
  4 16  1  0  0  0  0
  5 18  1  0  0  0  0
  6  9  2  0  0  0  0
  7 13  1  0  0  0  0
  8  3  1  0  0  0  0
  8 10  1  0  0  0  0
  9 10  1  0  0  0  0
  9  2  1  0  0  0  0
 10 17  2  0  0  0  0
 11 26  1  0  0  0  0
 12 14  1  1  0  0  0
 13  6  1  0  0  0  0
 13  5  2  0  0  0  0
 14  5  1  0  0  0  0
 15 22  1  6  0  0  0
 15 12  1  0  0  0  0
 17 16  1  0  0  0  0
 17 11  1  0  0  0  0
 18  2  2  0  0  0  0
 19 11  2  0  0  0  0
 19 20  1  0  0  0  0
 20 21  2  0  0  0  0
 22 23  1  0  0  0  0
 23 24  1  0  0  0  0
 25 23  2  0  0  0  0
 26 32  1  0  0  0  0
 27 29  1  0  0  0  0
 28 27  1  0  0  0  0
 28 31  2  0  0  0  0
 30 27  1  0  0  0  0
 30 29  1  0  0  0  0
 32 28  1  0  0  0  0
 32 27  1  0  0  0  0
M  END
>  <MODEL>
7

>  <REMARK>
 VINA RESULT:      -6.0      2.351      9.224
  Name = 
  5 active torsions:
  status: ('A' for Active; 'I' for Inactive)
    1  A    between atoms: C_1  and  C_10
    2  A    between atoms: C_6  and  C_31
    3  A    between atoms: C_10  and  C_24
    4  A    between atoms: C_16  and  C_27
    5  A    between atoms: C_27  and  N_32
                            x       y       z     vdW  Elec       q    Type
                         _______ _______ _______ _____ _____    ______ ____

>  <TORSDO>
F 5

$$$$
