=
 OpenBabel11052421513D

 30 35  0  0  1  0  0  0  0  0999 V2000
  160.4710  211.0560  153.0480 C   0  0  0  0  0  0  0  0  0  0  0  0
  161.0460  208.6210  153.3060 C   0  0  0  0  0  0  0  0  0  0  0  0
  159.1980  210.0750  157.2580 C   0  0  0  0  0  2  0  0  0  0  0  0
  159.8530  212.1570  153.6530 O   0  0  0  0  0  0  0  0  0  0  0  0
  160.8290  211.1490  151.8020 N   0  0  0  0  0  0  0  0  0  0  0  0
  159.1050  214.3460  150.6600 C   0  0  0  0  0  2  0  0  0  0  0  0
  157.4770  213.6870  155.6100 C   0  0  2  0  0  3  0  0  0  0  0  0
  159.2870  213.0140  151.3900 C   0  0  1  0  0  3  0  0  0  0  0  0
  160.8270  212.2010  149.5880 C   0  0  0  0  0  2  0  0  0  0  0  0
  157.3390  212.3540  155.0370 N   0  0  2  0  0  0  0  0  0  0  0  0
  158.5740  211.4450  157.1160 C   0  0  1  0  0  3  0  0  0  0  0  0
  160.6630  212.4120  151.0880 C   0  0  2  0  0  3  0  0  0  0  0  0
  159.0080  213.0470  152.9100 C   0  0  2  0  0  3  0  0  0  0  0  0
  161.4580  207.5050  154.1830 C   0  0  0  0  0  3  0  0  0  0  0  0
  155.9440  212.2460  154.6130 C   0  0  0  0  0  2  0  0  0  0  0  0
  156.2420  214.4530  155.2300 C   0  0  0  0  0  2  0  0  0  0  0  0
  159.2870  214.1400  149.1580 C   0  0  0  0  0  2  0  0  0  0  0  0
  161.0080  208.3500  151.8390 C   0  0  0  0  0  1  0  0  0  0  0  0
  159.3200  209.5040  155.9160 N   0  0  1  0  0  0  0  0  0  0  0  0
  161.7630  207.7210  155.4650 C   0  0  0  0  0  3  0  0  0  0  0  0
  160.6590  213.5340  148.8590 C   0  0  0  0  0  2  0  0  0  0  0  0
  160.7240  209.8240  153.8470 C   0  0  0  0  0  0  0  0  0  0  0  0
  158.2010  210.0750  155.1610 C   0  0  0  0  0  2  0  0  0  0  0  0
  159.5970  212.3430  156.8090 O   0  0  0  0  0  1  0  0  0  0  0  0
  157.6070  211.2320  155.9510 C   0  0  2  0  0  3  0  0  0  0  0  0
  155.2210  213.4620  154.9660 N   0  0  0  0  0  2  0  0  0  0  0  0
  158.9110  214.4340  153.5580 C   0  0  0  0  0  2  0  0  0  0  0  0
  161.7530  209.1190  156.0130 C   0  0  0  0  0  2  0  0  0  0  0  0
  160.6240  209.9380  155.3670 C   0  0  2  0  0  3  0  0  0  0  0  0
  158.7430  214.3880  155.0860 C   0  0  0  0  0  2  0  0  0  0  0  0
  1  4  1  0  0  0  0
  1 22  1  0  0  0  0
  2 22  2  0  0  0  0
  2 14  1  0  0  0  0
  5  1  2  0  0  0  0
  7 30  1  6  0  0  0
  8  6  1  1  0  0  0
  8 13  1  0  0  0  0
 10 15  1  1  0  0  0
 10  7  1  0  0  0  0
 10 25  1  0  0  0  0
 11 24  1  6  0  0  0
 11  3  1  0  0  0  0
 12  9  1  6  0  0  0
 12  8  1  0  0  0  0
 12  5  1  0  0  0  0
 13 27  1  1  0  0  0
 13  4  1  0  0  0  0
 14 20  2  0  0  0  0
 15 26  1  0  0  0  0
 16  7  1  0  0  0  0
 17  6  1  0  0  0  0
 18  2  1  0  0  0  0
 19 23  1  6  0  0  0
 19  3  1  0  0  0  0
 20 28  1  0  0  0  0
 21 17  1  0  0  0  0
 21  9  1  0  0  0  0
 22 29  1  0  0  0  0
 25 23  1  6  0  0  0
 25 11  1  0  0  0  0
 26 16  1  0  0  0  0
 27 30  1  0  0  0  0
 29 19  1  0  0  0  0
 29 28  1  1  0  0  0
M  END
>  <MODEL>
1

>  <REMARK>
 VINA RESULT:      -4.1      0.000      0.000
  Name = 
  0 active torsions:
  status: ('A' for Active; 'I' for Inactive)
                            x       y       z     vdW  Elec       q    Type
                         _______ _______ _______ _____ _____    ______ ____

>  <TORSDO>
F 0

$$$$
=
 OpenBabel11052421513D

 30 35  0  0  1  0  0  0  0  0999 V2000
  160.0810  210.7180  152.0530 C   0  0  0  0  0  0  0  0  0  0  0  0
  159.7150  213.1270  151.4320 C   0  0  0  0  0  0  0  0  0  0  0  0
  158.5260  212.5960  155.8420 C   0  0  0  0  0  2  0  0  0  0  0  0
  160.0720  209.7920  153.1020 O   0  0  0  0  0  0  0  0  0  0  0  0
  160.5750  210.3560  150.9070 N   0  0  0  0  0  0  0  0  0  0  0  0
  162.3090  207.0670  151.7300 C   0  0  0  0  0  2  0  0  0  0  0  0
  160.5340  208.7980  156.3610 C   0  0  2  0  0  3  0  0  0  0  0  0
  161.8420  208.5120  151.9170 C   0  0  1  0  0  3  0  0  0  0  0  0
  161.8600  208.8720  149.4370 C   0  0  0  0  0  2  0  0  0  0  0  0
  161.1300  209.9890  155.7700 N   0  0  2  0  0  0  0  0  0  0  0  0
  158.9630  211.2530  156.3840 C   0  0  1  0  0  3  0  0  0  0  0  0
  161.0260  208.9820  150.7080 C   0  0  2  0  0  3  0  0  0  0  0  0
  161.1030  208.8040  153.2430 C   0  0  2  0  0  3  0  0  0  0  0  0
  158.9570  214.3820  151.6240 C   0  0  0  0  0  3  0  0  0  0  0  0
  162.4850  210.0660  156.3130 C   0  0  0  0  0  2  0  0  0  0  0  0
  161.6510  208.0220  156.9980 C   0  0  0  0  0  2  0  0  0  0  0  0
  163.1290  206.9530  150.4470 C   0  0  0  0  0  2  0  0  0  0  0  0
  160.6890  213.0930  150.3020 C   0  0  0  0  0  1  0  0  0  0  0  0
  159.3280  212.8730  154.6500 N   0  0  1  0  0  0  0  0  0  0  0  0
  157.8970  214.4210  152.4350 C   0  0  0  0  0  3  0  0  0  0  0  0
  162.3150  207.4260  149.2420 C   0  0  0  0  0  2  0  0  0  0  0  0
  159.5060  212.0760  152.2650 C   0  0  0  0  0  0  0  0  0  0  0  0
  160.6100  212.2060  154.8960 C   0  0  0  0  0  2  0  0  0  0  0  0
  158.2760  210.2690  155.6730 O   0  0  0  0  0  1  0  0  0  0  0  0
  160.4610  211.2630  156.0800 C   0  0  2  0  0  3  0  0  0  0  0  0
  162.7040  208.9800  157.2610 N   0  0  0  0  0  2  0  0  0  0  0  0
  160.6360  207.5850  154.0490 C   0  0  0  0  0  2  0  0  0  0  0  0
  157.4230  213.1670  153.1130 C   0  0  0  0  0  2  0  0  0  0  0  0
  158.6200  212.2810  153.4930 C   0  0  2  0  0  3  0  0  0  0  0  0
  159.8130  207.9510  155.2950 C   0  0  0  0  0  2  0  0  0  0  0  0
  1 22  1  0  0  0  0
  1  4  1  0  0  0  0
  2 14  1  0  0  0  0
  2 22  2  0  0  0  0
  3 11  1  0  0  0  0
  4 13  1  0  0  0  0
  5  1  2  0  0  0  0
  7 30  1  6  0  0  0
  7 16  1  0  0  0  0
  8  6  1  6  0  0  0
  8 13  1  0  0  0  0
 10 25  1  0  0  0  0
 10 15  1  1  0  0  0
 10  7  1  0  0  0  0
 11 24  1  6  0  0  0
 12  9  1  6  0  0  0
 12  5  1  0  0  0  0
 12  8  1  0  0  0  0
 13 27  1  6  0  0  0
 14 20  2  0  0  0  0
 15 26  1  0  0  0  0
 16 26  1  0  0  0  0
 17  6  1  0  0  0  0
 18  2  1  0  0  0  0
 19 23  1  1  0  0  0
 19  3  1  0  0  0  0
 20 28  1  0  0  0  0
 21  9  1  0  0  0  0
 21 17  1  0  0  0  0
 22 29  1  0  0  0  0
 25 23  1  6  0  0  0
 25 11  1  0  0  0  0
 27 30  1  0  0  0  0
 29 28  1  6  0  0  0
 29 19  1  0  0  0  0
M  END
>  <MODEL>
2

>  <REMARK>
 VINA RESULT:      -4.0      1.804      5.482
  Name = 
  0 active torsions:
  status: ('A' for Active; 'I' for Inactive)
                            x       y       z     vdW  Elec       q    Type
                         _______ _______ _______ _____ _____    ______ ____

>  <TORSDO>
F 0

$$$$
=
 OpenBabel11052421513D

 30 35  0  0  1  0  0  0  0  0999 V2000
  160.4710  209.5160  151.6150 C   0  0  0  0  0  0  0  0  0  0  0  0
  160.8320  211.6950  150.4100 C   0  0  0  0  0  0  0  0  0  0  0  0
  159.5520  212.6470  154.7230 C   0  0  0  0  0  2  0  0  0  0  0  0
  160.1910  208.9250  152.8520 O   0  0  0  0  0  0  0  0  0  0  0  0
  160.8320  208.7540  150.6260 N   0  0  0  0  0  0  0  0  0  0  0  0
  161.5170  205.4210  152.3350 C   0  0  0  0  0  2  0  0  0  0  0  0
  160.3470  208.6870  156.2770 C   0  0  2  0  0  3  0  0  0  0  0  0
  161.4990  206.9370  152.1370 C   0  0  1  0  0  3  0  0  0  0  0  0
  161.6160  206.6450  149.6500 C   0  0  0  0  0  2  0  0  0  0  0  0
  161.2670  209.4690  155.4630 N   0  0  2  0  0  0  0  0  0  0  0  0
  159.5730  211.4150  155.6010 C   0  0  1  0  0  3  0  0  0  0  0  0
  160.8560  207.3040  150.7960 C   0  0  2  0  0  3  0  0  0  0  0  0
  160.8840  207.7510  153.2980 C   0  0  2  0  0  3  0  0  0  0  0  0
  160.4800  213.1210  150.2420 C   0  0  0  0  0  3  0  0  0  0  0  0
  162.5860  209.2880  156.0670 C   0  0  0  0  0  2  0  0  0  0  0  0
  161.1860  207.8080  157.1600 C   0  0  0  0  0  2  0  0  0  0  0  0
  162.2630  204.7580  151.1780 C   0  0  0  0  0  2  0  0  0  0  0  0
  161.7500  211.1010  149.3940 C   0  0  0  0  0  1  0  0  0  0  0  0
  160.3970  212.3750  153.5600 N   0  0  1  0  0  0  0  0  0  0  0  0
  159.4810  213.6640  150.9420 C   0  0  0  0  0  3  0  0  0  0  0  0
  161.6220  205.1290  149.8410 C   0  0  0  0  0  2  0  0  0  0  0  0
  160.3240  210.9910  151.4540 C   0  0  0  0  0  0  0  0  0  0  0  0
  161.4250  211.4510  154.0480 C   0  0  0  0  0  2  0  0  0  0  0  0
  158.6230  210.5240  155.0980 O   0  0  0  0  0  1  0  0  0  0  0  0
  161.0060  210.9180  155.4110 C   0  0  2  0  0  3  0  0  0  0  0  0
  162.4760  208.4570  157.2610 N   0  0  0  0  0  2  0  0  0  0  0  0
  160.0790  206.9590  154.3370 C   0  0  0  0  0  2  0  0  0  0  0  0
  158.6600  212.8100  151.8650 C   0  0  0  0  0  2  0  0  0  0  0  0
  159.5420  211.7420  152.5300 C   0  0  2  0  0  3  0  0  0  0  0  0
  159.4050  207.8450  155.3970 C   0  0  0  0  0  2  0  0  0  0  0  0
  1  4  1  0  0  0  0
  2 22  2  0  0  0  0
  3 11  1  0  0  0  0
  4 13  1  0  0  0  0
  5 12  1  0  0  0  0
  5  1  2  0  0  0  0
  7 30  1  6  0  0  0
  7 16  1  0  0  0  0
  8  6  1  1  0  0  0
  8 13  1  0  0  0  0
  9 21  1  0  0  0  0
 10 15  1  1  0  0  0
 10  7  1  0  0  0  0
 11 24  1  6  0  0  0
 12  9  1  6  0  0  0
 12  8  1  0  0  0  0
 13 27  1  6  0  0  0
 14  2  1  0  0  0  0
 14 20  2  0  0  0  0
 15 26  1  0  0  0  0
 16 26  1  0  0  0  0
 17  6  1  0  0  0  0
 18  2  1  0  0  0  0
 19 23  1  1  0  0  0
 19  3  1  0  0  0  0
 20 28  1  0  0  0  0
 21 17  1  0  0  0  0
 22  1  1  0  0  0  0
 22 29  1  0  0  0  0
 25 23  1  6  0  0  0
 25 10  1  0  0  0  0
 25 11  1  0  0  0  0
 27 30  1  0  0  0  0
 29 28  1  6  0  0  0
 29 19  1  0  0  0  0
M  END
>  <MODEL>
3

>  <REMARK>
 VINA RESULT:      -2.5      2.201      5.918
  Name = 
  0 active torsions:
  status: ('A' for Active; 'I' for Inactive)
                            x       y       z     vdW  Elec       q    Type
                         _______ _______ _______ _____ _____    ______ ____

>  <TORSDO>
F 0

$$$$
=
 OpenBabel11052421513D

 30 35  0  0  1  0  0  0  0  0999 V2000
  161.6010  203.5460  149.6330 C   0  0  0  0  0  0  0  0  0  0  0  0
  160.7660  204.1340  151.9310 C   0  0  0  0  0  0  0  0  0  0  0  0
  161.8310  208.0440  149.7590 C   0  0  0  0  0  2  0  0  0  0  0  0
  162.0100  204.0600  148.3980 O   0  0  0  0  0  0  0  0  0  0  0  0
  161.4090  202.2650  149.7430 N   0  0  0  0  0  0  0  0  0  0  0  0
  161.4780  201.0840  146.1240 C   0  0  0  0  0  2  0  0  0  0  0  0
  161.9280  206.3070  145.7970 C   0  0  2  0  0  3  0  0  0  0  0  0
  161.1630  201.9890  147.3160 C   0  0  1  0  0  3  0  0  0  0  0  0
  161.1000  200.0040  148.8450 C   0  0  0  0  0  2  0  0  0  0  0  0
  160.8550  206.1280  146.7660 N   0  0  2  0  0  0  0  0  0  0  0  0
  162.0840  207.8180  148.2850 C   0  0  1  0  0  3  0  0  0  0  0  0
  161.7040  201.3850  148.6160 C   0  0  2  0  0  3  0  0  0  0  0  0
  161.5920  203.4650  147.1610 C   0  0  2  0  0  3  0  0  0  0  0  0
  160.7970  205.0470  153.0930 C   0  0  0  0  0  3  0  0  0  0  0  0
  159.6110  206.2340  146.0050 C   0  0  0  0  0  2  0  0  0  0  0  0
  161.3060  206.2030  144.4340 C   0  0  0  0  0  2  0  0  0  0  0  0
  160.8880  199.6950  146.3610 C   0  0  0  0  0  2  0  0  0  0  0  0
  159.9950  202.8660  152.0900 C   0  0  0  0  0  1  0  0  0  0  0  0
  161.0590  206.9040  150.2550 N   0  0  1  0  0  0  0  0  0  0  0  0
  161.6570  206.0690  153.1360 C   0  0  0  0  0  3  0  0  0  0  0  0
  161.4260  199.0960  147.6600 C   0  0  0  0  0  2  0  0  0  0  0  0
  161.4210  204.4680  150.7900 C   0  0  0  0  0  0  0  0  0  0  0  0
  160.2600  206.4620  149.1080 C   0  0  0  0  0  2  0  0  0  0  0  0
  163.2020  206.9910  148.1730 O   0  0  0  0  0  1  0  0  0  0  0  0
  160.7930  207.1260  147.8470 C   0  0  2  0  0  3  0  0  0  0  0  0
  159.9060  206.5270  144.6070 N   0  0  0  0  0  2  0  0  0  0  0  0
  162.5570  203.7800  146.0090 C   0  0  0  0  0  2  0  0  0  0  0  0
  162.6500  206.2600  152.0250 C   0  0  0  0  0  2  0  0  0  0  0  0
  162.0260  205.8660  150.6770 C   0  0  2  0  0  3  0  0  0  0  0  0
  163.0260  205.2440  145.9830 C   0  0  0  0  0  2  0  0  0  0  0  0
  1  5  2  0  0  0  0
  1 22  1  0  0  0  0
  2 18  1  0  0  0  0
  2 14  1  0  0  0  0
  3 19  1  0  0  0  0
  4  1  1  0  0  0  0
  6 17  1  0  0  0  0
  7 16  1  6  0  0  0
  7 30  1  0  0  0  0
  7 10  1  0  0  0  0
  8  6  1  6  0  0  0
  8 12  1  0  0  0  0
 10 15  1  6  0  0  0
 10 25  1  0  0  0  0
 11 24  1  1  0  0  0
 11  3  1  0  0  0  0
 12  9  1  1  0  0  0
 12  5  1  0  0  0  0
 13 27  1  6  0  0  0
 13  8  1  0  0  0  0
 13  4  1  0  0  0  0
 14 20  2  0  0  0  0
 16 26  1  0  0  0  0
 17 21  1  0  0  0  0
 19 23  1  6  0  0  0
 19 29  1  0  0  0  0
 21  9  1  0  0  0  0
 22  2  2  0  0  0  0
 25 11  1  0  0  0  0
 25 23  1  1  0  0  0
 26 15  1  0  0  0  0
 28 20  1  0  0  0  0
 29 22  1  0  0  0  0
 29 28  1  1  0  0  0
 30 27  1  0  0  0  0
M  END
>  <MODEL>
4

>  <REMARK>
 VINA RESULT:      -1.3      6.694     10.412
  Name = 
  0 active torsions:
  status: ('A' for Active; 'I' for Inactive)
                            x       y       z     vdW  Elec       q    Type
                         _______ _______ _______ _____ _____    ______ ____

>  <TORSDO>
F 0

$$$$
=
 OpenBabel11052421513D

 30 35  0  0  1  0  0  0  0  0999 V2000
  160.6900  210.2340  152.8840 C   0  0  0  0  0  0  0  0  0  0  0  0
  160.9150  207.7410  152.6350 C   0  0  0  0  0  0  0  0  0  0  0  0
  159.7940  208.6420  157.0030 C   0  0  0  0  0  2  0  0  0  0  0  0
  160.3240  211.2690  153.7510 O   0  0  0  0  0  0  0  0  0  0  0  0
  160.9070  210.5150  151.6340 N   0  0  0  0  0  0  0  0  0  0  0  0
  159.5660  214.0640  151.3180 C   0  0  0  0  0  2  0  0  0  0  0  0
  158.4580  212.6910  156.2650 C   0  0  2  0  0  3  0  0  0  0  0  0
  159.6290  212.6060  151.7750 C   0  0  1  0  0  3  0  0  0  0  0  0
  160.8020  211.9600  149.6560 C   0  0  0  0  0  2  0  0  0  0  0  0
  158.0530  211.5200  155.4980 N   0  0  2  0  0  0  0  0  0  0  0  0
  159.3730  210.0820  157.1900 C   0  0  1  0  0  3  0  0  0  0  0  0
  160.8510  211.9010  151.1780 C   0  0  2  0  0  3  0  0  0  0  0  0
  159.5420  212.3850  153.3020 C   0  0  2  0  0  3  0  0  0  0  0  0
  161.2540  206.4350  153.2390 C   0  0  0  0  0  3  0  0  0  0  0  0
  156.6170  211.6730  155.2690 C   0  0  0  0  0  2  0  0  0  0  0  0
  157.3180  213.6670  156.2050 C   0  0  0  0  0  2  0  0  0  0  0  0
  159.5340  214.1260  149.7920 C   0  0  0  0  0  2  0  0  0  0  0  0
  160.6620  207.7600  151.1640 C   0  0  0  0  0  1  0  0  0  0  0  0
  159.6670  208.3250  155.5800 N   0  0  1  0  0  0  0  0  0  0  0  0
  161.7390  206.3630  154.4810 C   0  0  0  0  0  3  0  0  0  0  0  0
  160.7520  213.4170  149.1980 C   0  0  0  0  0  2  0  0  0  0  0  0
  160.8470  208.8500  153.4150 C   0  0  0  0  0  0  0  0  0  0  0  0
  158.5660  209.1680  155.1040 C   0  0  0  0  0  2  0  0  0  0  0  0
  160.4770  210.8840  156.8960 O   0  0  0  0  0  1  0  0  0  0  0  0
  158.2540  210.2190  156.1580 C   0  0  2  0  0  3  0  0  0  0  0  0
  156.1340  212.8830  155.9250 N   0  0  0  0  0  2  0  0  0  0  0  0
  159.7340  213.6250  154.1850 C   0  0  0  0  0  2  0  0  0  0  0  0
  162.0080  207.6210  155.2560 C   0  0  0  0  0  2  0  0  0  0  0  0
  160.9470  208.6850  154.9310 C   0  0  2  0  0  3  0  0  0  0  0  0
  159.7450  213.3110  155.6900 C   0  0  0  0  0  2  0  0  0  0  0  0
  1 22  1  0  0  0  0
  1  4  1  0  0  0  0
  2 14  1  0  0  0  0
  2 22  2  0  0  0  0
  3 11  1  0  0  0  0
  5  1  2  0  0  0  0
  7 30  1  6  0  0  0
  8  6  1  1  0  0  0
  8 13  1  0  0  0  0
 10 15  1  1  0  0  0
 10 25  1  0  0  0  0
 10  7  1  0  0  0  0
 11 24  1  6  0  0  0
 12  9  1  6  0  0  0
 12  5  1  0  0  0  0
 12  8  1  0  0  0  0
 13  4  1  0  0  0  0
 13 27  1  1  0  0  0
 14 20  2  0  0  0  0
 15 26  1  0  0  0  0
 16  7  1  0  0  0  0
 17  6  1  0  0  0  0
 18  2  1  0  0  0  0
 19 23  1  6  0  0  0
 19  3  1  0  0  0  0
 20 28  1  0  0  0  0
 21  9  1  0  0  0  0
 21 17  1  0  0  0  0
 22 29  1  0  0  0  0
 25 23  1  6  0  0  0
 25 11  1  0  0  0  0
 26 16  1  0  0  0  0
 27 30  1  0  0  0  0
 29 28  1  6  0  0  0
 29 19  1  0  0  0  0
M  END
>  <MODEL>
5

>  <REMARK>
 VINA RESULT:      -1.3      1.065      1.214
  Name = 
  0 active torsions:
  status: ('A' for Active; 'I' for Inactive)
                            x       y       z     vdW  Elec       q    Type
                         _______ _______ _______ _____ _____    ______ ____

>  <TORSDO>
F 0

$$$$
=
 OpenBabel11052421513D

 30 35  0  0  1  0  0  0  0  0999 V2000
  160.8410  210.4540  152.7740 C   0  0  0  0  0  0  0  0  0  0  0  0
  159.9810  209.6920  155.0120 C   0  0  0  0  0  0  0  0  0  0  0  0
  158.4820  213.9790  154.2950 C   0  0  0  0  0  2  0  0  0  0  0  0
  160.7980  211.4760  151.8200 O   0  0  0  0  0  0  0  0  0  0  0  0
  161.4190  209.3330  152.4620 N   0  0  0  0  0  0  0  0  0  0  0  0
  161.8960  209.6440  148.6970 C   0  0  0  0  0  2  0  0  0  0  0  0
  159.2740  213.9920  150.0410 C   0  0  2  0  0  3  0  0  0  0  0  0
  161.2060  209.7730  150.0570 C   0  0  1  0  0  3  0  0  0  0  0  0
  162.3880  207.7240  150.8860 C   0  0  0  0  0  2  0  0  0  0  0  0
  158.5630  212.9430  150.7590 N   0  0  2  0  0  0  0  0  0  0  0  0
  158.7150  214.4250  152.8690 C   0  0  1  0  0  3  0  0  0  0  0  0
  162.0830  209.1900  151.1700 C   0  0  2  0  0  3  0  0  0  0  0  0
  160.7080  211.1910  150.4170 C   0  0  2  0  0  3  0  0  0  0  0  0
  159.5680  210.0300  156.3900 C   0  0  0  0  0  3  0  0  0  0  0  0
  157.4300  212.5780  149.9100 C   0  0  0  0  0  2  0  0  0  0  0  0
  158.7280  214.0100  148.6420 C   0  0  0  0  0  2  0  0  0  0  0  0
  162.2180  208.1770  148.4200 C   0  0  0  0  0  2  0  0  0  0  0  0
  160.0810  208.2410  154.6730 C   0  0  0  0  0  1  0  0  0  0  0  0
  158.5310  212.5170  154.3140 N   0  0  1  0  0  0  0  0  0  0  0  0
  159.6960  211.2750  156.8550 C   0  0  0  0  0  3  0  0  0  0  0  0
  163.0900  207.5960  149.5340 C   0  0  0  0  0  2  0  0  0  0  0  0
  160.2500  210.6820  154.1230 C   0  0  0  0  0  0  0  0  0  0  0  0
  158.0480  212.1060  152.9920 C   0  0  0  0  0  2  0  0  0  0  0  0
  160.0950  214.4530  152.6580 O   0  0  0  0  0  1  0  0  0  0  0  0
  158.0200  213.3200  152.0750 C   0  0  2  0  0  3  0  0  0  0  0  0
  157.4080  213.4210  148.7200 N   0  0  0  0  0  2  0  0  0  0  0  0
  161.2400  212.3430  149.5530 C   0  0  0  0  0  2  0  0  0  0  0  0
  160.3250  212.3360  155.9970 C   0  0  0  0  0  2  0  0  0  0  0  0
  159.9430  212.1250  154.5220 C   0  0  2  0  0  3  0  0  0  0  0  0
  160.7920  213.7310  150.0370 C   0  0  0  0  0  2  0  0  0  0  0  0
  1 22  1  0  0  0  0
  2 14  1  0  0  0  0
  3 19  1  0  0  0  0
  4  1  1  0  0  0  0
  5  1  2  0  0  0  0
  7 16  1  6  0  0  0
  7 10  1  0  0  0  0
  8  6  1  6  0  0  0
  8 13  1  0  0  0  0
  8 12  1  0  0  0  0
 10 15  1  6  0  0  0
 10 25  1  0  0  0  0
 11 24  1  6  0  0  0
 11  3  1  0  0  0  0
 12  9  1  6  0  0  0
 12  5  1  0  0  0  0
 13 27  1  6  0  0  0
 13  4  1  0  0  0  0
 14 20  2  0  0  0  0
 16 26  1  0  0  0  0
 17  6  1  0  0  0  0
 17 21  1  0  0  0  0
 18  2  1  0  0  0  0
 19 23  1  6  0  0  0
 19 29  1  0  0  0  0
 21  9  1  0  0  0  0
 22 29  1  0  0  0  0
 22  2  2  0  0  0  0
 25 11  1  0  0  0  0
 25 23  1  1  0  0  0
 26 15  1  0  0  0  0
 27 30  1  0  0  0  0
 28 20  1  0  0  0  0
 29 28  1  1  0  0  0
 30  7  1  0  0  0  0
M  END
>  <MODEL>
6

>  <REMARK>
 VINA RESULT:      -1.2      2.054      4.488
  Name = 
  0 active torsions:
  status: ('A' for Active; 'I' for Inactive)
                            x       y       z     vdW  Elec       q    Type
                         _______ _______ _______ _____ _____    ______ ____

>  <TORSDO>
F 0

$$$$
=
 OpenBabel11052421513D

 30 35  0  0  1  0  0  0  0  0999 V2000
  161.3390  209.6080  152.2270 C   0  0  0  0  0  0  0  0  0  0  0  0
  160.6690  211.5380  150.7600 C   0  0  0  0  0  0  0  0  0  0  0  0
  162.4880  208.2760  148.0780 C   0  0  0  0  0  2  0  0  0  0  0  0
  161.8310  208.2980  152.2400 O   0  0  0  0  0  0  0  0  0  0  0  0
  160.8910  210.1180  153.3350 N   0  0  0  0  0  0  0  0  0  0  0  0
  160.6750  207.0900  155.6330 C   0  0  0  0  0  2  0  0  0  0  0  0
  162.1820  205.1080  151.0090 C   0  0  2  0  0  3  0  0  0  0  0  0
  160.5660  207.9030  154.3420 C   0  0  1  0  0  3  0  0  0  0  0  0
  160.1140  209.9880  155.6570 C   0  0  0  0  0  2  0  0  0  0  0  0
  161.1060  206.0190  150.6420 N   0  0  2  0  0  0  0  0  0  0  0  0
  162.6720  206.9740  148.8230 C   0  0  1  0  0  3  0  0  0  0  0  0
  160.9860  209.3570  154.5780 C   0  0  2  0  0  3  0  0  0  0  0  0
  161.2870  207.3000  153.1150 C   0  0  2  0  0  3  0  0  0  0  0  0
  160.9000  212.3400  149.5400 C   0  0  0  0  0  3  0  0  0  0  0  0
  159.9020  205.1950  150.5500 C   0  0  0  0  0  2  0  0  0  0  0  0
  161.5360  203.8190  151.4320 C   0  0  0  0  0  2  0  0  0  0  0  0
  159.8160  207.7320  156.7210 C   0  0  0  0  0  2  0  0  0  0  0  0
  159.6560  212.0560  151.7270 C   0  0  0  0  0  1  0  0  0  0  0  0
  161.5050  209.0720  148.8140 N   0  0  1  0  0  0  0  0  0  0  0  0
  161.9510  212.0970  148.7530 C   0  0  0  0  0  3  0  0  0  0  0  0
  160.2340  209.1840  156.9510 C   0  0  0  0  0  2  0  0  0  0  0  0
  161.3660  210.3900  150.9580 C   0  0  0  0  0  0  0  0  0  0  0  0
  160.6200  208.0880  149.4440 C   0  0  0  0  0  2  0  0  0  0  0  0
  163.5970  207.2010  149.8450 O   0  0  0  0  0  1  0  0  0  0  0  0
  161.2630  206.7110  149.3520 C   0  0  2  0  0  3  0  0  0  0  0  0
  160.2350  203.7980  150.7990 N   0  0  0  0  0  2  0  0  0  0  0  0
  162.2820  206.1660  153.3950 C   0  0  0  0  0  2  0  0  0  0  0  0
  162.9500  211.0430  149.1380 C   0  0  0  0  0  2  0  0  0  0  0  0
  162.2430  209.8630  149.8240 C   0  0  2  0  0  3  0  0  0  0  0  0
  163.0410  205.6920  152.1450 C   0  0  0  0  0  2  0  0  0  0  0  0
  1  4  1  0  0  0  0
  1  5  2  0  0  0  0
  2 22  2  0  0  0  0
  2 18  1  0  0  0  0
  3 11  1  0  0  0  0
  4 13  1  0  0  0  0
  5 12  1  0  0  0  0
  6 17  1  0  0  0  0
  7 16  1  1  0  0  0
  7 30  1  0  0  0  0
  8 12  1  0  0  0  0
  8  6  1  1  0  0  0
  9 21  1  0  0  0  0
 10 15  1  6  0  0  0
 10  7  1  0  0  0  0
 11 25  1  0  0  0  0
 11 24  1  1  0  0  0
 12  9  1  1  0  0  0
 13 27  1  1  0  0  0
 13  8  1  0  0  0  0
 14  2  1  0  0  0  0
 15 26  1  0  0  0  0
 17 21  1  0  0  0  0
 19  3  1  6  0  0  0
 19 23  1  0  0  0  0
 19 29  1  0  0  0  0
 20 28  1  0  0  0  0
 20 14  2  0  0  0  0
 22  1  1  0  0  0  0
 25 23  1  1  0  0  0
 25 10  1  0  0  0  0
 26 16  1  0  0  0  0
 29 28  1  6  0  0  0
 29 22  1  0  0  0  0
 30 27  1  0  0  0  0
M  END
>  <MODEL>
7

>  <REMARK>
 VINA RESULT:      -1.2      3.240      7.918
  Name = 
  0 active torsions:
  status: ('A' for Active; 'I' for Inactive)
                            x       y       z     vdW  Elec       q    Type
                         _______ _______ _______ _____ _____    ______ ____

>  <TORSDO>
F 0

$$$$
