=
 OpenBabel11052423213D

 27 31  0  0  0  0  0  0  0  0999 V2000
  161.6470  210.2180  151.5200 N   0  0  0  0  0  0  0  0  0  0  0  0
  161.6490  208.7840  149.5760 C   0  0  0  0  0  0  0  0  0  0  0  0
  161.2890  207.1960  151.5000 N   0  0  0  0  0  0  0  0  0  0  0  0
  161.7010  208.5720  148.2440 N   0  0  0  0  0  0  0  0  0  0  0  0
  160.8810  207.3520  156.1820 F   0  0  0  0  0  0  0  0  0  0  0  0
  161.0650  208.0220  155.0200 C   0  0  0  0  0  0  0  0  0  0  0  0
  161.7590  210.0370  150.1790 C   0  0  0  0  0  0  0  0  0  0  0  0
  161.3930  206.6050  149.1470 C   0  0  0  0  0  0  0  0  0  0  0  0
  161.4470  209.4140  152.5970 C   0  0  0  0  0  0  0  0  0  0  0  0
  161.4380  207.5030  150.1990 C   0  0  0  0  0  0  0  0  0  0  0  0
  161.0990  207.3320  153.8120 C   0  0  0  0  0  3  0  0  0  0  0  0
  161.5520  207.2790  147.9890 N   0  0  0  0  0  0  0  0  0  0  0  0
  161.2180  209.4030  155.0290 C   0  0  0  0  0  3  0  0  0  0  0  0
  161.4070  210.0840  153.8290 C   0  0  0  0  0  3  0  0  0  0  0  0
  161.2860  207.9940  152.5910 C   0  0  0  0  0  0  0  0  0  0  0  0
  161.4050  204.3600  148.0650 C   0  0  0  0  0  3  0  0  0  0  0  0
  160.8320  202.3580  149.2970 C   0  0  0  0  0  3  0  0  0  0  0  0
  160.6210  203.1260  150.4450 C   0  0  0  0  0  3  0  0  0  0  0  0
  160.8020  204.5100  150.4020 C   0  0  0  0  0  3  0  0  0  0  0  0
  161.1960  205.1410  149.2120 C   0  0  0  0  0  0  0  0  0  0  0  0
  161.2250  202.9750  148.1070 C   0  0  0  0  0  3  0  0  0  0  0  0
  162.4260  213.6280  147.9040 C   0  0  0  0  0  3  0  0  0  0  0  0
  161.9940  211.2630  149.3660 C   0  0  0  0  0  0  0  0  0  0  0  0
  163.1000  211.3840  148.5060 C   0  0  0  0  0  3  0  0  0  0  0  0
  163.3130  212.5560  147.7770 C   0  0  0  0  0  3  0  0  0  0  0  0
  161.3290  213.5280  148.7630 C   0  0  0  0  0  3  0  0  0  0  0  0
  161.1190  212.3540  149.4910 C   0  0  0  0  0  3  0  0  0  0  0  0
  1  9  1  0  0  0  0
  2  7  1  0  0  0  0
  2 10  1  0  0  0  0
  3 15  1  0  0  0  0
  4  2  2  0  0  0  0
  6 13  1  0  0  0  0
  6  5  1  0  0  0  0
  7  1  2  0  0  0  0
  8 20  1  0  0  0  0
  8 10  1  0  0  0  0
  9 14  1  0  0  0  0
 10  3  2  0  0  0  0
 11  6  2  0  0  0  0
 12  4  1  0  0  0  0
 12  8  2  0  0  0  0
 14 13  2  0  0  0  0
 15  9  2  0  0  0  0
 15 11  1  0  0  0  0
 16 21  2  0  0  0  0
 16 20  1  0  0  0  0
 17 18  2  0  0  0  0
 19 18  1  0  0  0  0
 20 19  2  0  0  0  0
 21 17  1  0  0  0  0
 22 26  1  0  0  0  0
 23 27  1  0  0  0  0
 23  7  1  0  0  0  0
 24 23  2  0  0  0  0
 25 22  2  0  0  0  0
 25 24  1  0  0  0  0
 26 27  2  0  0  0  0
M  END
>  <MODEL>
1

>  <REMARK>
 VINA RESULT:      -9.6      0.000      0.000
  Name = 
  2 active torsions:
  status: ('A' for Active; 'I' for Inactive)
    1  A    between atoms: C_9  and  C_15
    2  A    between atoms: C_14  and  C_17
                            x       y       z     vdW  Elec       q    Type
                         _______ _______ _______ _____ _____    ______ ____

>  <TORSDO>
F 2

$$$$
=
 OpenBabel11052423213D

 27 31  0  0  0  0  0  0  0  0999 V2000
  161.5260  207.0300  150.1080 N   0  0  0  0  0  0  0  0  0  0  0  0
  161.1270  206.6500  152.4600 C   0  0  0  0  0  0  0  0  0  0  0  0
  161.4800  209.1410  152.3000 N   0  0  0  0  0  0  0  0  0  0  0  0
  160.8250  205.8590  153.5110 N   0  0  0  0  0  0  0  0  0  0  0  0
  162.3860  212.3780  149.0110 F   0  0  0  0  0  0  0  0  0  0  0  0
  162.1690  211.0760  149.3160 C   0  0  0  0  0  0  0  0  0  0  0  0
  161.2760  206.1960  151.1490 C   0  0  0  0  0  0  0  0  0  0  0  0
  160.9810  207.8850  154.3180 C   0  0  0  0  0  0  0  0  0  0  0  0
  161.7170  208.3670  149.9560 C   0  0  0  0  0  0  0  0  0  0  0  0
  161.2280  207.9970  152.9610 C   0  0  0  0  0  0  0  0  0  0  0  0
  161.9320  210.6970  150.6340 C   0  0  0  0  0  3  0  0  0  0  0  0
  160.7410  206.5910  154.6140 N   0  0  0  0  0  0  0  0  0  0  0  0
  162.1800  210.1140  148.3130 C   0  0  0  0  0  3  0  0  0  0  0  0
  161.9560  208.7780  148.6370 C   0  0  0  0  0  3  0  0  0  0  0  0
  161.7040  209.3590  150.9850 C   0  0  0  0  0  0  0  0  0  0  0  0
  159.9160  209.9060  155.3140 C   0  0  0  0  0  3  0  0  0  0  0  0
  160.8780  211.0310  157.2290 C   0  0  0  0  0  3  0  0  0  0  0  0
  161.9190  210.0990  157.2510 C   0  0  0  0  0  3  0  0  0  0  0  0
  161.9570  209.0720  156.3050 C   0  0  0  0  0  3  0  0  0  0  0  0
  160.9570  208.9650  155.3270 C   0  0  0  0  0  0  0  0  0  0  0  0
  159.8750  210.9340  156.2600 C   0  0  0  0  0  3  0  0  0  0  0  0
  160.9700  202.0270  150.1270 C   0  0  0  0  0  3  0  0  0  0  0  0
  161.1500  204.7490  150.8190 C   0  0  0  0  0  0  0  0  0  0  0  0
  161.3000  203.7480  151.7950 C   0  0  0  0  0  3  0  0  0  0  0  0
  161.2060  202.3970  151.4530 C   0  0  0  0  0  3  0  0  0  0  0  0
  160.8310  203.0090  149.1440 C   0  0  0  0  0  3  0  0  0  0  0  0
  160.9250  204.3600  149.4890 C   0  0  0  0  0  3  0  0  0  0  0  0
  1  7  1  0  0  0  0
  2 10  1  0  0  0  0
  2  4  1  0  0  0  0
  3 10  1  0  0  0  0
  4 12  2  0  0  0  0
  5  6  1  0  0  0  0
  6 11  2  0  0  0  0
  7  2  2  0  0  0  0
  8 12  1  0  0  0  0
  8 20  1  0  0  0  0
  9  1  2  0  0  0  0
  9 15  1  0  0  0  0
 10  8  2  0  0  0  0
 11 15  1  0  0  0  0
 13 14  2  0  0  0  0
 13  6  1  0  0  0  0
 14  9  1  0  0  0  0
 15  3  2  0  0  0  0
 16 20  2  0  0  0  0
 16 21  1  0  0  0  0
 17 18  1  0  0  0  0
 19 18  2  0  0  0  0
 20 19  1  0  0  0  0
 21 17  2  0  0  0  0
 22 25  1  0  0  0  0
 23  7  1  0  0  0  0
 23 24  1  0  0  0  0
 25 24  2  0  0  0  0
 26 27  1  0  0  0  0
 26 22  2  0  0  0  0
 27 23  2  0  0  0  0
M  END
>  <MODEL>
2

>  <REMARK>
 VINA RESULT:      -9.3      2.283      7.483
  Name = 
  2 active torsions:
  status: ('A' for Active; 'I' for Inactive)
    1  A    between atoms: C_9  and  C_15
    2  A    between atoms: C_14  and  C_17
                            x       y       z     vdW  Elec       q    Type
                         _______ _______ _______ _____ _____    ______ ____

>  <TORSDO>
F 2

$$$$
=
 OpenBabel11052423213D

 27 31  0  0  0  0  0  0  0  0999 V2000
  161.1830  207.3430  152.6710 N   0  0  0  0  0  0  0  0  0  0  0  0
  161.5290  208.0330  150.3820 C   0  0  0  0  0  0  0  0  0  0  0  0
  161.5570  210.1950  151.6780 N   0  0  0  0  0  0  0  0  0  0  0  0
  161.7120  207.7800  149.0690 N   0  0  0  0  0  0  0  0  0  0  0  0
  161.1380  211.6520  156.1300 F   0  0  0  0  0  0  0  0  0  0  0  0
  161.1570  210.6200  155.2540 C   0  0  0  0  0  0  0  0  0  0  0  0
  161.3080  207.0540  151.3500 C   0  0  0  0  0  0  0  0  0  0  0  0
  161.8690  209.9500  149.2830 C   0  0  0  0  0  0  0  0  0  0  0  0
  161.1960  208.4730  153.4250 C   0  0  0  0  0  0  0  0  0  0  0  0
  161.6360  209.4590  150.5550 C   0  0  0  0  0  0  0  0  0  0  0  0
  161.3390  210.8590  153.8940 C   0  0  0  0  0  3  0  0  0  0  0  0
  161.9110  208.9170  148.4160 N   0  0  0  0  0  0  0  0  0  0  0  0
  160.9960  209.3170  155.7080 C   0  0  0  0  0  3  0  0  0  0  0  0
  161.0160  208.2610  154.8000 C   0  0  0  0  0  3  0  0  0  0  0  0
  161.3640  209.8140  152.9610 C   0  0  0  0  0  0  0  0  0  0  0  0
  161.1510  212.3370  149.3040 C   0  0  0  0  0  3  0  0  0  0  0  0
  162.3930  214.0430  148.1200 C   0  0  0  0  0  3  0  0  0  0  0  0
  163.3060  213.0770  147.6870 C   0  0  0  0  0  3  0  0  0  0  0  0
  163.1390  211.7420  148.0630 C   0  0  0  0  0  3  0  0  0  0  0  0
  162.0610  211.3580  148.8750 C   0  0  0  0  0  0  0  0  0  0  0  0
  161.3160  213.6730  148.9290 C   0  0  0  0  0  3  0  0  0  0  0  0
  160.9730  202.8830  150.3460 C   0  0  0  0  0  3  0  0  0  0  0  0
  161.2110  205.6150  150.9780 C   0  0  0  0  0  0  0  0  0  0  0  0
  160.9300  205.2030  149.6630 C   0  0  0  0  0  3  0  0  0  0  0  0
  160.8160  203.8480  149.3480 C   0  0  0  0  0  3  0  0  0  0  0  0
  161.2420  203.2750  151.6590 C   0  0  0  0  0  3  0  0  0  0  0  0
  161.3550  204.6330  151.9720 C   0  0  0  0  0  3  0  0  0  0  0  0
  1  9  1  0  0  0  0
  2 10  1  0  0  0  0
  2  7  1  0  0  0  0
  3 15  1  0  0  0  0
  4  2  2  0  0  0  0
  6 13  1  0  0  0  0
  6  5  1  0  0  0  0
  7  1  2  0  0  0  0
  8 10  1  0  0  0  0
  9 14  1  0  0  0  0
 10  3  2  0  0  0  0
 11  6  2  0  0  0  0
 12  4  1  0  0  0  0
 12  8  2  0  0  0  0
 14 13  2  0  0  0  0
 15  9  2  0  0  0  0
 15 11  1  0  0  0  0
 17 21  2  0  0  0  0
 18 19  2  0  0  0  0
 18 17  1  0  0  0  0
 19 20  1  0  0  0  0
 20  8  1  0  0  0  0
 20 16  2  0  0  0  0
 21 16  1  0  0  0  0
 22 26  1  0  0  0  0
 23  7  1  0  0  0  0
 23 27  1  0  0  0  0
 24 23  2  0  0  0  0
 25 24  1  0  0  0  0
 25 22  2  0  0  0  0
 26 27  2  0  0  0  0
M  END
>  <MODEL>
3

>  <REMARK>
 VINA RESULT:      -9.2      1.200      6.390
  Name = 
  2 active torsions:
  status: ('A' for Active; 'I' for Inactive)
    1  A    between atoms: C_9  and  C_15
    2  A    between atoms: C_14  and  C_17
                            x       y       z     vdW  Elec       q    Type
                         _______ _______ _______ _____ _____    ______ ____

>  <TORSDO>
F 2

$$$$
=
 OpenBabel11052423213D

 27 31  0  0  0  0  0  0  0  0999 V2000
  161.4200  208.8750  152.4020 N   0  0  0  0  0  0  0  0  0  0  0  0
  161.1140  206.4830  152.2710 C   0  0  0  0  0  0  0  0  0  0  0  0
  161.4780  207.1800  149.8760 N   0  0  0  0  0  0  0  0  0  0  0  0
  160.9300  205.2660  152.8270 N   0  0  0  0  0  0  0  0  0  0  0  0
  162.2910  211.1090  147.4240 F   0  0  0  0  0  0  0  0  0  0  0  0
  162.0770  210.5270  148.6280 C   0  0  0  0  0  0  0  0  0  0  0  0
  161.1790  207.6760  152.9910 C   0  0  0  0  0  0  0  0  0  0  0  0
  161.1180  204.9150  150.6770 C   0  0  0  0  0  0  0  0  0  0  0  0
  161.6310  209.3110  151.1330 C   0  0  0  0  0  0  0  0  0  0  0  0
  161.2500  206.2810  150.8510 C   0  0  0  0  0  0  0  0  0  0  0  0
  161.8740  209.1520  148.7150 C   0  0  0  0  0  3  0  0  0  0  0  0
  160.9290  204.3360  151.8800 N   0  0  0  0  0  0  0  0  0  0  0  0
  162.0610  211.3000  149.7820 C   0  0  0  0  0  3  0  0  0  0  0  0
  161.8400  210.6930  151.0160 C   0  0  0  0  0  3  0  0  0  0  0  0
  161.6500  208.5190  149.9440 C   0  0  0  0  0  0  0  0  0  0  0  0
  160.8160  202.7970  149.4000 C   0  0  0  0  0  3  0  0  0  0  0  0
  161.2720  202.6730  147.0260 C   0  0  0  0  0  3  0  0  0  0  0  0
  161.6310  204.0240  147.0260 C   0  0  0  0  0  3  0  0  0  0  0  0
  161.5830  204.7590  148.2130 C   0  0  0  0  0  3  0  0  0  0  0  0
  161.1750  204.1530  149.4120 C   0  0  0  0  0  0  0  0  0  0  0  0
  160.8630  202.0600  148.2130 C   0  0  0  0  0  3  0  0  0  0  0  0
  160.6530  207.8110  157.2600 C   0  0  0  0  0  3  0  0  0  0  0  0
  160.9970  207.6910  154.4700 C   0  0  0  0  0  0  0  0  0  0  0  0
  160.0290  206.8970  155.1080 C   0  0  0  0  0  3  0  0  0  0  0  0
  159.8600  206.9530  156.4940 C   0  0  0  0  0  3  0  0  0  0  0  0
  161.6110  208.6150  156.6390 C   0  0  0  0  0  3  0  0  0  0  0  0
  161.7780  208.5570  155.2530 C   0  0  0  0  0  3  0  0  0  0  0  0
  1  7  1  0  0  0  0
  2  4  1  0  0  0  0
  2  7  2  0  0  0  0
  3 15  2  0  0  0  0
  3 10  1  0  0  0  0
  5  6  1  0  0  0  0
  6 11  2  0  0  0  0
  6 13  1  0  0  0  0
  7 23  1  0  0  0  0
  8 10  2  0  0  0  0
  8 12  1  0  0  0  0
  9  1  2  0  0  0  0
 10  2  1  0  0  0  0
 11 15  1  0  0  0  0
 12  4  2  0  0  0  0
 13 14  2  0  0  0  0
 14  9  1  0  0  0  0
 15  9  1  0  0  0  0
 16 20  1  0  0  0  0
 17 21  1  0  0  0  0
 18 17  2  0  0  0  0
 18 19  1  0  0  0  0
 19 20  2  0  0  0  0
 20  8  1  0  0  0  0
 21 16  2  0  0  0  0
 23 24  2  0  0  0  0
 23 27  1  0  0  0  0
 24 25  1  0  0  0  0
 25 22  2  0  0  0  0
 26 22  1  0  0  0  0
 27 26  2  0  0  0  0
M  END
>  <MODEL>
4

>  <REMARK>
 VINA RESULT:      -9.2      2.364      5.574
  Name = 
  2 active torsions:
  status: ('A' for Active; 'I' for Inactive)
    1  A    between atoms: C_9  and  C_15
    2  A    between atoms: C_14  and  C_17
                            x       y       z     vdW  Elec       q    Type
                         _______ _______ _______ _____ _____    ______ ____

>  <TORSDO>
F 2

$$$$
=
 OpenBabel11052423213D

 27 31  0  0  0  0  0  0  0  0999 V2000
  161.4980  206.5860  149.3650 N   0  0  0  0  0  0  0  0  0  0  0  0
  161.1740  205.7090  151.5920 C   0  0  0  0  0  0  0  0  0  0  0  0
  161.4460  208.1890  151.9510 N   0  0  0  0  0  0  0  0  0  0  0  0
  160.9240  204.7050  152.4600 N   0  0  0  0  0  0  0  0  0  0  0  0
  162.1640  212.0710  149.3960 F   0  0  0  0  0  0  0  0  0  0  0  0
  161.9950  210.7280  149.4260 C   0  0  0  0  0  0  0  0  0  0  0  0
  161.3010  205.5440  150.2130 C   0  0  0  0  0  0  0  0  0  0  0  0
  161.0390  206.5230  153.6700 C   0  0  0  0  0  0  0  0  0  0  0  0
  161.6430  207.9310  149.4930 C   0  0  0  0  0  0  0  0  0  0  0  0
  161.2460  206.9240  152.3630 C   0  0  0  0  0  0  0  0  0  0  0  0
  161.8050  210.0730  150.6400 C   0  0  0  0  0  3  0  0  0  0  0  0
  160.8470  205.1880  153.6940 N   0  0  0  0  0  0  0  0  0  0  0  0
  162.0090  209.9970  148.2440 C   0  0  0  0  0  3  0  0  0  0  0  0
  161.8350  208.6160  148.2850 C   0  0  0  0  0  3  0  0  0  0  0  0
  161.6270  208.6850  150.7070 C   0  0  0  0  0  0  0  0  0  0  0  0
  161.6960  208.5900  154.8980 C   0  0  0  0  0  3  0  0  0  0  0  0
  160.9720  208.9970  157.1710 C   0  0  0  0  0  3  0  0  0  0  0  0
  160.2840  207.7800  157.1680 C   0  0  0  0  0  3  0  0  0  0  0  0
  160.3020  206.9710  156.0300 C   0  0  0  0  0  3  0  0  0  0  0  0
  161.0080  207.3670  154.8840 C   0  0  0  0  0  0  0  0  0  0  0  0
  161.6780  209.4020  156.0350 C   0  0  0  0  0  3  0  0  0  0  0  0
  160.9630  201.6320  148.4500 C   0  0  0  0  0  3  0  0  0  0  0  0
  161.2120  204.1940  149.5900 C   0  0  0  0  0  0  0  0  0  0  0  0
  161.4760  203.9860  148.2240 C   0  0  0  0  0  3  0  0  0  0  0  0
  161.3570  202.7150  147.6590 C   0  0  0  0  0  3  0  0  0  0  0  0
  160.6850  201.8250  149.8050 C   0  0  0  0  0  3  0  0  0  0  0  0
  160.8050  203.0980  150.3690 C   0  0  0  0  0  3  0  0  0  0  0  0
  1  9  2  0  0  0  0
  1  7  1  0  0  0  0
  2 10  1  0  0  0  0
  2  4  1  0  0  0  0
  3 10  1  0  0  0  0
  4 12  2  0  0  0  0
  5  6  1  0  0  0  0
  6 11  2  0  0  0  0
  7  2  2  0  0  0  0
  8 12  1  0  0  0  0
  8 20  1  0  0  0  0
  9 15  1  0  0  0  0
 10  8  2  0  0  0  0
 11 15  1  0  0  0  0
 13 14  2  0  0  0  0
 13  6  1  0  0  0  0
 14  9  1  0  0  0  0
 15  3  2  0  0  0  0
 16 21  1  0  0  0  0
 18 17  1  0  0  0  0
 19 18  2  0  0  0  0
 20 16  2  0  0  0  0
 20 19  1  0  0  0  0
 21 17  2  0  0  0  0
 22 26  1  0  0  0  0
 23  7  1  0  0  0  0
 23 27  1  0  0  0  0
 24 23  2  0  0  0  0
 25 24  1  0  0  0  0
 25 22  2  0  0  0  0
 26 27  2  0  0  0  0
M  END
>  <MODEL>
5

>  <REMARK>
 VINA RESULT:      -9.1      2.230      7.125
  Name = 
  2 active torsions:
  status: ('A' for Active; 'I' for Inactive)
    1  A    between atoms: C_9  and  C_15
    2  A    between atoms: C_14  and  C_17
                            x       y       z     vdW  Elec       q    Type
                         _______ _______ _______ _____ _____    ______ ____

>  <TORSDO>
F 2

$$$$
=
 OpenBabel11052423213D

 27 31  0  0  0  0  0  0  0  0999 V2000
  161.7820  208.7380  148.2740 N   0  0  0  0  0  0  0  0  0  0  0  0
  161.5200  209.8780  150.3870 C   0  0  0  0  0  0  0  0  0  0  0  0
  161.1670  207.4490  150.9600 N   0  0  0  0  0  0  0  0  0  0  0  0
  161.5360  210.9830  151.1620 N   0  0  0  0  0  0  0  0  0  0  0  0
  161.1360  203.2750  148.7940 F   0  0  0  0  0  0  0  0  0  0  0  0
  161.2900  204.6180  148.7040 C   0  0  0  0  0  0  0  0  0  0  0  0
  161.7530  209.8770  149.0120 C   0  0  0  0  0  0  0  0  0  0  0  0
  161.1140  209.3160  152.5120 C   0  0  0  0  0  0  0  0  0  0  0  0
  161.6100  207.4130  148.5210 C   0  0  0  0  0  0  0  0  0  0  0  0
  161.2520  208.7600  151.2540 C   0  0  0  0  0  0  0  0  0  0  0  0
  161.1600  205.4150  149.8380 C   0  0  0  0  0  3  0  0  0  0  0  0
  161.2920  210.6500  152.4230 N   0  0  0  0  0  0  0  0  0  0  0  0
  161.5810  205.2050  147.4790 C   0  0  0  0  0  3  0  0  0  0  0  0
  161.7380  206.5860  147.3960 C   0  0  0  0  0  3  0  0  0  0  0  0
  161.3130  206.8070  149.7800 C   0  0  0  0  0  0  0  0  0  0  0  0
  160.5500  209.3680  154.9390 C   0  0  0  0  0  3  0  0  0  0  0  0
  160.2880  207.3330  156.2220 C   0  0  0  0  0  3  0  0  0  0  0  0
  160.5660  206.5780  155.0790 C   0  0  0  0  0  3  0  0  0  0  0  0
  160.8360  207.2200  153.8680 C   0  0  0  0  0  3  0  0  0  0  0  0
  160.8310  208.6210  153.7860 C   0  0  0  0  0  0  0  0  0  0  0  0
  160.2790  208.7290  156.1520 C   0  0  0  0  0  3  0  0  0  0  0  0
  162.3910  213.5830  146.9180 C   0  0  0  0  0  3  0  0  0  0  0  0
  161.9990  211.1480  148.2740 C   0  0  0  0  0  0  0  0  0  0  0  0
  163.2610  211.7680  148.2610 C   0  0  0  0  0  3  0  0  0  0  0  0
  163.4570  212.9740  147.5850 C   0  0  0  0  0  3  0  0  0  0  0  0
  161.1290  212.9850  146.9310 C   0  0  0  0  0  3  0  0  0  0  0  0
  160.9350  211.7790  147.6090 C   0  0  0  0  0  3  0  0  0  0  0  0
  1  9  2  0  0  0  0
  1  7  1  0  0  0  0
  2  4  1  0  0  0  0
  2 10  1  0  0  0  0
  3 10  1  0  0  0  0
  4 12  2  0  0  0  0
  6  5  1  0  0  0  0
  6 11  2  0  0  0  0
  7  2  2  0  0  0  0
  8 20  1  0  0  0  0
  9 15  1  0  0  0  0
 10  8  2  0  0  0  0
 12  8  1  0  0  0  0
 13  6  1  0  0  0  0
 14 13  2  0  0  0  0
 14  9  1  0  0  0  0
 15 11  1  0  0  0  0
 15  3  2  0  0  0  0
 16 21  1  0  0  0  0
 18 17  1  0  0  0  0
 19 18  2  0  0  0  0
 20 19  1  0  0  0  0
 20 16  2  0  0  0  0
 21 17  2  0  0  0  0
 22 26  2  0  0  0  0
 22 25  1  0  0  0  0
 23  7  1  0  0  0  0
 24 23  1  0  0  0  0
 25 24  2  0  0  0  0
 26 27  1  0  0  0  0
 27 23  2  0  0  0  0
M  END
>  <MODEL>
6

>  <REMARK>
 VINA RESULT:      -8.3      2.027      5.182
  Name = 
  2 active torsions:
  status: ('A' for Active; 'I' for Inactive)
    1  A    between atoms: C_9  and  C_15
    2  A    between atoms: C_14  and  C_17
                            x       y       z     vdW  Elec       q    Type
                         _______ _______ _______ _____ _____    ______ ____

>  <TORSDO>
F 2

$$$$
=
 OpenBabel11052423213D

 27 31  0  0  0  0  0  0  0  0999 V2000
  161.2250  206.7420  151.0400 N   0  0  0  0  0  0  0  0  0  0  0  0
  161.4570  209.1460  151.0800 C   0  0  0  0  0  0  0  0  0  0  0  0
  161.6770  208.5570  148.6390 N   0  0  0  0  0  0  0  0  0  0  0  0
  161.4610  210.3390  151.7120 N   0  0  0  0  0  0  0  0  0  0  0  0
  161.6030  204.7300  145.9070 F   0  0  0  0  0  0  0  0  0  0  0  0
  161.5130  205.2580  147.1510 C   0  0  0  0  0  0  0  0  0  0  0  0
  161.2780  207.9180  151.7160 C   0  0  0  0  0  0  0  0  0  0  0  0
  161.7540  210.7890  149.5930 C   0  0  0  0  0  0  0  0  0  0  0  0
  161.3270  206.3630  149.7390 C   0  0  0  0  0  0  0  0  0  0  0  0
  161.6400  209.4130  149.6770 C   0  0  0  0  0  0  0  0  0  0  0  0
  161.6360  206.6320  147.3380 C   0  0  0  0  0  3  0  0  0  0  0  0
  161.6400  211.3140  150.8300 N   0  0  0  0  0  0  0  0  0  0  0  0
  161.2960  204.4310  148.2450 C   0  0  0  0  0  3  0  0  0  0  0  0
  161.2060  204.9830  149.5210 C   0  0  0  0  0  3  0  0  0  0  0  0
  161.5480  207.2120  148.6110 C   0  0  0  0  0  0  0  0  0  0  0  0
  160.8830  211.8320  147.5040 C   0  0  0  0  0  3  0  0  0  0  0  0
  162.3020  213.1660  146.0680 C   0  0  0  0  0  3  0  0  0  0  0  0
  163.3780  212.9520  146.9340 C   0  0  0  0  0  3  0  0  0  0  0  0
  163.2050  212.1780  148.0840 C   0  0  0  0  0  3  0  0  0  0  0  0
  161.9560  211.6100  148.3800 C   0  0  0  0  0  0  0  0  0  0  0  0
  161.0540  212.6060  146.3530 C   0  0  0  0  0  3  0  0  0  0  0  0
  160.7600  207.7500  155.9860 C   0  0  0  0  0  3  0  0  0  0  0  0
  161.1180  207.8360  153.1950 C   0  0  0  0  0  0  0  0  0  0  0  0
  160.8310  206.6220  153.8460 C   0  0  0  0  0  3  0  0  0  0  0  0
  160.6580  206.5780  155.2310 C   0  0  0  0  0  3  0  0  0  0  0  0
  161.0330  208.9650  155.3530 C   0  0  0  0  0  3  0  0  0  0  0  0
  161.2060  209.0060  153.9670 C   0  0  0  0  0  3  0  0  0  0  0  0
  1  7  1  0  0  0  0
  2  4  1  0  0  0  0
  2  7  2  0  0  0  0
  3 10  1  0  0  0  0
  5  6  1  0  0  0  0
  6 11  2  0  0  0  0
  6 13  1  0  0  0  0
  7 23  1  0  0  0  0
  8 10  2  0  0  0  0
  8 12  1  0  0  0  0
  9  1  2  0  0  0  0
 10  2  1  0  0  0  0
 11 15  1  0  0  0  0
 12  4  2  0  0  0  0
 13 14  2  0  0  0  0
 14  9  1  0  0  0  0
 15  3  2  0  0  0  0
 15  9  1  0  0  0  0
 16 20  1  0  0  0  0
 17 21  1  0  0  0  0
 17 18  2  0  0  0  0
 18 19  1  0  0  0  0
 19 20  2  0  0  0  0
 20  8  1  0  0  0  0
 21 16  2  0  0  0  0
 23 24  2  0  0  0  0
 23 27  1  0  0  0  0
 24 25  1  0  0  0  0
 25 22  2  0  0  0  0
 26 22  1  0  0  0  0
 27 26  2  0  0  0  0
M  END
>  <MODEL>
7

>  <REMARK>
 VINA RESULT:      -8.0      2.345      7.096
  Name = 
  2 active torsions:
  status: ('A' for Active; 'I' for Inactive)
    1  A    between atoms: C_9  and  C_15
    2  A    between atoms: C_14  and  C_17
                            x       y       z     vdW  Elec       q    Type
                         _______ _______ _______ _____ _____    ______ ____

>  <TORSDO>
F 2

$$$$
=
 OpenBabel11052423213D

 27 31  0  0  0  0  0  0  0  0999 V2000
  161.3160  209.5000  152.3480 N   0  0  0  0  0  0  0  0  0  0  0  0
  161.0080  207.1040  152.3730 C   0  0  0  0  0  0  0  0  0  0  0  0
  161.4570  207.6320  149.9500 N   0  0  0  0  0  0  0  0  0  0  0  0
  160.8010  205.9300  153.0060 N   0  0  0  0  0  0  0  0  0  0  0  0
  162.3660  211.3800  147.2590 F   0  0  0  0  0  0  0  0  0  0  0  0
  162.1080  210.8840  148.4920 C   0  0  0  0  0  0  0  0  0  0  0  0
  161.0510  208.3450  153.0100 C   0  0  0  0  0  0  0  0  0  0  0  0
  161.0630  205.4290  150.8940 C   0  0  0  0  0  0  0  0  0  0  0  0
  161.5720  209.8460  151.0590 C   0  0  0  0  0  0  0  0  0  0  0  0
  161.1930  206.8040  150.9770 C   0  0  0  0  0  0  0  0  0  0  0  0
  161.8990  209.5190  148.6680 C   0  0  0  0  0  3  0  0  0  0  0  0
  160.8310  204.9360  152.1270 N   0  0  0  0  0  0  0  0  0  0  0  0
  162.0550  211.7360  149.5880 C   0  0  0  0  0  3  0  0  0  0  0  0
  161.7890  211.2170  150.8530 C   0  0  0  0  0  3  0  0  0  0  0  0
  161.6310  208.9720  149.9300 C   0  0  0  0  0  0  0  0  0  0  0  0
  161.5440  205.1520  148.4640 C   0  0  0  0  0  3  0  0  0  0  0  0
  161.3640  202.9980  147.3750 C   0  0  0  0  0  3  0  0  0  0  0  0
  160.9830  202.4180  148.5890 C   0  0  0  0  0  3  0  0  0  0  0  0
  160.8840  203.2060  149.7380 C   0  0  0  0  0  3  0  0  0  0  0  0
  161.1630  204.5800  149.6880 C   0  0  0  0  0  0  0  0  0  0  0  0
  161.6450  204.3660  147.3130 C   0  0  0  0  0  3  0  0  0  0  0  0
  160.4660  208.6780  157.2600 C   0  0  0  0  0  3  0  0  0  0  0  0
  160.8180  208.4640  154.4760 C   0  0  0  0  0  0  0  0  0  0  0  0
  160.0510  209.5070  155.0250 C   0  0  0  0  0  3  0  0  0  0  0  0
  159.8730  209.6120  156.4070 C   0  0  0  0  0  3  0  0  0  0  0  0
  161.2400  207.6430  156.7310 C   0  0  0  0  0  3  0  0  0  0  0  0
  161.4170  207.5410  155.3490 C   0  0  0  0  0  3  0  0  0  0  0  0
  1  7  1  0  0  0  0
  2  4  1  0  0  0  0
  2  7  2  0  0  0  0
  3 10  1  0  0  0  0
  5  6  1  0  0  0  0
  6 11  2  0  0  0  0
  6 13  1  0  0  0  0
  7 23  1  0  0  0  0
  8 10  2  0  0  0  0
  8 12  1  0  0  0  0
  9  1  2  0  0  0  0
 10  2  1  0  0  0  0
 11 15  1  0  0  0  0
 12  4  2  0  0  0  0
 13 14  2  0  0  0  0
 14  9  1  0  0  0  0
 15  3  2  0  0  0  0
 15  9  1  0  0  0  0
 16 20  1  0  0  0  0
 17 18  2  0  0  0  0
 18 19  1  0  0  0  0
 20 19  2  0  0  0  0
 20  8  1  0  0  0  0
 21 17  1  0  0  0  0
 21 16  2  0  0  0  0
 23 24  2  0  0  0  0
 23 27  1  0  0  0  0
 24 25  1  0  0  0  0
 25 22  2  0  0  0  0
 26 22  1  0  0  0  0
 27 26  2  0  0  0  0
M  END
>  <MODEL>
8

>  <REMARK>
 VINA RESULT:      -7.8      2.320      5.430
  Name = 
  2 active torsions:
  status: ('A' for Active; 'I' for Inactive)
    1  A    between atoms: C_9  and  C_15
    2  A    between atoms: C_14  and  C_17
                            x       y       z     vdW  Elec       q    Type
                         _______ _______ _______ _____ _____    ______ ____

>  <TORSDO>
F 2

$$$$
=
 OpenBabel11052423213D

 27 31  0  0  0  0  0  0  0  0999 V2000
  161.5200  205.9360  149.7760 N   0  0  0  0  0  0  0  0  0  0  0  0
  161.2260  205.6070  152.1510 C   0  0  0  0  0  0  0  0  0  0  0  0
  161.6580  208.0810  151.9310 N   0  0  0  0  0  0  0  0  0  0  0  0
  160.9500  204.8440  153.2300 N   0  0  0  0  0  0  0  0  0  0  0  0
  162.5110  211.2310  148.5450 F   0  0  0  0  0  0  0  0  0  0  0  0
  162.2640  209.9430  148.8830 C   0  0  0  0  0  0  0  0  0  0  0  0
  161.2930  205.1280  150.8430 C   0  0  0  0  0  0  0  0  0  0  0  0
  161.2170  206.8760  153.9920 C   0  0  0  0  0  0  0  0  0  0  0  0
  161.7490  207.2630  149.5920 C   0  0  0  0  0  0  0  0  0  0  0  0
  161.3990  206.9570  152.6240 C   0  0  0  0  0  0  0  0  0  0  0  0
  162.0800  209.5930  150.2180 C   0  0  0  0  0  3  0  0  0  0  0  0
  160.9470  205.5960  154.3230 N   0  0  0  0  0  0  0  0  0  0  0  0
  162.1900  208.9660  147.8980 C   0  0  0  0  0  3  0  0  0  0  0  0
  161.9360  207.6440  148.2550 C   0  0  0  0  0  3  0  0  0  0  0  0
  161.8230  208.2700  150.6020 C   0  0  0  0  0  0  0  0  0  0  0  0
  161.6400  209.2630  154.5680 C   0  0  0  0  0  3  0  0  0  0  0  0
  161.4140  210.0780  156.8350 C   0  0  0  0  0  3  0  0  0  0  0  0
  161.0550  208.7960  157.2590 C   0  0  0  0  0  3  0  0  0  0  0  0
  160.9890  207.7490  156.3370 C   0  0  0  0  0  3  0  0  0  0  0  0
  161.2810  207.9720  154.9820 C   0  0  0  0  0  0  0  0  0  0  0  0
  161.7050  210.3120  155.4890 C   0  0  0  0  0  3  0  0  0  0  0  0
  160.7920  200.9560  149.9110 C   0  0  0  0  0  3  0  0  0  0  0  0
  161.1000  203.6810  150.5450 C   0  0  0  0  0  0  0  0  0  0  0  0
  161.2320  202.6930  151.5370 C   0  0  0  0  0  3  0  0  0  0  0  0
  161.0750  201.3410  151.2240 C   0  0  0  0  0  3  0  0  0  0  0  0
  160.6690  201.9250  148.9120 C   0  0  0  0  0  3  0  0  0  0  0  0
  160.8270  203.2770  149.2280 C   0  0  0  0  0  3  0  0  0  0  0  0
  1  7  1  0  0  0  0
  2 10  1  0  0  0  0
  2  4  1  0  0  0  0
  3 10  1  0  0  0  0
  4 12  2  0  0  0  0
  5  6  1  0  0  0  0
  6 11  2  0  0  0  0
  7  2  2  0  0  0  0
  8 12  1  0  0  0  0
  8 20  1  0  0  0  0
  9  1  2  0  0  0  0
  9 15  1  0  0  0  0
 10  8  2  0  0  0  0
 11 15  1  0  0  0  0
 13 14  2  0  0  0  0
 13  6  1  0  0  0  0
 14  9  1  0  0  0  0
 15  3  2  0  0  0  0
 16 20  2  0  0  0  0
 16 21  1  0  0  0  0
 17 18  1  0  0  0  0
 19 18  2  0  0  0  0
 20 19  1  0  0  0  0
 21 17  2  0  0  0  0
 22 25  1  0  0  0  0
 23  7  1  0  0  0  0
 23 24  1  0  0  0  0
 25 24  2  0  0  0  0
 26 27  1  0  0  0  0
 26 22  2  0  0  0  0
 27 23  2  0  0  0  0
M  END
>  <MODEL>
9

>  <REMARK>
 VINA RESULT:      -7.6      2.470      7.588
  Name = 
  2 active torsions:
  status: ('A' for Active; 'I' for Inactive)
    1  A    between atoms: C_9  and  C_15
    2  A    between atoms: C_14  and  C_17
                            x       y       z     vdW  Elec       q    Type
                         _______ _______ _______ _____ _____    ______ ____

>  <TORSDO>
F 2

$$$$
