=
 OpenBabel11062408273D

 32 36  0  0  0  0  0  0  0  0999 V2000
  161.5390  207.1140  149.9840 C   0  0  0  0  0  0  0  0  0  0  0  0
  161.0280  207.7260  152.6770 C   0  0  0  0  0  0  0  0  0  0  0  0
  161.8310  206.8110  148.6480 C   0  0  0  0  0  3  0  0  0  0  0  0
  161.6150  208.5400  150.4370 C   0  0  0  0  0  0  0  0  0  0  0  0
  161.4010  210.0960  152.3450 C   0  0  0  0  0  3  0  0  0  0  0  0
  159.8160  207.2420  156.2760 C   0  0  0  0  0  2  0  0  0  0  0  0
  161.3490  208.7990  151.8090 C   0  0  0  0  0  0  0  0  0  0  0  0
  160.5000  209.6120  155.9760 C   0  0  0  0  0  2  0  0  0  0  0  0
  160.8440  209.2840  154.5500 C   0  0  0  0  0  0  0  0  0  0  0  0
  161.9580  209.5320  149.4710 C   0  0  0  0  0  0  0  0  0  0  0  0
  161.1470  210.3370  153.6910 C   0  0  0  0  0  3  0  0  0  0  0  0
  162.2260  209.1400  148.1480 C   0  0  0  0  0  3  0  0  0  0  0  0
  160.9700  206.4220  152.1780 C   0  0  0  0  0  3  0  0  0  0  0  0
  161.2090  206.1270  150.8750 N   0  0  0  0  0  0  0  0  0  0  0  0
  160.7630  207.9660  154.0450 C   0  0  0  0  0  0  0  0  0  0  0  0
  162.0270  210.7900  149.7970 N   0  0  0  0  0  0  0  0  0  0  0  0
  162.1670  207.8100  147.7450 C   0  0  0  0  0  3  0  0  0  0  0  0
  160.5900  208.3960  156.8910 C   0  0  0  0  0  2  0  0  0  0  0  0
  160.5000  206.8090  154.9850 C   0  0  0  0  0  2  0  0  0  0  0  0
  160.9000  202.3930  151.0540 C   0  0  0  0  0  0  0  0  0  0  0  0
  160.7790  201.4130  151.9820 F   0  0  0  0  0  0  0  0  0  0  0  0
  161.1090  204.7470  150.4850 C   0  0  0  0  0  0  0  0  0  0  0  0
  160.9440  202.0610  149.6980 C   0  0  0  0  0  3  0  0  0  0  0  0
  161.1630  204.4010  149.1260 C   0  0  0  0  0  3  0  0  0  0  0  0
  160.9860  203.7330  151.4510 C   0  0  0  0  0  0  0  0  0  0  0  0
  160.9690  204.0420  152.7730 F   0  0  0  0  0  0  0  0  0  0  0  0
  161.0790  203.0650  148.7260 C   0  0  0  0  0  0  0  0  0  0  0  0
  161.4690  203.7270  146.3750 C   0  0  0  0  0  1  0  0  0  0  0  0
  161.1310  202.7630  147.3630 O   0  0  0  0  0  0  0  0  0  0  0  0
  162.3700  211.8680  148.8780 C   0  0  0  0  0  2  0  0  0  0  0  0
  161.1290  212.6760  148.5670 C   0  0  0  0  0  2  0  0  0  0  0  0
  160.5990  212.2620  147.3460 O   0  0  0  0  0  1  0  0  0  0  0  0
  1  4  1  0  0  0  0
  1 14  1  0  0  0  0
  2 15  1  0  0  0  0
  3  1  2  0  0  0  0
  4  7  2  0  0  0  0
  5 11  2  0  0  0  0
  6 18  1  0  0  0  0
  7  5  1  0  0  0  0
  7  2  1  0  0  0  0
  8 18  1  0  0  0  0
  9  8  1  0  0  0  0
 10 16  2  0  0  0  0
 10  4  1  0  0  0  0
 11  9  1  0  0  0  0
 12 10  1  0  0  0  0
 13  2  2  0  0  0  0
 14 13  1  0  0  0  0
 15  9  2  0  0  0  0
 15 19  1  0  0  0  0
 17 12  2  0  0  0  0
 17  3  1  0  0  0  0
 19  6  1  0  0  0  0
 20 25  1  0  0  0  0
 20 21  1  0  0  0  0
 22 14  1  0  0  0  0
 22 25  2  0  0  0  0
 23 20  2  0  0  0  0
 24 22  1  0  0  0  0
 25 26  1  0  0  0  0
 27 24  2  0  0  0  0
 27 23  1  0  0  0  0
 28 29  1  0  0  0  0
 29 27  1  0  0  0  0
 30 16  1  0  0  0  0
 31 30  1  0  0  0  0
 32 31  1  0  0  0  0
M  END
>  <MODEL>
1

>  <REMARK>
 VINA RESULT:      -9.6      0.000      0.000
  Name = 
  4 active torsions:
  status: ('A' for Active; 'I' for Inactive)
    1  A    between atoms: C_13  and  C_18
    2  A    between atoms: O_15  and  C_26
    3  A    between atoms: C_16  and  N_27
    4  A    between atoms: C_18  and  N_29
                            x       y       z     vdW  Elec       q    Type
                         _______ _______ _______ _____ _____    ______ ____

>  <TORSDO>
F 4

$$$$
=
 OpenBabel11062408273D

 32 36  0  0  1  0  0  0  0  0999 V2000
  161.3170  205.7120  150.6910 C   0  0  2  0  0  3  0  0  0  0  0  0
  161.5030  208.4420  150.0590 C   0  0  0  0  0  0  0  0  0  0  0  0
  161.1860  204.3540  151.0080 C   0  0  0  0  0  3  0  0  0  0  0  0
  161.2470  206.7240  151.7930 C   0  0  0  0  0  0  0  0  0  0  0  0
  161.2830  209.1260  152.3730 C   0  0  0  0  0  3  0  0  0  0  0  0
  162.2160  211.5840  147.9910 C   0  0  0  0  0  2  0  0  0  0  0  0
  161.3450  208.0930  151.4230 C   0  0  0  0  0  0  0  0  0  0  0  0
  161.6840  212.2650  150.3200 C   0  0  0  0  0  2  0  0  0  0  0  0
  161.5130  210.8110  150.6580 C   0  0  0  0  0  0  0  0  0  0  0  0
  161.0770  206.2490  153.1270 C   0  0  0  0  0  0  0  0  0  0  0  0
  161.3720  210.4620  151.9980 C   0  0  0  0  0  3  0  0  0  0  0  0
  160.9650  204.8670  153.3570 C   0  0  0  0  0  3  0  0  0  0  0  0
  161.5650  207.4400  149.0880 C   0  0  0  0  0  3  0  0  0  0  0  0
  161.4840  206.1200  149.3940 N   0  0  0  0  0  0  0  0  0  0  0  0
  161.5990  209.8000  149.6740 C   0  0  0  0  0  0  0  0  0  0  0  0
  161.0230  207.0760  154.1320 N   0  0  0  0  0  2  0  0  0  0  0  0
  161.0150  203.9400  152.3210 C   0  0  0  0  0  3  0  0  0  0  0  0
  161.4220  212.5560  148.8470 C   0  0  0  0  0  2  0  0  0  0  0  0
  161.6860  210.1710  148.2090 C   0  0  0  0  0  2  0  0  0  0  0  0
  162.1010  204.6770  145.9870 C   0  0  0  0  0  0  0  0  0  0  0  0
  162.5470  205.0670  144.7680 F   0  0  0  0  0  0  0  0  0  0  0  0
  161.5710  205.1860  148.3030 C   0  0  0  0  0  0  0  0  0  0  0  0
  161.7040  203.3530  146.1870 C   0  0  0  0  0  3  0  0  0  0  0  0
  161.1650  203.8570  148.4910 C   0  0  0  0  0  3  0  0  0  0  0  0
  162.0320  205.5970  147.0400 C   0  0  0  0  0  0  0  0  0  0  0  0
  162.3940  206.8870  146.8270 F   0  0  0  0  0  0  0  0  0  0  0  0
  161.2310  202.9360  147.4420 C   0  0  0  0  0  0  0  0  0  0  0  0
  161.1750  200.8990  148.8430 C   0  0  0  0  0  1  0  0  0  0  0  0
  160.8230  201.6200  147.6700 O   0  0  0  0  0  0  0  0  0  0  0  0
  160.8520  206.6800  155.5240 C   0  0  0  0  0  2  0  0  0  0  0  0
  159.7210  207.4780  156.1370 C   0  0  0  0  0  2  0  0  0  0  0  0
  159.8150  208.8070  155.7270 O   0  0  0  0  0  1  0  0  0  0  0  0
  1  3  1  6  0  0  0
  1  4  1  0  0  0  0
  2  7  1  0  0  0  0
  3 17  2  0  0  0  0
  4 10  1  0  0  0  0
  6 19  1  0  0  0  0
  6 18  1  0  0  0  0
  7  4  2  0  0  0  0
  7  5  1  0  0  0  0
  8  9  1  0  0  0  0
  9 11  1  0  0  0  0
 10 12  2  0  0  0  0
 10 16  1  0  0  0  0
 11  5  2  0  0  0  0
 13 14  1  0  0  0  0
 13  2  2  0  0  0  0
 14  1  1  0  0  0  0
 15  2  1  0  0  0  0
 15  9  2  0  0  0  0
 16 30  1  0  0  0  0
 17 12  1  0  0  0  0
 18  8  1  0  0  0  0
 19 15  1  0  0  0  0
 20 23  2  0  0  0  0
 20 25  1  0  0  0  0
 21 20  1  0  0  0  0
 22 24  1  0  0  0  0
 22 14  1  0  0  0  0
 23 27  1  0  0  0  0
 25 22  2  0  0  0  0
 26 25  1  0  0  0  0
 27 29  1  0  0  0  0
 27 24  2  0  0  0  0
 29 28  1  0  0  0  0
 30 31  1  0  0  0  0
 32 31  1  0  0  0  0
M  END
>  <MODEL>
2

>  <REMARK>
 VINA RESULT:      -8.4      2.803      5.462
  Name = 
  4 active torsions:
  status: ('A' for Active; 'I' for Inactive)
    1  A    between atoms: C_13  and  C_18
    2  A    between atoms: O_15  and  C_26
    3  A    between atoms: C_16  and  N_27
    4  A    between atoms: C_18  and  N_29
                            x       y       z     vdW  Elec       q    Type
                         _______ _______ _______ _____ _____    ______ ____

>  <TORSDO>
F 4

$$$$
=
 OpenBabel11062408273D

 32 36  0  0  1  0  0  0  0  0999 V2000
  161.4780  208.5700  149.9580 C   0  0  2  0  0  3  0  0  0  0  0  0
  161.2000  208.6240  152.7520 C   0  0  0  0  0  0  0  0  0  0  0  0
  161.5790  208.5370  148.5610 C   0  0  0  0  0  3  0  0  0  0  0  0
  161.3810  207.2770  150.7080 C   0  0  0  0  0  0  0  0  0  0  0  0
  161.1330  206.2080  152.9230 C   0  0  0  0  0  3  0  0  0  0  0  0
  161.2270  210.0310  156.3120 C   0  0  0  0  0  2  0  0  0  0  0  0
  161.2410  207.3560  152.1200 C   0  0  0  0  0  0  0  0  0  0  0  0
  160.8550  207.5780  156.4270 C   0  0  0  0  0  2  0  0  0  0  0  0
  160.9320  207.5420  154.9260 C   0  0  0  0  0  0  0  0  0  0  0  0
  161.4250  206.0640  149.9600 C   0  0  0  0  0  0  0  0  0  0  0  0
  160.9870  206.2980  154.3030 C   0  0  0  0  0  3  0  0  0  0  0  0
  161.5390  206.1220  148.5600 C   0  0  0  0  0  3  0  0  0  0  0  0
  161.3020  209.7860  151.9840 C   0  0  0  0  0  3  0  0  0  0  0  0
  161.4450  209.7600  150.6340 N   0  0  0  0  0  0  0  0  0  0  0  0
  161.0570  208.7200  154.1560 C   0  0  0  0  0  0  0  0  0  0  0  0
  161.3610  204.9060  150.5530 N   0  0  0  0  0  2  0  0  0  0  0  0
  161.6120  207.3310  147.8750 C   0  0  0  0  0  3  0  0  0  0  0  0
  160.3970  208.9330  156.9550 C   0  0  0  0  0  2  0  0  0  0  0  0
  160.9330  210.0760  154.8170 C   0  0  0  0  0  2  0  0  0  0  0  0
  160.9400  213.3690  149.7450 C   0  0  0  0  0  0  0  0  0  0  0  0
  160.2560  214.4530  150.1860 F   0  0  0  0  0  0  0  0  0  0  0  0
  161.5490  211.0260  149.9600 C   0  0  0  0  0  0  0  0  0  0  0  0
  161.7470  213.4750  148.6100 C   0  0  0  0  0  3  0  0  0  0  0  0
  162.3480  211.1410  148.8130 C   0  0  0  0  0  3  0  0  0  0  0  0
  160.8350  212.1470  150.4200 C   0  0  0  0  0  0  0  0  0  0  0  0
  160.0270  212.0490  151.5060 F   0  0  0  0  0  0  0  0  0  0  0  0
  162.4540  212.3590  148.1360 C   0  0  0  0  0  0  0  0  0  0  0  0
  162.8830  213.1410  145.8290 C   0  0  0  0  0  1  0  0  0  0  0  0
  163.2650  212.4330  147.0010 O   0  0  0  0  0  0  0  0  0  0  0  0
  161.3980  203.6190  149.8690 C   0  0  0  0  0  2  0  0  0  0  0  0
  160.7980  202.5570  150.7640 C   0  0  0  0  0  2  0  0  0  0  0  0
  161.0930  202.8500  152.0940 O   0  0  0  0  0  1  0  0  0  0  0  0
  1  3  1  6  0  0  0
  1 14  1  0  0  0  0
  1  4  1  0  0  0  0
  2 15  1  0  0  0  0
  4  7  2  0  0  0  0
  5 11  2  0  0  0  0
  6 18  1  0  0  0  0
  7  2  1  0  0  0  0
  7  5  1  0  0  0  0
  8 18  1  0  0  0  0
  9  8  1  0  0  0  0
 10 16  1  0  0  0  0
 10  4  1  0  0  0  0
 11  9  1  0  0  0  0
 12 10  2  0  0  0  0
 13  2  2  0  0  0  0
 14 13  1  0  0  0  0
 15 19  1  0  0  0  0
 15  9  2  0  0  0  0
 17 12  1  0  0  0  0
 17  3  2  0  0  0  0
 19  6  1  0  0  0  0
 20 21  1  0  0  0  0
 20 25  1  0  0  0  0
 22 25  2  0  0  0  0
 22 14  1  0  0  0  0
 23 20  2  0  0  0  0
 24 22  1  0  0  0  0
 25 26  1  0  0  0  0
 27 23  1  0  0  0  0
 27 24  2  0  0  0  0
 28 29  1  0  0  0  0
 29 27  1  0  0  0  0
 30 16  1  0  0  0  0
 30 31  1  0  0  0  0
 31 32  1  0  0  0  0
M  END
>  <MODEL>
3

>  <REMARK>
 VINA RESULT:      -8.1      2.792      6.553
  Name = 
  4 active torsions:
  status: ('A' for Active; 'I' for Inactive)
    1  A    between atoms: C_13  and  C_18
    2  A    between atoms: O_15  and  C_26
    3  A    between atoms: C_16  and  N_27
    4  A    between atoms: C_18  and  N_29
                            x       y       z     vdW  Elec       q    Type
                         _______ _______ _______ _____ _____    ______ ____

>  <TORSDO>
F 4

$$$$
=
 OpenBabel11062408273D

 32 36  0  0  1  0  0  0  0  0999 V2000
  161.5160  208.4960  149.6860 C   0  0  2  0  0  3  0  0  0  0  0  0
  161.3090  208.6430  152.4840 C   0  0  0  0  0  0  0  0  0  0  0  0
  161.5810  208.4180  148.2890 C   0  0  0  0  0  3  0  0  0  0  0  0
  161.3690  207.2310  150.4760 C   0  0  0  0  0  0  0  0  0  0  0  0
  161.1190  206.2400  152.7260 C   0  0  0  0  0  3  0  0  0  0  0  0
  161.4980  210.1460  155.9990 C   0  0  0  0  0  2  0  0  0  0  0  0
  161.2680  207.3570  151.8880 C   0  0  0  0  0  0  0  0  0  0  0  0
  161.0000  207.7190  156.1940 C   0  0  0  0  0  2  0  0  0  0  0  0
  161.0380  207.6380  154.6940 C   0  0  0  0  0  0  0  0  0  0  0  0
  161.3310  205.9970  149.7630 C   0  0  0  0  0  0  0  0  0  0  0  0
  161.0120  206.3760  154.1060 C   0  0  0  0  0  3  0  0  0  0  0  0
  161.4130  206.0110  148.3600 C   0  0  0  0  0  3  0  0  0  0  0  0
  161.4540  209.7760  151.6790 C   0  0  0  0  0  3  0  0  0  0  0  0
  161.5620  209.7050  150.3280 N   0  0  0  0  0  0  0  0  0  0  0  0
  161.2070  208.7860  153.8870 C   0  0  0  0  0  0  0  0  0  0  0  0
  161.2200  204.8620  150.3910 N   0  0  0  0  0  2  0  0  0  0  0  0
  161.5330  207.1940  147.6380 C   0  0  0  0  0  3  0  0  0  0  0  0
  160.6270  209.1110  156.6920 C   0  0  0  0  0  2  0  0  0  0  0  0
  161.1700  210.1640  154.5100 C   0  0  0  0  0  2  0  0  0  0  0  0
  162.8140  212.2880  147.9130 C   0  0  0  0  0  0  0  0  0  0  0  0
  163.7300  212.4140  146.9220 F   0  0  0  0  0  0  0  0  0  0  0  0
  161.7160  210.9440  149.6150 C   0  0  0  0  0  0  0  0  0  0  0  0
  162.0170  213.3800  148.2620 C   0  0  0  0  0  3  0  0  0  0  0  0
  160.9290  212.0510  149.9650 C   0  0  0  0  0  3  0  0  0  0  0  0
  162.6700  211.0700  148.5890 C   0  0  0  0  0  0  0  0  0  0  0  0
  163.4680  210.0230  148.2610 F   0  0  0  0  0  0  0  0  0  0  0  0
  161.0700  213.2680  149.2920 C   0  0  0  0  0  0  0  0  0  0  0  0
  159.5250  214.3670  150.8810 C   0  0  0  0  0  1  0  0  0  0  0  0
  160.2630  214.3450  149.6660 O   0  0  0  0  0  0  0  0  0  0  0  0
  161.1720  203.5560  149.7440 C   0  0  0  0  0  2  0  0  0  0  0  0
  160.8320  202.4990  150.7710 C   0  0  0  0  0  2  0  0  0  0  0  0
  161.4060  202.8390  151.9950 O   0  0  0  0  0  1  0  0  0  0  0  0
  1  3  1  6  0  0  0
  1 14  1  0  0  0  0
  1  4  1  0  0  0  0
  2 15  1  0  0  0  0
  4  7  2  0  0  0  0
  5 11  2  0  0  0  0
  6 18  1  0  0  0  0
  7  2  1  0  0  0  0
  7  5  1  0  0  0  0
  8 18  1  0  0  0  0
  9  8  1  0  0  0  0
 10 16  1  0  0  0  0
 10  4  1  0  0  0  0
 11  9  1  0  0  0  0
 12 10  2  0  0  0  0
 13  2  2  0  0  0  0
 14 13  1  0  0  0  0
 15 19  1  0  0  0  0
 15  9  2  0  0  0  0
 17  3  2  0  0  0  0
 17 12  1  0  0  0  0
 19  6  1  0  0  0  0
 20 23  2  0  0  0  0
 20 25  1  0  0  0  0
 21 20  1  0  0  0  0
 22 24  1  0  0  0  0
 22 14  1  0  0  0  0
 23 27  1  0  0  0  0
 25 22  2  0  0  0  0
 26 25  1  0  0  0  0
 27 29  1  0  0  0  0
 27 24  2  0  0  0  0
 29 28  1  0  0  0  0
 30 16  1  0  0  0  0
 30 31  1  0  0  0  0
 31 32  1  0  0  0  0
M  END
>  <MODEL>
4

>  <REMARK>
 VINA RESULT:      -7.7      2.756      6.741
  Name = 
  4 active torsions:
  status: ('A' for Active; 'I' for Inactive)
    1  A    between atoms: C_13  and  C_18
    2  A    between atoms: O_15  and  C_26
    3  A    between atoms: C_16  and  N_27
    4  A    between atoms: C_18  and  N_29
                            x       y       z     vdW  Elec       q    Type
                         _______ _______ _______ _____ _____    ______ ____

>  <TORSDO>
F 4

$$$$
=
 OpenBabel11062408273D

 32 36  0  0  0  0  0  0  0  0999 V2000
  161.0610  209.4060  152.1260 C   0  0  0  0  0  0  0  0  0  0  0  0
  161.1380  206.8490  150.9650 C   0  0  0  0  0  0  0  0  0  0  0  0
  160.9870  210.6850  152.6910 C   0  0  0  0  0  3  0  0  0  0  0  0
  161.3630  209.2750  150.6650 C   0  0  0  0  0  0  0  0  0  0  0  0
  161.6550  207.7220  148.7650 C   0  0  0  0  0  3  0  0  0  0  0  0
  161.2950  203.0300  150.7580 C   0  0  0  0  0  2  0  0  0  0  0  0
  161.3910  207.9610  150.1230 C   0  0  0  0  0  0  0  0  0  0  0  0
  161.5190  203.9640  148.4660 C   0  0  0  0  0  2  0  0  0  0  0  0
  161.4100  205.3380  149.0650 C   0  0  0  0  0  0  0  0  0  0  0  0
  161.5910  210.4690  149.9190 C   0  0  0  0  0  0  0  0  0  0  0  0
  161.6710  206.4320  148.2450 C   0  0  0  0  0  3  0  0  0  0  0  0
  161.5080  211.7120  150.5690 C   0  0  0  0  0  3  0  0  0  0  0  0
  160.8680  207.0520  152.3210 C   0  0  0  0  0  3  0  0  0  0  0  0
  160.8390  208.2860  152.8840 N   0  0  0  0  0  0  0  0  0  0  0  0
  161.1580  205.5360  150.4410 C   0  0  0  0  0  0  0  0  0  0  0  0
  161.8730  210.4240  148.6490 N   0  0  0  0  0  0  0  0  0  0  0  0
  161.2090  211.8200  151.9240 C   0  0  0  0  0  3  0  0  0  0  0  0
  160.8310  202.9010  149.3160 C   0  0  0  0  0  2  0  0  0  0  0  0
  160.8080  204.3580  151.3260 C   0  0  0  0  0  2  0  0  0  0  0  0
  160.3680  207.3030  156.4730 C   0  0  0  0  0  0  0  0  0  0  0  0
  160.4590  206.2030  157.2610 F   0  0  0  0  0  0  0  0  0  0  0  0
  160.5600  208.3590  154.2930 C   0  0  0  0  0  0  0  0  0  0  0  0
  159.9800  208.5230  157.0300 C   0  0  0  0  0  3  0  0  0  0  0  0
  160.1590  209.5780  154.8610 C   0  0  0  0  0  3  0  0  0  0  0  0
  160.6540  207.2150  155.1050 C   0  0  0  0  0  0  0  0  0  0  0  0
  161.0030  206.0190  154.5690 F   0  0  0  0  0  0  0  0  0  0  0  0
  159.8720  209.6680  156.2260 C   0  0  0  0  0  0  0  0  0  0  0  0
  160.1010  212.1260  156.3840 C   0  0  0  0  0  1  0  0  0  0  0  0
  159.4820  210.9010  156.7540 O   0  0  0  0  0  0  0  0  0  0  0  0
  162.1190  211.5910  147.8110 C   0  0  0  0  0  2  0  0  0  0  0  0
  160.8310  212.0040  147.1340 C   0  0  0  0  0  2  0  0  0  0  0  0
  160.4160  213.2360  147.6370 O   0  0  0  0  0  1  0  0  0  0  0  0
  1  3  2  0  0  0  0
  1 14  1  0  0  0  0
  2 13  2  0  0  0  0
  4  1  1  0  0  0  0
  5  7  1  0  0  0  0
  6 19  1  0  0  0  0
  7  4  2  0  0  0  0
  7  2  1  0  0  0  0
  8  9  1  0  0  0  0
  8 18  1  0  0  0  0
  9 15  2  0  0  0  0
 10 12  1  0  0  0  0
 10  4  1  0  0  0  0
 11  5  2  0  0  0  0
 11  9  1  0  0  0  0
 12 17  2  0  0  0  0
 13 14  1  0  0  0  0
 14 22  1  0  0  0  0
 15  2  1  0  0  0  0
 15 19  1  0  0  0  0
 16 10  2  0  0  0  0
 17  3  1  0  0  0  0
 18  6  1  0  0  0  0
 20 23  1  0  0  0  0
 20 21  1  0  0  0  0
 22 24  2  0  0  0  0
 22 25  1  0  0  0  0
 24 27  1  0  0  0  0
 25 20  2  0  0  0  0
 26 25  1  0  0  0  0
 27 29  1  0  0  0  0
 27 23  2  0  0  0  0
 28 29  1  0  0  0  0
 30 16  1  0  0  0  0
 31 32  1  0  0  0  0
 31 30  1  0  0  0  0
M  END
>  <MODEL>
5

>  <REMARK>
 VINA RESULT:      -7.7      2.381      6.234
  Name = 
  4 active torsions:
  status: ('A' for Active; 'I' for Inactive)
    1  A    between atoms: C_13  and  C_18
    2  A    between atoms: O_15  and  C_26
    3  A    between atoms: C_16  and  N_27
    4  A    between atoms: C_18  and  N_29
                            x       y       z     vdW  Elec       q    Type
                         _______ _______ _______ _____ _____    ______ ____

>  <TORSDO>
F 4

$$$$
=
 OpenBabel11062408273D

 32 36  0  0  0  0  0  0  0  0999 V2000
  161.0280  208.2560  153.1500 C   0  0  0  0  0  0  0  0  0  0  0  0
  161.4330  209.8920  150.9030 C   0  0  0  0  0  0  0  0  0  0  0  0
  160.8640  207.4350  154.2730 C   0  0  0  0  0  3  0  0  0  0  0  0
  161.2860  207.6190  151.8190 C   0  0  0  0  0  0  0  0  0  0  0  0
  161.7430  208.0020  149.4200 C   0  0  0  0  0  3  0  0  0  0  0  0
  161.4380  213.0590  148.7520 C   0  0  0  0  0  2  0  0  0  0  0  0
  161.4850  208.4890  150.7120 C   0  0  0  0  0  0  0  0  0  0  0  0
  162.0520  211.1220  147.3220 C   0  0  0  0  0  2  0  0  0  0  0  0
  161.9070  210.2420  148.5320 C   0  0  0  0  0  0  0  0  0  0  0  0
  161.3250  206.1950  151.7540 C   0  0  0  0  0  0  0  0  0  0  0  0
  161.9440  208.8630  148.3460 C   0  0  0  0  0  3  0  0  0  0  0  0
  161.1390  205.4480  152.9300 C   0  0  0  0  0  3  0  0  0  0  0  0
  161.1820  210.4110  152.1760 C   0  0  0  0  0  3  0  0  0  0  0  0
  160.9780  209.6200  153.2600 N   0  0  0  0  0  0  0  0  0  0  0  0
  161.6320  210.7710  149.8130 C   0  0  0  0  0  0  0  0  0  0  0  0
  161.5300  205.5800  150.6250 N   0  0  0  0  0  0  0  0  0  0  0  0
  160.9170  206.0530  154.1620 C   0  0  0  0  0  3  0  0  0  0  0  0
  162.4010  212.5610  147.6870 C   0  0  0  0  0  2  0  0  0  0  0  0
  161.6550  212.2680  150.0370 C   0  0  0  0  0  2  0  0  0  0  0  0
  161.5040  211.4170  156.5110 C   0  0  0  0  0  0  0  0  0  0  0  0
  162.5180  211.9140  157.2610 F   0  0  0  0  0  0  0  0  0  0  0  0
  160.7190  210.2770  154.5130 C   0  0  0  0  0  0  0  0  0  0  0  0
  160.1890  211.5270  156.9650 C   0  0  0  0  0  3  0  0  0  0  0  0
  159.4020  210.3840  154.9840 C   0  0  0  0  0  3  0  0  0  0  0  0
  161.7740  210.7890  155.2890 C   0  0  0  0  0  0  0  0  0  0  0  0
  163.0590  210.6630  154.8690 F   0  0  0  0  0  0  0  0  0  0  0  0
  159.1290  211.0090  156.2040 C   0  0  0  0  0  0  0  0  0  0  0  0
  156.7210  211.3430  155.7460 C   0  0  0  0  0  1  0  0  0  0  0  0
  157.8030  211.1010  156.6350 O   0  0  0  0  0  0  0  0  0  0  0  0
  161.5860  204.1320  150.4670 C   0  0  0  0  0  2  0  0  0  0  0  0
  160.8790  203.7380  149.1880 C   0  0  0  0  0  2  0  0  0  0  0  0
  161.1500  204.6820  148.1980 O   0  0  0  0  0  1  0  0  0  0  0  0
  1 14  1  0  0  0  0
  1  3  2  0  0  0  0
  2 13  2  0  0  0  0
  4  1  1  0  0  0  0
  5  7  1  0  0  0  0
  6 19  1  0  0  0  0
  7  2  1  0  0  0  0
  7  4  2  0  0  0  0
  8 18  1  0  0  0  0
  8  9  1  0  0  0  0
  9 15  2  0  0  0  0
 10  4  1  0  0  0  0
 10 12  1  0  0  0  0
 11  9  1  0  0  0  0
 11  5  2  0  0  0  0
 12 17  2  0  0  0  0
 13 14  1  0  0  0  0
 14 22  1  0  0  0  0
 15 19  1  0  0  0  0
 15  2  1  0  0  0  0
 16 10  2  0  0  0  0
 17  3  1  0  0  0  0
 18  6  1  0  0  0  0
 20 23  1  0  0  0  0
 20 21  1  0  0  0  0
 22 24  2  0  0  0  0
 22 25  1  0  0  0  0
 24 27  1  0  0  0  0
 25 20  2  0  0  0  0
 26 25  1  0  0  0  0
 27 29  1  0  0  0  0
 27 23  2  0  0  0  0
 28 29  1  0  0  0  0
 30 16  1  0  0  0  0
 31 30  1  0  0  0  0
 32 31  1  0  0  0  0
M  END
>  <MODEL>
6

>  <REMARK>
 VINA RESULT:      -7.4      3.109      7.816
  Name = 
  4 active torsions:
  status: ('A' for Active; 'I' for Inactive)
    1  A    between atoms: C_13  and  C_18
    2  A    between atoms: O_15  and  C_26
    3  A    between atoms: C_16  and  N_27
    4  A    between atoms: C_18  and  N_29
                            x       y       z     vdW  Elec       q    Type
                         _______ _______ _______ _____ _____    ______ ____

>  <TORSDO>
F 4

$$$$
=
 OpenBabel11062408273D

 32 36  0  0  0  0  0  0  0  0999 V2000
  161.2230  206.3350  152.3860 C   0  0  0  0  0  0  0  0  0  0  0  0
  161.4840  208.6490  150.8150 C   0  0  0  0  0  0  0  0  0  0  0  0
  161.1310  205.1760  153.1670 C   0  0  0  0  0  3  0  0  0  0  0  0
  161.3070  206.2020  150.8970 C   0  0  0  0  0  0  0  0  0  0  0  0
  161.5340  207.3930  148.7430 C   0  0  0  0  0  3  0  0  0  0  0  0
  161.4430  212.3680  149.9080 C   0  0  0  0  0  2  0  0  0  0  0  0
  161.4380  207.4010  150.1440 C   0  0  0  0  0  0  0  0  0  0  0  0
  161.7980  211.0450  147.8350 C   0  0  0  0  0  2  0  0  0  0  0  0
  161.7300  209.7990  148.6730 C   0  0  0  0  0  0  0  0  0  0  0  0
  161.2590  204.8900  150.3390 C   0  0  0  0  0  0  0  0  0  0  0  0
  161.6710  208.5720  148.0180 C   0  0  0  0  0  3  0  0  0  0  0  0
  161.1550  203.7810  151.1960 C   0  0  0  0  0  3  0  0  0  0  0  0
  161.3950  208.6920  152.2080 C   0  0  0  0  0  3  0  0  0  0  0  0
  161.2600  207.5750  152.9670 N   0  0  0  0  0  0  0  0  0  0  0  0
  161.6180  209.8500  150.0810 C   0  0  0  0  0  0  0  0  0  0  0  0
  161.3120  204.7060  149.0510 N   0  0  0  0  0  0  0  0  0  0  0  0
  161.0950  203.9190  152.5790 C   0  0  0  0  0  3  0  0  0  0  0  0
  162.2610  212.2590  148.6330 C   0  0  0  0  0  2  0  0  0  0  0  0
  161.7470  211.1730  150.8060 C   0  0  0  0  0  2  0  0  0  0  0  0
  160.1290  207.2520  156.5290 C   0  0  0  0  0  0  0  0  0  0  0  0
  159.2080  206.5780  157.2610 F   0  0  0  0  0  0  0  0  0  0  0  0
  161.1690  207.7560  154.3910 C   0  0  0  0  0  0  0  0  0  0  0  0
  160.9930  208.1490  157.1610 C   0  0  0  0  0  3  0  0  0  0  0  0
  162.0250  208.6620  155.0340 C   0  0  0  0  0  3  0  0  0  0  0  0
  160.2100  207.0560  155.1450 C   0  0  0  0  0  0  0  0  0  0  0  0
  159.3480  206.2030  154.5380 F   0  0  0  0  0  0  0  0  0  0  0  0
  161.9460  208.8610  156.4150 C   0  0  0  0  0  0  0  0  0  0  0  0
  162.5180  211.1500  157.1590 C   0  0  0  0  0  1  0  0  0  0  0  0
  162.8200  209.7680  157.0190 O   0  0  0  0  0  0  0  0  0  0  0  0
  161.2710  203.4050  148.3950 C   0  0  0  0  0  2  0  0  0  0  0  0
  161.5760  203.5740  146.9230 C   0  0  0  0  0  2  0  0  0  0  0  0
  162.4530  204.6430  146.7500 O   0  0  0  0  0  1  0  0  0  0  0  0
  1 14  1  0  0  0  0
  1  3  2  0  0  0  0
  2 13  2  0  0  0  0
  4  1  1  0  0  0  0
  5  7  1  0  0  0  0
  6 19  1  0  0  0  0
  7  2  1  0  0  0  0
  7  4  2  0  0  0  0
  8 18  1  0  0  0  0
  8  9  1  0  0  0  0
  9 15  2  0  0  0  0
 10  4  1  0  0  0  0
 10 12  1  0  0  0  0
 11  9  1  0  0  0  0
 11  5  2  0  0  0  0
 12 17  2  0  0  0  0
 13 14  1  0  0  0  0
 14 22  1  0  0  0  0
 15 19  1  0  0  0  0
 15  2  1  0  0  0  0
 16 10  2  0  0  0  0
 17  3  1  0  0  0  0
 18  6  1  0  0  0  0
 20 23  1  0  0  0  0
 20 21  1  0  0  0  0
 22 24  2  0  0  0  0
 22 25  1  0  0  0  0
 24 27  1  0  0  0  0
 25 20  2  0  0  0  0
 26 25  1  0  0  0  0
 27 29  1  0  0  0  0
 27 23  2  0  0  0  0
 29 28  1  0  0  0  0
 30 16  1  0  0  0  0
 31 30  1  0  0  0  0
 32 31  1  0  0  0  0
M  END
>  <MODEL>
7

>  <REMARK>
 VINA RESULT:      -6.9      2.454      6.894
  Name = 
  4 active torsions:
  status: ('A' for Active; 'I' for Inactive)
    1  A    between atoms: C_13  and  C_18
    2  A    between atoms: O_15  and  C_26
    3  A    between atoms: C_16  and  N_27
    4  A    between atoms: C_18  and  N_29
                            x       y       z     vdW  Elec       q    Type
                         _______ _______ _______ _____ _____    ______ ____

>  <TORSDO>
F 4

$$$$
