=
 OpenBabel11062409343D

 34 38  0  0  1  0  0  0  0  0999 V2000
  159.4820  211.4600  153.3150 C   0  0  1  0  0  3  0  0  0  0  0  0
  157.3510  214.0010  151.5810 C   0  0  0  0  0  3  0  0  0  0  0  0
  158.8000  213.3230  148.1440 C   0  0  0  0  0  0  0  0  0  0  0  0
  158.1560  213.9520  153.7970 O   0  0  0  0  0  0  0  0  0  0  0  0
  160.5920  211.7870  155.5700 C   0  0  0  0  0  3  0  0  0  0  0  0
  160.0260  213.6770  156.9710 C   0  0  0  0  0  3  0  0  0  0  0  0
  160.1220  213.3370  147.4440 C   0  0  0  0  0  1  0  0  0  0  0  0
  160.7410  212.4940  156.7660 C   0  0  0  0  0  3  0  0  0  0  0  0
  159.0180  213.4550  154.7780 C   0  0  0  0  0  0  0  0  0  0  0  0
  159.7450  212.2700  154.5600 C   0  0  0  0  0  0  0  0  0  0  0  0
  159.1630  214.1530  155.9810 C   0  0  0  0  0  3  0  0  0  0  0  0
  157.3350  213.5560  150.1420 C   0  0  0  0  0  2  0  0  0  0  0  0
  157.5920  213.0250  147.3120 C   0  0  0  0  0  1  0  0  0  0  0  0
  158.6970  213.5900  149.4650 C   0  0  0  0  0  0  0  0  0  0  0  0
  159.9380  213.9250  150.2670 C   0  0  0  0  0  2  0  0  0  0  0  0
  158.1390  213.4360  152.4970 C   0  0  0  0  0  0  0  0  0  0  0  0
  160.2930  212.8630  151.3200 C   0  0  0  0  0  2  0  0  0  0  0  0
  159.0840  212.3260  152.1060 C   0  0  1  0  0  3  0  0  0  0  0  0
  160.6060  210.5880  152.9880 N   0  0  0  0  0  2  0  0  0  0  0  0
  161.8600  205.9200  152.5520 C   0  0  0  0  0  2  0  0  0  0  0  0
  161.2640  208.6500  150.8880 C   0  0  0  0  0  2  0  0  0  0  0  0
  160.2020  209.2240  153.2910 C   0  0  1  0  0  3  0  0  0  0  0  0
  162.7130  206.5790  151.4400 C   0  0  0  0  0  2  0  0  0  0  0  0
  160.3800  208.3310  152.0730 C   0  0  2  0  0  3  0  0  0  0  0  0
  161.8690  207.3270  150.3800 C   0  0  2  0  0  3  0  0  0  0  0  0
  161.4030  208.3180  153.1920 C   0  0  2  0  0  3  0  0  0  0  0  0
  161.3690  206.8770  153.6670 C   0  0  0  0  0  2  0  0  0  0  0  0
  162.6620  207.5960  149.2640 O   0  0  0  0  0  0  0  0  0  0  0  0
  161.8390  207.3480  148.1580 C   0  0  0  0  0  2  0  0  0  0  0  0
  162.0220  205.9220  147.6510 C   0  0  2  0  0  3  0  0  0  0  0  0
  162.2260  205.9010  146.1480 C   0  0  0  0  0  1  0  0  0  0  0  0
  160.8720  205.1120  148.0080 N   0  0  0  0  0  2  0  0  0  0  0  0
  161.3460  204.0630  148.8050 N   0  0  0  0  0  2  0  0  0  0  0  0
  161.2740  202.9400  148.0510 O   0  0  0  0  0  1  0  0  0  0  0  0
  1 19  1  6  0  0  0
  1 10  1  0  0  0  0
  2 16  2  0  0  0  0
  3 14  2  0  0  0  0
  4  9  1  0  0  0  0
  5  8  1  0  0  0  0
  7  3  1  0  0  0  0
  8  6  2  0  0  0  0
  9 11  2  0  0  0  0
 10  9  1  0  0  0  0
 10  5  2  0  0  0  0
 11  6  1  0  0  0  0
 12  2  1  0  0  0  0
 13  3  1  0  0  0  0
 14 12  1  0  0  0  0
 14 15  1  0  0  0  0
 15 17  1  0  0  0  0
 16  4  1  0  0  0  0
 18 17  1  1  0  0  0
 18 16  1  0  0  0  0
 18  1  1  0  0  0  0
 20 27  1  0  0  0  0
 22 19  1  6  0  0  0
 23 20  1  0  0  0  0
 24 21  1  6  0  0  0
 24 26  1  0  0  0  0
 24 22  1  0  0  0  0
 25 28  1  6  0  0  0
 25 21  1  0  0  0  0
 25 23  1  0  0  0  0
 26 22  1  0  0  0  0
 26 27  1  1  0  0  0
 29 28  1  0  0  0  0
 30 31  1  6  0  0  0
 30 32  1  0  0  0  0
 30 29  1  0  0  0  0
 32 33  1  0  0  0  0
 34 33  1  0  0  0  0
M  END
>  <MODEL>
1

>  <REMARK>
 VINA RESULT:      -6.9      0.000      0.000
  Name = 
  7 active torsions:
  status: ('A' for Active; 'I' for Inactive)
    1  A    between atoms: C_1  and  N_9
    2  A    between atoms: C_7  and  N_21
    3  A    between atoms: C_7  and  C_29
    4  A    between atoms: C_8  and  N_9
    5  A    between atoms: N_11  and  N_21
    6  A    between atoms: O_26  and  C_28
    7  A    between atoms: O_26  and  C_29
                            x       y       z     vdW  Elec       q    Type
                         _______ _______ _______ _____ _____    ______ ____

>  <TORSDO>
F 7

$$$$
=
 OpenBabel11062409343D

 34 38  0  0  1  0  0  0  0  0999 V2000
  160.7040  208.3930  152.4660 C   0  0  1  0  0  3  0  0  0  0  0  0
  159.9930  212.0200  151.8810 C   0  0  0  0  0  3  0  0  0  0  0  0
  161.7160  212.1300  148.5060 C   0  0  0  0  0  0  0  0  0  0  0  0
  160.2970  210.8390  153.8990 O   0  0  0  0  0  0  0  0  0  0  0  0
  161.4150  207.3880  154.6820 C   0  0  0  0  0  3  0  0  0  0  0  0
  161.3150  208.6850  156.7240 C   0  0  0  0  0  3  0  0  0  0  0  0
  163.0610  211.8650  147.9070 C   0  0  0  0  0  1  0  0  0  0  0  0
  161.5810  207.4810  156.0670 C   0  0  0  0  0  3  0  0  0  0  0  0
  160.7230  209.7130  154.6100 C   0  0  0  0  0  0  0  0  0  0  0  0
  161.0020  208.5070  153.9410 C   0  0  0  0  0  0  0  0  0  0  0  0
  160.8820  209.7970  155.9960 C   0  0  0  0  0  3  0  0  0  0  0  0
  160.0880  212.1830  150.3870 C   0  0  0  0  0  2  0  0  0  0  0  0
  160.6600  212.6750  147.5960 C   0  0  0  0  0  1  0  0  0  0  0  0
  161.4710  211.9100  149.8170 C   0  0  0  0  0  0  0  0  0  0  0  0
  162.5770  211.3930  150.7160 C   0  0  0  0  0  2  0  0  0  0  0  0
  160.3380  210.8910  152.5030 C   0  0  0  0  0  0  0  0  0  0  0  0
  162.3220  209.9730  151.2470 C   0  0  0  0  0  2  0  0  0  0  0  0
  160.8770  209.7240  151.7120 C   0  0  1  0  0  3  0  0  0  0  0  0
  161.4780  207.3290  151.8380 N   0  0  0  0  0  2  0  0  0  0  0  0
  160.7720  203.0780  149.6020 C   0  0  0  0  0  2  0  0  0  0  0  0
  161.0150  206.2880  149.1350 C   0  0  0  0  0  2  0  0  0  0  0  0
  160.6360  206.1440  151.7940 C   0  0  1  0  0  3  0  0  0  0  0  0
  161.6290  203.8410  148.5630 C   0  0  0  0  0  2  0  0  0  0  0  0
  160.2690  205.8010  150.3580 C   0  0  2  0  0  3  0  0  0  0  0  0
  160.9820  205.1630  148.0830 C   0  0  2  0  0  3  0  0  0  0  0  0
  161.3690  205.0400  151.0730 C   0  0  2  0  0  3  0  0  0  0  0  0
  160.8620  203.6110  151.0550 C   0  0  0  0  0  2  0  0  0  0  0  0
  161.6360  205.6060  146.9320 O   0  0  0  0  0  0  0  0  0  0  0  0
  162.1230  204.4470  146.3150 C   0  0  0  0  0  2  0  0  0  0  0  0
  161.6170  204.3390  144.8810 C   0  0  2  0  0  3  0  0  0  0  0  0
  161.2590  205.7050  144.3260 C   0  0  0  0  0  1  0  0  0  0  0  0
  160.4630  203.4610  144.8210 N   0  0  0  0  0  2  0  0  0  0  0  0
  160.8230  202.2730  145.4680 N   0  0  0  0  0  2  0  0  0  0  0  0
  160.0050  201.3070  144.9890 O   0  0  0  0  0  1  0  0  0  0  0  0
  1 19  1  6  0  0  0
  1 10  1  0  0  0  0
  2 16  2  0  0  0  0
  3 14  2  0  0  0  0
  4  9  1  0  0  0  0
  5  8  1  0  0  0  0
  7  3  1  0  0  0  0
  8  6  2  0  0  0  0
  9 11  2  0  0  0  0
 10  9  1  0  0  0  0
 10  5  2  0  0  0  0
 11  6  1  0  0  0  0
 12  2  1  0  0  0  0
 13  3  1  0  0  0  0
 14 12  1  0  0  0  0
 14 15  1  0  0  0  0
 15 17  1  0  0  0  0
 16  4  1  0  0  0  0
 18 17  1  1  0  0  0
 18  1  1  0  0  0  0
 18 16  1  0  0  0  0
 20 27  1  0  0  0  0
 22 19  1  6  0  0  0
 23 20  1  0  0  0  0
 24 21  1  6  0  0  0
 24 26  1  0  0  0  0
 24 22  1  0  0  0  0
 25 28  1  6  0  0  0
 25 23  1  0  0  0  0
 25 21  1  0  0  0  0
 26 27  1  1  0  0  0
 26 22  1  0  0  0  0
 29 28  1  0  0  0  0
 30 31  1  1  0  0  0
 30 29  1  0  0  0  0
 32 30  1  0  0  0  0
 32 33  1  0  0  0  0
 34 33  1  0  0  0  0
M  END
>  <MODEL>
2

>  <REMARK>
 VINA RESULT:      -6.6      2.528      3.693
  Name = 
  7 active torsions:
  status: ('A' for Active; 'I' for Inactive)
    1  A    between atoms: C_1  and  N_9
    2  A    between atoms: C_7  and  N_21
    3  A    between atoms: C_7  and  C_29
    4  A    between atoms: C_8  and  N_9
    5  A    between atoms: N_11  and  N_21
    6  A    between atoms: O_26  and  C_28
    7  A    between atoms: O_26  and  C_29
                            x       y       z     vdW  Elec       q    Type
                         _______ _______ _______ _____ _____    ______ ____

>  <TORSDO>
F 7

$$$$
=
 OpenBabel11062409343D

 34 38  0  0  1  0  0  0  0  0999 V2000
  160.1030  210.3180  153.6170 C   0  0  1  0  0  3  0  0  0  0  0  0
  157.9730  213.3830  153.3370 C   0  0  0  0  0  3  0  0  0  0  0  0
  158.1430  213.5290  149.5520 C   0  0  0  0  0  0  0  0  0  0  0  0
  159.4140  212.6880  155.0700 O   0  0  0  0  0  0  0  0  0  0  0  0
  161.9010  209.9500  155.3650 C   0  0  0  0  0  3  0  0  0  0  0  0
  162.1150  211.4400  157.2610 C   0  0  0  0  0  3  0  0  0  0  0  0
  159.1630  213.6260  148.4630 C   0  0  0  0  0  1  0  0  0  0  0  0
  162.5280  210.3020  156.5630 C   0  0  0  0  0  3  0  0  0  0  0  0
  160.4480  211.8840  155.5580 C   0  0  0  0  0  0  0  0  0  0  0  0
  160.8690  210.7460  154.8430 C   0  0  0  0  0  0  0  0  0  0  0  0
  161.0730  212.2260  156.7610 C   0  0  0  0  0  3  0  0  0  0  0  0
  157.4360  213.3370  151.9310 C   0  0  0  0  0  2  0  0  0  0  0  0
  156.7040  213.5550  149.1420 C   0  0  0  0  0  1  0  0  0  0  0  0
  158.5040  213.4440  150.8520 C   0  0  0  0  0  0  0  0  0  0  0  0
  159.9710  213.4590  151.2320 C   0  0  0  0  0  2  0  0  0  0  0  0
  158.9070  212.5360  153.7750 C   0  0  0  0  0  0  0  0  0  0  0  0
  160.4620  212.1320  151.8330 C   0  0  0  0  0  2  0  0  0  0  0  0
  159.4900  211.5010  152.8450 C   0  0  1  0  0  3  0  0  0  0  0  0
  160.9110  209.4800  152.7380 N   0  0  0  0  0  2  0  0  0  0  0  0
  161.8700  204.8610  151.5950 C   0  0  0  0  0  2  0  0  0  0  0  0
  161.1710  207.7870  150.3580 C   0  0  0  0  0  2  0  0  0  0  0  0
  160.4910  208.1020  152.9410 C   0  0  1  0  0  3  0  0  0  0  0  0
  162.5850  205.6220  150.4520 C   0  0  0  0  0  2  0  0  0  0  0  0
  160.4510  207.3550  151.6160 C   0  0  2  0  0  3  0  0  0  0  0  0
  161.6340  206.5160  149.6200 C   0  0  2  0  0  3  0  0  0  0  0  0
  161.6220  207.1780  152.5640 C   0  0  2  0  0  3  0  0  0  0  0  0
  161.5890  205.6930  152.8720 C   0  0  0  0  0  2  0  0  0  0  0  0
  162.2710  206.8920  148.4360 O   0  0  0  0  0  0  0  0  0  0  0  0
  161.5970  206.2040  147.4190 C   0  0  0  0  0  2  0  0  0  0  0  0
  162.2160  204.8310  147.1860 C   0  0  2  0  0  3  0  0  0  0  0  0
  163.1460  204.8500  145.9870 C   0  0  0  0  0  1  0  0  0  0  0  0
  161.1760  203.8380  146.9920 N   0  0  0  0  0  2  0  0  0  0  0  0
  160.9560  203.2320  148.2350 N   0  0  0  0  0  2  0  0  0  0  0  0
  161.2790  201.9250  148.0920 O   0  0  0  0  0  1  0  0  0  0  0  0
  1 19  1  6  0  0  0
  1 10  1  0  0  0  0
  2 16  2  0  0  0  0
  3 14  2  0  0  0  0
  4  9  1  0  0  0  0
  5  8  1  0  0  0  0
  7  3  1  0  0  0  0
  8  6  2  0  0  0  0
  9 11  2  0  0  0  0
 10  5  2  0  0  0  0
 10  9  1  0  0  0  0
 11  6  1  0  0  0  0
 12  2  1  0  0  0  0
 13  3  1  0  0  0  0
 14 15  1  0  0  0  0
 14 12  1  0  0  0  0
 15 17  1  0  0  0  0
 16  4  1  0  0  0  0
 18 17  1  1  0  0  0
 18  1  1  0  0  0  0
 18 16  1  0  0  0  0
 20 27  1  0  0  0  0
 22 19  1  6  0  0  0
 23 20  1  0  0  0  0
 24 21  1  6  0  0  0
 24 26  1  0  0  0  0
 24 22  1  0  0  0  0
 25 28  1  6  0  0  0
 25 21  1  0  0  0  0
 25 23  1  0  0  0  0
 26 27  1  1  0  0  0
 26 22  1  0  0  0  0
 29 28  1  0  0  0  0
 30 31  1  6  0  0  0
 30 29  1  0  0  0  0
 32 30  1  0  0  0  0
 32 33  1  0  0  0  0
 34 33  1  0  0  0  0
M  END
>  <MODEL>
3

>  <REMARK>
 VINA RESULT:      -6.1      1.241      1.681
  Name = 
  7 active torsions:
  status: ('A' for Active; 'I' for Inactive)
    1  A    between atoms: C_1  and  N_9
    2  A    between atoms: C_7  and  N_21
    3  A    between atoms: C_7  and  C_29
    4  A    between atoms: C_8  and  N_9
    5  A    between atoms: N_11  and  N_21
    6  A    between atoms: O_26  and  C_28
    7  A    between atoms: O_26  and  C_29
                            x       y       z     vdW  Elec       q    Type
                         _______ _______ _______ _____ _____    ______ ____

>  <TORSDO>
F 7

$$$$
=
 OpenBabel11062409343D

 34 38  0  0  1  0  0  0  0  0999 V2000
  160.6780  208.4830  152.7300 C   0  0  1  0  0  3  0  0  0  0  0  0
  160.0810  212.1050  152.0030 C   0  0  0  0  0  3  0  0  0  0  0  0
  161.6640  211.9920  148.5610 C   0  0  0  0  0  0  0  0  0  0  0  0
  160.4250  211.0060  154.0610 O   0  0  0  0  0  0  0  0  0  0  0  0
  161.4430  207.5530  154.9610 C   0  0  0  0  0  3  0  0  0  0  0  0
  161.4780  208.9450  156.9410 C   0  0  0  0  0  3  0  0  0  0  0  0
  162.9710  211.6470  147.9210 C   0  0  0  0  0  1  0  0  0  0  0  0
  161.6710  207.7020  156.3320 C   0  0  0  0  0  3  0  0  0  0  0  0
  160.8380  209.8980  154.8070 C   0  0  0  0  0  0  0  0  0  0  0  0
  161.0430  208.6520  154.1840 C   0  0  0  0  0  0  0  0  0  0  0  0
  161.0580  210.0390  156.1800 C   0  0  0  0  0  3  0  0  0  0  0  0
  160.1190  212.1960  150.5010 C   0  0  0  0  0  2  0  0  0  0  0  0
  160.5920  212.5370  147.6690 C   0  0  0  0  0  1  0  0  0  0  0  0
  161.4670  211.8420  149.8890 C   0  0  0  0  0  0  0  0  0  0  0  0
  162.5880  211.3240  150.7660 C   0  0  0  0  0  2  0  0  0  0  0  0
  160.4100  210.9930  152.6630 C   0  0  0  0  0  0  0  0  0  0  0  0
  162.3030  209.9410  151.3730 C   0  0  0  0  0  2  0  0  0  0  0  0
  160.8700  209.7710  151.9080 C   0  0  1  0  0  3  0  0  0  0  0  0
  161.3850  207.3610  152.1220 N   0  0  0  0  0  2  0  0  0  0  0  0
  160.8420  202.7030  150.8700 C   0  0  0  0  0  2  0  0  0  0  0  0
  161.0290  205.7350  149.7070 C   0  0  0  0  0  2  0  0  0  0  0  0
  160.5710  206.1730  152.3210 C   0  0  1  0  0  3  0  0  0  0  0  0
  161.7150  203.2400  149.7100 C   0  0  0  0  0  2  0  0  0  0  0  0
  160.2560  205.5100  150.9880 C   0  0  2  0  0  3  0  0  0  0  0  0
  161.0540  204.4040  148.9320 C   0  0  2  0  0  3  0  0  0  0  0  0
  161.3500  204.9580  151.8830 C   0  0  2  0  0  3  0  0  0  0  0  0
  160.8740  203.5470  152.1700 C   0  0  0  0  0  2  0  0  0  0  0  0
  161.7340  204.5990  147.7280 O   0  0  0  0  0  0  0  0  0  0  0  0
  161.3240  203.5480  146.8970 C   0  0  0  0  0  2  0  0  0  0  0  0
  161.8350  203.7460  145.4750 C   0  0  2  0  0  3  0  0  0  0  0  0
  163.0600  204.6400  145.4570 C   0  0  0  0  0  1  0  0  0  0  0  0
  160.7920  204.3170  144.6430 N   0  0  0  0  0  2  0  0  0  0  0  0
  161.0580  205.6870  144.5390 N   0  0  0  0  0  2  0  0  0  0  0  0
  160.0830  206.3250  145.2280 O   0  0  0  0  0  1  0  0  0  0  0  0
  1 19  1  6  0  0  0
  1 10  1  0  0  0  0
  2 16  2  0  0  0  0
  3 14  2  0  0  0  0
  4  9  1  0  0  0  0
  5  8  1  0  0  0  0
  7  3  1  0  0  0  0
  8  6  2  0  0  0  0
  9 11  2  0  0  0  0
 10  9  1  0  0  0  0
 10  5  2  0  0  0  0
 11  6  1  0  0  0  0
 12  2  1  0  0  0  0
 13  3  1  0  0  0  0
 14 12  1  0  0  0  0
 14 15  1  0  0  0  0
 15 17  1  0  0  0  0
 16  4  1  0  0  0  0
 18 17  1  1  0  0  0
 18 16  1  0  0  0  0
 18  1  1  0  0  0  0
 20 27  1  0  0  0  0
 22 19  1  6  0  0  0
 23 20  1  0  0  0  0
 24 21  1  6  0  0  0
 24 26  1  0  0  0  0
 24 22  1  0  0  0  0
 25 28  1  6  0  0  0
 25 21  1  0  0  0  0
 25 23  1  0  0  0  0
 26 27  1  1  0  0  0
 26 22  1  0  0  0  0
 29 28  1  0  0  0  0
 30 31  1  1  0  0  0
 30 29  1  0  0  0  0
 32 30  1  0  0  0  0
 33 32  1  0  0  0  0
 33 34  1  0  0  0  0
M  END
>  <MODEL>
4

>  <REMARK>
 VINA RESULT:      -6.0      2.519      3.665
  Name = 
  7 active torsions:
  status: ('A' for Active; 'I' for Inactive)
    1  A    between atoms: C_1  and  N_9
    2  A    between atoms: C_7  and  N_21
    3  A    between atoms: C_7  and  C_29
    4  A    between atoms: C_8  and  N_9
    5  A    between atoms: N_11  and  N_21
    6  A    between atoms: O_26  and  C_28
    7  A    between atoms: O_26  and  C_29
                            x       y       z     vdW  Elec       q    Type
                         _______ _______ _______ _____ _____    ______ ____

>  <TORSDO>
F 7

$$$$
=
 OpenBabel11062409343D

 34 38  0  0  1  0  0  0  0  0999 V2000
  162.3510  210.1560  151.0810 C   0  0  1  0  0  3  0  0  0  0  0  0
  160.8340  211.4820  154.2340 C   0  0  0  0  0  3  0  0  0  0  0  0
  160.5680  208.0860  155.8980 C   0  0  0  0  0  0  0  0  0  0  0  0
  160.7040  212.2990  152.0260 O   0  0  0  0  0  0  0  0  0  0  0  0
  161.7560  210.9300  148.7420 C   0  0  0  0  0  3  0  0  0  0  0  0
  160.3990  212.9030  148.3940 C   0  0  0  0  0  3  0  0  0  0  0  0
  159.9390  206.7500  155.6610 C   0  0  0  0  0  1  0  0  0  0  0  0
  161.1460  211.8430  147.8770 C   0  0  0  0  0  3  0  0  0  0  0  0
  160.8610  212.1380  150.6470 C   0  0  0  0  0  0  0  0  0  0  0  0
  161.6040  211.0590  150.1320 C   0  0  0  0  0  0  0  0  0  0  0  0
  160.2610  213.0530  149.7770 C   0  0  0  0  0  3  0  0  0  0  0  0
  161.1320  210.4260  155.2650 C   0  0  0  0  0  2  0  0  0  0  0  0
  161.2870  208.2800  157.1970 C   0  0  0  0  0  1  0  0  0  0  0  0
  160.4710  209.0830  154.9910 C   0  0  0  0  0  0  0  0  0  0  0  0
  159.7020  208.8620  153.7040 C   0  0  0  0  0  2  0  0  0  0  0  0
  161.0790  211.3050  152.9350 C   0  0  0  0  0  0  0  0  0  0  0  0
  160.5890  208.8800  152.4490 C   0  0  0  0  0  2  0  0  0  0  0  0
  161.6470  209.9970  152.4410 C   0  0  1  0  0  3  0  0  0  0  0  0
  162.6350  208.8560  150.4820 N   0  0  0  0  0  2  0  0  0  0  0  0
  160.6820  204.5250  149.4880 C   0  0  0  0  0  2  0  0  0  0  0  0
  162.0630  207.1550  148.1630 C   0  0  0  0  0  2  0  0  0  0  0  0
  161.4400  208.0400  150.6250 C   0  0  1  0  0  3  0  0  0  0  0  0
  161.8340  204.5950  148.4560 C   0  0  0  0  0  2  0  0  0  0  0  0
  161.0970  207.3590  149.3080 C   0  0  2  0  0  3  0  0  0  0  0  0
  161.7280  205.8060  147.4980 C   0  0  2  0  0  3  0  0  0  0  0  0
  161.8010  206.5910  150.4100 C   0  0  2  0  0  3  0  0  0  0  0  0
  160.8310  205.4640  150.7120 C   0  0  0  0  0  2  0  0  0  0  0  0
  162.5880  205.6140  146.4150 O   0  0  0  0  0  0  0  0  0  0  0  0
  162.1830  204.4070  145.8310 C   0  0  0  0  0  2  0  0  0  0  0  0
  161.2030  204.6530  144.6910 C   0  0  2  0  0  3  0  0  0  0  0  0
  160.4660  205.9650  144.8810 C   0  0  0  0  0  1  0  0  0  0  0  0
  160.2540  203.5590  144.5990 N   0  0  0  0  0  2  0  0  0  0  0  0
  160.8250  202.4690  145.2670 N   0  0  0  0  0  2  0  0  0  0  0  0
  160.0580  201.3920  144.9790 O   0  0  0  0  0  1  0  0  0  0  0  0
  1 19  1  6  0  0  0
  1 18  1  0  0  0  0
  2 12  1  0  0  0  0
  3 13  1  0  0  0  0
  4 16  1  0  0  0  0
  5 10  1  0  0  0  0
  6 11  2  0  0  0  0
  7  3  1  0  0  0  0
  8  6  1  0  0  0  0
  8  5  2  0  0  0  0
  9  4  1  0  0  0  0
 10  9  2  0  0  0  0
 10  1  1  0  0  0  0
 11  9  1  0  0  0  0
 14 12  1  0  0  0  0
 14  3  2  0  0  0  0
 15 14  1  0  0  0  0
 16  2  2  0  0  0  0
 17 15  1  0  0  0  0
 18 17  1  6  0  0  0
 18 16  1  0  0  0  0
 20 27  1  0  0  0  0
 22 19  1  6  0  0  0
 23 20  1  0  0  0  0
 24 21  1  6  0  0  0
 24 26  1  0  0  0  0
 24 22  1  0  0  0  0
 25 28  1  6  0  0  0
 25 21  1  0  0  0  0
 25 23  1  0  0  0  0
 26 22  1  0  0  0  0
 26 27  1  1  0  0  0
 29 28  1  0  0  0  0
 30 31  1  1  0  0  0
 30 29  1  0  0  0  0
 32 30  1  0  0  0  0
 32 33  1  0  0  0  0
 34 33  1  0  0  0  0
M  END
>  <MODEL>
5

>  <REMARK>
 VINA RESULT:      -5.3      2.434      5.557
  Name = 
  7 active torsions:
  status: ('A' for Active; 'I' for Inactive)
    1  A    between atoms: C_1  and  N_9
    2  A    between atoms: C_7  and  N_21
    3  A    between atoms: C_7  and  C_29
    4  A    between atoms: C_8  and  N_9
    5  A    between atoms: N_11  and  N_21
    6  A    between atoms: O_26  and  C_28
    7  A    between atoms: O_26  and  C_29
                            x       y       z     vdW  Elec       q    Type
                         _______ _______ _______ _____ _____    ______ ____

>  <TORSDO>
F 7

$$$$
=
 OpenBabel11062409343D

 34 38  0  0  1  0  0  0  0  0999 V2000
  160.1180  209.1740  153.0120 C   0  0  1  0  0  3  0  0  0  0  0  0
  160.0610  212.8580  152.3570 C   0  0  0  0  0  3  0  0  0  0  0  0
  160.6940  212.5180  148.6350 C   0  0  0  0  0  0  0  0  0  0  0  0
  160.6860  211.6700  154.2960 O   0  0  0  0  0  0  0  0  0  0  0  0
  161.2180  208.0680  155.0100 C   0  0  0  0  0  3  0  0  0  0  0  0
  162.0050  209.3850  156.8820 C   0  0  0  0  0  3  0  0  0  0  0  0
  161.7130  211.9430  147.7030 C   0  0  0  0  0  1  0  0  0  0  0  0
  161.8010  208.1420  156.2780 C   0  0  0  0  0  3  0  0  0  0  0  0
  161.0510  210.4880  154.9460 C   0  0  0  0  0  0  0  0  0  0  0  0
  160.8560  209.2390  154.3260 C   0  0  0  0  0  0  0  0  0  0  0  0
  161.6250  210.5550  156.2190 C   0  0  0  0  0  3  0  0  0  0  0  0
  159.7430  212.9720  150.8890 C   0  0  0  0  0  2  0  0  0  0  0  0
  159.5590  213.2760  148.0200 C   0  0  0  0  0  1  0  0  0  0  0  0
  160.8060  212.3800  149.9750 C   0  0  0  0  0  0  0  0  0  0  0  0
  161.9890  211.6390  150.5620 C   0  0  0  0  0  2  0  0  0  0  0  0
  160.3240  211.6900  152.9450 C   0  0  0  0  0  0  0  0  0  0  0  0
  161.6040  210.3230  151.2580 C   0  0  0  0  0  2  0  0  0  0  0  0
  160.3420  210.4180  152.1330 C   0  0  1  0  0  3  0  0  0  0  0  0
  160.4270  207.9510  152.2790 N   0  0  0  0  0  2  0  0  0  0  0  0
  162.2390  206.8940  147.9020 C   0  0  0  0  0  2  0  0  0  0  0  0
  161.4250  205.6320  150.7870 C   0  0  0  0  0  2  0  0  0  0  0  0
  161.4860  208.2640  151.3330 C   0  0  1  0  0  3  0  0  0  0  0  0
  161.3860  205.6370  148.2000 C   0  0  0  0  0  2  0  0  0  0  0  0
  162.0920  206.9890  150.7660 C   0  0  2  0  0  3  0  0  0  0  0  0
  161.8130  204.8960  149.4900 C   0  0  2  0  0  3  0  0  0  0  0  0
  161.0840  207.7860  149.9600 C   0  0  2  0  0  3  0  0  0  0  0  0
  161.8630  208.1590  148.7140 C   0  0  0  0  0  2  0  0  0  0  0  0
  161.2340  203.6250  149.5050 O   0  0  0  0  0  0  0  0  0  0  0  0
  161.1810  203.2280  148.1630 C   0  0  0  0  0  2  0  0  0  0  0  0
  160.6360  201.8100  148.0360 C   0  0  2  0  0  3  0  0  0  0  0  0
  161.0210  200.9690  149.2390 C   0  0  0  0  0  1  0  0  0  0  0  0
  161.1290  201.1910  146.8190 N   0  0  0  0  0  2  0  0  0  0  0  0
  160.7560  202.0250  145.7590 N   0  0  0  0  0  2  0  0  0  0  0  0
  159.9130  201.3080  144.9790 O   0  0  0  0  0  1  0  0  0  0  0  0
  1 19  1  6  0  0  0
  1 10  1  0  0  0  0
  2 16  2  0  0  0  0
  3 14  2  0  0  0  0
  4  9  1  0  0  0  0
  5  8  1  0  0  0  0
  7  3  1  0  0  0  0
  8  6  2  0  0  0  0
  9 11  2  0  0  0  0
 10  9  1  0  0  0  0
 10  5  2  0  0  0  0
 11  6  1  0  0  0  0
 12  2  1  0  0  0  0
 13  3  1  0  0  0  0
 14 15  1  0  0  0  0
 14 12  1  0  0  0  0
 15 17  1  0  0  0  0
 16  4  1  0  0  0  0
 18 17  1  1  0  0  0
 18 16  1  0  0  0  0
 18  1  1  0  0  0  0
 20 23  1  0  0  0  0
 20 27  1  0  0  0  0
 22 19  1  1  0  0  0
 23 25  1  0  0  0  0
 24 21  1  1  0  0  0
 24 22  1  0  0  0  0
 25 28  1  1  0  0  0
 25 21  1  0  0  0  0
 26 27  1  6  0  0  0
 26 24  1  0  0  0  0
 26 22  1  0  0  0  0
 29 28  1  0  0  0  0
 30 29  1  0  0  0  0
 30 31  1  1  0  0  0
 32 30  1  0  0  0  0
 33 32  1  0  0  0  0
 34 33  1  0  0  0  0
M  END
>  <MODEL>
6

>  <REMARK>
 VINA RESULT:      -4.9      2.300      3.545
  Name = 
  7 active torsions:
  status: ('A' for Active; 'I' for Inactive)
    1  A    between atoms: C_1  and  N_9
    2  A    between atoms: C_7  and  N_21
    3  A    between atoms: C_7  and  C_29
    4  A    between atoms: C_8  and  N_9
    5  A    between atoms: N_11  and  N_21
    6  A    between atoms: O_26  and  C_28
    7  A    between atoms: O_26  and  C_29
                            x       y       z     vdW  Elec       q    Type
                         _______ _______ _______ _____ _____    ______ ____

>  <TORSDO>
F 7

$$$$
=
 OpenBabel11062409343D

 34 38  0  0  1  0  0  0  0  0999 V2000
  158.8940  211.9600  152.4840 C   0  0  1  0  0  3  0  0  0  0  0  0
  157.7940  213.6380  149.3250 C   0  0  0  0  0  3  0  0  0  0  0  0
  161.2120  213.4880  147.6920 C   0  0  0  0  0  0  0  0  0  0  0  0
  156.9780  213.8620  151.5260 O   0  0  0  0  0  0  0  0  0  0  0  0
  158.1770  212.6400  154.8180 C   0  0  0  0  0  3  0  0  0  0  0  0
  156.3830  214.2300  155.1540 C   0  0  0  0  0  3  0  0  0  0  0  0
  162.6130  213.9460  147.9430 C   0  0  0  0  0  1  0  0  0  0  0  0
  157.3390  213.3560  155.6780 C   0  0  0  0  0  3  0  0  0  0  0  0
  157.1070  213.6830  152.9060 C   0  0  0  0  0  0  0  0  0  0  0  0
  158.0810  212.8110  153.4280 C   0  0  0  0  0  0  0  0  0  0  0  0
  156.2650  214.3880  153.7710 C   0  0  0  0  0  3  0  0  0  0  0  0
  158.8150  213.2150  148.3020 C   0  0  0  0  0  2  0  0  0  0  0  0
  160.9430  212.8020  146.3890 C   0  0  0  0  0  1  0  0  0  0  0  0
  160.2260  213.7050  148.5910 C   0  0  0  0  0  0  0  0  0  0  0  0
  160.5290  214.4370  149.8820 C   0  0  0  0  0  2  0  0  0  0  0  0
  157.9280  213.3700  150.6250 C   0  0  0  0  0  0  0  0  0  0  0  0
  160.3900  213.5550  151.1340 C   0  0  0  0  0  2  0  0  0  0  0  0
  159.1510  212.6430  151.1280 C   0  0  1  0  0  3  0  0  0  0  0  0
  160.1430  211.5170  153.0930 N   0  0  0  0  0  2  0  0  0  0  0  0
  161.3080  207.3080  155.2130 C   0  0  0  0  0  2  0  0  0  0  0  0
  160.4210  208.6810  152.4010 C   0  0  0  0  0  2  0  0  0  0  0  0
  159.8010  210.6050  154.1740 C   0  0  1  0  0  3  0  0  0  0  0  0
  161.9490  207.1430  153.8130 C   0  0  0  0  0  2  0  0  0  0  0  0
  159.7620  209.1700  153.6710 C   0  0  2  0  0  3  0  0  0  0  0  0
  160.9290  207.2480  152.6540 C   0  0  2  0  0  3  0  0  0  0  0  0
  160.9680  209.6840  154.4340 C   0  0  2  0  0  3  0  0  0  0  0  0
  161.0210  208.7700  155.6420 C   0  0  0  0  0  2  0  0  0  0  0  0
  161.5110  206.7640  151.4810 O   0  0  0  0  0  0  0  0  0  0  0  0
  160.8470  207.4250  150.4390 C   0  0  0  0  0  2  0  0  0  0  0  0
  160.4440  206.4470  149.3420 C   0  0  2  0  0  3  0  0  0  0  0  0
  160.9270  205.0440  149.6600 C   0  0  0  0  0  1  0  0  0  0  0  0
  160.9780  206.8790  148.0640 N   0  0  0  0  0  2  0  0  0  0  0  0
  162.3730  206.8760  148.1840 N   0  0  0  0  0  2  0  0  0  0  0  0
  162.7720  208.1670  148.1040 O   0  0  0  0  0  1  0  0  0  0  0  0
  1 19  1  1  0  0  0
  1 10  1  0  0  0  0
  2 16  2  0  0  0  0
  3  7  1  0  0  0  0
  3 14  2  0  0  0  0
  4  9  1  0  0  0  0
  5  8  1  0  0  0  0
  6  8  2  0  0  0  0
  9 10  1  0  0  0  0
  9 11  2  0  0  0  0
 10  5  2  0  0  0  0
 11  6  1  0  0  0  0
 12 14  1  0  0  0  0
 12  2  1  0  0  0  0
 13  3  1  0  0  0  0
 14 15  1  0  0  0  0
 15 17  1  0  0  0  0
 16 18  1  0  0  0  0
 16  4  1  0  0  0  0
 18 17  1  1  0  0  0
 18  1  1  0  0  0  0
 20 27  1  0  0  0  0
 21 25  1  0  0  0  0
 22 19  1  6  0  0  0
 22 26  1  0  0  0  0
 23 20  1  0  0  0  0
 24 21  1  6  0  0  0
 24 22  1  0  0  0  0
 24 26  1  0  0  0  0
 25 28  1  6  0  0  0
 25 23  1  0  0  0  0
 26 27  1  1  0  0  0
 29 28  1  0  0  0  0
 30 31  1  1  0  0  0
 30 29  1  0  0  0  0
 32 33  1  0  0  0  0
 32 30  1  0  0  0  0
 34 33  1  0  0  0  0
M  END
>  <MODEL>
7

>  <REMARK>
 VINA RESULT:      -4.8      1.931      2.627
  Name = 
  7 active torsions:
  status: ('A' for Active; 'I' for Inactive)
    1  A    between atoms: C_1  and  N_9
    2  A    between atoms: C_7  and  N_21
    3  A    between atoms: C_7  and  C_29
    4  A    between atoms: C_8  and  N_9
    5  A    between atoms: N_11  and  N_21
    6  A    between atoms: O_26  and  C_28
    7  A    between atoms: O_26  and  C_29
                            x       y       z     vdW  Elec       q    Type
                         _______ _______ _______ _____ _____    ______ ____

>  <TORSDO>
F 7

$$$$
=
 OpenBabel11062409343D

 34 38  0  0  1  0  0  0  0  0999 V2000
  161.0670  211.9490  151.4980 C   0  0  1  0  0  3  0  0  0  0  0  0
  158.8370  214.4490  153.1640 C   0  0  0  0  0  3  0  0  0  0  0  0
  157.2510  211.9290  155.5110 C   0  0  0  0  0  0  0  0  0  0  0  0
  159.7000  214.4090  150.9700 O   0  0  0  0  0  0  0  0  0  0  0  0
  161.5470  211.8560  149.0100 C   0  0  0  0  0  3  0  0  0  0  0  0
  160.8740  213.6630  147.5470 C   0  0  0  0  0  3  0  0  0  0  0  0
  156.4760  210.6510  155.4510 C   0  0  0  0  0  1  0  0  0  0  0  0
  161.5070  212.4320  147.7380 C   0  0  0  0  0  3  0  0  0  0  0  0
  160.3070  213.7420  149.9020 C   0  0  0  0  0  0  0  0  0  0  0  0
  160.9320  212.4960  150.0980 C   0  0  0  0  0  0  0  0  0  0  0  0
  160.2790  214.3180  148.6290 C   0  0  0  0  0  3  0  0  0  0  0  0
  158.5020  213.8240  154.4930 C   0  0  0  0  0  2  0  0  0  0  0  0
  157.4730  212.5300  156.8640 C   0  0  0  0  0  1  0  0  0  0  0  0
  157.7100  212.5290  154.3900 C   0  0  0  0  0  0  0  0  0  0  0  0
  157.4330  211.9120  153.0340 C   0  0  0  0  0  2  0  0  0  0  0  0
  159.4920  213.7900  152.2070 C   0  0  0  0  0  0  0  0  0  0  0  0
  158.6960  211.4010  152.3240 C   0  0  0  0  0  2  0  0  0  0  0  0
  159.9010  212.3530  152.4180 C   0  0  1  0  0  3  0  0  0  0  0  0
  161.2590  210.5020  151.4970 N   0  0  0  0  0  2  0  0  0  0  0  0
  161.1480  206.8470  154.6880 C   0  0  0  0  0  2  0  0  0  0  0  0
  161.0320  207.5790  151.5210 C   0  0  0  0  0  2  0  0  0  0  0  0
  160.5640  209.9700  152.6580 C   0  0  1  0  0  3  0  0  0  0  0  0
  161.9520  206.2220  153.5230 C   0  0  0  0  0  2  0  0  0  0  0  0
  160.2990  208.4820  152.4880 C   0  0  2  0  0  3  0  0  0  0  0  0
  161.1750  206.1950  152.1840 C   0  0  2  0  0  3  0  0  0  0  0  0
  161.4500  208.9650  153.3500 C   0  0  2  0  0  3  0  0  0  0  0  0
  161.1140  208.3960  154.7150 C   0  0  0  0  0  2  0  0  0  0  0  0
  161.8200  205.3350  151.2930 O   0  0  0  0  0  0  0  0  0  0  0  0
  160.8370  204.9540  150.3710 C   0  0  0  0  0  2  0  0  0  0  0  0
  161.4000  204.9220  148.9550 C   0  0  2  0  0  3  0  0  0  0  0  0
  160.7410  205.9740  148.0830 C   0  0  0  0  0  1  0  0  0  0  0  0
  161.2150  203.6060  148.3720 N   0  0  0  0  0  2  0  0  0  0  0  0
  160.5990  202.8120  149.3460 N   0  0  0  0  0  2  0  0  0  0  0  0
  160.1060  201.7250  148.7070 O   0  0  0  0  0  1  0  0  0  0  0  0
  1 19  1  6  0  0  0
  1 18  1  0  0  0  0
  2 12  1  0  0  0  0
  3 13  1  0  0  0  0
  4 16  1  0  0  0  0
  5 10  1  0  0  0  0
  6  8  1  0  0  0  0
  6 11  2  0  0  0  0
  7  3  1  0  0  0  0
  8  5  2  0  0  0  0
  9 10  2  0  0  0  0
  9  4  1  0  0  0  0
 10  1  1  0  0  0  0
 11  9  1  0  0  0  0
 14 12  1  0  0  0  0
 14  3  2  0  0  0  0
 15 14  1  0  0  0  0
 16 18  1  0  0  0  0
 16  2  2  0  0  0  0
 17 15  1  0  0  0  0
 18 17  1  6  0  0  0
 20 27  1  0  0  0  0
 21 25  1  0  0  0  0
 22 19  1  6  0  0  0
 22 26  1  0  0  0  0
 23 20  1  0  0  0  0
 24 21  1  6  0  0  0
 24 22  1  0  0  0  0
 24 26  1  0  0  0  0
 25 28  1  6  0  0  0
 25 23  1  0  0  0  0
 26 27  1  1  0  0  0
 29 28  1  0  0  0  0
 30 31  1  6  0  0  0
 30 29  1  0  0  0  0
 32 30  1  0  0  0  0
 32 33  1  0  0  0  0
 34 33  1  0  0  0  0
M  END
>  <MODEL>
8

>  <REMARK>
 VINA RESULT:      -4.7      1.903      4.575
  Name = 
  7 active torsions:
  status: ('A' for Active; 'I' for Inactive)
    1  A    between atoms: C_1  and  N_9
    2  A    between atoms: C_7  and  N_21
    3  A    between atoms: C_7  and  C_29
    4  A    between atoms: C_8  and  N_9
    5  A    between atoms: N_11  and  N_21
    6  A    between atoms: O_26  and  C_28
    7  A    between atoms: O_26  and  C_29
                            x       y       z     vdW  Elec       q    Type
                         _______ _______ _______ _____ _____    ______ ____

>  <TORSDO>
F 7

$$$$
=
 OpenBabel11062409343D

 34 38  0  0  1  0  0  0  0  0999 V2000
  162.3950  208.7200  149.6980 C   0  0  1  0  0  3  0  0  0  0  0  0
  161.7800  205.0290  149.6790 C   0  0  0  0  0  3  0  0  0  0  0  0
  161.3070  204.8160  145.9240 C   0  0  0  0  0  0  0  0  0  0  0  0
  161.3430  206.6320  151.3520 O   0  0  0  0  0  0  0  0  0  0  0  0
  161.4750  210.3400  151.4170 C   0  0  0  0  0  3  0  0  0  0  0  0
  160.4140  209.5360  153.4390 C   0  0  0  0  0  3  0  0  0  0  0  0
  160.4350  205.3910  144.8540 C   0  0  0  0  0  1  0  0  0  0  0  0
  160.8590  210.5960  152.6460 C   0  0  0  0  0  3  0  0  0  0  0  0
  161.1890  207.9560  151.7730 C   0  0  0  0  0  0  0  0  0  0  0  0
  161.6280  209.0210  150.9630 C   0  0  0  0  0  0  0  0  0  0  0  0
  160.5840  208.2190  153.0050 C   0  0  0  0  0  3  0  0  0  0  0  0
  162.1040  204.6030  148.2720 C   0  0  0  0  0  2  0  0  0  0  0  0
  162.2940  203.7700  145.5100 C   0  0  0  0  0  1  0  0  0  0  0  0
  161.1920  205.2050  147.2130 C   0  0  0  0  0  0  0  0  0  0  0  0
  160.1540  206.2390  147.6010 C   0  0  0  0  0  2  0  0  0  0  0  0
  161.7260  206.3100  150.0460 C   0  0  0  0  0  0  0  0  0  0  0  0
  160.7610  207.5660  148.0850 C   0  0  0  0  0  2  0  0  0  0  0  0
  161.9630  207.4010  149.0320 C   0  0  1  0  0  3  0  0  0  0  0  0
  162.3370  209.8300  148.7530 N   0  0  0  0  0  2  0  0  0  0  0  0
  160.8680  214.4530  148.5750 C   0  0  0  0  0  2  0  0  0  0  0  0
  162.8780  212.2770  147.2300 C   0  0  0  0  0  2  0  0  0  0  0  0
  162.1950  211.0540  149.5260 C   0  0  1  0  0  3  0  0  0  0  0  0
  161.0820  214.1330  147.0760 C   0  0  0  0  0  2  0  0  0  0  0  0
  162.7000  212.2490  148.7320 C   0  0  2  0  0  3  0  0  0  0  0  0
  162.5280  213.6950  146.7400 C   0  0  2  0  0  3  0  0  0  0  0  0
  161.2130  211.9660  148.8340 C   0  0  2  0  0  3  0  0  0  0  0  0
  160.6730  213.2200  149.4950 C   0  0  0  0  0  2  0  0  0  0  0  0
  162.7190  213.7520  145.3580 O   0  0  0  0  0  0  0  0  0  0  0  0
  161.4720  214.1040  144.8270 C   0  0  0  0  0  2  0  0  0  0  0  0
  161.1090  213.2090  143.6480 C   0  0  2  0  0  3  0  0  0  0  0  0
  160.0920  212.1600  144.0540 C   0  0  0  0  0  1  0  0  0  0  0  0
  162.3000  212.5690  143.1200 N   0  0  0  0  0  2  0  0  0  0  0  0
  161.9080  211.8630  141.9760 N   0  0  0  0  0  2  0  0  0  0  0  0
  162.5690  212.4180  140.9320 O   0  0  0  0  0  1  0  0  0  0  0  0
  1 19  1  6  0  0  0
  1 10  1  0  0  0  0
  2 16  2  0  0  0  0
  3 14  2  0  0  0  0
  4  9  1  0  0  0  0
  5  8  1  0  0  0  0
  7  3  1  0  0  0  0
  8  6  2  0  0  0  0
  9 11  2  0  0  0  0
 10  5  2  0  0  0  0
 10  9  1  0  0  0  0
 11  6  1  0  0  0  0
 12  2  1  0  0  0  0
 13  3  1  0  0  0  0
 14 15  1  0  0  0  0
 14 12  1  0  0  0  0
 15 17  1  0  0  0  0
 16  4  1  0  0  0  0
 18 17  1  1  0  0  0
 18  1  1  0  0  0  0
 18 16  1  0  0  0  0
 20 27  1  0  0  0  0
 22 19  1  6  0  0  0
 23 20  1  0  0  0  0
 24 21  1  6  0  0  0
 24 26  1  0  0  0  0
 24 22  1  0  0  0  0
 25 28  1  6  0  0  0
 25 23  1  0  0  0  0
 25 21  1  0  0  0  0
 26 27  1  1  0  0  0
 26 22  1  0  0  0  0
 29 28  1  0  0  0  0
 30 31  1  1  0  0  0
 30 29  1  0  0  0  0
 32 30  1  0  0  0  0
 33 32  1  0  0  0  0
 34 33  1  0  0  0  0
M  END
>  <MODEL>
9

>  <REMARK>
 VINA RESULT:      -4.6      3.675      7.738
  Name = 
  7 active torsions:
  status: ('A' for Active; 'I' for Inactive)
    1  A    between atoms: C_1  and  N_9
    2  A    between atoms: C_7  and  N_21
    3  A    between atoms: C_7  and  C_29
    4  A    between atoms: C_8  and  N_9
    5  A    between atoms: N_11  and  N_21
    6  A    between atoms: O_26  and  C_28
    7  A    between atoms: O_26  and  C_29
                            x       y       z     vdW  Elec       q    Type
                         _______ _______ _______ _____ _____    ______ ____

>  <TORSDO>
F 7

$$$$
