=
 OpenBabel11052422173D

 25 27  0  0  1  0  0  0  0  0999 V2000
  161.3030  205.4380  149.7350 N   0  0  0  0  0  0  0  0  0  0  0  0
  161.8580  206.4230  150.6710 C   0  0  2  0  0  3  0  0  0  0  0  0
  161.2960  206.9900  147.9140 C   0  0  0  0  0  3  0  0  0  0  0  0
  161.3470  204.0220  149.8990 C   0  0  0  0  0  0  0  0  0  0  0  0
  161.5540  208.0500  148.8470 N   0  0  0  0  0  0  0  0  0  0  0  0
  161.1540  203.3360  148.7680 C   0  0  0  0  0  0  0  0  0  0  0  0
  161.8960  208.9530  151.0640 C   0  0  0  0  0  0  0  0  0  0  0  0
  162.2550  210.3230  150.6010 C   0  0  0  0  0  1  0  0  0  0  0  0
  161.2200  206.3440  152.0340 C   0  0  0  0  0  3  0  0  0  0  0  0
  161.1430  205.7450  148.3580 C   0  0  0  0  0  0  0  0  0  0  0  0
  160.8640  204.3370  147.3010 S   0  0  0  0  0  0  0  0  0  0  0  0
  161.6140  208.7450  152.3550 C   0  0  0  0  0  3  0  0  0  0  0  0
  161.1830  207.4130  152.8410 C   0  0  0  0  0  0  0  0  0  0  0  0
  161.7660  207.8330  150.1150 C   0  0  0  0  0  0  0  0  0  0  0  0
  161.2690  200.7450  148.6210 N   0  0  0  0  0  0  0  0  0  0  0  0
  161.2170  201.8990  148.6870 C   0  0  0  0  0  0  0  0  0  0  0  0
  160.4200  203.1180  152.0050 C   0  0  0  0  0  1  0  0  0  0  0  0
  161.6840  203.3700  151.2070 C   0  0  0  0  0  2  0  0  0  0  0  0
  160.6010  207.2850  154.2050 C   0  0  0  0  0  2  0  0  0  0  0  0
  160.5880  208.6370  154.8980 C   0  0  0  0  0  2  0  0  0  0  0  0
  161.6250  208.6750  156.0090 C   0  0  2  0  0  3  0  0  0  0  0  0
  161.0120  208.2660  157.2610 N   0  0  0  0  0  1  0  0  0  0  0  0
  162.2080  210.0440  156.1540 C   0  0  0  0  0  0  0  0  0  0  0  0
  161.6910  211.0920  155.4070 O   0  0  0  0  0  0  0  0  0  0  0  0
  163.1580  210.2550  156.9550 O   0  0  0  0  0  1  0  0  0  0  0  0
  1  4  1  0  0  0  0
  1  2  1  0  0  0  0
  2  9  1  1  0  0  0
  3 10  2  0  0  0  0
  3  5  1  0  0  0  0
  4 18  1  0  0  0  0
  5 14  2  0  0  0  0
  6  4  2  0  0  0  0
  7 12  2  0  0  0  0
  8  7  1  0  0  0  0
  9 13  2  0  0  0  0
 10  1  1  0  0  0  0
 11 10  1  0  0  0  0
 11  6  1  0  0  0  0
 12 13  1  0  0  0  0
 13 19  1  0  0  0  0
 14  2  1  0  0  0  0
 14  7  1  0  0  0  0
 15 16  3  0  0  0  0
 16  6  1  0  0  0  0
 18 17  1  0  0  0  0
 19 20  1  0  0  0  0
 20 21  1  0  0  0  0
 21 23  1  0  0  0  0
 21 22  1  1  0  0  0
 23 25  1  0  0  0  0
 24 23  2  0  0  0  0
M  END
>  <MODEL>
1

>  <REMARK>
 VINA RESULT:      -7.2      0.000      0.000
  Name = 
  6 active torsions:
  status: ('A' for Active; 'I' for Inactive)
    1  A    between atoms: C_2  and  CA_21
    2  A    between atoms: C_5  and  C_22
    3  A    between atoms: C_6  and  C_15
    4  A    between atoms: C_6  and  C_23
    5  A    between atoms: C_10  and  C_11
    6  A    between atoms: C_15  and  CA_21
                            x       y       z     vdW  Elec       q    Type
                         _______ _______ _______ _____ _____    ______ ____

>  <TORSDO>
F 6

$$$$
=
 OpenBabel11052422173D

 25 27  0  0  1  0  0  0  0  0999 V2000
  161.2320  205.7070  150.7620 N   0  0  0  0  0  0  0  0  0  0  0  0
  160.8740  207.1270  150.8630 C   0  0  2  0  0  3  0  0  0  0  0  0
  161.3410  205.4390  153.1370 C   0  0  0  0  0  3  0  0  0  0  0  0
  161.0050  204.8740  149.6270 C   0  0  0  0  0  0  0  0  0  0  0  0
  161.2860  206.8670  153.2780 N   0  0  0  0  0  0  0  0  0  0  0  0
  161.0340  203.5650  149.8980 C   0  0  0  0  0  0  0  0  0  0  0  0
  161.2060  209.1290  152.4250 C   0  0  0  0  0  0  0  0  0  0  0  0
  161.0090  209.7700  153.7550 C   0  0  0  0  0  1  0  0  0  0  0  0
  161.5770  207.9720  149.8310 C   0  0  0  0  0  3  0  0  0  0  0  0
  161.3490  204.8970  151.9220 C   0  0  0  0  0  0  0  0  0  0  0  0
  161.3690  203.1410  151.6140 S   0  0  0  0  0  0  0  0  0  0  0  0
  161.5340  209.8830  151.3700 C   0  0  0  0  0  3  0  0  0  0  0  0
  161.8080  209.2740  150.0480 C   0  0  0  0  0  0  0  0  0  0  0  0
  161.1240  207.6670  152.2600 C   0  0  0  0  0  0  0  0  0  0  0  0
  160.5610  201.7220  148.1290 N   0  0  0  0  0  0  0  0  0  0  0  0
  160.7710  202.5420  148.9170 C   0  0  0  0  0  0  0  0  0  0  0  0
  161.8920  205.4330  147.3890 C   0  0  0  0  0  1  0  0  0  0  0  0
  160.6620  205.4250  148.2760 C   0  0  0  0  0  2  0  0  0  0  0  0
  162.4490  210.0930  148.9830 C   0  0  0  0  0  2  0  0  0  0  0  0
  161.9920  211.5390  149.0880 C   0  0  0  0  0  2  0  0  0  0  0  0
  161.9620  212.1890  147.7150 C   0  0  2  0  0  3  0  0  0  0  0  0
  162.7730  213.3930  147.7290 N   0  0  0  0  0  1  0  0  0  0  0  0
  160.5620  212.5260  147.3090 C   0  0  0  0  0  0  0  0  0  0  0  0
  159.7650  213.2790  148.1590 O   0  0  0  0  0  1  0  0  0  0  0  0
  160.1050  212.1400  146.2000 O   0  0  0  0  0  0  0  0  0  0  0  0
  1  2  1  0  0  0  0
  1 10  1  0  0  0  0
  2  9  1  6  0  0  0
  2 14  1  0  0  0  0
  3  5  1  0  0  0  0
  4  6  2  0  0  0  0
  4  1  1  0  0  0  0
  6 11  1  0  0  0  0
  7  8  1  0  0  0  0
  9 13  2  0  0  0  0
 10  3  2  0  0  0  0
 11 10  1  0  0  0  0
 12  7  2  0  0  0  0
 13 12  1  0  0  0  0
 14  7  1  0  0  0  0
 14  5  2  0  0  0  0
 15 16  3  0  0  0  0
 16  6  1  0  0  0  0
 17 18  1  0  0  0  0
 18  4  1  0  0  0  0
 19 20  1  0  0  0  0
 19 13  1  0  0  0  0
 21 22  1  1  0  0  0
 21 20  1  0  0  0  0
 23 21  1  0  0  0  0
 23 24  1  0  0  0  0
 25 23  2  0  0  0  0
M  END
>  <MODEL>
2

>  <REMARK>
 VINA RESULT:      -7.1      3.291      5.426
  Name = 
  6 active torsions:
  status: ('A' for Active; 'I' for Inactive)
    1  A    between atoms: C_2  and  CA_21
    2  A    between atoms: C_5  and  C_22
    3  A    between atoms: C_6  and  C_15
    4  A    between atoms: C_6  and  C_23
    5  A    between atoms: C_10  and  C_11
    6  A    between atoms: C_15  and  CA_21
                            x       y       z     vdW  Elec       q    Type
                         _______ _______ _______ _____ _____    ______ ____

>  <TORSDO>
F 6

$$$$
=
 OpenBabel11052422173D

 25 27  0  0  1  0  0  0  0  0999 V2000
  161.2670  204.9760  149.9970 N   0  0  0  0  0  0  0  0  0  0  0  0
  160.8280  206.1380  150.7800 C   0  0  2  0  0  3  0  0  0  0  0  0
  161.1960  203.5170  151.8910 C   0  0  0  0  0  3  0  0  0  0  0  0
  161.1770  204.8510  148.5790 C   0  0  0  0  0  0  0  0  0  0  0  0
  161.0560  204.6650  152.7420 N   0  0  0  0  0  0  0  0  0  0  0  0
  161.2530  203.5910  148.1380 C   0  0  0  0  0  0  0  0  0  0  0  0
  160.9260  207.0410  153.1740 C   0  0  0  0  0  0  0  0  0  0  0  0
  160.5880  206.9000  154.6190 C   0  0  0  0  0  1  0  0  0  0  0  0
  161.5670  207.3970  150.4050 C   0  0  0  0  0  3  0  0  0  0  0  0
  161.3320  203.6830  150.5780 C   0  0  0  0  0  0  0  0  0  0  0  0
  161.4680  202.3400  149.4130 S   0  0  0  0  0  0  0  0  0  0  0  0
  161.2990  208.2340  152.6970 C   0  0  0  0  0  3  0  0  0  0  0  0
  161.7110  208.3980  151.2830 C   0  0  0  0  0  0  0  0  0  0  0  0
  160.9340  205.8760  152.2720 C   0  0  0  0  0  0  0  0  0  0  0  0
  161.0220  202.9290  145.6360 N   0  0  0  0  0  0  0  0  0  0  0  0
  161.1240  203.2240  146.7500 C   0  0  0  0  0  0  0  0  0  0  0  0
  162.2140  206.5010  147.0590 C   0  0  0  0  0  1  0  0  0  0  0  0
  160.9170  206.0220  147.6790 C   0  0  0  0  0  2  0  0  0  0  0  0
  162.3920  209.6530  150.8610 C   0  0  0  0  0  2  0  0  0  0  0  0
  161.8740  210.0980  149.5030 C   0  0  0  0  0  2  0  0  0  0  0  0
  161.9890  211.6070  149.3590 C   0  0  2  0  0  3  0  0  0  0  0  0
  160.8630  212.2460  150.0170 N   0  0  0  0  0  1  0  0  0  0  0  0
  162.0280  212.0080  147.9190 C   0  0  0  0  0  0  0  0  0  0  0  0
  163.2280  212.4150  147.3530 O   0  0  0  0  0  1  0  0  0  0  0  0
  160.9840  211.9700  147.2140 O   0  0  0  0  0  0  0  0  0  0  0  0
  1 10  1  0  0  0  0
  1  2  1  0  0  0  0
  2  9  1  6  0  0  0
  2 14  1  0  0  0  0
  3  5  1  0  0  0  0
  4  1  1  0  0  0  0
  6  4  2  0  0  0  0
  6 11  1  0  0  0  0
  7  8  1  0  0  0  0
  9 13  2  0  0  0  0
 10  3  2  0  0  0  0
 11 10  1  0  0  0  0
 12  7  2  0  0  0  0
 13 12  1  0  0  0  0
 14  5  2  0  0  0  0
 14  7  1  0  0  0  0
 15 16  3  0  0  0  0
 16  6  1  0  0  0  0
 17 18  1  0  0  0  0
 18  4  1  0  0  0  0
 19 13  1  0  0  0  0
 20 19  1  0  0  0  0
 21 20  1  0  0  0  0
 21 22  1  6  0  0  0
 23 21  1  0  0  0  0
 24 23  1  0  0  0  0
 25 23  2  0  0  0  0
M  END
>  <MODEL>
3

>  <REMARK>
 VINA RESULT:      -7.0      3.272      5.020
  Name = 
  6 active torsions:
  status: ('A' for Active; 'I' for Inactive)
    1  A    between atoms: C_2  and  CA_21
    2  A    between atoms: C_5  and  C_22
    3  A    between atoms: C_6  and  C_15
    4  A    between atoms: C_6  and  C_23
    5  A    between atoms: C_10  and  C_11
    6  A    between atoms: C_15  and  CA_21
                            x       y       z     vdW  Elec       q    Type
                         _______ _______ _______ _____ _____    ______ ____

>  <TORSDO>
F 6

$$$$
=
 OpenBabel11052422173D

 25 27  0  0  1  0  0  0  0  0999 V2000
  161.1800  206.8010  152.3420 N   0  0  0  0  0  0  0  0  0  0  0  0
  161.6090  205.9960  151.1920 C   0  0  0  0  0  0  0  0  0  0  0  0
  160.6930  204.8710  153.6680 C   0  0  0  0  0  3  0  0  0  0  0  0
  161.5220  208.1660  152.5720 C   0  0  0  0  0  0  0  0  0  0  0  0
  160.8180  204.0580  152.4910 N   0  0  0  0  0  0  0  0  0  0  0  0
  161.3670  208.5610  153.8400 C   0  0  0  0  0  0  0  0  0  0  0  0
  161.1740  203.7100  150.1240 C   0  0  1  0  0  3  0  0  0  0  0  0
  161.2070  202.2220  150.2080 C   0  0  0  0  0  1  0  0  0  0  0  0
  161.1290  206.5640  149.8810 C   0  0  0  0  0  3  0  0  0  0  0  0
  160.8350  206.1910  153.5760 C   0  0  0  0  0  0  0  0  0  0  0  0
  160.7480  207.3020  154.9670 S   0  0  0  0  0  0  0  0  0  0  0  0
  161.0600  204.3020  148.9300 C   0  0  0  0  0  3  0  0  0  0  0  0
  160.9520  205.7750  148.8120 C   0  0  0  0  0  0  0  0  0  0  0  0
  161.1850  204.5460  151.3380 C   0  0  0  0  0  0  0  0  0  0  0  0
  161.9850  210.9350  154.6940 N   0  0  0  0  0  0  0  0  0  0  0  0
  161.7100  209.8780  154.3120 C   0  0  0  0  0  0  0  0  0  0  0  0
  161.1580  210.1930  151.2040 C   0  0  0  0  0  1  0  0  0  0  0  0
  162.1020  209.0450  151.5040 C   0  0  0  0  0  2  0  0  0  0  0  0
  160.5360  206.3770  147.5160 C   0  0  0  0  0  2  0  0  0  0  0  0
  161.7510  206.6130  146.6340 C   0  0  0  0  0  2  0  0  0  0  0  0
  161.6560  205.7840  145.3640 C   0  0  2  0  0  3  0  0  0  0  0  0
  160.2600  205.6020  145.0050 N   0  0  0  0  0  1  0  0  0  0  0  0
  162.3110  204.4510  145.5400 C   0  0  0  0  0  0  0  0  0  0  0  0
  161.5440  203.2970  145.4800 O   0  0  0  0  0  0  0  0  0  0  0  0
  163.5540  204.3680  145.7340 O   0  0  0  0  0  1  0  0  0  0  0  0
  1  4  1  0  0  0  0
  1 10  1  0  0  0  0
  2 14  1  0  0  0  0
  2  1  1  0  0  0  0
  4  6  2  0  0  0  0
  5  3  1  0  0  0  0
  6 16  1  0  0  0  0
  6 11  1  0  0  0  0
  7  8  1  1  0  0  0
  7 14  1  0  0  0  0
  9  2  2  0  0  0  0
 10  3  2  0  0  0  0
 10 11  1  0  0  0  0
 12  7  1  0  0  0  0
 13 12  2  0  0  0  0
 13  9  1  0  0  0  0
 14  5  2  0  0  0  0
 16 15  3  0  0  0  0
 17 18  1  0  0  0  0
 18  4  1  0  0  0  0
 19 13  1  0  0  0  0
 20 19  1  0  0  0  0
 21 22  1  1  0  0  0
 21 23  1  0  0  0  0
 21 20  1  0  0  0  0
 23 25  1  0  0  0  0
 24 23  2  0  0  0  0
M  END
>  <MODEL>
4

>  <REMARK>
 VINA RESULT:      -6.9      4.326      7.991
  Name = 
  6 active torsions:
  status: ('A' for Active; 'I' for Inactive)
    1  A    between atoms: C_2  and  CA_21
    2  A    between atoms: C_5  and  C_22
    3  A    between atoms: C_6  and  C_15
    4  A    between atoms: C_6  and  C_23
    5  A    between atoms: C_10  and  C_11
    6  A    between atoms: C_15  and  CA_21
                            x       y       z     vdW  Elec       q    Type
                         _______ _______ _______ _____ _____    ______ ____

>  <TORSDO>
F 6

$$$$
=
 OpenBabel11052422173D

 25 27  0  0  1  0  0  0  0  0999 V2000
  160.8390  207.5680  152.8610 N   0  0  0  0  0  0  0  0  0  0  0  0
  161.4470  206.7060  151.8410 C   0  0  0  0  0  0  0  0  0  0  0  0
  160.8270  205.8280  154.5020 C   0  0  0  0  0  3  0  0  0  0  0  0
  160.8460  208.9950  152.8520 C   0  0  0  0  0  0  0  0  0  0  0  0
  161.1410  204.8820  153.4690 N   0  0  0  0  0  0  0  0  0  0  0  0
  160.6020  209.5480  154.0450 C   0  0  0  0  0  0  0  0  0  0  0  0
  161.5690  204.2350  151.1780 C   0  0  1  0  0  3  0  0  0  0  0  0
  161.9550  202.8330  151.5010 C   0  0  0  0  0  1  0  0  0  0  0  0
  160.8450  206.9170  150.4760 C   0  0  0  0  0  3  0  0  0  0  0  0
  160.6500  207.1100  154.1910 C   0  0  0  0  0  0  0  0  0  0  0  0
  160.3010  208.3860  155.3860 S   0  0  0  0  0  0  0  0  0  0  0  0
  161.3170  204.5760  149.9090 C   0  0  0  0  0  3  0  0  0  0  0  0
  160.8610  205.9410  149.5580 C   0  0  0  0  0  0  0  0  0  0  0  0
  161.3810  205.2420  152.2380 C   0  0  0  0  0  0  0  0  0  0  0  0
  160.6390  212.1100  154.4730 N   0  0  0  0  0  0  0  0  0  0  0  0
  160.6220  210.9690  154.2830 C   0  0  0  0  0  0  0  0  0  0  0  0
  162.7000  210.0010  151.5630 C   0  0  0  0  0  1  0  0  0  0  0  0
  161.2000  209.7930  151.6340 C   0  0  0  0  0  2  0  0  0  0  0  0
  160.3130  206.2020  148.1980 C   0  0  0  0  0  2  0  0  0  0  0  0
  161.3650  206.8720  147.3300 C   0  0  0  0  0  2  0  0  0  0  0  0
  161.4340  206.2030  145.9670 C   0  0  2  0  0  3  0  0  0  0  0  0
  160.0980  206.1050  145.4060 N   0  0  0  0  0  1  0  0  0  0  0  0
  162.0440  204.8410  146.0650 C   0  0  0  0  0  0  0  0  0  0  0  0
  161.2700  203.7230  145.7920 O   0  0  0  0  0  0  0  0  0  0  0  0
  163.2550  204.7030  146.3850 O   0  0  0  0  0  1  0  0  0  0  0  0
  1 10  1  0  0  0  0
  2 14  1  0  0  0  0
  2  1  1  0  0  0  0
  4  1  1  0  0  0  0
  4  6  2  0  0  0  0
  5  3  1  0  0  0  0
  6 16  1  0  0  0  0
  6 11  1  0  0  0  0
  7  8  1  1  0  0  0
  7 14  1  0  0  0  0
  9  2  2  0  0  0  0
 10  3  2  0  0  0  0
 10 11  1  0  0  0  0
 12  7  1  0  0  0  0
 13 12  2  0  0  0  0
 13  9  1  0  0  0  0
 14  5  2  0  0  0  0
 16 15  3  0  0  0  0
 17 18  1  0  0  0  0
 18  4  1  0  0  0  0
 19 13  1  0  0  0  0
 20 19  1  0  0  0  0
 21 22  1  1  0  0  0
 21 23  1  0  0  0  0
 21 20  1  0  0  0  0
 23 25  1  0  0  0  0
 24 23  2  0  0  0  0
M  END
>  <MODEL>
5

>  <REMARK>
 VINA RESULT:      -6.8      4.380      7.958
  Name = 
  6 active torsions:
  status: ('A' for Active; 'I' for Inactive)
    1  A    between atoms: C_2  and  CA_21
    2  A    between atoms: C_5  and  C_22
    3  A    between atoms: C_6  and  C_15
    4  A    between atoms: C_6  and  C_23
    5  A    between atoms: C_10  and  C_11
    6  A    between atoms: C_15  and  CA_21
                            x       y       z     vdW  Elec       q    Type
                         _______ _______ _______ _____ _____    ______ ____

>  <TORSDO>
F 6

$$$$
=
 OpenBabel11052422173D

 25 27  0  0  1  0  0  0  0  0999 V2000
  161.4220  207.5000  150.7880 N   0  0  0  0  0  0  0  0  0  0  0  0
  160.7640  206.5900  149.8430 C   0  0  0  0  0  0  0  0  0  0  0  0
  162.0590  209.0290  149.0620 C   0  0  0  0  0  3  0  0  0  0  0  0
  161.1810  207.5530  152.1930 C   0  0  0  0  0  0  0  0  0  0  0  0
  161.6950  208.0420  148.0850 N   0  0  0  0  0  0  0  0  0  0  0  0
  161.5740  208.6930  152.7700 C   0  0  0  0  0  0  0  0  0  0  0  0
  160.9120  205.8610  147.3920 C   0  0  1  0  0  3  0  0  0  0  0  0
  160.8350  206.1970  145.9430 C   0  0  0  0  0  1  0  0  0  0  0  0
  161.0270  205.1400  150.1620 C   0  0  0  0  0  3  0  0  0  0  0  0
  161.9560  208.7430  150.3570 C   0  0  0  0  0  0  0  0  0  0  0  0
  162.3320  209.8940  151.6650 S   0  0  0  0  0  0  0  0  0  0  0  0
  160.8360  204.5830  147.7790 C   0  0  0  0  0  3  0  0  0  0  0  0
  160.9800  204.2050  149.2040 C   0  0  0  0  0  0  0  0  0  0  0  0
  161.1490  206.9030  148.4080 C   0  0  0  0  0  0  0  0  0  0  0  0
  161.2130  209.2280  155.2860 N   0  0  0  0  0  0  0  0  0  0  0  0
  161.3730  208.9890  154.1660 C   0  0  0  0  0  0  0  0  0  0  0  0
  161.4490  205.4820  153.5140 C   0  0  0  0  0  1  0  0  0  0  0  0
  160.4560  206.4670  152.9290 C   0  0  0  0  0  2  0  0  0  0  0  0
  161.1830  202.7740  149.5650 C   0  0  0  0  0  2  0  0  0  0  0  0
  160.2600  201.8910  148.7420 C   0  0  0  0  0  2  0  0  0  0  0  0
  161.0150  200.6850  148.2060 C   0  0  2  0  0  3  0  0  0  0  0  0
  162.4000  200.7490  148.6360 N   0  0  0  0  0  1  0  0  0  0  0  0
  160.9490  200.6290  146.7130 C   0  0  0  0  0  0  0  0  0  0  0  0
  161.2100  199.4340  146.0600 O   0  0  0  0  0  1  0  0  0  0  0  0
  160.6500  201.6560  146.0460 O   0  0  0  0  0  0  0  0  0  0  0  0
  1  4  1  0  0  0  0
  2  9  2  0  0  0  0
  2  1  1  0  0  0  0
  3 10  2  0  0  0  0
  4  6  2  0  0  0  0
  4 18  1  0  0  0  0
  5 14  2  0  0  0  0
  5  3  1  0  0  0  0
  6 16  1  0  0  0  0
  7  8  1  6  0  0  0
  7 12  1  0  0  0  0
  7 14  1  0  0  0  0
 10  1  1  0  0  0  0
 10 11  1  0  0  0  0
 11  6  1  0  0  0  0
 12 13  2  0  0  0  0
 13 19  1  0  0  0  0
 13  9  1  0  0  0  0
 14  2  1  0  0  0  0
 16 15  3  0  0  0  0
 18 17  1  0  0  0  0
 20 19  1  0  0  0  0
 21 22  1  6  0  0  0
 21 20  1  0  0  0  0
 23 21  1  0  0  0  0
 24 23  1  0  0  0  0
 25 23  2  0  0  0  0
M  END
>  <MODEL>
6

>  <REMARK>
 VINA RESULT:      -6.8      4.448      7.705
  Name = 
  6 active torsions:
  status: ('A' for Active; 'I' for Inactive)
    1  A    between atoms: C_2  and  CA_21
    2  A    between atoms: C_5  and  C_22
    3  A    between atoms: C_6  and  C_15
    4  A    between atoms: C_6  and  C_23
    5  A    between atoms: C_10  and  C_11
    6  A    between atoms: C_15  and  CA_21
                            x       y       z     vdW  Elec       q    Type
                         _______ _______ _______ _____ _____    ______ ____

>  <TORSDO>
F 6

$$$$
=
 OpenBabel11052422173D

 25 27  0  0  1  0  0  0  0  0999 V2000
  161.3170  205.7690  149.8160 N   0  0  0  0  0  0  0  0  0  0  0  0
  161.8950  206.8980  150.5540 C   0  0  0  0  0  0  0  0  0  0  0  0
  161.2990  206.9700  147.7480 C   0  0  0  0  0  3  0  0  0  0  0  0
  161.3490  204.4040  150.2300 C   0  0  0  0  0  0  0  0  0  0  0  0
  161.5820  208.1770  148.4720 N   0  0  0  0  0  0  0  0  0  0  0  0
  161.1320  203.5300  149.2430 C   0  0  0  0  0  0  0  0  0  0  0  0
  161.9640  209.4570  150.4890 C   0  0  1  0  0  3  0  0  0  0  0  0
  162.3310  210.7170  149.7840 C   0  0  0  0  0  1  0  0  0  0  0  0
  161.2770  207.0710  151.9180 C   0  0  0  0  0  3  0  0  0  0  0  0
  161.1400  205.8270  148.4090 C   0  0  0  0  0  0  0  0  0  0  0  0
  160.8320  204.2560  147.6240 S   0  0  0  0  0  0  0  0  0  0  0  0
  161.6990  209.4860  151.7990 C   0  0  0  0  0  3  0  0  0  0  0  0
  161.2620  208.2680  152.5200 C   0  0  0  0  0  0  0  0  0  0  0  0
  161.8100  208.1870  149.7570 C   0  0  0  0  0  0  0  0  0  0  0  0
  161.2200  200.9530  149.5590 N   0  0  0  0  0  0  0  0  0  0  0  0
  161.1800  202.1010  149.4190 C   0  0  0  0  0  0  0  0  0  0  0  0
  160.4480  203.5720  152.3760 C   0  0  0  0  0  1  0  0  0  0  0  0
  161.6980  203.9920  151.6290 C   0  0  0  0  0  2  0  0  0  0  0  0
  160.6980  208.3920  153.8930 C   0  0  0  0  0  2  0  0  0  0  0  0
  161.3080  209.5900  154.6020 C   0  0  0  0  0  2  0  0  0  0  0  0
  160.3550  210.1230  155.6600 C   0  0  2  0  0  3  0  0  0  0  0  0
  159.8450  209.0190  156.4540 N   0  0  0  0  0  1  0  0  0  0  0  0
  159.2180  210.8660  155.0360 C   0  0  0  0  0  0  0  0  0  0  0  0
  159.4630  211.7290  153.9770 O   0  0  0  0  0  0  0  0  0  0  0  0
  158.0410  210.7080  155.4560 O   0  0  0  0  0  1  0  0  0  0  0  0
  1  4  1  0  0  0  0
  1  2  1  0  0  0  0
  2  9  2  0  0  0  0
  3 10  2  0  0  0  0
  3  5  1  0  0  0  0
  4 18  1  0  0  0  0
  5 14  2  0  0  0  0
  6 16  1  0  0  0  0
  6  4  2  0  0  0  0
  7  8  1  6  0  0  0
  7 12  1  0  0  0  0
  9 13  1  0  0  0  0
 10  1  1  0  0  0  0
 11 10  1  0  0  0  0
 11  6  1  0  0  0  0
 12 13  2  0  0  0  0
 13 19  1  0  0  0  0
 14  7  1  0  0  0  0
 14  2  1  0  0  0  0
 16 15  3  0  0  0  0
 18 17  1  0  0  0  0
 19 20  1  0  0  0  0
 20 21  1  0  0  0  0
 21 22  1  6  0  0  0
 23 25  1  0  0  0  0
 23 21  1  0  0  0  0
 24 23  2  0  0  0  0
M  END
>  <MODEL>
7

>  <REMARK>
 VINA RESULT:      -6.6      1.421      1.596
  Name = 
  6 active torsions:
  status: ('A' for Active; 'I' for Inactive)
    1  A    between atoms: C_2  and  CA_21
    2  A    between atoms: C_5  and  C_22
    3  A    between atoms: C_6  and  C_15
    4  A    between atoms: C_6  and  C_23
    5  A    between atoms: C_10  and  C_11
    6  A    between atoms: C_15  and  CA_21
                            x       y       z     vdW  Elec       q    Type
                         _______ _______ _______ _____ _____    ______ ____

>  <TORSDO>
F 6

$$$$
=
 OpenBabel11052422173D

 25 27  0  0  1  0  0  0  0  0999 V2000
  161.2020  204.2600  148.0850 N   0  0  0  0  0  0  0  0  0  0  0  0
  160.7270  204.5710  149.4390 C   0  0  2  0  0  3  0  0  0  0  0  0
  160.9920  201.9010  148.4200 C   0  0  0  0  0  3  0  0  0  0  0  0
  161.2030  205.1620  146.9790 C   0  0  0  0  0  0  0  0  0  0  0  0
  160.8100  202.1400  149.8240 N   0  0  0  0  0  0  0  0  0  0  0  0
  161.2930  204.5620  145.7880 C   0  0  0  0  0  0  0  0  0  0  0  0
  160.6800  203.5490  151.7860 C   0  0  0  0  0  0  0  0  0  0  0  0
  160.2470  202.4610  152.7080 C   0  0  0  0  0  1  0  0  0  0  0  0
  161.5030  205.6950  150.0760 C   0  0  0  0  0  3  0  0  0  0  0  0
  161.2150  202.9260  147.6010 C   0  0  0  0  0  0  0  0  0  0  0  0
  161.4110  202.7670  145.8370 S   0  0  0  0  0  0  0  0  0  0  0  0
  161.0960  204.7160  152.2900 C   0  0  0  0  0  3  0  0  0  0  0  0
  161.6010  205.7940  151.4090 C   0  0  0  0  0  0  0  0  0  0  0  0
  160.7330  203.3410  150.3280 C   0  0  0  0  0  0  0  0  0  0  0  0
  161.2160  205.8380  143.5270 N   0  0  0  0  0  0  0  0  0  0  0  0
  161.2500  205.2700  144.5340 C   0  0  0  0  0  0  0  0  0  0  0  0
  162.3310  207.2950  147.5150 C   0  0  0  0  0  1  0  0  0  0  0  0
  161.0150  206.6400  147.1420 C   0  0  0  0  0  2  0  0  0  0  0  0
  162.3220  206.9510  152.0080 C   0  0  0  0  0  2  0  0  0  0  0  0
  161.3520  207.8310  152.7790 C   0  0  0  0  0  2  0  0  0  0  0  0
  161.0000  209.0700  151.9720 C   0  0  2  0  0  3  0  0  0  0  0  0
  162.1250  209.4360  151.1290 N   0  0  0  0  0  1  0  0  0  0  0  0
  160.6450  210.2130  152.8680 C   0  0  0  0  0  0  0  0  0  0  0  0
  161.6090  210.7500  153.7080 O   0  0  0  0  0  1  0  0  0  0  0  0
  159.4810  210.6960  152.8580 O   0  0  0  0  0  0  0  0  0  0  0  0
  1  2  1  0  0  0  0
  2  9  1  1  0  0  0
  2 14  1  0  0  0  0
  3  5  1  0  0  0  0
  4 18  1  0  0  0  0
  4  1  1  0  0  0  0
  5 14  2  0  0  0  0
  6 11  1  0  0  0  0
  6  4  2  0  0  0  0
  7 12  2  0  0  0  0
  7  8  1  0  0  0  0
  9 13  2  0  0  0  0
 10  1  1  0  0  0  0
 10  3  2  0  0  0  0
 11 10  1  0  0  0  0
 13 19  1  0  0  0  0
 13 12  1  0  0  0  0
 14  7  1  0  0  0  0
 15 16  3  0  0  0  0
 16  6  1  0  0  0  0
 18 17  1  0  0  0  0
 19 20  1  0  0  0  0
 21 22  1  1  0  0  0
 21 20  1  0  0  0  0
 21 23  1  0  0  0  0
 23 24  1  0  0  0  0
 25 23  2  0  0  0  0
M  END
>  <MODEL>
8

>  <REMARK>
 VINA RESULT:      -6.6      2.288      4.570
  Name = 
  6 active torsions:
  status: ('A' for Active; 'I' for Inactive)
    1  A    between atoms: C_2  and  CA_21
    2  A    between atoms: C_5  and  C_22
    3  A    between atoms: C_6  and  C_15
    4  A    between atoms: C_6  and  C_23
    5  A    between atoms: C_10  and  C_11
    6  A    between atoms: C_15  and  CA_21
                            x       y       z     vdW  Elec       q    Type
                         _______ _______ _______ _____ _____    ______ ____

>  <TORSDO>
F 6

$$$$
=
 OpenBabel11052422173D

 25 27  0  0  1  0  0  0  0  0999 V2000
  161.1180  209.6340  151.9320 N   0  0  0  0  0  0  0  0  0  0  0  0
  161.5200  208.5500  152.8360 C   0  0  2  0  0  3  0  0  0  0  0  0
  160.1300  210.9080  153.6990 C   0  0  0  0  0  3  0  0  0  0  0  0
  161.6800  209.8930  150.6470 C   0  0  0  0  0  0  0  0  0  0  0  0
  160.2360  209.7600  154.5560 N   0  0  0  0  0  0  0  0  0  0  0  0
  161.4550  211.1300  150.1930 C   0  0  0  0  0  0  0  0  0  0  0  0
  160.7930  207.4560  155.0350 C   0  0  0  0  0  0  0  0  0  0  0  0
  160.5380  207.5540  156.4990 C   0  0  0  0  0  1  0  0  0  0  0  0
  161.3090  207.1870  152.2300 C   0  0  0  0  0  3  0  0  0  0  0  0
  160.5250  210.8230  152.4320 C   0  0  0  0  0  0  0  0  0  0  0  0
  160.4860  212.1850  151.2830 S   0  0  0  0  0  0  0  0  0  0  0  0
  160.9310  206.2520  154.4680 C   0  0  0  0  0  3  0  0  0  0  0  0
  161.1140  206.1110  153.0040 C   0  0  0  0  0  0  0  0  0  0  0  0
  160.8190  208.6560  154.1790 C   0  0  0  0  0  0  0  0  0  0  0  0
  162.4050  212.0310  147.9500 N   0  0  0  0  0  0  0  0  0  0  0  0
  161.9810  211.6300  148.9490 C   0  0  0  0  0  0  0  0  0  0  0  0
  161.7050  208.1480  148.8960 C   0  0  0  0  0  1  0  0  0  0  0  0
  162.5340  208.8950  149.9230 C   0  0  0  0  0  2  0  0  0  0  0  0
  160.9700  204.7690  152.3750 C   0  0  0  0  0  2  0  0  0  0  0  0
  161.1420  204.8770  150.8690 C   0  0  0  0  0  2  0  0  0  0  0  0
  160.6220  203.6230  150.1830 C   0  0  2  0  0  3  0  0  0  0  0  0
  161.0490  202.4510  150.9270 N   0  0  0  0  0  1  0  0  0  0  0  0
  161.1160  203.5370  148.7740 C   0  0  0  0  0  0  0  0  0  0  0  0
  161.1090  202.3140  148.1190 O   0  0  0  0  0  0  0  0  0  0  0  0
  161.5280  204.5660  148.1750 O   0  0  0  0  0  1  0  0  0  0  0  0
  1 10  1  0  0  0  0
  1  2  1  0  0  0  0
  2  9  1  6  0  0  0
  2 14  1  0  0  0  0
  3  5  1  0  0  0  0
  4  1  1  0  0  0  0
  6  4  2  0  0  0  0
  6 11  1  0  0  0  0
  7  8  1  0  0  0  0
  9 13  2  0  0  0  0
 10  3  2  0  0  0  0
 11 10  1  0  0  0  0
 12  7  2  0  0  0  0
 13 12  1  0  0  0  0
 14  5  2  0  0  0  0
 14  7  1  0  0  0  0
 15 16  3  0  0  0  0
 16  6  1  0  0  0  0
 17 18  1  0  0  0  0
 18  4  1  0  0  0  0
 19 13  1  0  0  0  0
 20 19  1  0  0  0  0
 21 20  1  0  0  0  0
 21 22  1  1  0  0  0
 23 21  1  0  0  0  0
 24 23  2  0  0  0  0
 25 23  1  0  0  0  0
M  END
>  <MODEL>
9

>  <REMARK>
 VINA RESULT:      -6.5      3.926      7.052
  Name = 
  6 active torsions:
  status: ('A' for Active; 'I' for Inactive)
    1  A    between atoms: C_2  and  CA_21
    2  A    between atoms: C_5  and  C_22
    3  A    between atoms: C_6  and  C_15
    4  A    between atoms: C_6  and  C_23
    5  A    between atoms: C_10  and  C_11
    6  A    between atoms: C_15  and  CA_21
                            x       y       z     vdW  Elec       q    Type
                         _______ _______ _______ _____ _____    ______ ____

>  <TORSDO>
F 6

$$$$
