=
 OpenBabel11062408173D

 32 35  0  0  1  0  0  0  0  0999 V2000
  161.7570  207.7040  152.0550 C   0  0  1  0  0  3  0  0  0  0  0  0
  161.3620  207.4680  149.4870 C   0  0  0  0  0  2  0  0  0  0  0  0
  162.0990  206.9560  153.3550 C   0  0  0  0  0  2  0  0  0  0  0  0
  161.8710  206.8300  150.7770 C   0  0  2  0  0  3  0  0  0  0  0  0
  160.6510  203.5560  148.0290 C   0  0  0  0  0  2  0  0  0  0  0  0
  161.5240  205.6530  147.1460 N   0  0  1  0  0  0  0  0  0  0  0  0
  161.4330  205.4030  151.0100 C   0  0  0  0  0  0  0  0  0  0  0  0
  161.6560  204.2040  147.0980 C   0  0  0  0  0  2  0  0  0  0  0  0
  160.4780  204.7070  150.0850 C   0  0  0  0  0  2  0  0  0  0  0  0
  161.8250  204.8090  152.1450 C   0  0  0  0  0  3  0  0  0  0  0  0
  162.4750  207.5130  148.4530 C   0  0  0  0  0  2  0  0  0  0  0  0
  161.1310  203.5990  149.4020 N   0  0  0  0  0  0  0  0  0  0  0  0
  162.6920  205.5680  153.1050 C   0  0  0  0  0  2  0  0  0  0  0  0
  162.7280  206.1520  147.8110 C   0  0  0  0  0  2  0  0  0  0  0  0
  160.0770  206.2880  145.2550 C   0  0  0  0  0  2  0  0  0  0  0  0
  161.3490  205.1440  143.4930 C   0  0  0  0  0  1  0  0  0  0  0  0
  161.4950  206.0960  145.7570 C   0  0  2  0  0  3  0  0  0  0  0  0
  160.8300  205.0320  144.9080 C   0  0  1  0  0  3  0  0  0  0  0  0
  160.7970  202.3340  150.0750 C   0  0  0  0  0  2  0  0  0  0  0  0
  160.9360  201.1020  149.1710 C   0  0  0  0  0  1  0  0  0  0  0  0
  159.8980  208.2460  153.4580 O   0  0  0  0  0  1  0  0  0  0  0  0
  160.4670  208.5270  152.2170 C   0  0  1  0  0  3  0  0  0  0  0  0
  160.6470  210.0490  152.0420 C   0  0  2  0  0  3  0  0  0  0  0  0
  163.0200  210.3150  152.1360 O   0  0  0  0  0  1  0  0  0  0  0  0
  161.9790  210.3560  151.4270 C   0  0  0  0  0  0  0  0  0  0  0  0
  162.0780  210.6600  150.0780 O   0  0  0  0  0  0  0  0  0  0  0  0
  160.5080  210.7880  153.3740 C   0  0  0  0  0  2  0  0  0  0  0  0
  158.5800  211.9330  152.2380 O   0  0  0  0  0  1  0  0  0  0  0  0
  159.2030  212.7560  154.4390 C   0  0  0  0  0  2  0  0  0  0  0  0
  159.2300  211.6270  153.4350 C   0  0  2  0  0  0  0  0  0  0  0  0
  158.8730  210.7040  155.7730 C   0  0  0  0  0  1  0  0  0  0  0  0
  158.3070  211.5380  154.6410 C   0  0  1  0  0  3  0  0  0  0  0  0
  1 22  1  1  0  0  0
  1  3  1  0  0  0  0
  4  2  1  6  0  0  0
  4  7  1  0  0  0  0
  4  1  1  0  0  0  0
  5 12  1  0  0  0  0
  6  8  1  6  0  0  0
  6 14  1  0  0  0  0
  7 10  2  0  0  0  0
  8  5  1  0  0  0  0
  9  7  1  0  0  0  0
 10 13  1  0  0  0  0
 11  2  1  0  0  0  0
 12 19  1  0  0  0  0
 12  9  1  0  0  0  0
 13  3  1  0  0  0  0
 14 11  1  0  0  0  0
 17 15  1  1  0  0  0
 17  6  1  0  0  0  0
 18 16  1  6  0  0  0
 18 15  1  0  0  0  0
 18 17  1  0  0  0  0
 20 19  1  0  0  0  0
 22 21  1  1  0  0  0
 23 22  1  0  0  0  0
 23 27  1  1  0  0  0
 25 23  1  0  0  0  0
 25 24  1  0  0  0  0
 26 25  2  0  0  0  0
 27 30  1  0  0  0  0
 29 32  1  0  0  0  0
 30 28  1  6  0  0  0
 30 29  1  0  0  0  0
 30 32  1  0  0  0  0
 32 31  1  1  0  0  0
M  END
>  <MODEL>
1

>  <REMARK>
 VINA RESULT:      -6.2      0.000      0.000
  Name = 
  7 active torsions:
  status: ('A' for Active; 'I' for Inactive)
    1  A    between atoms: C_1  and  C_27
    2  A    between atoms: N_10  and  C_12
    3  A    between atoms: C_13  and  N_29
    4  A    between atoms: C_15  and  C_20
    5  A    between atoms: C_16  and  C_20
    6  A    between atoms: C_16  and  C_22
    7  A    between atoms: C_16  and  C_27
                            x       y       z     vdW  Elec       q    Type
                         _______ _______ _______ _____ _____    ______ ____

>  <TORSDO>
F 7

$$$$
=
 OpenBabel11062408173D

 32 35  0  0  1  0  0  0  0  0999 V2000
  161.6470  208.4000  152.3110 C   0  0  1  0  0  3  0  0  0  0  0  0
  161.3740  207.9530  149.7570 C   0  0  0  0  0  2  0  0  0  0  0  0
  161.9010  207.7590  153.6870 C   0  0  0  0  0  2  0  0  0  0  0  0
  161.7970  207.4150  151.1210 C   0  0  2  0  0  3  0  0  0  0  0  0
  160.6160  203.9500  148.6010 C   0  0  0  0  0  2  0  0  0  0  0  0
  161.5960  205.9380  147.5900 N   0  0  1  0  0  0  0  0  0  0  0  0
  161.3050  206.0260  151.4520 C   0  0  0  0  0  0  0  0  0  0  0  0
  161.6850  204.4880  147.6730 C   0  0  0  0  0  2  0  0  0  0  0  0
  160.3770  205.2790  150.5400 C   0  0  0  0  0  2  0  0  0  0  0  0
  161.6220  205.5230  152.6520 C   0  0  0  0  0  3  0  0  0  0  0  0
  162.5380  207.8780  148.7810 C   0  0  0  0  0  2  0  0  0  0  0  0
  161.0280  204.0980  149.9900 N   0  0  0  0  0  0  0  0  0  0  0  0
  162.4630  206.3390  153.5870 C   0  0  0  0  0  2  0  0  0  0  0  0
  162.7800  206.4610  148.2730 C   0  0  0  0  0  2  0  0  0  0  0  0
  160.2660  206.4570  145.5820 C   0  0  0  0  0  2  0  0  0  0  0  0
  161.5740  205.1200  143.9900 C   0  0  0  0  0  1  0  0  0  0  0  0
  161.6500  206.2600  146.1690 C   0  0  2  0  0  3  0  0  0  0  0  0
  160.9850  205.1490  145.3810 C   0  0  1  0  0  3  0  0  0  0  0  0
  160.6220  202.9050  150.7490 C   0  0  0  0  0  2  0  0  0  0  0  0
  160.8010  201.5940  149.9740 C   0  0  0  0  0  1  0  0  0  0  0  0
  159.5780  208.8800  153.4100 O   0  0  0  0  0  1  0  0  0  0  0  0
  160.3770  209.2680  152.3350 C   0  0  1  0  0  3  0  0  0  0  0  0
  160.6350  210.7880  152.3790 C   0  0  2  0  0  3  0  0  0  0  0  0
  160.0510  211.9530  154.3820 O   0  0  0  0  0  0  0  0  0  0  0  0
  160.8980  211.2370  153.7840 C   0  0  0  0  0  0  0  0  0  0  0  0
  162.0570  210.8500  154.4410 O   0  0  0  0  0  1  0  0  0  0  0  0
  159.4600  211.5740  151.7950 C   0  0  0  0  0  2  0  0  0  0  0  0
  161.0410  212.4230  150.0340 O   0  0  0  0  0  1  0  0  0  0  0  0
  159.8510  214.0940  151.3380 C   0  0  0  0  0  2  0  0  0  0  0  0
  159.9250  212.6720  150.8340 C   0  0  2  0  0  0  0  0  0  0  0  0
  157.5220  213.4880  150.7880 C   0  0  0  0  0  1  0  0  0  0  0  0
  158.9200  213.6350  150.2210 C   0  0  1  0  0  3  0  0  0  0  0  0
  1 22  1  1  0  0  0
  1  3  1  0  0  0  0
  4  2  1  6  0  0  0
  4  7  1  0  0  0  0
  4  1  1  0  0  0  0
  5 12  1  0  0  0  0
  6  8  1  6  0  0  0
  6 14  1  0  0  0  0
  7 10  2  0  0  0  0
  8  5  1  0  0  0  0
  9  7  1  0  0  0  0
 10 13  1  0  0  0  0
 11  2  1  0  0  0  0
 12  9  1  0  0  0  0
 12 19  1  0  0  0  0
 13  3  1  0  0  0  0
 14 11  1  0  0  0  0
 17 15  1  1  0  0  0
 17  6  1  0  0  0  0
 18 16  1  6  0  0  0
 18 15  1  0  0  0  0
 18 17  1  0  0  0  0
 20 19  1  0  0  0  0
 22 23  1  0  0  0  0
 22 21  1  1  0  0  0
 23 27  1  1  0  0  0
 23 25  1  0  0  0  0
 25 24  2  0  0  0  0
 25 26  1  0  0  0  0
 30 28  1  6  0  0  0
 30 29  1  0  0  0  0
 30 27  1  0  0  0  0
 32 31  1  1  0  0  0
 32 30  1  0  0  0  0
 32 29  1  0  0  0  0
M  END
>  <MODEL>
2

>  <REMARK>
 VINA RESULT:      -5.3      1.570      2.158
  Name = 
  7 active torsions:
  status: ('A' for Active; 'I' for Inactive)
    1  A    between atoms: C_1  and  C_27
    2  A    between atoms: N_10  and  C_12
    3  A    between atoms: C_13  and  N_29
    4  A    between atoms: C_15  and  C_20
    5  A    between atoms: C_16  and  C_20
    6  A    between atoms: C_16  and  C_22
    7  A    between atoms: C_16  and  C_27
                            x       y       z     vdW  Elec       q    Type
                         _______ _______ _______ _____ _____    ______ ____

>  <TORSDO>
F 7

$$$$
=
 OpenBabel11062408173D

 32 35  0  0  1  0  0  0  0  0999 V2000
  161.1000  207.4150  151.9320 C   0  0  1  0  0  3  0  0  0  0  0  0
  160.5810  209.9630  152.1260 C   0  0  0  0  0  2  0  0  0  0  0  0
  161.2740  206.0980  152.7070 C   0  0  0  0  0  2  0  0  0  0  0  0
  160.5890  208.5950  152.8010 C   0  0  2  0  0  3  0  0  0  0  0  0
  160.9270  211.6820  155.9800 C   0  0  0  0  0  2  0  0  0  0  0  0
  159.6980  212.1480  153.9290 N   0  0  1  0  0  0  0  0  0  0  0  0
  161.1500  208.5670  154.2030 C   0  0  0  0  0  0  0  0  0  0  0  0
  159.6290  212.1850  155.3820 C   0  0  0  0  0  2  0  0  0  0  0  0
  161.7530  209.7860  154.8370 C   0  0  0  0  0  2  0  0  0  0  0  0
  161.2110  207.3830  154.8260 C   0  0  0  0  0  3  0  0  0  0  0  0
  159.1750  210.5420  152.1350 C   0  0  0  0  0  2  0  0  0  0  0  0
  160.9570  210.2270  155.9750 N   0  0  0  0  0  0  0  0  0  0  0  0
  160.6990  206.1610  154.1240 C   0  0  0  0  0  2  0  0  0  0  0  0
  158.7810  211.0900  153.5030 C   0  0  0  0  0  2  0  0  0  0  0  0
  158.4670  214.1850  154.5670 C   0  0  0  0  0  2  0  0  0  0  0  0
  157.1990  214.4470  152.4800 C   0  0  0  0  0  1  0  0  0  0  0  0
  159.2150  213.4460  153.4740 C   0  0  2  0  0  3  0  0  0  0  0  0
  157.7000  213.4510  153.4990 C   0  0  1  0  0  3  0  0  0  0  0  0
  161.5690  209.7480  157.2250 C   0  0  0  0  0  2  0  0  0  0  0  0
  163.0950  209.9010  157.2600 C   0  0  0  0  0  1  0  0  0  0  0  0
  163.3410  206.7970  151.3660 O   0  0  0  0  0  1  0  0  0  0  0  0
  162.3230  207.6930  151.0390 C   0  0  1  0  0  3  0  0  0  0  0  0
  162.0380  207.6510  149.5240 C   0  0  2  0  0  3  0  0  0  0  0  0
  161.2610  209.2170  147.8960 O   0  0  0  0  0  0  0  0  0  0  0  0
  161.8800  209.0370  148.9780 C   0  0  0  0  0  0  0  0  0  0  0  0
  162.3890  210.1270  149.6690 O   0  0  0  0  0  1  0  0  0  0  0  0
  160.7890  206.8250  149.2100 C   0  0  0  0  0  2  0  0  0  0  0  0
  161.0460  204.3410  149.5010 O   0  0  0  0  0  1  0  0  0  0  0  0
  162.3110  205.3710  147.6990 C   0  0  0  0  0  2  0  0  0  0  0  0
  161.1400  205.4440  148.6510 C   0  0  2  0  0  0  0  0  0  0  0  0
  160.4620  206.3230  146.3670 C   0  0  0  0  0  1  0  0  0  0  0  0
  160.8970  205.1220  147.1830 C   0  0  1  0  0  3  0  0  0  0  0  0
  1 22  1  1  0  0  0
  1  3  1  0  0  0  0
  1  4  1  0  0  0  0
  2 11  1  0  0  0  0
  3 13  1  0  0  0  0
  4  2  1  6  0  0  0
  4  7  1  0  0  0  0
  6 14  1  6  0  0  0
  6  8  1  0  0  0  0
  7 10  2  0  0  0  0
  7  9  1  0  0  0  0
  8  5  1  0  0  0  0
  9 12  1  0  0  0  0
 11 14  1  0  0  0  0
 12  5  1  0  0  0  0
 12 19  1  0  0  0  0
 13 10  1  0  0  0  0
 17 18  1  0  0  0  0
 17  6  1  0  0  0  0
 17 15  1  1  0  0  0
 18 16  1  6  0  0  0
 18 15  1  0  0  0  0
 19 20  1  0  0  0  0
 22 21  1  6  0  0  0
 23 27  1  1  0  0  0
 23 22  1  0  0  0  0
 24 25  2  0  0  0  0
 25 23  1  0  0  0  0
 25 26  1  0  0  0  0
 29 30  1  0  0  0  0
 30 27  1  0  0  0  0
 30 28  1  1  0  0  0
 32 31  1  6  0  0  0
 32 29  1  0  0  0  0
 32 30  1  0  0  0  0
M  END
>  <MODEL>
3

>  <REMARK>
 VINA RESULT:      -5.1      3.166      8.081
  Name = 
  7 active torsions:
  status: ('A' for Active; 'I' for Inactive)
    1  A    between atoms: C_1  and  C_27
    2  A    between atoms: N_10  and  C_12
    3  A    between atoms: C_13  and  N_29
    4  A    between atoms: C_15  and  C_20
    5  A    between atoms: C_16  and  C_20
    6  A    between atoms: C_16  and  C_22
    7  A    between atoms: C_16  and  C_27
                            x       y       z     vdW  Elec       q    Type
                         _______ _______ _______ _____ _____    ______ ____

>  <TORSDO>
F 7

$$$$
=
 OpenBabel11062408173D

 32 35  0  0  1  0  0  0  0  0999 V2000
  160.8530  209.8320  154.1280 C   0  0  1  0  0  3  0  0  0  0  0  0
  160.9370  209.1140  151.6220 C   0  0  0  0  0  2  0  0  0  0  0  0
  161.0560  209.3730  155.5820 C   0  0  0  0  0  2  0  0  0  0  0  0
  161.2910  208.7850  153.0690 C   0  0  2  0  0  3  0  0  0  0  0  0
  160.9750  204.9510  150.8420 C   0  0  0  0  0  2  0  0  0  0  0  0
  161.7210  206.9790  149.7160 N   0  0  1  0  0  0  0  0  0  0  0  0
  161.0000  207.3670  153.5020 C   0  0  0  0  0  0  0  0  0  0  0  0
  162.0370  205.5800  149.9630 C   0  0  0  0  0  2  0  0  0  0  0  0
  160.3110  206.3900  152.5950 C   0  0  0  0  0  2  0  0  0  0  0  0
  161.2610  207.0380  154.7740 C   0  0  0  0  0  3  0  0  0  0  0  0
  162.1960  209.1540  150.7720 C   0  0  0  0  0  2  0  0  0  0  0  0
  161.2030  205.2950  152.2380 N   0  0  0  0  0  0  0  0  0  0  0  0
  161.8500  208.0690  155.6890 C   0  0  0  0  0  2  0  0  0  0  0  0
  162.7210  207.7600  150.4440 C   0  0  0  0  0  2  0  0  0  0  0  0
  160.6120  206.8180  147.5210 C   0  0  0  0  0  2  0  0  0  0  0  0
  162.5190  205.8970  146.2770 C   0  0  0  0  0  1  0  0  0  0  0  0
  161.8760  207.1750  148.2800 C   0  0  2  0  0  3  0  0  0  0  0  0
  161.7530  205.8370  147.5780 C   0  0  1  0  0  3  0  0  0  0  0  0
  160.9170  204.1240  153.0820 C   0  0  0  0  0  2  0  0  0  0  0  0
  160.8260  202.8090  152.2970 C   0  0  0  0  0  1  0  0  0  0  0  0
  158.6710  210.1670  155.0480 O   0  0  0  0  0  1  0  0  0  0  0  0
  159.4630  210.4650  153.9400 C   0  0  1  0  0  3  0  0  0  0  0  0
  159.4750  211.9850  153.6830 C   0  0  2  0  0  3  0  0  0  0  0  0
  160.0590  212.9870  155.7720 O   0  0  0  0  0  1  0  0  0  0  0  0
  159.1490  212.7350  154.9380 C   0  0  0  0  0  0  0  0  0  0  0  0
  157.8560  213.1780  155.1780 O   0  0  0  0  0  0  0  0  0  0  0  0
  158.4950  212.3770  152.5760 C   0  0  0  0  0  2  0  0  0  0  0  0
  160.4110  212.3630  150.9490 O   0  0  0  0  0  1  0  0  0  0  0  0
  159.1940  214.4530  151.1930 C   0  0  0  0  0  2  0  0  0  0  0  0
  159.2110  212.9500  151.3510 C   0  0  2  0  0  0  0  0  0  0  0  0
  156.9360  213.7140  150.5230 C   0  0  0  0  0  1  0  0  0  0  0  0
  158.4140  213.5790  150.2170 C   0  0  1  0  0  3  0  0  0  0  0  0
  1 22  1  1  0  0  0
  1  3  1  0  0  0  0
  3 13  1  0  0  0  0
  4  2  1  6  0  0  0
  4  7  1  0  0  0  0
  4  1  1  0  0  0  0
  5 12  1  0  0  0  0
  6  8  1  6  0  0  0
  6 14  1  0  0  0  0
  7 10  2  0  0  0  0
  8  5  1  0  0  0  0
  9  7  1  0  0  0  0
 10 13  1  0  0  0  0
 11  2  1  0  0  0  0
 12  9  1  0  0  0  0
 12 19  1  0  0  0  0
 14 11  1  0  0  0  0
 15 18  1  0  0  0  0
 17 15  1  6  0  0  0
 17  6  1  0  0  0  0
 18 16  1  6  0  0  0
 18 17  1  0  0  0  0
 20 19  1  0  0  0  0
 22 21  1  1  0  0  0
 23 27  1  6  0  0  0
 23 22  1  0  0  0  0
 23 25  1  0  0  0  0
 25 26  2  0  0  0  0
 25 24  1  0  0  0  0
 29 30  1  0  0  0  0
 30 28  1  6  0  0  0
 30 27  1  0  0  0  0
 32 31  1  1  0  0  0
 32 29  1  0  0  0  0
 32 30  1  0  0  0  0
M  END
>  <MODEL>
4

>  <REMARK>
 VINA RESULT:      -5.0      2.238      3.632
  Name = 
  7 active torsions:
  status: ('A' for Active; 'I' for Inactive)
    1  A    between atoms: C_1  and  C_27
    2  A    between atoms: N_10  and  C_12
    3  A    between atoms: C_13  and  N_29
    4  A    between atoms: C_15  and  C_20
    5  A    between atoms: C_16  and  C_20
    6  A    between atoms: C_16  and  C_22
    7  A    between atoms: C_16  and  C_27
                            x       y       z     vdW  Elec       q    Type
                         _______ _______ _______ _____ _____    ______ ____

>  <TORSDO>
F 7

$$$$
=
 OpenBabel11062408173D

 32 35  0  0  1  0  0  0  0  0999 V2000
  160.8970  208.0440  151.7170 C   0  0  1  0  0  3  0  0  0  0  0  0
  160.1440  210.4640  152.3320 C   0  0  0  0  0  2  0  0  0  0  0  0
  161.2650  206.6560  152.2680 C   0  0  0  0  0  2  0  0  0  0  0  0
  160.3450  209.0220  152.7880 C   0  0  2  0  0  3  0  0  0  0  0  0
  160.6350  211.6340  156.3730 C   0  0  0  0  0  2  0  0  0  0  0  0
  159.2000  212.2520  154.5040 N   0  0  1  0  0  0  0  0  0  0  0  0
  161.0200  208.8540  154.1290 C   0  0  0  0  0  0  0  0  0  0  0  0
  159.2480  212.0710  155.9470 C   0  0  0  0  0  2  0  0  0  0  0  0
  161.5490  210.0270  154.9000 C   0  0  0  0  0  2  0  0  0  0  0  0
  161.2510  207.6060  154.5580 C   0  0  0  0  0  3  0  0  0  0  0  0
  158.6930  210.8750  152.5240 C   0  0  0  0  0  2  0  0  0  0  0  0
  160.8110  210.2070  156.1430 N   0  0  0  0  0  0  0  0  0  0  0  0
  160.8070  206.4490  153.7130 C   0  0  0  0  0  2  0  0  0  0  0  0
  158.3610  211.1720  153.9830 C   0  0  0  0  0  2  0  0  0  0  0  0
  157.6370  213.9140  155.4350 C   0  0  0  0  0  2  0  0  0  0  0  0
  156.4740  214.4530  153.3400 C   0  0  0  0  0  1  0  0  0  0  0  0
  158.5540  213.5410  154.2860 C   0  0  2  0  0  3  0  0  0  0  0  0
  157.0570  213.3350  154.1720 C   0  0  1  0  0  3  0  0  0  0  0  0
  161.5680  209.6230  157.2610 C   0  0  0  0  0  2  0  0  0  0  0  0
  163.0810  209.8580  157.1670 C   0  0  0  0  0  1  0  0  0  0  0  0
  163.0800  207.6900  150.8030 O   0  0  0  0  0  1  0  0  0  0  0  0
  162.0080  208.5830  150.7970 C   0  0  1  0  0  3  0  0  0  0  0  0
  161.5620  208.8750  149.3500 C   0  0  2  0  0  3  0  0  0  0  0  0
  162.6640  207.3780  147.8490 O   0  0  0  0  0  0  0  0  0  0  0  0
  161.6260  207.6320  148.5170 C   0  0  0  0  0  0  0  0  0  0  0  0
  160.5600  206.7430  148.4940 O   0  0  0  0  0  1  0  0  0  0  0  0
  162.4140  209.9720  148.7100 C   0  0  0  0  0  2  0  0  0  0  0  0
  161.0490  211.6640  149.9740 O   0  0  0  0  0  1  0  0  0  0  0  0
  161.0960  211.8800  147.5530 C   0  0  0  0  0  2  0  0  0  0  0  0
  161.7480  211.3470  148.8080 C   0  0  2  0  0  0  0  0  0  0  0  0
  163.5200  212.1920  147.1980 C   0  0  0  0  0  1  0  0  0  0  0  0
  162.3540  212.5490  148.0980 C   0  0  1  0  0  3  0  0  0  0  0  0
  1 22  1  1  0  0  0
  1  3  1  0  0  0  0
  1  4  1  0  0  0  0
  2 11  1  0  0  0  0
  3 13  1  0  0  0  0
  4  2  1  6  0  0  0
  4  7  1  0  0  0  0
  6 14  1  6  0  0  0
  6  8  1  0  0  0  0
  7 10  2  0  0  0  0
  7  9  1  0  0  0  0
  8  5  1  0  0  0  0
  9 12  1  0  0  0  0
 11 14  1  0  0  0  0
 12  5  1  0  0  0  0
 12 19  1  0  0  0  0
 13 10  1  0  0  0  0
 17  6  1  0  0  0  0
 17 15  1  1  0  0  0
 18 16  1  6  0  0  0
 18 17  1  0  0  0  0
 18 15  1  0  0  0  0
 20 19  1  0  0  0  0
 22 21  1  6  0  0  0
 23 27  1  6  0  0  0
 23 22  1  0  0  0  0
 24 25  2  0  0  0  0
 25 23  1  0  0  0  0
 26 25  1  0  0  0  0
 27 30  1  0  0  0  0
 29 32  1  0  0  0  0
 29 30  1  0  0  0  0
 30 28  1  1  0  0  0
 32 31  1  6  0  0  0
 32 30  1  0  0  0  0
M  END
>  <MODEL>
5

>  <REMARK>
 VINA RESULT:      -4.6      3.732      7.953
  Name = 
  7 active torsions:
  status: ('A' for Active; 'I' for Inactive)
    1  A    between atoms: C_1  and  C_27
    2  A    between atoms: N_10  and  C_12
    3  A    between atoms: C_13  and  N_29
    4  A    between atoms: C_15  and  C_20
    5  A    between atoms: C_16  and  C_20
    6  A    between atoms: C_16  and  C_22
    7  A    between atoms: C_16  and  C_27
                            x       y       z     vdW  Elec       q    Type
                         _______ _______ _______ _____ _____    ______ ____

>  <TORSDO>
F 7

$$$$
=
 OpenBabel11062408173D

 32 35  0  0  1  0  0  0  0  0999 V2000
  161.7050  206.2200  150.3750 C   0  0  1  0  0  3  0  0  0  0  0  0
  160.8350  207.2760  152.5950 C   0  0  0  0  0  2  0  0  0  0  0  0
  162.4060  206.4950  149.0340 C   0  0  0  0  0  2  0  0  0  0  0  0
  161.6800  207.4390  151.3350 C   0  0  2  0  0  3  0  0  0  0  0  0
  160.4090  211.4890  152.6520 C   0  0  0  0  0  2  0  0  0  0  0  0
  160.7760  209.7160  154.2820 N   0  0  1  0  0  0  0  0  0  0  0  0
  161.5080  208.7490  150.6030 C   0  0  0  0  0  0  0  0  0  0  0  0
  161.1010  211.0930  153.9400 C   0  0  0  0  0  2  0  0  0  0  0  0
  160.4940  209.7680  151.0350 C   0  0  0  0  0  2  0  0  0  0  0  0
  162.2020  208.9270  149.4720 C   0  0  0  0  0  3  0  0  0  0  0  0
  161.6970  207.4760  153.8310 C   0  0  0  0  0  2  0  0  0  0  0  0
  161.1460  210.9830  151.5040 N   0  0  0  0  0  0  0  0  0  0  0  0
  163.1290  207.8440  149.0060 C   0  0  0  0  0  2  0  0  0  0  0  0
  162.0060  208.9460  154.0940 C   0  0  0  0  0  2  0  0  0  0  0  0
  159.0910  209.0140  155.9370 C   0  0  0  0  0  2  0  0  0  0  0  0
  159.0700  211.0850  157.2570 C   0  0  0  0  0  1  0  0  0  0  0  0
  160.4040  209.7330  155.6920 C   0  0  2  0  0  3  0  0  0  0  0  0
  159.1170  210.5170  155.8580 C   0  0  1  0  0  3  0  0  0  0  0  0
  161.1390  211.9950  150.4350 C   0  0  0  0  0  2  0  0  0  0  0  0
  160.0470  213.0590  150.6050 C   0  0  0  0  0  1  0  0  0  0  0  0
  159.8610  205.8230  148.9030 O   0  0  0  0  0  1  0  0  0  0  0  0
  160.3700  205.4850  150.1570 C   0  0  1  0  0  3  0  0  0  0  0  0
  160.4460  203.9520  150.3090 C   0  0  2  0  0  3  0  0  0  0  0  0
  160.6220  204.0170  152.6900 O   0  0  0  0  0  1  0  0  0  0  0  0
  161.0950  203.5820  151.6070 C   0  0  0  0  0  0  0  0  0  0  0  0
  162.1990  202.7420  151.6280 O   0  0  0  0  0  0  0  0  0  0  0  0
  161.2070  203.3090  149.1470 C   0  0  0  0  0  2  0  0  0  0  0  0
  159.4850  201.4970  149.4210 O   0  0  0  0  0  1  0  0  0  0  0  0
  161.4450  200.9570  148.0880 C   0  0  0  0  0  2  0  0  0  0  0  0
  160.5390  202.0180  148.6680 C   0  0  2  0  0  0  0  0  0  0  0  0
  161.2420  202.6640  146.3160 C   0  0  0  0  0  1  0  0  0  0  0  0
  160.4640  201.6940  147.1830 C   0  0  1  0  0  3  0  0  0  0  0  0
  1 22  1  6  0  0  0
  1  4  1  0  0  0  0
  2 11  1  0  0  0  0
  3  1  1  0  0  0  0
  4  2  1  1  0  0  0
  5  8  1  0  0  0  0
  6  8  1  1  0  0  0
  6 17  1  0  0  0  0
  7  9  1  0  0  0  0
  7  4  1  0  0  0  0
  9 12  1  0  0  0  0
 10  7  2  0  0  0  0
 11 14  1  0  0  0  0
 12  5  1  0  0  0  0
 13  3  1  0  0  0  0
 13 10  1  0  0  0  0
 14  6  1  0  0  0  0
 17 18  1  0  0  0  0
 17 15  1  6  0  0  0
 18 15  1  0  0  0  0
 18 16  1  1  0  0  0
 19 20  1  0  0  0  0
 19 12  1  0  0  0  0
 22 21  1  6  0  0  0
 22 23  1  0  0  0  0
 23 27  1  6  0  0  0
 23 25  1  0  0  0  0
 25 26  2  0  0  0  0
 25 24  1  0  0  0  0
 29 30  1  0  0  0  0
 30 27  1  0  0  0  0
 30 28  1  1  0  0  0
 32 31  1  6  0  0  0
 32 29  1  0  0  0  0
 32 30  1  0  0  0  0
M  END
>  <MODEL>
6

>  <REMARK>
 VINA RESULT:      -4.5      3.245      8.675
  Name = 
  7 active torsions:
  status: ('A' for Active; 'I' for Inactive)
    1  A    between atoms: C_1  and  C_27
    2  A    between atoms: N_10  and  C_12
    3  A    between atoms: C_13  and  N_29
    4  A    between atoms: C_15  and  C_20
    5  A    between atoms: C_16  and  C_20
    6  A    between atoms: C_16  and  C_22
    7  A    between atoms: C_16  and  C_27
                            x       y       z     vdW  Elec       q    Type
                         _______ _______ _______ _____ _____    ______ ____

>  <TORSDO>
F 7

$$$$
=
 OpenBabel11062408173D

 32 35  0  0  1  0  0  0  0  0999 V2000
  161.5110  208.7040  152.0650 C   0  0  1  0  0  3  0  0  0  0  0  0
  159.6940  209.5520  153.7330 C   0  0  0  0  0  2  0  0  0  0  0  0
  162.5350  209.1170  150.9940 C   0  0  0  0  0  2  0  0  0  0  0  0
  160.8490  209.9010  152.7990 C   0  0  2  0  0  3  0  0  0  0  0  0
  158.2180  213.4700  153.0990 C   0  0  0  0  0  2  0  0  0  0  0  0
  158.4410  211.9360  154.9780 N   0  0  1  0  0  0  0  0  0  0  0  0
  160.6110  211.0810  151.8850 C   0  0  0  0  0  0  0  0  0  0  0  0
  158.5020  213.3340  154.5800 C   0  0  0  0  0  2  0  0  0  0  0  0
  159.2870  211.7850  151.8330 C   0  0  0  0  0  2  0  0  0  0  0  0
  161.5820  211.4060  151.0220 C   0  0  0  0  0  3  0  0  0  0  0  0
  159.9990  210.0330  155.1420 C   0  0  0  0  0  2  0  0  0  0  0  0
  159.4070  213.1520  152.3220 N   0  0  0  0  0  0  0  0  0  0  0  0
  162.8550  210.6130  151.0220 C   0  0  0  0  0  2  0  0  0  0  0  0
  159.8140  211.5400  155.2950 C   0  0  0  0  0  2  0  0  0  0  0  0
  156.3380  211.1120  155.9630 C   0  0  0  0  0  2  0  0  0  0  0  0
  155.7650  213.1450  157.2160 C   0  0  0  0  0  1  0  0  0  0  0  0
  157.6170  211.8990  156.1800 C   0  0  2  0  0  3  0  0  0  0  0  0
  156.3090  212.6160  155.9090 C   0  0  1  0  0  3  0  0  0  0  0  0
  159.5100  214.0800  151.1850 C   0  0  0  0  0  2  0  0  0  0  0  0
  158.6480  213.6740  149.9820 C   0  0  0  0  0  1  0  0  0  0  0  0
  160.5750  207.6430  150.1360 O   0  0  0  0  0  1  0  0  0  0  0  0
  160.5660  207.6130  151.5300 C   0  0  1  0  0  3  0  0  0  0  0  0
  160.8720  206.1890  152.0380 C   0  0  2  0  0  3  0  0  0  0  0  0
  162.5730  206.0380  153.7090 O   0  0  0  0  0  0  0  0  0  0  0  0
  161.3530  206.2270  153.4560 C   0  0  0  0  0  0  0  0  0  0  0  0
  160.4700  206.4930  154.4920 O   0  0  0  0  0  1  0  0  0  0  0  0
  161.9090  205.4900  151.1570 C   0  0  0  0  0  2  0  0  0  0  0  0
  161.3990  204.8250  148.7870 O   0  0  0  0  0  1  0  0  0  0  0  0
  159.9010  203.9870  150.5090 C   0  0  0  0  0  2  0  0  0  0  0  0
  161.2590  204.5420  150.1470 C   0  0  2  0  0  0  0  0  0  0  0  0
  161.5020  202.7070  151.8850 C   0  0  0  0  0  1  0  0  0  0  0  0
  161.1120  203.0610  150.4640 C   0  0  1  0  0  3  0  0  0  0  0  0
  1 22  1  6  0  0  0
  1  4  1  0  0  0  0
  2 11  1  0  0  0  0
  3 13  1  0  0  0  0
  3  1  1  0  0  0  0
  4  2  1  6  0  0  0
  5  8  1  0  0  0  0
  6  8  1  1  0  0  0
  6 14  1  0  0  0  0
  6 17  1  0  0  0  0
  7  4  1  0  0  0  0
  9  7  1  0  0  0  0
  9 12  1  0  0  0  0
 10 13  1  0  0  0  0
 10  7  2  0  0  0  0
 11 14  1  0  0  0  0
 12  5  1  0  0  0  0
 17 15  1  6  0  0  0
 18 15  1  0  0  0  0
 18 17  1  0  0  0  0
 18 16  1  1  0  0  0
 19 12  1  0  0  0  0
 20 19  1  0  0  0  0
 22 21  1  6  0  0  0
 22 23  1  0  0  0  0
 23 27  1  6  0  0  0
 23 25  1  0  0  0  0
 25 24  2  0  0  0  0
 25 26  1  0  0  0  0
 30 28  1  6  0  0  0
 30 32  1  0  0  0  0
 30 29  1  0  0  0  0
 30 27  1  0  0  0  0
 32 29  1  0  0  0  0
 32 31  1  1  0  0  0
M  END
>  <MODEL>
7

>  <REMARK>
 VINA RESULT:      -4.2      3.705      8.857
  Name = 
  7 active torsions:
  status: ('A' for Active; 'I' for Inactive)
    1  A    between atoms: C_1  and  C_27
    2  A    between atoms: N_10  and  C_12
    3  A    between atoms: C_13  and  N_29
    4  A    between atoms: C_15  and  C_20
    5  A    between atoms: C_16  and  C_20
    6  A    between atoms: C_16  and  C_22
    7  A    between atoms: C_16  and  C_27
                            x       y       z     vdW  Elec       q    Type
                         _______ _______ _______ _____ _____    ______ ____

>  <TORSDO>
F 7

$$$$
=
 OpenBabel11062408173D

 32 35  0  0  1  0  0  0  0  0999 V2000
  159.7260  211.6460  153.5260 C   0  0  1  0  0  3  0  0  0  0  0  0
  160.1180  209.6150  151.9380 C   0  0  0  0  0  2  0  0  0  0  0  0
  159.9710  212.2150  154.9340 C   0  0  0  0  0  2  0  0  0  0  0  0
  160.4750  210.3150  153.2450 C   0  0  2  0  0  3  0  0  0  0  0  0
  161.2810  205.9750  153.7640 C   0  0  0  0  0  2  0  0  0  0  0  0
  161.5250  207.0270  151.5800 N   0  0  1  0  0  0  0  0  0  0  0  0
  160.5430  209.4220  154.4620 C   0  0  0  0  0  0  0  0  0  0  0  0
  162.1830  206.1810  152.5640 C   0  0  0  0  0  2  0  0  0  0  0  0
  160.1790  207.9680  154.3960 C   0  0  0  0  0  2  0  0  0  0  0  0
  160.8190  209.9950  155.6410 C   0  0  0  0  0  3  0  0  0  0  0  0
  161.3630  209.4350  151.0840 C   0  0  0  0  0  2  0  0  0  0  0  0
  161.3430  207.1290  154.6490 N   0  0  0  0  0  0  0  0  0  0  0  0
  161.0730  211.4720  155.6930 C   0  0  0  0  0  2  0  0  0  0  0  0
  162.2500  208.2980  151.5820 C   0  0  0  0  0  2  0  0  0  0  0  0
  160.4110  206.3500  149.4880 C   0  0  0  0  0  2  0  0  0  0  0  0
  161.4150  204.1160  149.3120 C   0  0  0  0  0  1  0  0  0  0  0  0
  161.6940  206.3530  150.2980 C   0  0  2  0  0  3  0  0  0  0  0  0
  160.8090  205.1220  150.2620 C   0  0  1  0  0  3  0  0  0  0  0  0
  161.3320  206.6720  156.0480 C   0  0  0  0  0  2  0  0  0  0  0  0
  160.0250  206.9890  156.7870 C   0  0  0  0  0  1  0  0  0  0  0  0
  157.4950  211.1260  154.2130 O   0  0  0  0  0  1  0  0  0  0  0  0
  158.2300  211.6870  153.1690 C   0  0  1  0  0  3  0  0  0  0  0  0
  157.6870  213.0880  152.8230 C   0  0  2  0  0  3  0  0  0  0  0  0
  158.5210  213.9800  150.7690 O   0  0  0  0  0  0  0  0  0  0  0  0
  158.6860  213.8560  152.0120 C   0  0  0  0  0  0  0  0  0  0  0  0
  159.7790  214.4530  152.6230 O   0  0  0  0  0  1  0  0  0  0  0  0
  157.3260  213.8770  154.0830 C   0  0  0  0  0  2  0  0  0  0  0  0
  154.9870  213.0480  153.6840 O   0  0  0  0  0  1  0  0  0  0  0  0
  155.3350  214.4530  155.6380 C   0  0  0  0  0  2  0  0  0  0  0  0
  155.9260  213.5310  154.5960 C   0  0  2  0  0  0  0  0  0  0  0  0
  156.9920  213.0870  156.8570 C   0  0  0  0  0  1  0  0  0  0  0  0
  155.7300  213.0290  156.0190 C   0  0  1  0  0  3  0  0  0  0  0  0
  1 22  1  1  0  0  0
  1  3  1  0  0  0  0
  3 13  1  0  0  0  0
  4  2  1  6  0  0  0
  4  1  1  0  0  0  0
  4  7  1  0  0  0  0
  5 12  1  0  0  0  0
  6 14  1  6  0  0  0
  6  8  1  0  0  0  0
  7 10  2  0  0  0  0
  8  5  1  0  0  0  0
  9  7  1  0  0  0  0
  9 12  1  0  0  0  0
 10 13  1  0  0  0  0
 11 14  1  0  0  0  0
 11  2  1  0  0  0  0
 12 19  1  0  0  0  0
 15 18  1  0  0  0  0
 17 15  1  6  0  0  0
 17  6  1  0  0  0  0
 18 16  1  6  0  0  0
 18 17  1  0  0  0  0
 19 20  1  0  0  0  0
 22 21  1  1  0  0  0
 23 22  1  0  0  0  0
 23 27  1  1  0  0  0
 24 25  2  0  0  0  0
 25 26  1  0  0  0  0
 25 23  1  0  0  0  0
 27 30  1  0  0  0  0
 29 32  1  0  0  0  0
 30 28  1  6  0  0  0
 30 29  1  0  0  0  0
 30 32  1  0  0  0  0
 32 31  1  1  0  0  0
M  END
>  <MODEL>
8

>  <REMARK>
 VINA RESULT:      -3.9      2.812      5.228
  Name = 
  7 active torsions:
  status: ('A' for Active; 'I' for Inactive)
    1  A    between atoms: C_1  and  C_27
    2  A    between atoms: N_10  and  C_12
    3  A    between atoms: C_13  and  N_29
    4  A    between atoms: C_15  and  C_20
    5  A    between atoms: C_16  and  C_20
    6  A    between atoms: C_16  and  C_22
    7  A    between atoms: C_16  and  C_27
                            x       y       z     vdW  Elec       q    Type
                         _______ _______ _______ _____ _____    ______ ____

>  <TORSDO>
F 7

$$$$
=
 OpenBabel11062408173D

 32 35  0  0  1  0  0  0  0  0999 V2000
  160.7070  207.1640  152.8790 C   0  0  1  0  0  3  0  0  0  0  0  0
  160.2280  209.6970  152.4870 C   0  0  0  0  0  2  0  0  0  0  0  0
  160.9980  206.0810  153.9330 C   0  0  0  0  0  2  0  0  0  0  0  0
  160.3400  208.5470  153.4820 C   0  0  2  0  0  3  0  0  0  0  0  0
  161.1780  212.3240  155.6700 C   0  0  0  0  0  2  0  0  0  0  0  0
  159.6430  212.3040  153.7790 N   0  0  1  0  0  0  0  0  0  0  0  0
  161.1150  208.8530  154.7430 C   0  0  0  0  0  0  0  0  0  0  0  0
  159.8030  212.7120  155.1660 C   0  0  0  0  0  2  0  0  0  0  0  0
  161.8120  210.1670  154.9420 C   0  0  0  0  0  2  0  0  0  0  0  0
  161.2720  207.8650  155.6330 C   0  0  0  0  0  3  0  0  0  0  0  0
  158.8420  210.3170  152.5590 C   0  0  0  0  0  2  0  0  0  0  0  0
  161.2060  210.9150  156.0350 N   0  0  0  0  0  0  0  0  0  0  0  0
  160.6540  206.5270  155.3560 C   0  0  0  0  0  2  0  0  0  0  0  0
  158.6680  211.2120  153.7830 C   0  0  0  0  0  2  0  0  0  0  0  0
  158.4670  214.4530  154.0430 C   0  0  0  0  0  2  0  0  0  0  0  0
  156.9690  214.2280  152.1110 C   0  0  0  0  0  1  0  0  0  0  0  0
  159.0960  213.4630  153.0830 C   0  0  2  0  0  3  0  0  0  0  0  0
  157.5930  213.4970  153.2760 C   0  0  1  0  0  3  0  0  0  0  0  0
  162.0050  210.7440  157.2590 C   0  0  0  0  0  2  0  0  0  0  0  0
  163.5110  210.9410  157.0410 C   0  0  0  0  0  1  0  0  0  0  0  0
  162.9450  206.5820  152.2680 O   0  0  0  0  0  1  0  0  0  0  0  0
  161.7750  207.1540  151.7710 C   0  0  1  0  0  3  0  0  0  0  0  0
  161.3450  206.4500  150.4680 C   0  0  2  0  0  3  0  0  0  0  0  0
  160.1680  204.3890  150.1930 O   0  0  0  0  0  0  0  0  0  0  0  0
  161.1580  204.9820  150.6990 C   0  0  0  0  0  0  0  0  0  0  0  0
  162.0800  204.2630  151.4460 O   0  0  0  0  0  1  0  0  0  0  0  0
  162.3620  206.6730  149.3470 C   0  0  0  0  0  2  0  0  0  0  0  0
  161.5870  208.6110  147.9460 O   0  0  0  0  0  1  0  0  0  0  0  0
  160.5210  206.4650  147.5370 C   0  0  0  0  0  2  0  0  0  0  0  0
  161.7070  207.2270  148.0790 C   0  0  2  0  0  0  0  0  0  0  0  0
  162.4910  205.1220  146.8940 C   0  0  0  0  0  1  0  0  0  0  0  0
  161.8330  206.4810  146.7590 C   0  0  1  0  0  3  0  0  0  0  0  0
  1 22  1  6  0  0  0
  1  4  1  0  0  0  0
  1  3  1  0  0  0  0
  2 11  1  0  0  0  0
  3 13  1  0  0  0  0
  4  2  1  6  0  0  0
  4  7  1  0  0  0  0
  5 12  1  0  0  0  0
  6 14  1  1  0  0  0
  6  8  1  0  0  0  0
  7  9  1  0  0  0  0
  7 10  2  0  0  0  0
  8  5  1  0  0  0  0
  9 12  1  0  0  0  0
 11 14  1  0  0  0  0
 12 19  1  0  0  0  0
 13 10  1  0  0  0  0
 17 18  1  0  0  0  0
 17  6  1  0  0  0  0
 17 15  1  1  0  0  0
 18 16  1  6  0  0  0
 18 15  1  0  0  0  0
 20 19  1  0  0  0  0
 22 21  1  1  0  0  0
 23 27  1  6  0  0  0
 23 25  1  0  0  0  0
 23 22  1  0  0  0  0
 24 25  2  0  0  0  0
 25 26  1  0  0  0  0
 29 30  1  0  0  0  0
 30 28  1  6  0  0  0
 30 27  1  0  0  0  0
 32 31  1  1  0  0  0
 32 29  1  0  0  0  0
 32 30  1  0  0  0  0
M  END
>  <MODEL>
9

>  <REMARK>
 VINA RESULT:      -3.6      3.400      8.289
  Name = 
  7 active torsions:
  status: ('A' for Active; 'I' for Inactive)
    1  A    between atoms: C_1  and  C_27
    2  A    between atoms: N_10  and  C_12
    3  A    between atoms: C_13  and  N_29
    4  A    between atoms: C_15  and  C_20
    5  A    between atoms: C_16  and  C_20
    6  A    between atoms: C_16  and  C_22
    7  A    between atoms: C_16  and  C_27
                            x       y       z     vdW  Elec       q    Type
                         _______ _______ _______ _____ _____    ______ ____

>  <TORSDO>
F 7

$$$$
