=
 OpenBabel11062407563D

 34 39  0  0  1  0  0  0  0  0999 V2000
  161.4230  205.3020  152.6780 C   0  0  0  0  0  0  0  0  0  0  0  0
  160.4940  205.6340  150.3640 C   0  0  0  0  0  0  0  0  0  0  0  0
  161.5440  207.5840  151.5210 C   0  0  0  0  0  0  0  0  0  0  0  0
  161.7580  209.9200  150.6260 C   0  0  1  0  0  3  0  0  0  0  0  0
  160.2060  203.4610  151.4210 C   0  0  0  0  0  2  0  0  0  0  0  0
  159.4730  204.6180  150.7580 C   0  0  0  0  0  2  0  0  0  0  0  0
  162.1660  207.8930  149.1200 C   0  0  0  0  0  0  0  0  0  0  0  0
  161.5400  206.0720  151.3570 C   0  0  1  0  0  3  0  0  0  0  0  0
  161.6220  206.8280  148.4960 C   0  0  0  0  0  0  0  0  0  0  0  0
  161.0440  210.6170  149.4800 C   0  0  0  0  0  1  0  0  0  0  0  0
  160.8450  203.9080  152.7360 C   0  0  0  0  0  2  0  0  0  0  0  0
  161.3510  208.1320  152.9300 C   0  0  2  0  0  3  0  0  0  0  0  0
  161.7260  205.8830  153.8450 C   0  0  0  0  0  3  0  0  0  0  0  0
  160.5870  205.9540  149.0780 C   0  0  0  0  0  3  0  0  0  0  0  0
  161.1220  210.3920  151.9220 C   0  0  0  0  0  2  0  0  0  0  0  0
  161.7080  209.6120  153.0790 C   0  0  1  0  0  3  0  0  0  0  0  0
  163.1540  208.6170  148.4530 O   0  0  0  0  0  1  0  0  0  0  0  0
  161.7380  208.4070  150.4550 C   0  0  0  0  0  0  0  0  0  0  0  0
  162.1910  207.3020  153.8970 C   0  0  0  0  0  2  0  0  0  0  0  0
  159.4230  210.7810  155.8950 C   0  0  0  0  0  0  0  0  0  0  0  0
  160.3610  211.2230  156.8330 C   0  0  0  0  0  3  0  0  0  0  0  0
  161.2210  210.1700  154.3830 C   0  0  0  0  0  0  0  0  0  0  0  0
  161.7270  211.1400  156.5470 C   0  0  0  0  0  3  0  0  0  0  0  0
  159.8510  210.2570  154.6720 C   0  0  0  0  0  3  0  0  0  0  0  0
  162.1560  210.6150  155.3250 C   0  0  0  0  0  3  0  0  0  0  0  0
  158.0990  210.8620  156.1720 F   0  0  0  0  0  0  0  0  0  0  0  0
  162.0470  206.4910  147.1010 C   0  0  0  0  0  2  0  0  0  0  0  0
  161.9510  203.4870  147.5010 C   0  0  0  0  0  1  0  0  0  0  0  0
  161.0240  205.5830  146.4150 C   0  0  2  0  0  3  0  0  0  0  0  0
  161.5760  204.1660  146.1960 C   0  0  1  0  0  3  0  0  0  0  0  0
  162.6470  205.2000  144.1100 C   0  0  0  0  0  2  0  0  0  0  0  0
  161.1980  205.5920  143.8410 C   0  0  0  0  0  2  0  0  0  0  0  0
  160.5510  206.2090  145.0890 C   0  0  0  0  0  2  0  0  0  0  0  0
  162.7470  204.1270  145.2040 C   0  0  0  0  0  2  0  0  0  0  0  0
  1 11  1  0  0  0  0
  1 13  2  0  0  0  0
  2  6  1  0  0  0  0
  3 12  1  0  0  0  0
  4 10  1  6  0  0  0
  4 15  1  0  0  0  0
  5 11  1  0  0  0  0
  6  5  1  0  0  0  0
  7 18  1  0  0  0  0
  8  2  1  6  0  0  0
  8  3  1  0  0  0  0
  8  1  1  0  0  0  0
  9 14  1  0  0  0  0
  9  7  2  0  0  0  0
 12 16  1  0  0  0  0
 12 19  1  1  0  0  0
 13 19  1  0  0  0  0
 14  2  2  0  0  0  0
 15 16  1  0  0  0  0
 16 22  1  1  0  0  0
 17  7  1  0  0  0  0
 18  4  1  0  0  0  0
 18  3  2  0  0  0  0
 20 26  1  0  0  0  0
 20 21  1  0  0  0  0
 22 24  1  0  0  0  0
 22 25  2  0  0  0  0
 23 21  2  0  0  0  0
 24 20  2  0  0  0  0
 25 23  1  0  0  0  0
 27  9  1  0  0  0  0
 29 27  1  6  0  0  0
 30 29  1  0  0  0  0
 30 28  1  1  0  0  0
 31 34  1  0  0  0  0
 32 31  1  0  0  0  0
 32 33  1  0  0  0  0
 33 29  1  0  0  0  0
 34 30  1  0  0  0  0
M  END
>  <MODEL>
1

>  <REMARK>
 VINA RESULT:      -5.9      0.000      0.000
  Name = 
  3 active torsions:
  status: ('A' for Active; 'I' for Inactive)
    1  A    between atoms: C_3  and  C_13
    2  A    between atoms: C_3  and  C_17
    3  A    between atoms: C_12  and  C_28
                            x       y       z     vdW  Elec       q    Type
                         _______ _______ _______ _____ _____    ______ ____

>  <TORSDO>
F 3

$$$$
=
 OpenBabel11062407563D

 34 39  0  0  1  0  0  0  0  0999 V2000
  162.1340  209.8040  150.3640 C   0  0  0  0  0  0  0  0  0  0  0  0
  160.4880  210.8940  151.9220 C   0  0  0  0  0  0  0  0  0  0  0  0
  161.3130  208.5990  152.4700 C   0  0  0  0  0  0  0  0  0  0  0  0
  160.6450  207.1970  154.4430 C   0  0  1  0  0  3  0  0  0  0  0  0
  161.0970  212.0720  149.8820 C   0  0  0  0  0  2  0  0  0  0  0  0
  159.9290  211.5300  150.6930 C   0  0  0  0  0  2  0  0  0  0  0  0
  161.0690  209.7080  154.6980 C   0  0  0  0  0  0  0  0  0  0  0  0
  161.6410  209.9310  151.8110 C   0  0  1  0  0  3  0  0  0  0  0  0
  160.6470  210.9550  154.4040 C   0  0  0  0  0  0  0  0  0  0  0  0
  159.4620  207.3110  155.3900 C   0  0  0  0  0  1  0  0  0  0  0  0
  161.9740  210.9290  149.3690 C   0  0  0  0  0  2  0  0  0  0  0  0
  161.4310  207.3480  151.6090 C   0  0  2  0  0  3  0  0  0  0  0  0
  162.6240  208.6480  149.9000 C   0  0  0  0  0  3  0  0  0  0  0  0
  160.0980  211.3680  153.1000 C   0  0  0  0  0  3  0  0  0  0  0  0
  160.3400  206.0880  153.4520 C   0  0  0  0  0  2  0  0  0  0  0  0
  161.4300  206.0410  152.4040 C   0  0  1  0  0  3  0  0  0  0  0  0
  161.5880  209.4670  155.9700 O   0  0  0  0  0  1  0  0  0  0  0  0
  160.9560  208.5340  153.7820 C   0  0  0  0  0  0  0  0  0  0  0  0
  162.7080  207.4430  150.7790 C   0  0  0  0  0  2  0  0  0  0  0  0
  160.9360  203.8690  149.3120 C   0  0  0  0  0  0  0  0  0  0  0  0
  160.8920  202.5950  149.8860 C   0  0  0  0  0  3  0  0  0  0  0  0
  161.2430  204.8500  151.5110 C   0  0  0  0  0  0  0  0  0  0  0  0
  161.0220  202.4480  151.2700 C   0  0  0  0  0  3  0  0  0  0  0  0
  161.1110  204.9950  150.1220 C   0  0  0  0  0  3  0  0  0  0  0  0
  161.1970  203.5730  152.0810 C   0  0  0  0  0  3  0  0  0  0  0  0
  160.8100  204.0130  147.9710 F   0  0  0  0  0  0  0  0  0  0  0  0
  160.6940  212.0190  155.4560 C   0  0  0  0  0  2  0  0  0  0  0  0
  160.3170  214.4440  157.2360 C   0  0  0  0  0  1  0  0  0  0  0  0
  159.7290  213.1610  155.1300 C   0  0  2  0  0  3  0  0  0  0  0  0
  159.2010  213.8420  156.4010 C   0  0  1  0  0  3  0  0  0  0  0  0
  157.5270  211.9020  156.4180 C   0  0  0  0  0  2  0  0  0  0  0  0
  157.2600  212.4220  155.0090 C   0  0  0  0  0  2  0  0  0  0  0  0
  158.5730  212.6530  154.2470 C   0  0  0  0  0  2  0  0  0  0  0  0
  158.3190  212.9180  157.2520 C   0  0  0  0  0  2  0  0  0  0  0  0
  2 14  2  0  0  0  0
  3 18  2  0  0  0  0
  4 10  1  1  0  0  0
  5  6  1  0  0  0  0
  6  2  1  0  0  0  0
  7 17  1  0  0  0  0
  8  1  1  6  0  0  0
  8  2  1  0  0  0  0
  8  3  1  0  0  0  0
  9  7  2  0  0  0  0
  9 27  1  0  0  0  0
 11  5  1  0  0  0  0
 11  1  1  0  0  0  0
 12 19  1  1  0  0  0
 12 16  1  0  0  0  0
 12  3  1  0  0  0  0
 13  1  2  0  0  0  0
 13 19  1  0  0  0  0
 14  9  1  0  0  0  0
 15  4  1  0  0  0  0
 16 22  1  6  0  0  0
 16 15  1  0  0  0  0
 18  4  1  0  0  0  0
 18  7  1  0  0  0  0
 20 21  2  0  0  0  0
 20 24  1  0  0  0  0
 21 23  1  0  0  0  0
 22 25  1  0  0  0  0
 23 25  2  0  0  0  0
 24 22  2  0  0  0  0
 26 20  1  0  0  0  0
 29 27  1  1  0  0  0
 29 30  1  0  0  0  0
 30 28  1  1  0  0  0
 30 34  1  0  0  0  0
 31 34  1  0  0  0  0
 32 31  1  0  0  0  0
 33 32  1  0  0  0  0
 33 29  1  0  0  0  0
M  END
>  <MODEL>
2

>  <REMARK>
 VINA RESULT:      -5.6      3.291      8.807
  Name = 
  3 active torsions:
  status: ('A' for Active; 'I' for Inactive)
    1  A    between atoms: C_3  and  C_13
    2  A    between atoms: C_3  and  C_17
    3  A    between atoms: C_12  and  C_28
                            x       y       z     vdW  Elec       q    Type
                         _______ _______ _______ _____ _____    ______ ____

>  <TORSDO>
F 3

$$$$
=
 OpenBabel11062407563D

 34 39  0  0  1  0  0  0  0  0999 V2000
  161.1670  211.0870  150.2090 C   0  0  0  0  0  0  0  0  0  0  0  0
  162.3090  209.4210  148.7100 C   0  0  0  0  0  0  0  0  0  0  0  0
  161.2040  208.5930  150.7930 C   0  0  0  0  0  0  0  0  0  0  0  0
  161.1260  206.2190  151.6060 C   0  0  1  0  0  3  0  0  0  0  0  0
  162.4500  211.7800  148.1300 C   0  0  0  0  0  2  0  0  0  0  0  0
  163.2660  210.5270  148.4110 C   0  0  0  0  0  2  0  0  0  0  0  0
  160.8090  206.7710  149.1280 C   0  0  0  0  0  0  0  0  0  0  0  0
  161.1880  209.6430  149.6920 C   0  0  1  0  0  3  0  0  0  0  0  0
  161.3830  207.2260  147.9950 C   0  0  0  0  0  0  0  0  0  0  0  0
  161.9570  205.0060  151.2200 C   0  0  0  0  0  1  0  0  0  0  0  0
  161.7050  212.2330  149.3860 C   0  0  0  0  0  2  0  0  0  0  0  0
  161.2810  209.0920  152.2300 C   0  0  2  0  0  3  0  0  0  0  0  0
  160.7730  211.3680  151.4570 C   0  0  0  0  0  3  0  0  0  0  0  0
  162.3400  208.3450  147.9310 C   0  0  0  0  0  3  0  0  0  0  0  0
  161.6530  206.7380  152.9330 C   0  0  0  0  0  2  0  0  0  0  0  0
  160.9460  208.0300  153.2800 C   0  0  1  0  0  3  0  0  0  0  0  0
  159.9030  205.7150  149.0330 O   0  0  0  0  0  1  0  0  0  0  0  0
  161.1270  207.2670  150.5010 C   0  0  0  0  0  0  0  0  0  0  0  0
  160.3380  210.2830  152.3870 C   0  0  0  0  0  2  0  0  0  0  0  0
  162.3330  210.0870  156.1730 C   0  0  0  0  0  0  0  0  0  0  0  0
  162.0160  209.2650  157.2590 C   0  0  0  0  0  3  0  0  0  0  0  0
  161.3260  208.4760  154.6600 C   0  0  0  0  0  0  0  0  0  0  0  0
  161.3560  208.0510  157.0470 C   0  0  0  0  0  3  0  0  0  0  0  0
  161.9890  209.6940  154.8760 C   0  0  0  0  0  3  0  0  0  0  0  0
  161.0120  207.6570  155.7510 C   0  0  0  0  0  3  0  0  0  0  0  0
  162.9720  211.2630  156.3770 F   0  0  0  0  0  0  0  0  0  0  0  0
  161.0790  206.5560  146.6910 C   0  0  0  0  0  2  0  0  0  0  0  0
  161.5550  205.8250  143.7870 C   0  0  0  0  0  1  0  0  0  0  0  0
  162.2580  205.7030  146.2200 C   0  0  2  0  0  3  0  0  0  0  0  0
  161.9190  204.9150  144.9460 C   0  0  1  0  0  3  0  0  0  0  0  0
  160.8560  203.2540  146.5830 C   0  0  0  0  0  2  0  0  0  0  0  0
  162.2530  203.3120  147.1920 C   0  0  0  0  0  2  0  0  0  0  0  0
  162.7280  204.7640  147.3490 C   0  0  0  0  0  2  0  0  0  0  0  0
  160.8310  203.8540  145.1710 C   0  0  0  0  0  2  0  0  0  0  0  0
  1 13  2  0  0  0  0
  3 12  1  0  0  0  0
  4 10  1  6  0  0  0
  4 15  1  0  0  0  0
  5  6  1  0  0  0  0
  5 11  1  0  0  0  0
  6  2  1  0  0  0  0
  7 18  1  0  0  0  0
  8  2  1  6  0  0  0
  8  1  1  0  0  0  0
  8  3  1  0  0  0  0
  9  7  2  0  0  0  0
 11  1  1  0  0  0  0
 12 19  1  6  0  0  0
 12 16  1  0  0  0  0
 13 19  1  0  0  0  0
 14  9  1  0  0  0  0
 14  2  2  0  0  0  0
 15 16  1  0  0  0  0
 16 22  1  1  0  0  0
 17  7  1  0  0  0  0
 18  3  2  0  0  0  0
 18  4  1  0  0  0  0
 20 26  1  0  0  0  0
 20 21  1  0  0  0  0
 22 24  1  0  0  0  0
 22 25  2  0  0  0  0
 23 21  2  0  0  0  0
 24 20  2  0  0  0  0
 25 23  1  0  0  0  0
 27  9  1  0  0  0  0
 29 27  1  1  0  0  0
 29 33  1  0  0  0  0
 30 28  1  6  0  0  0
 30 34  1  0  0  0  0
 30 29  1  0  0  0  0
 31 32  1  0  0  0  0
 32 33  1  0  0  0  0
 34 31  1  0  0  0  0
M  END
>  <MODEL>
3

>  <REMARK>
 VINA RESULT:      -5.2      1.789      4.174
  Name = 
  3 active torsions:
  status: ('A' for Active; 'I' for Inactive)
    1  A    between atoms: C_3  and  C_13
    2  A    between atoms: C_3  and  C_17
    3  A    between atoms: C_12  and  C_28
                            x       y       z     vdW  Elec       q    Type
                         _______ _______ _______ _____ _____    ______ ____

>  <TORSDO>
F 3

$$$$
=
 OpenBabel11062407563D

 34 39  0  0  1  0  0  0  0  0999 V2000
  162.2330  209.9680  149.2480 C   0  0  0  0  0  0  0  0  0  0  0  0
  160.7880  209.8620  151.3040 C   0  0  0  0  0  0  0  0  0  0  0  0
  161.6090  207.7220  150.3100 C   0  0  0  0  0  0  0  0  0  0  0  0
  161.1170  205.4010  151.1330 C   0  0  1  0  0  3  0  0  0  0  0  0
  161.2080  212.0390  150.3010 C   0  0  0  0  0  2  0  0  0  0  0  0
  160.1190  211.0760  150.7500 C   0  0  0  0  0  2  0  0  0  0  0  0
  161.6290  207.2970  152.7730 C   0  0  0  0  0  0  0  0  0  0  0  0
  161.8990  209.1990  150.5320 C   0  0  1  0  0  3  0  0  0  0  0  0
  161.2100  208.4600  153.3140 C   0  0  0  0  0  0  0  0  0  0  0  0
  160.0440  204.8860  152.0780 C   0  0  0  0  0  1  0  0  0  0  0  0
  161.9970  211.4550  149.1290 C   0  0  0  0  0  2  0  0  0  0  0  0
  161.6030  207.2220  148.8710 C   0  0  2  0  0  3  0  0  0  0  0  0
  162.6410  209.3270  148.1460 C   0  0  0  0  0  3  0  0  0  0  0  0
  160.5360  209.5370  152.5680 C   0  0  0  0  0  3  0  0  0  0  0  0
  160.6820  205.0750  149.7150 C   0  0  0  0  0  2  0  0  0  0  0  0
  161.6530  205.6990  148.7380 C   0  0  1  0  0  3  0  0  0  0  0  0
  162.2730  206.3760  153.6000 O   0  0  0  0  0  1  0  0  0  0  0  0
  161.3910  206.8820  151.3580 C   0  0  0  0  0  0  0  0  0  0  0  0
  162.7880  207.8410  148.1330 C   0  0  0  0  0  2  0  0  0  0  0  0
  161.2060  203.5290  145.6370 C   0  0  0  0  0  0  0  0  0  0  0  0
  160.7500  204.4760  144.7140 C   0  0  0  0  0  3  0  0  0  0  0  0
  161.3430  205.2550  147.3400 C   0  0  0  0  0  0  0  0  0  0  0  0
  160.5900  205.8090  145.1020 C   0  0  0  0  0  3  0  0  0  0  0  0
  161.5030  203.9170  146.9470 C   0  0  0  0  0  3  0  0  0  0  0  0
  160.8860  206.1980  146.4120 C   0  0  0  0  0  3  0  0  0  0  0  0
  161.3610  202.2370  145.2620 F   0  0  0  0  0  0  0  0  0  0  0  0
  161.3940  208.7020  154.7800 C   0  0  0  0  0  2  0  0  0  0  0  0
  162.9040  209.5740  157.2610 C   0  0  0  0  0  1  0  0  0  0  0  0
  161.7970  210.1520  155.0540 C   0  0  2  0  0  3  0  0  0  0  0  0
  161.8790  210.4470  156.5590 C   0  0  1  0  0  3  0  0  0  0  0  0
  159.3450  210.7710  156.3570 C   0  0  0  0  0  2  0  0  0  0  0  0
  159.7880  211.7560  155.2800 C   0  0  0  0  0  2  0  0  0  0  0  0
  160.8300  211.1220  154.3470 C   0  0  0  0  0  2  0  0  0  0  0  0
  160.5160  210.3600  157.2610 C   0  0  0  0  0  2  0  0  0  0  0  0
  2 14  2  0  0  0  0
  3  8  1  0  0  0  0
  3 18  2  0  0  0  0
  4 18  1  0  0  0  0
  4 10  1  1  0  0  0
  5  6  1  0  0  0  0
  6  2  1  0  0  0  0
  7  9  2  0  0  0  0
  7 17  1  0  0  0  0
  8  1  1  6  0  0  0
  8  2  1  0  0  0  0
  9 27  1  0  0  0  0
 11  1  1  0  0  0  0
 11  5  1  0  0  0  0
 12 19  1  6  0  0  0
 12  3  1  0  0  0  0
 13  1  2  0  0  0  0
 14  9  1  0  0  0  0
 15  4  1  0  0  0  0
 16 22  1  6  0  0  0
 16 12  1  0  0  0  0
 16 15  1  0  0  0  0
 18  7  1  0  0  0  0
 19 13  1  0  0  0  0
 20 24  1  0  0  0  0
 21 23  1  0  0  0  0
 21 20  2  0  0  0  0
 23 25  2  0  0  0  0
 24 22  2  0  0  0  0
 25 22  1  0  0  0  0
 26 20  1  0  0  0  0
 29 27  1  1  0  0  0
 29 30  1  0  0  0  0
 30 28  1  1  0  0  0
 30 34  1  0  0  0  0
 31 34  1  0  0  0  0
 32 31  1  0  0  0  0
 33 29  1  0  0  0  0
 33 32  1  0  0  0  0
M  END
>  <MODEL>
4

>  <REMARK>
 VINA RESULT:      -5.0      2.859      8.875
  Name = 
  3 active torsions:
  status: ('A' for Active; 'I' for Inactive)
    1  A    between atoms: C_3  and  C_13
    2  A    between atoms: C_3  and  C_17
    3  A    between atoms: C_12  and  C_28
                            x       y       z     vdW  Elec       q    Type
                         _______ _______ _______ _____ _____    ______ ____

>  <TORSDO>
F 3

$$$$
=
 OpenBabel11062407563D

 34 39  0  0  1  0  0  0  0  0999 V2000
  162.4230  206.3180  147.7270 C   0  0  0  0  0  0  0  0  0  0  0  0
  161.0590  206.8930  149.7610 C   0  0  0  0  0  0  0  0  0  0  0  0
  161.5700  204.4890  149.3050 C   0  0  0  0  0  0  0  0  0  0  0  0
  160.8290  202.5150  150.6670 C   0  0  1  0  0  3  0  0  0  0  0  0
  161.7040  208.6950  148.2580 C   0  0  0  0  0  2  0  0  0  0  0  0
  160.5230  208.0160  148.9360 C   0  0  0  0  0  2  0  0  0  0  0  0
  161.6350  204.6640  151.7980 C   0  0  0  0  0  0  0  0  0  0  0  0
  162.0480  205.9260  149.1620 C   0  0  1  0  0  3  0  0  0  0  0  0
  161.3850  205.9660  152.0460 C   0  0  0  0  0  0  0  0  0  0  0  0
  159.7390  202.3830  151.7180 C   0  0  0  0  0  1  0  0  0  0  0  0
  162.3680  207.7510  147.2550 C   0  0  0  0  0  2  0  0  0  0  0  0
  161.4460  203.6670  148.0290 C   0  0  2  0  0  3  0  0  0  0  0  0
  162.7060  205.3860  146.8090 C   0  0  0  0  0  3  0  0  0  0  0  0
  160.8200  206.9130  151.0670 C   0  0  0  0  0  3  0  0  0  0  0  0
  160.3000  201.9190  149.3740 C   0  0  0  0  0  2  0  0  0  0  0  0
  161.3020  202.1620  148.2670 C   0  0  1  0  0  3  0  0  0  0  0  0
  162.1930  203.8910  152.8160 O   0  0  0  0  0  1  0  0  0  0  0  0
  161.2910  203.9590  150.5270 C   0  0  0  0  0  0  0  0  0  0  0  0
  162.6670  203.9330  147.1530 C   0  0  0  0  0  2  0  0  0  0  0  0
  160.8320  199.4530  145.6280 C   0  0  0  0  0  0  0  0  0  0  0  0
  160.0780  200.1410  144.6720 C   0  0  0  0  0  3  0  0  0  0  0  0
  160.8830  201.4410  147.0200 C   0  0  0  0  0  0  0  0  0  0  0  0
  159.7280  201.4770  144.8880 C   0  0  0  0  0  3  0  0  0  0  0  0
  161.2340  200.1010  146.7990 C   0  0  0  0  0  3  0  0  0  0  0  0
  160.1300  202.1260  146.0590 C   0  0  0  0  0  3  0  0  0  0  0  0
  161.1710  198.1580  145.4200 F   0  0  0  0  0  0  0  0  0  0  0  0
  161.6550  206.5250  153.4080 C   0  0  0  0  0  2  0  0  0  0  0  0
  161.3290  209.5070  152.9670 C   0  0  0  0  0  1  0  0  0  0  0  0
  160.4580  207.3260  153.9240 C   0  0  2  0  0  3  0  0  0  0  0  0
  160.8310  208.7890  154.2090 C   0  0  1  0  0  3  0  0  0  0  0  0
  161.6760  207.8550  156.4410 C   0  0  0  0  0  2  0  0  0  0  0  0
  160.2470  207.3220  156.4960 C   0  0  0  0  0  2  0  0  0  0  0  0
  159.8560  206.6510  155.1720 C   0  0  0  0  0  2  0  0  0  0  0  0
  161.8320  208.9370  155.3640 C   0  0  0  0  0  2  0  0  0  0  0  0
  2 14  2  0  0  0  0
  3 18  2  0  0  0  0
  4 10  1  1  0  0  0
  5  6  1  0  0  0  0
  6  2  1  0  0  0  0
  7  9  2  0  0  0  0
  7 17  1  0  0  0  0
  8  1  1  6  0  0  0
  8  3  1  0  0  0  0
  8  2  1  0  0  0  0
  9 27  1  0  0  0  0
 11  1  1  0  0  0  0
 11  5  1  0  0  0  0
 12 19  1  6  0  0  0
 12 16  1  0  0  0  0
 12  3  1  0  0  0  0
 13 19  1  0  0  0  0
 13  1  2  0  0  0  0
 14  9  1  0  0  0  0
 15  4  1  0  0  0  0
 16 22  1  6  0  0  0
 16 15  1  0  0  0  0
 18  4  1  0  0  0  0
 18  7  1  0  0  0  0
 20 24  1  0  0  0  0
 21 23  1  0  0  0  0
 21 20  2  0  0  0  0
 23 25  2  0  0  0  0
 24 22  2  0  0  0  0
 25 22  1  0  0  0  0
 26 20  1  0  0  0  0
 29 27  1  1  0  0  0
 29 30  1  0  0  0  0
 29 33  1  0  0  0  0
 30 28  1  6  0  0  0
 30 34  1  0  0  0  0
 31 32  1  0  0  0  0
 33 32  1  0  0  0  0
 34 31  1  0  0  0  0
M  END
>  <MODEL>
5

>  <REMARK>
 VINA RESULT:      -5.0      3.728      9.364
  Name = 
  3 active torsions:
  status: ('A' for Active; 'I' for Inactive)
    1  A    between atoms: C_3  and  C_13
    2  A    between atoms: C_3  and  C_17
    3  A    between atoms: C_12  and  C_28
                            x       y       z     vdW  Elec       q    Type
                         _______ _______ _______ _____ _____    ______ ____

>  <TORSDO>
F 3

$$$$
=
 OpenBabel11062407563D

 34 39  0  0  1  0  0  0  0  0999 V2000
  161.2120  206.2120  147.3210 C   0  0  0  0  0  0  0  0  0  0  0  0
  162.2200  203.9080  147.2680 C   0  0  0  0  0  0  0  0  0  0  0  0
  161.0230  204.6410  149.3350 C   0  0  0  0  0  0  0  0  0  0  0  0
  160.7270  203.3130  151.4450 C   0  0  1  0  0  3  0  0  0  0  0  0
  162.5750  205.3660  145.3520 C   0  0  0  0  0  2  0  0  0  0  0  0
  163.2740  204.5200  146.4060 C   0  0  0  0  0  2  0  0  0  0  0  0
  160.4880  202.2060  149.1510 C   0  0  0  0  0  0  0  0  0  0  0  0
  161.1120  204.7660  147.8220 C   0  0  1  0  0  3  0  0  0  0  0  0
  161.1120  201.8130  148.0220 C   0  0  0  0  0  0  0  0  0  0  0  0
  161.4510  202.0780  151.9550 C   0  0  0  0  0  1  0  0  0  0  0  0
  161.8580  206.5520  145.9990 C   0  0  0  0  0  2  0  0  0  0  0  0
  161.1270  205.9250  150.1470 C   0  0  2  0  0  3  0  0  0  0  0  0
  160.8300  207.2370  148.0920 C   0  0  0  0  0  3  0  0  0  0  0  0
  162.1650  202.5820  147.3350 C   0  0  0  0  0  3  0  0  0  0  0  0
  161.2820  204.5160  152.1880 C   0  0  0  0  0  2  0  0  0  0  0  0
  160.6880  205.7800  151.6060 C   0  0  1  0  0  3  0  0  0  0  0  0
  159.4930  201.3820  149.6780 O   0  0  0  0  0  1  0  0  0  0  0  0
  160.8320  203.4320  149.9310 C   0  0  0  0  0  0  0  0  0  0  0  0
  160.2910  207.0050  149.4660 C   0  0  0  0  0  2  0  0  0  0  0  0
  162.0760  209.1790  152.6280 C   0  0  0  0  0  0  0  0  0  0  0  0
  161.8230  209.1660  154.0030 C   0  0  0  0  0  3  0  0  0  0  0  0
  161.0900  206.9690  152.4260 C   0  0  0  0  0  0  0  0  0  0  0  0
  161.2060  208.0580  154.5900 C   0  0  0  0  0  3  0  0  0  0  0  0
  161.7110  208.0830  151.8400 C   0  0  0  0  0  3  0  0  0  0  0  0
  160.8400  206.9620  153.8030 C   0  0  0  0  0  3  0  0  0  0  0  0
  162.6740  210.2520  152.0580 F   0  0  0  0  0  0  0  0  0  0  0  0
  160.7650  200.4930  147.4050 C   0  0  0  0  0  2  0  0  0  0  0  0
  159.9180  202.0420  144.9400 C   0  0  0  0  0  1  0  0  0  0  0  0
  161.4320  200.3300  146.0380 C   0  0  2  0  0  3  0  0  0  0  0  0
  160.4560  200.6240  144.8880 C   0  0  1  0  0  3  0  0  0  0  0  0
  159.7140  198.1990  145.2610 C   0  0  0  0  0  2  0  0  0  0  0  0
  161.2060  197.9530  145.0590 C   0  0  0  0  0  2  0  0  0  0  0  0
  162.0450  198.9230  145.9030 C   0  0  0  0  0  2  0  0  0  0  0  0
  159.3090  199.6070  144.8040 C   0  0  0  0  0  2  0  0  0  0  0  0
  1  8  1  0  0  0  0
  1 13  2  0  0  0  0
  2 14  2  0  0  0  0
  3 18  2  0  0  0  0
  3 12  1  0  0  0  0
  4 10  1  1  0  0  0
  4 15  1  0  0  0  0
  5 11  1  0  0  0  0
  5  6  1  0  0  0  0
  6  2  1  0  0  0  0
  7 17  1  0  0  0  0
  7 18  1  0  0  0  0
  8  2  1  1  0  0  0
  8  3  1  0  0  0  0
  9  7  2  0  0  0  0
 11  1  1  0  0  0  0
 12 19  1  6  0  0  0
 12 16  1  0  0  0  0
 13 19  1  0  0  0  0
 14  9  1  0  0  0  0
 16 15  1  0  0  0  0
 16 22  1  1  0  0  0
 18  4  1  0  0  0  0
 20 21  1  0  0  0  0
 21 23  2  0  0  0  0
 22 25  2  0  0  0  0
 24 22  1  0  0  0  0
 24 20  2  0  0  0  0
 25 23  1  0  0  0  0
 26 20  1  0  0  0  0
 27  9  1  0  0  0  0
 29 27  1  1  0  0  0
 30 28  1  1  0  0  0
 30 29  1  0  0  0  0
 32 31  1  0  0  0  0
 32 33  1  0  0  0  0
 33 29  1  0  0  0  0
 34 30  1  0  0  0  0
 34 31  1  0  0  0  0
M  END
>  <MODEL>
6

>  <REMARK>
 VINA RESULT:      -4.8      3.063      5.586
  Name = 
  3 active torsions:
  status: ('A' for Active; 'I' for Inactive)
    1  A    between atoms: C_3  and  C_13
    2  A    between atoms: C_3  and  C_17
    3  A    between atoms: C_12  and  C_28
                            x       y       z     vdW  Elec       q    Type
                         _______ _______ _______ _____ _____    ______ ____

>  <TORSDO>
F 3

$$$$
=
 OpenBabel11062407563D

 34 39  0  0  1  0  0  0  0  0999 V2000
  162.5540  206.7880  148.0760 C   0  0  0  0  0  0  0  0  0  0  0  0
  161.1730  207.3490  150.1030 C   0  0  0  0  0  0  0  0  0  0  0  0
  161.6210  204.9440  149.5900 C   0  0  0  0  0  0  0  0  0  0  0  0
  160.7990  202.9570  150.8860 C   0  0  1  0  0  3  0  0  0  0  0  0
  161.8950  209.1710  148.6600 C   0  0  0  0  0  2  0  0  0  0  0  0
  160.6840  208.5080  149.2990 C   0  0  0  0  0  2  0  0  0  0  0  0
  161.6480  205.0500  152.0870 C   0  0  0  0  0  0  0  0  0  0  0  0
  162.1430  206.3700  149.4940 C   0  0  1  0  0  3  0  0  0  0  0  0
  161.4320  206.3520  152.3670 C   0  0  0  0  0  0  0  0  0  0  0  0
  159.6880  202.8290  151.9150 C   0  0  0  0  0  1  0  0  0  0  0  0
  162.5490  208.2350  147.6430 C   0  0  0  0  0  2  0  0  0  0  0  0
  161.4950  204.1600  148.2900 C   0  0  2  0  0  3  0  0  0  0  0  0
  162.8250  205.8730  147.1380 C   0  0  0  0  0  3  0  0  0  0  0  0
  160.9110  207.3410  151.4050 C   0  0  0  0  0  3  0  0  0  0  0  0
  160.2770  202.4120  149.5690 C   0  0  0  0  0  2  0  0  0  0  0  0
  161.3040  202.6540  148.4850 C   0  0  1  0  0  3  0  0  0  0  0  0
  162.1660  204.2350  153.0930 O   0  0  0  0  0  1  0  0  0  0  0  0
  161.3060  204.3900  150.7920 C   0  0  0  0  0  0  0  0  0  0  0  0
  162.7380  204.4140  147.4420 C   0  0  0  0  0  2  0  0  0  0  0  0
  159.8340  202.0310  145.0240 C   0  0  0  0  0  0  0  0  0  0  0  0
  160.1250  200.6750  144.8530 C   0  0  0  0  0  3  0  0  0  0  0  0
  160.8860  201.9800  147.2120 C   0  0  0  0  0  0  0  0  0  0  0  0
  160.7950  199.9710  145.8580 C   0  0  0  0  0  3  0  0  0  0  0  0
  160.2130  202.6830  146.2010 C   0  0  0  0  0  3  0  0  0  0  0  0
  161.1740  200.6220  147.0350 C   0  0  0  0  0  3  0  0  0  0  0  0
  159.1850  202.7140  144.0510 F   0  0  0  0  0  0  0  0  0  0  0  0
  161.6950  206.8660  153.7480 C   0  0  0  0  0  2  0  0  0  0  0  0
  161.4340  209.8820  153.5730 C   0  0  0  0  0  1  0  0  0  0  0  0
  160.4900  207.6400  154.2880 C   0  0  2  0  0  3  0  0  0  0  0  0
  160.8740  209.0630  154.7220 C   0  0  1  0  0  3  0  0  0  0  0  0
  161.6110  207.9110  156.8890 C   0  0  0  0  0  2  0  0  0  0  0  0
  160.1730  207.4040  156.8380 C   0  0  0  0  0  2  0  0  0  0  0  0
  159.8270  206.8650  155.4430 C   0  0  0  0  0  2  0  0  0  0  0  0
  161.8290  209.0850  155.9240 C   0  0  0  0  0  2  0  0  0  0  0  0
  2 14  2  0  0  0  0
  3 18  2  0  0  0  0
  4 10  1  1  0  0  0
  5  6  1  0  0  0  0
  6  2  1  0  0  0  0
  7  9  2  0  0  0  0
  7 17  1  0  0  0  0
  8  1  1  6  0  0  0
  8  3  1  0  0  0  0
  8  2  1  0  0  0  0
  9 27  1  0  0  0  0
 11  1  1  0  0  0  0
 11  5  1  0  0  0  0
 12 19  1  6  0  0  0
 12 16  1  0  0  0  0
 12  3  1  0  0  0  0
 13 19  1  0  0  0  0
 13  1  2  0  0  0  0
 14  9  1  0  0  0  0
 15  4  1  0  0  0  0
 16 22  1  6  0  0  0
 16 15  1  0  0  0  0
 18  4  1  0  0  0  0
 18  7  1  0  0  0  0
 20 24  1  0  0  0  0
 21 20  2  0  0  0  0
 21 23  1  0  0  0  0
 23 25  2  0  0  0  0
 24 22  2  0  0  0  0
 25 22  1  0  0  0  0
 26 20  1  0  0  0  0
 29 27  1  1  0  0  0
 29 30  1  0  0  0  0
 29 33  1  0  0  0  0
 30 28  1  6  0  0  0
 30 34  1  0  0  0  0
 32 31  1  0  0  0  0
 33 32  1  0  0  0  0
 34 31  1  0  0  0  0
M  END
>  <MODEL>
7

>  <REMARK>
 VINA RESULT:      -4.7      3.350      9.144
  Name = 
  3 active torsions:
  status: ('A' for Active; 'I' for Inactive)
    1  A    between atoms: C_3  and  C_13
    2  A    between atoms: C_3  and  C_17
    3  A    between atoms: C_12  and  C_28
                            x       y       z     vdW  Elec       q    Type
                         _______ _______ _______ _____ _____    ______ ____

>  <TORSDO>
F 3

$$$$
=
 OpenBabel11062407563D

 34 39  0  0  1  0  0  0  0  0999 V2000
  161.7270  211.4470  149.4160 C   0  0  0  0  0  0  0  0  0  0  0  0
  160.1290  211.8440  151.3180 C   0  0  0  0  0  0  0  0  0  0  0  0
  161.3610  209.6720  151.2270 C   0  0  0  0  0  0  0  0  0  0  0  0
  161.1590  207.7650  152.8480 C   0  0  1  0  0  3  0  0  0  0  0  0
  160.2990  213.5410  149.5820 C   0  0  0  0  0  2  0  0  0  0  0  0
  159.3350  212.6310  150.3280 C   0  0  0  0  0  2  0  0  0  0  0  0
  161.2160  210.1880  153.6690 C   0  0  0  0  0  0  0  0  0  0  0  0
  161.3970  211.1540  150.8850 C   0  0  1  0  0  3  0  0  0  0  0  0
  160.5730  211.3730  153.7200 C   0  0  0  0  0  0  0  0  0  0  0  0
  160.0950  207.4490  153.8850 C   0  0  0  0  0  1  0  0  0  0  0  0
  161.2760  212.7190  148.7400 C   0  0  0  0  0  2  0  0  0  0  0  0
  161.5680  208.6890  150.0820 C   0  0  2  0  0  3  0  0  0  0  0  0
  162.3310  210.5320  148.6490 C   0  0  0  0  0  3  0  0  0  0  0  0
  159.8140  211.9640  152.6030 C   0  0  0  0  0  3  0  0  0  0  0  0
  160.9140  206.8710  151.6450 C   0  0  0  0  0  2  0  0  0  0  0  0
  161.8650  207.2570  150.5340 C   0  0  1  0  0  3  0  0  0  0  0  0
  161.9130  209.7640  154.7990 O   0  0  0  0  0  1  0  0  0  0  0  0
  161.1780  209.2500  152.5070 C   0  0  0  0  0  0  0  0  0  0  0  0
  162.7060  209.1950  149.2000 C   0  0  0  0  0  2  0  0  0  0  0  0
  161.9850  205.7310  147.0440 C   0  0  0  0  0  0  0  0  0  0  0  0
  161.5430  204.4310  147.3070 C   0  0  0  0  0  3  0  0  0  0  0  0
  161.7590  206.2850  149.3970 C   0  0  0  0  0  0  0  0  0  0  0  0
  161.2080  204.0570  148.6120 C   0  0  0  0  0  3  0  0  0  0  0  0
  162.0930  206.6570  148.0860 C   0  0  0  0  0  3  0  0  0  0  0  0
  161.3160  204.9820  149.6550 C   0  0  0  0  0  3  0  0  0  0  0  0
  162.3100  206.0930  145.7800 F   0  0  0  0  0  0  0  0  0  0  0  0
  160.5790  212.1630  154.9910 C   0  0  0  0  0  2  0  0  0  0  0  0
  160.1450  214.1420  157.2480 C   0  0  0  0  0  1  0  0  0  0  0  0
  159.4000  213.1380  155.0420 C   0  0  2  0  0  3  0  0  0  0  0  0
  159.0080  213.4850  156.4860 C   0  0  1  0  0  3  0  0  0  0  0  0
  157.6990  211.2850  156.3700 C   0  0  0  0  0  2  0  0  0  0  0  0
  157.1010  211.9710  155.1460 C   0  0  0  0  0  2  0  0  0  0  0  0
  158.2000  212.5720  154.2580 C   0  0  0  0  0  2  0  0  0  0  0  0
  158.4550  212.2810  157.2610 C   0  0  0  0  0  2  0  0  0  0  0  0
  2 14  2  0  0  0  0
  3 18  2  0  0  0  0
  4 10  1  1  0  0  0
  5  6  1  0  0  0  0
  6  2  1  0  0  0  0
  7  9  2  0  0  0  0
  7 17  1  0  0  0  0
  8  1  1  6  0  0  0
  8  3  1  0  0  0  0
  8  2  1  0  0  0  0
  9 27  1  0  0  0  0
 11  1  1  0  0  0  0
 11  5  1  0  0  0  0
 12 19  1  1  0  0  0
 12 16  1  0  0  0  0
 12  3  1  0  0  0  0
 13 19  1  0  0  0  0
 13  1  2  0  0  0  0
 14  9  1  0  0  0  0
 15  4  1  0  0  0  0
 16 22  1  6  0  0  0
 16 15  1  0  0  0  0
 18  4  1  0  0  0  0
 18  7  1  0  0  0  0
 20 21  2  0  0  0  0
 20 24  1  0  0  0  0
 21 23  1  0  0  0  0
 22 25  1  0  0  0  0
 23 25  2  0  0  0  0
 24 22  2  0  0  0  0
 26 20  1  0  0  0  0
 29 27  1  1  0  0  0
 29 30  1  0  0  0  0
 30 28  1  1  0  0  0
 30 34  1  0  0  0  0
 31 34  1  0  0  0  0
 32 31  1  0  0  0  0
 33 29  1  0  0  0  0
 33 32  1  0  0  0  0
M  END
>  <MODEL>
8

>  <REMARK>
 VINA RESULT:      -4.7      2.944      9.041
  Name = 
  3 active torsions:
  status: ('A' for Active; 'I' for Inactive)
    1  A    between atoms: C_3  and  C_13
    2  A    between atoms: C_3  and  C_17
    3  A    between atoms: C_12  and  C_28
                            x       y       z     vdW  Elec       q    Type
                         _______ _______ _______ _____ _____    ______ ____

>  <TORSDO>
F 3

$$$$
=
 OpenBabel11062407563D

 34 39  0  0  1  0  0  0  0  0999 V2000
  160.5330  205.5670  151.8560 C   0  0  0  0  0  0  0  0  0  0  0  0
  161.8170  207.4560  152.9100 C   0  0  0  0  0  0  0  0  0  0  0  0
  161.2150  207.6250  150.4900 C   0  0  0  0  0  0  0  0  0  0  0  0
  161.7890  209.5070  148.9310 C   0  0  1  0  0  3  0  0  0  0  0  0
  161.3380  205.4910  154.2630 C   0  0  0  0  0  2  0  0  0  0  0  0
  162.4480  206.3970  153.7520 C   0  0  0  0  0  2  0  0  0  0  0  0
  161.0300  209.9720  151.3300 C   0  0  0  0  0  0  0  0  0  0  0  0
  160.8150  207.0750  151.8510 C   0  0  1  0  0  3  0  0  0  0  0  0
  161.3310  209.8800  152.6420 C   0  0  0  0  0  0  0  0  0  0  0  0
  162.8160  210.6210  149.0500 C   0  0  0  0  0  1  0  0  0  0  0  0
  160.6810  204.7360  153.1070 C   0  0  0  0  0  2  0  0  0  0  0  0
  161.3640  206.6240  149.3520 C   0  0  2  0  0  3  0  0  0  0  0  0
  160.2530  204.9140  150.7210 C   0  0  0  0  0  3  0  0  0  0  0  0
  161.9900  208.7230  153.2720 C   0  0  0  0  0  3  0  0  0  0  0  0
  162.3530  208.4540  147.9930 C   0  0  0  0  0  2  0  0  0  0  0  0
  161.4220  207.2620  147.9620 C   0  0  1  0  0  3  0  0  0  0  0  0
  160.3850  211.1230  150.8770 O   0  0  0  0  0  1  0  0  0  0  0  0
  161.4040  208.9580  150.2990 C   0  0  0  0  0  0  0  0  0  0  0  0
  160.2040  205.6340  149.4130 C   0  0  0  0  0  2  0  0  0  0  0  0
  161.5860  205.1800  144.7740 C   0  0  0  0  0  0  0  0  0  0  0  0
  162.7440  204.4310  145.0050 C   0  0  0  0  0  3  0  0  0  0  0  0
  161.8690  206.2800  146.9200 C   0  0  0  0  0  0  0  0  0  0  0  0
  163.4630  204.6050  146.1910 C   0  0  0  0  0  3  0  0  0  0  0  0
  161.1480  206.1020  145.7290 C   0  0  0  0  0  3  0  0  0  0  0  0
  163.0270  205.5270  147.1470 C   0  0  0  0  0  3  0  0  0  0  0  0
  160.8880  205.0120  143.6260 F   0  0  0  0  0  0  0  0  0  0  0  0
  161.0180  211.0250  153.5540 C   0  0  0  0  0  2  0  0  0  0  0  0
  158.7590  213.0310  153.2950 C   0  0  0  0  0  1  0  0  0  0  0  0
  159.6520  210.8450  154.2190 C   0  0  2  0  0  3  0  0  0  0  0  0
  158.9910  212.1950  154.5400 C   0  0  1  0  0  3  0  0  0  0  0  0
  160.4660  212.1090  156.6340 C   0  0  0  0  0  2  0  0  0  0  0  0
  159.7620  210.7660  156.7960 C   0  0  0  0  0  2  0  0  0  0  0  0
  159.7790  209.9720  155.4820 C   0  0  0  0  0  2  0  0  0  0  0  0
  159.7560  212.9970  155.6030 C   0  0  0  0  0  2  0  0  0  0  0  0
  1 11  1  0  0  0  0
  2 14  2  0  0  0  0
  2  6  1  0  0  0  0
  4 10  1  1  0  0  0
  4 18  1  0  0  0  0
  6  5  1  0  0  0  0
  7  9  2  0  0  0  0
  8  3  1  6  0  0  0
  8  1  1  0  0  0  0
  8  2  1  0  0  0  0
  9 14  1  0  0  0  0
  9 27  1  0  0  0  0
 11  5  1  0  0  0  0
 12 19  1  6  0  0  0
 12  3  1  0  0  0  0
 13  1  2  0  0  0  0
 15  4  1  0  0  0  0
 16 22  1  6  0  0  0
 16 15  1  0  0  0  0
 16 12  1  0  0  0  0
 17  7  1  0  0  0  0
 18  3  2  0  0  0  0
 18  7  1  0  0  0  0
 19 13  1  0  0  0  0
 20 21  2  0  0  0  0
 20 24  1  0  0  0  0
 21 23  1  0  0  0  0
 22 25  1  0  0  0  0
 23 25  2  0  0  0  0
 24 22  2  0  0  0  0
 26 20  1  0  0  0  0
 29 27  1  1  0  0  0
 29 30  1  0  0  0  0
 29 33  1  0  0  0  0
 30 28  1  6  0  0  0
 30 34  1  0  0  0  0
 31 32  1  0  0  0  0
 33 32  1  0  0  0  0
 34 31  1  0  0  0  0
M  END
>  <MODEL>
9

>  <REMARK>
 VINA RESULT:      -4.5      2.802      8.350
  Name = 
  3 active torsions:
  status: ('A' for Active; 'I' for Inactive)
    1  A    between atoms: C_3  and  C_13
    2  A    between atoms: C_3  and  C_17
    3  A    between atoms: C_12  and  C_28
                            x       y       z     vdW  Elec       q    Type
                         _______ _______ _______ _____ _____    ______ ____

>  <TORSDO>
F 3

$$$$
