=
 OpenBabel11052423043D

 28 29  0  0  1  0  0  0  0  0999 V2000
  160.4730  206.5950  145.9540 C   0  0  0  0  0  1  0  0  0  0  0  0
  160.9220  203.3020  147.3520 N   0  0  1  0  0  0  0  0  0  0  0  0
  162.8820  203.8990  145.8610 F   0  0  0  0  0  0  0  0  0  0  0  0
  160.2950  205.6460  148.0540 O   0  0  0  0  0  0  0  0  0  0  0  0
  160.9580  203.3940  148.7390 O   0  0  0  0  0  0  0  0  0  0  0  0
  161.2600  205.7500  147.0710 C   0  0  1  0  0  0  0  0  0  0  0  0
  161.6410  204.2880  146.5020 C   0  0  2  0  0  3  0  0  0  0  0  0
  160.9150  204.8360  149.0470 C   0  0  2  0  0  3  0  0  0  0  0  0
  161.5760  200.7950  147.6570 C   0  0  0  0  0  3  0  0  0  0  0  0
  160.3610  201.5260  145.4850 C   0  0  0  0  0  0  0  0  0  0  0  0
  161.1270  199.2090  145.8140 C   0  0  0  0  0  0  0  0  0  0  0  0
  160.7670  201.8620  146.9130 C   0  0  2  0  0  3  0  0  0  0  0  0
  160.4860  200.2810  145.0310 C   0  0  0  0  0  3  0  0  0  0  0  0
  159.6890  202.3860  144.6830 F   0  0  0  0  0  0  0  0  0  0  0  0
  161.2020  198.1090  145.2600 O   0  0  0  0  0  0  0  0  0  0  0  0
  161.6930  199.5350  147.1450 C   0  0  0  0  0  3  0  0  0  0  0  0
  160.5670  205.1430  150.4140 C   0  0  2  0  0  3  0  0  0  0  0  0
  160.6600  206.5310  150.5170 O   0  0  0  0  0  1  0  0  0  0  0  0
  160.8760  203.4070  152.0790 O   0  0  0  0  0  1  0  0  0  0  0  0
  161.4690  204.5180  151.4320 C   0  0  2  0  0  3  0  0  0  0  0  0
  161.9610  205.5990  152.3840 C   0  0  0  0  0  0  0  0  0  0  0  0
  162.9820  206.2160  152.1130 O   0  0  0  0  0  0  0  0  0  0  0  0
  161.3390  205.8090  153.6560 O   0  0  0  0  0  0  0  0  0  0  0  0
  160.7960  206.9860  154.1310 C   0  0  0  0  0  0  0  0  0  0  0  0
  160.7830  207.9740  153.3880 O   0  0  0  0  0  0  0  0  0  0  0  0
  160.3210  207.1750  155.5910 C   0  0  0  0  0  1  0  0  0  0  0  0
  162.0850  207.7940  147.9230 O   0  0  0  0  0  1  0  0  0  0  0  0
  162.4930  206.4880  147.5510 C   0  0  0  0  0  2  0  0  0  0  0  0
  2  5  1  1  0  0  0
  4  8  1  0  0  0  0
  5  8  1  0  0  0  0
  6  1  1  6  0  0  0
  6 28  1  0  0  0  0
  6  4  1  0  0  0  0
  7  3  1  1  0  0  0
  7  6  1  0  0  0  0
  7  2  1  0  0  0  0
  8 17  1  1  0  0  0
 10 12  1  0  0  0  0
 11 16  1  0  0  0  0
 12  2  1  0  0  0  0
 12  9  1  6  0  0  0
 13 10  2  0  0  0  0
 13 11  1  0  0  0  0
 14 10  1  0  0  0  0
 15 11  2  0  0  0  0
 16  9  2  0  0  0  0
 17 18  1  6  0  0  0
 17 20  1  0  0  0  0
 20 19  1  1  0  0  0
 20 21  1  0  0  0  0
 21 23  1  0  0  0  0
 22 21  2  0  0  0  0
 23 24  1  0  0  0  0
 24 26  1  0  0  0  0
 25 24  2  0  0  0  0
 28 27  1  0  0  0  0
M  END
>  <MODEL>
1

>  <REMARK>
 VINA RESULT:      -7.4      0.000      0.000
  Name = 
  7 active torsions:
  status: ('A' for Active; 'I' for Inactive)
    1  A    between atoms: C_1  and  C_11
    2  A    between atoms: C_1  and  C_27
    3  A    between atoms: C_3  and  C_11
    4  A    between atoms: C_3  and  O_28
    5  A    between atoms: C_6  and  O_28
    6  A    between atoms: N_10  and  C_13
    7  A    between atoms: C_20  and  C_21
                            x       y       z     vdW  Elec       q    Type
                         _______ _______ _______ _____ _____    ______ ____

>  <TORSDO>
F 7

$$$$
=
 OpenBabel11052423043D

 28 29  0  0  1  0  0  0  0  0999 V2000
  160.8400  208.0500  151.5790 C   0  0  0  0  0  1  0  0  0  0  0  0
  161.4190  205.8560  148.7770 N   0  0  1  0  0  0  0  0  0  0  0  0
  163.5290  207.1440  149.3350 F   0  0  0  0  0  0  0  0  0  0  0  0
  160.4040  205.8330  151.0900 O   0  0  0  0  0  0  0  0  0  0  0  0
  161.1980  204.5410  149.1710 O   0  0  0  0  0  0  0  0  0  0  0  0
  161.5090  206.6610  151.1280 C   0  0  1  0  0  0  0  0  0  0  0  0
  162.1560  206.8030  149.6550 C   0  0  2  0  0  3  0  0  0  0  0  0
  160.9290  204.5960  150.6200 C   0  0  2  0  0  3  0  0  0  0  0  0
  160.2480  206.3260  146.4940 C   0  0  0  0  0  3  0  0  0  0  0  0
  162.5660  205.1640  146.5050 C   0  0  0  0  0  0  0  0  0  0  0  0
  161.3260  205.5420  144.4110 C   0  0  0  0  0  0  0  0  0  0  0  0
  161.5160  205.9560  147.2700 C   0  0  2  0  0  3  0  0  0  0  0  0
  162.4800  205.0430  145.1830 C   0  0  0  0  0  3  0  0  0  0  0  0
  163.7150  204.7200  147.0680 F   0  0  0  0  0  0  0  0  0  0  0  0
  161.3630  205.3370  143.1950 O   0  0  0  0  0  0  0  0  0  0  0  0
  160.1970  206.1690  145.1390 C   0  0  0  0  0  3  0  0  0  0  0  0
  160.3100  203.4080  151.1570 C   0  0  2  0  0  3  0  0  0  0  0  0
  160.3900  203.5440  152.5440 O   0  0  0  0  0  1  0  0  0  0  0  0
  162.3880  202.1850  150.8890 O   0  0  0  0  0  1  0  0  0  0  0  0
  160.9800  202.1310  150.7540 C   0  0  2  0  0  3  0  0  0  0  0  0
  160.5070  201.7470  149.3580 C   0  0  0  0  0  0  0  0  0  0  0  0
  159.3250  201.4910  149.1760 O   0  0  0  0  0  0  0  0  0  0  0  0
  161.4370  201.5380  148.2890 O   0  0  0  0  0  0  0  0  0  0  0  0
  161.1660  201.0060  147.0450 C   0  0  0  0  0  0  0  0  0  0  0  0
  161.4470  199.8210  146.8330 O   0  0  0  0  0  0  0  0  0  0  0  0
  160.6500  201.8490  145.8550 C   0  0  0  0  0  1  0  0  0  0  0  0
  161.9600  206.3220  153.4230 O   0  0  0  0  0  1  0  0  0  0  0  0
  162.5420  206.1980  152.1360 C   0  0  0  0  0  2  0  0  0  0  0  0
  2  5  1  1  0  0  0
  2  7  1  0  0  0  0
  4  6  1  0  0  0  0
  5  8  1  0  0  0  0
  6  1  1  1  0  0  0
  6 28  1  0  0  0  0
  7  3  1  1  0  0  0
  7  6  1  0  0  0  0
  8  4  1  0  0  0  0
  8 17  1  6  0  0  0
 10 14  1  0  0  0  0
 10 12  1  0  0  0  0
 11 16  1  0  0  0  0
 11 13  1  0  0  0  0
 12  9  1  6  0  0  0
 12  2  1  0  0  0  0
 13 10  2  0  0  0  0
 15 11  2  0  0  0  0
 16  9  2  0  0  0  0
 17 18  1  1  0  0  0
 20 19  1  6  0  0  0
 20 17  1  0  0  0  0
 21 20  1  0  0  0  0
 22 21  2  0  0  0  0
 23 21  1  0  0  0  0
 24 23  1  0  0  0  0
 25 24  2  0  0  0  0
 26 24  1  0  0  0  0
 28 27  1  0  0  0  0
M  END
>  <MODEL>
2

>  <REMARK>
 VINA RESULT:      -6.8      2.120      5.685
  Name = 
  7 active torsions:
  status: ('A' for Active; 'I' for Inactive)
    1  A    between atoms: C_1  and  C_11
    2  A    between atoms: C_1  and  C_27
    3  A    between atoms: C_3  and  C_11
    4  A    between atoms: C_3  and  O_28
    5  A    between atoms: C_6  and  O_28
    6  A    between atoms: N_10  and  C_13
    7  A    between atoms: C_20  and  C_21
                            x       y       z     vdW  Elec       q    Type
                         _______ _______ _______ _____ _____    ______ ____

>  <TORSDO>
F 7

$$$$
=
 OpenBabel11052423043D

 28 29  0  0  1  0  0  0  0  0999 V2000
  160.4020  206.7890  146.8200 C   0  0  0  0  0  1  0  0  0  0  0  0
  161.1280  203.3870  147.7670 N   0  0  1  0  0  0  0  0  0  0  0  0
  162.7640  204.1760  146.0000 F   0  0  0  0  0  0  0  0  0  0  0  0
  160.6330  205.6350  148.8090 O   0  0  0  0  0  0  0  0  0  0  0  0
  161.4280  203.3430  149.1240 O   0  0  0  0  0  0  0  0  0  0  0  0
  161.3920  205.8580  147.6770 C   0  0  1  0  0  0  0  0  0  0  0  0
  161.6660  204.4690  146.9010 C   0  0  2  0  0  3  0  0  0  0  0  0
  161.4350  204.7470  149.5790 C   0  0  2  0  0  3  0  0  0  0  0  0
  161.5380  200.8190  147.9700 C   0  0  0  0  0  3  0  0  0  0  0  0
  160.6160  201.7760  145.7430 C   0  0  0  0  0  0  0  0  0  0  0  0
  161.1510  199.3850  145.9920 C   0  0  0  0  0  0  0  0  0  0  0  0
  160.9000  201.9940  147.2220 C   0  0  2  0  0  3  0  0  0  0  0  0
  160.6830  200.5530  145.2230 C   0  0  0  0  0  3  0  0  0  0  0  0
  160.1030  202.7370  144.9370 F   0  0  0  0  0  0  0  0  0  0  0  0
  161.1910  198.3160  145.3780 O   0  0  0  0  0  0  0  0  0  0  0  0
  161.6020  199.5850  147.3910 C   0  0  0  0  0  3  0  0  0  0  0  0
  161.3530  204.9090  151.0110 C   0  0  2  0  0  3  0  0  0  0  0  0
  160.0900  204.4330  151.3650 O   0  0  0  0  0  1  0  0  0  0  0  0
  162.7320  206.9010  151.1210 O   0  0  0  0  0  1  0  0  0  0  0  0
  161.4880  206.3250  151.4770 C   0  0  2  0  0  3  0  0  0  0  0  0
  161.1830  206.3840  152.9670 C   0  0  0  0  0  0  0  0  0  0  0  0
  161.4280  205.4130  153.6690 O   0  0  0  0  0  0  0  0  0  0  0  0
  160.4820  207.4950  153.5390 O   0  0  0  0  0  0  0  0  0  0  0  0
  161.0300  208.6780  153.9930 C   0  0  0  0  0  0  0  0  0  0  0  0
  161.3870  208.7510  155.1740 O   0  0  0  0  0  0  0  0  0  0  0  0
  161.1010  209.9650  153.1380 C   0  0  0  0  0  1  0  0  0  0  0  0
  162.3860  207.9540  148.1290 O   0  0  0  0  0  1  0  0  0  0  0  0
  162.6900  206.5760  147.9860 C   0  0  0  0  0  2  0  0  0  0  0  0
  2  5  1  1  0  0  0
  4  8  1  0  0  0  0
  5  8  1  0  0  0  0
  6  1  1  6  0  0  0
  6 28  1  0  0  0  0
  6  4  1  0  0  0  0
  7  3  1  1  0  0  0
  7  6  1  0  0  0  0
  7  2  1  0  0  0  0
  8 17  1  1  0  0  0
 10 12  1  0  0  0  0
 11 16  1  0  0  0  0
 12  2  1  0  0  0  0
 12  9  1  6  0  0  0
 13 10  2  0  0  0  0
 13 11  1  0  0  0  0
 14 10  1  0  0  0  0
 15 11  2  0  0  0  0
 16  9  2  0  0  0  0
 17 18  1  6  0  0  0
 17 20  1  0  0  0  0
 20 19  1  1  0  0  0
 20 21  1  0  0  0  0
 21 23  1  0  0  0  0
 21 22  2  0  0  0  0
 23 24  1  0  0  0  0
 24 25  2  0  0  0  0
 26 24  1  0  0  0  0
 28 27  1  0  0  0  0
M  END
>  <MODEL>
3

>  <REMARK>
 VINA RESULT:      -6.7      1.028      1.504
  Name = 
  7 active torsions:
  status: ('A' for Active; 'I' for Inactive)
    1  A    between atoms: C_1  and  C_11
    2  A    between atoms: C_1  and  C_27
    3  A    between atoms: C_3  and  C_11
    4  A    between atoms: C_3  and  O_28
    5  A    between atoms: C_6  and  O_28
    6  A    between atoms: N_10  and  C_13
    7  A    between atoms: C_20  and  C_21
                            x       y       z     vdW  Elec       q    Type
                         _______ _______ _______ _____ _____    ______ ____

>  <TORSDO>
F 7

$$$$
=
 OpenBabel11052423043D

 28 29  0  0  1  0  0  0  0  0999 V2000
  162.1000  208.7430  156.5360 C   0  0  0  0  0  1  0  0  0  0  0  0
  161.0300  208.0700  153.1590 N   0  0  1  0  0  0  0  0  0  0  0  0
  159.8770  206.4970  154.7770 F   0  0  0  0  0  0  0  0  0  0  0  0
  161.3710  210.0080  154.7440 O   0  0  0  0  0  0  0  0  0  0  0  0
  160.4270  209.2080  152.6340 O   0  0  0  0  0  0  0  0  0  0  0  0
  160.9020  208.9410  155.4850 C   0  0  1  0  0  0  0  0  0  0  0  0
  160.7520  207.6320  154.5520 C   0  0  2  0  0  3  0  0  0  0  0  0
  160.3760  210.1820  153.7410 C   0  0  2  0  0  3  0  0  0  0  0  0
  160.9680  207.4490  150.6260 C   0  0  0  0  0  3  0  0  0  0  0  0
  161.3480  205.5720  152.3760 C   0  0  0  0  0  0  0  0  0  0  0  0
  161.1520  205.0710  149.9730 C   0  0  0  0  0  0  0  0  0  0  0  0
  161.3160  207.0620  152.0680 C   0  0  2  0  0  3  0  0  0  0  0  0
  161.3300  204.6840  151.3850 C   0  0  0  0  0  3  0  0  0  0  0  0
  161.5880  205.0760  153.6140 F   0  0  0  0  0  0  0  0  0  0  0  0
  161.1260  204.1430  149.1600 O   0  0  0  0  0  0  0  0  0  0  0  0
  160.9450  206.5020  149.6440 C   0  0  0  0  0  3  0  0  0  0  0  0
  160.1360  211.5430  153.3260 C   0  0  2  0  0  3  0  0  0  0  0  0
  160.2310  212.3080  154.4890 O   0  0  0  0  0  1  0  0  0  0  0  0
  158.8390  212.6680  151.6130 O   0  0  0  0  0  1  0  0  0  0  0  0
  158.7930  211.7680  152.7050 C   0  0  2  0  0  3  0  0  0  0  0  0
  157.8060  212.1650  153.7940 C   0  0  0  0  0  0  0  0  0  0  0  0
  157.4600  213.3340  153.8910 O   0  0  0  0  0  0  0  0  0  0  0  0
  157.3870  211.2300  154.7950 O   0  0  0  0  0  0  0  0  0  0  0  0
  156.1170  211.0830  155.3150 C   0  0  0  0  0  0  0  0  0  0  0  0
  155.2950  210.4050  154.6870 O   0  0  0  0  0  0  0  0  0  0  0  0
  155.6230  211.8300  156.5750 C   0  0  0  0  0  1  0  0  0  0  0  0
  159.8890  210.2140  157.1990 O   0  0  0  0  0  1  0  0  0  0  0  0
  159.6000  209.2590  156.1920 C   0  0  0  0  0  2  0  0  0  0  0  0
  2  5  1  6  0  0  0
  2  7  1  0  0  0  0
  4  6  1  0  0  0  0
  5  8  1  0  0  0  0
  6 28  1  0  0  0  0
  6  1  1  1  0  0  0
  7  3  1  6  0  0  0
  7  6  1  0  0  0  0
  8 17  1  6  0  0  0
  8  4  1  0  0  0  0
 10 14  1  0  0  0  0
 11 13  1  0  0  0  0
 12  9  1  6  0  0  0
 12 10  1  0  0  0  0
 12  2  1  0  0  0  0
 13 10  2  0  0  0  0
 15 11  2  0  0  0  0
 16 11  1  0  0  0  0
 16  9  2  0  0  0  0
 17 18  1  1  0  0  0
 20 19  1  6  0  0  0
 20 17  1  0  0  0  0
 20 21  1  0  0  0  0
 21 22  2  0  0  0  0
 21 23  1  0  0  0  0
 23 24  1  0  0  0  0
 24 26  1  0  0  0  0
 25 24  2  0  0  0  0
 28 27  1  0  0  0  0
M  END
>  <MODEL>
4

>  <REMARK>
 VINA RESULT:      -6.5      4.616      8.083
  Name = 
  7 active torsions:
  status: ('A' for Active; 'I' for Inactive)
    1  A    between atoms: C_1  and  C_11
    2  A    between atoms: C_1  and  C_27
    3  A    between atoms: C_3  and  C_11
    4  A    between atoms: C_3  and  O_28
    5  A    between atoms: C_6  and  O_28
    6  A    between atoms: N_10  and  C_13
    7  A    between atoms: C_20  and  C_21
                            x       y       z     vdW  Elec       q    Type
                         _______ _______ _______ _____ _____    ______ ____

>  <TORSDO>
F 7

$$$$
=
 OpenBabel11052423043D

 28 29  0  0  1  0  0  0  0  0999 V2000
  163.0290  205.7600  152.7030 C   0  0  0  0  0  1  0  0  0  0  0  0
  161.2450  205.1120  149.6370 N   0  0  1  0  0  0  0  0  0  0  0  0
  159.9070  204.2860  151.6240 F   0  0  0  0  0  0  0  0  0  0  0  0
  162.4930  206.9710  150.8080 O   0  0  0  0  0  0  0  0  0  0  0  0
  160.9920  206.3170  148.9900 O   0  0  0  0  0  0  0  0  0  0  0  0
  161.8150  206.2520  151.7730 C   0  0  1  0  0  0  0  0  0  0  0  0
  161.0690  204.9830  151.1080 C   0  0  2  0  0  3  0  0  0  0  0  0
  161.4670  207.3720  149.9070 C   0  0  2  0  0  3  0  0  0  0  0  0
  160.7440  202.5690  149.3520 C   0  0  0  0  0  3  0  0  0  0  0  0
  161.5090  203.9410  147.2890 C   0  0  0  0  0  0  0  0  0  0  0  0
  161.1300  201.5120  147.1490 C   0  0  0  0  0  0  0  0  0  0  0  0
  160.9800  203.9420  148.7150 C   0  0  2  0  0  3  0  0  0  0  0  0
  161.5090  202.8170  146.5770 C   0  0  0  0  0  3  0  0  0  0  0  0
  161.8160  205.0730  146.6110 F   0  0  0  0  0  0  0  0  0  0  0  0
  161.2020  200.5470  146.3850 O   0  0  0  0  0  0  0  0  0  0  0  0
  160.7710  201.4390  148.5860 C   0  0  0  0  0  3  0  0  0  0  0  0
  161.6450  208.6630  149.2870 C   0  0  2  0  0  3  0  0  0  0  0  0
  162.5680  208.4570  148.2620 O   0  0  0  0  0  1  0  0  0  0  0  0
  161.6430  209.6120  151.5200 O   0  0  0  0  0  1  0  0  0  0  0  0
  162.1690  209.7190  150.2100 C   0  0  2  0  0  3  0  0  0  0  0  0
  161.9570  211.0840  149.5680 C   0  0  0  0  0  0  0  0  0  0  0  0
  161.1980  211.8830  150.0970 O   0  0  0  0  0  0  0  0  0  0  0  0
  162.5130  211.3960  148.2850 O   0  0  0  0  0  0  0  0  0  0  0  0
  162.3660  212.5740  147.5810 C   0  0  0  0  0  0  0  0  0  0  0  0
  163.0830  213.5370  147.8800 O   0  0  0  0  0  0  0  0  0  0  0  0
  161.2610  212.7990  146.5240 C   0  0  0  0  0  1  0  0  0  0  0  0
  161.0820  206.8790  153.9300 O   0  0  0  0  0  1  0  0  0  0  0  0
  160.8400  207.1110  152.5520 C   0  0  0  0  0  2  0  0  0  0  0  0
  2  5  1  6  0  0  0
  2  7  1  0  0  0  0
  4  6  1  0  0  0  0
  5  8  1  0  0  0  0
  6 28  1  0  0  0  0
  6  1  1  1  0  0  0
  7  3  1  6  0  0  0
  7  6  1  0  0  0  0
  8 17  1  6  0  0  0
  8  4  1  0  0  0  0
 10 12  1  0  0  0  0
 11 16  1  0  0  0  0
 12  9  1  1  0  0  0
 12  2  1  0  0  0  0
 13 11  1  0  0  0  0
 13 10  2  0  0  0  0
 14 10  1  0  0  0  0
 15 11  2  0  0  0  0
 16  9  2  0  0  0  0
 17 18  1  6  0  0  0
 17 20  1  0  0  0  0
 20 19  1  1  0  0  0
 21 22  2  0  0  0  0
 21 20  1  0  0  0  0
 23 21  1  0  0  0  0
 24 25  2  0  0  0  0
 24 23  1  0  0  0  0
 26 24  1  0  0  0  0
 28 27  1  0  0  0  0
M  END
>  <MODEL>
5

>  <REMARK>
 VINA RESULT:      -6.3      3.239      5.372
  Name = 
  7 active torsions:
  status: ('A' for Active; 'I' for Inactive)
    1  A    between atoms: C_1  and  C_11
    2  A    between atoms: C_1  and  C_27
    3  A    between atoms: C_3  and  C_11
    4  A    between atoms: C_3  and  O_28
    5  A    between atoms: C_6  and  O_28
    6  A    between atoms: N_10  and  C_13
    7  A    between atoms: C_20  and  C_21
                            x       y       z     vdW  Elec       q    Type
                         _______ _______ _______ _____ _____    ______ ____

>  <TORSDO>
F 7

$$$$
=
 OpenBabel11052423043D

 28 29  0  0  1  0  0  0  0  0999 V2000
  159.4490  202.4270  149.9100 C   0  0  0  0  0  1  0  0  0  0  0  0
  161.3410  205.3820  150.7400 N   0  0  1  0  0  0  0  0  0  0  0  0
  162.2260  203.3830  152.0220 F   0  0  0  0  0  0  0  0  0  0  0  0
  160.4550  204.1390  148.7270 O   0  0  0  0  0  0  0  0  0  0  0  0
  161.9400  205.8810  149.5890 O   0  0  0  0  0  0  0  0  0  0  0  0
  160.8370  203.1980  149.6640 C   0  0  1  0  0  0  0  0  0  0  0  0
  161.3250  203.9220  151.0220 C   0  0  2  0  0  3  0  0  0  0  0  0
  161.6370  204.9060  148.5240 C   0  0  2  0  0  3  0  0  0  0  0  0
  161.1930  205.8870  153.2950 C   0  0  0  0  0  3  0  0  0  0  0  0
  161.1080  207.8600  151.6140 C   0  0  0  0  0  0  0  0  0  0  0  0
  160.8540  208.2220  154.0360 C   0  0  0  0  0  0  0  0  0  0  0  0
  161.4160  206.3910  151.8660 C   0  0  2  0  0  3  0  0  0  0  0  0
  160.9120  208.6870  152.6380 C   0  0  0  0  0  3  0  0  0  0  0  0
  161.2060  208.4390  150.3930 F   0  0  0  0  0  0  0  0  0  0  0  0
  160.6370  209.0920  154.8840 O   0  0  0  0  0  0  0  0  0  0  0  0
  160.9780  206.7710  154.3130 C   0  0  0  0  0  3  0  0  0  0  0  0
  161.8370  205.4050  147.1850 C   0  0  2  0  0  3  0  0  0  0  0  0
  160.5690  205.7680  146.7310 O   0  0  0  0  0  1  0  0  0  0  0  0
  163.3850  204.9760  145.3670 O   0  0  0  0  0  1  0  0  0  0  0  0
  162.4260  204.4060  146.2390 C   0  0  2  0  0  3  0  0  0  0  0  0
  161.2950  203.6790  145.5240 C   0  0  0  0  0  0  0  0  0  0  0  0
  160.8250  204.1600  144.5020 O   0  0  0  0  0  0  0  0  0  0  0  0
  160.6750  202.5220  146.0970 O   0  0  0  0  0  0  0  0  0  0  0  0
  160.5100  201.2870  145.5040 C   0  0  0  0  0  0  0  0  0  0  0  0
  159.6850  201.1740  144.5900 O   0  0  0  0  0  0  0  0  0  0  0  0
  161.2070  200.0020  146.0090 C   0  0  0  0  0  1  0  0  0  0  0  0
  161.3810  200.9410  149.2240 O   0  0  0  0  0  1  0  0  0  0  0  0
  161.9000  202.2570  149.1340 C   0  0  0  0  0  2  0  0  0  0  0  0
  2  5  1  6  0  0  0
  2  7  1  0  0  0  0
  2 12  1  0  0  0  0
  4  6  1  0  0  0  0
  6  1  1  1  0  0  0
  6  7  1  0  0  0  0
  7  3  1  6  0  0  0
  8 17  1  6  0  0  0
  8  4  1  0  0  0  0
  8  5  1  0  0  0  0
  9 16  2  0  0  0  0
 10 12  1  0  0  0  0
 10 13  2  0  0  0  0
 11 16  1  0  0  0  0
 11 15  2  0  0  0  0
 12  9  1  1  0  0  0
 13 11  1  0  0  0  0
 14 10  1  0  0  0  0
 17 18  1  6  0  0  0
 20 19  1  6  0  0  0
 20 17  1  0  0  0  0
 21 23  1  0  0  0  0
 21 20  1  0  0  0  0
 22 21  2  0  0  0  0
 24 26  1  0  0  0  0
 24 23  1  0  0  0  0
 25 24  2  0  0  0  0
 28 27  1  0  0  0  0
 28  6  1  0  0  0  0
M  END
>  <MODEL>
6

>  <REMARK>
 VINA RESULT:      -6.2      2.687      7.846
  Name = 
  7 active torsions:
  status: ('A' for Active; 'I' for Inactive)
    1  A    between atoms: C_1  and  C_11
    2  A    between atoms: C_1  and  C_27
    3  A    between atoms: C_3  and  C_11
    4  A    between atoms: C_3  and  O_28
    5  A    between atoms: C_6  and  O_28
    6  A    between atoms: N_10  and  C_13
    7  A    between atoms: C_20  and  C_21
                            x       y       z     vdW  Elec       q    Type
                         _______ _______ _______ _____ _____    ______ ____

>  <TORSDO>
F 7

$$$$
=
 OpenBabel11052423043D

 28 29  0  0  1  0  0  0  0  0999 V2000
  160.0570  203.4080  152.5930 C   0  0  0  0  0  1  0  0  0  0  0  0
  160.9010  206.8880  152.1700 N   0  0  1  0  0  0  0  0  0  0  0  0
  162.5410  205.7710  153.7460 F   0  0  0  0  0  0  0  0  0  0  0  0
  160.2910  204.8520  150.8040 O   0  0  0  0  0  0  0  0  0  0  0  0
  161.1730  207.1340  150.8290 O   0  0  0  0  0  0  0  0  0  0  0  0
  161.0650  204.4250  151.8660 C   0  0  1  0  0  0  0  0  0  0  0  0
  161.4130  205.6640  152.8410 C   0  0  2  0  0  3  0  0  0  0  0  0
  161.1130  205.8200  150.1600 C   0  0  2  0  0  3  0  0  0  0  0  0
  161.3640  209.4500  152.3320 C   0  0  0  0  0  3  0  0  0  0  0  0
  160.5530  208.1800  154.4430 C   0  0  0  0  0  0  0  0  0  0  0  0
  161.1330  210.5720  154.5230 C   0  0  0  0  0  0  0  0  0  0  0  0
  160.7420  208.1850  152.9330 C   0  0  2  0  0  3  0  0  0  0  0  0
  160.6820  209.3080  155.1360 C   0  0  0  0  0  3  0  0  0  0  0  0
  160.0640  207.1160  155.1250 F   0  0  0  0  0  0  0  0  0  0  0  0
  161.2370  211.5340  155.2880 O   0  0  0  0  0  0  0  0  0  0  0  0
  161.4940  210.5800  153.0850 C   0  0  0  0  0  3  0  0  0  0  0  0
  160.9930  205.8880  148.7230 C   0  0  2  0  0  3  0  0  0  0  0  0
  160.7960  204.5720  148.3050 O   0  0  0  0  0  1  0  0  0  0  0  0
  162.1650  207.8550  147.9230 O   0  0  0  0  0  1  0  0  0  0  0  0
  162.1990  206.4440  148.0320 C   0  0  2  0  0  3  0  0  0  0  0  0
  162.3800  205.7240  146.7030 C   0  0  0  0  0  0  0  0  0  0  0  0
  163.2940  204.9200  146.5770 O   0  0  0  0  0  0  0  0  0  0  0  0
  161.5970  206.0720  145.5560 O   0  0  0  0  0  0  0  0  0  0  0  0
  161.2300  205.2410  144.5160 C   0  0  0  0  0  0  0  0  0  0  0  0
  161.4090  205.6290  143.3560 O   0  0  0  0  0  0  0  0  0  0  0  0
  160.4850  203.9020  144.7220 C   0  0  0  0  0  1  0  0  0  0  0  0
  162.1150  202.3260  151.5890 O   0  0  0  0  0  1  0  0  0  0  0  0
  162.3250  203.7170  151.4120 C   0  0  0  0  0  2  0  0  0  0  0  0
  2  5  1  6  0  0  0
  2  7  1  0  0  0  0
  2 12  1  0  0  0  0
  4  6  1  0  0  0  0
  6  1  1  1  0  0  0
  6  7  1  0  0  0  0
  7  3  1  6  0  0  0
  8 17  1  6  0  0  0
  8  4  1  0  0  0  0
  8  5  1  0  0  0  0
  9 16  2  0  0  0  0
 10 14  1  0  0  0  0
 10 13  2  0  0  0  0
 11 13  1  0  0  0  0
 11 15  2  0  0  0  0
 12  9  1  1  0  0  0
 12 10  1  0  0  0  0
 16 11  1  0  0  0  0
 17 18  1  6  0  0  0
 20 19  1  6  0  0  0
 20 17  1  0  0  0  0
 21 20  1  0  0  0  0
 22 21  2  0  0  0  0
 23 21  1  0  0  0  0
 24 26  1  0  0  0  0
 24 23  1  0  0  0  0
 25 24  2  0  0  0  0
 28 27  1  0  0  0  0
 28  6  1  0  0  0  0
M  END
>  <MODEL>
7

>  <REMARK>
 VINA RESULT:      -6.1      3.771      8.665
  Name = 
  7 active torsions:
  status: ('A' for Active; 'I' for Inactive)
    1  A    between atoms: C_1  and  C_11
    2  A    between atoms: C_1  and  C_27
    3  A    between atoms: C_3  and  C_11
    4  A    between atoms: C_3  and  O_28
    5  A    between atoms: C_6  and  O_28
    6  A    between atoms: N_10  and  C_13
    7  A    between atoms: C_20  and  C_21
                            x       y       z     vdW  Elec       q    Type
                         _______ _______ _______ _____ _____    ______ ____

>  <TORSDO>
F 7

$$$$
=
 OpenBabel11052423043D

 28 29  0  0  1  0  0  0  0  0999 V2000
  163.1900  204.8340  146.4390 C   0  0  0  0  0  1  0  0  0  0  0  0
  161.5950  206.1990  149.3700 N   0  0  1  0  0  0  0  0  0  0  0  0
  160.8640  207.4660  147.3010 F   0  0  0  0  0  0  0  0  0  0  0  0
  162.0650  203.9750  148.2670 O   0  0  0  0  0  0  0  0  0  0  0  0
  160.8250  205.2110  149.9750 O   0  0  0  0  0  0  0  0  0  0  0  0
  161.8130  204.8930  147.2650 C   0  0  1  0  0  0  0  0  0  0  0  0
  161.5990  206.3650  147.8920 C   0  0  2  0  0  3  0  0  0  0  0  0
  160.8990  204.0410  149.0800 C   0  0  2  0  0  3  0  0  0  0  0  0
  161.0410  207.3550  151.6420 C   0  0  0  0  0  3  0  0  0  0  0  0
  162.0610  208.7710  149.7230 C   0  0  0  0  0  0  0  0  0  0  0  0
  161.3910  209.7930  151.8600 C   0  0  0  0  0  0  0  0  0  0  0  0
  161.7580  207.3910  150.2880 C   0  0  2  0  0  3  0  0  0  0  0  0
  161.9380  209.8490  150.4920 C   0  0  0  0  0  3  0  0  0  0  0  0
  162.6420  208.9650  148.5150 F   0  0  0  0  0  0  0  0  0  0  0  0
  161.3070  210.8730  152.4510 O   0  0  0  0  0  0  0  0  0  0  0  0
  160.9220  208.4900  152.3900 C   0  0  0  0  0  3  0  0  0  0  0  0
  160.4890  202.7980  149.6890 C   0  0  2  0  0  3  0  0  0  0  0  0
  161.6600  202.2260  150.1870 O   0  0  0  0  0  1  0  0  0  0  0  0
  158.8440  201.0440  149.3680 O   0  0  0  0  0  1  0  0  0  0  0  0
  159.8400  201.8360  148.7450 C   0  0  2  0  0  3  0  0  0  0  0  0
  160.9230  201.0280  148.0420 C   0  0  0  0  0  0  0  0  0  0  0  0
  161.6610  200.3130  148.7050 O   0  0  0  0  0  0  0  0  0  0  0  0
  161.1890  201.1980  146.6450 O   0  0  0  0  0  0  0  0  0  0  0  0
  160.7930  200.3670  145.6170 C   0  0  0  0  0  0  0  0  0  0  0  0
  159.9950  200.8010  144.7780 O   0  0  0  0  0  0  0  0  0  0  0  0
  161.1910  198.8750  145.5290 C   0  0  0  0  0  1  0  0  0  0  0  0
  161.1530  204.1150  145.1340 O   0  0  0  0  0  1  0  0  0  0  0  0
  160.6370  204.4920  146.3990 C   0  0  0  0  0  2  0  0  0  0  0  0
  2  5  1  1  0  0  0
  2 12  1  0  0  0  0
  4  8  1  0  0  0  0
  6  1  1  6  0  0  0
  6  7  1  0  0  0  0
  6  4  1  0  0  0  0
  7  3  1  6  0  0  0
  7  2  1  0  0  0  0
  8 17  1  1  0  0  0
  8  5  1  0  0  0  0
  9 16  2  0  0  0  0
 10 12  1  0  0  0  0
 10 13  2  0  0  0  0
 11 16  1  0  0  0  0
 11 15  2  0  0  0  0
 12  9  1  6  0  0  0
 13 11  1  0  0  0  0
 14 10  1  0  0  0  0
 17 18  1  6  0  0  0
 20 19  1  1  0  0  0
 20 17  1  0  0  0  0
 21 22  2  0  0  0  0
 21 20  1  0  0  0  0
 23 21  1  0  0  0  0
 24 23  1  0  0  0  0
 25 24  2  0  0  0  0
 26 24  1  0  0  0  0
 27 28  1  0  0  0  0
 28  6  1  0  0  0  0
M  END
>  <MODEL>
8

>  <REMARK>
 VINA RESULT:      -6.0      2.730      7.469
  Name = 
  7 active torsions:
  status: ('A' for Active; 'I' for Inactive)
    1  A    between atoms: C_1  and  C_11
    2  A    between atoms: C_1  and  C_27
    3  A    between atoms: C_3  and  C_11
    4  A    between atoms: C_3  and  O_28
    5  A    between atoms: C_6  and  O_28
    6  A    between atoms: N_10  and  C_13
    7  A    between atoms: C_20  and  C_21
                            x       y       z     vdW  Elec       q    Type
                         _______ _______ _______ _____ _____    ______ ____

>  <TORSDO>
F 7

$$$$
=
 OpenBabel11052423043D

 28 29  0  0  1  0  0  0  0  0999 V2000
  163.0810  205.0910  152.3310 C   0  0  0  0  0  1  0  0  0  0  0  0
  161.5290  206.2590  149.2940 N   0  0  1  0  0  0  0  0  0  0  0  0
  160.3150  204.2150  150.1710 F   0  0  0  0  0  0  0  0  0  0  0  0
  162.3790  207.1330  151.5060 O   0  0  0  0  0  0  0  0  0  0  0  0
  161.0740  207.5600  149.4820 O   0  0  0  0  0  0  0  0  0  0  0  0
  161.8210  205.8900  151.7360 C   0  0  1  0  0  0  0  0  0  0  0  0
  161.3410  205.2250  150.3450 C   0  0  2  0  0  3  0  0  0  0  0  0
  161.3210  207.8690  150.9040 C   0  0  2  0  0  3  0  0  0  0  0  0
  160.6840  206.7680  146.8790 C   0  0  0  0  0  3  0  0  0  0  0  0
  161.7380  204.4530  147.3840 C   0  0  0  0  0  0  0  0  0  0  0  0
  160.8010  204.9850  145.1700 C   0  0  0  0  0  0  0  0  0  0  0  0
  161.5080  205.8900  147.8260 C   0  0  2  0  0  3  0  0  0  0  0  0
  161.4560  204.0850  146.1370 C   0  0  0  0  0  3  0  0  0  0  0  0
  162.4010  203.5420  148.1360 F   0  0  0  0  0  0  0  0  0  0  0  0
  160.5720  204.5050  144.0570 O   0  0  0  0  0  0  0  0  0  0  0  0
  160.4030  206.3430  145.6130 C   0  0  0  0  0  3  0  0  0  0  0  0
  161.2730  209.2750  151.2240 C   0  0  2  0  0  3  0  0  0  0  0  0
  162.5900  209.6340  151.5110 O   0  0  0  0  0  1  0  0  0  0  0  0
  159.7300  210.8400  152.2510 O   0  0  0  0  0  1  0  0  0  0  0  0
  160.4110  209.6080  152.4020 C   0  0  2  0  0  3  0  0  0  0  0  0
  161.2500  209.5150  153.6690 C   0  0  0  0  0  0  0  0  0  0  0  0
  161.2620  208.4700  154.3040 O   0  0  0  0  0  0  0  0  0  0  0  0
  161.9080  210.6660  154.2110 O   0  0  0  0  0  0  0  0  0  0  0  0
  162.0960  210.9630  155.5460 C   0  0  0  0  0  0  0  0  0  0  0  0
  163.1840  210.6900  156.0650 O   0  0  0  0  0  0  0  0  0  0  0  0
  160.9730  211.5010  156.4630 C   0  0  0  0  0  1  0  0  0  0  0  0
  161.1280  205.2970  153.9160 O   0  0  0  0  0  1  0  0  0  0  0  0
  160.6840  205.9460  152.7360 C   0  0  0  0  0  2  0  0  0  0  0  0
  2  5  1  6  0  0  0
  2  7  1  0  0  0  0
  4  6  1  0  0  0  0
  5  8  1  0  0  0  0
  6  1  1  1  0  0  0
  6 28  1  0  0  0  0
  7  3  1  1  0  0  0
  7  6  1  0  0  0  0
  8 17  1  6  0  0  0
  8  4  1  0  0  0  0
 10 12  1  0  0  0  0
 10 14  1  0  0  0  0
 11 16  1  0  0  0  0
 11 13  1  0  0  0  0
 12  9  1  1  0  0  0
 12  2  1  0  0  0  0
 13 10  2  0  0  0  0
 15 11  2  0  0  0  0
 16  9  2  0  0  0  0
 17 18  1  1  0  0  0
 17 20  1  0  0  0  0
 20 19  1  6  0  0  0
 20 21  1  0  0  0  0
 21 23  1  0  0  0  0
 21 22  2  0  0  0  0
 23 24  1  0  0  0  0
 24 25  2  0  0  0  0
 24 26  1  0  0  0  0
 28 27  1  0  0  0  0
M  END
>  <MODEL>
9

>  <REMARK>
 VINA RESULT:      -6.0      2.878      5.046
  Name = 
  7 active torsions:
  status: ('A' for Active; 'I' for Inactive)
    1  A    between atoms: C_1  and  C_11
    2  A    between atoms: C_1  and  C_27
    3  A    between atoms: C_3  and  C_11
    4  A    between atoms: C_3  and  O_28
    5  A    between atoms: C_6  and  O_28
    6  A    between atoms: N_10  and  C_13
    7  A    between atoms: C_20  and  C_21
                            x       y       z     vdW  Elec       q    Type
                         _______ _______ _______ _____ _____    ______ ____

>  <TORSDO>
F 7

$$$$
