=
 OpenBabel11052422443D

 31 33  0  0  1  0  0  0  0  0999 V2000
  161.1590  204.9310  149.2170 C   0  0  0  0  0  0  0  0  0  0  0  0
  160.9730  207.9010  151.4690 O   0  0  0  0  0  0  0  0  0  0  0  0
  161.1930  207.0890  150.3550 C   0  0  0  0  0  0  0  0  0  0  0  0
  161.6420  205.4360  148.0750 C   0  0  0  0  0  3  0  0  0  0  0  0
  161.7230  209.8220  150.2760 C   0  0  0  0  0  0  0  0  0  0  0  0
  160.7800  203.2250  149.3070 Cl  0  0  0  0  0  0  0  0  0  0  0  0
  161.9550  208.9910  149.1230 N   0  0  0  0  0  0  0  0  0  0  0  0
  161.2300  209.2810  151.4110 C   0  0  0  0  0  0  0  0  0  0  0  0
  160.9320  205.7850  150.3960 C   0  0  0  0  0  3  0  0  0  0  0  0
  161.7180  207.7130  149.1270 C   0  0  0  0  0  0  0  0  0  0  0  0
  162.0000  206.8900  147.9030 C   0  0  0  0  0  2  0  0  0  0  0  0
  160.9780  210.1180  152.6290 C   0  0  1  0  0  3  0  0  0  0  0  0
  159.0500  211.3400  154.2940 S   0  0  0  0  0  0  0  0  0  0  0  0
  159.5310  210.6320  152.6720 C   0  0  0  0  0  2  0  0  0  0  0  0
  160.7490  211.6390  154.8730 C   0  0  0  0  0  2  0  0  0  0  0  0
  162.9760  210.6030  155.2720 C   0  0  0  0  0  1  0  0  0  0  0  0
  161.3810  209.4080  153.8550 N   0  0  0  0  0  0  0  0  0  0  0  0
  161.5120  210.3160  155.0090 C   0  0  2  0  0  3  0  0  0  0  0  0
  160.4450  208.4720  154.1670 O   0  0  0  0  0  0  0  0  0  0  0  0
  161.1280  207.5200  154.9280 C   0  0  0  0  0  1  0  0  0  0  0  0
  162.0080  211.2860  150.1650 C   0  0  0  0  0  2  0  0  0  0  0  0
  161.7290  211.7430  148.8120 N   0  0  0  0  0  0  0  0  0  0  0  0
  162.7780  212.9760  146.9980 C   0  0  0  0  0  1  0  0  0  0  0  0
  163.0050  212.0780  148.2000 C   0  0  0  0  0  2  0  0  0  0  0  0
  160.9840  212.9850  148.9380 C   0  0  0  0  0  2  0  0  0  0  0  0
  160.3910  213.0770  150.3290 C   0  0  0  0  0  2  0  0  0  0  0  0
  159.0320  213.7380  150.2550 C   0  0  0  0  0  2  0  0  0  0  0  0
  158.6340  213.9110  148.8030 C   0  0  0  0  0  2  0  0  0  0  0  0
  157.3390  213.2260  148.5450 C   0  0  0  0  0  0  0  0  0  0  0  0
  157.2290  212.4410  147.5680 O   0  0  0  0  0  0  0  0  0  0  0  0
  156.2550  213.4420  149.3860 O   0  0  0  0  0  1  0  0  0  0  0  0
  1  6  1  0  0  0  0
  1  9  1  0  0  0  0
  3  9  2  0  0  0  0
  3  2  1  0  0  0  0
  4  1  2  0  0  0  0
  5  8  2  0  0  0  0
  7 10  2  0  0  0  0
  7  5  1  0  0  0  0
  8  2  1  0  0  0  0
 10  3  1  0  0  0  0
 11  4  1  0  0  0  0
 11 10  1  0  0  0  0
 12  8  1  6  0  0  0
 12 14  1  0  0  0  0
 12 17  1  0  0  0  0
 13 15  1  0  0  0  0
 14 13  1  0  0  0  0
 15 18  1  0  0  0  0
 17 19  1  0  0  0  0
 17 18  1  0  0  0  0
 18 16  1  6  0  0  0
 19 20  1  0  0  0  0
 21  5  1  0  0  0  0
 22 25  1  0  0  0  0
 22 21  1  0  0  0  0
 23 24  1  0  0  0  0
 24 22  1  0  0  0  0
 25 26  1  0  0  0  0
 27 26  1  0  0  0  0
 28 27  1  0  0  0  0
 29 28  1  0  0  0  0
 29 31  1  0  0  0  0
 30 29  2  0  0  0  0
M  END
>  <MODEL>
1

>  <REMARK>
 VINA RESULT:      -6.1      0.000      0.000
  Name = 
  10 active torsions:
  status: ('A' for Active; 'I' for Inactive)
    1  A    between atoms: C_1  and  C_24
    2  A    between atoms: C_5  and  C_21
    3  A    between atoms: C_6  and  C_7
    4  A    between atoms: C_6  and  C_19
    5  A    between atoms: C_7  and  N_9
    6  A    between atoms: N_9  and  C_22
    7  A    between atoms: N_9  and  C_23
    8  A    between atoms: C_15  and  C_23
    9  A    between atoms: O_17  and  N_30
   10  A    between atoms: C_19  and  C_24
                            x       y       z     vdW  Elec       q    Type
                         _______ _______ _______ _____ _____    ______ ____

>  <TORSDO>
F 10

$$$$
=
 OpenBabel11052422443D

 31 33  0  0  1  0  0  0  0  0999 V2000
  161.2930  205.6880  147.3550 C   0  0  0  0  0  0  0  0  0  0  0  0
  161.6670  209.3340  148.0610 O   0  0  0  0  0  0  0  0  0  0  0  0
  161.5690  207.9510  148.2250 C   0  0  1  0  0  3  0  0  0  0  0  0
  161.3720  205.1270  148.5670 C   0  0  0  0  0  3  0  0  0  0  0  0
  161.9590  209.6400  150.4040 C   0  0  0  0  0  0  0  0  0  0  0  0
  161.0800  204.6680  145.9500 Cl  0  0  0  0  0  0  0  0  0  0  0  0
  161.8560  208.2150  150.5840 N   0  0  0  0  0  0  0  0  0  0  0  0
  161.8790  210.1740  149.1660 C   0  0  0  0  0  0  0  0  0  0  0  0
  161.3900  207.1480  147.1790 C   0  0  0  0  0  3  0  0  0  0  0  0
  161.6750  207.4000  149.5880 C   0  0  0  0  0  0  0  0  0  0  0  0
  161.5520  205.9240  149.8350 C   0  0  0  0  0  3  0  0  0  0  0  0
  161.9810  211.6530  148.9460 C   0  0  1  0  0  3  0  0  0  0  0  0
  163.1010  213.7360  147.4010 S   0  0  0  0  0  0  0  0  0  0  0  0
  163.1430  212.0060  148.0060 C   0  0  0  0  0  2  0  0  0  0  0  0
  162.0170  214.3640  148.7200 C   0  0  0  0  0  2  0  0  0  0  0  0
  159.8440  214.0500  149.8920 C   0  0  0  0  0  1  0  0  0  0  0  0
  160.6900  212.2160  148.5150 N   0  0  0  0  0  0  0  0  0  0  0  0
  160.6450  213.6830  148.6600 C   0  0  2  0  0  3  0  0  0  0  0  0
  160.4820  211.9220  147.2040 O   0  0  0  0  0  0  0  0  0  0  0  0
  159.3230  212.6220  146.8580 C   0  0  0  0  0  1  0  0  0  0  0  0
  162.1880  210.4930  151.6120 C   0  0  0  0  0  2  0  0  0  0  0  0
  161.0750  210.3480  152.5380 N   0  0  0  0  0  0  0  0  0  0  0  0
  158.8350  211.2660  152.7750 C   0  0  0  0  0  1  0  0  0  0  0  0
  160.2880  211.5690  152.4580 C   0  0  0  0  0  2  0  0  0  0  0  0
  161.6490  210.3050  153.8730 C   0  0  0  0  0  2  0  0  0  0  0  0
  161.0800  209.1210  154.6270 C   0  0  0  0  0  2  0  0  0  0  0  0
  160.6190  208.0700  153.6420 C   0  0  0  0  0  2  0  0  0  0  0  0
  160.7170  206.7010  154.2840 C   0  0  0  0  0  2  0  0  0  0  0  0
  161.4830  205.7800  153.4020 C   0  0  0  0  0  0  0  0  0  0  0  0
  162.6310  206.1050  153.0030 O   0  0  0  0  0  0  0  0  0  0  0  0
  160.9390  204.5580  153.0270 O   0  0  0  0  0  1  0  0  0  0  0  0
  1  4  1  0  0  0  0
  2  3  1  0  0  0  0
  2  8  1  0  0  0  0
  3  9  1  6  0  0  0
  3 10  1  0  0  0  0
  4 11  2  0  0  0  0
  5  7  1  0  0  0  0
  5 21  1  0  0  0  0
  6  1  1  0  0  0  0
  8  5  2  0  0  0  0
  9  1  2  0  0  0  0
 10 11  1  0  0  0  0
 10  7  2  0  0  0  0
 12  8  1  6  0  0  0
 13 14  1  0  0  0  0
 13 15  1  0  0  0  0
 14 12  1  0  0  0  0
 17 18  1  0  0  0  0
 17 12  1  0  0  0  0
 18 15  1  0  0  0  0
 18 16  1  1  0  0  0
 19 17  1  0  0  0  0
 20 19  1  0  0  0  0
 21 22  1  0  0  0  0
 22 25  1  0  0  0  0
 24 22  1  0  0  0  0
 24 23  1  0  0  0  0
 25 26  1  0  0  0  0
 27 28  1  0  0  0  0
 27 26  1  0  0  0  0
 29 28  1  0  0  0  0
 30 29  2  0  0  0  0
 31 29  1  0  0  0  0
M  END
>  <MODEL>
2

>  <REMARK>
 VINA RESULT:      -6.0      2.416      6.048
  Name = 
  10 active torsions:
  status: ('A' for Active; 'I' for Inactive)
    1  A    between atoms: C_1  and  C_24
    2  A    between atoms: C_5  and  C_21
    3  A    between atoms: C_6  and  C_7
    4  A    between atoms: C_6  and  C_19
    5  A    between atoms: C_7  and  N_9
    6  A    between atoms: N_9  and  C_22
    7  A    between atoms: N_9  and  C_23
    8  A    between atoms: C_15  and  C_23
    9  A    between atoms: O_17  and  N_30
   10  A    between atoms: C_19  and  C_24
                            x       y       z     vdW  Elec       q    Type
                         _______ _______ _______ _____ _____    ______ ____

>  <TORSDO>
F 10

$$$$
=
 OpenBabel11052422443D

 31 33  0  0  1  0  0  0  0  0999 V2000
  162.1650  211.1430  149.3450 C   0  0  0  0  0  0  0  0  0  0  0  0
  161.4540  207.8540  147.7310 O   0  0  0  0  0  0  0  0  0  0  0  0
  161.7010  208.8390  148.6880 C   0  0  1  0  0  3  0  0  0  0  0  0
  162.2030  210.8480  150.6490 C   0  0  0  0  0  3  0  0  0  0  0  0
  161.2470  206.1920  149.4240 C   0  0  0  0  0  0  0  0  0  0  0  0
  162.4130  212.7980  148.8320 Cl  0  0  0  0  0  0  0  0  0  0  0  0
  161.5040  207.2010  150.4190 N   0  0  0  0  0  0  0  0  0  0  0  0
  161.2120  206.5250  148.1160 C   0  0  0  0  0  0  0  0  0  0  0  0
  161.9110  210.1040  148.3310 C   0  0  0  0  0  3  0  0  0  0  0  0
  161.7190  208.4450  150.1080 C   0  0  0  0  0  0  0  0  0  0  0  0
  162.0050  209.4520  151.1850 C   0  0  0  0  0  3  0  0  0  0  0  0
  160.9480  205.4980  147.0560 C   0  0  1  0  0  3  0  0  0  0  0  0
  160.6630  204.9780  144.2940 S   0  0  0  0  0  0  0  0  0  0  0  0
  160.6290  206.1500  145.7030 C   0  0  0  0  0  2  0  0  0  0  0  0
  160.4600  203.4760  145.3020 C   0  0  0  0  0  2  0  0  0  0  0  0
  161.3590  202.1800  147.2260 C   0  0  0  0  0  1  0  0  0  0  0  0
  162.0430  204.5140  146.9850 N   0  0  0  0  0  0  0  0  0  0  0  0
  161.6530  203.2990  146.2480 C   0  0  2  0  0  3  0  0  0  0  0  0
  163.1070  205.0650  146.3440 O   0  0  0  0  0  0  0  0  0  0  0  0
  163.9250  203.9830  146.0090 C   0  0  0  0  0  1  0  0  0  0  0  0
  160.9910  204.7910  149.8830 C   0  0  0  0  0  2  0  0  0  0  0  0
  161.6050  204.5780  151.1850 N   0  0  0  0  0  0  0  0  0  0  0  0
  160.7910  202.3240  150.7680 C   0  0  0  0  0  1  0  0  0  0  0  0
  161.9480  203.1670  151.2730 C   0  0  0  0  0  2  0  0  0  0  0  0
  160.5720  204.8220  152.1780 C   0  0  0  0  0  2  0  0  0  0  0  0
  161.2060  205.3690  153.4400 C   0  0  0  0  0  2  0  0  0  0  0  0
  160.8520  206.8330  153.5880 C   0  0  0  0  0  2  0  0  0  0  0  0
  160.4460  207.1100  155.0220 C   0  0  0  0  0  2  0  0  0  0  0  0
  161.2370  208.2470  155.5630 C   0  0  0  0  0  0  0  0  0  0  0  0
  161.2460  209.3490  154.9550 O   0  0  0  0  0  0  0  0  0  0  0  0
  161.9560  208.1000  156.7420 O   0  0  0  0  0  1  0  0  0  0  0  0
  1  4  1  0  0  0  0
  2  8  1  0  0  0  0
  2  3  1  0  0  0  0
  3  9  1  1  0  0  0
  3 10  1  0  0  0  0
  4 11  2  0  0  0  0
  5 21  1  0  0  0  0
  5  7  1  0  0  0  0
  6  1  1  0  0  0  0
  8  5  2  0  0  0  0
  9  1  2  0  0  0  0
 10  7  2  0  0  0  0
 10 11  1  0  0  0  0
 12  8  1  1  0  0  0
 13 15  1  0  0  0  0
 13 14  1  0  0  0  0
 14 12  1  0  0  0  0
 15 18  1  0  0  0  0
 17 12  1  0  0  0  0
 18 17  1  0  0  0  0
 18 16  1  1  0  0  0
 19 17  1  0  0  0  0
 20 19  1  0  0  0  0
 21 22  1  0  0  0  0
 22 24  1  0  0  0  0
 22 25  1  0  0  0  0
 23 24  1  0  0  0  0
 25 26  1  0  0  0  0
 26 27  1  0  0  0  0
 27 28  1  0  0  0  0
 28 29  1  0  0  0  0
 29 31  1  0  0  0  0
 30 29  2  0  0  0  0
M  END
>  <MODEL>
3

>  <REMARK>
 VINA RESULT:      -5.7      4.168      8.258
  Name = 
  10 active torsions:
  status: ('A' for Active; 'I' for Inactive)
    1  A    between atoms: C_1  and  C_24
    2  A    between atoms: C_5  and  C_21
    3  A    between atoms: C_6  and  C_7
    4  A    between atoms: C_6  and  C_19
    5  A    between atoms: C_7  and  N_9
    6  A    between atoms: N_9  and  C_22
    7  A    between atoms: N_9  and  C_23
    8  A    between atoms: C_15  and  C_23
    9  A    between atoms: O_17  and  N_30
   10  A    between atoms: C_19  and  C_24
                            x       y       z     vdW  Elec       q    Type
                         _______ _______ _______ _____ _____    ______ ____

>  <TORSDO>
F 10

$$$$
=
 OpenBabel11052422443D

 31 33  0  0  1  0  0  0  0  0999 V2000
  161.1790  213.0230  148.3490 C   0  0  0  0  0  0  0  0  0  0  0  0
  160.2600  212.1030  151.8480 O   0  0  0  0  0  0  0  0  0  0  0  0
  160.8230  212.0770  150.5700 C   0  0  0  0  0  0  0  0  0  0  0  0
  161.9780  212.0200  147.9640 C   0  0  0  0  0  3  0  0  0  0  0  0
  161.3380  210.0570  152.4160 C   0  0  0  0  0  0  0  0  0  0  0  0
  160.8490  214.3320  147.2370 Cl  0  0  0  0  0  0  0  0  0  0  0  0
  161.9210  210.0210  151.1000 N   0  0  0  0  0  0  0  0  0  0  0  0
  160.5400  211.0850  152.7750 C   0  0  0  0  0  0  0  0  0  0  0  0
  160.5780  213.0490  149.6950 C   0  0  0  0  0  3  0  0  0  0  0  0
  161.7010  210.9480  150.2160 C   0  0  0  0  0  0  0  0  0  0  0  0
  162.3170  210.8480  148.8500 C   0  0  0  0  0  2  0  0  0  0  0  0
  159.9170  211.1520  154.1360 C   0  0  1  0  0  3  0  0  0  0  0  0
  160.2090  211.9630  156.8270 S   0  0  0  0  0  0  0  0  0  0  0  0
  160.9520  211.5020  155.2150 C   0  0  0  0  0  2  0  0  0  0  0  0
  158.5980  211.1760  156.5160 C   0  0  0  0  0  2  0  0  0  0  0  0
  156.6710  211.0330  154.9480 C   0  0  0  0  0  1  0  0  0  0  0  0
  158.7450  212.0450  154.1420 N   0  0  0  0  0  0  0  0  0  0  0  0
  157.8940  211.8420  155.3280 C   0  0  2  0  0  3  0  0  0  0  0  0
  159.1600  213.3390  154.1450 O   0  0  0  0  0  0  0  0  0  0  0  0
  158.0770  214.0660  153.6460 C   0  0  0  0  0  1  0  0  0  0  0  0
  161.6700  208.9530  153.3700 C   0  0  0  0  0  2  0  0  0  0  0  0
  160.8490  207.7870  153.0810 N   0  0  0  0  0  0  0  0  0  0  0  0
  161.2300  207.8900  155.4800 C   0  0  0  0  0  1  0  0  0  0  0  0
  160.5070  207.1740  154.3550 C   0  0  0  0  0  2  0  0  0  0  0  0
  161.7010  206.8440  152.3760 C   0  0  0  0  0  2  0  0  0  0  0  0
  161.3060  205.4310  152.7510 C   0  0  0  0  0  2  0  0  0  0  0  0
  161.3000  204.5630  151.5120 C   0  0  0  0  0  2  0  0  0  0  0  0
  161.1480  205.4380  150.2840 C   0  0  0  0  0  2  0  0  0  0  0  0
  161.0090  204.5910  149.0690 C   0  0  0  0  0  0  0  0  0  0  0  0
  161.0730  205.1180  147.9280 O   0  0  0  0  0  0  0  0  0  0  0  0
  160.8210  203.2210  149.1910 O   0  0  0  0  0  1  0  0  0  0  0  0
  1  9  1  0  0  0  0
  2  8  1  0  0  0  0
  3  2  1  0  0  0  0
  4  1  2  0  0  0  0
  4 11  1  0  0  0  0
  5  8  2  0  0  0  0
  5 21  1  0  0  0  0
  6  1  1  0  0  0  0
  7  5  1  0  0  0  0
  9  3  2  0  0  0  0
 10  3  1  0  0  0  0
 10  7  2  0  0  0  0
 11 10  1  0  0  0  0
 12  8  1  6  0  0  0
 12 17  1  0  0  0  0
 12 14  1  0  0  0  0
 14 13  1  0  0  0  0
 15 13  1  0  0  0  0
 17 19  1  0  0  0  0
 17 18  1  0  0  0  0
 18 16  1  6  0  0  0
 18 15  1  0  0  0  0
 20 19  1  0  0  0  0
 22 21  1  0  0  0  0
 22 24  1  0  0  0  0
 24 23  1  0  0  0  0
 25 26  1  0  0  0  0
 25 22  1  0  0  0  0
 27 26  1  0  0  0  0
 28 27  1  0  0  0  0
 29 31  1  0  0  0  0
 29 28  1  0  0  0  0
 30 29  2  0  0  0  0
M  END
>  <MODEL>
4

>  <REMARK>
 VINA RESULT:      -5.5      3.197      6.583
  Name = 
  10 active torsions:
  status: ('A' for Active; 'I' for Inactive)
    1  A    between atoms: C_1  and  C_24
    2  A    between atoms: C_5  and  C_21
    3  A    between atoms: C_6  and  C_7
    4  A    between atoms: C_6  and  C_19
    5  A    between atoms: C_7  and  N_9
    6  A    between atoms: N_9  and  C_22
    7  A    between atoms: N_9  and  C_23
    8  A    between atoms: C_15  and  C_23
    9  A    between atoms: O_17  and  N_30
   10  A    between atoms: C_19  and  C_24
                            x       y       z     vdW  Elec       q    Type
                         _______ _______ _______ _____ _____    ______ ____

>  <TORSDO>
F 10

$$$$
=
 OpenBabel11052422443D

 31 33  0  0  1  0  0  0  0  0999 V2000
  161.4480  205.5480  147.8490 C   0  0  0  0  0  0  0  0  0  0  0  0
  161.8040  209.2400  148.2610 O   0  0  0  0  0  0  0  0  0  0  0  0
  161.6590  207.8790  148.5370 C   0  0  1  0  0  3  0  0  0  0  0  0
  161.3660  205.1010  149.1080 C   0  0  0  0  0  3  0  0  0  0  0  0
  161.8120  209.7600  150.5850 C   0  0  0  0  0  0  0  0  0  0  0  0
  161.3890  204.4030  146.5270 Cl  0  0  0  0  0  0  0  0  0  0  0  0
  161.6590  208.3580  150.8800 N   0  0  0  0  0  0  0  0  0  0  0  0
  161.8950  210.1770  149.3040 C   0  0  0  0  0  0  0  0  0  0  0  0
  161.5940  206.9850  147.5540 C   0  0  0  0  0  3  0  0  0  0  0  0
  161.5860  207.4560  149.9470 C   0  0  0  0  0  0  0  0  0  0  0  0
  161.4040  206.0110  150.3100 C   0  0  0  0  0  3  0  0  0  0  0  0
  162.0530  211.6290  148.9640 C   0  0  1  0  0  3  0  0  0  0  0  0
  163.1680  213.5310  147.1980 S   0  0  0  0  0  0  0  0  0  0  0  0
  163.1670  211.8500  147.9310 C   0  0  0  0  0  2  0  0  0  0  0  0
  162.2020  214.3100  148.5280 C   0  0  0  0  0  2  0  0  0  0  0  0
  160.0960  214.1970  149.8490 C   0  0  0  0  0  1  0  0  0  0  0  0
  160.7650  212.2250  148.5690 N   0  0  0  0  0  0  0  0  0  0  0  0
  160.7980  213.6980  148.6030 C   0  0  2  0  0  3  0  0  0  0  0  0
  160.4590  211.8460  147.2990 O   0  0  0  0  0  0  0  0  0  0  0  0
  159.3500  212.6200  146.9500 C   0  0  0  0  0  1  0  0  0  0  0  0
  161.9080  210.7190  151.7290 C   0  0  0  0  0  2  0  0  0  0  0  0
  160.7700  210.5430  152.6190 N   0  0  0  0  0  0  0  0  0  0  0  0
  158.5640  211.5430  152.8440 C   0  0  0  0  0  1  0  0  0  0  0  0
  160.0450  211.8040  152.6460 C   0  0  0  0  0  2  0  0  0  0  0  0
  161.3130  210.3420  153.9530 C   0  0  0  0  0  2  0  0  0  0  0  0
  160.6140  209.1680  154.6080 C   0  0  0  0  0  2  0  0  0  0  0  0
  160.2260  209.5390  156.0220 C   0  0  0  0  0  2  0  0  0  0  0  0
  160.6820  210.9530  156.3160 C   0  0  0  0  0  2  0  0  0  0  0  0
  159.5050  211.8580  156.4120 C   0  0  0  0  0  0  0  0  0  0  0  0
  158.3710  211.3830  156.6800 O   0  0  0  0  0  1  0  0  0  0  0  0
  159.6560  213.2250  156.2180 O   0  0  0  0  0  0  0  0  0  0  0  0
  1  4  1  0  0  0  0
  2  3  1  0  0  0  0
  2  8  1  0  0  0  0
  3  9  1  1  0  0  0
  3 10  1  0  0  0  0
  4 11  2  0  0  0  0
  5  7  1  0  0  0  0
  5 21  1  0  0  0  0
  6  1  1  0  0  0  0
  8  5  2  0  0  0  0
  9  1  2  0  0  0  0
 10 11  1  0  0  0  0
 10  7  2  0  0  0  0
 12  8  1  6  0  0  0
 13 14  1  0  0  0  0
 13 15  1  0  0  0  0
 14 12  1  0  0  0  0
 15 18  1  0  0  0  0
 17 18  1  0  0  0  0
 17 12  1  0  0  0  0
 18 16  1  1  0  0  0
 19 17  1  0  0  0  0
 20 19  1  0  0  0  0
 21 22  1  0  0  0  0
 22 24  1  0  0  0  0
 22 25  1  0  0  0  0
 24 23  1  0  0  0  0
 25 26  1  0  0  0  0
 26 27  1  0  0  0  0
 27 28  1  0  0  0  0
 28 29  1  0  0  0  0
 29 30  1  0  0  0  0
 31 29  2  0  0  0  0
M  END
>  <MODEL>
5

>  <REMARK>
 VINA RESULT:      -5.5      2.502      5.753
  Name = 
  10 active torsions:
  status: ('A' for Active; 'I' for Inactive)
    1  A    between atoms: C_1  and  C_24
    2  A    between atoms: C_5  and  C_21
    3  A    between atoms: C_6  and  C_7
    4  A    between atoms: C_6  and  C_19
    5  A    between atoms: C_7  and  N_9
    6  A    between atoms: N_9  and  C_22
    7  A    between atoms: N_9  and  C_23
    8  A    between atoms: C_15  and  C_23
    9  A    between atoms: O_17  and  N_30
   10  A    between atoms: C_19  and  C_24
                            x       y       z     vdW  Elec       q    Type
                         _______ _______ _______ _____ _____    ______ ____

>  <TORSDO>
F 10

$$$$
=
 OpenBabel11052422443D

 31 33  0  0  1  0  0  0  0  0999 V2000
  160.7940  208.6590  153.3070 C   0  0  0  0  0  0  0  0  0  0  0  0
  161.0390  206.9920  149.9770 O   0  0  0  0  0  0  0  0  0  0  0  0
  161.0140  207.2110  151.3560 C   0  0  1  0  0  3  0  0  0  0  0  0
  160.9620  207.6520  154.1720 C   0  0  0  0  0  3  0  0  0  0  0  0
  161.3930  204.6600  150.3050 C   0  0  0  0  0  0  0  0  0  0  0  0
  160.5210  210.2760  153.9170 Cl  0  0  0  0  0  0  0  0  0  0  0  0
  161.3720  204.8770  151.7290 N   0  0  0  0  0  0  0  0  0  0  0  0
  161.2160  205.6980  149.4600 C   0  0  0  0  0  0  0  0  0  0  0  0
  160.8260  208.4320  151.8510 C   0  0  0  0  0  3  0  0  0  0  0  0
  161.1970  206.0550  152.2500 C   0  0  0  0  0  0  0  0  0  0  0  0
  161.2060  206.2270  153.7420 C   0  0  0  0  0  3  0  0  0  0  0  0
  161.2340  205.5060  147.9740 C   0  0  1  0  0  3  0  0  0  0  0  0
  160.0790  206.2020  145.4910 S   0  0  0  0  0  0  0  0  0  0  0  0
  159.9640  206.0660  147.3160 C   0  0  0  0  0  2  0  0  0  0  0  0
  161.4470  205.0160  145.3060 C   0  0  0  0  0  2  0  0  0  0  0  0
  163.7510  204.4340  146.0440 C   0  0  0  0  0  1  0  0  0  0  0  0
  162.4770  206.0330  147.3840 N   0  0  0  0  0  0  0  0  0  0  0  0
  162.7040  205.5290  146.0180 C   0  0  2  0  0  3  0  0  0  0  0  0
  162.4090  207.3890  147.3210 O   0  0  0  0  0  0  0  0  0  0  0  0
  163.2480  207.8400  148.3430 C   0  0  0  0  0  1  0  0  0  0  0  0
  161.5810  203.2630  149.8030 C   0  0  0  0  0  2  0  0  0  0  0  0
  160.4070  202.4630  150.1180 N   0  0  0  0  0  0  0  0  0  0  0  0
  162.1220  201.9170  151.7540 C   0  0  0  0  0  1  0  0  0  0  0  0
  160.8050  201.4970  151.1300 C   0  0  0  0  0  2  0  0  0  0  0  0
  160.0860  201.7070  148.9190 C   0  0  0  0  0  2  0  0  0  0  0  0
  161.1980  200.7190  148.6330 C   0  0  0  0  0  2  0  0  0  0  0  0
  161.4130  200.6210  147.1390 C   0  0  0  0  0  2  0  0  0  0  0  0
  160.8350  201.8480  146.4650 C   0  0  0  0  0  2  0  0  0  0  0  0
  160.0840  201.4520  145.2430 C   0  0  0  0  0  0  0  0  0  0  0  0
  160.0750  200.2470  144.8770 O   0  0  0  0  0  1  0  0  0  0  0  0
  159.3860  202.4040  144.5120 O   0  0  0  0  0  0  0  0  0  0  0  0
  1  6  1  0  0  0  0
  1  4  1  0  0  0  0
  2  3  1  0  0  0  0
  3  9  1  1  0  0  0
  3 10  1  0  0  0  0
  5  7  1  0  0  0  0
  7 10  2  0  0  0  0
  8  2  1  0  0  0  0
  8  5  2  0  0  0  0
  9  1  2  0  0  0  0
 10 11  1  0  0  0  0
 11  4  2  0  0  0  0
 12  8  1  1  0  0  0
 13 14  1  0  0  0  0
 14 12  1  0  0  0  0
 15 13  1  0  0  0  0
 15 18  1  0  0  0  0
 17 12  1  0  0  0  0
 18 16  1  1  0  0  0
 18 17  1  0  0  0  0
 19 17  1  0  0  0  0
 19 20  1  0  0  0  0
 21 22  1  0  0  0  0
 21  5  1  0  0  0  0
 22 24  1  0  0  0  0
 24 23  1  0  0  0  0
 25 22  1  0  0  0  0
 26 25  1  0  0  0  0
 27 26  1  0  0  0  0
 28 27  1  0  0  0  0
 29 28  1  0  0  0  0
 30 29  1  0  0  0  0
 31 29  2  0  0  0  0
M  END
>  <MODEL>
6

>  <REMARK>
 VINA RESULT:      -5.2      4.670      9.014
  Name = 
  10 active torsions:
  status: ('A' for Active; 'I' for Inactive)
    1  A    between atoms: C_1  and  C_24
    2  A    between atoms: C_5  and  C_21
    3  A    between atoms: C_6  and  C_7
    4  A    between atoms: C_6  and  C_19
    5  A    between atoms: C_7  and  N_9
    6  A    between atoms: N_9  and  C_22
    7  A    between atoms: N_9  and  C_23
    8  A    between atoms: C_15  and  C_23
    9  A    between atoms: O_17  and  N_30
   10  A    between atoms: C_19  and  C_24
                            x       y       z     vdW  Elec       q    Type
                         _______ _______ _______ _____ _____    ______ ____

>  <TORSDO>
F 10

$$$$
=
 OpenBabel11052422443D

 31 33  0  0  1  0  0  0  0  0999 V2000
  161.1050  209.8440  154.5330 C   0  0  0  0  0  0  0  0  0  0  0  0
  161.5350  211.0110  151.0150 O   0  0  0  0  0  0  0  0  0  0  0  0
  161.4310  210.1920  152.1410 C   0  0  1  0  0  3  0  0  0  0  0  0
  161.2170  208.5140  154.4360 C   0  0  0  0  0  3  0  0  0  0  0  0
  161.8560  209.1170  149.6070 C   0  0  0  0  0  0  0  0  0  0  0  0
  160.8060  210.5670  156.0990 Cl  0  0  0  0  0  0  0  0  0  0  0  0
  161.7530  208.2640  150.7630 N   0  0  0  0  0  0  0  0  0  0  0  0
  161.7350  210.4560  149.7400 C   0  0  0  0  0  0  0  0  0  0  0  0
  161.2210  210.7110  153.3480 C   0  0  0  0  0  3  0  0  0  0  0  0
  161.5540  208.7350  151.9580 C   0  0  0  0  0  0  0  0  0  0  0  0
  161.4770  207.8020  153.1320 C   0  0  0  0  0  3  0  0  0  0  0  0
  161.8380  211.3700  148.5570 C   0  0  1  0  0  3  0  0  0  0  0  0
  160.6480  212.2670  146.1570 S   0  0  0  0  0  0  0  0  0  0  0  0
  160.8370  210.9880  147.4570 C   0  0  0  0  0  2  0  0  0  0  0  0
  162.2220  213.1110  146.5020 C   0  0  0  0  0  2  0  0  0  0  0  0
  163.6080  214.1970  148.2610 C   0  0  0  0  0  1  0  0  0  0  0  0
  161.7440  212.7820  148.9670 N   0  0  0  0  0  0  0  0  0  0  0  0
  162.2190  213.7010  147.9170 C   0  0  2  0  0  3  0  0  0  0  0  0
  160.4470  213.0910  149.2340 O   0  0  0  0  0  0  0  0  0  0  0  0
  160.5070  214.2450  150.0200 C   0  0  0  0  0  1  0  0  0  0  0  0
  162.0640  208.4780  148.2700 C   0  0  0  0  0  2  0  0  0  0  0  0
  161.9690  207.0320  148.3930 N   0  0  0  0  0  0  0  0  0  0  0  0
  161.7430  205.8410  146.2850 C   0  0  0  0  0  1  0  0  0  0  0  0
  162.7080  206.4560  147.2810 C   0  0  0  0  0  2  0  0  0  0  0  0
  160.5710  206.6890  148.1910 C   0  0  0  0  0  2  0  0  0  0  0  0
  160.0810  205.8620  149.3620 C   0  0  0  0  0  2  0  0  0  0  0  0
  161.2000  204.9700  149.8520 C   0  0  0  0  0  2  0  0  0  0  0  0
  160.6150  203.6890  150.4120 C   0  0  0  0  0  2  0  0  0  0  0  0
  160.7520  202.5900  149.4190 C   0  0  0  0  0  0  0  0  0  0  0  0
  160.4270  201.4160  149.7350 O   0  0  0  0  0  1  0  0  0  0  0  0
  161.2270  202.8580  148.1420 O   0  0  0  0  0  0  0  0  0  0  0  0
  1  6  1  0  0  0  0
  2  3  1  0  0  0  0
  3  9  1  6  0  0  0
  4  1  1  0  0  0  0
  5  8  2  0  0  0  0
  5  7  1  0  0  0  0
  7 10  2  0  0  0  0
  8  2  1  0  0  0  0
  9  1  2  0  0  0  0
 10  3  1  0  0  0  0
 10 11  1  0  0  0  0
 11  4  2  0  0  0  0
 12 17  1  0  0  0  0
 12  8  1  1  0  0  0
 13 15  1  0  0  0  0
 13 14  1  0  0  0  0
 14 12  1  0  0  0  0
 15 18  1  0  0  0  0
 17 19  1  0  0  0  0
 18 16  1  1  0  0  0
 18 17  1  0  0  0  0
 19 20  1  0  0  0  0
 21 22  1  0  0  0  0
 21  5  1  0  0  0  0
 23 24  1  0  0  0  0
 24 22  1  0  0  0  0
 25 22  1  0  0  0  0
 25 26  1  0  0  0  0
 26 27  1  0  0  0  0
 27 28  1  0  0  0  0
 29 30  1  0  0  0  0
 29 28  1  0  0  0  0
 31 29  2  0  0  0  0
M  END
>  <MODEL>
7

>  <REMARK>
 VINA RESULT:      -4.4      3.253      7.134
  Name = 
  10 active torsions:
  status: ('A' for Active; 'I' for Inactive)
    1  A    between atoms: C_1  and  C_24
    2  A    between atoms: C_5  and  C_21
    3  A    between atoms: C_6  and  C_7
    4  A    between atoms: C_6  and  C_19
    5  A    between atoms: C_7  and  N_9
    6  A    between atoms: N_9  and  C_22
    7  A    between atoms: N_9  and  C_23
    8  A    between atoms: C_15  and  C_23
    9  A    between atoms: O_17  and  N_30
   10  A    between atoms: C_19  and  C_24
                            x       y       z     vdW  Elec       q    Type
                         _______ _______ _______ _____ _____    ______ ____

>  <TORSDO>
F 10

$$$$
=
 OpenBabel11052422443D

 31 33  0  0  1  0  0  0  0  0999 V2000
  162.1470  212.0670  148.4010 C   0  0  0  0  0  0  0  0  0  0  0  0
  161.9830  208.3400  148.2780 O   0  0  0  0  0  0  0  0  0  0  0  0
  161.9380  209.6590  148.7350 C   0  0  1  0  0  3  0  0  0  0  0  0
  161.8440  212.3500  149.6730 C   0  0  0  0  0  3  0  0  0  0  0  0
  161.3780  207.5230  150.4310 C   0  0  0  0  0  0  0  0  0  0  0  0
  162.4760  213.3750  147.2870 Cl  0  0  0  0  0  0  0  0  0  0  0  0
  161.3330  208.8800  150.9120 N   0  0  0  0  0  0  0  0  0  0  0  0
  161.6830  207.2730  149.1400 C   0  0  0  0  0  0  0  0  0  0  0  0
  162.2010  210.6760  147.9170 C   0  0  0  0  0  3  0  0  0  0  0  0
  161.5880  209.8980  150.1460 C   0  0  0  0  0  0  0  0  0  0  0  0
  161.5490  211.2910  150.7060 C   0  0  0  0  0  3  0  0  0  0  0  0
  161.7400  205.8720  148.6080 C   0  0  1  0  0  3  0  0  0  0  0  0
  160.4580  203.3600  148.4380 S   0  0  0  0  0  0  0  0  0  0  0  0
  160.7000  204.9680  149.2860 C   0  0  0  0  0  2  0  0  0  0  0  0
  162.0410  203.3880  147.5410 C   0  0  0  0  0  2  0  0  0  0  0  0
  163.4860  204.7050  146.0010 C   0  0  0  0  0  1  0  0  0  0  0  0
  161.6540  205.8590  147.1380 N   0  0  0  0  0  0  0  0  0  0  0  0
  162.0870  204.5700  146.5660 C   0  0  2  0  0  3  0  0  0  0  0  0
  160.3670  206.0710  146.7550 O   0  0  0  0  0  0  0  0  0  0  0  0
  160.4220  206.2080  145.3660 C   0  0  0  0  0  1  0  0  0  0  0  0
  161.0470  206.4200  151.3860 C   0  0  0  0  0  2  0  0  0  0  0  0
  161.5920  206.7240  152.7010 N   0  0  0  0  0  0  0  0  0  0  0  0
  161.2070  204.3250  152.5940 C   0  0  0  0  0  1  0  0  0  0  0  0
  161.8780  205.4550  153.3520 C   0  0  0  0  0  2  0  0  0  0  0  0
  160.5230  207.3540  153.4580 C   0  0  0  0  0  2  0  0  0  0  0  0
  160.8110  207.2230  154.9390 C   0  0  0  0  0  2  0  0  0  0  0  0
  160.4810  208.5260  155.6340 C   0  0  0  0  0  2  0  0  0  0  0  0
  160.2340  209.6020  154.5950 C   0  0  0  0  0  2  0  0  0  0  0  0
  161.1130  210.7730  154.8570 C   0  0  0  0  0  0  0  0  0  0  0  0
  162.3410  210.7070  154.5910 O   0  0  0  0  0  0  0  0  0  0  0  0
  160.5800  211.9420  155.3850 O   0  0  0  0  0  1  0  0  0  0  0  0
  1  4  1  0  0  0  0
  2  3  1  0  0  0  0
  2  8  1  0  0  0  0
  3  9  1  6  0  0  0
  3 10  1  0  0  0  0
  4 11  2  0  0  0  0
  5  7  1  0  0  0  0
  5 21  1  0  0  0  0
  6  1  1  0  0  0  0
  8  5  2  0  0  0  0
  9  1  2  0  0  0  0
 10 11  1  0  0  0  0
 10  7  2  0  0  0  0
 12  8  1  1  0  0  0
 12 14  1  0  0  0  0
 13 14  1  0  0  0  0
 15 13  1  0  0  0  0
 17 12  1  0  0  0  0
 18 16  1  1  0  0  0
 18 17  1  0  0  0  0
 18 15  1  0  0  0  0
 19 17  1  0  0  0  0
 20 19  1  0  0  0  0
 21 22  1  0  0  0  0
 22 24  1  0  0  0  0
 22 25  1  0  0  0  0
 23 24  1  0  0  0  0
 25 26  1  0  0  0  0
 26 27  1  0  0  0  0
 28 29  1  0  0  0  0
 28 27  1  0  0  0  0
 29 31  1  0  0  0  0
 30 29  2  0  0  0  0
M  END
>  <MODEL>
8

>  <REMARK>
 VINA RESULT:      -4.0      3.718      7.452
  Name = 
  10 active torsions:
  status: ('A' for Active; 'I' for Inactive)
    1  A    between atoms: C_1  and  C_24
    2  A    between atoms: C_5  and  C_21
    3  A    between atoms: C_6  and  C_7
    4  A    between atoms: C_6  and  C_19
    5  A    between atoms: C_7  and  N_9
    6  A    between atoms: N_9  and  C_22
    7  A    between atoms: N_9  and  C_23
    8  A    between atoms: C_15  and  C_23
    9  A    between atoms: O_17  and  N_30
   10  A    between atoms: C_19  and  C_24
                            x       y       z     vdW  Elec       q    Type
                         _______ _______ _______ _____ _____    ______ ____

>  <TORSDO>
F 10

$$$$
=
 OpenBabel11052422443D

 31 33  0  0  1  0  0  0  0  0999 V2000
  162.0210  213.0250  147.7710 C   0  0  0  0  0  0  0  0  0  0  0  0
  161.3690  210.7130  150.6280 O   0  0  0  0  0  0  0  0  0  0  0  0
  161.3480  211.8280  149.7880 C   0  0  0  0  0  0  0  0  0  0  0  0
  161.2970  214.1080  148.0760 C   0  0  0  0  0  3  0  0  0  0  0  0
  159.8670  211.7670  152.1460 C   0  0  0  0  0  0  0  0  0  0  0  0
  162.9440  213.0010  146.2850 Cl  0  0  0  0  0  0  0  0  0  0  0  0
  159.8410  212.9230  151.2870 N   0  0  0  0  0  0  0  0  0  0  0  0
  160.6070  210.6890  151.8070 C   0  0  0  0  0  0  0  0  0  0  0  0
  162.0520  211.8490  148.6590 C   0  0  0  0  0  3  0  0  0  0  0  0
  160.5200  212.9820  150.1800 C   0  0  0  0  0  0  0  0  0  0  0  0
  160.4730  214.2220  149.3340 C   0  0  0  0  0  2  0  0  0  0  0  0
  160.6560  209.4710  152.6790 C   0  0  1  0  0  3  0  0  0  0  0  0
  161.8810  206.9740  153.1780 S   0  0  0  0  0  0  0  0  0  0  0  0
  161.4670  208.3410  152.0280 C   0  0  0  0  0  2  0  0  0  0  0  0
  160.5810  207.3580  154.3920 C   0  0  0  0  0  2  0  0  0  0  0  0
  159.6080  209.1320  155.8410 C   0  0  0  0  0  1  0  0  0  0  0  0
  161.1140  209.8090  154.0380 N   0  0  0  0  0  0  0  0  0  0  0  0
  160.8130  208.7420  155.0090 C   0  0  2  0  0  3  0  0  0  0  0  0
  162.4610  209.9950  154.0300 O   0  0  0  0  0  0  0  0  0  0  0  0
  162.7730  210.4180  155.3250 C   0  0  0  0  0  1  0  0  0  0  0  0
  159.0350  211.7870  153.3890 C   0  0  0  0  0  2  0  0  0  0  0  0
  159.2590  213.0280  154.1140 N   0  0  0  0  0  0  0  0  0  0  0  0
  160.0840  213.1370  156.3990 C   0  0  0  0  0  1  0  0  0  0  0  0
  158.9110  212.7830  155.5050 C   0  0  0  0  0  2  0  0  0  0  0  0
  158.2940  213.9880  153.6020 C   0  0  0  0  0  2  0  0  0  0  0  0
  157.0110  213.2690  153.2420 C   0  0  0  0  0  2  0  0  0  0  0  0
  156.2230  214.1060  152.2590 C   0  0  0  0  0  2  0  0  0  0  0  0
  157.0920  214.4250  151.0590 C   0  0  0  0  0  2  0  0  0  0  0  0
  156.5340  213.7790  149.8410 C   0  0  0  0  0  0  0  0  0  0  0  0
  156.8940  212.6140  149.5290 O   0  0  0  0  0  1  0  0  0  0  0  0
  155.6100  214.4520  149.0530 O   0  0  0  0  0  0  0  0  0  0  0  0
  1  4  2  0  0  0  0
  1  9  1  0  0  0  0
  2  8  1  0  0  0  0
  3 10  1  0  0  0  0
  3  2  1  0  0  0  0
  4 11  1  0  0  0  0
  5 21  1  0  0  0  0
  6  1  1  0  0  0  0
  7  5  1  0  0  0  0
  8  5  2  0  0  0  0
  9  3  2  0  0  0  0
 10  7  2  0  0  0  0
 11 10  1  0  0  0  0
 12  8  1  6  0  0  0
 12 17  1  0  0  0  0
 13 15  1  0  0  0  0
 14 12  1  0  0  0  0
 14 13  1  0  0  0  0
 15 18  1  0  0  0  0
 17 18  1  0  0  0  0
 18 16  1  6  0  0  0
 19 17  1  0  0  0  0
 19 20  1  0  0  0  0
 21 22  1  0  0  0  0
 22 24  1  0  0  0  0
 24 23  1  0  0  0  0
 25 22  1  0  0  0  0
 26 25  1  0  0  0  0
 27 26  1  0  0  0  0
 28 27  1  0  0  0  0
 29 28  1  0  0  0  0
 30 29  1  0  0  0  0
 31 29  2  0  0  0  0
M  END
>  <MODEL>
9

>  <REMARK>
 VINA RESULT:      -3.4      3.159      5.215
  Name = 
  10 active torsions:
  status: ('A' for Active; 'I' for Inactive)
    1  A    between atoms: C_1  and  C_24
    2  A    between atoms: C_5  and  C_21
    3  A    between atoms: C_6  and  C_7
    4  A    between atoms: C_6  and  C_19
    5  A    between atoms: C_7  and  N_9
    6  A    between atoms: N_9  and  C_22
    7  A    between atoms: N_9  and  C_23
    8  A    between atoms: C_15  and  C_23
    9  A    between atoms: O_17  and  N_30
   10  A    between atoms: C_19  and  C_24
                            x       y       z     vdW  Elec       q    Type
                         _______ _______ _______ _____ _____    ______ ____

>  <TORSDO>
F 10

$$$$
