=
 OpenBabel11062408063D

 34 38  0  0  1  0  0  0  0  0999 V2000
  160.6860  202.4500  148.4500 C   0  0  0  0  0  0  0  0  0  0  0  0
  161.5790  203.7280  146.5710 C   0  0  0  0  0  0  0  0  0  0  0  0
  161.0850  204.8410  148.6790 C   0  0  0  0  0  0  0  0  0  0  0  0
  161.3110  207.3270  148.8100 N   0  0  0  0  0  0  0  0  0  0  0  0
  161.2440  201.3350  146.3720 C   0  0  0  0  0  3  0  0  0  0  0  0
  161.6350  202.5570  145.8110 C   0  0  0  0  0  3  0  0  0  0  0  0
  161.8910  206.1520  146.6860 C   0  0  0  0  0  3  0  0  0  0  0  0
  161.1340  203.6710  147.9060 C   0  0  0  0  0  0  0  0  0  0  0  0
  163.0920  208.5840  147.9560 O   0  0  0  0  0  0  0  0  0  0  0  0
  160.7620  201.2820  147.6850 C   0  0  0  0  0  3  0  0  0  0  0  0
  160.4900  204.8160  149.9480 C   0  0  0  0  0  0  0  0  0  0  0  0
  160.1460  202.4200  149.7390 C   0  0  0  0  0  3  0  0  0  0  0  0
  161.8500  205.0370  145.9460 C   0  0  0  0  0  3  0  0  0  0  0  0
  160.1970  207.3020  149.7620 C   0  0  0  0  0  2  0  0  0  0  0  0
  160.2880  206.0940  150.7050 C   0  0  2  0  0  3  0  0  0  0  0  0
  162.0290  208.5590  148.6370 C   0  0  0  0  0  0  0  0  0  0  0  0
  161.8010  206.0830  148.1910 C   0  0  2  0  0  3  0  0  0  0  0  0
  160.0320  203.6040  150.4790 C   0  0  0  0  0  3  0  0  0  0  0  0
  162.5210  205.5780  151.8070 C   0  0  0  0  0  0  0  0  0  0  0  0
  163.5990  206.1940  151.6010 O   0  0  0  0  0  0  0  0  0  0  0  0
  161.2700  206.2870  151.7740 N   0  0  0  0  0  0  0  0  0  0  0  0
  162.5710  203.8350  152.2100 S   0  0  0  0  0  1  0  0  0  0  0  0
  161.6420  208.5900  152.5550 C   0  0  0  0  0  1  0  0  0  0  0  0
  161.2830  206.7410  154.1880 C   0  0  0  0  0  1  0  0  0  0  0  0
  160.9390  207.2680  152.8050 C   0  0  0  0  0  3  0  0  0  0  0  0
  161.5540  209.7260  149.2390 O   0  0  0  0  0  0  0  0  0  0  0  0
  162.3390  210.9080  149.3090 C   0  0  0  0  0  2  0  0  0  0  0  0
  160.2670  212.9840  150.0230 C   0  0  0  0  0  1  0  0  0  0  0  0
  161.8210  211.9370  148.3150 C   0  0  1  0  0  3  0  0  0  0  0  0
  161.3820  213.2420  149.0250 C   0  0  1  0  0  3  0  0  0  0  0  0
  161.9700  214.4350  147.1750 C   0  0  0  0  0  2  0  0  0  0  0  0
  162.3570  213.1410  146.4570 C   0  0  0  0  0  2  0  0  0  0  0  0
  162.8540  212.2200  147.3970 O   0  0  0  0  0  0  0  0  0  0  0  0
  160.9190  214.1740  148.0740 O   0  0  0  0  0  0  0  0  0  0  0  0
  1 12  1  0  0  0  0
  2  8  1  0  0  0  0
  3 11  2  0  0  0  0
  4 14  1  0  0  0  0
  5 10  2  0  0  0  0
  6  5  1  0  0  0  0
  6  2  2  0  0  0  0
  8  1  2  0  0  0  0
  8  3  1  0  0  0  0
  9 16  2  0  0  0  0
 10  1  1  0  0  0  0
 11 18  1  0  0  0  0
 11 15  1  0  0  0  0
 12 18  2  0  0  0  0
 13  2  1  0  0  0  0
 13  7  2  0  0  0  0
 14 15  1  0  0  0  0
 15 21  1  1  0  0  0
 16  4  1  0  0  0  0
 16 26  1  0  0  0  0
 17  7  1  6  0  0  0
 17  3  1  0  0  0  0
 17  4  1  0  0  0  0
 19 22  1  0  0  0  0
 20 19  2  0  0  0  0
 21 19  1  0  0  0  0
 21 25  1  0  0  0  0
 23 25  1  0  0  0  0
 25 24  1  0  0  0  0
 26 27  1  0  0  0  0
 29 30  1  0  0  0  0
 29 27  1  1  0  0  0
 30 28  1  1  0  0  0
 31 34  1  0  0  0  0
 32 31  1  0  0  0  0
 32 33  1  0  0  0  0
 33 29  1  0  0  0  0
 34 30  1  0  0  0  0
M  END
>  <MODEL>
1

>  <REMARK>
 VINA RESULT:      -5.1      0.000      0.000
  Name = 
  5 active torsions:
  status: ('A' for Active; 'I' for Inactive)
    1  A    between atoms: C_3  and  C_13
    2  A    between atoms: C_3  and  O_17
    3  A    between atoms: O_17  and  C_29
    4  A    between atoms: N_23  and  C_27
    5  A    between atoms: N_23  and  C_28
                            x       y       z     vdW  Elec       q    Type
                         _______ _______ _______ _____ _____    ______ ____

>  <TORSDO>
F 5

$$$$
=
 OpenBabel11062408063D

 34 38  0  0  1  0  0  0  0  0999 V2000
  160.5360  208.1530  154.9200 C   0  0  0  0  0  0  0  0  0  0  0  0
  160.5850  210.1100  153.4610 C   0  0  0  0  0  0  0  0  0  0  0  0
  161.2770  207.9360  152.6100 C   0  0  0  0  0  0  0  0  0  0  0  0
  162.2250  207.7920  150.3030 N   0  0  0  0  0  0  0  0  0  0  0  0
  159.7840  210.3050  155.7410 C   0  0  0  0  0  3  0  0  0  0  0  0
  160.0830  210.8910  154.5050 C   0  0  0  0  0  3  0  0  0  0  0  0
  161.4320  209.9940  151.1680 C   0  0  0  0  0  3  0  0  0  0  0  0
  160.7830  208.7300  153.6570 C   0  0  0  0  0  0  0  0  0  0  0  0
  161.3610  208.8490  148.4010 O   0  0  0  0  0  0  0  0  0  0  0  0
  160.0180  208.9420  155.9510 C   0  0  0  0  0  3  0  0  0  0  0  0
  161.6290  206.6000  152.8520 C   0  0  0  0  0  0  0  0  0  0  0  0
  160.8360  206.8050  155.1390 C   0  0  0  0  0  3  0  0  0  0  0  0
  161.0380  210.7420  152.2060 C   0  0  0  0  0  3  0  0  0  0  0  0
  163.0710  206.7030  150.8000 C   0  0  0  0  0  2  0  0  0  0  0  0
  162.3090  205.8010  151.7820 C   0  0  2  0  0  3  0  0  0  0  0  0
  162.1950  208.0360  148.8870 C   0  0  0  0  0  0  0  0  0  0  0  0
  161.2920  208.4920  151.2020 C   0  0  2  0  0  3  0  0  0  0  0  0
  161.3970  206.0350  154.1120 C   0  0  0  0  0  3  0  0  0  0  0  0
  160.9190  203.6730  151.7390 C   0  0  0  0  0  0  0  0  0  0  0  0
  159.7060  203.5830  152.0630 O   0  0  0  0  0  0  0  0  0  0  0  0
  161.4080  204.8670  151.1040 N   0  0  0  0  0  0  0  0  0  0  0  0
  162.0040  202.2750  152.0110 S   0  0  0  0  0  1  0  0  0  0  0  0
  159.7030  206.0200  149.7580 C   0  0  0  0  0  1  0  0  0  0  0  0
  160.8330  203.9750  148.8890 C   0  0  0  0  0  1  0  0  0  0  0  0
  160.9910  205.2180  149.7490 C   0  0  0  0  0  3  0  0  0  0  0  0
  163.0810  207.3560  148.0500 O   0  0  0  0  0  0  0  0  0  0  0  0
  162.8910  205.9920  147.7020 C   0  0  0  0  0  2  0  0  0  0  0  0
  163.8380  204.0050  145.6360 C   0  0  0  0  0  1  0  0  0  0  0  0
  162.2800  205.8890  146.3120 C   0  0  1  0  0  3  0  0  0  0  0  0
  162.3890  204.4500  145.7490 C   0  0  1  0  0  3  0  0  0  0  0  0
  160.4560  204.7670  144.5880 C   0  0  0  0  0  2  0  0  0  0  0  0
  160.3750  206.2040  145.1050 C   0  0  0  0  0  2  0  0  0  0  0  0
  160.9240  206.2630  146.3990 O   0  0  0  0  0  0  0  0  0  0  0  0
  161.8060  204.3890  144.4670 O   0  0  0  0  0  0  0  0  0  0  0  0
  1 12  1  0  0  0  0
  1 10  2  0  0  0  0
  2  8  2  0  0  0  0
  2  6  1  0  0  0  0
  3 11  2  0  0  0  0
  3  8  1  0  0  0  0
  4 14  1  0  0  0  0
  4 17  1  0  0  0  0
  5 10  1  0  0  0  0
  6  5  2  0  0  0  0
  7 13  2  0  0  0  0
  8  1  1  0  0  0  0
  9 16  2  0  0  0  0
 11 18  1  0  0  0  0
 13  2  1  0  0  0  0
 14 15  1  0  0  0  0
 15 21  1  6  0  0  0
 15 11  1  0  0  0  0
 16  4  1  0  0  0  0
 17  7  1  1  0  0  0
 17  3  1  0  0  0  0
 18 12  2  0  0  0  0
 19 22  1  0  0  0  0
 19 20  2  0  0  0  0
 21 19  1  0  0  0  0
 24 25  1  0  0  0  0
 25 23  1  0  0  0  0
 25 21  1  0  0  0  0
 26 16  1  0  0  0  0
 27 26  1  0  0  0  0
 29 33  1  0  0  0  0
 29 27  1  1  0  0  0
 30 28  1  6  0  0  0
 30 29  1  0  0  0  0
 31 32  1  0  0  0  0
 32 33  1  0  0  0  0
 34 31  1  0  0  0  0
 34 30  1  0  0  0  0
M  END
>  <MODEL>
2

>  <REMARK>
 VINA RESULT:      -4.9      2.570      6.874
  Name = 
  5 active torsions:
  status: ('A' for Active; 'I' for Inactive)
    1  A    between atoms: C_3  and  C_13
    2  A    between atoms: C_3  and  O_17
    3  A    between atoms: O_17  and  C_29
    4  A    between atoms: N_23  and  C_27
    5  A    between atoms: N_23  and  C_28
                            x       y       z     vdW  Elec       q    Type
                         _______ _______ _______ _____ _____    ______ ____

>  <TORSDO>
F 5

$$$$
=
 OpenBabel11062408063D

 34 38  0  0  1  0  0  0  0  0999 V2000
  161.5200  207.1350  149.1100 C   0  0  0  0  0  0  0  0  0  0  0  0
  161.1910  205.7600  151.1010 C   0  0  0  0  0  0  0  0  0  0  0  0
  161.3740  208.1790  151.3060 C   0  0  0  0  0  0  0  0  0  0  0  0
  161.4290  209.1930  153.5890 N   0  0  0  0  0  0  0  0  0  0  0  0
  161.2670  204.7330  148.9060 C   0  0  0  0  0  3  0  0  0  0  0  0
  161.1510  204.6180  150.2970 C   0  0  0  0  0  3  0  0  0  0  0  0
  161.1580  206.7250  153.3490 C   0  0  0  0  0  3  0  0  0  0  0  0
  161.3440  207.0260  150.5060 C   0  0  0  0  0  0  0  0  0  0  0  0
  160.0260  208.6200  155.3740 O   0  0  0  0  0  0  0  0  0  0  0  0
  161.4600  205.9870  148.3150 C   0  0  0  0  0  3  0  0  0  0  0  0
  161.6900  209.4190  150.7330 C   0  0  0  0  0  0  0  0  0  0  0  0
  161.7770  208.3830  148.5380 C   0  0  0  0  0  3  0  0  0  0  0  0
  161.2140  205.6360  152.5720 C   0  0  0  0  0  3  0  0  0  0  0  0
  162.3140  210.2190  153.0290 C   0  0  0  0  0  2  0  0  0  0  0  0
  161.8860  210.6190  151.6100 C   0  0  2  0  0  3  0  0  0  0  0  0
  160.9170  209.3890  154.9160 C   0  0  0  0  0  0  0  0  0  0  0  0
  160.9300  208.0900  152.7500 C   0  0  2  0  0  3  0  0  0  0  0  0
  161.8790  209.5200  149.3490 C   0  0  0  0  0  3  0  0  0  0  0  0
  160.3960  212.3270  150.4590 C   0  0  0  0  0  0  0  0  0  0  0  0
  159.3600  212.0660  149.7930 O   0  0  0  0  0  0  0  0  0  0  0  0
  160.7370  211.5270  151.6030 N   0  0  0  0  0  0  0  0  0  0  0  0
  161.3920  213.7440  150.0060 S   0  0  0  0  0  1  0  0  0  0  0  0
  158.6280  210.7840  152.6290 C   0  0  0  0  0  1  0  0  0  0  0  0
  159.6160  212.9950  153.2220 C   0  0  0  0  0  1  0  0  0  0  0  0
  159.9180  211.5640  152.8120 C   0  0  0  0  0  3  0  0  0  0  0  0
  161.3960  210.4460  155.6930 O   0  0  0  0  0  0  0  0  0  0  0  0
  160.6890  210.9250  156.8290 C   0  0  0  0  0  2  0  0  0  0  0  0
  157.7770  210.9840  156.0380 C   0  0  0  0  0  1  0  0  0  0  0  0
  159.9520  212.2090  156.4810 C   0  0  1  0  0  3  0  0  0  0  0  0
  158.4430  212.1070  156.8150 C   0  0  1  0  0  3  0  0  0  0  0  0
  158.3940  214.3440  157.2410 C   0  0  0  0  0  2  0  0  0  0  0  0
  159.8720  214.4530  156.8640 C   0  0  0  0  0  2  0  0  0  0  0  0
  160.5310  213.2620  157.2190 O   0  0  0  0  0  0  0  0  0  0  0  0
  157.7950  213.3150  156.4900 O   0  0  0  0  0  0  0  0  0  0  0  0
  1  8  1  0  0  0  0
  2 13  1  0  0  0  0
  3 17  1  0  0  0  0
  4 16  1  0  0  0  0
  5  6  1  0  0  0  0
  6  2  2  0  0  0  0
  8  2  1  0  0  0  0
  8  3  2  0  0  0  0
 10  5  2  0  0  0  0
 10  1  1  0  0  0  0
 11  3  1  0  0  0  0
 11 15  1  0  0  0  0
 12  1  2  0  0  0  0
 12 18  1  0  0  0  0
 13  7  2  0  0  0  0
 14  4  1  0  0  0  0
 15 21  1  1  0  0  0
 15 14  1  0  0  0  0
 16  9  2  0  0  0  0
 16 26  1  0  0  0  0
 17  7  1  1  0  0  0
 17  4  1  0  0  0  0
 18 11  2  0  0  0  0
 19 21  1  0  0  0  0
 20 19  2  0  0  0  0
 21 25  1  0  0  0  0
 22 19  1  0  0  0  0
 23 25  1  0  0  0  0
 25 24  1  0  0  0  0
 26 27  1  0  0  0  0
 29 30  1  0  0  0  0
 29 27  1  1  0  0  0
 29 33  1  0  0  0  0
 30 28  1  6  0  0  0
 32 33  1  0  0  0  0
 32 31  1  0  0  0  0
 34 30  1  0  0  0  0
 34 31  1  0  0  0  0
M  END
>  <MODEL>
3

>  <REMARK>
 VINA RESULT:      -4.9      4.487      6.788
  Name = 
  5 active torsions:
  status: ('A' for Active; 'I' for Inactive)
    1  A    between atoms: C_3  and  C_13
    2  A    between atoms: C_3  and  O_17
    3  A    between atoms: O_17  and  C_29
    4  A    between atoms: N_23  and  C_27
    5  A    between atoms: N_23  and  C_28
                            x       y       z     vdW  Elec       q    Type
                         _______ _______ _______ _____ _____    ______ ____

>  <TORSDO>
F 5

$$$$
=
 OpenBabel11062408063D

 34 38  0  0  1  0  0  0  0  0999 V2000
  161.4850  206.5970  149.1320 C   0  0  0  0  0  0  0  0  0  0  0  0
  161.1380  205.4710  151.2710 C   0  0  0  0  0  0  0  0  0  0  0  0
  161.4530  207.8840  151.1990 C   0  0  0  0  0  0  0  0  0  0  0  0
  161.6220  209.1400  153.3530 N   0  0  0  0  0  0  0  0  0  0  0  0
  161.1020  204.2060  149.2030 C   0  0  0  0  0  3  0  0  0  0  0  0
  161.0160  204.2510  150.5990 C   0  0  0  0  0  3  0  0  0  0  0  0
  161.2150  206.6790  153.3970 C   0  0  0  0  0  3  0  0  0  0  0  0
  161.3410  206.6540  150.5340 C   0  0  0  0  0  0  0  0  0  0  0  0
  160.2380  208.8470  155.2190 O   0  0  0  0  0  0  0  0  0  0  0  0
  161.3450  205.3730  148.4710 C   0  0  0  0  0  3  0  0  0  0  0  0
  161.8190  209.0340  150.4850 C   0  0  0  0  0  0  0  0  0  0  0  0
  161.7930  207.7590  148.4180 C   0  0  0  0  0  3  0  0  0  0  0  0
  161.1930  205.5100  152.7450 C   0  0  0  0  0  3  0  0  0  0  0  0
  162.5440  210.0480  152.6640 C   0  0  0  0  0  2  0  0  0  0  0  0
  162.1010  210.3110  151.2180 C   0  0  2  0  0  3  0  0  0  0  0  0
  161.1550  209.5100  154.6600 C   0  0  0  0  0  0  0  0  0  0  0  0
  161.0430  207.9810  152.6530 C   0  0  2  0  0  3  0  0  0  0  0  0
  161.9770  208.9710  149.0950 C   0  0  0  0  0  3  0  0  0  0  0  0
  160.1480  211.5680  152.2520 C   0  0  0  0  0  0  0  0  0  0  0  0
  160.2160  212.6910  152.8180 O   0  0  0  0  0  0  0  0  0  0  0  0
  161.0010  211.2750  151.1330 N   0  0  0  0  0  0  0  0  0  0  0  0
  158.9320  210.3790  152.8090 S   0  0  0  0  0  1  0  0  0  0  0  0
  162.1580  212.3390  149.2410 C   0  0  0  0  0  1  0  0  0  0  0  0
  159.9480  213.1930  150.0170 C   0  0  0  0  0  1  0  0  0  0  0  0
  160.8220  211.9610  149.8550 C   0  0  0  0  0  3  0  0  0  0  0  0
  161.7100  210.6190  155.3040 O   0  0  0  0  0  0  0  0  0  0  0  0
  161.1580  211.1470  156.5020 C   0  0  0  0  0  2  0  0  0  0  0  0
  158.1890  210.6000  156.5120 C   0  0  0  0  0  1  0  0  0  0  0  0
  160.1190  212.2090  156.1720 C   0  0  1  0  0  3  0  0  0  0  0  0
  158.7810  211.9430  156.9060 C   0  0  1  0  0  3  0  0  0  0  0  0
  158.3900  214.1850  156.9880 C   0  0  0  0  0  2  0  0  0  0  0  0
  159.6870  214.4450  156.2200 C   0  0  0  0  0  2  0  0  0  0  0  0
  160.6340  213.4620  156.5630 O   0  0  0  0  0  0  0  0  0  0  0  0
  157.8480  212.9500  156.5870 O   0  0  0  0  0  0  0  0  0  0  0  0
  1  8  1  0  0  0  0
  2 13  1  0  0  0  0
  3 17  1  0  0  0  0
  4 16  1  0  0  0  0
  5  6  2  0  0  0  0
  6  2  1  0  0  0  0
  8  3  1  0  0  0  0
  8  2  2  0  0  0  0
 10  1  2  0  0  0  0
 10  5  1  0  0  0  0
 11  3  2  0  0  0  0
 11 15  1  0  0  0  0
 12 18  2  0  0  0  0
 12  1  1  0  0  0  0
 13  7  2  0  0  0  0
 14  4  1  0  0  0  0
 15 21  1  1  0  0  0
 15 14  1  0  0  0  0
 16  9  2  0  0  0  0
 16 26  1  0  0  0  0
 17  4  1  0  0  0  0
 17  7  1  1  0  0  0
 18 11  1  0  0  0  0
 19 22  1  0  0  0  0
 19 20  2  0  0  0  0
 21 19  1  0  0  0  0
 23 25  1  0  0  0  0
 25 24  1  0  0  0  0
 25 21  1  0  0  0  0
 26 27  1  0  0  0  0
 29 27  1  1  0  0  0
 29 33  1  0  0  0  0
 29 30  1  0  0  0  0
 30 28  1  6  0  0  0
 32 33  1  0  0  0  0
 32 31  1  0  0  0  0
 34 30  1  0  0  0  0
 34 31  1  0  0  0  0
M  END
>  <MODEL>
4

>  <REMARK>
 VINA RESULT:      -4.9      4.128      6.566
  Name = 
  5 active torsions:
  status: ('A' for Active; 'I' for Inactive)
    1  A    between atoms: C_3  and  C_13
    2  A    between atoms: C_3  and  O_17
    3  A    between atoms: O_17  and  C_29
    4  A    between atoms: N_23  and  C_27
    5  A    between atoms: N_23  and  C_28
                            x       y       z     vdW  Elec       q    Type
                         _______ _______ _______ _____ _____    ______ ____

>  <TORSDO>
F 5

$$$$
=
 OpenBabel11062408063D

 34 38  0  0  1  0  0  0  0  0999 V2000
  160.6240  202.4070  148.1310 C   0  0  0  0  0  0  0  0  0  0  0  0
  161.4860  203.8350  146.3470 C   0  0  0  0  0  0  0  0  0  0  0  0
  161.0430  204.7690  148.5510 C   0  0  0  0  0  0  0  0  0  0  0  0
  161.2870  207.2340  148.8850 N   0  0  0  0  0  0  0  0  0  0  0  0
  161.1320  201.4680  145.9550 C   0  0  0  0  0  3  0  0  0  0  0  0
  161.5190  202.7310  145.4900 C   0  0  0  0  0  3  0  0  0  0  0  0
  161.8150  206.2390  146.6590 C   0  0  0  0  0  3  0  0  0  0  0  0
  161.0680  203.6680  147.6810 C   0  0  0  0  0  0  0  0  0  0  0  0
  163.0580  208.5510  148.1030 O   0  0  0  0  0  0  0  0  0  0  0  0
  160.6770  201.3080  147.2690 C   0  0  0  0  0  3  0  0  0  0  0  0
  160.4740  204.6400  149.8260 C   0  0  0  0  0  0  0  0  0  0  0  0
  160.1100  202.2720  149.4240 C   0  0  0  0  0  3  0  0  0  0  0  0
  161.7520  205.1910  145.8280 C   0  0  0  0  0  3  0  0  0  0  0  0
  160.1920  207.1340  149.8550 C   0  0  0  0  0  2  0  0  0  0  0  0
  160.2950  205.8510  150.6920 C   0  0  2  0  0  3  0  0  0  0  0  0
  162.0090  208.4730  148.8010 C   0  0  0  0  0  0  0  0  0  0  0  0
  161.7560  206.0450  148.1540 C   0  0  2  0  0  3  0  0  0  0  0  0
  160.0190  203.3890  150.2630 C   0  0  0  0  0  3  0  0  0  0  0  0
  161.1280  206.7980  152.9000 C   0  0  0  0  0  0  0  0  0  0  0  0
  160.9330  206.2900  154.0350 O   0  0  0  0  0  0  0  0  0  0  0  0
  161.3010  205.9490  151.7520 N   0  0  0  0  0  0  0  0  0  0  0  0
  161.2570  208.5760  152.7470 S   0  0  0  0  0  1  0  0  0  0  0  0
  162.2430  203.7090  152.1340 C   0  0  0  0  0  1  0  0  0  0  0  0
  163.6810  205.7380  152.3220 C   0  0  0  0  0  1  0  0  0  0  0  0
  162.4910  205.1130  151.6130 C   0  0  0  0  0  3  0  0  0  0  0  0
  161.5540  209.5870  149.5090 O   0  0  0  0  0  0  0  0  0  0  0  0
  162.3000  210.7950  149.5710 C   0  0  0  0  0  2  0  0  0  0  0  0
  160.2220  212.8910  150.2020 C   0  0  0  0  0  1  0  0  0  0  0  0
  161.7800  211.7820  148.5370 C   0  0  1  0  0  3  0  0  0  0  0  0
  161.3370  213.1130  149.1940 C   0  0  1  0  0  3  0  0  0  0  0  0
  161.9230  214.2340  147.2990 C   0  0  0  0  0  2  0  0  0  0  0  0
  162.3130  212.9130  146.6330 C   0  0  0  0  0  2  0  0  0  0  0  0
  162.8120  212.0310  147.6090 O   0  0  0  0  0  0  0  0  0  0  0  0
  160.8720  214.0060  148.2070 O   0  0  0  0  0  0  0  0  0  0  0  0
  1 12  1  0  0  0  0
  2  8  1  0  0  0  0
  3 11  2  0  0  0  0
  4 14  1  0  0  0  0
  5 10  2  0  0  0  0
  6  5  1  0  0  0  0
  6  2  2  0  0  0  0
  8  1  2  0  0  0  0
  8  3  1  0  0  0  0
  9 16  2  0  0  0  0
 10  1  1  0  0  0  0
 11 18  1  0  0  0  0
 11 15  1  0  0  0  0
 12 18  2  0  0  0  0
 13  2  1  0  0  0  0
 13  7  2  0  0  0  0
 14 15  1  0  0  0  0
 15 21  1  1  0  0  0
 16  4  1  0  0  0  0
 16 26  1  0  0  0  0
 17  7  1  6  0  0  0
 17  3  1  0  0  0  0
 17  4  1  0  0  0  0
 19 20  2  0  0  0  0
 21 19  1  0  0  0  0
 22 19  1  0  0  0  0
 25 21  1  0  0  0  0
 25 23  1  0  0  0  0
 25 24  1  0  0  0  0
 26 27  1  0  0  0  0
 29 30  1  0  0  0  0
 29 27  1  1  0  0  0
 30 28  1  1  0  0  0
 31 34  1  0  0  0  0
 32 31  1  0  0  0  0
 32 33  1  0  0  0  0
 33 29  1  0  0  0  0
 34 30  1  0  0  0  0
M  END
>  <MODEL>
5

>  <REMARK>
 VINA RESULT:      -4.8      1.155      1.602
  Name = 
  5 active torsions:
  status: ('A' for Active; 'I' for Inactive)
    1  A    between atoms: C_3  and  C_13
    2  A    between atoms: C_3  and  O_17
    3  A    between atoms: O_17  and  C_29
    4  A    between atoms: N_23  and  C_27
    5  A    between atoms: N_23  and  C_28
                            x       y       z     vdW  Elec       q    Type
                         _______ _______ _______ _____ _____    ______ ____

>  <TORSDO>
F 5

$$$$
=
 OpenBabel11062408063D

 34 38  0  0  1  0  0  0  0  0999 V2000
  161.5680  203.7680  146.9370 C   0  0  0  0  0  0  0  0  0  0  0  0
  162.0110  206.1260  146.4820 C   0  0  0  0  0  0  0  0  0  0  0  0
  161.3420  205.4190  148.7140 C   0  0  0  0  0  0  0  0  0  0  0  0
  160.9210  207.1630  150.4530 N   0  0  0  0  0  0  0  0  0  0  0  0
  162.3010  204.4690  144.7360 C   0  0  0  0  0  3  0  0  0  0  0  0
  162.3340  205.8020  145.1620 C   0  0  0  0  0  3  0  0  0  0  0  0
  161.6870  207.8560  148.1820 C   0  0  0  0  0  3  0  0  0  0  0  0
  161.6580  205.1040  147.3830 C   0  0  0  0  0  0  0  0  0  0  0  0
  162.2720  209.0280  150.8760 O   0  0  0  0  0  0  0  0  0  0  0  0
  161.9100  203.4550  145.6190 C   0  0  0  0  0  3  0  0  0  0  0  0
  160.8330  204.4290  149.5650 C   0  0  0  0  0  0  0  0  0  0  0  0
  161.1140  202.7750  147.8090 C   0  0  0  0  0  3  0  0  0  0  0  0
  161.9040  207.5380  146.9000 C   0  0  0  0  0  3  0  0  0  0  0  0
  159.8950  206.2670  150.9960 C   0  0  0  0  0  2  0  0  0  0  0  0
  160.3400  204.7980  150.9320 C   0  0  2  0  0  3  0  0  0  0  0  0
  161.2850  208.3210  151.2210 C   0  0  0  0  0  0  0  0  0  0  0  0
  161.6870  206.7920  149.2520 C   0  0  2  0  0  3  0  0  0  0  0  0
  160.7300  203.1070  149.1140 C   0  0  0  0  0  3  0  0  0  0  0  0
  162.2240  205.4000  152.5310 C   0  0  0  0  0  0  0  0  0  0  0  0
  162.0790  205.8340  153.7030 O   0  0  0  0  0  0  0  0  0  0  0  0
  161.2870  204.4500  151.9940 N   0  0  0  0  0  0  0  0  0  0  0  0
  163.6430  205.9220  151.5730 S   0  0  0  0  0  1  0  0  0  0  0  0
  162.2130  202.1790  151.8220 C   0  0  0  0  0  1  0  0  0  0  0  0
  159.8120  202.5270  152.3950 C   0  0  0  0  0  1  0  0  0  0  0  0
  161.2190  203.0890  152.5190 C   0  0  0  0  0  3  0  0  0  0  0  0
  160.5510  208.6520  152.3620 O   0  0  0  0  0  0  0  0  0  0  0  0
  161.0550  209.5440  153.3470 C   0  0  0  0  0  2  0  0  0  0  0  0
  162.6930  210.6370  155.6350 C   0  0  0  0  0  1  0  0  0  0  0  0
  161.2060  208.8200  154.6770 C   0  0  1  0  0  3  0  0  0  0  0  0
  161.4330  209.8140  155.8430 C   0  0  1  0  0  3  0  0  0  0  0  0
  160.3720  208.3800  157.2600 C   0  0  0  0  0  2  0  0  0  0  0  0
  160.1930  207.3770  156.1190 C   0  0  0  0  0  2  0  0  0  0  0  0
  160.0310  208.0760  154.9090 O   0  0  0  0  0  0  0  0  0  0  0  0
  161.5580  209.1100  157.0580 O   0  0  0  0  0  0  0  0  0  0  0  0
  1  8  2  0  0  0  0
  1 12  1  0  0  0  0
  2 13  1  0  0  0  0
  2  8  1  0  0  0  0
  3 17  1  0  0  0  0
  3 11  2  0  0  0  0
  4 14  1  0  0  0  0
  4 16  1  0  0  0  0
  5  6  1  0  0  0  0
  5 10  2  0  0  0  0
  6  2  2  0  0  0  0
  8  3  1  0  0  0  0
  9 16  2  0  0  0  0
 10  1  1  0  0  0  0
 11 15  1  0  0  0  0
 12 18  2  0  0  0  0
 13  7  2  0  0  0  0
 15 14  1  0  0  0  0
 15 21  1  1  0  0  0
 16 26  1  0  0  0  0
 17  7  1  6  0  0  0
 17  4  1  0  0  0  0
 18 11  1  0  0  0  0
 19 20  2  0  0  0  0
 21 25  1  0  0  0  0
 21 19  1  0  0  0  0
 22 19  1  0  0  0  0
 23 25  1  0  0  0  0
 24 25  1  0  0  0  0
 26 27  1  0  0  0  0
 29 27  1  6  0  0  0
 29 33  1  0  0  0  0
 29 30  1  0  0  0  0
 30 28  1  6  0  0  0
 30 34  1  0  0  0  0
 32 31  1  0  0  0  0
 33 32  1  0  0  0  0
 34 31  1  0  0  0  0
M  END
>  <MODEL>
6

>  <REMARK>
 VINA RESULT:      -3.1      2.849      4.966
  Name = 
  5 active torsions:
  status: ('A' for Active; 'I' for Inactive)
    1  A    between atoms: C_3  and  C_13
    2  A    between atoms: C_3  and  O_17
    3  A    between atoms: O_17  and  C_29
    4  A    between atoms: N_23  and  C_27
    5  A    between atoms: N_23  and  C_28
                            x       y       z     vdW  Elec       q    Type
                         _______ _______ _______ _____ _____    ______ ____

>  <TORSDO>
F 5

$$$$
=
 OpenBabel11062408063D

 34 38  0  0  1  0  0  0  0  0999 V2000
  161.2030  209.0800  153.0770 C   0  0  0  0  0  0  0  0  0  0  0  0
  161.3710  206.9820  154.3160 C   0  0  0  0  0  0  0  0  0  0  0  0
  161.1040  206.9520  151.8960 C   0  0  0  0  0  0  0  0  0  0  0  0
  160.7980  204.7550  150.7470 N   0  0  0  0  0  0  0  0  0  0  0  0
  161.5380  209.1050  155.4770 C   0  0  0  0  0  3  0  0  0  0  0  0
  161.5210  207.7050  155.5030 C   0  0  0  0  0  3  0  0  0  0  0  0
  161.1570  204.8080  153.2150 C   0  0  0  0  0  3  0  0  0  0  0  0
  161.2440  207.6700  153.0940 C   0  0  0  0  0  0  0  0  0  0  0  0
  162.0340  202.8100  151.1630 O   0  0  0  0  0  0  0  0  0  0  0  0
  161.3710  209.7910  154.2690 C   0  0  0  0  0  3  0  0  0  0  0  0
  160.8140  207.6310  150.7040 C   0  0  0  0  0  0  0  0  0  0  0  0
  160.9700  209.7540  151.8750 C   0  0  0  0  0  3  0  0  0  0  0  0
  161.2070  205.5160  154.3500 C   0  0  0  0  0  3  0  0  0  0  0  0
  159.9460  205.4620  149.7860 C   0  0  0  0  0  2  0  0  0  0  0  0
  160.5000  206.8560  149.4600 C   0  0  2  0  0  3  0  0  0  0  0  0
  161.1720  203.3990  150.4530 C   0  0  0  0  0  0  0  0  0  0  0  0
  161.4070  205.4690  151.8810 C   0  0  2  0  0  3  0  0  0  0  0  0
  160.7580  209.0300  150.6950 C   0  0  0  0  0  3  0  0  0  0  0  0
  162.7410  207.7060  148.6100 C   0  0  0  0  0  0  0  0  0  0  0  0
  163.8700  207.2680  148.9560 O   0  0  0  0  0  0  0  0  0  0  0  0
  161.6200  206.8100  148.5170 N   0  0  0  0  0  0  0  0  0  0  0  0
  162.5690  209.4320  148.1700 S   0  0  0  0  0  1  0  0  0  0  0  0
  162.9580  205.2760  147.1360 C   0  0  0  0  0  1  0  0  0  0  0  0
  160.8700  206.2980  146.2350 C   0  0  0  0  0  1  0  0  0  0  0  0
  161.5690  205.7810  147.4810 C   0  0  0  0  0  3  0  0  0  0  0  0
  160.5910  202.7420  149.3660 O   0  0  0  0  0  0  0  0  0  0  0  0
  161.1390  201.5460  148.8310 C   0  0  0  0  0  2  0  0  0  0  0  0
  161.5810  199.1490  147.0490 C   0  0  0  0  0  1  0  0  0  0  0  0
  161.2290  201.6460  147.3150 C   0  0  1  0  0  3  0  0  0  0  0  0
  160.7430  200.3450  146.6290 C   0  0  1  0  0  3  0  0  0  0  0  0
  160.0220  201.5650  144.8460 C   0  0  0  0  0  2  0  0  0  0  0  0
  160.5460  202.8430  145.5020 C   0  0  0  0  0  2  0  0  0  0  0  0
  160.4280  202.7300  146.8990 O   0  0  0  0  0  0  0  0  0  0  0  0
  160.8300  200.4780  145.2290 O   0  0  0  0  0  0  0  0  0  0  0  0
  1  8  1  0  0  0  0
  1 10  2  0  0  0  0
  2 13  1  0  0  0  0
  2  6  1  0  0  0  0
  3  8  1  0  0  0  0
  4 17  1  0  0  0  0
  5  6  2  0  0  0  0
  7 13  2  0  0  0  0
  8  2  2  0  0  0  0
 10  5  1  0  0  0  0
 11  3  2  0  0  0  0
 12  1  1  0  0  0  0
 14  4  1  0  0  0  0
 15 21  1  6  0  0  0
 15 14  1  0  0  0  0
 15 11  1  0  0  0  0
 16  4  1  0  0  0  0
 16  9  2  0  0  0  0
 17  3  1  0  0  0  0
 17  7  1  1  0  0  0
 18 11  1  0  0  0  0
 18 12  2  0  0  0  0
 19 20  2  0  0  0  0
 21 19  1  0  0  0  0
 22 19  1  0  0  0  0
 23 25  1  0  0  0  0
 24 25  1  0  0  0  0
 25 21  1  0  0  0  0
 26 16  1  0  0  0  0
 27 26  1  0  0  0  0
 29 27  1  1  0  0  0
 30 28  1  1  0  0  0
 30 29  1  0  0  0  0
 31 34  1  0  0  0  0
 31 32  1  0  0  0  0
 32 33  1  0  0  0  0
 33 29  1  0  0  0  0
 34 30  1  0  0  0  0
M  END
>  <MODEL>
7

>  <REMARK>
 VINA RESULT:      -3.1      3.084      8.242
  Name = 
  5 active torsions:
  status: ('A' for Active; 'I' for Inactive)
    1  A    between atoms: C_3  and  C_13
    2  A    between atoms: C_3  and  O_17
    3  A    between atoms: O_17  and  C_29
    4  A    between atoms: N_23  and  C_27
    5  A    between atoms: N_23  and  C_28
                            x       y       z     vdW  Elec       q    Type
                         _______ _______ _______ _____ _____    ______ ____

>  <TORSDO>
F 5

$$$$
=
 OpenBabel11062408063D

 34 38  0  0  1  0  0  0  0  0999 V2000
  160.5620  208.3540  154.8590 C   0  0  0  0  0  0  0  0  0  0  0  0
  160.4910  210.1390  153.1940 C   0  0  0  0  0  0  0  0  0  0  0  0
  161.2660  207.9180  152.5680 C   0  0  0  0  0  0  0  0  0  0  0  0
  162.1740  207.5640  150.2670 N   0  0  0  0  0  0  0  0  0  0  0  0
  159.7270  210.5480  155.4590 C   0  0  0  0  0  3  0  0  0  0  0  0
  159.9730  211.0080  154.1600 C   0  0  0  0  0  3  0  0  0  0  0  0
  161.2960  209.8100  150.9080 C   0  0  0  0  0  3  0  0  0  0  0  0
  160.7570  208.7990  153.5350 C   0  0  0  0  0  0  0  0  0  0  0  0
  161.2230  208.3670  148.2840 O   0  0  0  0  0  0  0  0  0  0  0  0
  160.0290  209.2280  155.8110 C   0  0  0  0  0  3  0  0  0  0  0  0
  161.6840  206.6340  152.9450 C   0  0  0  0  0  0  0  0  0  0  0  0
  160.9290  207.0530  155.2150 C   0  0  0  0  0  3  0  0  0  0  0  0
  160.8880  210.6490  151.8680 C   0  0  0  0  0  3  0  0  0  0  0  0
  163.0800  206.5740  150.8580 C   0  0  0  0  0  2  0  0  0  0  0  0
  162.3810  205.7530  151.9520 C   0  0  2  0  0  3  0  0  0  0  0  0
  162.1040  207.6500  148.8350 C   0  0  0  0  0  0  0  0  0  0  0  0
  161.2270  208.3160  151.1080 C   0  0  2  0  0  3  0  0  0  0  0  0
  161.5050  206.2010  154.2650 C   0  0  0  0  0  3  0  0  0  0  0  0
  160.9930  204.7680  150.0620 C   0  0  0  0  0  0  0  0  0  0  0  0
  161.4100  203.9590  149.1920 O   0  0  0  0  0  0  0  0  0  0  0  0
  161.5100  204.7110  151.4020 N   0  0  0  0  0  0  0  0  0  0  0  0
  159.7060  205.9340  149.6290 S   0  0  0  0  0  1  0  0  0  0  0  0
  161.8830  202.3090  151.7800 C   0  0  0  0  0  1  0  0  0  0  0  0
  159.7090  203.3650  152.3910 C   0  0  0  0  0  1  0  0  0  0  0  0
  161.2080  203.5760  152.2730 C   0  0  0  0  0  3  0  0  0  0  0  0
  163.0040  206.9220  148.0540 O   0  0  0  0  0  0  0  0  0  0  0  0
  162.7400  206.6130  146.6930 C   0  0  0  0  0  2  0  0  0  0  0  0
  160.0880  206.5070  145.2540 C   0  0  0  0  0  1  0  0  0  0  0  0
  161.8990  205.3490  146.6000 C   0  0  1  0  0  3  0  0  0  0  0  0
  161.0450  205.3280  145.3070 C   0  0  1  0  0  3  0  0  0  0  0  0
  161.1840  203.0550  145.2620 C   0  0  0  0  0  2  0  0  0  0  0  0
  161.9850  203.0730  146.5650 C   0  0  0  0  0  2  0  0  0  0  0  0
  162.7690  204.2390  146.6110 O   0  0  0  0  0  0  0  0  0  0  0  0
  160.2880  204.1400  145.2490 O   0  0  0  0  0  0  0  0  0  0  0  0
  1 12  1  0  0  0  0
  1 10  2  0  0  0  0
  2  8  2  0  0  0  0
  2  6  1  0  0  0  0
  3 11  2  0  0  0  0
  3  8  1  0  0  0  0
  4 14  1  0  0  0  0
  4 17  1  0  0  0  0
  5 10  1  0  0  0  0
  6  5  2  0  0  0  0
  7 13  2  0  0  0  0
  8  1  1  0  0  0  0
  9 16  2  0  0  0  0
 11 18  1  0  0  0  0
 13  2  1  0  0  0  0
 14 15  1  0  0  0  0
 15 21  1  6  0  0  0
 15 11  1  0  0  0  0
 16  4  1  0  0  0  0
 17  7  1  1  0  0  0
 17  3  1  0  0  0  0
 18 12  2  0  0  0  0
 19 21  1  0  0  0  0
 20 19  2  0  0  0  0
 21 25  1  0  0  0  0
 22 19  1  0  0  0  0
 23 25  1  0  0  0  0
 25 24  1  0  0  0  0
 26 16  1  0  0  0  0
 27 26  1  0  0  0  0
 29 33  1  0  0  0  0
 29 27  1  6  0  0  0
 30 28  1  1  0  0  0
 30 29  1  0  0  0  0
 31 32  1  0  0  0  0
 32 33  1  0  0  0  0
 34 31  1  0  0  0  0
 34 30  1  0  0  0  0
M  END
>  <MODEL>
8

>  <REMARK>
 VINA RESULT:      -3.0      2.702      6.991
  Name = 
  5 active torsions:
  status: ('A' for Active; 'I' for Inactive)
    1  A    between atoms: C_3  and  C_13
    2  A    between atoms: C_3  and  O_17
    3  A    between atoms: O_17  and  C_29
    4  A    between atoms: N_23  and  C_27
    5  A    between atoms: N_23  and  C_28
                            x       y       z     vdW  Elec       q    Type
                         _______ _______ _______ _____ _____    ______ ____

>  <TORSDO>
F 5

$$$$
=
 OpenBabel11062408063D

 34 38  0  0  1  0  0  0  0  0999 V2000
  161.6980  205.1510  147.7990 C   0  0  0  0  0  0  0  0  0  0  0  0
  160.8460  203.7270  149.5900 C   0  0  0  0  0  0  0  0  0  0  0  0
  161.6330  205.9760  150.0900 C   0  0  0  0  0  0  0  0  0  0  0  0
  161.7450  206.7100  152.4750 N   0  0  0  0  0  0  0  0  0  0  0  0
  160.8490  202.9370  147.2980 C   0  0  0  0  0  3  0  0  0  0  0  0
  160.5820  202.7220  148.6550 C   0  0  0  0  0  3  0  0  0  0  0  0
  160.8640  204.4410  151.9300 C   0  0  0  0  0  3  0  0  0  0  0  0
  161.3760  204.9580  149.1590 C   0  0  0  0  0  0  0  0  0  0  0  0
  160.0870  206.3640  154.0920 O   0  0  0  0  0  0  0  0  0  0  0  0
  161.4140  204.1440  146.8710 C   0  0  0  0  0  3  0  0  0  0  0  0
  162.3110  207.1360  149.6870 C   0  0  0  0  0  0  0  0  0  0  0  0
  162.3220  206.3340  147.3940 C   0  0  0  0  0  3  0  0  0  0  0  0
  160.7040  203.4590  151.0350 C   0  0  0  0  0  3  0  0  0  0  0  0
  162.9130  207.5110  152.0950 C   0  0  0  0  0  2  0  0  0  0  0  0
  162.7340  208.1470  150.7100 C   0  0  2  0  0  3  0  0  0  0  0  0
  161.1850  206.9060  153.7830 C   0  0  0  0  0  0  0  0  0  0  0  0
  161.0530  205.8700  151.4840 C   0  0  2  0  0  3  0  0  0  0  0  0
  162.6440  207.3170  148.3390 C   0  0  0  0  0  3  0  0  0  0  0  0
  161.6100  210.1240  149.5720 C   0  0  0  0  0  0  0  0  0  0  0  0
  160.4690  210.1110  149.0380 O   0  0  0  0  0  0  0  0  0  0  0  0
  161.8650  209.3260  150.7400 N   0  0  0  0  0  0  0  0  0  0  0  0
  162.8770  211.1960  148.9030 S   0  0  0  0  0  1  0  0  0  0  0  0
  159.9750  210.4720  151.8190 C   0  0  0  0  0  1  0  0  0  0  0  0
  162.2010  210.3740  152.9370 C   0  0  0  0  0  1  0  0  0  0  0  0
  161.2330  209.6480  152.0180 C   0  0  0  0  0  3  0  0  0  0  0  0
  161.8510  207.7150  154.7070 O   0  0  0  0  0  0  0  0  0  0  0  0
  161.4790  207.7540  156.0780 C   0  0  0  0  0  2  0  0  0  0  0  0
  163.0800  210.0230  157.2610 C   0  0  0  0  0  1  0  0  0  0  0  0
  160.8720  209.1080  156.4140 C   0  0  1  0  0  3  0  0  0  0  0  0
  161.9190  210.2430  156.3050 C   0  0  1  0  0  3  0  0  0  0  0  0
  160.2720  211.6940  155.6990 C   0  0  0  0  0  2  0  0  0  0  0  0
  159.2300  210.5850  155.8560 C   0  0  0  0  0  2  0  0  0  0  0  0
  159.8130  209.3510  155.5150 O   0  0  0  0  0  0  0  0  0  0  0  0
  161.3210  211.4820  156.6130 O   0  0  0  0  0  0  0  0  0  0  0  0
  1  8  1  0  0  0  0
  2 13  1  0  0  0  0
  3 17  1  0  0  0  0
  4 16  1  0  0  0  0
  5  6  1  0  0  0  0
  6  2  2  0  0  0  0
  8  2  1  0  0  0  0
  8  3  2  0  0  0  0
 10  5  2  0  0  0  0
 10  1  1  0  0  0  0
 11  3  1  0  0  0  0
 11 15  1  0  0  0  0
 12  1  2  0  0  0  0
 12 18  1  0  0  0  0
 13  7  2  0  0  0  0
 14  4  1  0  0  0  0
 15 21  1  1  0  0  0
 15 14  1  0  0  0  0
 16  9  2  0  0  0  0
 16 26  1  0  0  0  0
 17  7  1  1  0  0  0
 17  4  1  0  0  0  0
 18 11  2  0  0  0  0
 19 21  1  0  0  0  0
 20 19  2  0  0  0  0
 21 25  1  0  0  0  0
 22 19  1  0  0  0  0
 23 25  1  0  0  0  0
 25 24  1  0  0  0  0
 26 27  1  0  0  0  0
 29 27  1  6  0  0  0
 30 29  1  0  0  0  0
 30 34  1  0  0  0  0
 30 28  1  1  0  0  0
 31 32  1  0  0  0  0
 31 34  1  0  0  0  0
 33 32  1  0  0  0  0
 33 29  1  0  0  0  0
M  END
>  <MODEL>
9

>  <REMARK>
 VINA RESULT:      -2.9      3.177      5.711
  Name = 
  5 active torsions:
  status: ('A' for Active; 'I' for Inactive)
    1  A    between atoms: C_3  and  C_13
    2  A    between atoms: C_3  and  O_17
    3  A    between atoms: O_17  and  C_29
    4  A    between atoms: N_23  and  C_27
    5  A    between atoms: N_23  and  C_28
                            x       y       z     vdW  Elec       q    Type
                         _______ _______ _______ _____ _____    ______ ____

>  <TORSDO>
F 5

$$$$
