=
 OpenBabel11052421573D

 30 32  0  0  1  0  0  0  0  0999 V2000
  161.3130  205.5800  147.5990 C   0  0  0  0  0  2  0  0  0  0  0  0
  161.7240  204.2050  145.4690 N   0  0  0  0  0  0  0  0  0  0  0  0
  160.6680  201.8550  149.7960 C   0  0  0  0  0  2  0  0  0  0  0  0
  161.5990  205.5630  149.1100 C   0  0  2  0  0  3  0  0  0  0  0  0
  161.0260  201.9350  151.2840 C   0  0  0  0  0  2  0  0  0  0  0  0
  160.5260  203.5330  144.9660 C   0  0  0  0  0  2  0  0  0  0  0  0
  161.7910  205.5260  144.8570 C   0  0  0  0  0  1  0  0  0  0  0  0
  161.3530  203.0180  149.0810 C   0  0  2  0  0  3  0  0  0  0  0  0
  160.5070  202.0540  145.4050 C   0  0  0  0  0  2  0  0  0  0  0  0
  161.7440  204.2550  146.9610 C   0  0  2  0  0  3  0  0  0  0  0  0
  160.9550  204.3270  149.7820 C   0  0  1  0  0  3  0  0  0  0  0  0
  160.5580  203.1470  151.8320 O   0  0  0  0  0  0  0  0  0  0  0  0
  161.3190  204.1870  151.2610 C   0  0  0  0  0  2  0  0  0  0  0  0
  161.1200  201.8420  146.7960 C   0  0  0  0  0  2  0  0  0  0  0  0
  160.9510  203.1160  147.6140 C   0  0  1  0  0  3  0  0  0  0  0  0
  161.1790  206.9180  149.7120 C   0  0  1  0  0  3  0  0  0  0  0  0
  163.0560  206.9590  151.2190 O   0  0  0  0  0  0  0  0  0  0  0  0
  161.8330  207.2140  151.0400 C   0  0  0  0  0  0  0  0  0  0  0  0
  160.4530  208.8630  152.0250 O   0  0  0  0  0  0  0  0  0  0  0  0
  161.0420  207.7540  152.1530 C   0  0  0  0  0  0  0  0  0  0  0  0
  160.9470  207.0400  153.3550 O   0  0  0  0  0  0  0  0  0  0  0  0
  160.0230  207.1990  155.5740 C   0  0  0  0  0  1  0  0  0  0  0  0
  161.1040  207.6740  154.6170 C   0  0  0  0  0  2  0  0  0  0  0  0
  161.3840  208.0630  148.7220 C   0  0  0  0  0  2  0  0  0  0  0  0
  162.0760  209.1210  149.3330 O   0  0  0  0  0  0  0  0  0  0  0  0
  161.9800  210.1940  148.4410 C   0  0  0  0  0  2  0  0  0  0  0  0
  162.2960  211.4190  149.0950 O   0  0  0  0  0  0  0  0  0  0  0  0
  162.6160  213.4930  147.8740 O   0  0  0  0  0  0  0  0  0  0  0  0
  161.8180  212.6580  148.6480 C   0  0  0  0  0  0  0  0  0  0  0  0
  160.6430  213.0080  148.9290 O   0  0  0  0  0  1  0  0  0  0  0  0
  1  4  1  0  0  0  0
  2 10  1  0  0  0  0
  3  5  1  0  0  0  0
  4 16  1  1  0  0  0
  4 11  1  0  0  0  0
  5 12  1  0  0  0  0
  6  9  1  0  0  0  0
  6  2  1  0  0  0  0
  7  2  1  0  0  0  0
  8 11  1  0  0  0  0
  8  3  1  1  0  0  0
  9 14  1  0  0  0  0
 10  1  1  6  0  0  0
 10 15  1  0  0  0  0
 11 13  1  1  0  0  0
 13 12  1  0  0  0  0
 15 14  1  6  0  0  0
 15  8  1  0  0  0  0
 16 24  1  6  0  0  0
 16 18  1  0  0  0  0
 18 17  2  0  0  0  0
 18 20  1  0  0  0  0
 19 20  2  0  0  0  0
 20 21  1  0  0  0  0
 21 23  1  0  0  0  0
 23 22  1  0  0  0  0
 24 25  1  0  0  0  0
 26 27  1  0  0  0  0
 26 25  1  0  0  0  0
 28 29  2  0  0  0  0
 29 30  1  0  0  0  0
 29 27  1  0  0  0  0
M  END
>  <MODEL>
1

>  <REMARK>
 VINA RESULT:      -8.1      0.000      0.000
  Name = 
  10 active torsions:
  status: ('A' for Active; 'I' for Inactive)
    1  A    between atoms: C_4  and  C_13
    2  A    between atoms: O_5  and  C_12
    3  A    between atoms: O_5  and  C_21
    4  A    between atoms: O_7  and  C_15
    5  A    between atoms: O_7  and  C_16
    6  A    between atoms: C_8  and  C_12
    7  A    between atoms: C_8  and  C_13
    8  A    between atoms: C_13  and  C_27
    9  A    between atoms: C_16  and  O_30
   10  A    between atoms: C_27  and  O_30
                            x       y       z     vdW  Elec       q    Type
                         _______ _______ _______ _____ _____    ______ ____

>  <TORSDO>
F 10

$$$$
=
 OpenBabel11052421573D

 30 32  0  0  1  0  0  0  0  0999 V2000
  160.9720  204.9610  150.3080 C   0  0  0  0  0  2  0  0  0  0  0  0
  160.4040  202.5130  150.8380 N   0  0  0  0  0  0  0  0  0  0  0  0
  161.5160  203.8530  146.1130 C   0  0  0  0  0  2  0  0  0  0  0  0
  160.7480  206.0370  149.2330 C   0  0  2  0  0  3  0  0  0  0  0  0
  161.2250  204.9860  145.1240 C   0  0  0  0  0  2  0  0  0  0  0  0
  161.5440  201.6050  150.7080 C   0  0  0  0  0  2  0  0  0  0  0  0
  160.3780  203.0130  152.2060 C   0  0  0  0  0  1  0  0  0  0  0  0
  160.8630  204.2110  147.4470 C   0  0  2  0  0  3  0  0  0  0  0  0
  161.5050  200.8750  149.3500 C   0  0  0  0  0  2  0  0  0  0  0  0
  160.4480  203.6050  149.8210 C   0  0  2  0  0  3  0  0  0  0  0  0
  161.3560  205.6010  147.8780 C   0  0  1  0  0  3  0  0  0  0  0  0
  161.7760  206.1960  145.5930 O   0  0  0  0  0  0  0  0  0  0  0  0
  161.0460  206.5740  146.7380 C   0  0  0  0  0  2  0  0  0  0  0  0
  160.9410  201.7510  148.2230 C   0  0  0  0  0  2  0  0  0  0  0  0
  161.2080  203.2140  148.5480 C   0  0  1  0  0  3  0  0  0  0  0  0
  161.2610  207.3890  149.7660 C   0  0  1  0  0  3  0  0  0  0  0  0
  162.8920  206.7840  151.4310 O   0  0  0  0  0  0  0  0  0  0  0  0
  161.7760  207.3190  151.1830 C   0  0  0  0  0  0  0  0  0  0  0  0
  160.4400  208.9750  152.2170 O   0  0  0  0  0  0  0  0  0  0  0  0
  160.9610  207.8280  152.2950 C   0  0  0  0  0  0  0  0  0  0  0  0
  160.7690  207.0420  153.4380 O   0  0  0  0  0  0  0  0  0  0  0  0
  159.9870  207.2900  155.7030 C   0  0  0  0  0  1  0  0  0  0  0  0
  161.1370  207.4990  154.7320 C   0  0  0  0  0  2  0  0  0  0  0  0
  162.2950  208.0090  148.8280 C   0  0  0  0  0  2  0  0  0  0  0  0
  161.8920  209.2950  148.4360 O   0  0  0  0  0  0  0  0  0  0  0  0
  162.2690  210.1400  149.4840 C   0  0  0  0  0  2  0  0  0  0  0  0
  161.8870  211.4840  149.2070 O   0  0  0  0  0  0  0  0  0  0  0  0
  161.1200  212.3070  147.0550 O   0  0  0  0  0  0  0  0  0  0  0  0
  162.1420  212.1020  147.9750 C   0  0  0  0  0  0  0  0  0  0  0  0
  163.3060  212.4960  147.7070 O   0  0  0  0  0  1  0  0  0  0  0  0
  2  7  1  0  0  0  0
  4 16  1  1  0  0  0
  4  1  1  0  0  0  0
  5 12  1  0  0  0  0
  5  3  1  0  0  0  0
  6  2  1  0  0  0  0
  8  3  1  6  0  0  0
  8 11  1  0  0  0  0
  8 15  1  0  0  0  0
  9  6  1  0  0  0  0
 10  1  1  1  0  0  0
 10  2  1  0  0  0  0
 11 13  1  6  0  0  0
 11  4  1  0  0  0  0
 12 13  1  0  0  0  0
 14  9  1  0  0  0  0
 15 14  1  6  0  0  0
 15 10  1  0  0  0  0
 16 24  1  6  0  0  0
 16 18  1  0  0  0  0
 18 17  2  0  0  0  0
 18 20  1  0  0  0  0
 19 20  2  0  0  0  0
 20 21  1  0  0  0  0
 21 23  1  0  0  0  0
 23 22  1  0  0  0  0
 25 24  1  0  0  0  0
 25 26  1  0  0  0  0
 27 26  1  0  0  0  0
 28 29  2  0  0  0  0
 29 27  1  0  0  0  0
 30 29  1  0  0  0  0
M  END
>  <MODEL>
2

>  <REMARK>
 VINA RESULT:      -7.5      1.639      3.379
  Name = 
  10 active torsions:
  status: ('A' for Active; 'I' for Inactive)
    1  A    between atoms: C_4  and  C_13
    2  A    between atoms: O_5  and  C_12
    3  A    between atoms: O_5  and  C_21
    4  A    between atoms: O_7  and  C_15
    5  A    between atoms: O_7  and  C_16
    6  A    between atoms: C_8  and  C_12
    7  A    between atoms: C_8  and  C_13
    8  A    between atoms: C_13  and  C_27
    9  A    between atoms: C_16  and  O_30
   10  A    between atoms: C_27  and  O_30
                            x       y       z     vdW  Elec       q    Type
                         _______ _______ _______ _____ _____    ______ ____

>  <TORSDO>
F 10

$$$$
=
 OpenBabel11052421573D

 30 32  0  0  1  0  0  0  0  0999 V2000
  161.5270  208.2060  150.9950 C   0  0  0  0  0  2  0  0  0  0  0  0
  160.6600  209.4780  153.0510 N   0  0  0  0  0  0  0  0  0  0  0  0
  161.0430  204.4590  153.1980 C   0  0  0  0  0  2  0  0  0  0  0  0
  161.2860  206.9140  150.1970 C   0  0  2  0  0  3  0  0  0  0  0  0
  160.7640  203.2420  152.3100 C   0  0  0  0  0  2  0  0  0  0  0  0
  161.5800  209.4490  154.1890 C   0  0  0  0  0  2  0  0  0  0  0  0
  160.9890  210.6400  152.2350 C   0  0  0  0  0  1  0  0  0  0  0  0
  160.7340  205.7170  152.3880 C   0  0  2  0  0  3  0  0  0  0  0  0
  161.1510  208.3710  155.2060 C   0  0  0  0  0  2  0  0  0  0  0  0
  160.6920  208.2000  152.2810 C   0  0  2  0  0  3  0  0  0  0  0  0
  161.5330  205.6640  151.0760 C   0  0  1  0  0  3  0  0  0  0  0  0
  161.5950  203.2680  151.1710 O   0  0  0  0  0  0  0  0  0  0  0  0
  161.1790  204.3530  150.3720 C   0  0  0  0  0  2  0  0  0  0  0  0
  160.5370  207.1350  154.5350 C   0  0  0  0  0  2  0  0  0  0  0  0
  161.1110  206.9930  153.1310 C   0  0  1  0  0  3  0  0  0  0  0  0
  162.1190  206.9660  148.9010 C   0  0  1  0  0  3  0  0  0  0  0  0
  160.1580  206.5410  147.5690 O   0  0  0  0  0  0  0  0  0  0  0  0
  161.4030  206.3870  147.7040 C   0  0  0  0  0  0  0  0  0  0  0  0
  162.4940  206.1250  145.6220 O   0  0  0  0  0  0  0  0  0  0  0  0
  162.1400  205.5950  146.7100 C   0  0  0  0  0  0  0  0  0  0  0  0
  162.4440  204.2530  146.9720 O   0  0  0  0  0  0  0  0  0  0  0  0
  161.0760  202.8730  145.5480 C   0  0  0  0  0  1  0  0  0  0  0  0
  161.4420  203.2440  146.9760 C   0  0  0  0  0  2  0  0  0  0  0  0
  162.6290  208.3770  148.6150 C   0  0  0  0  0  2  0  0  0  0  0  0
  161.5700  209.2140  148.2320 O   0  0  0  0  0  0  0  0  0  0  0  0
  162.0070  210.5150  148.4980 C   0  0  0  0  0  2  0  0  0  0  0  0
  161.2670  211.4600  147.7300 O   0  0  0  0  0  0  0  0  0  0  0  0
  161.1710  213.4560  146.3520 O   0  0  0  0  0  0  0  0  0  0  0  0
  161.8080  212.6840  147.3170 C   0  0  0  0  0  0  0  0  0  0  0  0
  162.8700  213.1040  147.8450 O   0  0  0  0  0  1  0  0  0  0  0  0
  2  6  1  0  0  0  0
  4 16  1  6  0  0  0
  4  1  1  0  0  0  0
  4 11  1  0  0  0  0
  5  3  1  0  0  0  0
  6  9  1  0  0  0  0
  7  2  1  0  0  0  0
  8 15  1  0  0  0  0
  8  3  1  1  0  0  0
 10  1  1  6  0  0  0
 10  2  1  0  0  0  0
 10 15  1  0  0  0  0
 11 13  1  6  0  0  0
 11  8  1  0  0  0  0
 12  5  1  0  0  0  0
 13 12  1  0  0  0  0
 14  9  1  0  0  0  0
 15 14  1  1  0  0  0
 16 24  1  6  0  0  0
 17 18  2  0  0  0  0
 18 16  1  0  0  0  0
 19 20  2  0  0  0  0
 20 21  1  0  0  0  0
 20 18  1  0  0  0  0
 21 23  1  0  0  0  0
 22 23  1  0  0  0  0
 25 26  1  0  0  0  0
 25 24  1  0  0  0  0
 27 26  1  0  0  0  0
 28 29  2  0  0  0  0
 29 27  1  0  0  0  0
 29 30  1  0  0  0  0
M  END
>  <MODEL>
3

>  <REMARK>
 VINA RESULT:      -7.2      2.565      5.952
  Name = 
  10 active torsions:
  status: ('A' for Active; 'I' for Inactive)
    1  A    between atoms: C_4  and  C_13
    2  A    between atoms: O_5  and  C_12
    3  A    between atoms: O_5  and  C_21
    4  A    between atoms: O_7  and  C_15
    5  A    between atoms: O_7  and  C_16
    6  A    between atoms: C_8  and  C_12
    7  A    between atoms: C_8  and  C_13
    8  A    between atoms: C_13  and  C_27
    9  A    between atoms: C_16  and  O_30
   10  A    between atoms: C_27  and  O_30
                            x       y       z     vdW  Elec       q    Type
                         _______ _______ _______ _____ _____    ______ ____

>  <TORSDO>
F 10

$$$$
=
 OpenBabel11052421573D

 30 32  0  0  1  0  0  0  0  0999 V2000
  161.4820  205.3990  148.0890 C   0  0  0  0  0  2  0  0  0  0  0  0
  161.9170  204.6020  145.6870 N   0  0  0  0  0  0  0  0  0  0  0  0
  160.4480  201.2940  149.1880 C   0  0  0  0  0  2  0  0  0  0  0  0
  161.6770  204.9610  149.5500 C   0  0  2  0  0  3  0  0  0  0  0  0
  160.7220  200.9510  150.6550 C   0  0  0  0  0  2  0  0  0  0  0  0
  160.7060  204.1890  144.9780 C   0  0  0  0  0  2  0  0  0  0  0  0
  162.1140  206.0270  145.4520 C   0  0  0  0  0  1  0  0  0  0  0  0
  161.2530  202.5430  148.8350 C   0  0  2  0  0  3  0  0  0  0  0  0
  160.5570  202.6530  145.0060 C   0  0  0  0  0  2  0  0  0  0  0  0
  161.8540  204.2560  147.1370 C   0  0  2  0  0  3  0  0  0  0  0  0
  160.9090  203.6500  149.8440 C   0  0  1  0  0  3  0  0  0  0  0  0
  160.3110  202.0100  151.4890 O   0  0  0  0  0  0  0  0  0  0  0  0
  161.1760  203.0960  151.2450 C   0  0  0  0  0  2  0  0  0  0  0  0
  161.0710  202.0330  146.3120 C   0  0  0  0  0  2  0  0  0  0  0  0
  160.9450  203.0560  147.4330 C   0  0  1  0  0  3  0  0  0  0  0  0
  161.3200  206.1400  150.4760 C   0  0  1  0  0  3  0  0  0  0  0  0
  163.3060  206.0360  151.8320 O   0  0  0  0  0  0  0  0  0  0  0  0
  162.0470  206.1070  151.7980 C   0  0  0  0  0  0  0  0  0  0  0  0
  161.0380  205.0160  153.6380 O   0  0  0  0  0  0  0  0  0  0  0  0
  161.2940  206.1070  153.0600 C   0  0  0  0  0  0  0  0  0  0  0  0
  160.8600  207.3180  153.6150 O   0  0  0  0  0  0  0  0  0  0  0  0
  159.9450  207.5780  155.8280 C   0  0  0  0  0  1  0  0  0  0  0  0
  161.1800  207.6880  154.9500 C   0  0  0  0  0  2  0  0  0  0  0  0
  161.5020  207.4840  149.7730 C   0  0  0  0  0  2  0  0  0  0  0  0
  162.3010  208.3390  150.5490 O   0  0  0  0  0  0  0  0  0  0  0  0
  161.4850  209.4290  150.8630 C   0  0  0  0  0  2  0  0  0  0  0  0
  161.8780  210.0080  152.1040 O   0  0  0  0  0  0  0  0  0  0  0  0
  159.8100  211.2550  152.3570 O   0  0  0  0  0  0  0  0  0  0  0  0
  161.0120  210.7910  152.8790 C   0  0  0  0  0  0  0  0  0  0  0  0
  161.3140  211.0570  154.0710 O   0  0  0  0  0  1  0  0  0  0  0  0
  1  4  1  0  0  0  0
  2 10  1  0  0  0  0
  3  5  1  0  0  0  0
  4 11  1  0  0  0  0
  4 16  1  1  0  0  0
  5 12  1  0  0  0  0
  6  9  1  0  0  0  0
  6  2  1  0  0  0  0
  7  2  1  0  0  0  0
  8  3  1  1  0  0  0
  8 11  1  0  0  0  0
  9 14  1  0  0  0  0
 10 15  1  0  0  0  0
 10  1  1  1  0  0  0
 11 13  1  1  0  0  0
 13 12  1  0  0  0  0
 15 14  1  6  0  0  0
 15  8  1  0  0  0  0
 16 24  1  6  0  0  0
 16 18  1  0  0  0  0
 18 17  2  0  0  0  0
 18 20  1  0  0  0  0
 20 21  1  0  0  0  0
 20 19  2  0  0  0  0
 21 23  1  0  0  0  0
 23 22  1  0  0  0  0
 24 25  1  0  0  0  0
 25 26  1  0  0  0  0
 26 27  1  0  0  0  0
 27 29  1  0  0  0  0
 28 29  2  0  0  0  0
 29 30  1  0  0  0  0
M  END
>  <MODEL>
4

>  <REMARK>
 VINA RESULT:      -7.0      1.850      2.177
  Name = 
  10 active torsions:
  status: ('A' for Active; 'I' for Inactive)
    1  A    between atoms: C_4  and  C_13
    2  A    between atoms: O_5  and  C_12
    3  A    between atoms: O_5  and  C_21
    4  A    between atoms: O_7  and  C_15
    5  A    between atoms: O_7  and  C_16
    6  A    between atoms: C_8  and  C_12
    7  A    between atoms: C_8  and  C_13
    8  A    between atoms: C_13  and  C_27
    9  A    between atoms: C_16  and  O_30
   10  A    between atoms: C_27  and  O_30
                            x       y       z     vdW  Elec       q    Type
                         _______ _______ _______ _____ _____    ______ ____

>  <TORSDO>
F 10

$$$$
=
 OpenBabel11052421573D

 30 32  0  0  1  0  0  0  0  0999 V2000
  161.0490  206.9920  151.5300 C   0  0  0  0  0  2  0  0  0  0  0  0
  161.4750  207.5660  153.9970 N   0  0  0  0  0  0  0  0  0  0  0  0
  161.8020  211.1750  150.5010 C   0  0  0  0  0  2  0  0  0  0  0  0
  161.5650  207.3160  150.1190 C   0  0  2  0  0  3  0  0  0  0  0  0
  162.3560  211.3810  149.0880 C   0  0  0  0  0  2  0  0  0  0  0  0
  160.4410  208.4160  154.5880 C   0  0  0  0  0  2  0  0  0  0  0  0
  161.0820  206.1760  154.1920 C   0  0  0  0  0  1  0  0  0  0  0  0
  162.0210  209.7130  150.8850 C   0  0  2  0  0  3  0  0  0  0  0  0
  160.8960  209.8900  154.6090 C   0  0  0  0  0  2  0  0  0  0  0  0
  161.7180  207.9050  152.5650 C   0  0  2  0  0  3  0  0  0  0  0  0
  161.3980  208.8210  149.7990 C   0  0  1  0  0  3  0  0  0  0  0  0
  161.6700  210.5600  148.1700 O   0  0  0  0  0  0  0  0  0  0  0  0
  162.0170  209.2250  148.4600 C   0  0  0  0  0  2  0  0  0  0  0  0
  161.7560  210.2610  153.3930 C   0  0  0  0  0  2  0  0  0  0  0  0
  161.3790  209.3620  152.2230 C   0  0  1  0  0  3  0  0  0  0  0  0
  160.8940  206.3630  149.1110 C   0  0  1  0  0  3  0  0  0  0  0  0
  162.9840  206.3680  147.9170 O   0  0  0  0  0  0  0  0  0  0  0  0
  161.7710  206.0220  147.9310 C   0  0  0  0  0  0  0  0  0  0  0  0
  160.5460  205.9770  145.9080 O   0  0  0  0  0  0  0  0  0  0  0  0
  161.2090  205.3290  146.7640 C   0  0  0  0  0  0  0  0  0  0  0  0
  161.4060  203.9510  146.6080 O   0  0  0  0  0  0  0  0  0  0  0  0
  160.5390  201.9810  145.5250 C   0  0  0  0  0  1  0  0  0  0  0  0
  161.2530  203.3100  145.3470 C   0  0  0  0  0  2  0  0  0  0  0  0
  160.3640  205.1030  149.7930 C   0  0  0  0  0  2  0  0  0  0  0  0
  161.3940  204.1670  149.9630 O   0  0  0  0  0  0  0  0  0  0  0  0
  160.9670  203.3230  150.9930 C   0  0  0  0  0  2  0  0  0  0  0  0
  161.1900  201.9590  150.6490 O   0  0  0  0  0  0  0  0  0  0  0  0
  159.3620  201.5520  149.1030 O   0  0  0  0  0  1  0  0  0  0  0  0
  160.6940  201.3880  149.4700 C   0  0  0  0  0  0  0  0  0  0  0  0
  161.4680  200.7390  148.7200 O   0  0  0  0  0  0  0  0  0  0  0  0
  2  7  1  0  0  0  0
  2  6  1  0  0  0  0
  4 16  1  6  0  0  0
  4  1  1  0  0  0  0
  5  3  1  0  0  0  0
  6  9  1  0  0  0  0
  8  3  1  6  0  0  0
  8 15  1  0  0  0  0
 10  1  1  6  0  0  0
 10  2  1  0  0  0  0
 11 13  1  6  0  0  0
 11  4  1  0  0  0  0
 11  8  1  0  0  0  0
 12 13  1  0  0  0  0
 12  5  1  0  0  0  0
 14  9  1  0  0  0  0
 15 10  1  0  0  0  0
 15 14  1  1  0  0  0
 16 24  1  1  0  0  0
 17 18  2  0  0  0  0
 18 16  1  0  0  0  0
 19 20  2  0  0  0  0
 20 18  1  0  0  0  0
 21 20  1  0  0  0  0
 23 22  1  0  0  0  0
 23 21  1  0  0  0  0
 24 25  1  0  0  0  0
 25 26  1  0  0  0  0
 27 26  1  0  0  0  0
 28 29  1  0  0  0  0
 29 27  1  0  0  0  0
 30 29  2  0  0  0  0
M  END
>  <MODEL>
5

>  <REMARK>
 VINA RESULT:      -6.9      2.756      8.256
  Name = 
  10 active torsions:
  status: ('A' for Active; 'I' for Inactive)
    1  A    between atoms: C_4  and  C_13
    2  A    between atoms: O_5  and  C_12
    3  A    between atoms: O_5  and  C_21
    4  A    between atoms: O_7  and  C_15
    5  A    between atoms: O_7  and  C_16
    6  A    between atoms: C_8  and  C_12
    7  A    between atoms: C_8  and  C_13
    8  A    between atoms: C_13  and  C_27
    9  A    between atoms: C_16  and  O_30
   10  A    between atoms: C_27  and  O_30
                            x       y       z     vdW  Elec       q    Type
                         _______ _______ _______ _____ _____    ______ ____

>  <TORSDO>
F 10

$$$$
=
 OpenBabel11052421573D

 30 32  0  0  1  0  0  0  0  0999 V2000
  161.4660  204.3510  150.3090 C   0  0  0  0  0  2  0  0  0  0  0  0
  160.4650  201.9860  150.2920 N   0  0  0  0  0  0  0  0  0  0  0  0
  161.6870  204.2130  145.9440 C   0  0  0  0  0  2  0  0  0  0  0  0
  161.4200  205.6770  149.5320 C   0  0  2  0  0  3  0  0  0  0  0  0
  161.5880  205.5840  145.2680 C   0  0  0  0  0  2  0  0  0  0  0  0
  161.4130  200.9520  149.8750 C   0  0  0  0  0  2  0  0  0  0  0  0
  160.5680  202.1370  151.7370 C   0  0  0  0  0  1  0  0  0  0  0  0
  161.1460  204.3460  147.3660 C   0  0  2  0  0  3  0  0  0  0  0  0
  161.2040  200.5900  148.3900 C   0  0  0  0  0  2  0  0  0  0  0  0
  160.6860  203.2660  149.5570 C   0  0  2  0  0  3  0  0  0  0  0  0
  161.9000  205.4830  148.0740 C   0  0  1  0  0  3  0  0  0  0  0  0
  162.3660  206.5300  145.9670 O   0  0  0  0  0  0  0  0  0  0  0  0
  161.7490  206.7410  147.2160 C   0  0  0  0  0  2  0  0  0  0  0  0
  160.7840  201.7970  147.5400 C   0  0  0  0  0  2  0  0  0  0  0  0
  161.3280  203.0690  148.1780 C   0  0  1  0  0  3  0  0  0  0  0  0
  162.1890  206.7490  150.3280 C   0  0  1  0  0  3  0  0  0  0  0  0
  160.2090  207.9340  151.0140 O   0  0  0  0  0  0  0  0  0  0  0  0
  161.3890  208.0060  150.5720 C   0  0  0  0  0  0  0  0  0  0  0  0
  162.3630  210.0740  151.1780 O   0  0  0  0  0  0  0  0  0  0  0  0
  161.9570  209.3220  150.2500 C   0  0  0  0  0  0  0  0  0  0  0  0
  162.0410  209.7400  148.9160 O   0  0  0  0  0  0  0  0  0  0  0  0
  162.7890  211.9330  148.2570 C   0  0  0  0  0  1  0  0  0  0  0  0
  161.5950  211.0250  148.5040 C   0  0  0  0  0  2  0  0  0  0  0  0
  162.7540  206.1870  151.6310 C   0  0  0  0  0  2  0  0  0  0  0  0
  162.2830  206.9240  152.7280 O   0  0  0  0  0  0  0  0  0  0  0  0
  161.5840  206.0090  153.5210 C   0  0  0  0  0  2  0  0  0  0  0  0
  160.6550  206.6840  154.3650 O   0  0  0  0  0  0  0  0  0  0  0  0
  161.6440  208.1330  156.0430 O   0  0  0  0  0  1  0  0  0  0  0  0
  160.8990  207.9630  154.8820 C   0  0  0  0  0  0  0  0  0  0  0  0
  160.4580  208.9730  154.2740 O   0  0  0  0  0  0  0  0  0  0  0  0
  2  7  1  0  0  0  0
  4  1  1  0  0  0  0
  4 16  1  1  0  0  0
  5  3  1  0  0  0  0
  5 12  1  0  0  0  0
  6  2  1  0  0  0  0
  8  3  1  6  0  0  0
  8 11  1  0  0  0  0
  8 15  1  0  0  0  0
  9  6  1  0  0  0  0
 10  2  1  0  0  0  0
 10  1  1  1  0  0  0
 11 13  1  6  0  0  0
 11  4  1  0  0  0  0
 12 13  1  0  0  0  0
 14  9  1  0  0  0  0
 15 14  1  6  0  0  0
 15 10  1  0  0  0  0
 16 18  1  0  0  0  0
 16 24  1  1  0  0  0
 18 17  2  0  0  0  0
 20 18  1  0  0  0  0
 20 19  2  0  0  0  0
 21 20  1  0  0  0  0
 22 23  1  0  0  0  0
 23 21  1  0  0  0  0
 24 25  1  0  0  0  0
 25 26  1  0  0  0  0
 26 27  1  0  0  0  0
 27 29  1  0  0  0  0
 29 28  1  0  0  0  0
 30 29  2  0  0  0  0
M  END
>  <MODEL>
6

>  <REMARK>
 VINA RESULT:      -6.9      1.937      5.229
  Name = 
  10 active torsions:
  status: ('A' for Active; 'I' for Inactive)
    1  A    between atoms: C_4  and  C_13
    2  A    between atoms: O_5  and  C_12
    3  A    between atoms: O_5  and  C_21
    4  A    between atoms: O_7  and  C_15
    5  A    between atoms: O_7  and  C_16
    6  A    between atoms: C_8  and  C_12
    7  A    between atoms: C_8  and  C_13
    8  A    between atoms: C_13  and  C_27
    9  A    between atoms: C_16  and  O_30
   10  A    between atoms: C_27  and  O_30
                            x       y       z     vdW  Elec       q    Type
                         _______ _______ _______ _____ _____    ______ ____

>  <TORSDO>
F 10

$$$$
=
 OpenBabel11052421573D

 30 32  0  0  1  0  0  0  0  0999 V2000
  161.1110  206.9490  152.8530 C   0  0  0  0  0  2  0  0  0  0  0  0
  160.9480  208.3120  155.0240 N   0  0  0  0  0  0  0  0  0  0  0  0
  161.5320  210.6870  150.6220 C   0  0  0  0  0  2  0  0  0  0  0  0
  161.8610  206.9200  151.5110 C   0  0  2  0  0  3  0  0  0  0  0  0
  162.3330  210.5540  149.3230 C   0  0  0  0  0  2  0  0  0  0  0  0
  159.7170  209.0960  155.1330 C   0  0  0  0  0  2  0  0  0  0  0  0
  160.7000  207.0000  155.6060 C   0  0  0  0  0  1  0  0  0  0  0  0
  161.8480  209.4770  151.4990 C   0  0  2  0  0  3  0  0  0  0  0  0
  159.9720  210.5640  154.7320 C   0  0  0  0  0  2  0  0  0  0  0  0
  161.4350  208.2400  153.6150 C   0  0  2  0  0  3  0  0  0  0  0  0
  161.5760  208.1990  150.6880 C   0  0  1  0  0  3  0  0  0  0  0  0
  161.9570  209.3810  148.6360 O   0  0  0  0  0  0  0  0  0  0  0  0
  162.4010  208.2850  149.4030 C   0  0  0  0  0  2  0  0  0  0  0  0
  161.0090  210.7010  153.6100 C   0  0  0  0  0  2  0  0  0  0  0  0
  160.9950  209.4360  152.7610 C   0  0  1  0  0  3  0  0  0  0  0  0
  161.5330  205.5990  150.7860 C   0  0  1  0  0  3  0  0  0  0  0  0
  160.9490  204.6920  152.9380 O   0  0  0  0  0  0  0  0  0  0  0  0
  161.2130  204.4620  151.7260 C   0  0  0  0  0  0  0  0  0  0  0  0
  162.1780  202.3050  151.6370 O   0  0  0  0  0  0  0  0  0  0  0  0
  161.2540  203.0730  151.2510 C   0  0  0  0  0  0  0  0  0  0  0  0
  160.2720  202.6060  150.3690 O   0  0  0  0  0  0  0  0  0  0  0  0
  161.2030  201.7060  148.3370 C   0  0  0  0  0  1  0  0  0  0  0  0
  160.4450  201.4090  149.6200 C   0  0  0  0  0  2  0  0  0  0  0  0
  160.4340  205.7870  149.7430 C   0  0  0  0  0  2  0  0  0  0  0  0
  160.8320  205.2480  148.5090 O   0  0  0  0  0  0  0  0  0  0  0  0
  160.4720  206.2020  147.5520 C   0  0  0  0  0  2  0  0  0  0  0  0
  161.2090  206.0070  146.3480 O   0  0  0  0  0  0  0  0  0  0  0  0
  161.2340  203.7400  145.4780 O   0  0  0  0  0  0  0  0  0  0  0  0
  161.8900  204.8150  146.0670 C   0  0  0  0  0  0  0  0  0  0  0  0
  163.1180  204.7250  146.3280 O   0  0  0  0  0  1  0  0  0  0  0  0
  2  6  1  0  0  0  0
  2  7  1  0  0  0  0
  4 16  1  6  0  0  0
  4  1  1  0  0  0  0
  5  3  1  0  0  0  0
  8  3  1  6  0  0  0
  8 15  1  0  0  0  0
  9  6  1  0  0  0  0
 10  1  1  6  0  0  0
 10  2  1  0  0  0  0
 11 13  1  6  0  0  0
 11  8  1  0  0  0  0
 11  4  1  0  0  0  0
 12  5  1  0  0  0  0
 12 13  1  0  0  0  0
 14  9  1  0  0  0  0
 15 14  1  1  0  0  0
 15 10  1  0  0  0  0
 16 24  1  6  0  0  0
 16 18  1  0  0  0  0
 18 17  2  0  0  0  0
 20 19  2  0  0  0  0
 20 18  1  0  0  0  0
 21 20  1  0  0  0  0
 22 23  1  0  0  0  0
 23 21  1  0  0  0  0
 25 24  1  0  0  0  0
 26 25  1  0  0  0  0
 27 26  1  0  0  0  0
 28 29  2  0  0  0  0
 29 30  1  0  0  0  0
 29 27  1  0  0  0  0
M  END
>  <MODEL>
7

>  <REMARK>
 VINA RESULT:      -6.5      3.041      7.552
  Name = 
  10 active torsions:
  status: ('A' for Active; 'I' for Inactive)
    1  A    between atoms: C_4  and  C_13
    2  A    between atoms: O_5  and  C_12
    3  A    between atoms: O_5  and  C_21
    4  A    between atoms: O_7  and  C_15
    5  A    between atoms: O_7  and  C_16
    6  A    between atoms: C_8  and  C_12
    7  A    between atoms: C_8  and  C_13
    8  A    between atoms: C_13  and  C_27
    9  A    between atoms: C_16  and  O_30
   10  A    between atoms: C_27  and  O_30
                            x       y       z     vdW  Elec       q    Type
                         _______ _______ _______ _____ _____    ______ ____

>  <TORSDO>
F 10

$$$$
=
 OpenBabel11052421573D

 30 32  0  0  1  0  0  0  0  0999 V2000
  160.9120  204.3060  150.4740 C   0  0  0  0  0  2  0  0  0  0  0  0
  160.3080  201.8230  150.2210 N   0  0  0  0  0  0  0  0  0  0  0  0
  161.7610  204.4630  146.1870 C   0  0  0  0  0  2  0  0  0  0  0  0
  160.7680  205.6540  149.7490 C   0  0  2  0  0  3  0  0  0  0  0  0
  161.5420  205.8420  145.5560 C   0  0  0  0  0  2  0  0  0  0  0  0
  161.4540  200.9690  149.9110 C   0  0  0  0  0  2  0  0  0  0  0  0
  160.1830  201.9010  151.6710 C   0  0  0  0  0  1  0  0  0  0  0  0
  161.0120  204.4280  147.5180 C   0  0  2  0  0  3  0  0  0  0  0  0
  161.5150  200.6690  148.3990 C   0  0  0  0  0  2  0  0  0  0  0  0
  160.4250  203.1630  149.5750 C   0  0  2  0  0  3  0  0  0  0  0  0
  161.4720  205.6210  148.3710 C   0  0  1  0  0  3  0  0  0  0  0  0
  162.0570  206.8500  146.3960 O   0  0  0  0  0  0  0  0  0  0  0  0
  161.2460  206.8910  147.5480 C   0  0  0  0  0  2  0  0  0  0  0  0
  161.0340  201.8480  147.5410 C   0  0  0  0  0  2  0  0  0  0  0  0
  161.2770  203.1460  148.2990 C   0  0  1  0  0  3  0  0  0  0  0  0
  161.2410  206.7800  150.6890 C   0  0  1  0  0  3  0  0  0  0  0  0
  163.1610  205.9000  151.8440 O   0  0  0  0  0  0  0  0  0  0  0  0
  161.9580  206.2740  151.9170 C   0  0  0  0  0  0  0  0  0  0  0  0
  161.1400  205.0410  153.7620 O   0  0  0  0  0  0  0  0  0  0  0  0
  161.2490  206.1650  153.1990 C   0  0  0  0  0  0  0  0  0  0  0  0
  160.6940  207.3070  153.7910 O   0  0  0  0  0  0  0  0  0  0  0  0
  159.9190  207.3890  156.0700 C   0  0  0  0  0  1  0  0  0  0  0  0
  161.0470  207.7160  155.1060 C   0  0  0  0  0  2  0  0  0  0  0  0
  162.0740  207.8220  149.9460 C   0  0  0  0  0  2  0  0  0  0  0  0
  162.6980  208.6900  150.8560 O   0  0  0  0  0  0  0  0  0  0  0  0
  162.0340  209.9130  150.7210 C   0  0  0  0  0  2  0  0  0  0  0  0
  161.8890  210.5470  151.9880 O   0  0  0  0  0  0  0  0  0  0  0  0
  160.3820  212.1170  153.0650 O   0  0  0  0  0  1  0  0  0  0  0  0
  160.6370  210.8570  152.5370 C   0  0  0  0  0  0  0  0  0  0  0  0
  159.7240  209.9910  152.5300 O   0  0  0  0  0  0  0  0  0  0  0  0
  2  7  1  0  0  0  0
  4  1  1  0  0  0  0
  4 16  1  1  0  0  0
  5  3  1  0  0  0  0
  5 12  1  0  0  0  0
  6  2  1  0  0  0  0
  8  3  1  6  0  0  0
  8 15  1  0  0  0  0
  8 11  1  0  0  0  0
  9  6  1  0  0  0  0
 10  2  1  0  0  0  0
 10  1  1  1  0  0  0
 11 13  1  6  0  0  0
 11  4  1  0  0  0  0
 12 13  1  0  0  0  0
 14  9  1  0  0  0  0
 15 14  1  6  0  0  0
 15 10  1  0  0  0  0
 16 24  1  6  0  0  0
 16 18  1  0  0  0  0
 17 18  2  0  0  0  0
 18 20  1  0  0  0  0
 20 19  2  0  0  0  0
 20 21  1  0  0  0  0
 21 23  1  0  0  0  0
 23 22  1  0  0  0  0
 24 25  1  0  0  0  0
 26 25  1  0  0  0  0
 26 27  1  0  0  0  0
 27 29  1  0  0  0  0
 29 28  1  0  0  0  0
 30 29  2  0  0  0  0
M  END
>  <MODEL>
8

>  <REMARK>
 VINA RESULT:      -6.4      2.146      3.766
  Name = 
  10 active torsions:
  status: ('A' for Active; 'I' for Inactive)
    1  A    between atoms: C_4  and  C_13
    2  A    between atoms: O_5  and  C_12
    3  A    between atoms: O_5  and  C_21
    4  A    between atoms: O_7  and  C_15
    5  A    between atoms: O_7  and  C_16
    6  A    between atoms: C_8  and  C_12
    7  A    between atoms: C_8  and  C_13
    8  A    between atoms: C_13  and  C_27
    9  A    between atoms: C_16  and  O_30
   10  A    between atoms: C_27  and  O_30
                            x       y       z     vdW  Elec       q    Type
                         _______ _______ _______ _____ _____    ______ ____

>  <TORSDO>
F 10

$$$$
=
 OpenBabel11052421573D

 30 32  0  0  1  0  0  0  0  0999 V2000
  161.4860  204.9900  150.0320 C   0  0  0  0  0  2  0  0  0  0  0  0
  160.4470  202.7290  150.6680 N   0  0  0  0  0  0  0  0  0  0  0  0
  161.8050  203.6000  145.8980 C   0  0  0  0  0  2  0  0  0  0  0  0
  161.4800  206.0360  148.9060 C   0  0  2  0  0  3  0  0  0  0  0  0
  161.7440  204.7200  144.8550 C   0  0  0  0  0  2  0  0  0  0  0  0
  161.3860  201.6090  150.5920 C   0  0  0  0  0  2  0  0  0  0  0  0
  160.5190  203.2880  152.0120 C   0  0  0  0  0  1  0  0  0  0  0  0
  161.2340  204.1410  147.2070 C   0  0  2  0  0  3  0  0  0  0  0  0
  161.2060  200.8380  149.2680 C   0  0  0  0  0  2  0  0  0  0  0  0
  160.7060  203.7410  149.6030 C   0  0  2  0  0  3  0  0  0  0  0  0
  161.9900  205.4260  147.5790 C   0  0  1  0  0  3  0  0  0  0  0  0
  162.5220  205.8190  145.2730 O   0  0  0  0  0  0  0  0  0  0  0  0
  161.8790  206.3860  146.3920 C   0  0  0  0  0  2  0  0  0  0  0  0
  160.8250  201.7530  148.0960 C   0  0  0  0  0  2  0  0  0  0  0  0
  161.3760  203.1500  148.3560 C   0  0  1  0  0  3  0  0  0  0  0  0
  162.2480  207.2850  149.3810 C   0  0  1  0  0  3  0  0  0  0  0  0
  160.8990  208.5480  147.8390 O   0  0  0  0  0  0  0  0  0  0  0  0
  161.7250  208.5720  148.7920 C   0  0  0  0  0  0  0  0  0  0  0  0
  162.3320  210.0580  150.5300 O   0  0  0  0  0  0  0  0  0  0  0  0
  162.2110  209.8670  149.2880 C   0  0  0  0  0  0  0  0  0  0  0  0
  162.5340  210.8860  148.3830 O   0  0  0  0  0  0  0  0  0  0  0  0
  161.1350  212.4170  147.1570 C   0  0  0  0  0  1  0  0  0  0  0  0
  161.9110  212.1630  148.4390 C   0  0  0  0  0  2  0  0  0  0  0  0
  162.3190  207.3570  150.9050 C   0  0  0  0  0  2  0  0  0  0  0  0
  161.0280  207.3600  151.4560 O   0  0  0  0  0  0  0  0  0  0  0  0
  161.2110  207.5010  152.8350 C   0  0  0  0  0  2  0  0  0  0  0  0
  160.6190  208.7110  153.2990 O   0  0  0  0  0  0  0  0  0  0  0  0
  161.9980  210.5220  154.1450 O   0  0  0  0  0  0  0  0  0  0  0  0
  161.1460  209.4460  154.3690 C   0  0  0  0  0  0  0  0  0  0  0  0
  160.8250  209.1440  155.5470 O   0  0  0  0  0  1  0  0  0  0  0  0
  2  7  1  0  0  0  0
  4 16  1  1  0  0  0
  4  1  1  0  0  0  0
  5 12  1  0  0  0  0
  5  3  1  0  0  0  0
  6  2  1  0  0  0  0
  8  3  1  6  0  0  0
  8 11  1  0  0  0  0
  8 15  1  0  0  0  0
  9  6  1  0  0  0  0
 10  1  1  1  0  0  0
 10  2  1  0  0  0  0
 11 13  1  6  0  0  0
 11  4  1  0  0  0  0
 12 13  1  0  0  0  0
 14  9  1  0  0  0  0
 15 14  1  6  0  0  0
 15 10  1  0  0  0  0
 16 24  1  1  0  0  0
 17 18  2  0  0  0  0
 18 20  1  0  0  0  0
 18 16  1  0  0  0  0
 20 19  2  0  0  0  0
 21 23  1  0  0  0  0
 21 20  1  0  0  0  0
 22 23  1  0  0  0  0
 24 25  1  0  0  0  0
 25 26  1  0  0  0  0
 26 27  1  0  0  0  0
 27 29  1  0  0  0  0
 28 29  2  0  0  0  0
 29 30  1  0  0  0  0
M  END
>  <MODEL>
9

>  <REMARK>
 VINA RESULT:      -6.4      1.936      5.138
  Name = 
  10 active torsions:
  status: ('A' for Active; 'I' for Inactive)
    1  A    between atoms: C_4  and  C_13
    2  A    between atoms: O_5  and  C_12
    3  A    between atoms: O_5  and  C_21
    4  A    between atoms: O_7  and  C_15
    5  A    between atoms: O_7  and  C_16
    6  A    between atoms: C_8  and  C_12
    7  A    between atoms: C_8  and  C_13
    8  A    between atoms: C_13  and  C_27
    9  A    between atoms: C_16  and  O_30
   10  A    between atoms: C_27  and  O_30
                            x       y       z     vdW  Elec       q    Type
                         _______ _______ _______ _____ _____    ______ ____

>  <TORSDO>
F 10

$$$$
