=
 OpenBabel11052423183D

 27 30  0  0  1  0  0  0  0  0999 V2000
  161.2220  209.4380  154.7280 C   0  0  0  0  0  2  0  0  0  0  0  0
  160.9140  210.2520  152.3870 C   0  0  0  0  0  0  0  0  0  0  0  0
  158.7930  211.0090  153.4110 N   0  0  0  0  0  0  0  0  0  0  0  0
  161.8550  210.3630  151.4120 N   0  0  0  0  0  0  0  0  0  0  0  0
  157.6540  212.0630  156.2040 C   0  0  0  0  0  2  0  0  0  0  0  0
  158.9100  212.4570  156.9860 C   0  0  0  0  0  2  0  0  0  0  0  0
  159.7650  212.1890  151.4580 C   0  0  0  0  0  0  0  0  0  0  0  0
  160.9860  209.1580  153.3120 N   0  0  0  0  0  0  0  0  0  0  0  0
  160.7620  212.2580  150.4710 C   0  0  0  0  0  0  0  0  0  0  0  0
  160.2760  210.4860  155.3090 C   0  0  1  0  0  3  0  0  0  0  0  0
  159.8410  211.1670  152.4390 C   0  0  0  0  0  0  0  0  0  0  0  0
  157.7610  210.6780  155.5600 C   0  0  0  0  0  2  0  0  0  0  0  0
  161.8060  211.3370  150.4720 C   0  0  0  0  0  3  0  0  0  0  0  0
  160.0050  212.9430  156.0350 C   0  0  0  0  0  2  0  0  0  0  0  0
  160.9590  211.8310  155.5700 C   0  0  0  0  0  2  0  0  0  0  0  0
  158.9340  210.6160  154.6430 C   0  0  0  0  0  0  0  0  0  0  0  0
  161.1540  205.1410  151.9110 C   0  0  0  0  0  3  0  0  0  0  0  0
  161.0290  207.7950  152.8390 C   0  0  0  0  0  0  0  0  0  0  0  0
  161.1340  206.7230  153.7420 C   0  0  0  0  0  3  0  0  0  0  0  0
  161.1950  205.4050  153.2820 C   0  0  0  0  0  3  0  0  0  0  0  0
  161.0540  206.1950  151.0010 C   0  0  0  0  0  3  0  0  0  0  0  0
  160.9950  207.5130  151.4620 C   0  0  0  0  0  3  0  0  0  0  0  0
  158.7420  213.1540  151.4170 O   0  0  0  0  0  0  0  0  0  0  0  0
  158.6510  214.2940  152.2590 C   0  0  0  0  0  1  0  0  0  0  0  0
  160.7490  213.3360  149.4380 C   0  0  0  0  0  2  0  0  0  0  0  0
  160.5630  212.8610  147.2920 C   0  0  0  0  0  1  0  0  0  0  0  0
  161.4920  212.9320  148.3290 O   0  0  0  0  0  0  0  0  0  0  0  0
  2 11  1  0  0  0  0
  2  8  1  0  0  0  0
  3 16  2  0  0  0  0
  4  2  2  0  0  0  0
  5  6  1  0  0  0  0
  7 11  2  0  0  0  0
  8  1  1  0  0  0  0
  9 13  2  0  0  0  0
  9  7  1  0  0  0  0
 10  1  1  6  0  0  0
 10 15  1  0  0  0  0
 11  3  1  0  0  0  0
 12  5  1  0  0  0  0
 13  4  1  0  0  0  0
 14  6  1  0  0  0  0
 15 14  1  0  0  0  0
 16 10  1  0  0  0  0
 16 12  1  0  0  0  0
 17 20  1  0  0  0  0
 18  8  1  0  0  0  0
 18 19  1  0  0  0  0
 20 19  2  0  0  0  0
 21 22  1  0  0  0  0
 21 17  2  0  0  0  0
 22 18  2  0  0  0  0
 23  7  1  0  0  0  0
 23 24  1  0  0  0  0
 25  9  1  0  0  0  0
 26 27  1  0  0  0  0
 27 25  1  0  0  0  0
M  END
>  <MODEL>
1

>  <REMARK>
 VINA RESULT:      -5.3      0.000      0.000
  Name = 
  4 active torsions:
  status: ('A' for Active; 'I' for Inactive)
    1  A    between atoms: C_4  and  O_16
    2  A    between atoms: C_4  and  C_17
    3  A    between atoms: O_8  and  C_14
    4  A    between atoms: C_9  and  N_15
                            x       y       z     vdW  Elec       q    Type
                         _______ _______ _______ _____ _____    ______ ____

>  <TORSDO>
F 4

$$$$
=
 OpenBabel11052423183D

 27 30  0  0  1  0  0  0  0  0999 V2000
  162.7620  207.7690  148.5260 C   0  0  0  0  0  2  0  0  0  0  0  0
  161.7430  206.2910  150.2630 C   0  0  0  0  0  0  0  0  0  0  0  0
  160.3460  205.7160  148.3060 N   0  0  0  0  0  0  0  0  0  0  0  0
  162.2480  205.9690  151.4850 N   0  0  0  0  0  0  0  0  0  0  0  0
  160.5630  205.4390  145.1290 C   0  0  0  0  0  2  0  0  0  0  0  0
  162.0720  205.3780  144.8700 C   0  0  0  0  0  2  0  0  0  0  0  0
  160.7020  204.0930  150.1460 C   0  0  0  0  0  0  0  0  0  0  0  0
  161.9600  207.6090  149.7390 N   0  0  0  0  0  0  0  0  0  0  0  0
  161.2440  203.8100  151.4100 C   0  0  0  0  0  0  0  0  0  0  0  0
  162.3150  206.8690  147.3760 C   0  0  1  0  0  3  0  0  0  0  0  0
  160.9570  205.3570  149.5560 C   0  0  0  0  0  0  0  0  0  0  0  0
  160.1640  206.5810  146.0670 C   0  0  0  0  0  2  0  0  0  0  0  0
  162.0240  204.7630  152.0600 C   0  0  0  0  0  3  0  0  0  0  0  0
  162.7920  204.7160  146.0460 C   0  0  0  0  0  2  0  0  0  0  0  0
  163.2790  205.7100  147.1120 C   0  0  0  0  0  2  0  0  0  0  0  0
  160.8690  206.4580  147.3730 C   0  0  0  0  0  0  0  0  0  0  0  0
  160.8470  211.0460  151.9910 C   0  0  0  0  0  3  0  0  0  0  0  0
  161.5710  208.7750  150.4940 C   0  0  0  0  0  0  0  0  0  0  0  0
  161.9450  210.0640  150.0710 C   0  0  0  0  0  3  0  0  0  0  0  0
  161.5840  211.1910  150.8130 C   0  0  0  0  0  3  0  0  0  0  0  0
  160.4730  209.7730  152.4270 C   0  0  0  0  0  3  0  0  0  0  0  0
  160.8350  208.6450  151.6850 C   0  0  0  0  0  3  0  0  0  0  0  0
  159.9340  203.0870  149.5300 O   0  0  0  0  0  0  0  0  0  0  0  0
  160.3370  202.3130  148.4100 C   0  0  0  0  0  1  0  0  0  0  0  0
  161.0370  202.4820  152.0580 C   0  0  0  0  0  2  0  0  0  0  0  0
  161.2980  200.6750  150.8200 C   0  0  0  0  0  1  0  0  0  0  0  0
  162.0050  201.5830  151.6060 O   0  0  0  0  0  0  0  0  0  0  0  0
  1  8  1  0  0  0  0
  2  4  1  0  0  0  0
  3 11  1  0  0  0  0
  4 13  2  0  0  0  0
  5 12  1  0  0  0  0
  6  5  1  0  0  0  0
  6 14  1  0  0  0  0
  7  9  2  0  0  0  0
  8  2  1  0  0  0  0
  8 18  1  0  0  0  0
  9 25  1  0  0  0  0
  9 13  1  0  0  0  0
 10 15  1  1  0  0  0
 10  1  1  0  0  0  0
 11  7  1  0  0  0  0
 11  2  2  0  0  0  0
 12 16  1  0  0  0  0
 14 15  1  0  0  0  0
 16 10  1  0  0  0  0
 16  3  2  0  0  0  0
 17 21  1  0  0  0  0
 18 22  1  0  0  0  0
 19 18  2  0  0  0  0
 19 20  1  0  0  0  0
 20 17  2  0  0  0  0
 22 21  2  0  0  0  0
 23  7  1  0  0  0  0
 24 23  1  0  0  0  0
 26 27  1  0  0  0  0
 27 25  1  0  0  0  0
M  END
>  <MODEL>
2

>  <REMARK>
 VINA RESULT:      -4.5      4.543      8.906
  Name = 
  4 active torsions:
  status: ('A' for Active; 'I' for Inactive)
    1  A    between atoms: C_4  and  O_16
    2  A    between atoms: C_4  and  C_17
    3  A    between atoms: O_8  and  C_14
    4  A    between atoms: C_9  and  N_15
                            x       y       z     vdW  Elec       q    Type
                         _______ _______ _______ _____ _____    ______ ____

>  <TORSDO>
F 4

$$$$
=
 OpenBabel11052423183D

 27 30  0  0  1  0  0  0  0  0999 V2000
  158.4350  212.4920  152.4910 C   0  0  0  0  0  2  0  0  0  0  0  0
  160.1430  210.6740  152.6170 C   0  0  0  0  0  0  0  0  0  0  0  0
  160.4880  211.7700  154.8070 N   0  0  0  0  0  0  0  0  0  0  0  0
  160.2560  209.5790  151.8180 N   0  0  0  0  0  0  0  0  0  0  0  0
  158.8390  213.3090  157.0700 C   0  0  0  0  0  2  0  0  0  0  0  0
  157.3790  212.9600  156.7600 C   0  0  0  0  0  2  0  0  0  0  0  0
  161.0230  209.3710  154.4770 C   0  0  0  0  0  0  0  0  0  0  0  0
  159.7050  211.9160  152.0480 N   0  0  0  0  0  0  0  0  0  0  0  0
  161.1220  208.2710  153.6100 C   0  0  0  0  0  0  0  0  0  0  0  0
  158.3080  212.5960  154.0090 C   0  0  1  0  0  3  0  0  0  0  0  0
  160.5210  210.5990  153.9740 C   0  0  0  0  0  0  0  0  0  0  0  0
  159.6190  213.7650  155.8350 C   0  0  0  0  0  2  0  0  0  0  0  0
  160.7230  208.3960  152.2820 C   0  0  0  0  0  3  0  0  0  0  0  0
  157.2810  211.5670  156.1360 C   0  0  0  0  0  2  0  0  0  0  0  0
  157.3340  211.5730  154.6000 C   0  0  0  0  0  2  0  0  0  0  0  0
  159.5920  212.7140  154.7800 C   0  0  0  0  0  0  0  0  0  0  0  0
  161.7030  213.6010  148.6880 C   0  0  0  0  0  3  0  0  0  0  0  0
  160.3920  212.4920  150.9180 C   0  0  0  0  0  0  0  0  0  0  0  0
  160.1680  213.8300  150.5450 C   0  0  0  0  0  3  0  0  0  0  0  0
  160.8200  214.3810  149.4390 C   0  0  0  0  0  3  0  0  0  0  0  0
  161.9320  212.2700  149.0430 C   0  0  0  0  0  3  0  0  0  0  0  0
  161.2790  211.7190  150.1490 C   0  0  0  0  0  3  0  0  0  0  0  0
  161.4260  209.1840  155.8130 O   0  0  0  0  0  0  0  0  0  0  0  0
  160.5530  209.0130  156.9200 C   0  0  0  0  0  1  0  0  0  0  0  0
  161.6080  206.9470  154.0980 C   0  0  0  0  0  2  0  0  0  0  0  0
  161.2470  205.0670  153.0020 C   0  0  0  0  0  1  0  0  0  0  0  0
  162.0720  206.1910  153.0210 O   0  0  0  0  0  0  0  0  0  0  0  0
  2 11  1  0  0  0  0
  4 13  1  0  0  0  0
  4  2  2  0  0  0  0
  6  5  1  0  0  0  0
  7 23  1  0  0  0  0
  8  1  1  0  0  0  0
  8  2  1  0  0  0  0
  9 25  1  0  0  0  0
  9  7  1  0  0  0  0
 10  1  1  6  0  0  0
 10 15  1  0  0  0  0
 10 16  1  0  0  0  0
 11  7  2  0  0  0  0
 11  3  1  0  0  0  0
 12  5  1  0  0  0  0
 13  9  2  0  0  0  0
 14  6  1  0  0  0  0
 15 14  1  0  0  0  0
 16  3  2  0  0  0  0
 16 12  1  0  0  0  0
 17 21  2  0  0  0  0
 17 20  1  0  0  0  0
 18  8  1  0  0  0  0
 19 18  1  0  0  0  0
 20 19  2  0  0  0  0
 21 22  1  0  0  0  0
 22 18  2  0  0  0  0
 23 24  1  0  0  0  0
 26 27  1  0  0  0  0
 27 25  1  0  0  0  0
M  END
>  <MODEL>
3

>  <REMARK>
 VINA RESULT:      -4.3      2.372      5.470
  Name = 
  4 active torsions:
  status: ('A' for Active; 'I' for Inactive)
    1  A    between atoms: C_4  and  O_16
    2  A    between atoms: C_4  and  C_17
    3  A    between atoms: O_8  and  C_14
    4  A    between atoms: C_9  and  N_15
                            x       y       z     vdW  Elec       q    Type
                         _______ _______ _______ _____ _____    ______ ____

>  <TORSDO>
F 4

$$$$
=
 OpenBabel11052423183D

 27 30  0  0  1  0  0  0  0  0999 V2000
  162.5690  211.1460  140.2710 C   0  0  0  0  0  2  0  0  0  0  0  0
  160.4420  211.0540  138.9650 C   0  0  0  0  0  0  0  0  0  0  0  0
  159.5630  211.5280  141.2270 N   0  0  0  0  0  0  0  0  0  0  0  0
  160.2910  211.0840  137.6130 N   0  0  0  0  0  0  0  0  0  0  0  0
  160.3630  213.0940  143.8950 C   0  0  0  0  0  2  0  0  0  0  0  0
  161.4900  214.0290  143.4460 C   0  0  0  0  0  2  0  0  0  0  0  0
  158.3180  212.2230  139.1990 C   0  0  0  0  0  0  0  0  0  0  0  0
  161.5710  210.3740  139.5310 N   0  0  0  0  0  0  0  0  0  0  0  0
  158.2090  212.2250  137.7990 C   0  0  0  0  0  0  0  0  0  0  0  0
  161.9690  212.0440  141.3500 C   0  0  1  0  0  3  0  0  0  0  0  0
  159.4580  211.6280  139.7970 C   0  0  0  0  0  0  0  0  0  0  0  0
  160.5560  211.6530  143.4160 C   0  0  0  0  0  2  0  0  0  0  0  0
  159.2150  211.6560  137.0230 C   0  0  0  0  0  3  0  0  0  0  0  0
  161.2930  214.4460  141.9880 C   0  0  0  0  0  2  0  0  0  0  0  0
  162.0040  213.5290  140.9800 C   0  0  0  0  0  2  0  0  0  0  0  0
  160.6550  211.6030  141.9310 C   0  0  0  0  0  0  0  0  0  0  0  0
  162.3030  206.2850  138.5950 C   0  0  0  0  0  3  0  0  0  0  0  0
  161.8330  208.9910  139.2120 C   0  0  0  0  0  0  0  0  0  0  0  0
  161.8850  208.5580  137.8750 C   0  0  0  0  0  3  0  0  0  0  0  0
  162.1200  207.2150  137.5680 C   0  0  0  0  0  3  0  0  0  0  0  0
  162.2500  206.6990  139.9280 C   0  0  0  0  0  3  0  0  0  0  0  0
  162.0140  208.0420  140.2340 C   0  0  0  0  0  3  0  0  0  0  0  0
  157.2790  212.8260  139.9320 O   0  0  0  0  0  0  0  0  0  0  0  0
  157.3850  214.0370  140.6660 C   0  0  0  0  0  1  0  0  0  0  0  0
  157.0490  212.8710  137.1180 C   0  0  0  0  0  2  0  0  0  0  0  0
  154.8650  212.8770  137.4320 C   0  0  0  0  0  1  0  0  0  0  0  0
  155.9390  212.0260  137.1770 O   0  0  0  0  0  0  0  0  0  0  0  0
  2  8  1  0  0  0  0
  2 11  1  0  0  0  0
  3 16  2  0  0  0  0
  4  2  2  0  0  0  0
  6  5  1  0  0  0  0
  7 11  2  0  0  0  0
  7 23  1  0  0  0  0
  8  1  1  0  0  0  0
  9  7  1  0  0  0  0
 10  1  1  6  0  0  0
 10 16  1  0  0  0  0
 11  3  1  0  0  0  0
 12  5  1  0  0  0  0
 13  4  1  0  0  0  0
 13  9  2  0  0  0  0
 14  6  1  0  0  0  0
 15 10  1  0  0  0  0
 15 14  1  0  0  0  0
 16 12  1  0  0  0  0
 17 21  1  0  0  0  0
 18  8  1  0  0  0  0
 18 22  1  0  0  0  0
 19 18  2  0  0  0  0
 20 19  1  0  0  0  0
 20 17  2  0  0  0  0
 21 22  2  0  0  0  0
 23 24  1  0  0  0  0
 25 27  1  0  0  0  0
 25  9  1  0  0  0  0
 27 26  1  0  0  0  0
M  END
>  <MODEL>
4

>  <REMARK>
 VINA RESULT:      -4.0     10.324     13.245
  Name = 
  4 active torsions:
  status: ('A' for Active; 'I' for Inactive)
    1  A    between atoms: C_4  and  O_16
    2  A    between atoms: C_4  and  C_17
    3  A    between atoms: O_8  and  C_14
    4  A    between atoms: C_9  and  N_15
                            x       y       z     vdW  Elec       q    Type
                         _______ _______ _______ _____ _____    ______ ____

>  <TORSDO>
F 4

$$$$
=
 OpenBabel11052423183D

 27 30  0  0  1  0  0  0  0  0999 V2000
  161.9920  206.6680  153.9290 C   0  0  0  0  0  2  0  0  0  0  0  0
  161.5190  208.1150  151.9490 C   0  0  0  0  0  0  0  0  0  0  0  0
  159.7760  208.9080  153.5130 N   0  0  0  0  0  0  0  0  0  0  0  0
  162.3090  208.3250  150.8620 N   0  0  0  0  0  0  0  0  0  0  0  0
  159.3020  209.3520  156.6420 C   0  0  0  0  0  2  0  0  0  0  0  0
  160.7140  209.3140  157.2350 C   0  0  0  0  0  2  0  0  0  0  0  0
  160.6730  210.3890  151.7390 C   0  0  0  0  0  0  0  0  0  0  0  0
  161.4970  206.8170  152.5600 N   0  0  0  0  0  0  0  0  0  0  0  0
  161.5070  210.5550  150.6210 C   0  0  0  0  0  0  0  0  0  0  0  0
  161.3790  207.6640  154.9110 C   0  0  1  0  0  3  0  0  0  0  0  0
  160.6790  209.1450  152.4210 C   0  0  0  0  0  0  0  0  0  0  0  0
  159.0240  208.1910  155.6850 C   0  0  0  0  0  2  0  0  0  0  0  0
  162.3260  209.5090  150.2040 C   0  0  0  0  0  3  0  0  0  0  0  0
  161.7340  209.8490  156.2280 C   0  0  0  0  0  2  0  0  0  0  0  0
  162.3580  208.7600  155.3410 C   0  0  0  0  0  2  0  0  0  0  0  0
  160.0110  208.1840  154.5690 C   0  0  0  0  0  0  0  0  0  0  0  0
  160.5380  203.3540  150.2760 C   0  0  0  0  0  3  0  0  0  0  0  0
  161.1860  205.6410  151.7840 C   0  0  0  0  0  0  0  0  0  0  0  0
  161.0210  205.7230  150.3890 C   0  0  0  0  0  3  0  0  0  0  0  0
  160.7010  204.5880  149.6410 C   0  0  0  0  0  3  0  0  0  0  0  0
  160.6940  203.2580  151.6610 C   0  0  0  0  0  3  0  0  0  0  0  0
  161.0140  204.3940  152.4100 C   0  0  0  0  0  3  0  0  0  0  0  0
  159.8780  211.4840  152.1240 O   0  0  0  0  0  0  0  0  0  0  0  0
  160.0620  212.2630  153.2980 C   0  0  0  0  0  1  0  0  0  0  0  0
  161.5660  211.8550  149.8910 C   0  0  0  0  0  2  0  0  0  0  0  0
  162.6790  212.3190  148.0430 C   0  0  0  0  0  1  0  0  0  0  0  0
  161.5680  211.6220  148.5150 O   0  0  0  0  0  0  0  0  0  0  0  0
  2 11  1  0  0  0  0
  2  8  1  0  0  0  0
  3 16  2  0  0  0  0
  4  2  2  0  0  0  0
  5  6  1  0  0  0  0
  7 23  1  0  0  0  0
  7 11  2  0  0  0  0
  8  1  1  0  0  0  0
  9  7  1  0  0  0  0
 10  1  1  6  0  0  0
 10 15  1  0  0  0  0
 11  3  1  0  0  0  0
 12  5  1  0  0  0  0
 13  9  2  0  0  0  0
 13  4  1  0  0  0  0
 14  6  1  0  0  0  0
 15 14  1  0  0  0  0
 16 10  1  0  0  0  0
 16 12  1  0  0  0  0
 17 21  1  0  0  0  0
 18 22  1  0  0  0  0
 18  8  1  0  0  0  0
 19 18  2  0  0  0  0
 20 17  2  0  0  0  0
 20 19  1  0  0  0  0
 21 22  2  0  0  0  0
 23 24  1  0  0  0  0
 25  9  1  0  0  0  0
 26 27  1  0  0  0  0
 27 25  1  0  0  0  0
M  END
>  <MODEL>
5

>  <REMARK>
 VINA RESULT:      -3.7      1.888      2.711
  Name = 
  4 active torsions:
  status: ('A' for Active; 'I' for Inactive)
    1  A    between atoms: C_4  and  O_16
    2  A    between atoms: C_4  and  C_17
    3  A    between atoms: O_8  and  C_14
    4  A    between atoms: C_9  and  N_15
                            x       y       z     vdW  Elec       q    Type
                         _______ _______ _______ _____ _____    ______ ____

>  <TORSDO>
F 4

$$$$
=
 OpenBabel11052423183D

 27 30  0  0  1  0  0  0  0  0999 V2000
  162.1860  210.4230  138.4970 C   0  0  0  0  0  2  0  0  0  0  0  0
  159.8910  209.4480  138.3520 C   0  0  0  0  0  0  0  0  0  0  0  0
  159.6080  210.9860  140.2680 N   0  0  0  0  0  0  0  0  0  0  0  0
  159.3530  208.7290  137.3310 N   0  0  0  0  0  0  0  0  0  0  0  0
  160.6630  213.8100  141.3270 C   0  0  0  0  0  2  0  0  0  0  0  0
  161.2950  214.4530  140.0880 C   0  0  0  0  0  2  0  0  0  0  0  0
  157.6840  210.3600  138.8340 C   0  0  0  0  0  0  0  0  0  0  0  0
  161.2810  209.2870  138.6690 N   0  0  0  0  0  0  0  0  0  0  0  0
  157.1780  209.5950  137.7700 C   0  0  0  0  0  0  0  0  0  0  0  0
  161.6930  211.7030  139.1680 C   0  0  1  0  0  3  0  0  0  0  0  0
  159.0690  210.2890  139.1320 C   0  0  0  0  0  0  0  0  0  0  0  0
  161.1130  212.3640  141.5450 C   0  0  0  0  0  2  0  0  0  0  0  0
  158.0360  208.7910  137.0230 C   0  0  0  0  0  3  0  0  0  0  0  0
  160.5730  213.9960  138.8190 C   0  0  0  0  0  2  0  0  0  0  0  0
  161.1930  212.7490  138.1690 C   0  0  0  0  0  2  0  0  0  0  0  0
  160.7880  211.5280  140.3550 C   0  0  0  0  0  0  0  0  0  0  0  0
  162.8440  205.4190  139.5200 C   0  0  0  0  0  3  0  0  0  0  0  0
  161.8240  207.9820  138.9590 C   0  0  0  0  0  0  0  0  0  0  0  0
  162.3710  207.1870  137.9360 C   0  0  0  0  0  3  0  0  0  0  0  0
  162.8790  205.9150  138.2150 C   0  0  0  0  0  3  0  0  0  0  0  0
  162.2990  206.1950  140.5460 C   0  0  0  0  0  3  0  0  0  0  0  0
  161.7900  207.4660  140.2670 C   0  0  0  0  0  3  0  0  0  0  0  0
  156.7750  211.1660  139.5440 O   0  0  0  0  0  0  0  0  0  0  0  0
  156.8360  212.5810  139.6470 C   0  0  0  0  0  1  0  0  0  0  0  0
  155.7360  209.6620  137.3910 C   0  0  0  0  0  2  0  0  0  0  0  0
  154.1450  209.0910  138.8090 C   0  0  0  0  0  1  0  0  0  0  0  0
  155.0630  208.5540  137.9070 O   0  0  0  0  0  0  0  0  0  0  0  0
  1  8  1  0  0  0  0
  1 10  1  0  0  0  0
  2  8  1  0  0  0  0
  2 11  1  0  0  0  0
  3 16  2  0  0  0  0
  4  2  2  0  0  0  0
  5 12  1  0  0  0  0
  6  5  1  0  0  0  0
  7 11  2  0  0  0  0
  7 23  1  0  0  0  0
  8 18  1  0  0  0  0
  9  7  1  0  0  0  0
 10 15  1  6  0  0  0
 10 16  1  0  0  0  0
 11  3  1  0  0  0  0
 13  4  1  0  0  0  0
 13  9  2  0  0  0  0
 14  6  1  0  0  0  0
 15 14  1  0  0  0  0
 16 12  1  0  0  0  0
 17 21  1  0  0  0  0
 18 22  1  0  0  0  0
 19 20  1  0  0  0  0
 19 18  2  0  0  0  0
 20 17  2  0  0  0  0
 22 21  2  0  0  0  0
 23 24  1  0  0  0  0
 25  9  1  0  0  0  0
 25 27  1  0  0  0  0
 27 26  1  0  0  0  0
M  END
>  <MODEL>
6

>  <REMARK>
 VINA RESULT:      -3.2     12.099     14.225
  Name = 
  4 active torsions:
  status: ('A' for Active; 'I' for Inactive)
    1  A    between atoms: C_4  and  O_16
    2  A    between atoms: C_4  and  C_17
    3  A    between atoms: O_8  and  C_14
    4  A    between atoms: C_9  and  N_15
                            x       y       z     vdW  Elec       q    Type
                         _______ _______ _______ _____ _____    ______ ____

>  <TORSDO>
F 4

$$$$
=
 OpenBabel11052423183D

 27 30  0  0  1  0  0  0  0  0999 V2000
  162.8880  208.0420  147.5110 C   0  0  0  0  0  2  0  0  0  0  0  0
  161.9310  207.5880  149.7730 C   0  0  0  0  0  0  0  0  0  0  0  0
  160.4060  206.2480  148.3610 N   0  0  0  0  0  0  0  0  0  0  0  0
  162.4970  207.8400  150.9840 N   0  0  0  0  0  0  0  0  0  0  0  0
  160.4290  204.5260  145.6690 C   0  0  0  0  0  2  0  0  0  0  0  0
  161.9170  204.2730  145.4090 C   0  0  0  0  0  2  0  0  0  0  0  0
  160.8230  205.6410  150.7290 C   0  0  0  0  0  0  0  0  0  0  0  0
  162.1540  208.5020  148.6900 N   0  0  0  0  0  0  0  0  0  0  0  0
  161.4310  205.9460  151.9570 C   0  0  0  0  0  0  0  0  0  0  0  0
  162.3490  206.7380  146.9270 C   0  0  1  0  0  3  0  0  0  0  0  0
  161.0790  206.4750  149.6110 C   0  0  0  0  0  0  0  0  0  0  0  0
  160.1180  205.9910  145.9850 C   0  0  0  0  0  2  0  0  0  0  0  0
  162.2740  207.0490  152.0600 C   0  0  0  0  0  3  0  0  0  0  0  0
  162.6870  204.1920  146.7280 C   0  0  0  0  0  2  0  0  0  0  0  0
  163.2630  205.5400  147.1930 C   0  0  0  0  0  2  0  0  0  0  0  0
  160.8950  206.4480  147.1710 C   0  0  0  0  0  0  0  0  0  0  0  0
  161.2780  212.6470  149.1110 C   0  0  0  0  0  3  0  0  0  0  0  0
  161.8430  209.9040  148.8330 C   0  0  0  0  0  0  0  0  0  0  0  0
  161.5610  210.6970  147.7060 C   0  0  0  0  0  3  0  0  0  0  0  0
  161.2780  212.0580  147.8440 C   0  0  0  0  0  3  0  0  0  0  0  0
  161.5610  211.8730  150.2390 C   0  0  0  0  0  3  0  0  0  0  0  0
  161.8440  210.5120  150.1000 C   0  0  0  0  0  3  0  0  0  0  0  0
  159.9920  204.5050  150.6790 O   0  0  0  0  0  0  0  0  0  0  0  0
  160.3940  203.2090  150.2600 C   0  0  0  0  0  1  0  0  0  0  0  0
  161.2250  205.0780  153.1540 C   0  0  0  0  0  2  0  0  0  0  0  0
  160.4570  206.5760  154.5810 C   0  0  0  0  0  1  0  0  0  0  0  0
  161.5700  205.7820  154.3090 O   0  0  0  0  0  0  0  0  0  0  0  0
  1  8  1  0  0  0  0
  2  4  1  0  0  0  0
  3 11  1  0  0  0  0
  4 13  2  0  0  0  0
  5 12  1  0  0  0  0
  6  5  1  0  0  0  0
  6 14  1  0  0  0  0
  7  9  2  0  0  0  0
  8 18  1  0  0  0  0
  8  2  1  0  0  0  0
  9 13  1  0  0  0  0
  9 25  1  0  0  0  0
 10 16  1  0  0  0  0
 10 15  1  1  0  0  0
 10  1  1  0  0  0  0
 11  2  2  0  0  0  0
 11  7  1  0  0  0  0
 12 16  1  0  0  0  0
 14 15  1  0  0  0  0
 16  3  2  0  0  0  0
 17 21  1  0  0  0  0
 18 22  1  0  0  0  0
 19 20  1  0  0  0  0
 19 18  2  0  0  0  0
 20 17  2  0  0  0  0
 22 21  2  0  0  0  0
 23  7  1  0  0  0  0
 24 23  1  0  0  0  0
 25 27  1  0  0  0  0
 27 26  1  0  0  0  0
M  END
>  <MODEL>
7

>  <REMARK>
 VINA RESULT:      -3.1      4.136      8.549
  Name = 
  4 active torsions:
  status: ('A' for Active; 'I' for Inactive)
    1  A    between atoms: C_4  and  O_16
    2  A    between atoms: C_4  and  C_17
    3  A    between atoms: O_8  and  C_14
    4  A    between atoms: C_9  and  N_15
                            x       y       z     vdW  Elec       q    Type
                         _______ _______ _______ _____ _____    ______ ____

>  <TORSDO>
F 4

$$$$
=
 OpenBabel11052423183D

 27 30  0  0  1  0  0  0  0  0999 V2000
  159.0270  208.7770  137.5390 C   0  0  0  0  0  2  0  0  0  0  0  0
  159.7400  211.1070  138.0930 C   0  0  0  0  0  0  0  0  0  0  0  0
  161.1080  209.8210  139.7030 N   0  0  0  0  0  0  0  0  0  0  0  0
  159.5270  212.2380  137.3690 N   0  0  0  0  0  0  0  0  0  0  0  0
  162.6110  207.0130  139.9550 C   0  0  0  0  0  2  0  0  0  0  0  0
  162.7010  206.5140  138.5090 C   0  0  0  0  0  2  0  0  0  0  0  0
  161.8500  212.0380  138.8750 C   0  0  0  0  0  0  0  0  0  0  0  0
  158.7290  210.0880  138.1170 N   0  0  0  0  0  0  0  0  0  0  0  0
  161.5820  213.1860  138.1120 C   0  0  0  0  0  0  0  0  0  0  0  0
  160.3280  208.1650  138.0530 C   0  0  1  0  0  3  0  0  0  0  0  0
  160.9120  210.9730  138.8660 C   0  0  0  0  0  0  0  0  0  0  0  0
  161.2110  207.5010  140.3330 C   0  0  0  0  0  2  0  0  0  0  0  0
  160.4150  213.2610  137.3570 C   0  0  0  0  0  3  0  0  0  0  0  0
  162.8080  207.6930  137.5410 C   0  0  0  0  0  2  0  0  0  0  0  0
  161.4510  208.1860  137.0130 C   0  0  0  0  0  2  0  0  0  0  0  0
  160.7730  208.5950  139.4230 C   0  0  0  0  0  0  0  0  0  0  0  0
  154.7350  211.0210  139.2570 C   0  0  0  0  0  3  0  0  0  0  0  0
  157.3780  210.4000  138.5170 C   0  0  0  0  0  0  0  0  0  0  0  0
  156.3720  209.4180  138.4800 C   0  0  0  0  0  3  0  0  0  0  0  0
  155.0600  209.7260  138.8490 C   0  0  0  0  0  3  0  0  0  0  0  0
  155.7220  212.0090  139.2940 C   0  0  0  0  0  3  0  0  0  0  0  0
  157.0340  211.7010  138.9240 C   0  0  0  0  0  3  0  0  0  0  0  0
  163.0520  212.0100  139.6070 O   0  0  0  0  0  0  0  0  0  0  0  0
  164.2230  211.2970  139.2390 C   0  0  0  0  0  1  0  0  0  0  0  0
  162.5530  214.3180  138.0570 C   0  0  0  0  0  2  0  0  0  0  0  0
  164.7200  214.3200  137.6480 C   0  0  0  0  0  1  0  0  0  0  0  0
  163.4850  214.0890  137.0450 O   0  0  0  0  0  0  0  0  0  0  0  0
  1 10  1  0  0  0  0
  1  8  1  0  0  0  0
  2  8  1  0  0  0  0
  2 11  1  0  0  0  0
  4  2  2  0  0  0  0
  5 12  1  0  0  0  0
  6  5  1  0  0  0  0
  7 23  1  0  0  0  0
  8 18  1  0  0  0  0
  9  7  1  0  0  0  0
 10 15  1  6  0  0  0
 10 16  1  0  0  0  0
 11  7  2  0  0  0  0
 11  3  1  0  0  0  0
 13  4  1  0  0  0  0
 13  9  2  0  0  0  0
 14  6  1  0  0  0  0
 15 14  1  0  0  0  0
 16  3  2  0  0  0  0
 16 12  1  0  0  0  0
 17 21  1  0  0  0  0
 18 22  1  0  0  0  0
 19 18  2  0  0  0  0
 19 20  1  0  0  0  0
 20 17  2  0  0  0  0
 22 21  2  0  0  0  0
 24 23  1  0  0  0  0
 25  9  1  0  0  0  0
 27 26  1  0  0  0  0
 27 25  1  0  0  0  0
M  END
>  <MODEL>
8

>  <REMARK>
 VINA RESULT:      -2.7     13.278     15.138
  Name = 
  4 active torsions:
  status: ('A' for Active; 'I' for Inactive)
    1  A    between atoms: C_4  and  O_16
    2  A    between atoms: C_4  and  C_17
    3  A    between atoms: O_8  and  C_14
    4  A    between atoms: C_9  and  N_15
                            x       y       z     vdW  Elec       q    Type
                         _______ _______ _______ _____ _____    ______ ____

>  <TORSDO>
F 4

$$$$
=
 OpenBabel11052423183D

 27 30  0  0  1  0  0  0  0  0999 V2000
  160.3800  211.4330  151.5610 C   0  0  0  0  0  2  0  0  0  0  0  0
  161.3440  209.4070  150.4620 C   0  0  0  0  0  0  0  0  0  0  0  0
  162.4670  209.3040  152.6630 N   0  0  0  0  0  0  0  0  0  0  0  0
  160.9140  208.7880  149.3300 N   0  0  0  0  0  0  0  0  0  0  0  0
  161.9270  210.0140  155.7320 C   0  0  0  0  0  2  0  0  0  0  0  0
  160.4060  210.1870  155.8040 C   0  0  0  0  0  2  0  0  0  0  0  0
  162.0650  207.2500  151.3330 C   0  0  0  0  0  0  0  0  0  0  0  0
  161.2610  210.8360  150.5560 N   0  0  0  0  0  0  0  0  0  0  0  0
  161.6070  206.6600  150.1440 C   0  0  0  0  0  0  0  0  0  0  0  0
  160.5960  210.8770  152.9670 C   0  0  1  0  0  3  0  0  0  0  0  0
  161.9300  208.6520  151.5000 C   0  0  0  0  0  0  0  0  0  0  0  0
  162.5590  210.7760  154.5650 C   0  0  0  0  0  2  0  0  0  0  0  0
  161.0250  207.4490  149.1560 C   0  0  0  0  0  3  0  0  0  0  0  0
  159.7130  209.2810  154.7850 C   0  0  0  0  0  2  0  0  0  0  0  0
  159.4640  209.9550  153.4270 C   0  0  0  0  0  2  0  0  0  0  0  0
  161.9660  210.3400  153.2700 C   0  0  0  0  0  0  0  0  0  0  0  0
  163.0390  213.2970  147.5710 C   0  0  0  0  0  3  0  0  0  0  0  0
  161.8710  211.6780  149.5540 C   0  0  0  0  0  0  0  0  0  0  0  0
  161.2970  212.9140  149.2070 C   0  0  0  0  0  3  0  0  0  0  0  0
  161.8780  213.7190  148.2240 C   0  0  0  0  0  3  0  0  0  0  0  0
  163.6170  212.0700  147.9010 C   0  0  0  0  0  3  0  0  0  0  0  0
  163.0350  211.2640  148.8850 C   0  0  0  0  0  3  0  0  0  0  0  0
  162.6310  206.4020  152.3040 O   0  0  0  0  0  0  0  0  0  0  0  0
  161.9640  205.9090  153.4560 C   0  0  0  0  0  1  0  0  0  0  0  0
  161.6910  205.1840  149.9350 C   0  0  0  0  0  2  0  0  0  0  0  0
  160.9690  203.2710  150.7620 C   0  0  0  0  0  1  0  0  0  0  0  0
  160.5560  204.5690  150.4670 O   0  0  0  0  0  0  0  0  0  0  0  0
  2  8  1  0  0  0  0
  2 11  1  0  0  0  0
  3 16  2  0  0  0  0
  4  2  2  0  0  0  0
  5  6  1  0  0  0  0
  7 11  2  0  0  0  0
  7 23  1  0  0  0  0
  8  1  1  0  0  0  0
  9  7  1  0  0  0  0
 10  1  1  6  0  0  0
 10 16  1  0  0  0  0
 10 15  1  0  0  0  0
 11  3  1  0  0  0  0
 12  5  1  0  0  0  0
 13  4  1  0  0  0  0
 13  9  2  0  0  0  0
 14  6  1  0  0  0  0
 15 14  1  0  0  0  0
 16 12  1  0  0  0  0
 17 21  2  0  0  0  0
 17 20  1  0  0  0  0
 18  8  1  0  0  0  0
 19 18  1  0  0  0  0
 20 19  2  0  0  0  0
 21 22  1  0  0  0  0
 22 18  2  0  0  0  0
 23 24  1  0  0  0  0
 25  9  1  0  0  0  0
 25 27  1  0  0  0  0
 27 26  1  0  0  0  0
M  END
>  <MODEL>
9

>  <REMARK>
 VINA RESULT:      -2.6      2.816      6.024
  Name = 
  4 active torsions:
  status: ('A' for Active; 'I' for Inactive)
    1  A    between atoms: C_4  and  O_16
    2  A    between atoms: C_4  and  C_17
    3  A    between atoms: O_8  and  C_14
    4  A    between atoms: C_9  and  N_15
                            x       y       z     vdW  Elec       q    Type
                         _______ _______ _______ _____ _____    ______ ____

>  <TORSDO>
F 4

$$$$
