=
 OpenBabel11062408093D

 34 38  0  0  1  0  0  0  0  0999 V2000
  161.4600  206.9400  153.5180 C   0  0  2  0  0  3  0  0  0  0  0  0
  161.2620  207.8040  151.1280 C   0  0  1  0  0  3  0  0  0  0  0  0
  161.3150  209.3720  153.2150 C   0  0  2  0  0  3  0  0  0  0  0  0
  162.2460  205.5320  151.5900 C   0  0  0  0  0  2  0  0  0  0  0  0
  161.4840  211.0760  155.3740 S   0  0  1  0  0  0  0  0  0  0  0  0
  160.3880  212.8140  156.9750 F   0  0  0  0  0  0  0  0  0  0  0  0
  162.4900  206.9140  150.9520 C   0  0  0  0  0  2  0  0  0  0  0  0
  161.8980  210.2610  150.9610 C   0  0  0  0  0  2  0  0  0  0  0  0
  158.1030  211.6950  157.2230 F   0  0  0  0  0  0  0  0  0  0  0  0
  160.8750  208.0270  152.6140 C   0  0  2  0  0  3  0  0  0  0  0  0
  158.9680  209.6270  157.2610 F   0  0  0  0  0  0  0  0  0  0  0  0
  161.3790  205.5690  152.8630 C   0  0  0  0  0  2  0  0  0  0  0  0
  160.7320  209.5660  154.6430 C   0  0  1  0  0  0  0  0  0  0  0  0
  160.4400  211.4410  156.8040 C   0  0  1  0  0  3  0  0  0  0  0  0
  160.8000  207.0110  154.8830 C   0  0  0  0  0  2  0  0  0  0  0  0
  161.2870  209.0560  150.2510 C   0  0  0  0  0  2  0  0  0  0  0  0
  158.6920  210.7030  155.1510 C   0  0  0  0  0  2  0  0  0  0  0  0
  159.0330  210.8580  156.6340 C   0  0  0  0  0  0  0  0  0  0  0  0
  159.3040  209.5660  154.5750 O   0  0  0  0  0  0  0  0  0  0  0  0
  162.8040  210.6230  155.9850 O   0  0  0  0  0  0  0  0  0  0  0  0
  161.1510  210.5610  152.2590 C   0  0  1  0  0  3  0  0  0  0  0  0
  161.1490  208.3620  155.5170 C   0  0  0  0  0  2  0  0  0  0  0  0
  159.6900  210.9260  152.0000 C   0  0  0  0  0  2  0  0  0  0  0  0
  159.5160  212.4370  151.9740 C   0  0  1  0  0  3  0  0  0  0  0  0
  160.0500  213.0490  153.2570 C   0  0  0  0  0  1  0  0  0  0  0  0
  159.4930  213.6910  149.8290 C   0  0  0  0  0  3  0  0  0  0  0  0
  160.1800  213.0380  150.7720 C   0  0  0  0  0  3  0  0  0  0  0  0
  158.4880  213.9490  146.9720 O   0  0  0  0  0  0  0  0  0  0  0  0
  160.1840  214.2760  148.6380 C   0  0  2  0  0  3  0  0  0  0  0  0
  159.6540  213.6730  147.3590 C   0  0  0  0  0  0  0  0  0  0  0  0
  161.7110  212.5650  146.8650 C   0  0  0  0  0  3  0  0  0  0  0  0
  162.3650  213.2600  147.9830 C   0  0  0  0  0  3  0  0  0  0  0  0
  161.6680  214.0650  148.7870 C   0  0  0  0  0  3  0  0  0  0  0  0
  160.4600  212.7740  146.5870 N   0  0  0  0  0  0  0  0  0  0  0  0
  1 12  1  6  0  0  0
  1 15  1  0  0  0  0
  2 16  1  1  0  0  0
  2 10  1  0  0  0  0
  3 13  1  0  0  0  0
  4 12  1  0  0  0  0
  5 20  2  0  0  0  0
  5 14  1  0  0  0  0
  7  2  1  0  0  0  0
  7  4  1  0  0  0  0
  8 21  1  0  0  0  0
 10  3  1  0  0  0  0
 10  1  1  0  0  0  0
 13  5  1  0  0  0  0
 13 22  1  0  0  0  0
 14  6  1  0  0  0  0
 15 22  1  0  0  0  0
 16  8  1  0  0  0  0
 17 18  1  0  0  0  0
 18 14  1  0  0  0  0
 18  9  1  0  0  0  0
 18 11  1  0  0  0  0
 19 13  1  0  0  0  0
 19 17  1  0  0  0  0
 21  3  1  0  0  0  0
 23 21  1  0  0  0  0
 24 23  1  0  0  0  0
 24 25  1  0  0  0  0
 26 27  2  0  0  0  0
 27 24  1  0  0  0  0
 28 30  2  0  0  0  0
 29 33  1  0  0  0  0
 29 26  1  0  0  0  0
 30 29  1  0  0  0  0
 31 32  1  0  0  0  0
 32 33  2  0  0  0  0
 34 31  2  0  0  0  0
 34 30  1  0  0  0  0
M  END
>  <MODEL>
1

>  <REMARK>
 VINA RESULT:      -5.8      0.000      0.000
  Name = 
  4 active torsions:
  status: ('A' for Active; 'I' for Inactive)
    1  A    between atoms: C_3  and  C_13
    2  A    between atoms: C_5  and  C_18
    3  A    between atoms: C_5  and  C_31
    4  A    between atoms: C_17  and  C_18
                            x       y       z     vdW  Elec       q    Type
                         _______ _______ _______ _____ _____    ______ ____

>  <TORSDO>
F 4

$$$$
=
 OpenBabel11062408093D

 34 38  0  0  1  0  0  0  0  0999 V2000
  159.7830  213.3670  151.2710 C   0  0  2  0  0  3  0  0  0  0  0  0
  160.2560  211.0480  152.2130 C   0  0  1  0  0  3  0  0  0  0  0  0
  161.4330  211.9930  150.0830 C   0  0  2  0  0  3  0  0  0  0  0  0
  159.3030  212.8560  153.6850 C   0  0  0  0  0  2  0  0  0  0  0  0
  162.7890  212.9860  147.8990 S   0  0  1  0  0  0  0  0  0  0  0  0
  163.2890  212.9600  145.3430 F   0  0  0  0  0  0  0  0  0  0  0  0
  160.4650  211.8620  153.4870 C   0  0  0  0  0  2  0  0  0  0  0  0
  162.4680  210.1210  151.3630 C   0  0  0  0  0  2  0  0  0  0  0  0
  160.9000  212.6080  144.5050 F   0  0  0  0  0  0  0  0  0  0  0  0
  160.1560  211.9220  150.9360 C   0  0  2  0  0  3  0  0  0  0  0  0
  160.0090  213.9440  146.0690 F   0  0  0  0  0  0  0  0  0  0  0  0
  158.7350  213.4300  152.3730 C   0  0  0  0  0  2  0  0  0  0  0  0
  161.1760  212.7470  148.7480 C   0  0  1  0  0  0  0  0  0  0  0  0
  162.3350  213.4570  146.2150 C   0  0  1  0  0  3  0  0  0  0  0  0
  159.3830  214.0930  149.9990 C   0  0  0  0  0  2  0  0  0  0  0  0
  161.1720  209.8270  152.1150 C   0  0  0  0  0  2  0  0  0  0  0  0
  160.5840  211.7110  146.6780 C   0  0  0  0  0  2  0  0  0  0  0  0
  160.9390  212.9440  145.8460 C   0  0  0  0  0  0  0  0  0  0  0  0
  160.1850  212.0460  147.9920 O   0  0  0  0  0  0  0  0  0  0  0  0
  163.3810  214.2590  148.4930 O   0  0  0  0  0  0  0  0  0  0  0  0
  162.1720  210.6530  149.9620 C   0  0  1  0  0  3  0  0  0  0  0  0
  160.6020  214.1450  149.0710 C   0  0  0  0  0  2  0  0  0  0  0  0
  161.4210  209.6280  149.1130 C   0  0  0  0  0  2  0  0  0  0  0  0
  162.0550  208.2530  149.2560 C   0  0  1  0  0  3  0  0  0  0  0  0
  161.1380  207.3320  150.0430 C   0  0  0  0  0  1  0  0  0  0  0  0
  161.8160  206.5490  147.4640 C   0  0  0  0  0  3  0  0  0  0  0  0
  162.3900  207.6680  147.9180 C   0  0  0  0  0  3  0  0  0  0  0  0
  160.2030  206.5690  144.8870 O   0  0  0  0  0  0  0  0  0  0  0  0
  162.1750  205.9870  146.1250 C   0  0  2  0  0  3  0  0  0  0  0  0
  160.9340  205.6460  145.3340 C   0  0  0  0  0  0  0  0  0  0  0  0
  161.3560  203.2980  145.4170 C   0  0  0  0  0  3  0  0  0  0  0  0
  162.6740  203.5460  146.0200 C   0  0  0  0  0  3  0  0  0  0  0  0
  163.0610  204.7860  146.3260 C   0  0  0  0  0  3  0  0  0  0  0  0
  160.5690  204.2800  145.1000 N   0  0  0  0  0  0  0  0  0  0  0  0
  1 15  1  6  0  0  0
  1 12  1  0  0  0  0
  2 16  1  6  0  0  0
  2  7  1  0  0  0  0
  3 10  1  0  0  0  0
  5 20  2  0  0  0  0
  5 13  1  0  0  0  0
  6 14  1  0  0  0  0
  7  4  1  0  0  0  0
  8 16  1  0  0  0  0
  9 18  1  0  0  0  0
 10  1  1  0  0  0  0
 10  2  1  0  0  0  0
 12  4  1  0  0  0  0
 13 22  1  0  0  0  0
 13  3  1  0  0  0  0
 14  5  1  0  0  0  0
 17 19  1  0  0  0  0
 18 11  1  0  0  0  0
 18 14  1  0  0  0  0
 18 17  1  0  0  0  0
 19 13  1  0  0  0  0
 21  3  1  0  0  0  0
 21  8  1  0  0  0  0
 22 15  1  0  0  0  0
 23 24  1  0  0  0  0
 23 21  1  0  0  0  0
 24 25  1  0  0  0  0
 26 27  2  0  0  0  0
 27 24  1  0  0  0  0
 28 30  2  0  0  0  0
 29 33  1  0  0  0  0
 29 26  1  0  0  0  0
 30 29  1  0  0  0  0
 31 32  1  0  0  0  0
 32 33  2  0  0  0  0
 34 30  1  0  0  0  0
 34 31  2  0  0  0  0
M  END
>  <MODEL>
2

>  <REMARK>
 VINA RESULT:      -5.6      5.037      8.033
  Name = 
  4 active torsions:
  status: ('A' for Active; 'I' for Inactive)
    1  A    between atoms: C_3  and  C_13
    2  A    between atoms: C_5  and  C_18
    3  A    between atoms: C_5  and  C_31
    4  A    between atoms: C_17  and  C_18
                            x       y       z     vdW  Elec       q    Type
                         _______ _______ _______ _____ _____    ______ ____

>  <TORSDO>
F 4

$$$$
=
 OpenBabel11062408093D

 34 38  0  0  1  0  0  0  0  0999 V2000
  160.3460  212.9520  151.4300 C   0  0  2  0  0  3  0  0  0  0  0  0
  160.4260  210.4780  152.0340 C   0  0  1  0  0  3  0  0  0  0  0  0
  161.6620  211.4860  149.9670 C   0  0  2  0  0  3  0  0  0  0  0  0
  159.8860  212.2050  153.7860 C   0  0  0  0  0  2  0  0  0  0  0  0
  163.0810  212.5160  147.8420 S   0  0  1  0  0  0  0  0  0  0  0  0
  163.4570  212.7540  145.2750 F   0  0  0  0  0  0  0  0  0  0  0  0
  160.8360  211.0600  153.3850 C   0  0  0  0  0  2  0  0  0  0  0  0
  162.3910  209.3030  150.9250 C   0  0  0  0  0  2  0  0  0  0  0  0
  161.0090  212.9470  144.5620 F   0  0  0  0  0  0  0  0  0  0  0  0
  160.4320  211.5230  150.8890 C   0  0  2  0  0  3  0  0  0  0  0  0
  160.4480  214.1900  146.3410 F   0  0  0  0  0  0  0  0  0  0  0  0
  159.3760  213.0460  152.5990 C   0  0  0  0  0  2  0  0  0  0  0  0
  161.4900  212.4490  148.7600 C   0  0  1  0  0  0  0  0  0  0  0  0
  162.6480  213.2870  146.2650 C   0  0  1  0  0  3  0  0  0  0  0  0
  160.0310  213.9040  150.2910 C   0  0  0  0  0  2  0  0  0  0  0  0
  161.0970  209.1400  151.7190 C   0  0  0  0  0  2  0  0  0  0  0  0
  160.6290  211.8290  146.6190 C   0  0  0  0  0  2  0  0  0  0  0  0
  161.1670  213.0830  145.9290 C   0  0  0  0  0  0  0  0  0  0  0  0
  160.3560  212.0440  147.9890 O   0  0  0  0  0  0  0  0  0  0  0  0
  163.9220  213.5700  148.5510 O   0  0  0  0  0  0  0  0  0  0  0  0
  162.1370  210.0660  149.6270 C   0  0  1  0  0  3  0  0  0  0  0  0
  161.1970  213.8690  149.2960 C   0  0  0  0  0  2  0  0  0  0  0  0
  161.1740  209.3160  148.7060 C   0  0  0  0  0  2  0  0  0  0  0  0
  161.7230  207.9370  148.3750 C   0  0  1  0  0  3  0  0  0  0  0  0
  163.1650  207.8200  148.8370 C   0  0  0  0  0  1  0  0  0  0  0  0
  161.3400  206.0160  149.9030 C   0  0  0  0  0  3  0  0  0  0  0  0
  160.8740  206.8570  148.9740 C   0  0  0  0  0  3  0  0  0  0  0  0
  161.0060  205.1780  152.8060 O   0  0  0  0  0  0  0  0  0  0  0  0
  160.4690  204.9450  150.4790 C   0  0  2  0  0  3  0  0  0  0  0  0
  161.0300  204.4390  151.7870 C   0  0  0  0  0  0  0  0  0  0  0  0
  161.5350  202.2810  150.8980 C   0  0  0  0  0  3  0  0  0  0  0  0
  160.8350  202.6210  149.6500 C   0  0  0  0  0  3  0  0  0  0  0  0
  160.3250  203.8400  149.4650 C   0  0  0  0  0  3  0  0  0  0  0  0
  161.6080  203.1310  151.8760 N   0  0  0  0  0  0  0  0  0  0  0  0
  1 15  1  6  0  0  0
  1 12  1  0  0  0  0
  2 16  1  6  0  0  0
  2  7  1  0  0  0  0
  3 10  1  0  0  0  0
  5 20  2  0  0  0  0
  5 13  1  0  0  0  0
  6 14  1  0  0  0  0
  7  4  1  0  0  0  0
  8 16  1  0  0  0  0
  9 18  1  0  0  0  0
 10  1  1  0  0  0  0
 10  2  1  0  0  0  0
 12  4  1  0  0  0  0
 13 22  1  0  0  0  0
 13  3  1  0  0  0  0
 14  5  1  0  0  0  0
 17 19  1  0  0  0  0
 18 14  1  0  0  0  0
 18 11  1  0  0  0  0
 18 17  1  0  0  0  0
 19 13  1  0  0  0  0
 21  3  1  0  0  0  0
 21  8  1  0  0  0  0
 22 15  1  0  0  0  0
 23 21  1  0  0  0  0
 24 23  1  0  0  0  0
 24 25  1  0  0  0  0
 24 27  1  0  0  0  0
 26 29  1  0  0  0  0
 27 26  2  0  0  0  0
 29 30  1  0  0  0  0
 30 34  1  0  0  0  0
 30 28  2  0  0  0  0
 31 34  2  0  0  0  0
 32 31  1  0  0  0  0
 33 32  2  0  0  0  0
 33 29  1  0  0  0  0
M  END
>  <MODEL>
3

>  <REMARK>
 VINA RESULT:      -4.2      4.708      8.350
  Name = 
  4 active torsions:
  status: ('A' for Active; 'I' for Inactive)
    1  A    between atoms: C_3  and  C_13
    2  A    between atoms: C_5  and  C_18
    3  A    between atoms: C_5  and  C_31
    4  A    between atoms: C_17  and  C_18
                            x       y       z     vdW  Elec       q    Type
                         _______ _______ _______ _____ _____    ______ ____

>  <TORSDO>
F 4

$$$$
=
 OpenBabel11062408093D

 34 38  0  0  1  0  0  0  0  0999 V2000
  161.3780  208.1180  151.1320 C   0  0  2  0  0  3  0  0  0  0  0  0
  160.8410  206.1880  152.7050 C   0  0  1  0  0  3  0  0  0  0  0  0
  161.7610  205.8470  150.2860 C   0  0  2  0  0  3  0  0  0  0  0  0
  161.3250  208.4850  153.6180 C   0  0  0  0  0  2  0  0  0  0  0  0
  162.8400  205.4340  147.7840 S   0  0  1  0  0  0  0  0  0  0  0  0
  162.6060  204.5910  145.3300 F   0  0  0  0  0  0  0  0  0  0  0  0
  161.7400  207.0010  153.6340 C   0  0  0  0  0  2  0  0  0  0  0  0
  161.9980  204.0390  151.9860 C   0  0  0  0  0  2  0  0  0  0  0  0
  160.2420  205.4480  144.8720 F   0  0  0  0  0  0  0  0  0  0  0  0
  160.8790  206.6760  151.2330 C   0  0  2  0  0  3  0  0  0  0  0  0
  160.5620  207.3500  146.0140 F   0  0  0  0  0  0  0  0  0  0  0  0
  160.8150  208.9820  152.2510 C   0  0  0  0  0  2  0  0  0  0  0  0
  161.5950  206.3120  148.8120 C   0  0  1  0  0  0  0  0  0  0  0  0
  162.2810  205.7050  146.0870 C   0  0  1  0  0  3  0  0  0  0  0  0
  161.0950  208.6530  149.7390 C   0  0  0  0  0  2  0  0  0  0  0  0
  160.9640  204.6770  152.9100 C   0  0  0  0  0  2  0  0  0  0  0  0
  160.0690  205.3620  147.2360 C   0  0  0  0  0  2  0  0  0  0  0  0
  160.7760  205.9830  146.0300 C   0  0  0  0  0  0  0  0  0  0  0  0
  160.2340  206.1320  148.4100 O   0  0  0  0  0  0  0  0  0  0  0  0
  164.1160  206.2600  147.8900 O   0  0  0  0  0  0  0  0  0  0  0  0
  161.6720  204.3320  150.5230 C   0  0  1  0  0  3  0  0  0  0  0  0
  161.9000  207.8240  148.7320 C   0  0  0  0  0  2  0  0  0  0  0  0
  160.3240  203.7400  150.1120 C   0  0  0  0  0  2  0  0  0  0  0  0
  160.4130  202.2240  150.0330 C   0  0  1  0  0  3  0  0  0  0  0  0
  159.0260  201.6110  150.1240 C   0  0  0  0  0  1  0  0  0  0  0  0
  160.5200  201.7930  147.5890 C   0  0  0  0  0  3  0  0  0  0  0  0
  161.1170  201.7860  148.7840 C   0  0  0  0  0  3  0  0  0  0  0  0
  160.0540  202.5900  144.6920 O   0  0  0  0  0  0  0  0  0  0  0  0
  161.2470  201.3450  146.3610 C   0  0  2  0  0  3  0  0  0  0  0  0
  160.3640  201.4550  145.1410 C   0  0  0  0  0  0  0  0  0  0  0  0
  160.2560  199.0900  144.8320 C   0  0  0  0  0  3  0  0  0  0  0  0
  161.2640  198.8970  145.8850 C   0  0  0  0  0  3  0  0  0  0  0  0
  161.7370  199.9370  146.5750 C   0  0  0  0  0  3  0  0  0  0  0  0
  159.8590  200.2790  144.4970 N   0  0  0  0  0  0  0  0  0  0  0  0
  1 15  1  6  0  0  0
  1 10  1  0  0  0  0
  1 12  1  0  0  0  0
  2 16  1  6  0  0  0
  2  7  1  0  0  0  0
  3 21  1  0  0  0  0
  3 10  1  0  0  0  0
  4  7  1  0  0  0  0
  5 20  2  0  0  0  0
  5 13  1  0  0  0  0
  6 14  1  0  0  0  0
  8 16  1  0  0  0  0
  9 18  1  0  0  0  0
 10  2  1  0  0  0  0
 11 18  1  0  0  0  0
 12  4  1  0  0  0  0
 13  3  1  0  0  0  0
 14  5  1  0  0  0  0
 17 19  1  0  0  0  0
 18 14  1  0  0  0  0
 18 17  1  0  0  0  0
 19 13  1  0  0  0  0
 21  8  1  0  0  0  0
 22 13  1  0  0  0  0
 22 15  1  0  0  0  0
 23 21  1  0  0  0  0
 24 23  1  0  0  0  0
 24 25  1  0  0  0  0
 26 27  2  0  0  0  0
 27 24  1  0  0  0  0
 28 30  2  0  0  0  0
 29 33  1  0  0  0  0
 29 26  1  0  0  0  0
 30 29  1  0  0  0  0
 31 32  1  0  0  0  0
 32 33  2  0  0  0  0
 34 31  2  0  0  0  0
 34 30  1  0  0  0  0
M  END
>  <MODEL>
4

>  <REMARK>
 VINA RESULT:      -3.8      6.745      9.801
  Name = 
  4 active torsions:
  status: ('A' for Active; 'I' for Inactive)
    1  A    between atoms: C_3  and  C_13
    2  A    between atoms: C_5  and  C_18
    3  A    between atoms: C_5  and  C_31
    4  A    between atoms: C_17  and  C_18
                            x       y       z     vdW  Elec       q    Type
                         _______ _______ _______ _____ _____    ______ ____

>  <TORSDO>
F 4

$$$$
=
 OpenBabel11062408093D

 34 38  0  0  1  0  0  0  0  0999 V2000
  160.8710  212.3010  150.2600 C   0  0  2  0  0  3  0  0  0  0  0  0
  161.9810  210.1060  149.5970 C   0  0  1  0  0  3  0  0  0  0  0  0
  160.4320  210.3520  151.6840 C   0  0  2  0  0  3  0  0  0  0  0  0
  161.6100  211.9190  147.8880 C   0  0  0  0  0  2  0  0  0  0  0  0
  158.7130  210.5280  153.8300 S   0  0  1  0  0  0  0  0  0  0  0  0
  158.2930  210.5000  156.4010 F   0  0  0  0  0  0  0  0  0  0  0  0
  161.3300  210.4500  148.2600 C   0  0  0  0  0  2  0  0  0  0  0  0
  160.8310  208.1090  150.6730 C   0  0  0  0  0  2  0  0  0  0  0  0
  160.3550  211.8280  157.1240 F   0  0  0  0  0  0  0  0  0  0  0  0
  161.4850  210.9950  150.7670 C   0  0  2  0  0  3  0  0  0  0  0  0
  160.2350  213.2270  155.3770 F   0  0  0  0  0  0  0  0  0  0  0  0
  161.6660  212.8750  149.0960 C   0  0  0  0  0  2  0  0  0  0  0  0
  160.1320  211.2530  152.9140 C   0  0  1  0  0  0  0  0  0  0  0  0
  158.7380  211.3770  155.4260 C   0  0  1  0  0  3  0  0  0  0  0  0
  160.7010  213.2630  151.4220 C   0  0  0  0  0  2  0  0  0  0  0  0
  162.0370  208.6040  149.8790 C   0  0  0  0  0  2  0  0  0  0  0  0
  161.2060  211.0750  155.0420 C   0  0  0  0  0  2  0  0  0  0  0  0
  160.1380  211.9020  155.7600 C   0  0  0  0  0  0  0  0  0  0  0  0
  161.3290  211.4250  153.6780 O   0  0  0  0  0  0  0  0  0  0  0  0
  157.4630  211.0660  153.1440 O   0  0  0  0  0  0  0  0  0  0  0  0
  160.7000  208.8710  151.9900 C   0  0  1  0  0  3  0  0  0  0  0  0
  159.7040  212.6510  152.4130 C   0  0  0  0  0  2  0  0  0  0  0  0
  161.9130  208.6550  152.8940 C   0  0  0  0  0  2  0  0  0  0  0  0
  161.8570  207.2780  153.5370 C   0  0  1  0  0  3  0  0  0  0  0  0
  160.4560  206.9930  154.0490 C   0  0  0  0  0  1  0  0  0  0  0  0
  161.4760  205.2910  152.0940 C   0  0  0  0  0  3  0  0  0  0  0  0
  162.3100  206.2150  152.5820 C   0  0  0  0  0  3  0  0  0  0  0  0
  161.5800  205.3580  149.0570 O   0  0  0  0  0  0  0  0  0  0  0  0
  161.9590  204.2400  151.1460 C   0  0  2  0  0  3  0  0  0  0  0  0
  161.2910  204.3830  149.7990 C   0  0  0  0  0  0  0  0  0  0  0  0
  160.0860  202.3340  150.0220 C   0  0  0  0  0  3  0  0  0  0  0  0
  160.8310  202.0180  151.2500 C   0  0  0  0  0  3  0  0  0  0  0  0
  161.7090  202.8860  151.7570 C   0  0  0  0  0  3  0  0  0  0  0  0
  160.3180  203.4260  149.3610 N   0  0  0  0  0  0  0  0  0  0  0  0
  1 12  1  6  0  0  0
  1 10  1  0  0  0  0
  1 15  1  0  0  0  0
  2  7  1  6  0  0  0
  2 16  1  0  0  0  0
  2 10  1  0  0  0  0
  3 21  1  0  0  0  0
  3 13  1  0  0  0  0
  4  7  1  0  0  0  0
  4 12  1  0  0  0  0
  5 14  1  0  0  0  0
  8 21  1  0  0  0  0
 10  3  1  0  0  0  0
 11 18  1  0  0  0  0
 13 19  1  0  0  0  0
 13  5  1  0  0  0  0
 14 18  1  0  0  0  0
 14  6  1  0  0  0  0
 15 22  1  0  0  0  0
 16  8  1  0  0  0  0
 17 18  1  0  0  0  0
 18  9  1  0  0  0  0
 19 17  1  0  0  0  0
 20  5  2  0  0  0  0
 21 23  1  0  0  0  0
 22 13  1  0  0  0  0
 23 24  1  0  0  0  0
 24 25  1  0  0  0  0
 26 27  2  0  0  0  0
 27 24  1  0  0  0  0
 28 30  2  0  0  0  0
 29 33  1  0  0  0  0
 29 26  1  0  0  0  0
 30 29  1  0  0  0  0
 31 32  1  0  0  0  0
 32 33  2  0  0  0  0
 34 30  1  0  0  0  0
 34 31  2  0  0  0  0
M  END
>  <MODEL>
5

>  <REMARK>
 VINA RESULT:      -3.1      2.733      6.426
  Name = 
  4 active torsions:
  status: ('A' for Active; 'I' for Inactive)
    1  A    between atoms: C_3  and  C_13
    2  A    between atoms: C_5  and  C_18
    3  A    between atoms: C_5  and  C_31
    4  A    between atoms: C_17  and  C_18
                            x       y       z     vdW  Elec       q    Type
                         _______ _______ _______ _____ _____    ______ ____

>  <TORSDO>
F 4

$$$$
=
 OpenBabel11062408093D

 34 38  0  0  1  0  0  0  0  0999 V2000
  160.7240  212.8260  150.3440 C   0  0  2  0  0  3  0  0  0  0  0  0
  161.9550  210.7010  149.6660 C   0  0  1  0  0  3  0  0  0  0  0  0
  160.2930  210.8110  151.6760 C   0  0  2  0  0  3  0  0  0  0  0  0
  161.5980  212.5590  148.0030 C   0  0  0  0  0  2  0  0  0  0  0  0
  158.4610  210.8420  153.7340 S   0  0  1  0  0  0  0  0  0  0  0  0
  157.9130  210.7050  156.2770 F   0  0  0  0  0  0  0  0  0  0  0  0
  161.3600  211.0670  148.3090 C   0  0  0  0  0  2  0  0  0  0  0  0
  160.8350  208.6230  150.6120 C   0  0  0  0  0  2  0  0  0  0  0  0
  159.8780  212.0850  157.1510 F   0  0  0  0  0  0  0  0  0  0  0  0
  161.3640  211.5280  150.8380 C   0  0  2  0  0  3  0  0  0  0  0  0
  159.7900  213.5410  155.4490 F   0  0  0  0  0  0  0  0  0  0  0  0
  161.5530  213.4720  149.2430 C   0  0  0  0  0  2  0  0  0  0  0  0
  159.8950  211.6550  152.9190 C   0  0  1  0  0  0  0  0  0  0  0  0
  158.3700  211.6330  155.3560 C   0  0  1  0  0  3  0  0  0  0  0  0
  160.4560  213.7380  151.5280 C   0  0  0  0  0  2  0  0  0  0  0  0
  162.0580  209.1930  149.8980 C   0  0  0  0  0  2  0  0  0  0  0  0
  160.8650  211.4420  155.0930 C   0  0  0  0  0  2  0  0  0  0  0  0
  159.7290  212.2000  155.7810 C   0  0  0  0  0  0  0  0  0  0  0  0
  161.0430  211.8460  153.7490 O   0  0  0  0  0  0  0  0  0  0  0  0
  157.2270  211.3550  153.0020 O   0  0  0  0  0  0  0  0  0  0  0  0
  160.6050  209.3320  151.9450 C   0  0  1  0  0  3  0  0  0  0  0  0
  159.4350  213.0510  152.4430 C   0  0  0  0  0  2  0  0  0  0  0  0
  161.7780  209.1310  152.9030 C   0  0  0  0  0  2  0  0  0  0  0  0
  161.7040  207.7570  153.5530 C   0  0  1  0  0  3  0  0  0  0  0  0
  161.2060  207.8790  154.9830 C   0  0  0  0  0  1  0  0  0  0  0  0
  161.3440  205.8060  152.0580 C   0  0  0  0  0  3  0  0  0  0  0  0
  160.8390  206.8270  152.7570 C   0  0  0  0  0  3  0  0  0  0  0  0
  160.8970  202.8170  152.3810 O   0  0  0  0  0  0  0  0  0  0  0  0
  160.4560  204.8970  151.2690 C   0  0  2  0  0  3  0  0  0  0  0  0
  160.9660  203.4760  151.3110 C   0  0  0  0  0  0  0  0  0  0  0  0
  161.5160  203.4580  148.9870 C   0  0  0  0  0  3  0  0  0  0  0  0
  160.8660  204.7650  148.8130 C   0  0  0  0  0  3  0  0  0  0  0  0
  160.3580  205.4190  149.8600 C   0  0  0  0  0  3  0  0  0  0  0  0
  161.5460  202.8740  150.1470 N   0  0  0  0  0  0  0  0  0  0  0  0
  1 12  1  6  0  0  0
  1 10  1  0  0  0  0
  1 15  1  0  0  0  0
  2  7  1  6  0  0  0
  2 16  1  0  0  0  0
  2 10  1  0  0  0  0
  3 21  1  0  0  0  0
  3 13  1  0  0  0  0
  4  7  1  0  0  0  0
  4 12  1  0  0  0  0
  5 14  1  0  0  0  0
  8 21  1  0  0  0  0
 10  3  1  0  0  0  0
 11 18  1  0  0  0  0
 13  5  1  0  0  0  0
 13 19  1  0  0  0  0
 14 18  1  0  0  0  0
 14  6  1  0  0  0  0
 15 22  1  0  0  0  0
 16  8  1  0  0  0  0
 17 18  1  0  0  0  0
 18  9  1  0  0  0  0
 19 17  1  0  0  0  0
 20  5  2  0  0  0  0
 21 23  1  0  0  0  0
 22 13  1  0  0  0  0
 23 24  1  0  0  0  0
 24 25  1  0  0  0  0
 26 27  2  0  0  0  0
 27 24  1  0  0  0  0
 29 30  1  0  0  0  0
 29 26  1  0  0  0  0
 30 28  2  0  0  0  0
 31 34  2  0  0  0  0
 32 31  1  0  0  0  0
 32 33  2  0  0  0  0
 33 29  1  0  0  0  0
 34 30  1  0  0  0  0
M  END
>  <MODEL>
6

>  <REMARK>
 VINA RESULT:      -3.0      2.799      6.338
  Name = 
  4 active torsions:
  status: ('A' for Active; 'I' for Inactive)
    1  A    between atoms: C_3  and  C_13
    2  A    between atoms: C_5  and  C_18
    3  A    between atoms: C_5  and  C_31
    4  A    between atoms: C_17  and  C_18
                            x       y       z     vdW  Elec       q    Type
                         _______ _______ _______ _____ _____    ______ ____

>  <TORSDO>
F 4

$$$$
