=
 OpenBabel11062409393D

 34 40  0  0  1  0  0  0  0  0999 V2000
  160.9170  206.8020  150.3480 C   0  0  1  0  0  3  0  0  0  0  0  0
  161.6310  203.7540  148.1570 C   0  0  0  0  0  3  0  0  0  0  0  0
  159.4680  208.9700  155.0820 C   0  0  0  0  0  2  0  0  0  0  0  0
  162.4230  206.0960  147.8530 C   0  0  0  0  0  2  0  0  0  0  0  0
  162.2940  208.5580  154.6820 C   0  0  0  0  0  2  0  0  0  0  0  0
  160.9090  207.2870  152.7280 C   0  0  2  0  0  0  0  0  0  0  0  0
  161.6810  206.8100  151.6840 C   0  0  2  0  0  3  0  0  0  0  0  0
  161.9570  209.4090  151.2270 C   0  0  0  0  0  2  0  0  0  0  0  0
  161.8080  210.4350  149.0220 C   0  0  0  0  0  1  0  0  0  0  0  0
  160.4490  209.9240  155.7830 C   0  0  1  0  0  3  0  0  0  0  0  0
  161.8440  208.2210  151.9770 N   0  0  1  0  0  0  0  0  0  0  0  0
  161.5120  206.4970  153.7580 O   0  0  0  0  0  0  0  0  0  0  0  0
  162.7450  207.3370  148.6770 C   0  0  0  0  0  2  0  0  0  0  0  0
  161.4730  207.8640  149.3320 C   0  0  2  0  0  3  0  0  0  0  0  0
  161.7260  209.2540  149.9230 C   0  0  1  0  0  3  0  0  0  0  0  0
  160.8630  202.7700  148.7970 C   0  0  0  0  0  0  0  0  0  0  0  0
  160.1080  203.1200  149.9200 C   0  0  0  0  0  3  0  0  0  0  0  0
  161.8030  209.9600  155.0440 C   0  0  1  0  0  3  0  0  0  0  0  0
  161.1110  207.7400  154.1600 C   0  0  1  0  0  0  0  0  0  0  0  0
  159.9900  207.6660  155.0000 O   0  0  0  0  0  0  0  0  0  0  0  0
  161.6600  205.0660  148.6380 C   0  0  0  0  0  0  0  0  0  0  0  0
  160.1190  204.4310  150.4030 C   0  0  0  0  0  3  0  0  0  0  0  0
  160.8870  205.4130  149.7670 C   0  0  0  0  0  0  0  0  0  0  0  0
  163.0360  210.1260  157.1040 O   0  0  0  0  0  1  0  0  0  0  0  0
  162.8680  210.7030  155.8430 C   0  0  0  0  0  2  0  0  0  0  0  0
  159.8330  211.3190  155.9370 C   0  0  0  0  0  2  0  0  0  0  0  0
  158.7680  211.6410  154.8890 C   0  0  0  0  0  2  0  0  0  0  0  0
  159.3320  212.5070  153.7790 C   0  0  0  0  0  3  0  0  0  0  0  0
  158.2770  212.6820  152.7040 C   0  0  0  0  0  2  0  0  0  0  0  0
  159.4020  211.6910  152.5050 C   0  0  0  0  0  2  0  0  0  0  0  0
  160.8150  201.4400  148.3520 O   0  0  0  0  0  0  0  0  0  0  0  0
  160.5550  201.8320  145.9070 C   0  0  0  0  0  1  0  0  0  0  0  0
  161.6220  199.9100  146.7940 O   0  0  0  0  0  0  0  0  0  0  0  0
  161.0340  200.9960  147.0390 C   0  0  0  0  0  0  0  0  0  0  0  0
  1 23  1  6  0  0  0
  1  7  1  0  0  0  0
  2 21  2  0  0  0  0
  2 16  1  0  0  0  0
  3 10  1  0  0  0  0
  4 21  1  0  0  0  0
  4 13  1  0  0  0  0
  5 18  1  0  0  0  0
  6 12  1  1  0  0  0
  6 19  1  0  0  0  0
  7 11  1  0  0  0  0
  7  6  1  0  0  0  0
  8 11  1  0  0  0  0
  9 15  1  0  0  0  0
 10 26  1  0  0  0  0
 11  6  1  0  0  0  0
 12 19  1  0  0  0  0
 13 14  1  0  0  0  0
 14 15  1  0  0  0  0
 14  1  1  0  0  0  0
 15  8  1  0  0  0  0
 16 17  2  0  0  0  0
 17 22  1  0  0  0  0
 18 10  1  0  0  0  0
 18 25  1  0  0  0  0
 19  5  1  0  0  0  0
 19 20  1  0  0  0  0
 20  3  1  0  0  0  0
 21 23  1  0  0  0  0
 23 22  2  0  0  0  0
 25 24  1  0  0  0  0
 27 26  1  0  0  0  0
 28 27  1  0  0  0  0
 29 28  1  0  0  0  0
 30 29  1  0  0  0  0
 30 28  1  0  0  0  0
 31 16  1  0  0  0  0
 32 34  1  0  0  0  0
 33 34  2  0  0  0  0
 34 31  1  0  0  0  0
M  END
>  <MODEL>
1

>  <REMARK>
 VINA RESULT:      -7.2      0.000      0.000
  Name = 
  6 active torsions:
  status: ('A' for Active; 'I' for Inactive)
    1  A    between atoms: C_7  and  C_11
    2  A    between atoms: C_7  and  C_14
    3  A    between atoms: C_14  and  C_16
    4  A    between atoms: O_23  and  C_24
    5  A    between atoms: O_23  and  C_25
    6  A    between atoms: C_28  and  C_29
                            x       y       z     vdW  Elec       q    Type
                         _______ _______ _______ _____ _____    ______ ____

>  <TORSDO>
F 6

$$$$
=
 OpenBabel11062409393D

 34 40  0  0  1  0  0  0  0  0999 V2000
  160.6850  207.1400  151.6380 C   0  0  1  0  0  3  0  0  0  0  0  0
  161.2590  209.3820  154.6790 C   0  0  0  0  0  3  0  0  0  0  0  0
  160.1530  206.4800  146.3000 C   0  0  0  0  0  2  0  0  0  0  0  0
  161.6170  206.9250  154.4800 C   0  0  0  0  0  2  0  0  0  0  0  0
  162.8230  206.2160  147.3560 C   0  0  0  0  0  2  0  0  0  0  0  0
  161.1930  207.2410  149.2650 C   0  0  2  0  0  0  0  0  0  0  0  0
  161.7440  207.2950  150.5330 C   0  0  2  0  0  3  0  0  0  0  0  0
  161.5350  204.6600  150.3040 C   0  0  0  0  0  2  0  0  0  0  0  0
  160.7080  203.1950  152.0670 C   0  0  0  0  0  1  0  0  0  0  0  0
  161.1320  205.5430  145.5760 C   0  0  1  0  0  3  0  0  0  0  0  0
  161.7750  205.9890  149.9020 N   0  0  1  0  0  0  0  0  0  0  0  0
  162.1350  208.1150  148.6340 O   0  0  0  0  0  0  0  0  0  0  0  0
  161.9550  205.8740  153.4290 C   0  0  0  0  0  2  0  0  0  0  0  0
  160.8210  205.7800  152.4140 C   0  0  2  0  0  3  0  0  0  0  0  0
  161.0150  204.5470  151.5270 C   0  0  1  0  0  3  0  0  0  0  0  0
  160.8170  210.6220  154.1930 C   0  0  0  0  0  0  0  0  0  0  0  0
  160.3180  210.7030  152.8900 C   0  0  0  0  0  3  0  0  0  0  0  0
  162.2450  205.0660  146.5320 C   0  0  1  0  0  3  0  0  0  0  0  0
  161.6740  207.1070  147.8350 C   0  0  1  0  0  0  0  0  0  0  0  0
  160.8160  207.5980  146.8410 O   0  0  0  0  0  0  0  0  0  0  0  0
  161.2210  208.2410  153.8720 C   0  0  0  0  0  0  0  0  0  0  0  0
  160.2640  209.5680  152.0780 C   0  0  0  0  0  3  0  0  0  0  0  0
  160.7080  208.3310  152.5600 C   0  0  0  0  0  0  0  0  0  0  0  0
  164.5380  204.3340  146.5400 O   0  0  0  0  0  1  0  0  0  0  0  0
  163.3590  204.3350  145.7900 C   0  0  0  0  0  2  0  0  0  0  0  0
  160.3840  204.3740  144.9250 C   0  0  0  0  0  2  0  0  0  0  0  0
  161.0420  203.0140  145.1610 C   0  0  0  0  0  2  0  0  0  0  0  0
  160.1470  202.1050  145.9810 C   0  0  0  0  0  3  0  0  0  0  0  0
  160.8490  201.7620  147.2800 C   0  0  0  0  0  2  0  0  0  0  0  0
  160.8290  200.7620  146.1470 C   0  0  0  0  0  2  0  0  0  0  0  0
  160.8470  211.7920  154.9680 O   0  0  0  0  0  0  0  0  0  0  0  0
  158.6830  211.5650  156.1760 C   0  0  0  0  0  1  0  0  0  0  0  0
  159.6340  213.6650  155.6290 O   0  0  0  0  0  0  0  0  0  0  0  0
  159.7460  212.4120  155.5770 C   0  0  0  0  0  0  0  0  0  0  0  0
  1 14  1  0  0  0  0
  1 23  1  1  0  0  0
  3 20  1  0  0  0  0
  5 19  1  0  0  0  0
  6 12  1  6  0  0  0
  6 11  1  0  0  0  0
  6  7  1  0  0  0  0
  7  1  1  0  0  0  0
  8 15  1  0  0  0  0
 10  3  1  0  0  0  0
 10 18  1  0  0  0  0
 11  8  1  0  0  0  0
 11  7  1  0  0  0  0
 13  4  1  0  0  0  0
 14 13  1  0  0  0  0
 15  9  1  0  0  0  0
 15 14  1  0  0  0  0
 16  2  1  0  0  0  0
 16 31  1  0  0  0  0
 17 16  2  0  0  0  0
 18  5  1  0  0  0  0
 19 12  1  0  0  0  0
 19  6  1  0  0  0  0
 20 19  1  0  0  0  0
 21  4  1  0  0  0  0
 21  2  2  0  0  0  0
 22 23  2  0  0  0  0
 22 17  1  0  0  0  0
 23 21  1  0  0  0  0
 25 18  1  0  0  0  0
 25 24  1  0  0  0  0
 26 27  1  0  0  0  0
 26 10  1  0  0  0  0
 27 28  1  0  0  0  0
 28 30  1  0  0  0  0
 28 29  1  0  0  0  0
 30 29  1  0  0  0  0
 31 34  1  0  0  0  0
 34 33  2  0  0  0  0
 34 32  1  0  0  0  0
M  END
>  <MODEL>
2

>  <REMARK>
 VINA RESULT:      -6.5      2.499      9.374
  Name = 
  6 active torsions:
  status: ('A' for Active; 'I' for Inactive)
    1  A    between atoms: C_7  and  C_11
    2  A    between atoms: C_7  and  C_14
    3  A    between atoms: C_14  and  C_16
    4  A    between atoms: O_23  and  C_24
    5  A    between atoms: O_23  and  C_25
    6  A    between atoms: C_28  and  C_29
                            x       y       z     vdW  Elec       q    Type
                         _______ _______ _______ _____ _____    ______ ____

>  <TORSDO>
F 6

$$$$
=
 OpenBabel11062409393D

 34 40  0  0  1  0  0  0  0  0999 V2000
  161.1930  208.8180  152.9760 C   0  0  1  0  0  3  0  0  0  0  0  0
  162.0540  206.2410  150.2890 C   0  0  0  0  0  3  0  0  0  0  0  0
  159.3240  213.6790  154.4210 C   0  0  0  0  0  2  0  0  0  0  0  0
  161.5930  205.8580  152.7070 C   0  0  0  0  0  2  0  0  0  0  0  0
  157.3790  211.5540  154.2900 C   0  0  0  0  0  2  0  0  0  0  0  0
  159.7010  210.7250  153.1620 C   0  0  2  0  0  0  0  0  0  0  0  0
  159.7610  209.3720  152.8810 C   0  0  2  0  0  3  0  0  0  0  0  0
  159.7930  209.2290  155.5310 C   0  0  0  0  0  2  0  0  0  0  0  0
  161.2760  207.7750  156.8040 C   0  0  0  0  0  1  0  0  0  0  0  0
  158.1070  213.7480  155.3570 C   0  0  1  0  0  3  0  0  0  0  0  0
  159.4290  209.7030  154.2540 N   0  0  1  0  0  0  0  0  0  0  0  0
  158.5970  211.0270  152.3020 O   0  0  0  0  0  0  0  0  0  0  0  0
  160.8070  206.4740  153.8590 C   0  0  0  0  0  2  0  0  0  0  0  0
  161.3810  207.8450  154.1970 C   0  0  2  0  0  3  0  0  0  0  0  0
  160.7930  208.3460  155.5190 C   0  0  1  0  0  3  0  0  0  0  0  0
  162.2660  207.0670  149.1740 C   0  0  0  0  0  0  0  0  0  0  0  0
  162.1460  208.4520  149.3220 C   0  0  0  0  0  3  0  0  0  0  0  0
  157.5140  212.3430  155.5920 C   0  0  1  0  0  3  0  0  0  0  0  0
  158.6400  211.7680  153.4500 C   0  0  1  0  0  0  0  0  0  0  0  0
  158.9880  213.1000  153.1830 O   0  0  0  0  0  0  0  0  0  0  0  0
  161.7110  206.7850  151.5300 C   0  0  0  0  0  0  0  0  0  0  0  0
  161.8150  209.0080  150.5600 C   0  0  0  0  0  3  0  0  0  0  0  0
  161.6010  208.1860  151.6720 C   0  0  0  0  0  0  0  0  0  0  0  0
  155.4380  213.5200  155.9040 O   0  0  0  0  0  1  0  0  0  0  0  0
  156.1730  212.4050  156.3150 C   0  0  0  0  0  2  0  0  0  0  0  0
  158.4700  214.4530  156.6690 C   0  0  0  0  0  2  0  0  0  0  0  0
  159.8060  214.0030  157.2610 C   0  0  0  0  0  2  0  0  0  0  0  0
  160.4010  212.8570  156.4660 C   0  0  0  0  0  3  0  0  0  0  0  0
  160.1920  211.5650  157.2310 C   0  0  0  0  0  2  0  0  0  0  0  0
  161.5400  212.2490  157.2580 C   0  0  0  0  0  2  0  0  0  0  0  0
  162.6020  206.5600  147.9100 O   0  0  0  0  0  0  0  0  0  0  0  0
  161.7140  204.3470  147.1950 C   0  0  0  0  0  1  0  0  0  0  0  0
  161.0470  206.3860  146.1870 O   0  0  0  0  0  0  0  0  0  0  0  0
  161.7610  205.8260  147.0610 C   0  0  0  0  0  0  0  0  0  0  0  0
  1 23  1  6  0  0  0
  1 14  1  0  0  0  0
  2 21  1  0  0  0  0
  3 10  1  0  0  0  0
  4 13  1  0  0  0  0
  5 18  1  0  0  0  0
  6 12  1  6  0  0  0
  6 19  1  0  0  0  0
  6 11  1  0  0  0  0
  7  1  1  0  0  0  0
  7  6  1  0  0  0  0
  7 11  1  0  0  0  0
 10 18  1  0  0  0  0
 10 26  1  0  0  0  0
 11  8  1  0  0  0  0
 12 19  1  0  0  0  0
 13 14  1  0  0  0  0
 14 15  1  0  0  0  0
 15  8  1  0  0  0  0
 15  9  1  0  0  0  0
 16 17  1  0  0  0  0
 16  2  2  0  0  0  0
 17 22  2  0  0  0  0
 18 25  1  0  0  0  0
 19  5  1  0  0  0  0
 20 19  1  0  0  0  0
 20  3  1  0  0  0  0
 21 23  2  0  0  0  0
 21  4  1  0  0  0  0
 22 23  1  0  0  0  0
 24 25  1  0  0  0  0
 26 27  1  0  0  0  0
 28 29  1  0  0  0  0
 28 30  1  0  0  0  0
 28 27  1  0  0  0  0
 29 30  1  0  0  0  0
 31 16  1  0  0  0  0
 33 34  2  0  0  0  0
 34 32  1  0  0  0  0
 34 31  1  0  0  0  0
M  END
>  <MODEL>
3

>  <REMARK>
 VINA RESULT:      -4.4      2.788      5.037
  Name = 
  6 active torsions:
  status: ('A' for Active; 'I' for Inactive)
    1  A    between atoms: C_7  and  C_11
    2  A    between atoms: C_7  and  C_14
    3  A    between atoms: C_14  and  C_16
    4  A    between atoms: O_23  and  C_24
    5  A    between atoms: O_23  and  C_25
    6  A    between atoms: C_28  and  C_29
                            x       y       z     vdW  Elec       q    Type
                         _______ _______ _______ _____ _____    ______ ____

>  <TORSDO>
F 6

$$$$
