=
 OpenBabel11052422383D

 31 35  0  0  1  0  0  0  0  0999 V2000
  161.2950  200.7630  148.5040 C   0  0  0  0  0  0  0  0  0  0  0  0
  161.5340  204.4930  148.3490 N   0  0  0  0  0  0  0  0  0  0  0  0
  161.2630  204.9660  147.0340 C   0  0  0  0  0  0  0  0  0  0  0  0
  160.9220  204.9370  144.6570 C   0  0  0  0  0  0  0  0  0  0  0  0
  161.3430  203.1540  148.8300 C   0  0  0  0  0  0  0  0  0  0  0  0
  160.9320  200.5990  149.8050 N   0  0  0  0  0  0  0  0  0  0  0  0
  161.2110  204.2390  145.8440 C   0  0  0  0  0  3  0  0  0  0  0  0
  160.4670  205.4250  150.3540 C   0  0  2  0  0  3  0  0  0  0  0  0
  161.4400  199.7590  147.7600 O   0  0  0  0  0  0  0  0  0  0  0  0
  161.3270  208.1910  148.7410 C   0  0  0  0  0  1  0  0  0  0  0  0
  160.8650  204.2700  143.4810 F   0  0  0  0  0  0  0  0  0  0  0  0
  160.8030  204.1270  151.1010 C   0  0  0  0  0  2  0  0  0  0  0  0
  161.4970  205.6620  149.2450 C   0  0  2  0  0  3  0  0  0  0  0  0
  161.5070  202.0450  147.9920 C   0  0  0  0  0  2  0  0  0  0  0  0
  160.6930  206.3280  144.6880 C   0  0  0  0  0  3  0  0  0  0  0  0
  160.9540  202.9590  150.1650 C   0  0  0  0  0  0  0  0  0  0  0  0
  160.7630  201.6600  150.6380 C   0  0  0  0  0  3  0  0  0  0  0  0
  161.1160  206.7960  148.3910 N   0  0  0  0  0  0  0  0  0  0  0  0
  161.0320  206.3100  147.0610 C   0  0  0  0  0  0  0  0  0  0  0  0
  160.7460  207.0330  145.9030 C   0  0  0  0  0  3  0  0  0  0  0  0
  162.6380  206.1410  152.0490 O   0  0  0  0  0  0  0  0  0  0  0  0
  161.6020  206.8570  152.1110 C   0  0  0  0  0  0  0  0  0  0  0  0
  160.4740  206.5420  151.2880 N   0  0  0  0  0  2  0  0  0  0  0  0
  161.3800  210.1560  154.8500 C   0  0  0  0  0  0  0  0  0  0  0  0
  161.0390  207.8200  154.3290 C   0  0  0  0  0  3  0  0  0  0  0  0
  162.4640  209.5650  151.3820 O   0  0  0  0  0  1  0  0  0  0  0  0
  161.3010  211.2380  155.7710 N   0  0  0  0  0  1  0  0  0  0  0  0
  160.9600  208.8820  155.2330 C   0  0  0  0  0  3  0  0  0  0  0  0
  161.9610  209.3110  152.6520 C   0  0  0  0  0  0  0  0  0  0  0  0
  161.5380  208.0160  153.0310 C   0  0  0  0  0  0  0  0  0  0  0  0
  161.8790  210.3690  153.5640 C   0  0  0  0  0  3  0  0  0  0  0  0
  1  6  1  0  0  0  0
  2  5  1  0  0  0  0
  3 19  1  0  0  0  0
  3  2  1  0  0  0  0
  4 15  2  0  0  0  0
  4  7  1  0  0  0  0
  5 16  2  0  0  0  0
  6 17  2  0  0  0  0
  7  3  2  0  0  0  0
  8 12  1  0  0  0  0
  8 23  1  1  0  0  0
  9  1  2  0  0  0  0
 11  4  1  0  0  0  0
 13  2  1  6  0  0  0
 13  8  1  0  0  0  0
 14  1  1  0  0  0  0
 14  5  1  0  0  0  0
 15 20  1  0  0  0  0
 16 17  1  0  0  0  0
 16 12  1  0  0  0  0
 18 10  1  0  0  0  0
 18 13  1  0  0  0  0
 19 18  1  0  0  0  0
 20 19  2  0  0  0  0
 21 22  2  0  0  0  0
 22 30  1  0  0  0  0
 23 22  1  0  0  0  0
 24 28  1  0  0  0  0
 24 27  1  0  0  0  0
 25 28  2  0  0  0  0
 26 29  1  0  0  0  0
 29 30  2  0  0  0  0
 29 31  1  0  0  0  0
 30 25  1  0  0  0  0
 31 24  2  0  0  0  0
M  END
>  <MODEL>
1

>  <REMARK>
 VINA RESULT:      -8.6      0.000      0.000
  Name = 
  2 active torsions:
  status: ('A' for Active; 'I' for Inactive)
    1  A    between atoms: C_9  and  C_22
    2  A    between atoms: C_15  and  N_23
                            x       y       z     vdW  Elec       q    Type
                         _______ _______ _______ _____ _____    ______ ____

>  <TORSDO>
F 2

$$$$
=
 OpenBabel11052422383D

 31 35  0  0  1  0  0  0  0  0999 V2000
  161.1810  208.1560  155.5980 C   0  0  0  0  0  0  0  0  0  0  0  0
  161.9530  207.4590  152.0040 N   0  0  0  0  0  0  0  0  0  0  0  0
  161.5340  206.1480  151.6400 C   0  0  0  0  0  0  0  0  0  0  0  0
  160.7900  203.8770  151.8720 C   0  0  0  0  0  0  0  0  0  0  0  0
  161.6460  208.1410  153.2290 C   0  0  0  0  0  0  0  0  0  0  0  0
  161.0270  209.5080  155.5530 N   0  0  0  0  0  0  0  0  0  0  0  0
  161.1690  205.0900  152.4740 C   0  0  0  0  0  3  0  0  0  0  0  0
  161.3990  209.4560  150.6880 C   0  0  2  0  0  3  0  0  0  0  0  0
  161.0420  207.5440  156.6880 O   0  0  0  0  0  0  0  0  0  0  0  0
  162.3780  207.3690  148.3060 C   0  0  0  0  0  1  0  0  0  0  0  0
  160.4310  202.8250  152.6440 F   0  0  0  0  0  0  0  0  0  0  0  0
  161.6580  210.3130  151.9340 C   0  0  0  0  0  2  0  0  0  0  0  0
  162.2470  208.1820  150.7550 C   0  0  2  0  0  3  0  0  0  0  0  0
  161.4940  207.4480  154.4350 C   0  0  0  0  0  2  0  0  0  0  0  0
  160.7830  203.7510  150.4670 C   0  0  0  0  0  3  0  0  0  0  0  0
  161.4670  209.5350  153.2060 C   0  0  0  0  0  0  0  0  0  0  0  0
  161.1660  210.2040  154.3930 C   0  0  0  0  0  3  0  0  0  0  0  0
  161.9020  207.2490  149.6740 N   0  0  0  0  0  0  0  0  0  0  0  0
  161.5180  206.0250  150.2820 C   0  0  0  0  0  0  0  0  0  0  0  0
  161.1500  204.8360  149.6520 C   0  0  0  0  0  3  0  0  0  0  0  0
  160.6500  212.1550  150.1880 O   0  0  0  0  0  0  0  0  0  0  0  0
  161.3350  211.5770  149.3010 C   0  0  0  0  0  0  0  0  0  0  0  0
  161.7360  210.2160  149.4930 N   0  0  0  0  0  2  0  0  0  0  0  0
  162.5610  213.6330  145.7370 C   0  0  0  0  0  0  0  0  0  0  0  0
  163.0850  212.5450  147.8320 C   0  0  0  0  0  3  0  0  0  0  0  0
  159.4180  212.4920  147.2770 O   0  0  0  0  0  1  0  0  0  0  0  0
  162.9850  214.3110  144.5610 N   0  0  0  0  0  1  0  0  0  0  0  0
  163.5020  213.2130  146.6780 C   0  0  0  0  0  3  0  0  0  0  0  0
  160.7780  212.7180  147.1040 C   0  0  0  0  0  0  0  0  0  0  0  0
  161.7240  212.2890  148.0620 C   0  0  0  0  0  0  0  0  0  0  0  0
  161.2040  213.3850  145.9500 C   0  0  0  0  0  3  0  0  0  0  0  0
  1  9  2  0  0  0  0
  2  5  1  0  0  0  0
  3  2  1  0  0  0  0
  3  7  1  0  0  0  0
  4  7  2  0  0  0  0
  4 11  1  0  0  0  0
  5 14  1  0  0  0  0
  6  1  1  0  0  0  0
  8 23  1  6  0  0  0
  8 13  1  0  0  0  0
  8 12  1  0  0  0  0
 10 18  1  0  0  0  0
 12 16  1  0  0  0  0
 13 18  1  6  0  0  0
 13  2  1  0  0  0  0
 14  1  1  0  0  0  0
 15  4  1  0  0  0  0
 16  5  2  0  0  0  0
 16 17  1  0  0  0  0
 17  6  2  0  0  0  0
 18 19  1  0  0  0  0
 19  3  2  0  0  0  0
 20 19  1  0  0  0  0
 20 15  2  0  0  0  0
 22 23  1  0  0  0  0
 22 21  2  0  0  0  0
 24 31  2  0  0  0  0
 24 28  1  0  0  0  0
 25 30  1  0  0  0  0
 27 24  1  0  0  0  0
 28 25  2  0  0  0  0
 29 26  1  0  0  0  0
 29 30  2  0  0  0  0
 30 22  1  0  0  0  0
 31 29  1  0  0  0  0
M  END
>  <MODEL>
2

>  <REMARK>
 VINA RESULT:      -8.1      3.856      7.329
  Name = 
  2 active torsions:
  status: ('A' for Active; 'I' for Inactive)
    1  A    between atoms: C_9  and  C_22
    2  A    between atoms: C_15  and  N_23
                            x       y       z     vdW  Elec       q    Type
                         _______ _______ _______ _____ _____    ______ ____

>  <TORSDO>
F 2

$$$$
=
 OpenBabel11052422383D

 31 35  0  0  1  0  0  0  0  0999 V2000
  161.7480  212.6960  149.0170 C   0  0  0  0  0  0  0  0  0  0  0  0
  161.9220  209.6250  151.1480 N   0  0  0  0  0  0  0  0  0  0  0  0
  161.4220  209.8850  152.4550 C   0  0  0  0  0  0  0  0  0  0  0  0
  160.6730  211.1170  154.3750 C   0  0  0  0  0  0  0  0  0  0  0  0
  161.8300  210.4980  150.0120 C   0  0  0  0  0  0  0  0  0  0  0  0
  161.6190  212.1280  147.7870 N   0  0  0  0  0  0  0  0  0  0  0  0
  161.1700  211.1170  153.0590 C   0  0  0  0  0  3  0  0  0  0  0  0
  161.2110  207.7010  149.7990 C   0  0  2  0  0  3  0  0  0  0  0  0
  161.7710  213.9480  149.1320 O   0  0  0  0  0  0  0  0  0  0  0  0
  161.7500  206.2610  152.7350 C   0  0  0  0  0  1  0  0  0  0  0  0
  160.4180  212.2910  154.9990 F   0  0  0  0  0  0  0  0  0  0  0  0
  161.6840  208.4440  148.5430 C   0  0  0  0  0  2  0  0  0  0  0  0
  162.0290  208.1630  151.0090 C   0  0  2  0  0  3  0  0  0  0  0  0
  161.8560  211.8890  150.1530 C   0  0  0  0  0  2  0  0  0  0  0  0
  160.4400  209.8990  155.0470 C   0  0  0  0  0  3  0  0  0  0  0  0
  161.6800  209.9360  148.7320 C   0  0  0  0  0  0  0  0  0  0  0  0
  161.5880  210.7780  147.6240 C   0  0  0  0  0  3  0  0  0  0  0  0
  161.4960  207.6110  152.2610 N   0  0  0  0  0  0  0  0  0  0  0  0
  161.1860  208.7090  153.1050 C   0  0  0  0  0  0  0  0  0  0  0  0
  160.6960  208.6730  154.4110 C   0  0  0  0  0  3  0  0  0  0  0  0
  160.0780  206.1880  147.6720 O   0  0  0  0  0  0  0  0  0  0  0  0
  160.7800  205.5610  148.5110 C   0  0  0  0  0  0  0  0  0  0  0  0
  161.3700  206.2670  149.6070 N   0  0  0  0  0  2  0  0  0  0  0  0
  161.3760  201.3190  148.2200 C   0  0  0  0  0  0  0  0  0  0  0  0
  160.8000  203.2850  149.5030 C   0  0  0  0  0  3  0  0  0  0  0  0
  161.5930  204.2560  146.0120 O   0  0  0  0  0  1  0  0  0  0  0  0
  161.5680  199.9120  148.1410 N   0  0  0  0  0  1  0  0  0  0  0  0
  160.9900  201.9040  149.4260 C   0  0  0  0  0  3  0  0  0  0  0  0
  161.3860  203.5000  147.1590 C   0  0  0  0  0  0  0  0  0  0  0  0
  160.9950  204.1020  148.3770 C   0  0  0  0  0  0  0  0  0  0  0  0
  161.5730  202.1150  147.0900 C   0  0  0  0  0  3  0  0  0  0  0  0
  1  9  2  0  0  0  0
  1 14  1  0  0  0  0
  2  3  1  0  0  0  0
  3  7  2  0  0  0  0
  3 19  1  0  0  0  0
  4 11  1  0  0  0  0
  4 15  2  0  0  0  0
  5 14  1  0  0  0  0
  5  2  1  0  0  0  0
  6  1  1  0  0  0  0
  7  4  1  0  0  0  0
  8 23  1  6  0  0  0
  8 13  1  0  0  0  0
 12 16  1  0  0  0  0
 12  8  1  0  0  0  0
 13  2  1  1  0  0  0
 13 18  1  0  0  0  0
 16  5  2  0  0  0  0
 17  6  2  0  0  0  0
 17 16  1  0  0  0  0
 18 10  1  0  0  0  0
 18 19  1  0  0  0  0
 19 20  2  0  0  0  0
 20 15  1  0  0  0  0
 21 22  2  0  0  0  0
 22 23  1  0  0  0  0
 24 28  1  0  0  0  0
 26 29  1  0  0  0  0
 27 24  1  0  0  0  0
 28 25  2  0  0  0  0
 29 30  2  0  0  0  0
 30 22  1  0  0  0  0
 30 25  1  0  0  0  0
 31 29  1  0  0  0  0
 31 24  2  0  0  0  0
M  END
>  <MODEL>
3

>  <REMARK>
 VINA RESULT:      -7.7      3.553      8.737
  Name = 
  2 active torsions:
  status: ('A' for Active; 'I' for Inactive)
    1  A    between atoms: C_9  and  C_22
    2  A    between atoms: C_15  and  N_23
                            x       y       z     vdW  Elec       q    Type
                         _______ _______ _______ _____ _____    ______ ____

>  <TORSDO>
F 2

$$$$
=
 OpenBabel11052422383D

 31 35  0  0  1  0  0  0  0  0999 V2000
  161.4120  205.4750  145.6480 C   0  0  0  0  0  0  0  0  0  0  0  0
  160.8700  204.6140  149.2480 N   0  0  0  0  0  0  0  0  0  0  0  0
  160.9760  203.2090  149.4560 C   0  0  0  0  0  0  0  0  0  0  0  0
  161.0870  200.8620  148.9600 C   0  0  0  0  0  0  0  0  0  0  0  0
  161.2110  205.3250  148.0480 C   0  0  0  0  0  0  0  0  0  0  0  0
  161.9100  206.7350  145.7740 N   0  0  0  0  0  0  0  0  0  0  0  0
  160.9690  202.1880  148.5050 C   0  0  0  0  0  3  0  0  0  0  0  0
  162.0510  206.2640  150.6290 C   0  0  2  0  0  3  0  0  0  0  0  0
  161.2740  204.9650  144.5060 O   0  0  0  0  0  0  0  0  0  0  0  0
  160.8280  204.2420  152.9530 C   0  0  0  0  0  1  0  0  0  0  0  0
  161.0820  199.8420  148.0710 F   0  0  0  0  0  0  0  0  0  0  0  0
  161.8900  207.2850  149.4950 C   0  0  0  0  0  2  0  0  0  0  0  0
  160.9030  205.2510  150.5760 C   0  0  2  0  0  3  0  0  0  0  0  0
  161.0530  204.7470  146.7840 C   0  0  0  0  0  2  0  0  0  0  0  0
  161.2090  200.5920  150.3390 C   0  0  0  0  0  3  0  0  0  0  0  0
  161.7410  206.6220  148.1540 C   0  0  0  0  0  0  0  0  0  0  0  0
  162.0760  207.3180  146.9920 C   0  0  0  0  0  3  0  0  0  0  0  0
  161.1100  204.1530  151.5300 N   0  0  0  0  0  0  0  0  0  0  0  0
  161.1030  202.9440  150.7880 C   0  0  0  0  0  0  0  0  0  0  0  0
  161.2190  201.6410  151.2740 C   0  0  0  0  0  3  0  0  0  0  0  0
  160.4560  208.5310  151.2760 O   0  0  0  0  0  0  0  0  0  0  0  0
  161.2150  208.0880  152.1800 C   0  0  0  0  0  0  0  0  0  0  0  0
  162.0470  206.9540  151.9110 N   0  0  0  0  0  2  0  0  0  0  0  0
  161.3760  210.0390  156.0010 C   0  0  0  0  0  0  0  0  0  0  0  0
  161.6960  210.0620  153.6050 C   0  0  0  0  0  3  0  0  0  0  0  0
  160.4360  206.7390  154.6670 O   0  0  0  0  0  1  0  0  0  0  0  0
  161.4340  210.7010  157.2580 N   0  0  0  0  0  1  0  0  0  0  0  0
  161.7550  210.7120  154.8390 C   0  0  0  0  0  3  0  0  0  0  0  0
  160.8770  208.0560  154.6950 C   0  0  0  0  0  0  0  0  0  0  0  0
  161.2600  208.7310  153.5130 C   0  0  0  0  0  0  0  0  0  0  0  0
  160.9380  208.7150  155.9280 C   0  0  0  0  0  3  0  0  0  0  0  0
  1  6  1  0  0  0  0
  1 14  1  0  0  0  0
  2  3  1  0  0  0  0
  3 19  1  0  0  0  0
  4 15  2  0  0  0  0
  5 16  2  0  0  0  0
  5  2  1  0  0  0  0
  6 17  2  0  0  0  0
  7  4  1  0  0  0  0
  7  3  2  0  0  0  0
  8 23  1  1  0  0  0
  9  1  2  0  0  0  0
 11  4  1  0  0  0  0
 12  8  1  0  0  0  0
 13  2  1  6  0  0  0
 13  8  1  0  0  0  0
 13 18  1  0  0  0  0
 14  5  1  0  0  0  0
 15 20  1  0  0  0  0
 16 12  1  0  0  0  0
 17 16  1  0  0  0  0
 18 10  1  0  0  0  0
 19 20  2  0  0  0  0
 19 18  1  0  0  0  0
 21 22  2  0  0  0  0
 22 30  1  0  0  0  0
 23 22  1  0  0  0  0
 24 27  1  0  0  0  0
 25 28  1  0  0  0  0
 26 29  1  0  0  0  0
 28 24  2  0  0  0  0
 29 31  2  0  0  0  0
 30 25  2  0  0  0  0
 30 29  1  0  0  0  0
 31 24  1  0  0  0  0
M  END
>  <MODEL>
4

>  <REMARK>
 VINA RESULT:      -7.4      2.164      4.354
  Name = 
  2 active torsions:
  status: ('A' for Active; 'I' for Inactive)
    1  A    between atoms: C_9  and  C_22
    2  A    between atoms: C_15  and  N_23
                            x       y       z     vdW  Elec       q    Type
                         _______ _______ _______ _____ _____    ______ ____

>  <TORSDO>
F 2

$$$$
=
 OpenBabel11052422383D

 31 35  0  0  1  0  0  0  0  0999 V2000
  161.9660  211.0540  149.5720 C   0  0  0  0  0  0  0  0  0  0  0  0
  161.8680  207.6440  151.1090 N   0  0  0  0  0  0  0  0  0  0  0  0
  161.4160  207.7080  152.4580 C   0  0  0  0  0  0  0  0  0  0  0  0
  160.8220  208.6350  154.5920 C   0  0  0  0  0  0  0  0  0  0  0  0
  161.8440  208.7140  150.1520 C   0  0  0  0  0  0  0  0  0  0  0  0
  161.7620  210.7340  148.2650 N   0  0  0  0  0  0  0  0  0  0  0  0
  161.2970  208.8280  153.2810 C   0  0  0  0  0  3  0  0  0  0  0  0
  160.9490  206.0740  149.4610 C   0  0  2  0  0  3  0  0  0  0  0  0
  162.1140  212.2560  149.9090 O   0  0  0  0  0  0  0  0  0  0  0  0
  161.3880  204.0790  152.0710 C   0  0  0  0  0  1  0  0  0  0  0  0
  160.6950  209.6950  155.4240 F   0  0  0  0  0  0  0  0  0  0  0  0
  161.4730  206.9850  148.3440 C   0  0  0  0  0  2  0  0  0  0  0  0
  161.8280  206.2280  150.7060 C   0  0  2  0  0  3  0  0  0  0  0  0
  162.0110  210.0480  150.5400 C   0  0  0  0  0  2  0  0  0  0  0  0
  160.4800  207.3430  155.0410 C   0  0  0  0  0  3  0  0  0  0  0  0
  161.6210  208.4110  148.7980 C   0  0  0  0  0  0  0  0  0  0  0  0
  161.5950  209.4460  147.8630 C   0  0  0  0  0  3  0  0  0  0  0  0
  161.2610  205.5110  151.8560 N   0  0  0  0  0  0  0  0  0  0  0  0
  161.0750  206.4610  152.8930 C   0  0  0  0  0  0  0  0  0  0  0  0
  160.6040  206.2340  154.1870 C   0  0  0  0  0  3  0  0  0  0  0  0
  161.3360  205.2210  146.7740 O   0  0  0  0  0  0  0  0  0  0  0  0
  161.1690  204.3220  147.6420 C   0  0  0  0  0  0  0  0  0  0  0  0
  160.9620  204.6900  149.0090 N   0  0  0  0  0  2  0  0  0  0  0  0
  161.2180  200.1490  146.6320 C   0  0  0  0  0  0  0  0  0  0  0  0
  161.4470  201.9320  148.2500 C   0  0  0  0  0  3  0  0  0  0  0  0
  160.6560  203.3590  144.9180 O   0  0  0  0  0  1  0  0  0  0  0  0
  161.2360  198.7630  146.3150 N   0  0  0  0  0  1  0  0  0  0  0  0
  161.4670  200.5700  147.9390 C   0  0  0  0  0  3  0  0  0  0  0  0
  160.9280  202.4560  145.9390 C   0  0  0  0  0  0  0  0  0  0  0  0
  161.1790  202.8910  147.2600 C   0  0  0  0  0  0  0  0  0  0  0  0
  160.9490  201.0900  145.6360 C   0  0  0  0  0  3  0  0  0  0  0  0
  1  9  2  0  0  0  0
  1 14  1  0  0  0  0
  2  3  1  0  0  0  0
  3 19  2  0  0  0  0
  3  7  1  0  0  0  0
  4 15  1  0  0  0  0
  4 11  1  0  0  0  0
  5 14  1  0  0  0  0
  5  2  1  0  0  0  0
  6  1  1  0  0  0  0
  7  4  2  0  0  0  0
  8 23  1  6  0  0  0
  8 13  1  0  0  0  0
 12 16  1  0  0  0  0
 12  8  1  0  0  0  0
 13  2  1  1  0  0  0
 13 18  1  0  0  0  0
 16  5  2  0  0  0  0
 17  6  2  0  0  0  0
 17 16  1  0  0  0  0
 18 10  1  0  0  0  0
 18 19  1  0  0  0  0
 19 20  1  0  0  0  0
 20 15  2  0  0  0  0
 21 22  2  0  0  0  0
 22 23  1  0  0  0  0
 24 28  1  0  0  0  0
 26 29  1  0  0  0  0
 27 24  1  0  0  0  0
 28 25  2  0  0  0  0
 29 30  2  0  0  0  0
 30 22  1  0  0  0  0
 30 25  1  0  0  0  0
 31 29  1  0  0  0  0
 31 24  2  0  0  0  0
M  END
>  <MODEL>
5

>  <REMARK>
 VINA RESULT:      -7.1      3.368      8.665
  Name = 
  2 active torsions:
  status: ('A' for Active; 'I' for Inactive)
    1  A    between atoms: C_9  and  C_22
    2  A    between atoms: C_15  and  N_23
                            x       y       z     vdW  Elec       q    Type
                         _______ _______ _______ _____ _____    ______ ____

>  <TORSDO>
F 2

$$$$
=
 OpenBabel11052422383D

 31 35  0  0  1  0  0  0  0  0999 V2000
  160.6480  209.9540  155.0690 C   0  0  0  0  0  0  0  0  0  0  0  0
  160.8350  208.8250  151.5070 N   0  0  0  0  0  0  0  0  0  0  0  0
  161.2010  209.9020  150.6510 C   0  0  0  0  0  0  0  0  0  0  0  0
  161.6150  212.1480  149.9110 C   0  0  0  0  0  0  0  0  0  0  0  0
  160.8590  208.8320  152.9430 C   0  0  0  0  0  0  0  0  0  0  0  0
  160.9470  208.7900  155.7070 N   0  0  0  0  0  0  0  0  0  0  0  0
  161.2100  211.2690  150.9320 C   0  0  0  0  0  3  0  0  0  0  0  0
  161.9350  206.6310  151.4440 C   0  0  2  0  0  3  0  0  0  0  0  0
  160.4150  210.9950  155.7360 O   0  0  0  0  0  0  0  0  0  0  0  0
  161.4460  207.1960  148.2150 C   0  0  0  0  0  1  0  0  0  0  0  0
  161.6350  213.4820  150.1410 F   0  0  0  0  0  0  0  0  0  0  0  0
  161.4300  206.3690  152.8690 C   0  0  0  0  0  2  0  0  0  0  0  0
  160.9750  207.5840  150.7250 C   0  0  2  0  0  3  0  0  0  0  0  0
  160.5990  209.9960  153.6740 C   0  0  0  0  0  2  0  0  0  0  0  0
  161.9980  211.6460  148.6500 C   0  0  0  0  0  3  0  0  0  0  0  0
  161.1800  207.6450  153.6240 C   0  0  0  0  0  0  0  0  0  0  0  0
  161.2070  207.6460  155.0190 C   0  0  0  0  0  3  0  0  0  0  0  0
  161.5090  208.0030  149.4220 N   0  0  0  0  0  0  0  0  0  0  0  0
  161.5810  209.4200  149.4330 C   0  0  0  0  0  0  0  0  0  0  0  0
  161.9850  210.2640  148.3980 C   0  0  0  0  0  3  0  0  0  0  0  0
  159.7190  205.1020  150.5220 O   0  0  0  0  0  0  0  0  0  0  0  0
  160.8690  204.6510  150.2730 C   0  0  0  0  0  0  0  0  0  0  0  0
  162.0230  205.3720  150.7180 N   0  0  0  0  0  2  0  0  0  0  0  0
  161.3710  201.0210  148.0360 C   0  0  0  0  0  0  0  0  0  0  0  0
  161.2060  203.4310  148.1380 C   0  0  0  0  0  3  0  0  0  0  0  0
  160.8800  202.0080  151.5480 O   0  0  0  0  0  1  0  0  0  0  0  0
  161.5400  199.8280  147.2790 N   0  0  0  0  0  1  0  0  0  0  0  0
  161.3700  202.2600  147.3940 C   0  0  0  0  0  3  0  0  0  0  0  0
  161.0410  202.1200  150.1720 C   0  0  0  0  0  0  0  0  0  0  0  0
  161.0390  203.3800  149.5310 C   0  0  0  0  0  0  0  0  0  0  0  0
  161.2070  200.9520  149.4200 C   0  0  0  0  0  3  0  0  0  0  0  0
  1  6  1  0  0  0  0
  1  9  2  0  0  0  0
  2  5  1  0  0  0  0
  3  7  1  0  0  0  0
  3  2  1  0  0  0  0
  4 11  1  0  0  0  0
  4  7  2  0  0  0  0
  5 16  2  0  0  0  0
  5 14  1  0  0  0  0
  8 23  1  6  0  0  0
  8 12  1  0  0  0  0
 10 18  1  0  0  0  0
 12 16  1  0  0  0  0
 13 18  1  6  0  0  0
 13  8  1  0  0  0  0
 13  2  1  0  0  0  0
 14  1  1  0  0  0  0
 15  4  1  0  0  0  0
 16 17  1  0  0  0  0
 17  6  2  0  0  0  0
 18 19  1  0  0  0  0
 19  3  2  0  0  0  0
 20 15  2  0  0  0  0
 20 19  1  0  0  0  0
 22 21  2  0  0  0  0
 22 23  1  0  0  0  0
 24 31  1  0  0  0  0
 25 30  2  0  0  0  0
 27 24  1  0  0  0  0
 28 24  2  0  0  0  0
 28 25  1  0  0  0  0
 29 26  1  0  0  0  0
 30 29  1  0  0  0  0
 30 22  1  0  0  0  0
 31 29  2  0  0  0  0
M  END
>  <MODEL>
6

>  <REMARK>
 VINA RESULT:      -6.6      2.974      7.807
  Name = 
  2 active torsions:
  status: ('A' for Active; 'I' for Inactive)
    1  A    between atoms: C_9  and  C_22
    2  A    between atoms: C_15  and  N_23
                            x       y       z     vdW  Elec       q    Type
                         _______ _______ _______ _____ _____    ______ ____

>  <TORSDO>
F 2

$$$$
=
 OpenBabel11052422383D

 31 35  0  0  1  0  0  0  0  0999 V2000
  161.9680  211.9810  149.6830 C   0  0  0  0  0  0  0  0  0  0  0  0
  161.9630  208.6530  151.3920 N   0  0  0  0  0  0  0  0  0  0  0  0
  161.4090  208.7540  152.7000 C   0  0  0  0  0  0  0  0  0  0  0  0
  160.6040  209.7460  154.7330 C   0  0  0  0  0  0  0  0  0  0  0  0
  161.9460  209.6700  150.3790 C   0  0  0  0  0  0  0  0  0  0  0  0
  161.8820  211.5850  148.3840 N   0  0  0  0  0  0  0  0  0  0  0  0
  161.1620  209.9030  153.4510 C   0  0  0  0  0  3  0  0  0  0  0  0
  161.2660  206.9470  149.7700 C   0  0  2  0  0  3  0  0  0  0  0  0
  162.0180  213.2060  149.9650 O   0  0  0  0  0  0  0  0  0  0  0  0
  161.6310  205.1160  152.5090 C   0  0  0  0  0  1  0  0  0  0  0  0
  160.3510  210.8350  155.4950 F   0  0  0  0  0  0  0  0  0  0  0  0
  161.8160  207.8330  148.6450 C   0  0  0  0  0  2  0  0  0  0  0  0
  162.0390  207.2190  151.0640 C   0  0  2  0  0  3  0  0  0  0  0  0
  162.0020  211.0290  150.7050 C   0  0  0  0  0  2  0  0  0  0  0  0
  160.3080  208.4580  155.2260 C   0  0  0  0  0  3  0  0  0  0  0  0
  161.8420  209.2860  149.0310 C   0  0  0  0  0  0  0  0  0  0  0  0
  161.8230  210.2700  148.0410 C   0  0  0  0  0  3  0  0  0  0  0  0
  161.4340  206.5240  152.2090 N   0  0  0  0  0  0  0  0  0  0  0  0
  161.1140  207.5110  153.1770 C   0  0  0  0  0  0  0  0  0  0  0  0
  160.5620  207.3180  154.4440 C   0  0  0  0  0  3  0  0  0  0  0  0
  160.1330  205.7480  147.4520 O   0  0  0  0  0  0  0  0  0  0  0  0
  160.8080  205.0010  148.2110 C   0  0  0  0  0  0  0  0  0  0  0  0
  161.3960  205.5460  149.3960 N   0  0  0  0  0  2  0  0  0  0  0  0
  161.3610  200.8680  147.1880 C   0  0  0  0  0  0  0  0  0  0  0  0
  161.2430  203.2000  146.5590 C   0  0  0  0  0  3  0  0  0  0  0  0
  160.6860  202.8580  150.2110 O   0  0  0  0  0  1  0  0  0  0  0  0
  161.5480  199.5040  146.8320 N   0  0  0  0  0  1  0  0  0  0  0  0
  161.4250  201.8600  146.2090 C   0  0  0  0  0  3  0  0  0  0  0  0
  160.9300  202.5550  148.8770 C   0  0  0  0  0  0  0  0  0  0  0  0
  160.9930  203.5670  147.8920 C   0  0  0  0  0  0  0  0  0  0  0  0
  161.1140  201.2160  148.5170 C   0  0  0  0  0  3  0  0  0  0  0  0
  1  9  2  0  0  0  0
  1 14  1  0  0  0  0
  2  3  1  0  0  0  0
  3 19  2  0  0  0  0
  3  7  1  0  0  0  0
  4 15  1  0  0  0  0
  4 11  1  0  0  0  0
  5 14  1  0  0  0  0
  5  2  1  0  0  0  0
  6  1  1  0  0  0  0
  7  4  2  0  0  0  0
  8 23  1  6  0  0  0
  8 13  1  0  0  0  0
 12 16  1  0  0  0  0
 12  8  1  0  0  0  0
 13  2  1  1  0  0  0
 13 18  1  0  0  0  0
 16  5  2  0  0  0  0
 17  6  2  0  0  0  0
 17 16  1  0  0  0  0
 18 10  1  0  0  0  0
 18 19  1  0  0  0  0
 19 20  1  0  0  0  0
 20 15  2  0  0  0  0
 21 22  2  0  0  0  0
 22 23  1  0  0  0  0
 24 31  1  0  0  0  0
 25 30  2  0  0  0  0
 27 24  1  0  0  0  0
 28 25  1  0  0  0  0
 28 24  2  0  0  0  0
 29 26  1  0  0  0  0
 30 22  1  0  0  0  0
 30 29  1  0  0  0  0
 31 29  2  0  0  0  0
M  END
>  <MODEL>
7

>  <REMARK>
 VINA RESULT:      -6.6      3.344      8.727
  Name = 
  2 active torsions:
  status: ('A' for Active; 'I' for Inactive)
    1  A    between atoms: C_9  and  C_22
    2  A    between atoms: C_15  and  N_23
                            x       y       z     vdW  Elec       q    Type
                         _______ _______ _______ _____ _____    ______ ____

>  <TORSDO>
F 2

$$$$
=
 OpenBabel11052422383D

 31 35  0  0  1  0  0  0  0  0999 V2000
  161.2030  201.9340  150.6430 C   0  0  0  0  0  0  0  0  0  0  0  0
  161.8210  205.5840  150.0990 N   0  0  0  0  0  0  0  0  0  0  0  0
  161.5300  205.9530  148.7550 C   0  0  0  0  0  0  0  0  0  0  0  0
  161.0600  205.7310  146.4110 C   0  0  0  0  0  0  0  0  0  0  0  0
  161.5170  204.3260  150.7210 C   0  0  0  0  0  0  0  0  0  0  0  0
  160.8960  201.9370  151.9690 N   0  0  0  0  0  0  0  0  0  0  0  0
  161.3380  205.1240  147.6490 C   0  0  0  0  0  3  0  0  0  0  0  0
  160.9660  206.8160  152.0420 C   0  0  2  0  0  3  0  0  0  0  0  0
  161.2020  200.8530  150.0010 O   0  0  0  0  0  0  0  0  0  0  0  0
  162.0210  209.3020  150.1210 C   0  0  0  0  0  1  0  0  0  0  0  0
  160.8710  204.9640  145.3130 F   0  0  0  0  0  0  0  0  0  0  0  0
  161.2050  205.5680  152.9020 C   0  0  0  0  0  2  0  0  0  0  0  0
  161.9540  206.8310  150.8710 C   0  0  2  0  0  3  0  0  0  0  0  0
  161.5190  203.1300  149.9950 C   0  0  0  0  0  2  0  0  0  0  0  0
  160.9800  207.1360  146.3100 C   0  0  0  0  0  3  0  0  0  0  0  0
  161.1820  204.3050  152.0860 C   0  0  0  0  0  0  0  0  0  0  0  0
  160.8830  203.0870  152.6960 C   0  0  0  0  0  3  0  0  0  0  0  0
  161.6480  207.9110  149.9240 N   0  0  0  0  0  0  0  0  0  0  0  0
  161.4420  207.3110  148.6550 C   0  0  0  0  0  0  0  0  0  0  0  0
  161.1710  207.9450  147.4420 C   0  0  0  0  0  3  0  0  0  0  0  0
  160.0740  207.1240  154.7270 O   0  0  0  0  0  0  0  0  0  0  0  0
  160.6740  208.1030  154.2070 C   0  0  0  0  0  0  0  0  0  0  0  0
  161.1400  208.0100  152.8570 N   0  0  0  0  0  2  0  0  0  0  0  0
  161.3890  211.6660  156.4940 C   0  0  0  0  0  0  0  0  0  0  0  0
  161.8050  209.3270  156.0460 C   0  0  0  0  0  3  0  0  0  0  0  0
  159.3230  210.6420  153.6240 O   0  0  0  0  0  1  0  0  0  0  0  0
  161.6390  212.8370  157.2610 N   0  0  0  0  0  1  0  0  0  0  0  0
  162.0500  210.4760  156.8010 C   0  0  0  0  0  3  0  0  0  0  0  0
  160.2320  210.5590  154.6720 C   0  0  0  0  0  0  0  0  0  0  0  0
  160.8970  209.3490  154.9760 C   0  0  0  0  0  0  0  0  0  0  0  0
  160.4830  211.7060  155.4320 C   0  0  0  0  0  3  0  0  0  0  0  0
  1  6  1  0  0  0  0
  2  5  1  0  0  0  0
  2 13  1  0  0  0  0
  3  2  1  0  0  0  0
  4  7  1  0  0  0  0
  5 16  2  0  0  0  0
  6 17  2  0  0  0  0
  7  3  2  0  0  0  0
  8 23  1  1  0  0  0
  8 12  1  0  0  0  0
  9  1  2  0  0  0  0
 11  4  1  0  0  0  0
 13 18  1  6  0  0  0
 13  8  1  0  0  0  0
 14  1  1  0  0  0  0
 14  5  1  0  0  0  0
 15  4  2  0  0  0  0
 15 20  1  0  0  0  0
 16 17  1  0  0  0  0
 16 12  1  0  0  0  0
 18 10  1  0  0  0  0
 19  3  1  0  0  0  0
 19 18  1  0  0  0  0
 20 19  2  0  0  0  0
 22 21  2  0  0  0  0
 22 30  1  0  0  0  0
 23 22  1  0  0  0  0
 24 28  1  0  0  0  0
 24 27  1  0  0  0  0
 25 28  2  0  0  0  0
 26 29  1  0  0  0  0
 29 30  2  0  0  0  0
 29 31  1  0  0  0  0
 30 25  1  0  0  0  0
 31 24  2  0  0  0  0
M  END
>  <MODEL>
8

>  <REMARK>
 VINA RESULT:      -6.2      1.854      2.408
  Name = 
  2 active torsions:
  status: ('A' for Active; 'I' for Inactive)
    1  A    between atoms: C_9  and  C_22
    2  A    between atoms: C_15  and  N_23
                            x       y       z     vdW  Elec       q    Type
                         _______ _______ _______ _____ _____    ______ ____

>  <TORSDO>
F 2

$$$$
