=
 OpenBabel11062410533D

 32 36  0  0  1  0  0  0  0  0999 V2000
  160.7080  209.1500  154.8590 C   0  0  0  0  0  0  0  0  0  0  0  0
  161.3820  206.3030  150.7080 C   0  0  2  0  0  3  0  0  0  0  0  0
  160.8780  204.1080  149.5670 C   0  0  0  0  0  0  0  0  0  0  0  0
  160.9080  203.2790  148.3470 C   0  0  0  0  0  0  0  0  0  0  0  0
  161.3610  207.0740  153.0880 C   0  0  0  0  0  0  0  0  0  0  0  0
  161.4400  208.6780  151.2620 O   0  0  0  0  0  0  0  0  0  0  0  0
  161.0410  201.6690  146.0560 C   0  0  0  0  0  3  0  0  0  0  0  0
  160.9160  209.4230  153.5040 C   0  0  0  0  0  3  0  0  0  0  0  0
  161.9260  207.6960  150.3460 C   0  0  2  0  0  3  0  0  0  0  0  0
  161.5490  208.0970  148.9120 C   0  0  2  0  0  3  0  0  0  0  0  0
  162.4600  205.7620  148.4400 C   0  0  2  0  0  3  0  0  0  0  0  0
  160.1280  201.3670  147.0710 C   0  0  0  0  0  3  0  0  0  0  0  0
  160.8370  207.8320  155.3270 C   0  0  0  0  0  3  0  0  0  0  0  0
  161.2490  208.3940  152.6180 C   0  0  0  0  0  0  0  0  0  0  0  0
  160.0630  202.1680  148.2140 C   0  0  0  0  0  3  0  0  0  0  0  0
  161.1650  206.7990  154.4440 C   0  0  0  0  0  3  0  0  0  0  0  0
  161.6450  206.9470  147.8940 C   0  0  1  0  0  3  0  0  0  0  0  0
  162.6640  204.7300  147.4260 N   0  0  0  0  0  2  0  0  0  0  0  0
  161.7500  205.9670  152.1540 C   0  0  0  0  0  2  0  0  0  0  0  0
  160.0400  203.8520  150.4750 O   0  0  0  0  0  0  0  0  0  0  0  0
  161.8830  202.7770  146.1800 C   0  0  0  0  0  3  0  0  0  0  0  0
  161.9080  205.1970  149.7720 C   0  0  1  0  0  3  0  0  0  0  0  0
  161.8120  203.5880  147.3170 C   0  0  0  0  0  0  0  0  0  0  0  0
  161.5500  210.2920  148.6200 C   0  0  0  0  0  1  0  0  0  0  0  0
  162.3560  209.1590  148.4960 O   0  0  0  0  0  0  0  0  0  0  0  0
  160.2120  206.4220  146.0500 O   0  0  0  0  0  1  0  0  0  0  0  0
  160.2510  206.5300  147.4410 C   0  0  0  0  0  2  0  0  0  0  0  0
  160.3780  210.2030  155.7170 O   0  0  0  0  0  0  0  0  0  0  0  0
  159.9290  211.4670  155.2440 C   0  0  0  0  0  2  0  0  0  0  0  0
  158.4460  211.4650  155.1510 C   0  0  0  0  0  0  0  0  0  0  0  0
  157.7500  211.4220  156.1980 O   0  0  0  0  0  1  0  0  0  0  0  0
  157.8290  211.4700  153.9070 O   0  0  0  0  0  0  0  0  0  0  0  0
  1 13  1  0  0  0  0
  1 28  1  0  0  0  0
  2 19  1  1  0  0  0
  3 20  2  0  0  0  0
  4  3  1  0  0  0  0
  5 16  1  0  0  0  0
  6 14  1  0  0  0  0
  7 21  2  0  0  0  0
  7 12  1  0  0  0  0
  8  1  2  0  0  0  0
  9  2  1  0  0  0  0
  9  6  1  1  0  0  0
 10 25  1  6  0  0  0
 10  9  1  0  0  0  0
 11 18  1  6  0  0  0
 11 22  1  0  0  0  0
 12 15  2  0  0  0  0
 14  5  2  0  0  0  0
 14  8  1  0  0  0  0
 15  4  1  0  0  0  0
 16 13  2  0  0  0  0
 17 27  1  1  0  0  0
 17 11  1  0  0  0  0
 17 10  1  0  0  0  0
 19  5  1  0  0  0  0
 21 23  1  0  0  0  0
 22  3  1  6  0  0  0
 22  2  1  0  0  0  0
 23 18  1  0  0  0  0
 23  4  2  0  0  0  0
 25 24  1  0  0  0  0
 26 27  1  0  0  0  0
 29 28  1  0  0  0  0
 30 29  1  0  0  0  0
 30 31  1  0  0  0  0
 32 30  2  0  0  0  0
M  END
>  <MODEL>
1

>  <REMARK>
 VINA RESULT:      -7.0      0.000      0.000
  Name = 
  5 active torsions:
  status: ('A' for Active; 'I' for Inactive)
    1  A    between atoms: C_1  and  C_10
    2  A    between atoms: C_2  and  O_24
    3  A    between atoms: C_10  and  O_24
    4  A    between atoms: O_13  and  C_15
    5  A    between atoms: C_25  and  C_26
                            x       y       z     vdW  Elec       q    Type
                         _______ _______ _______ _____ _____    ______ ____

>  <TORSDO>
F 5

$$$$
=
 OpenBabel11062410533D

 32 36  0  0  1  0  0  0  0  0999 V2000
  161.2530  205.5530  148.8930 C   0  0  0  0  0  0  0  0  0  0  0  0
  160.8170  209.0540  152.5460 C   0  0  2  0  0  3  0  0  0  0  0  0
  160.0360  211.3810  153.1380 C   0  0  0  0  0  0  0  0  0  0  0  0
  159.7460  212.3950  154.1690 C   0  0  0  0  0  0  0  0  0  0  0  0
  161.4220  207.9110  150.4040 C   0  0  0  0  0  0  0  0  0  0  0  0
  161.0140  206.6250  152.4270 O   0  0  0  0  0  0  0  0  0  0  0  0
  159.2750  214.3560  156.1170 C   0  0  0  0  0  3  0  0  0  0  0  0
  161.0970  205.5100  150.2820 C   0  0  0  0  0  3  0  0  0  0  0  0
  161.2440  207.7610  153.2630 C   0  0  2  0  0  3  0  0  0  0  0  0
  160.5030  207.5790  154.5950 C   0  0  2  0  0  3  0  0  0  0  0  0
  161.2620  209.9960  154.8940 C   0  0  2  0  0  3  0  0  0  0  0  0
  158.6620  214.4530  154.8640 C   0  0  0  0  0  3  0  0  0  0  0  0
  161.5030  206.7830  148.2640 C   0  0  0  0  0  3  0  0  0  0  0  0
  161.1870  206.6810  151.0400 C   0  0  0  0  0  0  0  0  0  0  0  0
  158.8990  213.4770  153.8920 C   0  0  0  0  0  3  0  0  0  0  0  0
  161.5900  207.9570  149.0170 C   0  0  0  0  0  3  0  0  0  0  0  0
  160.3300  208.8810  155.3980 C   0  0  1  0  0  3  0  0  0  0  0  0
  161.1950  211.1850  155.7410 N   0  0  0  0  0  2  0  0  0  0  0  0
  161.5540  209.1690  151.2100 C   0  0  0  0  0  2  0  0  0  0  0  0
  159.4670  211.4530  152.0130 O   0  0  0  0  0  0  0  0  0  0  0  0
  160.1180  213.2780  156.4010 C   0  0  0  0  0  3  0  0  0  0  0  0
  161.0810  210.3160  153.3900 C   0  0  1  0  0  3  0  0  0  0  0  0
  160.3470  212.2930  155.4340 C   0  0  0  0  0  0  0  0  0  0  0  0
  160.7780  206.9090  156.6880 C   0  0  0  0  0  1  0  0  0  0  0  0
  161.1700  206.6330  155.3760 O   0  0  0  0  0  0  0  0  0  0  0  0
  158.5530  209.9400  156.6020 O   0  0  0  0  0  1  0  0  0  0  0  0
  158.8670  209.3070  155.3980 C   0  0  0  0  0  2  0  0  0  0  0  0
  161.1580  204.3630  148.1660 O   0  0  0  0  0  0  0  0  0  0  0  0
  162.1220  203.9790  147.1930 C   0  0  0  0  0  2  0  0  0  0  0  0
  161.4880  203.9500  145.8490 C   0  0  0  0  0  0  0  0  0  0  0  0
  161.0680  202.8630  145.3740 O   0  0  0  0  0  1  0  0  0  0  0  0
  161.3980  205.1150  145.1000 O   0  0  0  0  0  0  0  0  0  0  0  0
  1  8  1  0  0  0  0
  2 19  1  6  0  0  0
  2  9  1  0  0  0  0
  2 22  1  0  0  0  0
  3  4  1  0  0  0  0
  4 23  1  0  0  0  0
  5 14  1  0  0  0  0
  5 19  1  0  0  0  0
  7 21  1  0  0  0  0
  8 14  2  0  0  0  0
  9  6  1  6  0  0  0
  9 10  1  0  0  0  0
 10 25  1  1  0  0  0
 10 17  1  0  0  0  0
 11 17  1  0  0  0  0
 11 18  1  1  0  0  0
 12  7  2  0  0  0  0
 13  1  2  0  0  0  0
 13 16  1  0  0  0  0
 14  6  1  0  0  0  0
 15  4  2  0  0  0  0
 15 12  1  0  0  0  0
 16  5  2  0  0  0  0
 17 27  1  6  0  0  0
 20  3  2  0  0  0  0
 22  3  1  1  0  0  0
 22 11  1  0  0  0  0
 23 18  1  0  0  0  0
 23 21  2  0  0  0  0
 25 24  1  0  0  0  0
 27 26  1  0  0  0  0
 28  1  1  0  0  0  0
 29 28  1  0  0  0  0
 30 29  1  0  0  0  0
 31 30  1  0  0  0  0
 32 30  2  0  0  0  0
M  END
>  <MODEL>
2

>  <REMARK>
 VINA RESULT:      -6.6      2.628      9.384
  Name = 
  5 active torsions:
  status: ('A' for Active; 'I' for Inactive)
    1  A    between atoms: C_1  and  C_10
    2  A    between atoms: C_2  and  O_24
    3  A    between atoms: C_10  and  O_24
    4  A    between atoms: O_13  and  C_15
    5  A    between atoms: C_25  and  C_26
                            x       y       z     vdW  Elec       q    Type
                         _______ _______ _______ _____ _____    ______ ____

>  <TORSDO>
F 5

$$$$
=
 OpenBabel11062410533D

 32 36  0  0  1  0  0  0  0  0999 V2000
  161.3850  202.5630  148.3170 C   0  0  0  0  0  0  0  0  0  0  0  0
  161.0680  206.5560  151.4400 C   0  0  2  0  0  3  0  0  0  0  0  0
  161.2720  207.3790  153.8180 C   0  0  0  0  0  0  0  0  0  0  0  0
  161.3380  208.5070  154.7650 C   0  0  0  0  0  0  0  0  0  0  0  0
  160.6910  204.3120  150.4000 C   0  0  0  0  0  0  0  0  0  0  0  0
  161.4730  206.1870  149.0620 O   0  0  0  0  0  0  0  0  0  0  0  0
  161.3770  210.6440  156.5810 C   0  0  0  0  0  3  0  0  0  0  0  0
  161.5940  203.9390  148.1780 C   0  0  0  0  0  3  0  0  0  0  0  0
  160.9980  207.1380  150.0170 C   0  0  2  0  0  3  0  0  0  0  0  0
  161.8060  208.4380  149.8950 C   0  0  2  0  0  3  0  0  0  0  0  0
  160.4850  208.9930  152.0060 C   0  0  2  0  0  3  0  0  0  0  0  0
  161.9040  209.4030  156.9500 C   0  0  0  0  0  3  0  0  0  0  0  0
  160.8180  202.0670  149.5030 C   0  0  0  0  0  3  0  0  0  0  0  0
  161.2440  204.8150  149.2090 C   0  0  0  0  0  0  0  0  0  0  0  0
  161.8830  208.3370  156.0460 C   0  0  0  0  0  3  0  0  0  0  0  0
  160.4700  202.9390  150.5380 C   0  0  0  0  0  3  0  0  0  0  0  0
  161.6800  209.3700  151.1140 C   0  0  1  0  0  3  0  0  0  0  0  0
  160.2870  209.9580  153.0850 N   0  0  0  0  0  2  0  0  0  0  0  0
  160.2810  205.2460  151.4980 C   0  0  0  0  0  2  0  0  0  0  0  0
  161.7670  206.2630  154.1400 O   0  0  0  0  0  0  0  0  0  0  0  0
  160.8360  210.8220  155.3040 C   0  0  0  0  0  3  0  0  0  0  0  0
  160.5300  207.5280  152.5080 C   0  0  1  0  0  3  0  0  0  0  0  0
  160.8240  209.7600  154.3940 C   0  0  0  0  0  0  0  0  0  0  0  0
  162.2140  210.2710  148.7220 C   0  0  0  0  0  1  0  0  0  0  0  0
  161.4210  209.1220  148.7400 O   0  0  0  0  0  0  0  0  0  0  0  0
  163.3510  210.7210  152.1690 O   0  0  0  0  0  1  0  0  0  0  0  0
  162.9930  209.4020  151.8880 C   0  0  0  0  0  2  0  0  0  0  0  0
  161.7450  201.7150  147.2670 O   0  0  0  0  0  0  0  0  0  0  0  0
  160.8040  200.8960  146.5830 C   0  0  0  0  0  2  0  0  0  0  0  0
  160.3720  201.5740  145.3320 C   0  0  0  0  0  0  0  0  0  0  0  0
  159.6530  200.9610  144.5010 O   0  0  0  0  0  0  0  0  0  0  0  0
  160.7950  202.8680  145.0630 O   0  0  0  0  0  1  0  0  0  0  0  0
  1 13  1  0  0  0  0
  2 19  1  6  0  0  0
  2 22  1  0  0  0  0
  3 20  2  0  0  0  0
  3  4  1  0  0  0  0
  4 15  1  0  0  0  0
  5 16  1  0  0  0  0
  5 19  1  0  0  0  0
  6 14  1  0  0  0  0
  7 12  1  0  0  0  0
  8  1  2  0  0  0  0
  8 14  1  0  0  0  0
  9  6  1  6  0  0  0
  9  2  1  0  0  0  0
 10 25  1  6  0  0  0
 10  9  1  0  0  0  0
 10 17  1  0  0  0  0
 11 22  1  0  0  0  0
 11 18  1  1  0  0  0
 13 16  2  0  0  0  0
 14  5  2  0  0  0  0
 15 12  2  0  0  0  0
 17 27  1  1  0  0  0
 17 11  1  0  0  0  0
 18 23  1  0  0  0  0
 21  7  2  0  0  0  0
 22  3  1  1  0  0  0
 23  4  2  0  0  0  0
 23 21  1  0  0  0  0
 24 25  1  0  0  0  0
 27 26  1  0  0  0  0
 28  1  1  0  0  0  0
 29 28  1  0  0  0  0
 30 29  1  0  0  0  0
 31 30  2  0  0  0  0
 32 30  1  0  0  0  0
M  END
>  <MODEL>
3

>  <REMARK>
 VINA RESULT:      -6.6      2.723      8.451
  Name = 
  5 active torsions:
  status: ('A' for Active; 'I' for Inactive)
    1  A    between atoms: C_1  and  C_10
    2  A    between atoms: C_2  and  O_24
    3  A    between atoms: C_10  and  O_24
    4  A    between atoms: O_13  and  C_15
    5  A    between atoms: C_25  and  C_26
                            x       y       z     vdW  Elec       q    Type
                         _______ _______ _______ _____ _____    ______ ____

>  <TORSDO>
F 5

$$$$
=
 OpenBabel11062410533D

 32 36  0  0  1  0  0  0  0  0999 V2000
  162.2580  204.7420  146.9360 C   0  0  0  0  0  0  0  0  0  0  0  0
  161.2450  207.4960  151.0810 C   0  0  2  0  0  3  0  0  0  0  0  0
  161.1450  207.5300  153.6040 C   0  0  0  0  0  0  0  0  0  0  0  0
  161.0080  208.2980  154.8550 C   0  0  0  0  0  0  0  0  0  0  0  0
  161.2000  205.6810  149.3600 C   0  0  0  0  0  0  0  0  0  0  0  0
  161.8980  207.9350  148.7720 O   0  0  0  0  0  0  0  0  0  0  0  0
  160.6580  209.7410  157.2340 C   0  0  0  0  0  3  0  0  0  0  0  0
  162.3340  206.1010  147.2560 C   0  0  0  0  0  3  0  0  0  0  0  0
  161.2420  208.4950  149.9110 C   0  0  2  0  0  3  0  0  0  0  0  0
  161.9170  209.8200  150.2950 C   0  0  2  0  0  3  0  0  0  0  0  0
  160.3610  209.5770  152.3010 C   0  0  2  0  0  3  0  0  0  0  0  0
  161.2770  208.4870  157.2610 C   0  0  0  0  0  3  0  0  0  0  0  0
  161.6420  203.8540  147.8340 C   0  0  0  0  0  3  0  0  0  0  0  0
  161.8020  206.5750  148.4580 C   0  0  0  0  0  0  0  0  0  0  0  0
  161.4490  207.7670  156.0750 C   0  0  0  0  0  3  0  0  0  0  0  0
  161.1120  204.3230  149.0400 C   0  0  0  0  0  3  0  0  0  0  0  0
  161.5850  210.3030  151.7180 C   0  0  1  0  0  3  0  0  0  0  0  0
  159.9660  210.1310  153.5940 N   0  0  0  0  0  2  0  0  0  0  0  0
  160.5970  206.1830  150.6380 C   0  0  0  0  0  2  0  0  0  0  0  0
  161.7230  206.4080  153.6210 O   0  0  0  0  0  0  0  0  0  0  0  0
  160.2190  210.2780  156.0210 C   0  0  0  0  0  3  0  0  0  0  0  0
  160.5140  208.0360  152.3260 C   0  0  1  0  0  3  0  0  0  0  0  0
  160.4010  209.5640  154.8320 C   0  0  0  0  0  0  0  0  0  0  0  0
  162.7840  211.3320  148.9290 C   0  0  0  0  0  1  0  0  0  0  0  0
  161.5680  210.8080  149.3710 O   0  0  0  0  0  0  0  0  0  0  0  0
  163.9430  210.6430  151.9410 O   0  0  0  0  0  1  0  0  0  0  0  0
  162.8120  210.1790  152.6140 C   0  0  0  0  0  2  0  0  0  0  0  0
  162.7990  204.3010  145.7260 O   0  0  0  0  0  0  0  0  0  0  0  0
  162.2230  204.6240  144.4650 C   0  0  0  0  0  2  0  0  0  0  0  0
  160.7420  204.6540  144.5880 C   0  0  0  0  0  0  0  0  0  0  0  0
  160.0780  203.5930  144.4540 O   0  0  0  0  0  0  0  0  0  0  0  0
  160.0890  205.8590  144.8080 O   0  0  0  0  0  1  0  0  0  0  0  0
  1  8  2  0  0  0  0
  1 13  1  0  0  0  0
  2 19  1  6  0  0  0
  2 22  1  0  0  0  0
  3 20  2  0  0  0  0
  3  4  1  0  0  0  0
  4 15  1  0  0  0  0
  5 19  1  0  0  0  0
  7 12  1  0  0  0  0
  8 14  1  0  0  0  0
  9  6  1  6  0  0  0
  9 10  1  0  0  0  0
  9  2  1  0  0  0  0
 10 25  1  6  0  0  0
 10 17  1  0  0  0  0
 11 22  1  0  0  0  0
 11 18  1  1  0  0  0
 13 16  2  0  0  0  0
 14  6  1  0  0  0  0
 14  5  2  0  0  0  0
 15 12  2  0  0  0  0
 16  5  1  0  0  0  0
 17 11  1  0  0  0  0
 17 27  1  1  0  0  0
 18 23  1  0  0  0  0
 21  7  2  0  0  0  0
 22  3  1  1  0  0  0
 23  4  2  0  0  0  0
 23 21  1  0  0  0  0
 24 25  1  0  0  0  0
 26 27  1  0  0  0  0
 28  1  1  0  0  0  0
 29 30  1  0  0  0  0
 29 28  1  0  0  0  0
 30 32  1  0  0  0  0
 31 30  2  0  0  0  0
M  END
>  <MODEL>
4

>  <REMARK>
 VINA RESULT:      -6.3      2.872      8.240
  Name = 
  5 active torsions:
  status: ('A' for Active; 'I' for Inactive)
    1  A    between atoms: C_1  and  C_10
    2  A    between atoms: C_2  and  O_24
    3  A    between atoms: C_10  and  O_24
    4  A    between atoms: O_13  and  C_15
    5  A    between atoms: C_25  and  C_26
                            x       y       z     vdW  Elec       q    Type
                         _______ _______ _______ _____ _____    ______ ____

>  <TORSDO>
F 5

$$$$
=
 OpenBabel11062410533D

 32 36  0  0  1  0  0  0  0  0999 V2000
  160.3270  213.4290  145.7300 C   0  0  0  0  0  0  0  0  0  0  0  0
  161.0100  211.3610  150.3180 C   0  0  2  0  0  3  0  0  0  0  0  0
  160.1940  211.2370  152.7040 C   0  0  0  0  0  0  0  0  0  0  0  0
  160.2360  210.5790  154.0240 C   0  0  0  0  0  0  0  0  0  0  0  0
  160.7550  213.0340  148.4750 C   0  0  0  0  0  0  0  0  0  0  0  0
  161.5510  210.7830  148.0110 O   0  0  0  0  0  0  0  0  0  0  0  0
  160.3760  209.3900  156.5600 C   0  0  0  0  0  3  0  0  0  0  0  0
  160.8350  212.2110  146.1940 C   0  0  0  0  0  3  0  0  0  0  0  0
  161.9360  210.5790  149.3710 C   0  0  2  0  0  3  0  0  0  0  0  0
  161.9320  209.0760  149.6870 C   0  0  2  0  0  3  0  0  0  0  0  0
  162.3090  209.9720  152.0450 C   0  0  2  0  0  3  0  0  0  0  0  0
  159.2510  210.1370  156.1990 C   0  0  0  0  0  3  0  0  0  0  0  0
  160.0420  214.4530  146.6490 C   0  0  0  0  0  3  0  0  0  0  0  0
  161.0570  212.0120  147.5590 C   0  0  0  0  0  0  0  0  0  0  0  0
  159.1820  210.7320  154.9360 C   0  0  0  0  0  3  0  0  0  0  0  0
  160.2580  214.2570  148.0150 C   0  0  0  0  0  3  0  0  0  0  0  0
  161.9220  208.7520  151.1920 C   0  0  1  0  0  3  0  0  0  0  0  0
  162.4310  209.6290  153.4600 N   0  0  0  0  0  2  0  0  0  0  0  0
  161.0200  212.8430  149.9390 C   0  0  0  0  0  2  0  0  0  0  0  0
  159.1710  211.8940  152.3670 O   0  0  0  0  0  0  0  0  0  0  0  0
  161.4290  209.2300  155.6540 C   0  0  0  0  0  3  0  0  0  0  0  0
  161.4060  211.2070  151.8000 C   0  0  1  0  0  3  0  0  0  0  0  0
  161.3580  209.8140  154.3860 C   0  0  0  0  0  0  0  0  0  0  0  0
  162.4990  207.4450  148.3020 C   0  0  0  0  0  1  0  0  0  0  0  0
  163.0360  208.4680  149.0850 O   0  0  0  0  0  0  0  0  0  0  0  0
  160.7480  206.9190  152.1850 O   0  0  0  0  0  1  0  0  0  0  0  0
  160.5720  208.1700  151.5940 C   0  0  0  0  0  2  0  0  0  0  0  0
  160.1180  213.5960  144.3590 O   0  0  0  0  0  0  0  0  0  0  0  0
  159.5770  212.5700  143.5350 C   0  0  0  0  0  2  0  0  0  0  0  0
  160.4890  212.3210  142.3870 C   0  0  0  0  0  0  0  0  0  0  0  0
  160.0280  212.2630  141.2180 O   0  0  0  0  0  0  0  0  0  0  0  0
  161.8430  212.1130  142.6110 O   0  0  0  0  0  1  0  0  0  0  0  0
  1  8  2  0  0  0  0
  1 13  1  0  0  0  0
  2 19  1  6  0  0  0
  2 22  1  0  0  0  0
  3  4  1  0  0  0  0
  4 23  2  0  0  0  0
  4 15  1  0  0  0  0
  5 19  1  0  0  0  0
  8 14  1  0  0  0  0
  9  6  1  6  0  0  0
  9 10  1  0  0  0  0
  9  2  1  0  0  0  0
 10 25  1  1  0  0  0
 10 17  1  0  0  0  0
 11 18  1  1  0  0  0
 12  7  1  0  0  0  0
 13 16  2  0  0  0  0
 14  6  1  0  0  0  0
 14  5  2  0  0  0  0
 15 12  2  0  0  0  0
 16  5  1  0  0  0  0
 17 27  1  1  0  0  0
 17 11  1  0  0  0  0
 18 23  1  0  0  0  0
 20  3  2  0  0  0  0
 21  7  2  0  0  0  0
 22 11  1  0  0  0  0
 22  3  1  1  0  0  0
 23 21  1  0  0  0  0
 24 25  1  0  0  0  0
 27 26  1  0  0  0  0
 28  1  1  0  0  0  0
 29 28  1  0  0  0  0
 30 32  1  0  0  0  0
 30 29  1  0  0  0  0
 31 30  2  0  0  0  0
M  END
>  <MODEL>
5

>  <REMARK>
 VINA RESULT:      -4.2      3.648      8.846
  Name = 
  5 active torsions:
  status: ('A' for Active; 'I' for Inactive)
    1  A    between atoms: C_1  and  C_10
    2  A    between atoms: C_2  and  O_24
    3  A    between atoms: C_10  and  O_24
    4  A    between atoms: O_13  and  C_15
    5  A    between atoms: C_25  and  C_26
                            x       y       z     vdW  Elec       q    Type
                         _______ _______ _______ _____ _____    ______ ____

>  <TORSDO>
F 5

$$$$
