=
 OpenBabel11052423023D

 28 29  0  0  1  0  0  0  0  0999 V2000
  159.6880  208.6550  155.5700 O   0  0  0  0  0  1  0  0  0  0  0  0
  160.3970  209.2320  152.7050 C   0  0  0  0  0  2  0  0  0  0  0  0
  161.3020  210.4120  155.2170 C   0  0  2  0  0  3  0  0  0  0  0  0
  160.9540  210.6470  152.7520 C   0  0  0  0  0  2  0  0  0  0  0  0
  160.9800  208.9110  155.1060 C   0  0  2  0  0  3  0  0  0  0  0  0
  161.1710  208.3780  153.6870 C   0  0  1  0  0  3  0  0  0  0  0  0
  160.8430  211.2620  154.0900 N   0  0  0  0  0  0  0  0  0  0  0  0
  159.5500  211.9640  154.3210 C   0  0  1  0  0  0  0  0  0  0  0  0
  159.5650  212.6960  155.6560 C   0  0  0  0  0  1  0  0  0  0  0  0
  159.2880  213.0440  153.2530 C   0  0  0  0  0  2  0  0  0  0  0  0
  158.2180  212.7030  152.4220 O   0  0  0  0  0  0  0  0  0  0  0  0
  158.5680  213.2140  151.1740 C   0  0  0  0  0  1  0  0  0  0  0  0
  158.4650  211.0490  154.3760 O   0  0  0  0  0  0  0  0  0  0  0  0
  157.6060  211.3690  155.4450 C   0  0  0  0  0  2  0  0  0  0  0  0
  156.1610  211.3750  154.9740 C   0  0  1  0  0  3  0  0  0  0  0  0
  155.3510  210.7770  155.9230 F   0  0  0  0  0  0  0  0  0  0  0  0
  155.7360  212.6840  154.7500 O   0  0  0  0  0  1  0  0  0  0  0  0
  163.0540  210.5150  157.0470 C   0  0  0  0  0  1  0  0  0  0  0  0
  162.7660  210.6770  155.5630 C   0  0  0  0  0  2  0  0  0  0  0  0
  160.7530  207.0480  153.6030 O   0  0  0  0  0  0  0  0  0  0  0  0
  161.8620  206.3500  153.1150 C   0  0  0  0  0  2  0  0  0  0  0  0
  160.9290  203.4280  150.8960 C   0  0  0  0  0  3  0  0  0  0  0  0
  161.4720  205.5580  151.9170 C   0  0  0  0  0  0  0  0  0  0  0  0
  160.8200  205.4610  149.5850 C   0  0  0  0  0  0  0  0  0  0  0  0
  161.3230  204.1700  152.0140 C   0  0  0  0  0  3  0  0  0  0  0  0
  161.2130  206.2040  150.7030 C   0  0  0  0  0  3  0  0  0  0  0  0
  160.5020  206.2700  148.0660 Cl  0  0  0  0  0  0  0  0  0  0  0  0
  160.6780  204.0730  149.6820 C   0  0  0  0  0  3  0  0  0  0  0  0
  2  4  1  0  0  0  0
  2  6  1  0  0  0  0
  3 19  1  6  0  0  0
  4  7  1  0  0  0  0
  5  3  1  0  0  0  0
  5  1  1  6  0  0  0
  6 20  1  1  0  0  0
  6  5  1  0  0  0  0
  7  8  1  0  0  0  0
  7  3  1  0  0  0  0
  8 13  1  0  0  0  0
  8  9  1  1  0  0  0
 10  8  1  0  0  0  0
 11 10  1  0  0  0  0
 12 11  1  0  0  0  0
 13 14  1  0  0  0  0
 15 17  1  1  0  0  0
 15 14  1  0  0  0  0
 15 16  1  0  0  0  0
 19 18  1  0  0  0  0
 21 20  1  0  0  0  0
 22 25  1  0  0  0  0
 23 25  2  0  0  0  0
 23 21  1  0  0  0  0
 24 28  1  0  0  0  0
 24 26  2  0  0  0  0
 26 23  1  0  0  0  0
 27 24  1  0  0  0  0
 28 22  2  0  0  0  0
M  END
>  <MODEL>
1

>  <REMARK>
 VINA RESULT:      -6.4      0.000      0.000
  Name = 
  10 active torsions:
  status: ('A' for Active; 'I' for Inactive)
    1  A    between atoms: C_1  and  C_3
    2  A    between atoms: C_1  and  O_11
    3  A    between atoms: C_1  and  N_27
    4  A    between atoms: O_2  and  C_3
    5  A    between atoms: C_6  and  C_8
    6  A    between atoms: C_8  and  O_11
    7  A    between atoms: C_9  and  C_18
    8  A    between atoms: O_14  and  C_18
    9  A    between atoms: O_14  and  C_25
   10  A    between atoms: C_16  and  C_21
                            x       y       z     vdW  Elec       q    Type
                         _______ _______ _______ _____ _____    ______ ____

>  <TORSDO>
F 10

$$$$
=
 OpenBabel11052423023D

 28 29  0  0  1  0  0  0  0  0999 V2000
  159.3850  207.7970  155.9700 O   0  0  0  0  0  1  0  0  0  0  0  0
  160.6280  209.0870  153.5550 C   0  0  0  0  0  2  0  0  0  0  0  0
  161.1260  209.4060  156.4140 C   0  0  2  0  0  3  0  0  0  0  0  0
  161.2420  210.3660  154.1070 C   0  0  0  0  0  2  0  0  0  0  0  0
  160.7500  208.0400  155.8130 C   0  0  2  0  0  3  0  0  0  0  0  0
  161.1660  207.9150  154.3480 C   0  0  1  0  0  3  0  0  0  0  0  0
  160.9230  210.5830  155.5330 N   0  0  0  0  0  0  0  0  0  0  0  0
  159.6490  211.3210  155.7560 C   0  0  1  0  0  0  0  0  0  0  0  0
  159.1720  211.1500  157.1920 C   0  0  0  0  0  1  0  0  0  0  0  0
  159.8240  212.8380  155.5510 C   0  0  0  0  0  2  0  0  0  0  0  0
  159.3520  213.2490  154.3010 O   0  0  0  0  0  0  0  0  0  0  0  0
  158.6310  214.4130  154.5660 C   0  0  0  0  0  1  0  0  0  0  0  0
  158.6090  210.8250  154.9250 O   0  0  0  0  0  0  0  0  0  0  0  0
  157.3900  210.7950  155.6270 C   0  0  0  0  0  2  0  0  0  0  0  0
  156.2950  211.4600  154.8090 C   0  0  1  0  0  3  0  0  0  0  0  0
  155.2720  210.5620  154.5680 F   0  0  0  0  0  0  0  0  0  0  0  0
  155.7970  212.5700  155.4890 O   0  0  0  0  0  1  0  0  0  0  0  0
  163.0570  210.8140  157.2600 C   0  0  0  0  0  1  0  0  0  0  0  0
  162.5160  209.4090  157.0480 C   0  0  0  0  0  2  0  0  0  0  0  0
  160.7000  206.7130  153.8070 O   0  0  0  0  0  0  0  0  0  0  0  0
  161.8230  206.1200  153.2240 C   0  0  0  0  0  2  0  0  0  0  0  0
  160.9140  205.6960  149.5740 C   0  0  0  0  0  3  0  0  0  0  0  0
  161.4470  205.4900  151.9290 C   0  0  0  0  0  0  0  0  0  0  0  0
  161.0140  203.5070  150.6060 C   0  0  0  0  0  0  0  0  0  0  0  0
  161.2400  206.2880  150.7980 C   0  0  0  0  0  3  0  0  0  0  0  0
  161.3410  204.0990  151.8300 C   0  0  0  0  0  3  0  0  0  0  0  0
  160.8760  201.7670  150.4850 Cl  0  0  0  0  0  0  0  0  0  0  0  0
  160.8000  204.3060  149.4780 C   0  0  0  0  0  3  0  0  0  0  0  0
  2  4  1  0  0  0  0
  2  6  1  0  0  0  0
  3 19  1  6  0  0  0
  4  7  1  0  0  0  0
  5  1  1  6  0  0  0
  5  3  1  0  0  0  0
  6 20  1  6  0  0  0
  6  5  1  0  0  0  0
  7  8  1  0  0  0  0
  7  3  1  0  0  0  0
  8  9  1  1  0  0  0
 10  8  1  0  0  0  0
 11 12  1  0  0  0  0
 11 10  1  0  0  0  0
 13 14  1  0  0  0  0
 13  8  1  0  0  0  0
 15 16  1  1  0  0  0
 15 17  1  0  0  0  0
 15 14  1  0  0  0  0
 19 18  1  0  0  0  0
 21 20  1  0  0  0  0
 22 25  1  0  0  0  0
 23 21  1  0  0  0  0
 24 26  2  0  0  0  0
 25 23  2  0  0  0  0
 26 23  1  0  0  0  0
 27 24  1  0  0  0  0
 28 22  2  0  0  0  0
 28 24  1  0  0  0  0
M  END
>  <MODEL>
2

>  <REMARK>
 VINA RESULT:      -6.4      1.550      1.882
  Name = 
  10 active torsions:
  status: ('A' for Active; 'I' for Inactive)
    1  A    between atoms: C_1  and  C_3
    2  A    between atoms: C_1  and  O_11
    3  A    between atoms: C_1  and  N_27
    4  A    between atoms: O_2  and  C_3
    5  A    between atoms: C_6  and  C_8
    6  A    between atoms: C_8  and  O_11
    7  A    between atoms: C_9  and  C_18
    8  A    between atoms: O_14  and  C_18
    9  A    between atoms: O_14  and  C_25
   10  A    between atoms: C_16  and  C_21
                            x       y       z     vdW  Elec       q    Type
                         _______ _______ _______ _____ _____    ______ ____

>  <TORSDO>
F 10

$$$$
=
 OpenBabel11052423023D

 28 29  0  0  1  0  0  0  0  0999 V2000
  159.6310  208.5390  155.3020 O   0  0  0  0  0  1  0  0  0  0  0  0
  160.4340  209.5470  152.5860 C   0  0  0  0  0  2  0  0  0  0  0  0
  161.1070  210.4460  155.2800 C   0  0  2  0  0  3  0  0  0  0  0  0
  160.8680  210.9820  152.8490 C   0  0  0  0  0  2  0  0  0  0  0  0
  160.9190  208.9520  154.9560 C   0  0  2  0  0  3  0  0  0  0  0  0
  161.2260  208.6310  153.4940 C   0  0  1  0  0  3  0  0  0  0  0  0
  160.6370  211.4010  154.2470 N   0  0  0  0  0  0  0  0  0  0  0  0
  159.2800  211.9650  154.4860 C   0  0  1  0  0  0  0  0  0  0  0  0
  158.2270  211.1830  153.7130 C   0  0  0  0  0  1  0  0  0  0  0  0
  158.8730  211.8620  155.9690 C   0  0  0  0  0  2  0  0  0  0  0  0
  157.9550  212.8550  156.3250 O   0  0  0  0  0  0  0  0  0  0  0  0
  156.9690  212.1790  157.0400 C   0  0  0  0  0  1  0  0  0  0  0  0
  159.1900  213.3110  154.0400 O   0  0  0  0  0  0  0  0  0  0  0  0
  158.1550  213.4480  153.0950 C   0  0  0  0  0  2  0  0  0  0  0  0
  158.6590  214.1870  151.8670 C   0  0  1  0  0  3  0  0  0  0  0  0
  159.9900  213.8870  151.6460 F   0  0  0  0  0  0  0  0  0  0  0  0
  157.9030  213.8300  150.7510 O   0  0  0  0  0  1  0  0  0  0  0  0
  162.8750  210.1020  157.0650 C   0  0  0  0  0  1  0  0  0  0  0  0
  162.5250  210.7730  155.7470 C   0  0  0  0  0  2  0  0  0  0  0  0
  160.9250  207.2960  153.2130 O   0  0  0  0  0  0  0  0  0  0  0  0
  161.1810  207.1480  151.8470 C   0  0  0  0  0  2  0  0  0  0  0  0
  160.9560  203.3800  152.1320 C   0  0  0  0  0  3  0  0  0  0  0  0
  161.1470  205.7060  151.4800 C   0  0  0  0  0  0  0  0  0  0  0  0
  161.1410  203.9690  149.7900 C   0  0  0  0  0  0  0  0  0  0  0  0
  161.0170  204.7330  152.4780 C   0  0  0  0  0  3  0  0  0  0  0  0
  161.2010  205.3230  150.1350 C   0  0  0  0  0  3  0  0  0  0  0  0
  161.2150  203.4910  148.1090 Cl  0  0  0  0  0  0  0  0  0  0  0  0
  161.0190  202.9980  150.7890 C   0  0  0  0  0  3  0  0  0  0  0  0
  2  4  1  0  0  0  0
  2  6  1  0  0  0  0
  3 19  1  6  0  0  0
  4  7  1  0  0  0  0
  5  3  1  0  0  0  0
  5  1  1  6  0  0  0
  6 20  1  6  0  0  0
  6  5  1  0  0  0  0
  7  8  1  0  0  0  0
  7  3  1  0  0  0  0
  8  9  1  6  0  0  0
  8 10  1  0  0  0  0
 10 11  1  0  0  0  0
 11 12  1  0  0  0  0
 13  8  1  0  0  0  0
 14 13  1  0  0  0  0
 15 17  1  6  0  0  0
 15 14  1  0  0  0  0
 16 15  1  0  0  0  0
 19 18  1  0  0  0  0
 21 20  1  0  0  0  0
 22 25  1  0  0  0  0
 23 21  1  0  0  0  0
 23 25  2  0  0  0  0
 24 26  2  0  0  0  0
 24 28  1  0  0  0  0
 26 23  1  0  0  0  0
 27 24  1  0  0  0  0
 28 22  2  0  0  0  0
M  END
>  <MODEL>
3

>  <REMARK>
 VINA RESULT:      -5.8      1.826      2.686
  Name = 
  10 active torsions:
  status: ('A' for Active; 'I' for Inactive)
    1  A    between atoms: C_1  and  C_3
    2  A    between atoms: C_1  and  O_11
    3  A    between atoms: C_1  and  N_27
    4  A    between atoms: O_2  and  C_3
    5  A    between atoms: C_6  and  C_8
    6  A    between atoms: C_8  and  O_11
    7  A    between atoms: C_9  and  C_18
    8  A    between atoms: O_14  and  C_18
    9  A    between atoms: O_14  and  C_25
   10  A    between atoms: C_16  and  C_21
                            x       y       z     vdW  Elec       q    Type
                         _______ _______ _______ _____ _____    ______ ____

>  <TORSDO>
F 10

$$$$
=
 OpenBabel11052423023D

 28 29  0  0  1  0  0  0  0  0999 V2000
  162.4150  210.2740  152.7480 O   0  0  0  0  0  1  0  0  0  0  0  0
  160.9800  207.9720  154.0470 C   0  0  0  0  0  2  0  0  0  0  0  0
  160.1540  210.7110  153.4650 C   0  0  2  0  0  3  0  0  0  0  0  0
  159.8720  208.6440  154.8450 C   0  0  0  0  0  2  0  0  0  0  0  0
  161.0820  209.9340  152.5130 C   0  0  2  0  0  3  0  0  0  0  0  0
  160.8740  208.4230  152.6050 C   0  0  1  0  0  3  0  0  0  0  0  0
  159.9570  210.1190  154.8110 N   0  0  0  0  0  0  0  0  0  0  0  0
  160.8200  210.6930  155.8800 C   0  0  1  0  0  0  0  0  0  0  0  0
  160.2950  210.3130  157.2590 C   0  0  0  0  0  1  0  0  0  0  0  0
  162.2570  210.1390  155.8130 C   0  0  0  0  0  2  0  0  0  0  0  0
  162.7830  209.9070  157.0870 O   0  0  0  0  0  0  0  0  0  0  0  0
  163.7370  210.9090  157.2580 C   0  0  0  0  0  1  0  0  0  0  0  0
  160.8330  212.1120  155.8320 O   0  0  0  0  0  0  0  0  0  0  0  0
  159.9820  212.6460  156.8170 C   0  0  0  0  0  2  0  0  0  0  0  0
  158.9320  213.5400  156.1780 C   0  0  1  0  0  3  0  0  0  0  0  0
  159.3580  213.9530  154.9290 F   0  0  0  0  0  0  0  0  0  0  0  0
  157.7250  212.8520  156.0610 O   0  0  0  0  0  1  0  0  0  0  0  0
  158.8760  212.4360  152.1160 C   0  0  0  0  0  1  0  0  0  0  0  0
  158.8230  211.0870  152.8140 C   0  0  0  0  0  2  0  0  0  0  0  0
  161.8160  207.7510  151.8200 O   0  0  0  0  0  0  0  0  0  0  0  0
  161.2220  207.6410  150.5590 C   0  0  0  0  0  2  0  0  0  0  0  0
  160.7760  203.8850  150.7150 C   0  0  0  0  0  3  0  0  0  0  0  0
  161.1620  206.2100  150.1530 C   0  0  0  0  0  0  0  0  0  0  0  0
  161.2790  204.5100  148.4300 C   0  0  0  0  0  0  0  0  0  0  0  0
  160.8610  205.2260  151.1020 C   0  0  0  0  0  3  0  0  0  0  0  0
  161.3630  205.8520  148.8160 C   0  0  0  0  0  3  0  0  0  0  0  0
  161.5380  204.0630  146.7590 Cl  0  0  0  0  0  0  0  0  0  0  0  0
  160.9860  203.5270  149.3810 C   0  0  0  0  0  3  0  0  0  0  0  0
  2  4  1  0  0  0  0
  3 19  1  6  0  0  0
  3  7  1  0  0  0  0
  5  6  1  0  0  0  0
  5  1  1  1  0  0  0
  5  3  1  0  0  0  0
  6 20  1  6  0  0  0
  6  2  1  0  0  0  0
  7  4  1  0  0  0  0
  7  8  1  0  0  0  0
  8  9  1  1  0  0  0
 10  8  1  0  0  0  0
 10 11  1  0  0  0  0
 11 12  1  0  0  0  0
 13  8  1  0  0  0  0
 13 14  1  0  0  0  0
 15 16  1  6  0  0  0
 15 14  1  0  0  0  0
 17 15  1  0  0  0  0
 18 19  1  0  0  0  0
 21 20  1  0  0  0  0
 22 25  1  0  0  0  0
 23 21  1  0  0  0  0
 23 25  2  0  0  0  0
 24 26  2  0  0  0  0
 24 28  1  0  0  0  0
 26 23  1  0  0  0  0
 27 24  1  0  0  0  0
 28 22  2  0  0  0  0
M  END
>  <MODEL>
4

>  <REMARK>
 VINA RESULT:      -5.8      2.091      3.646
  Name = 
  10 active torsions:
  status: ('A' for Active; 'I' for Inactive)
    1  A    between atoms: C_1  and  C_3
    2  A    between atoms: C_1  and  O_11
    3  A    between atoms: C_1  and  N_27
    4  A    between atoms: O_2  and  C_3
    5  A    between atoms: C_6  and  C_8
    6  A    between atoms: C_8  and  O_11
    7  A    between atoms: C_9  and  C_18
    8  A    between atoms: O_14  and  C_18
    9  A    between atoms: O_14  and  C_25
   10  A    between atoms: C_16  and  C_21
                            x       y       z     vdW  Elec       q    Type
                         _______ _______ _______ _____ _____    ______ ____

>  <TORSDO>
F 10

$$$$
=
 OpenBabel11052423023D

 28 29  0  0  1  0  0  0  0  0999 V2000
  159.7000  206.6980  149.2240 O   0  0  0  0  0  1  0  0  0  0  0  0
  162.3910  207.5300  148.1720 C   0  0  0  0  0  2  0  0  0  0  0  0
  161.5550  206.4240  150.7410 C   0  0  2  0  0  3  0  0  0  0  0  0
  163.2130  207.7630  149.4310 C   0  0  0  0  0  2  0  0  0  0  0  0
  160.8860  205.9890  149.4240 C   0  0  2  0  0  3  0  0  0  0  0  0
  161.8200  206.1290  148.2230 C   0  0  1  0  0  3  0  0  0  0  0  0
  162.4140  207.6330  150.6670 N   0  0  0  0  0  0  0  0  0  0  0  0
  161.7530  208.8980  151.0890 C   0  0  1  0  0  0  0  0  0  0  0  0
  162.7000  209.7490  151.9240 C   0  0  0  0  0  1  0  0  0  0  0  0
  161.3630  209.7690  149.8790 C   0  0  0  0  0  2  0  0  0  0  0  0
  162.0600  210.9800  149.8670 O   0  0  0  0  0  0  0  0  0  0  0  0
  162.1620  211.3110  148.5170 C   0  0  0  0  0  1  0  0  0  0  0  0
  160.6170  208.6440  151.9040 O   0  0  0  0  0  0  0  0  0  0  0  0
  160.8310  209.1210  153.2100 C   0  0  0  0  0  2  0  0  0  0  0  0
  160.5440  208.0270  154.2240 C   0  0  1  0  0  3  0  0  0  0  0  0
  161.4290  206.9780  154.0540 F   0  0  0  0  0  0  0  0  0  0  0  0
  160.6570  208.5320  155.5190 O   0  0  0  0  0  1  0  0  0  0  0  0
  161.4120  204.0140  151.5150 C   0  0  0  0  0  1  0  0  0  0  0  0
  162.2640  205.2710  151.4510 C   0  0  0  0  0  2  0  0  0  0  0  0
  161.1390  205.8420  147.0370 O   0  0  0  0  0  0  0  0  0  0  0  0
  161.9620  204.9410  146.3560 C   0  0  0  0  0  2  0  0  0  0  0  0
  160.5370  201.5120  145.6210 C   0  0  0  0  0  3  0  0  0  0  0  0
  161.4570  203.5540  146.5460 C   0  0  0  0  0  0  0  0  0  0  0  0
  161.0450  201.6480  147.9860 C   0  0  0  0  0  0  0  0  0  0  0  0
  160.9850  202.8250  145.4490 C   0  0  0  0  0  3  0  0  0  0  0  0
  161.4940  202.9610  147.8130 C   0  0  0  0  0  3  0  0  0  0  0  0
  161.0860  200.9110  149.5720 Cl  0  0  0  0  0  0  0  0  0  0  0  0
  160.5660  200.9240  146.8890 C   0  0  0  0  0  3  0  0  0  0  0  0
  2  6  1  0  0  0  0
  2  4  1  0  0  0  0
  3 19  1  6  0  0  0
  4  7  1  0  0  0  0
  5  1  1  6  0  0  0
  5  3  1  0  0  0  0
  6 20  1  6  0  0  0
  6  5  1  0  0  0  0
  7  3  1  0  0  0  0
  7  8  1  0  0  0  0
  8 13  1  0  0  0  0
  8  9  1  1  0  0  0
 10  8  1  0  0  0  0
 11 10  1  0  0  0  0
 12 11  1  0  0  0  0
 13 14  1  0  0  0  0
 14 15  1  0  0  0  0
 15 16  1  1  0  0  0
 15 17  1  0  0  0  0
 19 18  1  0  0  0  0
 21 23  1  0  0  0  0
 21 20  1  0  0  0  0
 22 28  1  0  0  0  0
 23 26  2  0  0  0  0
 24 27  1  0  0  0  0
 25 22  2  0  0  0  0
 25 23  1  0  0  0  0
 26 24  1  0  0  0  0
 28 24  2  0  0  0  0
M  END
>  <MODEL>
5

>  <REMARK>
 VINA RESULT:      -5.4      3.645      5.796
  Name = 
  10 active torsions:
  status: ('A' for Active; 'I' for Inactive)
    1  A    between atoms: C_1  and  C_3
    2  A    between atoms: C_1  and  O_11
    3  A    between atoms: C_1  and  N_27
    4  A    between atoms: O_2  and  C_3
    5  A    between atoms: C_6  and  C_8
    6  A    between atoms: C_8  and  O_11
    7  A    between atoms: C_9  and  C_18
    8  A    between atoms: O_14  and  C_18
    9  A    between atoms: O_14  and  C_25
   10  A    between atoms: C_16  and  C_21
                            x       y       z     vdW  Elec       q    Type
                         _______ _______ _______ _____ _____    ______ ____

>  <TORSDO>
F 10

$$$$
=
 OpenBabel11052423023D

 28 29  0  0  1  0  0  0  0  0999 V2000
  163.0890  205.0380  151.2550 O   0  0  0  0  0  1  0  0  0  0  0  0
  160.4650  206.4810  150.9860 C   0  0  0  0  0  2  0  0  0  0  0  0
  161.4380  203.9700  149.8580 C   0  0  2  0  0  3  0  0  0  0  0  0
  159.8740  205.9160  149.7020 C   0  0  0  0  0  2  0  0  0  0  0  0
  161.8370  204.4210  151.2750 C   0  0  2  0  0  3  0  0  0  0  0  0
  160.7870  205.3280  151.9140 C   0  0  1  0  0  3  0  0  0  0  0  0
  160.7990  205.0010  149.0020 N   0  0  0  0  0  0  0  0  0  0  0  0
  161.7200  205.6890  148.0560 C   0  0  1  0  0  0  0  0  0  0  0  0
  162.7390  204.7100  147.4890 C   0  0  0  0  0  1  0  0  0  0  0  0
  160.9660  206.2610  146.8390 C   0  0  0  0  0  2  0  0  0  0  0  0
  161.5130  205.8120  145.6340 O   0  0  0  0  0  0  0  0  0  0  0  0
  160.4140  205.3950  144.8850 C   0  0  0  0  0  1  0  0  0  0  0  0
  162.4620  206.7120  148.7050 O   0  0  0  0  0  0  0  0  0  0  0  0
  162.2100  207.9600  148.1040 C   0  0  0  0  0  2  0  0  0  0  0  0
  161.9610  209.0150  149.1670 C   0  0  1  0  0  3  0  0  0  0  0  0
  162.6800  208.7160  150.3100 F   0  0  0  0  0  0  0  0  0  0  0  0
  162.3340  210.2720  148.6910 O   0  0  0  0  0  1  0  0  0  0  0  0
  160.7650  201.9100  148.5420 C   0  0  0  0  0  1  0  0  0  0  0  0
  160.6440  202.6650  149.8560 C   0  0  0  0  0  2  0  0  0  0  0  0
  161.2410  205.8120  153.1440 O   0  0  0  0  0  0  0  0  0  0  0  0
  161.2080  207.2040  153.0190 C   0  0  0  0  0  2  0  0  0  0  0  0
  160.0810  207.5800  156.6130 C   0  0  0  0  0  3  0  0  0  0  0  0
  160.8220  207.8190  154.3180 C   0  0  0  0  0  0  0  0  0  0  0  0
  160.5690  209.7790  155.7200 C   0  0  0  0  0  0  0  0  0  0  0  0
  160.4160  207.0060  155.3830 C   0  0  0  0  0  3  0  0  0  0  0  0
  160.9060  209.2040  154.4900 C   0  0  0  0  0  3  0  0  0  0  0  0
  160.6680  211.5120  155.9320 Cl  0  0  0  0  0  0  0  0  0  0  0  0
  160.1570  208.9660  156.7810 C   0  0  0  0  0  3  0  0  0  0  0  0
  2  6  1  0  0  0  0
  3 19  1  1  0  0  0
  3  5  1  0  0  0  0
  4  2  1  0  0  0  0
  5  1  1  6  0  0  0
  5  6  1  0  0  0  0
  6 20  1  1  0  0  0
  7  4  1  0  0  0  0
  7  3  1  0  0  0  0
  8  9  1  6  0  0  0
  8 13  1  0  0  0  0
  8  7  1  0  0  0  0
 10  8  1  0  0  0  0
 11 10  1  0  0  0  0
 12 11  1  0  0  0  0
 14 13  1  0  0  0  0
 14 15  1  0  0  0  0
 15 17  1  6  0  0  0
 15 16  1  0  0  0  0
 18 19  1  0  0  0  0
 21 20  1  0  0  0  0
 21 23  1  0  0  0  0
 22 28  1  0  0  0  0
 23 26  2  0  0  0  0
 23 25  1  0  0  0  0
 24 27  1  0  0  0  0
 24 28  2  0  0  0  0
 25 22  2  0  0  0  0
 26 24  1  0  0  0  0
M  END
>  <MODEL>
6

>  <REMARK>
 VINA RESULT:      -5.2      4.431      7.965
  Name = 
  10 active torsions:
  status: ('A' for Active; 'I' for Inactive)
    1  A    between atoms: C_1  and  C_3
    2  A    between atoms: C_1  and  O_11
    3  A    between atoms: C_1  and  N_27
    4  A    between atoms: O_2  and  C_3
    5  A    between atoms: C_6  and  C_8
    6  A    between atoms: C_8  and  O_11
    7  A    between atoms: C_9  and  C_18
    8  A    between atoms: O_14  and  C_18
    9  A    between atoms: O_14  and  C_25
   10  A    between atoms: C_16  and  C_21
                            x       y       z     vdW  Elec       q    Type
                         _______ _______ _______ _____ _____    ______ ____

>  <TORSDO>
F 10

$$$$
=
 OpenBabel11052423023D

 28 29  0  0  1  0  0  0  0  0999 V2000
  163.3980  205.7010  151.3810 O   0  0  0  0  0  1  0  0  0  0  0  0
  160.8330  207.2690  151.2900 C   0  0  0  0  0  2  0  0  0  0  0  0
  161.5350  204.6130  150.3030 C   0  0  2  0  0  3  0  0  0  0  0  0
  160.0600  206.6270  150.1470 C   0  0  0  0  0  2  0  0  0  0  0  0
  162.1290  205.1660  151.6110 C   0  0  2  0  0  3  0  0  0  0  0  0
  161.2130  206.1880  152.2800 C   0  0  1  0  0  3  0  0  0  0  0  0
  160.8440  205.5980  149.4340 N   0  0  0  0  0  0  0  0  0  0  0  0
  161.6720  206.1400  148.3210 C   0  0  1  0  0  0  0  0  0  0  0  0
  160.7920  206.5810  147.1600 C   0  0  0  0  0  1  0  0  0  0  0  0
  162.4560  207.3960  148.7530 C   0  0  0  0  0  2  0  0  0  0  0  0
  161.9500  208.5530  148.1530 O   0  0  0  0  0  0  0  0  0  0  0  0
  162.2910  209.5790  149.0330 C   0  0  0  0  0  1  0  0  0  0  0  0
  162.5570  205.1570  147.8050 O   0  0  0  0  0  0  0  0  0  0  0  0
  162.3100  204.9420  146.4360 C   0  0  0  0  0  2  0  0  0  0  0  0
  161.8750  203.5060  146.1980 C   0  0  1  0  0  3  0  0  0  0  0  0
  161.1970  203.0270  147.3040 F   0  0  0  0  0  0  0  0  0  0  0  0
  161.0530  203.4350  145.0740 O   0  0  0  0  0  1  0  0  0  0  0  0
  161.2330  202.4720  151.6280 C   0  0  0  0  0  1  0  0  0  0  0  0
  160.6850  203.3620  150.5240 C   0  0  0  0  0  2  0  0  0  0  0  0
  161.8400  206.7540  153.3940 O   0  0  0  0  0  0  0  0  0  0  0  0
  160.8120  206.9730  154.3150 C   0  0  0  0  0  2  0  0  0  0  0  0
  161.7370  209.7580  156.7060 C   0  0  0  0  0  3  0  0  0  0  0  0
  160.9520  208.3280  154.9140 C   0  0  0  0  0  0  0  0  0  0  0  0
  160.6530  210.7290  154.7690 C   0  0  0  0  0  0  0  0  0  0  0  0
  161.5790  208.4830  156.1560 C   0  0  0  0  0  3  0  0  0  0  0  0
  160.4960  209.4530  154.2180 C   0  0  0  0  0  3  0  0  0  0  0  0
  160.0770  212.1340  153.9000 Cl  0  0  0  0  0  0  0  0  0  0  0  0
  161.2740  210.8810  156.0130 C   0  0  0  0  0  3  0  0  0  0  0  0
  2  6  1  0  0  0  0
  3 19  1  1  0  0  0
  3  5  1  0  0  0  0
  4  2  1  0  0  0  0
  5  1  1  6  0  0  0
  5  6  1  0  0  0  0
  6 20  1  1  0  0  0
  7  4  1  0  0  0  0
  7  3  1  0  0  0  0
  8  9  1  6  0  0  0
  8 10  1  0  0  0  0
  8  7  1  0  0  0  0
 11 10  1  0  0  0  0
 11 12  1  0  0  0  0
 13  8  1  0  0  0  0
 14 13  1  0  0  0  0
 15 17  1  6  0  0  0
 15 14  1  0  0  0  0
 15 16  1  0  0  0  0
 19 18  1  0  0  0  0
 20 21  1  0  0  0  0
 21 23  1  0  0  0  0
 23 25  2  0  0  0  0
 24 28  1  0  0  0  0
 25 22  1  0  0  0  0
 26 24  2  0  0  0  0
 26 23  1  0  0  0  0
 27 24  1  0  0  0  0
 28 22  2  0  0  0  0
M  END
>  <MODEL>
7

>  <REMARK>
 VINA RESULT:      -5.2      4.449      8.187
  Name = 
  10 active torsions:
  status: ('A' for Active; 'I' for Inactive)
    1  A    between atoms: C_1  and  C_3
    2  A    between atoms: C_1  and  O_11
    3  A    between atoms: C_1  and  N_27
    4  A    between atoms: O_2  and  C_3
    5  A    between atoms: C_6  and  C_8
    6  A    between atoms: C_8  and  O_11
    7  A    between atoms: C_9  and  C_18
    8  A    between atoms: O_14  and  C_18
    9  A    between atoms: O_14  and  C_25
   10  A    between atoms: C_16  and  C_21
                            x       y       z     vdW  Elec       q    Type
                         _______ _______ _______ _____ _____    ______ ____

>  <TORSDO>
F 10

$$$$
=
 OpenBabel11052423023D

 28 29  0  0  1  0  0  0  0  0999 V2000
  159.5600  206.4520  150.1440 O   0  0  0  0  0  1  0  0  0  0  0  0
  162.1890  207.8520  149.7300 C   0  0  0  0  0  2  0  0  0  0  0  0
  161.3290  205.8440  151.6670 C   0  0  2  0  0  3  0  0  0  0  0  0
  162.8880  207.7080  151.0740 C   0  0  0  0  0  2  0  0  0  0  0  0
  160.8100  205.8350  150.2170 C   0  0  2  0  0  3  0  0  0  0  0  0
  161.7980  206.4730  149.2420 C   0  0  1  0  0  3  0  0  0  0  0  0
  162.0310  207.0780  152.0990 N   0  0  0  0  0  0  0  0  0  0  0  0
  161.1880  208.0470  152.8520 C   0  0  1  0  0  0  0  0  0  0  0  0
  160.1750  207.3170  153.7240 C   0  0  0  0  0  1  0  0  0  0  0  0
  162.0280  208.9060  153.8170 C   0  0  0  0  0  2  0  0  0  0  0  0
  161.5370  208.8480  155.1240 O   0  0  0  0  0  0  0  0  0  0  0  0
  161.7630  210.1240  155.6390 C   0  0  0  0  0  1  0  0  0  0  0  0
  160.4390  208.8760  151.9740 O   0  0  0  0  0  0  0  0  0  0  0  0
  160.8070  210.2250  152.1380 C   0  0  0  0  0  2  0  0  0  0  0  0
  159.5790  211.0750  152.4190 C   0  0  1  0  0  3  0  0  0  0  0  0
  159.0710  210.7750  153.6690 F   0  0  0  0  0  0  0  0  0  0  0  0
  159.9100  212.4280  152.3570 O   0  0  0  0  0  1  0  0  0  0  0  0
  161.3560  203.3100  151.7370 C   0  0  0  0  0  1  0  0  0  0  0  0
  162.1280  204.5890  152.0150 C   0  0  0  0  0  2  0  0  0  0  0  0
  161.2390  206.5550  147.9630 O   0  0  0  0  0  0  0  0  0  0  0  0
  162.1420  205.8870  147.1310 C   0  0  0  0  0  2  0  0  0  0  0  0
  160.8420  202.8530  145.2780 C   0  0  0  0  0  3  0  0  0  0  0  0
  161.6470  204.5120  146.8500 C   0  0  0  0  0  0  0  0  0  0  0  0
  161.1500  202.2640  147.6070 C   0  0  0  0  0  0  0  0  0  0  0  0
  161.2800  204.1530  145.5480 C   0  0  0  0  0  3  0  0  0  0  0  0
  161.5890  203.5640  147.8770 C   0  0  0  0  0  3  0  0  0  0  0  0
  161.0710  201.0820  148.8940 Cl  0  0  0  0  0  0  0  0  0  0  0  0
  160.7760  201.9090  146.3070 C   0  0  0  0  0  3  0  0  0  0  0  0
  2  4  1  0  0  0  0
  3 19  1  6  0  0  0
  3  7  1  0  0  0  0
  4  7  1  0  0  0  0
  5  1  1  1  0  0  0
  5  3  1  0  0  0  0
  6 20  1  6  0  0  0
  6  2  1  0  0  0  0
  6  5  1  0  0  0  0
  7  8  1  0  0  0  0
  8  9  1  1  0  0  0
  8 10  1  0  0  0  0
 10 11  1  0  0  0  0
 11 12  1  0  0  0  0
 13 14  1  0  0  0  0
 13  8  1  0  0  0  0
 14 15  1  0  0  0  0
 15 17  1  1  0  0  0
 15 16  1  0  0  0  0
 18 19  1  0  0  0  0
 21 20  1  0  0  0  0
 22 25  2  0  0  0  0
 22 28  1  0  0  0  0
 23 21  1  0  0  0  0
 23 26  2  0  0  0  0
 24 26  1  0  0  0  0
 24 27  1  0  0  0  0
 25 23  1  0  0  0  0
 28 24  2  0  0  0  0
M  END
>  <MODEL>
8

>  <REMARK>
 VINA RESULT:      -5.1      2.888      5.347
  Name = 
  10 active torsions:
  status: ('A' for Active; 'I' for Inactive)
    1  A    between atoms: C_1  and  C_3
    2  A    between atoms: C_1  and  O_11
    3  A    between atoms: C_1  and  N_27
    4  A    between atoms: O_2  and  C_3
    5  A    between atoms: C_6  and  C_8
    6  A    between atoms: C_8  and  O_11
    7  A    between atoms: C_9  and  C_18
    8  A    between atoms: O_14  and  C_18
    9  A    between atoms: O_14  and  C_25
   10  A    between atoms: C_16  and  C_21
                            x       y       z     vdW  Elec       q    Type
                         _______ _______ _______ _____ _____    ______ ____

>  <TORSDO>
F 10

$$$$
=
 OpenBabel11052423023D

 28 29  0  0  1  0  0  0  0  0999 V2000
  163.2990  205.8840  150.8190 O   0  0  0  0  0  1  0  0  0  0  0  0
  160.9930  207.5730  149.8860 C   0  0  0  0  0  2  0  0  0  0  0  0
  161.2470  204.7030  150.3560 C   0  0  2  0  0  3  0  0  0  0  0  0
  160.0810  206.5790  149.1830 C   0  0  0  0  0  2  0  0  0  0  0  0
  161.9780  205.7290  151.2420 C   0  0  2  0  0  3  0  0  0  0  0  0
  161.2540  207.0740  151.2920 C   0  0  1  0  0  3  0  0  0  0  0  0
  160.6700  205.2270  149.0930 N   0  0  0  0  0  0  0  0  0  0  0  0
  161.5160  205.0220  147.8850 C   0  0  1  0  0  0  0  0  0  0  0  0
  162.7090  205.9680  147.8950 C   0  0  0  0  0  1  0  0  0  0  0  0
  162.1090  203.6000  147.8390 C   0  0  0  0  0  2  0  0  0  0  0  0
  161.1960  202.6740  147.3280 O   0  0  0  0  0  0  0  0  0  0  0  0
  161.2060  201.6290  148.2490 C   0  0  0  0  0  1  0  0  0  0  0  0
  160.7950  205.2970  146.6920 O   0  0  0  0  0  0  0  0  0  0  0  0
  161.6520  205.8280  145.7100 C   0  0  0  0  0  2  0  0  0  0  0  0
  161.5680  205.0040  144.4370 C   0  0  1  0  0  3  0  0  0  0  0  0
  160.5950  204.0300  144.5660 F   0  0  0  0  0  0  0  0  0  0  0  0
  161.2680  205.8280  143.3520 O   0  0  0  0  0  1  0  0  0  0  0  0
  160.8290  203.2450  152.3870 C   0  0  0  0  0  1  0  0  0  0  0  0
  160.2330  203.8680  151.1350 C   0  0  0  0  0  2  0  0  0  0  0  0
  162.0100  208.0100  152.0030 O   0  0  0  0  0  0  0  0  0  0  0  0
  161.3460  209.2260  151.8160 C   0  0  0  0  0  2  0  0  0  0  0  0
  159.1190  211.0780  154.2540 C   0  0  0  0  0  3  0  0  0  0  0  0
  160.6540  209.6210  153.0730 C   0  0  0  0  0  0  0  0  0  0  0  0
  160.1580  209.2220  155.4110 C   0  0  0  0  0  0  0  0  0  0  0  0
  159.7920  210.7240  153.0800 C   0  0  0  0  0  3  0  0  0  0  0  0
  160.8310  208.8660  154.2380 C   0  0  0  0  0  3  0  0  0  0  0  0
  160.3850  208.2800  156.8690 Cl  0  0  0  0  0  0  0  0  0  0  0  0
  159.3030  210.3280  155.4190 C   0  0  0  0  0  3  0  0  0  0  0  0
  2  6  1  0  0  0  0
  3 19  1  1  0  0  0
  3  5  1  0  0  0  0
  4  2  1  0  0  0  0
  5  1  1  6  0  0  0
  5  6  1  0  0  0  0
  6 20  1  1  0  0  0
  7  4  1  0  0  0  0
  7  3  1  0  0  0  0
  8  9  1  1  0  0  0
  8  7  1  0  0  0  0
 10  8  1  0  0  0  0
 11 10  1  0  0  0  0
 11 12  1  0  0  0  0
 13  8  1  0  0  0  0
 14 13  1  0  0  0  0
 15 17  1  6  0  0  0
 15 16  1  0  0  0  0
 15 14  1  0  0  0  0
 19 18  1  0  0  0  0
 21 20  1  0  0  0  0
 21 23  1  0  0  0  0
 22 28  1  0  0  0  0
 23 25  1  0  0  0  0
 23 26  2  0  0  0  0
 24 28  2  0  0  0  0
 24 27  1  0  0  0  0
 25 22  2  0  0  0  0
 26 24  1  0  0  0  0
M  END
>  <MODEL>
9

>  <REMARK>
 VINA RESULT:      -4.9      4.887      8.894
  Name = 
  10 active torsions:
  status: ('A' for Active; 'I' for Inactive)
    1  A    between atoms: C_1  and  C_3
    2  A    between atoms: C_1  and  O_11
    3  A    between atoms: C_1  and  N_27
    4  A    between atoms: O_2  and  C_3
    5  A    between atoms: C_6  and  C_8
    6  A    between atoms: C_8  and  O_11
    7  A    between atoms: C_9  and  C_18
    8  A    between atoms: O_14  and  C_18
    9  A    between atoms: O_14  and  C_25
   10  A    between atoms: C_16  and  C_21
                            x       y       z     vdW  Elec       q    Type
                         _______ _______ _______ _____ _____    ______ ____

>  <TORSDO>
F 10

$$$$
