=
 OpenBabel11062407463D

 34 38  0  0  1  0  0  0  0  0999 V2000
  161.9790  210.1610  150.5350 C   0  0  0  0  0  0  0  0  0  0  0  0
  162.0480  208.6620  148.5790 C   0  0  0  0  0  0  0  0  0  0  0  0
  161.4210  207.7790  150.7870 C   0  0  0  0  0  0  0  0  0  0  0  0
  161.6850  204.7680  151.9460 C   0  0  0  0  0  2  0  0  0  0  0  0
  162.4470  209.6900  147.7320 O   0  0  0  0  0  1  0  0  0  0  0  0
  161.4740  206.3350  148.8180 C   0  0  0  0  0  3  0  0  0  0  0  0
  161.8150  208.8790  149.9600 C   0  0  0  0  0  0  0  0  0  0  0  0
  160.6590  205.3210  150.9620 C   0  0  1  0  0  3  0  0  0  0  0  0
  161.2890  208.0050  152.1920 C   0  0  0  0  0  0  0  0  0  0  0  0
  161.7870  210.3170  151.9070 C   0  0  0  0  0  3  0  0  0  0  0  0
  161.8910  207.3960  148.0310 C   0  0  0  0  0  3  0  0  0  0  0  0
  162.0490  205.7690  153.0450 C   0  0  0  0  0  2  0  0  0  0  0  0
  161.0110  206.8850  153.1790 C   0  0  1  0  0  3  0  0  0  0  0  0
  161.2020  206.5040  150.1810 C   0  0  0  0  0  0  0  0  0  0  0  0
  161.4650  209.2610  152.6850 N   0  0  0  0  0  0  0  0  0  0  0  0
  161.6490  208.5770  156.5380 C   0  0  0  0  0  0  0  0  0  0  0  0
  160.5240  208.1640  157.2610 C   0  0  0  0  0  3  0  0  0  0  0  0
  160.8640  207.3310  154.6060 C   0  0  0  0  0  0  0  0  0  0  0  0
  159.5700  207.3400  156.6580 C   0  0  0  0  0  3  0  0  0  0  0  0
  161.8190  208.1640  155.2130 C   0  0  0  0  0  3  0  0  0  0  0  0
  159.7390  206.9260  155.3330 C   0  0  0  0  0  3  0  0  0  0  0  0
  162.5720  209.3780  157.1220 F   0  0  0  0  0  0  0  0  0  0  0  0
  161.4080  212.2850  149.3830 C   0  0  0  0  0  1  0  0  0  0  0  0
  162.3300  211.2660  149.7480 O   0  0  0  0  0  0  0  0  0  0  0  0
  160.0730  204.1990  150.1120 C   0  0  0  0  0  2  0  0  0  0  0  0
  160.9880  203.0730  150.0930 N   0  0  0  0  0  2  0  0  0  0  0  0
  160.5440  202.1880  149.0300 C   0  0  0  0  0  2  0  0  0  0  0  0
  161.3110  199.8870  147.1490 O   0  0  0  0  0  0  0  0  0  0  0  0
  161.5790  202.1460  147.9160 C   0  0  1  0  0  3  0  0  0  0  0  0
  161.1960  201.1120  146.8840 C   0  0  0  0  0  0  0  0  0  0  0  0
  160.6910  202.7540  145.2250 C   0  0  0  0  0  3  0  0  0  0  0  0
  161.2600  203.8060  146.0820 C   0  0  0  0  0  3  0  0  0  0  0  0
  161.6920  203.5210  147.3130 C   0  0  0  0  0  3  0  0  0  0  0  0
  160.6790  201.5130  145.6080 N   0  0  0  0  0  0  0  0  0  0  0  0
  1 10  1  0  0  0  0
  2  7  1  0  0  0  0
  3  9  2  0  0  0  0
  4 12  1  0  0  0  0
  5  2  1  0  0  0  0
  6 14  2  0  0  0  0
  7  1  2  0  0  0  0
  7  3  1  0  0  0  0
  8 25  1  6  0  0  0
  8  4  1  0  0  0  0
  9 15  1  0  0  0  0
  9 13  1  0  0  0  0
 10 15  2  0  0  0  0
 11  2  2  0  0  0  0
 11  6  1  0  0  0  0
 12 13  1  0  0  0  0
 13 18  1  1  0  0  0
 14  3  1  0  0  0  0
 14  8  1  0  0  0  0
 16 22  1  0  0  0  0
 16 17  1  0  0  0  0
 18 20  1  0  0  0  0
 18 21  2  0  0  0  0
 19 17  2  0  0  0  0
 20 16  2  0  0  0  0
 21 19  1  0  0  0  0
 23 24  1  0  0  0  0
 24  1  1  0  0  0  0
 26 25  1  0  0  0  0
 27 26  1  0  0  0  0
 29 27  1  1  0  0  0
 30 28  2  0  0  0  0
 30 29  1  0  0  0  0
 31 34  2  0  0  0  0
 31 32  1  0  0  0  0
 32 33  2  0  0  0  0
 33 29  1  0  0  0  0
 34 30  1  0  0  0  0
M  END
>  <MODEL>
1

>  <REMARK>
 VINA RESULT:      -8.4      0.000      0.000
  Name = 
  6 active torsions:
  status: ('A' for Active; 'I' for Inactive)
    1  A    between atoms: C_1  and  O_19
    2  A    between atoms: C_3  and  C_13
    3  A    between atoms: C_3  and  N_17
    4  A    between atoms: C_12  and  C_28
    5  A    between atoms: N_17  and  C_29
    6  A    between atoms: C_18  and  C_29
                            x       y       z     vdW  Elec       q    Type
                         _______ _______ _______ _____ _____    ______ ____

>  <TORSDO>
F 6

$$$$
=
 OpenBabel11062407463D

 34 38  0  0  1  0  0  0  0  0999 V2000
  161.3150  204.9260  150.9190 C   0  0  0  0  0  0  0  0  0  0  0  0
  161.4910  206.0330  148.7250 C   0  0  0  0  0  0  0  0  0  0  0  0
  161.5430  207.3700  150.7880 C   0  0  0  0  0  0  0  0  0  0  0  0
  160.7140  210.4660  151.2520 C   0  0  0  0  0  2  0  0  0  0  0  0
  161.3930  204.8270  148.0420 O   0  0  0  0  0  1  0  0  0  0  0  0
  161.7440  208.4250  148.5950 C   0  0  0  0  0  3  0  0  0  0  0  0
  161.4530  206.0970  150.1400 C   0  0  0  0  0  0  0  0  0  0  0  0
  161.9760  209.9060  150.6050 C   0  0  1  0  0  3  0  0  0  0  0  0
  161.4030  207.4150  152.2090 C   0  0  0  0  0  0  0  0  0  0  0  0
  161.2320  205.0410  152.3070 C   0  0  0  0  0  3  0  0  0  0  0  0
  161.6190  207.1940  147.9730 C   0  0  0  0  0  3  0  0  0  0  0  0
  160.2410  209.6290  152.4430 C   0  0  0  0  0  2  0  0  0  0  0  0
  161.3440  208.7190  152.9860 C   0  0  1  0  0  3  0  0  0  0  0  0
  161.7420  208.5390  149.9900 C   0  0  0  0  0  0  0  0  0  0  0  0
  161.2670  206.2530  152.9030 N   0  0  0  0  0  0  0  0  0  0  0  0
  160.2850  207.4840  156.4370 C   0  0  0  0  0  0  0  0  0  0  0  0
  161.1040  208.2630  157.2600 C   0  0  0  0  0  3  0  0  0  0  0  0
  161.2380  208.5550  154.4760 C   0  0  0  0  0  0  0  0  0  0  0  0
  161.9910  209.1840  156.6950 C   0  0  0  0  0  3  0  0  0  0  0  0
  160.3510  207.6260  155.0480 C   0  0  0  0  0  3  0  0  0  0  0  0
  162.0580  209.3270  155.3050 C   0  0  0  0  0  3  0  0  0  0  0  0
  159.4280  206.5900  156.9850 F   0  0  0  0  0  0  0  0  0  0  0  0
  160.8320  202.4920  151.0070 C   0  0  0  0  0  1  0  0  0  0  0  0
  161.2590  203.6610  150.3190 O   0  0  0  0  0  0  0  0  0  0  0  0
  162.6010  210.9370  149.6700 C   0  0  0  0  0  2  0  0  0  0  0  0
  161.6020  211.9200  149.2920 N   0  0  0  0  0  2  0  0  0  0  0  0
  161.5930  211.9740  147.8410 C   0  0  0  0  0  2  0  0  0  0  0  0
  160.7710  212.7810  144.9950 O   0  0  0  0  0  0  0  0  0  0  0  0
  160.7730  213.1630  147.3650 C   0  0  1  0  0  3  0  0  0  0  0  0
  160.0940  212.8430  146.0550 C   0  0  0  0  0  0  0  0  0  0  0  0
  157.9170  212.7890  147.0350 C   0  0  0  0  0  3  0  0  0  0  0  0
  158.4630  213.3220  148.2930 C   0  0  0  0  0  3  0  0  0  0  0  0
  159.7760  213.5190  148.4370 C   0  0  0  0  0  3  0  0  0  0  0  0
  158.6850  212.5830  146.0080 N   0  0  0  0  0  0  0  0  0  0  0  0
  1 10  1  0  0  0  0
  2  7  1  0  0  0  0
  3  9  2  0  0  0  0
  4 12  1  0  0  0  0
  5  2  1  0  0  0  0
  6 14  2  0  0  0  0
  7  3  1  0  0  0  0
  7  1  2  0  0  0  0
  8 25  1  6  0  0  0
  8  4  1  0  0  0  0
  9 15  1  0  0  0  0
  9 13  1  0  0  0  0
 10 15  2  0  0  0  0
 11  6  1  0  0  0  0
 11  2  2  0  0  0  0
 12 13  1  0  0  0  0
 13 18  1  1  0  0  0
 14  8  1  0  0  0  0
 14  3  1  0  0  0  0
 16 22  1  0  0  0  0
 16 17  1  0  0  0  0
 18 20  1  0  0  0  0
 18 21  2  0  0  0  0
 19 17  2  0  0  0  0
 20 16  2  0  0  0  0
 21 19  1  0  0  0  0
 24  1  1  0  0  0  0
 24 23  1  0  0  0  0
 26 25  1  0  0  0  0
 27 26  1  0  0  0  0
 28 30  2  0  0  0  0
 29 27  1  1  0  0  0
 29 33  1  0  0  0  0
 30 29  1  0  0  0  0
 31 32  1  0  0  0  0
 32 33  2  0  0  0  0
 34 30  1  0  0  0  0
 34 31  2  0  0  0  0
M  END
>  <MODEL>
2

>  <REMARK>
 VINA RESULT:      -7.9      2.900      6.657
  Name = 
  6 active torsions:
  status: ('A' for Active; 'I' for Inactive)
    1  A    between atoms: C_1  and  O_19
    2  A    between atoms: C_3  and  C_13
    3  A    between atoms: C_3  and  N_17
    4  A    between atoms: C_12  and  C_28
    5  A    between atoms: N_17  and  C_29
    6  A    between atoms: C_18  and  C_29
                            x       y       z     vdW  Elec       q    Type
                         _______ _______ _______ _____ _____    ______ ____

>  <TORSDO>
F 6

$$$$
=
 OpenBabel11062407463D

 34 38  0  0  1  0  0  0  0  0999 V2000
  161.4830  206.2310  149.2890 C   0  0  0  0  0  0  0  0  0  0  0  0
  161.3190  205.1920  151.5170 C   0  0  0  0  0  0  0  0  0  0  0  0
  161.3120  207.6410  151.2960 C   0  0  0  0  0  0  0  0  0  0  0  0
  162.2180  209.8990  153.4320 C   0  0  0  0  0  2  0  0  0  0  0  0
  161.3830  203.9080  150.9880 O   0  0  0  0  0  1  0  0  0  0  0  0
  161.1230  206.5700  153.4830 C   0  0  0  0  0  3  0  0  0  0  0  0
  161.3680  206.3430  150.6930 C   0  0  0  0  0  0  0  0  0  0  0  0
  160.9390  209.0700  153.4100 C   0  0  1  0  0  3  0  0  0  0  0  0
  161.4620  208.7840  150.4510 C   0  0  0  0  0  0  0  0  0  0  0  0
  161.5780  207.3920  148.5210 C   0  0  0  0  0  3  0  0  0  0  0  0
  161.2140  205.3190  152.8960 C   0  0  0  0  0  3  0  0  0  0  0  0
  162.6790  210.3110  152.0310 C   0  0  0  0  0  2  0  0  0  0  0  0
  161.5580  210.1980  150.9970 C   0  0  1  0  0  3  0  0  0  0  0  0
  161.1360  207.7380  152.7110 C   0  0  0  0  0  0  0  0  0  0  0  0
  161.5750  208.6100  149.1070 N   0  0  0  0  0  0  0  0  0  0  0  0
  162.7520  212.2310  147.9980 C   0  0  0  0  0  0  0  0  0  0  0  0
  161.8120  213.2670  147.9880 C   0  0  0  0  0  3  0  0  0  0  0  0
  161.6700  211.2670  149.9460 C   0  0  0  0  0  0  0  0  0  0  0  0
  160.8000  213.3020  148.9520 C   0  0  0  0  0  3  0  0  0  0  0  0
  162.6820  211.2310  148.9720 C   0  0  0  0  0  3  0  0  0  0  0  0
  160.7290  212.3020  149.9270 C   0  0  0  0  0  3  0  0  0  0  0  0
  163.7310  212.1960  147.0620 F   0  0  0  0  0  0  0  0  0  0  0  0
  161.6000  204.8130  147.2540 C   0  0  0  0  0  1  0  0  0  0  0  0
  161.5050  204.9770  148.6640 O   0  0  0  0  0  0  0  0  0  0  0  0
  160.3330  208.9830  154.8070 C   0  0  0  0  0  2  0  0  0  0  0  0
  160.3240  210.3000  155.4170 N   0  0  0  0  0  2  0  0  0  0  0  0
  158.9320  210.6510  155.6370 C   0  0  0  0  0  2  0  0  0  0  0  0
  155.9940  210.8720  154.7730 O   0  0  0  0  0  0  0  0  0  0  0  0
  158.3330  211.2340  154.3660 C   0  0  1  0  0  3  0  0  0  0  0  0
  156.9220  211.7090  154.6210 C   0  0  0  0  0  0  0  0  0  0  0  0
  157.5120  214.0140  154.4100 C   0  0  0  0  0  3  0  0  0  0  0  0
  158.8500  213.6340  153.9290 C   0  0  0  0  0  3  0  0  0  0  0  0
  159.2190  212.3510  153.8840 C   0  0  0  0  0  3  0  0  0  0  0  0
  156.6310  213.1100  154.7160 N   0  0  0  0  0  0  0  0  0  0  0  0
  1  7  1  0  0  0  0
  2 11  1  0  0  0  0
  3 14  2  0  0  0  0
  5  2  1  0  0  0  0
  7  3  1  0  0  0  0
  7  2  2  0  0  0  0
  8  4  1  0  0  0  0
  8 25  1  1  0  0  0
  9 13  1  0  0  0  0
  9  3  1  0  0  0  0
 10 15  1  0  0  0  0
 10  1  2  0  0  0  0
 11  6  2  0  0  0  0
 12  4  1  0  0  0  0
 13 18  1  6  0  0  0
 13 12  1  0  0  0  0
 14  8  1  0  0  0  0
 14  6  1  0  0  0  0
 15  9  2  0  0  0  0
 16 20  1  0  0  0  0
 17 16  2  0  0  0  0
 17 19  1  0  0  0  0
 19 21  2  0  0  0  0
 20 18  2  0  0  0  0
 21 18  1  0  0  0  0
 22 16  1  0  0  0  0
 23 24  1  0  0  0  0
 24  1  1  0  0  0  0
 25 26  1  0  0  0  0
 26 27  1  0  0  0  0
 29 30  1  0  0  0  0
 29 27  1  1  0  0  0
 30 34  1  0  0  0  0
 30 28  2  0  0  0  0
 31 34  2  0  0  0  0
 32 31  1  0  0  0  0
 33 32  2  0  0  0  0
 33 29  1  0  0  0  0
M  END
>  <MODEL>
3

>  <REMARK>
 VINA RESULT:      -7.9      3.685      8.492
  Name = 
  6 active torsions:
  status: ('A' for Active; 'I' for Inactive)
    1  A    between atoms: C_1  and  O_19
    2  A    between atoms: C_3  and  C_13
    3  A    between atoms: C_3  and  N_17
    4  A    between atoms: C_12  and  C_28
    5  A    between atoms: N_17  and  C_29
    6  A    between atoms: C_18  and  C_29
                            x       y       z     vdW  Elec       q    Type
                         _______ _______ _______ _____ _____    ______ ____

>  <TORSDO>
F 6

$$$$
=
 OpenBabel11062407463D

 34 38  0  0  1  0  0  0  0  0999 V2000
  161.6040  206.0750  148.5840 C   0  0  0  0  0  0  0  0  0  0  0  0
  161.3250  205.1750  150.8610 C   0  0  0  0  0  0  0  0  0  0  0  0
  161.4180  207.6060  150.4990 C   0  0  0  0  0  0  0  0  0  0  0  0
  162.3360  209.9520  152.5320 C   0  0  0  0  0  2  0  0  0  0  0  0
  161.3580  203.8610  150.4110 O   0  0  0  0  0  1  0  0  0  0  0  0
  161.1140  206.6740  152.7360 C   0  0  0  0  0  3  0  0  0  0  0  0
  161.4450  206.2740  149.9750 C   0  0  0  0  0  0  0  0  0  0  0  0
  161.0270  209.1700  152.5130 C   0  0  1  0  0  3  0  0  0  0  0  0
  161.6400  208.6910  149.5960 C   0  0  0  0  0  0  0  0  0  0  0  0
  161.7680  207.1840  147.7550 C   0  0  0  0  0  3  0  0  0  0  0  0
  161.1780  205.3870  152.2260 C   0  0  0  0  0  3  0  0  0  0  0  0
  162.8590  210.2630  151.1280 C   0  0  0  0  0  2  0  0  0  0  0  0
  161.7710  210.1300  150.0620 C   0  0  1  0  0  3  0  0  0  0  0  0
  161.1980  207.7930  151.8990 C   0  0  0  0  0  0  0  0  0  0  0  0
  161.7920  208.4330  148.2690 N   0  0  0  0  0  0  0  0  0  0  0  0
  161.0650  212.6140  147.2540 C   0  0  0  0  0  0  0  0  0  0  0  0
  162.3630  213.0200  146.9260 C   0  0  0  0  0  3  0  0  0  0  0  0
  161.9590  211.1310  148.9560 C   0  0  0  0  0  0  0  0  0  0  0  0
  163.4570  212.4860  147.6130 C   0  0  0  0  0  3  0  0  0  0  0  0
  160.8610  211.6730  148.2670 C   0  0  0  0  0  3  0  0  0  0  0  0
  163.2540  211.5450  148.6270 C   0  0  0  0  0  3  0  0  0  0  0  0
  160.0050  213.1330  146.5890 F   0  0  0  0  0  0  0  0  0  0  0  0
  161.9070  204.5220  146.6710 C   0  0  0  0  0  1  0  0  0  0  0  0
  161.5990  204.7860  148.0340 O   0  0  0  0  0  0  0  0  0  0  0  0
  160.3720  209.1870  153.8890 C   0  0  0  0  0  2  0  0  0  0  0  0
  160.6380  210.4570  154.5400 N   0  0  0  0  0  2  0  0  0  0  0  0
  159.3520  211.1000  154.7470 C   0  0  0  0  0  2  0  0  0  0  0  0
  159.6490  212.3650  151.9650 O   0  0  0  0  0  0  0  0  0  0  0  0
  159.4300  212.5660  154.3480 C   0  0  1  0  0  3  0  0  0  0  0  0
  158.9390  212.7510  152.9310 C   0  0  0  0  0  0  0  0  0  0  0  0
  156.9620  213.9000  153.6180 C   0  0  0  0  0  3  0  0  0  0  0  0
  157.4720  213.9680  154.9970 C   0  0  0  0  0  3  0  0  0  0  0  0
  158.6220  213.3750  155.3270 C   0  0  0  0  0  3  0  0  0  0  0  0
  157.6590  213.3420  152.6750 N   0  0  0  0  0  0  0  0  0  0  0  0
  1  7  1  0  0  0  0
  2 11  1  0  0  0  0
  3 14  2  0  0  0  0
  5  2  1  0  0  0  0
  7  3  1  0  0  0  0
  7  2  2  0  0  0  0
  8  4  1  0  0  0  0
  8 25  1  1  0  0  0
  9 13  1  0  0  0  0
  9  3  1  0  0  0  0
 10 15  1  0  0  0  0
 10  1  2  0  0  0  0
 11  6  2  0  0  0  0
 12  4  1  0  0  0  0
 13 18  1  6  0  0  0
 13 12  1  0  0  0  0
 14  8  1  0  0  0  0
 14  6  1  0  0  0  0
 15  9  2  0  0  0  0
 16 20  1  0  0  0  0
 17 16  2  0  0  0  0
 17 19  1  0  0  0  0
 19 21  2  0  0  0  0
 20 18  2  0  0  0  0
 21 18  1  0  0  0  0
 22 16  1  0  0  0  0
 23 24  1  0  0  0  0
 24  1  1  0  0  0  0
 25 26  1  0  0  0  0
 26 27  1  0  0  0  0
 28 30  2  0  0  0  0
 29 27  1  1  0  0  0
 29 33  1  0  0  0  0
 30 29  1  0  0  0  0
 31 32  1  0  0  0  0
 32 33  2  0  0  0  0
 34 30  1  0  0  0  0
 34 31  2  0  0  0  0
M  END
>  <MODEL>
4

>  <REMARK>
 VINA RESULT:      -7.7      3.640      8.718
  Name = 
  6 active torsions:
  status: ('A' for Active; 'I' for Inactive)
    1  A    between atoms: C_1  and  O_19
    2  A    between atoms: C_3  and  C_13
    3  A    between atoms: C_3  and  N_17
    4  A    between atoms: C_12  and  C_28
    5  A    between atoms: N_17  and  C_29
    6  A    between atoms: C_18  and  C_29
                            x       y       z     vdW  Elec       q    Type
                         _______ _______ _______ _____ _____    ______ ____

>  <TORSDO>
F 6

$$$$
=
 OpenBabel11062407463D

 34 38  0  0  1  0  0  0  0  0999 V2000
  161.1010  206.8410  153.6040 C   0  0  0  0  0  0  0  0  0  0  0  0
  161.5850  209.2440  153.3520 C   0  0  0  0  0  0  0  0  0  0  0  0
  161.4400  207.8010  151.3660 C   0  0  0  0  0  0  0  0  0  0  0  0
  162.8220  208.1600  148.4600 C   0  0  0  0  0  2  0  0  0  0  0  0
  161.5440  209.4580  154.7250 O   0  0  0  0  0  1  0  0  0  0  0  0
  161.8890  210.1930  151.1590 C   0  0  0  0  0  3  0  0  0  0  0  0
  161.3710  207.9630  152.7870 C   0  0  0  0  0  0  0  0  0  0  0  0
  161.6120  208.8900  149.0340 C   0  0  1  0  0  3  0  0  0  0  0  0
  161.3180  206.4820  150.8310 C   0  0  0  0  0  0  0  0  0  0  0  0
  160.9460  205.5900  153.0080 C   0  0  0  0  0  3  0  0  0  0  0  0
  161.8570  210.3350  152.5360 C   0  0  0  0  0  3  0  0  0  0  0  0
  162.8700  206.6850  148.8670 C   0  0  0  0  0  2  0  0  0  0  0  0
  161.5130  206.1750  149.3560 C   0  0  1  0  0  3  0  0  0  0  0  0
  161.6540  208.9540  150.5500 C   0  0  0  0  0  0  0  0  0  0  0  0
  161.0640  205.4420  151.6700 N   0  0  0  0  0  0  0  0  0  0  0  0
  160.6480  202.4650  149.5480 C   0  0  0  0  0  0  0  0  0  0  0  0
  160.8830  202.0690  148.2270 C   0  0  0  0  0  3  0  0  0  0  0  0
  161.2990  204.7350  148.9840 C   0  0  0  0  0  0  0  0  0  0  0  0
  161.3220  203.0030  147.2850 C   0  0  0  0  0  3  0  0  0  0  0  0
  160.8530  203.7950  149.9270 C   0  0  0  0  0  3  0  0  0  0  0  0
  161.5270  204.3340  147.6620 C   0  0  0  0  0  3  0  0  0  0  0  0
  160.2200  201.5590  150.4610 F   0  0  0  0  0  0  0  0  0  0  0  0
  159.7480  206.9390  155.6830 C   0  0  0  0  0  1  0  0  0  0  0  0
  160.9920  206.9710  154.9950 O   0  0  0  0  0  0  0  0  0  0  0  0
  161.4150  210.2310  148.3350 C   0  0  0  0  0  2  0  0  0  0  0  0
  162.2480  211.2370  148.9680 N   0  0  0  0  0  2  0  0  0  0  0  0
  162.8260  212.0350  147.9000 C   0  0  0  0  0  2  0  0  0  0  0  0
  161.8550  213.5790  145.4320 O   0  0  0  0  0  0  0  0  0  0  0  0
  162.1200  213.3790  147.8090 C   0  0  1  0  0  3  0  0  0  0  0  0
  161.2900  213.4510  146.5490 C   0  0  0  0  0  0  0  0  0  0  0  0
  159.2220  213.3790  147.7410 C   0  0  0  0  0  3  0  0  0  0  0  0
  159.9420  213.5380  149.0140 C   0  0  0  0  0  3  0  0  0  0  0  0
  161.2770  213.5640  149.0430 C   0  0  0  0  0  3  0  0  0  0  0  0
  159.8620  213.3510  146.6110 N   0  0  0  0  0  0  0  0  0  0  0  0
  1 24  1  0  0  0  0
  2  5  1  0  0  0  0
  3  7  1  0  0  0  0
  4 12  1  0  0  0  0
  4  8  1  0  0  0  0
  6 11  1  0  0  0  0
  7  2  1  0  0  0  0
  7  1  2  0  0  0  0
  8 25  1  6  0  0  0
  8 14  1  0  0  0  0
  9  3  2  0  0  0  0
  9 15  1  0  0  0  0
 10  1  1  0  0  0  0
 11  2  2  0  0  0  0
 12 13  1  0  0  0  0
 13 18  1  1  0  0  0
 13  9  1  0  0  0  0
 14  6  2  0  0  0  0
 14  3  1  0  0  0  0
 15 10  2  0  0  0  0
 16 20  1  0  0  0  0
 16 22  1  0  0  0  0
 17 16  2  0  0  0  0
 18 20  2  0  0  0  0
 19 21  2  0  0  0  0
 19 17  1  0  0  0  0
 21 18  1  0  0  0  0
 24 23  1  0  0  0  0
 25 26  1  0  0  0  0
 27 26  1  0  0  0  0
 28 30  2  0  0  0  0
 29 27  1  1  0  0  0
 29 33  1  0  0  0  0
 30 34  1  0  0  0  0
 30 29  1  0  0  0  0
 31 32  1  0  0  0  0
 32 33  2  0  0  0  0
 34 31  2  0  0  0  0
M  END
>  <MODEL>
5

>  <REMARK>
 VINA RESULT:      -7.0      3.373      7.929
  Name = 
  6 active torsions:
  status: ('A' for Active; 'I' for Inactive)
    1  A    between atoms: C_1  and  O_19
    2  A    between atoms: C_3  and  C_13
    3  A    between atoms: C_3  and  N_17
    4  A    between atoms: C_12  and  C_28
    5  A    between atoms: N_17  and  C_29
    6  A    between atoms: C_18  and  C_29
                            x       y       z     vdW  Elec       q    Type
                         _______ _______ _______ _____ _____    ______ ____

>  <TORSDO>
F 6

$$$$
=
 OpenBabel11062407463D

 34 38  0  0  1  0  0  0  0  0999 V2000
  160.9460  207.4310  155.2300 C   0  0  0  0  0  0  0  0  0  0  0  0
  160.9900  209.8380  155.7580 C   0  0  0  0  0  0  0  0  0  0  0  0
  160.9000  209.0910  153.4170 C   0  0  0  0  0  0  0  0  0  0  0  0
  161.9130  210.6000  150.7380 C   0  0  0  0  0  2  0  0  0  0  0  0
  161.0470  209.5980  157.1260 O   0  0  0  0  0  1  0  0  0  0  0  0
  160.9160  211.4660  153.9840 C   0  0  0  0  0  3  0  0  0  0  0  0
  160.9420  208.7820  154.8140 C   0  0  0  0  0  0  0  0  0  0  0  0
  160.6590  210.8680  151.5620 C   0  0  1  0  0  3  0  0  0  0  0  0
  160.9510  208.0080  152.4850 C   0  0  0  0  0  0  0  0  0  0  0  0
  160.9480  206.4250  154.2650 C   0  0  0  0  0  3  0  0  0  0  0  0
  160.9930  211.1600  155.3330 C   0  0  0  0  0  3  0  0  0  0  0  0
  162.2490  209.1100  150.6390 C   0  0  0  0  0  2  0  0  0  0  0  0
  161.0510  208.2230  150.9850 C   0  0  1  0  0  3  0  0  0  0  0  0
  160.8360  210.4600  153.0130 C   0  0  0  0  0  0  0  0  0  0  0  0
  160.9600  206.7290  152.9480 N   0  0  0  0  0  0  0  0  0  0  0  0
  161.1310  204.5380  150.0000 C   0  0  0  0  0  0  0  0  0  0  0  0
  161.0050  204.6330  148.6090 C   0  0  0  0  0  3  0  0  0  0  0  0
  161.0500  206.9590  150.1710 C   0  0  0  0  0  0  0  0  0  0  0  0
  160.8980  205.8860  148.0010 C   0  0  0  0  0  3  0  0  0  0  0  0
  161.1510  205.6970  150.7810 C   0  0  0  0  0  3  0  0  0  0  0  0
  160.9190  207.0470  148.7810 C   0  0  0  0  0  3  0  0  0  0  0  0
  161.2320  203.3230  150.5900 F   0  0  0  0  0  0  0  0  0  0  0  0
  159.8210  206.5510  157.2610 C   0  0  0  0  0  1  0  0  0  0  0  0
  160.9520  207.0940  156.5900 O   0  0  0  0  0  0  0  0  0  0  0  0
  160.1700  212.2960  151.3470 C   0  0  0  0  0  2  0  0  0  0  0  0
  160.6390  212.7830  150.0620 N   0  0  0  0  0  2  0  0  0  0  0  0
  159.9230  214.0170  149.7940 C   0  0  0  0  0  2  0  0  0  0  0  0
  162.4740  214.4490  148.1420 O   0  0  0  0  0  0  0  0  0  0  0  0
  160.0810  214.4070  148.3320 C   0  0  1  0  0  3  0  0  0  0  0  0
  161.3970  213.8980  147.7930 C   0  0  0  0  0  0  0  0  0  0  0  0
  160.3530  212.2740  146.3870 C   0  0  0  0  0  3  0  0  0  0  0  0
  159.0340  212.8570  146.6810 C   0  0  0  0  0  3  0  0  0  0  0  0
  158.9120  213.8570  147.5580 C   0  0  0  0  0  3  0  0  0  0  0  0
  161.4350  212.7750  146.9030 N   0  0  0  0  0  0  0  0  0  0  0  0
  1 24  1  0  0  0  0
  2  5  1  0  0  0  0
  3  7  1  0  0  0  0
  4  8  1  0  0  0  0
  6 11  2  0  0  0  0
  7  1  1  0  0  0  0
  7  2  2  0  0  0  0
  8 25  1  1  0  0  0
  8 14  1  0  0  0  0
  9 15  2  0  0  0  0
  9  3  1  0  0  0  0
 10  1  2  0  0  0  0
 11  2  1  0  0  0  0
 12  4  1  0  0  0  0
 12 13  1  0  0  0  0
 13 18  1  6  0  0  0
 13  9  1  0  0  0  0
 14  3  2  0  0  0  0
 14  6  1  0  0  0  0
 15 10  1  0  0  0  0
 16 22  1  0  0  0  0
 16 20  1  0  0  0  0
 17 16  2  0  0  0  0
 18 20  2  0  0  0  0
 19 17  1  0  0  0  0
 19 21  2  0  0  0  0
 21 18  1  0  0  0  0
 24 23  1  0  0  0  0
 26 25  1  0  0  0  0
 27 26  1  0  0  0  0
 29 27  1  1  0  0  0
 30 28  2  0  0  0  0
 30 29  1  0  0  0  0
 31 32  1  0  0  0  0
 31 34  2  0  0  0  0
 32 33  2  0  0  0  0
 33 29  1  0  0  0  0
 34 30  1  0  0  0  0
M  END
>  <MODEL>
6

>  <REMARK>
 VINA RESULT:      -7.0      3.659      8.206
  Name = 
  6 active torsions:
  status: ('A' for Active; 'I' for Inactive)
    1  A    between atoms: C_1  and  O_19
    2  A    between atoms: C_3  and  C_13
    3  A    between atoms: C_3  and  N_17
    4  A    between atoms: C_12  and  C_28
    5  A    between atoms: N_17  and  C_29
    6  A    between atoms: C_18  and  C_29
                            x       y       z     vdW  Elec       q    Type
                         _______ _______ _______ _____ _____    ______ ____

>  <TORSDO>
F 6

$$$$
=
 OpenBabel11062407463D

 34 38  0  0  1  0  0  0  0  0999 V2000
  161.2710  209.3060  153.1590 C   0  0  0  0  0  0  0  0  0  0  0  0
  161.1830  206.8620  152.8570 C   0  0  0  0  0  0  0  0  0  0  0  0
  161.7360  208.3200  150.9550 C   0  0  0  0  0  0  0  0  0  0  0  0
  161.3390  207.8000  147.7850 C   0  0  0  0  0  2  0  0  0  0  0  0
  160.8390  206.6500  154.1870 O   0  0  0  0  0  1  0  0  0  0  0  0
  161.6670  205.8920  150.7060 C   0  0  0  0  0  3  0  0  0  0  0  0
  161.3980  208.1630  152.3380 C   0  0  0  0  0  0  0  0  0  0  0  0
  162.4020  207.2280  148.7160 C   0  0  1  0  0  3  0  0  0  0  0  0
  161.8500  209.6460  150.4350 C   0  0  0  0  0  0  0  0  0  0  0  0
  161.4430  210.5690  152.5930 C   0  0  0  0  0  3  0  0  0  0  0  0
  161.3030  205.7490  152.0350 C   0  0  0  0  0  3  0  0  0  0  0  0
  160.9920  209.2550  148.1080 C   0  0  0  0  0  2  0  0  0  0  0  0
  162.0670  209.9310  148.9600 C   0  0  1  0  0  3  0  0  0  0  0  0
  161.9190  207.1520  150.1520 C   0  0  0  0  0  0  0  0  0  0  0  0
  161.7110  210.7070  151.2760 N   0  0  0  0  0  0  0  0  0  0  0  0
  161.2630  213.6150  148.3770 C   0  0  0  0  0  0  0  0  0  0  0  0
  162.5200  214.1050  148.0040 C   0  0  0  0  0  3  0  0  0  0  0  0
  162.2030  211.3890  148.6180 C   0  0  0  0  0  0  0  0  0  0  0  0
  163.6170  213.2410  147.9420 C   0  0  0  0  0  3  0  0  0  0  0  0
  161.1040  212.2610  148.6850 C   0  0  0  0  0  3  0  0  0  0  0  0
  163.4590  211.8860  148.2500 C   0  0  0  0  0  3  0  0  0  0  0  0
  160.2010  214.4530  148.4390 F   0  0  0  0  0  0  0  0  0  0  0  0
  161.6620  209.9140  155.5340 C   0  0  0  0  0  1  0  0  0  0  0  0
  160.9760  209.1860  154.5230 O   0  0  0  0  0  0  0  0  0  0  0  0
  162.9630  205.9260  148.1530 C   0  0  0  0  0  2  0  0  0  0  0  0
  162.0550  205.3970  147.1510 N   0  0  0  0  0  2  0  0  0  0  0  0
  162.2510  203.9580  147.1240 C   0  0  0  0  0  2  0  0  0  0  0  0
  160.8350  201.5580  145.8360 O   0  0  0  0  0  0  0  0  0  0  0  0
  160.9700  203.2480  147.5360 C   0  0  1  0  0  3  0  0  0  0  0  0
  160.9880  201.8150  147.0590 C   0  0  0  0  0  0  0  0  0  0  0  0
  161.2050  200.9360  149.2690 C   0  0  0  0  0  3  0  0  0  0  0  0
  160.9650  202.2740  149.8320 C   0  0  0  0  0  3  0  0  0  0  0  0
  160.8310  203.3350  149.0330 C   0  0  0  0  0  3  0  0  0  0  0  0
  161.2020  200.7420  147.9840 N   0  0  0  0  0  0  0  0  0  0  0  0
  1 24  1  0  0  0  0
  2  5  1  0  0  0  0
  3  7  1  0  0  0  0
  4 12  1  0  0  0  0
  4  8  1  0  0  0  0
  6 11  1  0  0  0  0
  7  2  1  0  0  0  0
  7  1  2  0  0  0  0
  8 25  1  6  0  0  0
  8 14  1  0  0  0  0
  9  3  2  0  0  0  0
  9 15  1  0  0  0  0
 10  1  1  0  0  0  0
 11  2  2  0  0  0  0
 12 13  1  0  0  0  0
 13 18  1  1  0  0  0
 13  9  1  0  0  0  0
 14  6  2  0  0  0  0
 14  3  1  0  0  0  0
 15 10  2  0  0  0  0
 16 22  1  0  0  0  0
 16 20  1  0  0  0  0
 17 16  2  0  0  0  0
 18 20  2  0  0  0  0
 19 17  1  0  0  0  0
 19 21  2  0  0  0  0
 21 18  1  0  0  0  0
 24 23  1  0  0  0  0
 26 25  1  0  0  0  0
 27 26  1  0  0  0  0
 28 30  2  0  0  0  0
 29 27  1  1  0  0  0
 29 33  1  0  0  0  0
 30 29  1  0  0  0  0
 30 34  1  0  0  0  0
 31 32  1  0  0  0  0
 33 32  2  0  0  0  0
 34 31  2  0  0  0  0
M  END
>  <MODEL>
7

>  <REMARK>
 VINA RESULT:      -6.8      2.821      5.556
  Name = 
  6 active torsions:
  status: ('A' for Active; 'I' for Inactive)
    1  A    between atoms: C_1  and  O_19
    2  A    between atoms: C_3  and  C_13
    3  A    between atoms: C_3  and  N_17
    4  A    between atoms: C_12  and  C_28
    5  A    between atoms: N_17  and  C_29
    6  A    between atoms: C_18  and  C_29
                            x       y       z     vdW  Elec       q    Type
                         _______ _______ _______ _____ _____    ______ ____

>  <TORSDO>
F 6

$$$$
=
 OpenBabel11062407463D

 34 38  0  0  1  0  0  0  0  0999 V2000
  161.0220  204.9690  151.6320 C   0  0  0  0  0  0  0  0  0  0  0  0
  161.3170  206.9830  153.0210 C   0  0  0  0  0  0  0  0  0  0  0  0
  161.3920  207.1550  150.5690 C   0  0  0  0  0  0  0  0  0  0  0  0
  162.8820  209.3440  148.7070 C   0  0  0  0  0  2  0  0  0  0  0  0
  161.1890  206.2600  154.2010 O   0  0  0  0  0  1  0  0  0  0  0  0
  161.6500  209.1300  151.9810 C   0  0  0  0  0  3  0  0  0  0  0  0
  161.2380  206.3610  151.7510 C   0  0  0  0  0  0  0  0  0  0  0  0
  161.5890  209.4940  149.5010 C   0  0  1  0  0  3  0  0  0  0  0  0
  161.4060  206.4880  149.3050 C   0  0  0  0  0  0  0  0  0  0  0  0
  161.0010  204.3920  150.3630 C   0  0  0  0  0  3  0  0  0  0  0  0
  161.5370  208.3510  153.1210 C   0  0  0  0  0  3  0  0  0  0  0  0
  163.0320  207.9570  148.0780 C   0  0  0  0  0  2  0  0  0  0  0  0
  161.6990  207.2090  148.0020 C   0  0  1  0  0  3  0  0  0  0  0  0
  161.5490  208.5690  150.7030 C   0  0  0  0  0  0  0  0  0  0  0  0
  161.1990  205.1440  149.2580 N   0  0  0  0  0  0  0  0  0  0  0  0
  162.5910  204.7000  145.2700 C   0  0  0  0  0  0  0  0  0  0  0  0
  161.4220  204.7170  144.5020 C   0  0  0  0  0  3  0  0  0  0  0  0
  161.6250  206.3420  146.7760 C   0  0  0  0  0  0  0  0  0  0  0  0
  160.3550  205.5410  144.8710 C   0  0  0  0  0  3  0  0  0  0  0  0
  162.6940  205.5080  146.4060 C   0  0  0  0  0  3  0  0  0  0  0  0
  160.4560  206.3500  146.0070 C   0  0  0  0  0  3  0  0  0  0  0  0
  163.6240  203.8990  144.9130 F   0  0  0  0  0  0  0  0  0  0  0  0
  160.3670  202.8260  152.7020 C   0  0  0  0  0  1  0  0  0  0  0  0
  160.8330  204.1680  152.7670 O   0  0  0  0  0  0  0  0  0  0  0  0
  161.3150  210.9630  149.8070 C   0  0  0  0  0  2  0  0  0  0  0  0
  161.5790  211.7640  148.6250 N   0  0  0  0  0  2  0  0  0  0  0  0
  161.2350  213.1340  148.9620 C   0  0  0  0  0  2  0  0  0  0  0  0
  162.6030  214.0130  146.3580 O   0  0  0  0  0  0  0  0  0  0  0  0
  160.6530  213.8410  147.7470 C   0  0  1  0  0  3  0  0  0  0  0  0
  161.4580  213.5120  146.5120 C   0  0  0  0  0  0  0  0  0  0  0  0
  159.7110  212.1990  145.5520 C   0  0  0  0  0  3  0  0  0  0  0  0
  158.7830  212.6540  146.6000 C   0  0  0  0  0  3  0  0  0  0  0  0
  159.2120  213.4320  147.5970 C   0  0  0  0  0  3  0  0  0  0  0  0
  160.9410  212.6140  145.5230 N   0  0  0  0  0  0  0  0  0  0  0  0
  1  7  1  0  0  0  0
  1 24  1  0  0  0  0
  2 11  1  0  0  0  0
  2  5  1  0  0  0  0
  3 14  2  0  0  0  0
  3  7  1  0  0  0  0
  4  8  1  0  0  0  0
  6 11  2  0  0  0  0
  7  2  2  0  0  0  0
  8 25  1  1  0  0  0
  8 14  1  0  0  0  0
  9  3  1  0  0  0  0
 10  1  2  0  0  0  0
 12  4  1  0  0  0  0
 13 18  1  6  0  0  0
 13 12  1  0  0  0  0
 13  9  1  0  0  0  0
 14  6  1  0  0  0  0
 15  9  2  0  0  0  0
 15 10  1  0  0  0  0
 16 20  1  0  0  0  0
 17 19  1  0  0  0  0
 17 16  2  0  0  0  0
 19 21  2  0  0  0  0
 20 18  2  0  0  0  0
 21 18  1  0  0  0  0
 22 16  1  0  0  0  0
 23 24  1  0  0  0  0
 26 27  1  0  0  0  0
 26 25  1  0  0  0  0
 28 30  2  0  0  0  0
 29 27  1  1  0  0  0
 30 29  1  0  0  0  0
 31 32  1  0  0  0  0
 32 33  2  0  0  0  0
 33 29  1  0  0  0  0
 34 31  2  0  0  0  0
 34 30  1  0  0  0  0
M  END
>  <MODEL>
8

>  <REMARK>
 VINA RESULT:      -6.8      3.795      8.640
  Name = 
  6 active torsions:
  status: ('A' for Active; 'I' for Inactive)
    1  A    between atoms: C_1  and  O_19
    2  A    between atoms: C_3  and  C_13
    3  A    between atoms: C_3  and  N_17
    4  A    between atoms: C_12  and  C_28
    5  A    between atoms: N_17  and  C_29
    6  A    between atoms: C_18  and  C_29
                            x       y       z     vdW  Elec       q    Type
                         _______ _______ _______ _____ _____    ______ ____

>  <TORSDO>
F 6

$$$$
=
 OpenBabel11062407463D

 34 38  0  0  1  0  0  0  0  0999 V2000
  161.1840  205.4500  147.2870 C   0  0  0  0  0  0  0  0  0  0  0  0
  161.1800  203.6230  148.9410 C   0  0  0  0  0  0  0  0  0  0  0  0
  161.2540  205.9630  149.6910 C   0  0  0  0  0  0  0  0  0  0  0  0
  162.4420  207.2050  152.4350 C   0  0  0  0  0  2  0  0  0  0  0  0
  161.1430  202.6470  147.9510 O   0  0  0  0  0  1  0  0  0  0  0  0
  161.2200  204.1240  151.2960 C   0  0  0  0  0  3  0  0  0  0  0  0
  161.2010  205.0040  148.6290 C   0  0  0  0  0  0  0  0  0  0  0  0
  161.1330  206.4530  152.2200 C   0  0  1  0  0  3  0  0  0  0  0  0
  161.3740  207.3450  149.3460 C   0  0  0  0  0  0  0  0  0  0  0  0
  161.2570  206.8180  147.0260 C   0  0  0  0  0  3  0  0  0  0  0  0
  161.2060  203.2010  150.2640 C   0  0  0  0  0  3  0  0  0  0  0  0
  162.7910  208.1300  151.2660 C   0  0  0  0  0  2  0  0  0  0  0  0
  161.5770  208.4330  150.3860 C   0  0  1  0  0  3  0  0  0  0  0  0
  161.2110  205.5000  151.0420 C   0  0  0  0  0  0  0  0  0  0  0  0
  161.3570  207.7100  148.0360 N   0  0  0  0  0  0  0  0  0  0  0  0
  161.1180  212.1960  149.9600 C   0  0  0  0  0  0  0  0  0  0  0  0
  161.8090  212.4140  148.7620 C   0  0  0  0  0  3  0  0  0  0  0  0
  161.6370  209.8280  149.8280 C   0  0  0  0  0  0  0  0  0  0  0  0
  162.4160  211.3430  148.1010 C   0  0  0  0  0  3  0  0  0  0  0  0
  161.0330  210.9070  150.4940 C   0  0  0  0  0  3  0  0  0  0  0  0
  162.3310  210.0520  148.6340 C   0  0  0  0  0  3  0  0  0  0  0  0
  160.5330  213.2360  150.6020 F   0  0  0  0  0  0  0  0  0  0  0  0
  160.8380  204.9340  144.8830 C   0  0  0  0  0  1  0  0  0  0  0  0
  161.0980  204.5400  146.2250 O   0  0  0  0  0  0  0  0  0  0  0  0
  160.6530  205.8280  153.5260 C   0  0  0  0  0  2  0  0  0  0  0  0
  160.8440  206.7690  154.6150 N   0  0  0  0  0  2  0  0  0  0  0  0
  160.3210  208.0460  154.1640 C   0  0  0  0  0  2  0  0  0  0  0  0
  162.3300  210.3290  153.7440 O   0  0  0  0  0  0  0  0  0  0  0  0
  160.7490  209.1530  155.1150 C   0  0  1  0  0  3  0  0  0  0  0  0
  161.2210  210.3590  154.3390 C   0  0  0  0  0  0  0  0  0  0  0  0
  159.3340  211.6790  154.9720 C   0  0  0  0  0  3  0  0  0  0  0  0
  158.9220  210.6420  155.9310 C   0  0  0  0  0  3  0  0  0  0  0  0
  159.5890  209.4890  156.0150 C   0  0  0  0  0  3  0  0  0  0  0  0
  160.4050  211.5350  154.2520 N   0  0  0  0  0  0  0  0  0  0  0  0
  1  7  1  0  0  0  0
  2 11  1  0  0  0  0
  3 14  2  0  0  0  0
  5  2  1  0  0  0  0
  7  2  2  0  0  0  0
  7  3  1  0  0  0  0
  8  4  1  0  0  0  0
  8 25  1  1  0  0  0
  9  3  1  0  0  0  0
  9 13  1  0  0  0  0
 10  1  2  0  0  0  0
 10 15  1  0  0  0  0
 11  6  2  0  0  0  0
 12  4  1  0  0  0  0
 13 18  1  6  0  0  0
 13 12  1  0  0  0  0
 14  6  1  0  0  0  0
 14  8  1  0  0  0  0
 15  9  2  0  0  0  0
 16 20  1  0  0  0  0
 16 22  1  0  0  0  0
 17 16  2  0  0  0  0
 18 20  2  0  0  0  0
 19 21  2  0  0  0  0
 19 17  1  0  0  0  0
 21 18  1  0  0  0  0
 23 24  1  0  0  0  0
 24  1  1  0  0  0  0
 25 26  1  0  0  0  0
 27 26  1  0  0  0  0
 28 30  2  0  0  0  0
 29 27  1  6  0  0  0
 29 33  1  0  0  0  0
 30 29  1  0  0  0  0
 31 32  1  0  0  0  0
 32 33  2  0  0  0  0
 34 30  1  0  0  0  0
 34 31  2  0  0  0  0
M  END
>  <MODEL>
9

>  <REMARK>
 VINA RESULT:      -6.6      2.773      7.578
  Name = 
  6 active torsions:
  status: ('A' for Active; 'I' for Inactive)
    1  A    between atoms: C_1  and  O_19
    2  A    between atoms: C_3  and  C_13
    3  A    between atoms: C_3  and  N_17
    4  A    between atoms: C_12  and  C_28
    5  A    between atoms: N_17  and  C_29
    6  A    between atoms: C_18  and  C_29
                            x       y       z     vdW  Elec       q    Type
                         _______ _______ _______ _____ _____    ______ ____

>  <TORSDO>
F 6

$$$$
