=
 OpenBabel11062408243D

 32 37  0  0  1  0  0  0  0  0999 V2000
  158.4730  213.2250  152.6600 N   0  0  0  0  0  0  0  0  0  0  0  0
  159.2600  211.4020  154.0490 C   0  0  0  0  0  0  0  0  0  0  0  0
  158.6000  212.5880  153.9560 C   0  0  0  0  0  0  0  0  0  0  0  0
  159.5560  210.7620  155.3800 C   0  0  0  0  0  0  0  0  0  0  0  0
  161.5350  207.6870  151.8030 C   0  0  0  0  0  3  0  0  0  0  0  0
  159.7890  210.7510  152.8240 C   0  0  0  0  0  0  0  0  0  0  0  0
  161.2260  207.6630  154.1980 C   0  0  0  0  0  3  0  0  0  0  0  0
  160.5990  208.9130  154.1450 C   0  0  0  0  0  0  0  0  0  0  0  0
  160.0730  212.8790  156.5930 C   0  0  0  0  0  0  0  0  0  0  0  0
  157.9350  213.3240  155.1210 C   0  0  2  0  0  3  0  0  0  0  0  0
  160.1880  209.4480  155.2560 N   0  0  0  0  0  0  0  0  0  0  0  0
  158.6890  213.4930  156.4460 C   0  0  1  0  0  3  0  0  0  0  0  0
  157.5560  212.4780  156.3290 C   0  0  0  0  0  2  0  0  0  0  0  0
  159.5580  211.4060  151.5250 C   0  0  0  0  0  3  0  0  0  0  0  0
  160.9980  213.6160  157.2570 F   0  0  0  0  0  0  0  0  0  0  0  0
  158.9180  212.5730  151.4500 C   0  0  0  0  0  0  0  0  0  0  0  0
  160.4240  209.5630  152.8980 C   0  0  0  0  0  0  0  0  0  0  0  0
  160.4500  211.6670  156.1600 C   0  0  0  0  0  3  0  0  0  0  0  0
  161.6940  207.0520  153.0350 C   0  0  0  0  0  3  0  0  0  0  0  0
  160.9040  208.9310  151.7360 C   0  0  0  0  0  2  0  0  0  0  0  0
  159.9410  213.9290  148.0820 C   0  0  0  0  0  0  0  0  0  0  0  0
  156.8850  214.2470  146.0500 C   0  0  0  0  0  1  0  0  0  0  0  0
  161.2050  214.4500  147.4740 C   0  0  0  0  0  1  0  0  0  0  0  0
  156.9010  213.6740  148.3940 C   0  0  0  0  0  3  0  0  0  0  0  0
  158.6750  213.1900  150.1220 C   0  0  0  0  0  0  0  0  0  0  0  0
  158.9600  213.5140  147.1780 O   0  0  0  0  0  0  0  0  0  0  0  0
  157.4130  213.1840  149.6740 C   0  0  0  0  0  3  0  0  0  0  0  0
  159.8080  213.8580  149.4230 C   0  0  0  0  0  0  0  0  0  0  0  0
  160.9050  214.4070  150.2910 C   0  0  0  0  0  1  0  0  0  0  0  0
  157.6020  213.8140  147.2770 C   0  0  0  0  0  0  0  0  0  0  0  0
  157.8930  214.4530  152.5790 O   0  0  0  0  0  0  0  0  0  0  0  0
  156.5120  214.2220  152.5980 C   0  0  0  0  0  1  0  0  0  0  0  0
  1  3  1  0  0  0  0
  2  4  1  0  0  0  0
  3  2  2  0  0  0  0
  3 10  1  0  0  0  0
  4 18  1  0  0  0  0
  5 19  2  0  0  0  0
  6 17  2  0  0  0  0
  6  2  1  0  0  0  0
  8  7  2  0  0  0  0
  8 11  1  0  0  0  0
  9 15  1  0  0  0  0
 10 13  1  1  0  0  0
 10 12  1  0  0  0  0
 11  4  2  0  0  0  0
 12 13  1  1  0  0  0
 12  9  1  0  0  0  0
 14  6  1  0  0  0  0
 16 14  2  0  0  0  0
 16  1  1  0  0  0  0
 17  8  1  0  0  0  0
 18  9  2  0  0  0  0
 19  7  1  0  0  0  0
 20  5  1  0  0  0  0
 20 17  1  0  0  0  0
 21 28  2  0  0  0  0
 22 30  1  0  0  0  0
 23 21  1  0  0  0  0
 24 27  1  0  0  0  0
 25 16  1  0  0  0  0
 26 30  1  0  0  0  0
 26 21  1  0  0  0  0
 27 25  2  0  0  0  0
 28 25  1  0  0  0  0
 28 29  1  0  0  0  0
 30 24  2  0  0  0  0
 31 32  1  0  0  0  0
 31  1  1  0  0  0  0
M  END
>  <MODEL>
1

>  <REMARK>
 VINA RESULT:      -5.5      0.000      0.000
  Name = 
  2 active torsions:
  status: ('A' for Active; 'I' for Inactive)
    1  A    between atoms: N_1  and  O_4
    2  A    between atoms: C_16  and  C_27
                            x       y       z     vdW  Elec       q    Type
                         _______ _______ _______ _____ _____    ______ ____

>  <TORSDO>
F 2

$$$$
=
 OpenBabel11062408243D

 32 37  0  0  1  0  0  0  0  0999 V2000
  159.5610  213.2300  151.6070 N   0  0  0  0  0  0  0  0  0  0  0  0
  160.9900  211.6740  150.4200 C   0  0  0  0  0  0  0  0  0  0  0  0
  160.4670  212.9260  150.5180 C   0  0  0  0  0  0  0  0  0  0  0  0
  161.8170  211.2500  149.2340 C   0  0  1  0  0  3  0  0  0  0  0  0
  161.4950  207.1850  152.3230 C   0  0  0  0  0  3  0  0  0  0  0  0
  160.6720  210.6560  151.4530 C   0  0  0  0  0  0  0  0  0  0  0  0
  162.6430  207.7860  150.2850 C   0  0  0  0  0  3  0  0  0  0  0  0
  162.0710  209.0630  150.3210 C   0  0  0  0  0  0  0  0  0  0  0  0
  160.4800  212.4700  147.5180 C   0  0  0  0  0  0  0  0  0  0  0  0
  160.7760  214.0890  149.5730 C   0  0  2  0  0  3  0  0  0  0  0  0
  162.3610  209.8990  149.3680 N   0  0  0  0  0  0  0  0  0  0  0  0
  160.7570  213.8660  148.0560 C   0  0  1  0  0  3  0  0  0  0  0  0
  162.0830  214.0050  148.7970 C   0  0  0  0  0  2  0  0  0  0  0  0
  159.8100  211.0470  152.5820 C   0  0  0  0  0  3  0  0  0  0  0  0
  159.6910  212.3880  146.4180 F   0  0  0  0  0  0  0  0  0  0  0  0
  159.2970  212.2750  152.6600 C   0  0  0  0  0  0  0  0  0  0  0  0
  161.2030  209.4180  151.3820 C   0  0  0  0  0  0  0  0  0  0  0  0
  160.9700  211.3210  148.0080 C   0  0  0  0  0  3  0  0  0  0  0  0
  162.3560  206.8500  151.2780 C   0  0  0  0  0  3  0  0  0  0  0  0
  160.9250  208.4590  152.3740 C   0  0  0  0  0  3  0  0  0  0  0  0
  158.6630  213.7680  156.0650 C   0  0  0  0  0  0  0  0  0  0  0  0
  155.0160  214.1220  156.4500 C   0  0  0  0  0  1  0  0  0  0  0  0
  159.4970  214.1070  157.2600 C   0  0  0  0  0  1  0  0  0  0  0  0
  156.0820  212.9970  154.6000 C   0  0  0  0  0  3  0  0  0  0  0  0
  158.4580  212.6460  153.8280 C   0  0  0  0  0  0  0  0  0  0  0  0
  157.4280  214.4160  155.9850 O   0  0  0  0  0  0  0  0  0  0  0  0
  157.1320  212.6340  153.6470 C   0  0  0  0  0  3  0  0  0  0  0  0
  159.1240  212.9070  155.1340 C   0  0  0  0  0  0  0  0  0  0  0  0
  160.4360  212.2160  155.3710 C   0  0  0  0  0  1  0  0  0  0  0  0
  156.2230  213.8030  155.6440 C   0  0  0  0  0  0  0  0  0  0  0  0
  158.9670  214.4530  151.6560 O   0  0  0  0  0  0  0  0  0  0  0  0
  157.8990  214.3910  150.7520 C   0  0  0  0  0  1  0  0  0  0  0  0
  1 31  1  0  0  0  0
  1 16  1  0  0  0  0
  2  3  2  0  0  0  0
  2  6  1  0  0  0  0
  3  1  1  0  0  0  0
  4 18  1  6  0  0  0
  4 11  1  0  0  0  0
  4  2  1  0  0  0  0
  5 20  2  0  0  0  0
  6 14  1  0  0  0  0
  7  8  1  0  0  0  0
  7 19  2  0  0  0  0
  8 17  1  0  0  0  0
  9 18  2  0  0  0  0
  9 12  1  0  0  0  0
 10 13  1  1  0  0  0
 10  3  1  0  0  0  0
 11  8  2  0  0  0  0
 12 13  1  1  0  0  0
 12 10  1  0  0  0  0
 14 16  2  0  0  0  0
 15  9  1  0  0  0  0
 16 25  1  0  0  0  0
 17  6  2  0  0  0  0
 17 20  1  0  0  0  0
 19  5  1  0  0  0  0
 21 23  1  0  0  0  0
 24 30  2  0  0  0  0
 25 28  1  0  0  0  0
 26 21  1  0  0  0  0
 27 25  2  0  0  0  0
 27 24  1  0  0  0  0
 28 29  1  0  0  0  0
 28 21  2  0  0  0  0
 30 26  1  0  0  0  0
 30 22  1  0  0  0  0
 32 31  1  0  0  0  0
M  END
>  <MODEL>
2

>  <REMARK>
 VINA RESULT:      -5.0      2.787      6.121
  Name = 
  2 active torsions:
  status: ('A' for Active; 'I' for Inactive)
    1  A    between atoms: N_1  and  O_4
    2  A    between atoms: C_16  and  C_27
                            x       y       z     vdW  Elec       q    Type
                         _______ _______ _______ _____ _____    ______ ____

>  <TORSDO>
F 2

$$$$
=
 OpenBabel11062408243D

 32 37  0  0  1  0  0  0  0  0999 V2000
  159.4590  210.8620  152.4400 N   0  0  0  0  0  0  0  0  0  0  0  0
  159.8100  212.7160  150.9190 C   0  0  0  0  0  0  0  0  0  0  0  0
  159.1390  212.2000  151.9840 C   0  0  0  0  0  0  0  0  0  0  0  0
  159.4260  214.0350  150.3030 C   0  0  0  0  0  0  0  0  0  0  0  0
  163.3650  212.2380  147.5790 C   0  0  0  0  0  3  0  0  0  0  0  0
  160.8930  211.9290  150.2750 C   0  0  0  0  0  0  0  0  0  0  0  0
  162.0420  214.2560  147.6760 C   0  0  0  0  0  3  0  0  0  0  0  0
  161.2890  213.7290  148.7320 C   0  0  0  0  0  0  0  0  0  0  0  0
  156.9610  213.7420  150.5390 C   0  0  0  0  0  0  0  0  0  0  0  0
  158.0620  212.9320  152.7890 C   0  0  2  0  0  3  0  0  0  0  0  0
  160.3310  214.4530  149.2310 N   0  0  0  0  0  0  0  0  0  0  0  0
  156.9470  213.6900  152.0590 C   0  0  1  0  0  3  0  0  0  0  0  0
  158.0870  214.4530  152.7270 C   0  0  0  0  0  2  0  0  0  0  0  0
  161.2280  210.6080  150.8340 C   0  0  0  0  0  3  0  0  0  0  0  0
  155.7620  213.6230  149.9150 F   0  0  0  0  0  0  0  0  0  0  0  0
  160.5550  210.1120  151.8720 C   0  0  0  0  0  0  0  0  0  0  0  0
  161.5830  212.4370  149.2340 C   0  0  0  0  0  0  0  0  0  0  0  0
  158.0390  213.9290  149.7630 C   0  0  0  0  0  3  0  0  0  0  0  0
  163.0730  213.5150  147.1000 C   0  0  0  0  0  3  0  0  0  0  0  0
  162.6270  211.7050  148.6380 C   0  0  0  0  0  2  0  0  0  0  0  0
  161.1780  207.6360  154.6490 C   0  0  0  0  0  0  0  0  0  0  0  0
  161.3970  204.2940  153.1140 C   0  0  0  0  0  1  0  0  0  0  0  0
  161.4620  207.7170  156.1150 C   0  0  0  0  0  1  0  0  0  0  0  0
  161.2610  206.3540  151.8640 C   0  0  0  0  0  3  0  0  0  0  0  0
  160.9410  208.7910  152.4310 C   0  0  0  0  0  0  0  0  0  0  0  0
  160.6960  206.4060  154.1930 O   0  0  0  0  0  0  0  0  0  0  0  0
  160.9670  207.7580  151.5800 C   0  0  0  0  0  3  0  0  0  0  0  0
  161.3640  208.7120  153.8570 C   0  0  0  0  0  0  0  0  0  0  0  0
  161.9600  209.9560  154.4520 C   0  0  0  0  0  1  0  0  0  0  0  0
  161.1310  205.7540  153.0400 C   0  0  0  0  0  0  0  0  0  0  0  0
  158.7270  210.3120  153.4470 O   0  0  0  0  0  0  0  0  0  0  0  0
  158.9200  211.1460  154.5540 C   0  0  0  0  0  1  0  0  0  0  0  0
  1 31  1  0  0  0  0
  2  3  2  0  0  0  0
  3  1  1  0  0  0  0
  3 10  1  0  0  0  0
  4  2  1  0  0  0  0
  5 20  1  0  0  0  0
  6 14  1  0  0  0  0
  6  2  1  0  0  0  0
  7  8  2  0  0  0  0
  8 11  1  0  0  0  0
  8 17  1  0  0  0  0
  9 12  1  0  0  0  0
 10 13  1  1  0  0  0
 11  4  2  0  0  0  0
 12 13  1  1  0  0  0
 12 10  1  0  0  0  0
 14 16  2  0  0  0  0
 15  9  1  0  0  0  0
 16 25  1  0  0  0  0
 16  1  1  0  0  0  0
 17  6  2  0  0  0  0
 18  4  1  0  0  0  0
 18  9  2  0  0  0  0
 19  5  2  0  0  0  0
 19  7  1  0  0  0  0
 20 17  1  0  0  0  0
 21 23  1  0  0  0  0
 24 30  2  0  0  0  0
 25 28  1  0  0  0  0
 26 21  1  0  0  0  0
 27 24  1  0  0  0  0
 27 25  2  0  0  0  0
 28 29  1  0  0  0  0
 28 21  2  0  0  0  0
 30 22  1  0  0  0  0
 30 26  1  0  0  0  0
 31 32  1  0  0  0  0
M  END
>  <MODEL>
3

>  <REMARK>
 VINA RESULT:      -4.6      2.908      6.945
  Name = 
  2 active torsions:
  status: ('A' for Active; 'I' for Inactive)
    1  A    between atoms: N_1  and  O_4
    2  A    between atoms: C_16  and  C_27
                            x       y       z     vdW  Elec       q    Type
                         _______ _______ _______ _____ _____    ______ ____

>  <TORSDO>
F 2

$$$$
=
 OpenBabel11062408243D

 32 37  0  0  1  0  0  0  0  0999 V2000
  161.1230  205.2770  150.9960 N   0  0  0  0  0  0  0  0  0  0  0  0
  161.6160  207.5630  151.6290 C   0  0  0  0  0  0  0  0  0  0  0  0
  161.4180  206.2720  152.0070 C   0  0  0  0  0  0  0  0  0  0  0  0
  161.7800  208.6700  152.6370 C   0  0  0  0  0  0  0  0  0  0  0  0
  162.0520  210.8480  148.0170 C   0  0  0  0  0  3  0  0  0  0  0  0
  161.5830  207.9260  150.1890 C   0  0  0  0  0  0  0  0  0  0  0  0
  162.3300  211.5190  150.3210 C   0  0  0  0  0  3  0  0  0  0  0  0
  162.0670  210.2130  150.7490 C   0  0  0  0  0  0  0  0  0  0  0  0
  160.0910  207.8120  154.2600 C   0  0  0  0  0  0  0  0  0  0  0  0
  161.5070  205.7480  153.4430 C   0  0  2  0  0  3  0  0  0  0  0  0
  162.0760  209.9650  152.0250 N   0  0  0  0  0  0  0  0  0  0  0  0
  160.8150  206.5120  154.5770 C   0  0  1  0  0  3  0  0  0  0  0  0
  162.3310  206.5780  154.4170 C   0  0  0  0  0  2  0  0  0  0  0  0
  161.3590  206.8560  149.2010 C   0  0  0  0  0  3  0  0  0  0  0  0
  158.9130  208.0240  154.8990 F   0  0  0  0  0  0  0  0  0  0  0  0
  161.1560  205.5970  149.5870 C   0  0  0  0  0  0  0  0  0  0  0  0
  161.8020  209.1980  149.7970 C   0  0  0  0  0  0  0  0  0  0  0  0
  160.5260  208.7790  153.4380 C   0  0  0  0  0  3  0  0  0  0  0  0
  162.3210  211.8380  148.9630 C   0  0  0  0  0  3  0  0  0  0  0  0
  161.7970  209.5400  148.4310 C   0  0  0  0  0  2  0  0  0  0  0  0
  161.3320  204.1460  146.1100 C   0  0  0  0  0  0  0  0  0  0  0  0
  160.8310  200.5090  146.4090 C   0  0  0  0  0  1  0  0  0  0  0  0
  161.4260  204.6960  144.7220 C   0  0  0  0  0  1  0  0  0  0  0  0
  160.5850  202.0660  148.2360 C   0  0  0  0  0  3  0  0  0  0  0  0
  160.9650  204.5380  148.5640 C   0  0  0  0  0  0  0  0  0  0  0  0
  161.7190  202.8130  146.2610 O   0  0  0  0  0  0  0  0  0  0  0  0
  160.7550  203.2950  149.0120 C   0  0  0  0  0  3  0  0  0  0  0  0
  160.9190  204.9310  147.1270 C   0  0  0  0  0  0  0  0  0  0  0  0
  160.4560  206.3270  146.8250 C   0  0  0  0  0  1  0  0  0  0  0  0
  161.0260  201.8570  147.0020 C   0  0  0  0  0  0  0  0  0  0  0  0
  160.8350  204.0040  151.3820 O   0  0  0  0  0  0  0  0  0  0  0  0
  162.0690  203.4080  151.6690 C   0  0  0  0  0  1  0  0  0  0  0  0
  1 31  1  0  0  0  0
  1  3  1  0  0  0  0
  2  3  2  0  0  0  0
  2  4  1  0  0  0  0
  3 10  1  0  0  0  0
  4 18  1  0  0  0  0
  5 20  1  0  0  0  0
  5 19  2  0  0  0  0
  6  2  1  0  0  0  0
  7  8  2  0  0  0  0
  8 11  1  0  0  0  0
  9 12  1  0  0  0  0
  9 15  1  0  0  0  0
 10 13  1  1  0  0  0
 10 12  1  0  0  0  0
 11  4  2  0  0  0  0
 12 13  1  1  0  0  0
 14 16  2  0  0  0  0
 14  6  1  0  0  0  0
 16  1  1  0  0  0  0
 17  6  2  0  0  0  0
 17  8  1  0  0  0  0
 18  9  2  0  0  0  0
 19  7  1  0  0  0  0
 20 17  1  0  0  0  0
 21 26  1  0  0  0  0
 21 28  2  0  0  0  0
 22 30  1  0  0  0  0
 23 21  1  0  0  0  0
 24 27  1  0  0  0  0
 25 27  2  0  0  0  0
 25 16  1  0  0  0  0
 26 30  1  0  0  0  0
 28 25  1  0  0  0  0
 29 28  1  0  0  0  0
 30 24  2  0  0  0  0
 31 32  1  0  0  0  0
M  END
>  <MODEL>
4

>  <REMARK>
 VINA RESULT:      -4.6      5.064      8.213
  Name = 
  2 active torsions:
  status: ('A' for Active; 'I' for Inactive)
    1  A    between atoms: N_1  and  O_4
    2  A    between atoms: C_16  and  C_27
                            x       y       z     vdW  Elec       q    Type
                         _______ _______ _______ _____ _____    ______ ____

>  <TORSDO>
F 2

$$$$
=
 OpenBabel11062408243D

 32 37  0  0  1  0  0  0  0  0999 V2000
  160.2100  211.8160  152.2200 N   0  0  0  0  0  0  0  0  0  0  0  0
  159.3820  211.8550  154.4980 C   0  0  0  0  0  0  0  0  0  0  0  0
  160.3500  211.4730  153.6220 C   0  0  0  0  0  0  0  0  0  0  0  0
  159.3920  211.4060  155.9350 C   0  0  0  0  0  0  0  0  0  0  0  0
  155.2170  214.3000  155.3320 C   0  0  0  0  0  3  0  0  0  0  0  0
  158.2290  212.6600  154.0220 C   0  0  0  0  0  0  0  0  0  0  0  0
  156.3710  213.1960  157.1440 C   0  0  0  0  0  3  0  0  0  0  0  0
  157.3510  212.7330  156.2580 C   0  0  0  0  0  0  0  0  0  0  0  0
  160.2040  209.0900  155.4940 C   0  0  0  0  0  0  0  0  0  0  0  0
  161.6280  210.7160  153.9910 C   0  0  2  0  0  3  0  0  0  0  0  0
  158.3180  212.0030  156.7290 N   0  0  0  0  0  0  0  0  0  0  0  0
  161.5510  209.4970  154.9170 C   0  0  1  0  0  3  0  0  0  0  0  0
  162.0870  210.8260  155.4390 C   0  0  0  0  0  2  0  0  0  0  0  0
  158.1820  213.0470  152.6010 C   0  0  0  0  0  3  0  0  0  0  0  0
  159.9460  207.7600  155.5580 F   0  0  0  0  0  0  0  0  0  0  0  0
  159.1320  212.6570  151.7520 C   0  0  0  0  0  0  0  0  0  0  0  0
  157.2740  213.0660  154.8830 C   0  0  0  0  0  0  0  0  0  0  0  0
  159.2670  209.9200  155.9760 C   0  0  0  0  0  3  0  0  0  0  0  0
  155.3080  213.9740  156.6850 C   0  0  0  0  0  3  0  0  0  0  0  0
  156.1920  213.8510  154.4400 C   0  0  0  0  0  2  0  0  0  0  0  0
  160.6050  213.6510  148.4250 C   0  0  0  0  0  0  0  0  0  0  0  0
  157.8880  213.5320  145.9390 C   0  0  0  0  0  1  0  0  0  0  0  0
  161.9240  214.1690  147.9470 C   0  0  0  0  0  1  0  0  0  0  0  0
  157.5660  213.2520  148.3150 C   0  0  0  0  0  3  0  0  0  0  0  0
  159.0710  213.0920  150.3330 C   0  0  0  0  0  0  0  0  0  0  0  0
  159.7930  213.0700  147.4480 O   0  0  0  0  0  0  0  0  0  0  0  0
  157.8950  212.9540  149.7090 C   0  0  0  0  0  3  0  0  0  0  0  0
  160.2700  213.7370  149.7290 C   0  0  0  0  0  0  0  0  0  0  0  0
  161.1960  214.4530  150.6700 C   0  0  0  0  0  1  0  0  0  0  0  0
  158.4250  213.2960  147.3040 C   0  0  0  0  0  0  0  0  0  0  0  0
  161.1310  211.3570  151.3300 O   0  0  0  0  0  0  0  0  0  0  0  0
  161.0220  209.9620  151.3580 C   0  0  0  0  0  1  0  0  0  0  0  0
  1  3  1  0  0  0  0
  2  4  1  0  0  0  0
  3 10  1  0  0  0  0
  3  2  2  0  0  0  0
  4 18  1  0  0  0  0
  4 11  2  0  0  0  0
  5 19  2  0  0  0  0
  6  2  1  0  0  0  0
  6 17  2  0  0  0  0
  8 11  1  0  0  0  0
  8  7  2  0  0  0  0
  9 15  1  0  0  0  0
  9 18  2  0  0  0  0
 10 12  1  0  0  0  0
 10 13  1  1  0  0  0
 12 13  1  1  0  0  0
 12  9  1  0  0  0  0
 14  6  1  0  0  0  0
 16  1  1  0  0  0  0
 16 14  2  0  0  0  0
 17  8  1  0  0  0  0
 19  7  1  0  0  0  0
 20 17  1  0  0  0  0
 20  5  1  0  0  0  0
 21 28  2  0  0  0  0
 22 30  1  0  0  0  0
 23 21  1  0  0  0  0
 24 27  1  0  0  0  0
 25 16  1  0  0  0  0
 26 21  1  0  0  0  0
 27 25  2  0  0  0  0
 28 25  1  0  0  0  0
 28 29  1  0  0  0  0
 30 26  1  0  0  0  0
 30 24  2  0  0  0  0
 31 32  1  0  0  0  0
 31  1  1  0  0  0  0
M  END
>  <MODEL>
5

>  <REMARK>
 VINA RESULT:      -4.1      1.981      4.351
  Name = 
  2 active torsions:
  status: ('A' for Active; 'I' for Inactive)
    1  A    between atoms: N_1  and  O_4
    2  A    between atoms: C_16  and  C_27
                            x       y       z     vdW  Elec       q    Type
                         _______ _______ _______ _____ _____    ______ ____

>  <TORSDO>
F 2

$$$$
=
 OpenBabel11062408243D

 32 37  0  0  1  0  0  0  0  0999 V2000
  160.8070  206.7820  151.9340 N   0  0  0  0  0  0  0  0  0  0  0  0
  161.1980  209.1730  151.8870 C   0  0  0  0  0  0  0  0  0  0  0  0
  160.9750  208.0490  152.6180 C   0  0  0  0  0  0  0  0  0  0  0  0
  161.2330  210.5390  152.5210 C   0  0  0  0  0  0  0  0  0  0  0  0
  161.9970  211.2320  147.5110 C   0  0  0  0  0  3  0  0  0  0  0  0
  161.3220  209.0830  150.4100 C   0  0  0  0  0  0  0  0  0  0  0  0
  162.0050  212.5790  149.5160 C   0  0  0  0  0  3  0  0  0  0  0  0
  161.7120  211.4520  150.2930 C   0  0  0  0  0  0  0  0  0  0  0  0
  159.3840  210.1340  154.1450 C   0  0  0  0  0  0  0  0  0  0  0  0
  160.9080  207.9870  154.1460 C   0  0  2  0  0  3  0  0  0  0  0  0
  161.5810  211.6010  151.5770 N   0  0  0  0  0  0  0  0  0  0  0  0
  160.0840  209.0250  154.9160 C   0  0  1  0  0  3  0  0  0  0  0  0
  161.6070  209.1090  154.9010 C   0  0  0  0  0  2  0  0  0  0  0  0
  161.2240  207.7560  149.7770 C   0  0  0  0  0  3  0  0  0  0  0  0
  158.1390  210.4740  154.5630 F   0  0  0  0  0  0  0  0  0  0  0  0
  160.9950  206.6640  150.5060 C   0  0  0  0  0  0  0  0  0  0  0  0
  161.5690  210.1860  149.6730 C   0  0  0  0  0  0  0  0  0  0  0  0
  159.8960  210.8270  153.1170 C   0  0  0  0  0  3  0  0  0  0  0  0
  162.1450  212.4720  148.1330 C   0  0  0  0  0  3  0  0  0  0  0  0
  161.7120  210.0990  148.2760 C   0  0  0  0  0  2  0  0  0  0  0  0
  161.5720  204.2430  147.6710 C   0  0  0  0  0  0  0  0  0  0  0  0
  161.0970  200.8450  149.0130 C   0  0  0  0  0  1  0  0  0  0  0  0
  161.8080  204.3530  146.1990 C   0  0  0  0  0  1  0  0  0  0  0  0
  160.6280  202.8670  150.2450 C   0  0  0  0  0  3  0  0  0  0  0  0
  160.9330  205.3380  149.8400 C   0  0  0  0  0  0  0  0  0  0  0  0
  161.9600  203.0370  148.2600 O   0  0  0  0  0  0  0  0  0  0  0  0
  160.6940  204.2790  150.6220 C   0  0  0  0  0  3  0  0  0  0  0  0
  161.0380  205.2770  148.3550 C   0  0  0  0  0  0  0  0  0  0  0  0
  160.5900  206.4940  147.5980 C   0  0  0  0  0  1  0  0  0  0  0  0
  161.2050  202.3170  149.1840 C   0  0  0  0  0  0  0  0  0  0  0  0
  160.4940  205.6730  152.6580 O   0  0  0  0  0  0  0  0  0  0  0  0
  161.5870  205.4540  153.5050 C   0  0  0  0  0  1  0  0  0  0  0  0
  1  3  1  0  0  0  0
  1 31  1  0  0  0  0
  2  4  1  0  0  0  0
  2  3  2  0  0  0  0
  3 10  1  0  0  0  0
  4 18  1  0  0  0  0
  5 19  2  0  0  0  0
  5 20  1  0  0  0  0
  6  2  1  0  0  0  0
  7  8  2  0  0  0  0
  8 11  1  0  0  0  0
  9 15  1  0  0  0  0
  9 12  1  0  0  0  0
 10 13  1  1  0  0  0
 10 12  1  0  0  0  0
 11  4  2  0  0  0  0
 12 13  1  1  0  0  0
 14  6  1  0  0  0  0
 14 16  2  0  0  0  0
 16  1  1  0  0  0  0
 17  8  1  0  0  0  0
 17  6  2  0  0  0  0
 18  9  2  0  0  0  0
 19  7  1  0  0  0  0
 20 17  1  0  0  0  0
 21 26  1  0  0  0  0
 21 28  2  0  0  0  0
 22 30  1  0  0  0  0
 23 21  1  0  0  0  0
 24 27  1  0  0  0  0
 25 16  1  0  0  0  0
 25 27  2  0  0  0  0
 26 30  1  0  0  0  0
 28 25  1  0  0  0  0
 29 28  1  0  0  0  0
 30 24  2  0  0  0  0
 31 32  1  0  0  0  0
M  END
>  <MODEL>
6

>  <REMARK>
 VINA RESULT:      -3.9      4.251      7.528
  Name = 
  2 active torsions:
  status: ('A' for Active; 'I' for Inactive)
    1  A    between atoms: N_1  and  O_4
    2  A    between atoms: C_16  and  C_27
                            x       y       z     vdW  Elec       q    Type
                         _______ _______ _______ _____ _____    ______ ____

>  <TORSDO>
F 2

$$$$
=
 OpenBabel11062408243D

 32 37  0  0  1  0  0  0  0  0999 V2000
  160.8320  204.2950  150.5290 N   0  0  0  0  0  0  0  0  0  0  0  0
  160.6220  203.4440  148.2700 C   0  0  0  0  0  0  0  0  0  0  0  0
  160.5160  203.2220  149.6080 C   0  0  0  0  0  0  0  0  0  0  0  0
  160.4540  202.3340  147.2650 C   0  0  1  0  0  3  0  0  0  0  0  0
  161.4840  206.5780  144.6010 C   0  0  0  0  0  3  0  0  0  0  0  0
  161.0030  204.7900  147.7710 C   0  0  0  0  0  0  0  0  0  0  0  0
  160.8730  204.2880  144.1350 C   0  0  0  0  0  3  0  0  0  0  0  0
  160.8180  204.0080  145.5060 C   0  0  0  0  0  0  0  0  0  0  0  0
  161.6130  200.5770  148.6030 C   0  0  0  0  0  0  0  0  0  0  0  0
  160.0550  201.9120  150.2520 C   0  0  2  0  0  3  0  0  0  0  0  0
  160.5120  202.8010  145.8800 N   0  0  0  0  0  0  0  0  0  0  0  0
  160.6290  200.5780  149.7620 C   0  0  1  0  0  3  0  0  0  0  0  0
  159.2090  200.9910  149.3840 C   0  0  0  0  0  2  0  0  0  0  0  0
  161.2320  205.8640  148.7540 C   0  0  0  0  0  3  0  0  0  0  0  0
  162.6590  199.7180  148.6930 F   0  0  0  0  0  0  0  0  0  0  0  0
  161.1340  205.6280  150.0620 C   0  0  0  0  0  0  0  0  0  0  0  0
  161.0880  205.0320  146.4470 C   0  0  0  0  0  0  0  0  0  0  0  0
  161.5240  201.3190  147.4880 C   0  0  0  0  0  3  0  0  0  0  0  0
  161.2060  205.5650  143.6840 C   0  0  0  0  0  3  0  0  0  0  0  0
  161.4230  206.3140  145.9710 C   0  0  0  0  0  3  0  0  0  0  0  0
  161.5530  209.2440  151.0540 C   0  0  0  0  0  0  0  0  0  0  0  0
  161.1090  209.4410  154.7060 C   0  0  0  0  0  1  0  0  0  0  0  0
  161.9560  210.5060  150.3610 C   0  0  0  0  0  1  0  0  0  0  0  0
  161.2160  207.3750  153.4620 C   0  0  0  0  0  3  0  0  0  0  0  0
  161.3400  206.7410  151.0240 C   0  0  0  0  0  0  0  0  0  0  0  0
  160.8440  209.4070  152.2470 O   0  0  0  0  0  0  0  0  0  0  0  0
  161.1340  206.4680  152.3180 C   0  0  0  0  0  3  0  0  0  0  0  0
  161.8520  208.0440  150.5140 C   0  0  0  0  0  0  0  0  0  0  0  0
  162.6850  207.9970  149.2650 C   0  0  0  0  0  1  0  0  0  0  0  0
  161.0790  208.6950  153.4210 C   0  0  0  0  0  0  0  0  0  0  0  0
  160.8130  204.0470  151.8670 O   0  0  0  0  0  0  0  0  0  0  0  0
  161.8600  203.1460  152.1000 C   0  0  0  0  0  1  0  0  0  0  0  0
  1 31  1  0  0  0  0
  2  3  2  0  0  0  0
  3 10  1  0  0  0  0
  3  1  1  0  0  0  0
  4 18  1  6  0  0  0
  4  2  1  0  0  0  0
  5 20  2  0  0  0  0
  6  2  1  0  0  0  0
  6 14  1  0  0  0  0
  7  8  1  0  0  0  0
  8 11  2  0  0  0  0
  8 17  1  0  0  0  0
  9 15  1  0  0  0  0
  9 12  1  0  0  0  0
 10 13  1  6  0  0  0
 11  4  1  0  0  0  0
 12 13  1  6  0  0  0
 12 10  1  0  0  0  0
 14 16  2  0  0  0  0
 16  1  1  0  0  0  0
 16 25  1  0  0  0  0
 17  6  2  0  0  0  0
 18  9  2  0  0  0  0
 19  7  2  0  0  0  0
 19  5  1  0  0  0  0
 20 17  1  0  0  0  0
 21 26  1  0  0  0  0
 23 21  1  0  0  0  0
 25 27  2  0  0  0  0
 26 30  1  0  0  0  0
 27 24  1  0  0  0  0
 28 25  1  0  0  0  0
 28 21  2  0  0  0  0
 29 28  1  0  0  0  0
 30 24  2  0  0  0  0
 30 22  1  0  0  0  0
 31 32  1  0  0  0  0
M  END
>  <MODEL>
7

>  <REMARK>
 VINA RESULT:      -3.5      6.559     10.094
  Name = 
  2 active torsions:
  status: ('A' for Active; 'I' for Inactive)
    1  A    between atoms: N_1  and  O_4
    2  A    between atoms: C_16  and  C_27
                            x       y       z     vdW  Elec       q    Type
                         _______ _______ _______ _____ _____    ______ ____

>  <TORSDO>
F 2

$$$$
=
 OpenBabel11062408243D

 32 37  0  0  1  0  0  0  0  0999 V2000
  161.3000  208.1150  150.4910 N   0  0  0  0  0  0  0  0  0  0  0  0
  161.4770  205.8870  149.5540 C   0  0  0  0  0  0  0  0  0  0  0  0
  161.6380  207.2280  149.3950 C   0  0  0  0  0  0  0  0  0  0  0  0
  161.6660  204.9240  148.4110 C   0  0  1  0  0  3  0  0  0  0  0  0
  160.3360  202.1230  152.4790 C   0  0  0  0  0  3  0  0  0  0  0  0
  161.0120  205.3460  150.8570 C   0  0  0  0  0  0  0  0  0  0  0  0
  161.0450  201.7320  150.2040 C   0  0  0  0  0  3  0  0  0  0  0  0
  161.1600  203.1110  149.9870 C   0  0  0  0  0  0  0  0  0  0  0  0
  160.6430  206.3740  146.6590 C   0  0  0  0  0  0  0  0  0  0  0  0
  162.1860  207.9100  148.1390 C   0  0  2  0  0  3  0  0  0  0  0  0
  161.5390  203.5240  148.8140 N   0  0  0  0  0  0  0  0  0  0  0  0
  161.6650  207.4970  146.7580 C   0  0  1  0  0  3  0  0  0  0  0  0
  163.0480  207.0520  147.2230 C   0  0  0  0  0  2  0  0  0  0  0  0
  160.7630  206.2900  151.9600 C   0  0  0  0  0  3  0  0  0  0  0  0
  159.6450  206.5380  145.7550 F   0  0  0  0  0  0  0  0  0  0  0  0
  160.9160  207.6030  151.7860 C   0  0  0  0  0  0  0  0  0  0  0  0
  160.8710  204.0170  151.0360 C   0  0  0  0  0  0  0  0  0  0  0  0
  160.6570  205.2270  147.3550 C   0  0  0  0  0  3  0  0  0  0  0  0
  160.6330  201.2400  151.4420 C   0  0  0  0  0  3  0  0  0  0  0  0
  160.4550  203.5000  152.2780 C   0  0  0  0  0  3  0  0  0  0  0  0
  161.4100  208.8520  155.3120 C   0  0  0  0  0  0  0  0  0  0  0  0
  160.0530  212.2740  155.4670 C   0  0  0  0  0  1  0  0  0  0  0  0
  161.8850  208.2620  156.6010 C   0  0  0  0  0  1  0  0  0  0  0  0
  159.8260  210.8100  153.5610 C   0  0  0  0  0  3  0  0  0  0  0  0
  160.6860  208.5240  152.9280 C   0  0  0  0  0  0  0  0  0  0  0  0
  161.4500  210.2460  155.2310 O   0  0  0  0  0  0  0  0  0  0  0  0
  160.1200  209.7050  152.6490 C   0  0  0  0  0  3  0  0  0  0  0  0
  161.0010  208.0510  154.3050 C   0  0  0  0  0  0  0  0  0  0  0  0
  160.9310  206.5690  154.5400 C   0  0  0  0  0  1  0  0  0  0  0  0
  160.4330  211.0480  154.7170 C   0  0  0  0  0  0  0  0  0  0  0  0
  161.3760  209.4600  150.3030 O   0  0  0  0  0  0  0  0  0  0  0  0
  162.6200  209.8450  150.8180 C   0  0  0  0  0  1  0  0  0  0  0  0
  1 16  1  0  0  0  0
  2  6  1  0  0  0  0
  3  2  2  0  0  0  0
  3  1  1  0  0  0  0
  4 18  1  6  0  0  0
  4 11  1  0  0  0  0
  4  2  1  0  0  0  0
  6 17  2  0  0  0  0
  6 14  1  0  0  0  0
  7 19  2  0  0  0  0
  8  7  1  0  0  0  0
  8 17  1  0  0  0  0
  9 12  1  0  0  0  0
  9 18  2  0  0  0  0
 10 13  1  6  0  0  0
 10  3  1  0  0  0  0
 11  8  2  0  0  0  0
 12 13  1  6  0  0  0
 12 10  1  0  0  0  0
 15  9  1  0  0  0  0
 16 14  2  0  0  0  0
 16 25  1  0  0  0  0
 17 20  1  0  0  0  0
 19  5  1  0  0  0  0
 20  5  2  0  0  0  0
 21 23  1  0  0  0  0
 24 30  2  0  0  0  0
 25 28  1  0  0  0  0
 26 21  1  0  0  0  0
 27 25  2  0  0  0  0
 27 24  1  0  0  0  0
 28 29  1  0  0  0  0
 28 21  2  0  0  0  0
 30 26  1  0  0  0  0
 30 22  1  0  0  0  0
 31  1  1  0  0  0  0
 31 32  1  0  0  0  0
M  END
>  <MODEL>
8

>  <REMARK>
 VINA RESULT:      -3.5      4.720      8.427
  Name = 
  2 active torsions:
  status: ('A' for Active; 'I' for Inactive)
    1  A    between atoms: N_1  and  O_4
    2  A    between atoms: C_16  and  C_27
                            x       y       z     vdW  Elec       q    Type
                         _______ _______ _______ _____ _____    ______ ____

>  <TORSDO>
F 2

$$$$
=
 OpenBabel11062408243D

 32 37  0  0  1  0  0  0  0  0999 V2000
  160.2850  208.7510  153.5620 N   0  0  0  0  0  0  0  0  0  0  0  0
  161.1830  208.6440  151.3140 C   0  0  0  0  0  0  0  0  0  0  0  0
  160.7570  207.9860  152.4260 C   0  0  0  0  0  0  0  0  0  0  0  0
  161.8220  207.9190  150.1590 C   0  0  1  0  0  3  0  0  0  0  0  0
  161.7940  212.8850  148.9350 C   0  0  0  0  0  3  0  0  0  0  0  0
  161.1090  210.1260  151.2580 C   0  0  0  0  0  0  0  0  0  0  0  0
  162.3720  210.7940  147.8740 C   0  0  0  0  0  3  0  0  0  0  0  0
  162.0020  210.0900  149.0260 C   0  0  0  0  0  0  0  0  0  0  0  0
  163.1090  206.2880  151.5380 C   0  0  0  0  0  0  0  0  0  0  0  0
  160.7000  206.4650  152.5850 C   0  0  2  0  0  3  0  0  0  0  0  0
  162.1220  208.7950  149.0270 N   0  0  0  0  0  0  0  0  0  0  0  0
  161.8990  205.6080  152.1600 C   0  0  1  0  0  3  0  0  0  0  0  0
  160.6400  205.6500  151.3000 C   0  0  0  0  0  2  0  0  0  0  0  0
  160.5440  210.8450  152.4130 C   0  0  0  0  0  3  0  0  0  0  0  0
  164.3280  205.8200  151.9100 F   0  0  0  0  0  0  0  0  0  0  0  0
  160.1400  210.1870  153.4990 C   0  0  0  0  0  0  0  0  0  0  0  0
  161.5060  210.7910  150.1530 C   0  0  0  0  0  0  0  0  0  0  0  0
  163.0830  207.2770  150.6330 C   0  0  0  0  0  3  0  0  0  0  0  0
  162.2710  212.1840  147.8280 C   0  0  0  0  0  3  0  0  0  0  0  0
  161.4130  212.1940  150.0860 C   0  0  0  0  0  3  0  0  0  0  0  0
  160.1990  212.6350  156.3680 C   0  0  0  0  0  0  0  0  0  0  0  0
  156.7000  213.3700  157.2600 C   0  0  0  0  0  1  0  0  0  0  0  0
  161.2520  213.2340  157.2460 C   0  0  0  0  0  1  0  0  0  0  0  0
  157.3690  211.6840  155.6680 C   0  0  0  0  0  3  0  0  0  0  0  0
  159.5460  210.9410  154.6330 C   0  0  0  0  0  0  0  0  0  0  0  0
  158.9870  213.3280  156.3170 O   0  0  0  0  0  0  0  0  0  0  0  0
  158.2100  210.9830  154.6980 C   0  0  0  0  0  3  0  0  0  0  0  0
  160.4530  211.5100  155.6680 C   0  0  0  0  0  0  0  0  0  0  0  0
  161.7700  210.8140  155.8660 C   0  0  0  0  0  1  0  0  0  0  0  0
  157.7250  212.7410  156.3870 C   0  0  0  0  0  0  0  0  0  0  0  0
  159.9430  208.0980  154.7060 O   0  0  0  0  0  0  0  0  0  0  0  0
  161.1530  207.7170  155.3000 C   0  0  0  0  0  1  0  0  0  0  0  0
  1 31  1  0  0  0  0
  2  3  2  0  0  0  0
  3 10  1  0  0  0  0
  3  1  1  0  0  0  0
  4 18  1  1  0  0  0
  4  2  1  0  0  0  0
  5 20  2  0  0  0  0
  6  2  1  0  0  0  0
  6 14  1  0  0  0  0
  7  8  1  0  0  0  0
  8 11  2  0  0  0  0
  8 17  1  0  0  0  0
  9 15  1  0  0  0  0
  9 12  1  0  0  0  0
 10 13  1  6  0  0  0
 11  4  1  0  0  0  0
 12 13  1  6  0  0  0
 12 10  1  0  0  0  0
 14 16  2  0  0  0  0
 16  1  1  0  0  0  0
 16 25  1  0  0  0  0
 17  6  2  0  0  0  0
 18  9  2  0  0  0  0
 19  7  2  0  0  0  0
 19  5  1  0  0  0  0
 20 17  1  0  0  0  0
 21 23  1  0  0  0  0
 24 30  2  0  0  0  0
 25 27  2  0  0  0  0
 25 28  1  0  0  0  0
 26 21  1  0  0  0  0
 26 30  1  0  0  0  0
 27 24  1  0  0  0  0
 28 29  1  0  0  0  0
 28 21  2  0  0  0  0
 30 22  1  0  0  0  0
 31 32  1  0  0  0  0
M  END
>  <MODEL>
9

>  <REMARK>
 VINA RESULT:      -3.5      3.517      7.116
  Name = 
  2 active torsions:
  status: ('A' for Active; 'I' for Inactive)
    1  A    between atoms: N_1  and  O_4
    2  A    between atoms: C_16  and  C_27
                            x       y       z     vdW  Elec       q    Type
                         _______ _______ _______ _____ _____    ______ ____

>  <TORSDO>
F 2

$$$$
