=
 OpenBabel11052423053D

 27 31  0  0  1  0  0  0  0  0999 V2000
  159.6340  210.8540  153.1010 N   0  0  0  0  0  2  0  0  0  0  0  0
  161.3310  209.4720  152.0270 C   0  0  0  0  0  0  0  0  0  0  0  0
  161.2460  208.8530  154.4110 N   0  0  0  0  0  2  0  0  0  0  0  0
  162.1700  205.5120  151.0610 N   0  0  0  0  0  0  0  0  0  0  0  0
  161.0010  203.6490  152.1190 C   0  0  0  0  0  1  0  0  0  0  0  0
  161.4950  209.0370  150.6050 C   0  0  0  0  0  3  0  0  0  0  0  0
  161.2810  206.0580  153.0880 C   0  0  2  0  0  3  0  0  0  0  0  0
  161.9880  211.2300  156.7620 C   0  0  0  0  0  2  0  0  0  0  0  0
  160.3210  205.9390  154.2260 C   0  0  0  0  0  1  0  0  0  0  0  0
  161.0820  212.3620  157.2600 C   0  0  0  0  0  2  0  0  0  0  0  0
  161.8200  207.1780  152.6320 C   0  0  1  0  0  3  0  0  0  0  0  0
  160.8790  210.8840  152.3360 C   0  0  1  0  0  3  0  0  0  0  0  0
  161.5230  205.0410  152.0770 C   0  0  0  0  0  0  0  0  0  0  0  0
  162.5090  206.9040  151.3360 C   0  0  2  0  0  3  0  0  0  0  0  0
  159.9000  210.9360  154.5410 C   0  0  2  0  0  3  0  0  0  0  0  0
  161.4720  208.5560  153.0210 C   0  0  0  0  0  0  0  0  0  0  0  0
  161.2380  210.1130  156.3790 O   0  0  0  0  0  0  0  0  0  0  0  0
  161.9920  207.8350  150.2760 C   0  0  0  0  0  3  0  0  0  0  0  0
  159.7570  212.4920  156.4990 C   0  0  0  0  0  2  0  0  0  0  0  0
  159.9240  212.3970  154.9860 C   0  0  0  0  0  2  0  0  0  0  0  0
  161.1800  210.1930  154.9820 C   0  0  1  0  0  3  0  0  0  0  0  0
  160.4970  213.5020  148.9430 C   0  0  0  0  0  3  0  0  0  0  0  0
  160.7500  211.7810  151.1390 C   0  0  0  0  0  0  0  0  0  0  0  0
  159.7810  212.7910  151.1440 C   0  0  0  0  0  3  0  0  0  0  0  0
  159.6530  213.6490  150.0480 C   0  0  0  0  0  3  0  0  0  0  0  0
  161.4700  212.4990  148.9340 C   0  0  0  0  0  3  0  0  0  0  0  0
  161.5980  211.6400  150.0290 C   0  0  0  0  0  3  0  0  0  0  0  0
  1 15  1  0  0  0  0
  2 12  1  0  0  0  0
  2 16  2  0  0  0  0
  4 14  1  0  0  0  0
  4 13  2  0  0  0  0
  6  2  1  0  0  0  0
  7  9  1  6  0  0  0
  8 10  1  0  0  0  0
 11 16  1  6  0  0  0
 11  7  1  0  0  0  0
 12 23  1  6  0  0  0
 12  1  1  0  0  0  0
 13  5  1  0  0  0  0
 13  7  1  0  0  0  0
 14 18  1  6  0  0  0
 14 11  1  0  0  0  0
 15 21  1  0  0  0  0
 15 20  1  6  0  0  0
 16  3  1  0  0  0  0
 17  8  1  0  0  0  0
 18  6  2  0  0  0  0
 19 10  1  0  0  0  0
 20 19  1  0  0  0  0
 21  3  1  6  0  0  0
 21 17  1  0  0  0  0
 22 25  1  0  0  0  0
 23 24  1  0  0  0  0
 25 24  2  0  0  0  0
 26 22  2  0  0  0  0
 26 27  1  0  0  0  0
 27 23  2  0  0  0  0
M  END
>  <MODEL>
1

>  <REMARK>
 VINA RESULT:      -6.0      0.000      0.000
  Name = 
  1 active torsions:
  status: ('A' for Active; 'I' for Inactive)
    1  A    between atoms: C_9  and  C_15
                            x       y       z     vdW  Elec       q    Type
                         _______ _______ _______ _____ _____    ______ ____

>  <TORSDO>
F 1

$$$$
=
 OpenBabel11052423053D

 27 31  0  0  1  0  0  0  0  0999 V2000
  162.6680  209.3590  150.1000 N   0  0  0  0  0  2  0  0  0  0  0  0
  160.9250  210.2980  151.5210 C   0  0  0  0  0  0  0  0  0  0  0  0
  160.8490  207.8450  151.7470 N   0  0  0  0  0  2  0  0  0  0  0  0
  159.8340  210.6680  155.5200 N   0  0  0  0  0  0  0  0  0  0  0  0
  160.8080  209.2600  157.2600 C   0  0  0  0  0  1  0  0  0  0  0  0
  160.7950  211.6390  152.1700 C   0  0  0  0  0  3  0  0  0  0  0  0
  160.6650  208.7050  154.7120 C   0  0  2  0  0  3  0  0  0  0  0  0
  160.1790  205.9500  148.9740 C   0  0  0  0  0  2  0  0  0  0  0  0
  161.5580  207.5090  154.7080 C   0  0  0  0  0  1  0  0  0  0  0  0
  161.1430  205.5870  147.8400 C   0  0  0  0  0  2  0  0  0  0  0  0
  160.2350  209.3650  153.6480 C   0  0  1  0  0  3  0  0  0  0  0  0
  161.4660  210.1920  150.1110 C   0  0  1  0  0  3  0  0  0  0  0  0
  160.3950  209.5540  155.8610 C   0  0  0  0  0  0  0  0  0  0  0  0
  159.5890  210.6390  154.0830 C   0  0  2  0  0  3  0  0  0  0  0  0
  162.3410  207.9680  149.7660 C   0  0  2  0  0  3  0  0  0  0  0  0
  160.6670  209.1810  152.2510 C   0  0  0  0  0  0  0  0  0  0  0  0
  160.8590  206.1060  150.1870 O   0  0  0  0  0  0  0  0  0  0  0  0
  160.2240  211.8020  153.3740 C   0  0  0  0  0  3  0  0  0  0  0  0
  162.5080  206.2780  147.9250 C   0  0  0  0  0  2  0  0  0  0  0  0
  162.4070  207.7640  148.2540 C   0  0  0  0  0  2  0  0  0  0  0  0
  160.9890  207.4920  150.3400 C   0  0  1  0  0  3  0  0  0  0  0  0
  162.2120  213.9290  148.1150 C   0  0  0  0  0  3  0  0  0  0  0  0
  161.7200  211.5070  149.4320 C   0  0  0  0  0  0  0  0  0  0  0  0
  162.8340  211.6390  148.5960 C   0  0  0  0  0  3  0  0  0  0  0  0
  163.0820  212.8490  147.9400 C   0  0  0  0  0  3  0  0  0  0  0  0
  161.0950  213.8010  148.9450 C   0  0  0  0  0  3  0  0  0  0  0  0
  160.8480  212.5930  149.6010 C   0  0  0  0  0  3  0  0  0  0  0  0
  1 12  1  0  0  0  0
  2  6  1  0  0  0  0
  2 16  2  0  0  0  0
  3 16  1  0  0  0  0
  4 13  2  0  0  0  0
  6 18  2  0  0  0  0
  7  9  1  6  0  0  0
  7 13  1  0  0  0  0
  8 17  1  0  0  0  0
 10 19  1  0  0  0  0
 10  8  1  0  0  0  0
 11 16  1  6  0  0  0
 11 14  1  0  0  0  0
 11  7  1  0  0  0  0
 12 23  1  1  0  0  0
 12  2  1  0  0  0  0
 13  5  1  0  0  0  0
 14 18  1  6  0  0  0
 14  4  1  0  0  0  0
 15 20  1  6  0  0  0
 15  1  1  0  0  0  0
 15 21  1  0  0  0  0
 19 20  1  0  0  0  0
 21 17  1  1  0  0  0
 21  3  1  0  0  0  0
 22 26  1  0  0  0  0
 23 27  1  0  0  0  0
 24 23  2  0  0  0  0
 25 22  2  0  0  0  0
 25 24  1  0  0  0  0
 26 27  2  0  0  0  0
M  END
>  <MODEL>
2

>  <REMARK>
 VINA RESULT:      -5.9      2.437      5.641
  Name = 
  1 active torsions:
  status: ('A' for Active; 'I' for Inactive)
    1  A    between atoms: C_9  and  C_15
                            x       y       z     vdW  Elec       q    Type
                         _______ _______ _______ _____ _____    ______ ____

>  <TORSDO>
F 1

$$$$
=
 OpenBabel11052423053D

 27 31  0  0  1  0  0  0  0  0999 V2000
  158.7370  211.6130  153.1360 N   0  0  0  0  0  2  0  0  0  0  0  0
  160.6920  210.5120  152.1840 C   0  0  0  0  0  0  0  0  0  0  0  0
  160.6250  209.9900  154.5910 N   0  0  0  0  0  2  0  0  0  0  0  0
  162.2560  206.7290  151.4380 N   0  0  0  0  0  0  0  0  0  0  0  0
  161.3950  204.7330  152.5500 C   0  0  0  0  0  1  0  0  0  0  0  0
  160.9860  210.0530  150.7900 C   0  0  0  0  0  3  0  0  0  0  0  0
  161.2060  207.1920  153.4080 C   0  0  2  0  0  3  0  0  0  0  0  0
  160.8420  212.5590  156.8460 C   0  0  0  0  0  2  0  0  0  0  0  0
  160.2400  206.9520  154.5200 C   0  0  0  0  0  1  0  0  0  0  0  0
  159.7320  213.5300  157.2590 C   0  0  0  0  0  2  0  0  0  0  0  0
  161.5560  208.3700  152.9140 C   0  0  1  0  0  3  0  0  0  0  0  0
  159.9860  211.8330  152.4090 C   0  0  1  0  0  3  0  0  0  0  0  0
  161.6640  206.1930  152.4560 C   0  0  0  0  0  0  0  0  0  0  0  0
  162.3320  208.1690  151.6550 C   0  0  2  0  0  3  0  0  0  0  0  0
  158.9280  211.8020  154.5790 C   0  0  2  0  0  3  0  0  0  0  0  0
  160.9540  209.6790  153.2250 C   0  0  0  0  0  0  0  0  0  0  0  0
  160.3180  211.3100  156.4940 O   0  0  0  0  0  0  0  0  0  0  0  0
  161.7010  208.9470  150.5350 C   0  0  0  0  0  3  0  0  0  0  0  0
  158.4360  213.3890  156.4530 C   0  0  0  0  0  2  0  0  0  0  0  0
  158.6750  213.2610  154.9520 C   0  0  0  0  0  2  0  0  0  0  0  0
  160.3010  211.3190  155.0940 C   0  0  1  0  0  3  0  0  0  0  0  0
  159.2530  214.1770  148.8770 C   0  0  0  0  0  3  0  0  0  0  0  0
  159.7460  212.6400  151.1660 C   0  0  0  0  0  0  0  0  0  0  0  0
  158.4340  212.9650  150.8070 C   0  0  0  0  0  3  0  0  0  0  0  0
  158.1870  213.7310  149.6630 C   0  0  0  0  0  3  0  0  0  0  0  0
  160.5670  213.8600  149.2340 C   0  0  0  0  0  3  0  0  0  0  0  0
  160.8140  213.0940  150.3770 C   0  0  0  0  0  3  0  0  0  0  0  0
  1 15  1  0  0  0  0
  2 12  1  0  0  0  0
  2 16  2  0  0  0  0
  4 14  1  0  0  0  0
  4 13  2  0  0  0  0
  6  2  1  0  0  0  0
  7  9  1  6  0  0  0
  8 10  1  0  0  0  0
 11 16  1  6  0  0  0
 11  7  1  0  0  0  0
 12 23  1  6  0  0  0
 12  1  1  0  0  0  0
 13  5  1  0  0  0  0
 13  7  1  0  0  0  0
 14 18  1  6  0  0  0
 14 11  1  0  0  0  0
 15 20  1  6  0  0  0
 15 21  1  0  0  0  0
 16  3  1  0  0  0  0
 17  8  1  0  0  0  0
 18  6  2  0  0  0  0
 19 10  1  0  0  0  0
 20 19  1  0  0  0  0
 21  3  1  6  0  0  0
 21 17  1  0  0  0  0
 22 26  2  0  0  0  0
 22 25  1  0  0  0  0
 24 23  1  0  0  0  0
 25 24  2  0  0  0  0
 26 27  1  0  0  0  0
 27 23  2  0  0  0  0
M  END
>  <MODEL>
3

>  <REMARK>
 VINA RESULT:      -5.7      1.126      1.386
  Name = 
  1 active torsions:
  status: ('A' for Active; 'I' for Inactive)
    1  A    between atoms: C_9  and  C_15
                            x       y       z     vdW  Elec       q    Type
                         _______ _______ _______ _____ _____    ______ ____

>  <TORSDO>
F 1

$$$$
=
 OpenBabel11052423053D

 27 31  0  0  1  0  0  0  0  0999 V2000
  160.0810  212.5570  154.8400 N   0  0  0  0  0  2  0  0  0  0  0  0
  160.4850  211.1620  152.8820 C   0  0  0  0  0  0  0  0  0  0  0  0
  158.9000  212.9350  152.2350 N   0  0  0  0  0  2  0  0  0  0  0  0
  162.1500  211.3050  149.0710 N   0  0  0  0  0  0  0  0  0  0  0  0
  162.5970  213.4190  147.9350 C   0  0  0  0  0  1  0  0  0  0  0  0
  161.6470  210.2970  152.5090 C   0  0  0  0  0  3  0  0  0  0  0  0
  160.8680  213.0210  149.8510 C   0  0  2  0  0  3  0  0  0  0  0  0
  155.8670  213.0980  153.8180 C   0  0  0  0  0  2  0  0  0  0  0  0
  160.5400  214.4480  150.1370 C   0  0  0  0  0  1  0  0  0  0  0  0
  155.5750  213.6620  155.2130 C   0  0  0  0  0  2  0  0  0  0  0  0
  160.5480  211.9770  150.6020 C   0  0  1  0  0  3  0  0  0  0  0  0
  159.9990  211.1950  154.3160 C   0  0  1  0  0  3  0  0  0  0  0  0
  161.8710  212.5560  148.9060 C   0  0  0  0  0  0  0  0  0  0  0  0
  161.2780  210.7710  150.1110 C   0  0  2  0  0  3  0  0  0  0  0  0
  158.7970  213.2530  154.6960 C   0  0  2  0  0  3  0  0  0  0  0  0
  159.9570  212.0000  151.9520 C   0  0  0  0  0  0  0  0  0  0  0  0
  156.9480  213.7570  153.2220 O   0  0  0  0  0  0  0  0  0  0  0  0
  162.0510  210.1480  151.2380 C   0  0  0  0  0  3  0  0  0  0  0  0
  156.8230  214.0630  156.0070 C   0  0  0  0  0  2  0  0  0  0  0  0
  157.9370  213.0240  155.9370 C   0  0  0  0  0  2  0  0  0  0  0  0
  158.0320  212.8890  153.4050 C   0  0  1  0  0  3  0  0  0  0  0  0
  161.9710  208.4660  156.9950 C   0  0  0  0  0  3  0  0  0  0  0  0
  160.6850  210.2270  155.2370 C   0  0  0  0  0  0  0  0  0  0  0  0
  161.7880  210.6580  155.9810 C   0  0  0  0  0  3  0  0  0  0  0  0
  162.4320  209.7790  156.8580 C   0  0  0  0  0  3  0  0  0  0  0  0
  160.8660  208.0320  156.2580 C   0  0  0  0  0  3  0  0  0  0  0  0
  160.2230  208.9090  155.3810 C   0  0  0  0  0  3  0  0  0  0  0  0
  2 12  1  0  0  0  0
  4 14  1  0  0  0  0
  5 13  1  0  0  0  0
  6  2  1  0  0  0  0
  7  9  1  1  0  0  0
  7 11  1  0  0  0  0
  8 10  1  0  0  0  0
 10 19  1  0  0  0  0
 11 16  1  1  0  0  0
 12  1  1  0  0  0  0
 12 23  1  1  0  0  0
 13  4  2  0  0  0  0
 13  7  1  0  0  0  0
 14 11  1  0  0  0  0
 14 18  1  1  0  0  0
 15  1  1  0  0  0  0
 15 20  1  1  0  0  0
 16  3  1  0  0  0  0
 16  2  2  0  0  0  0
 17 21  1  0  0  0  0
 17  8  1  0  0  0  0
 18  6  2  0  0  0  0
 20 19  1  0  0  0  0
 21  3  1  6  0  0  0
 21 15  1  0  0  0  0
 23 27  2  0  0  0  0
 23 24  1  0  0  0  0
 24 25  2  0  0  0  0
 25 22  1  0  0  0  0
 26 22  2  0  0  0  0
 27 26  1  0  0  0  0
M  END
>  <MODEL>
4

>  <REMARK>
 VINA RESULT:      -5.4      2.965      6.020
  Name = 
  1 active torsions:
  status: ('A' for Active; 'I' for Inactive)
    1  A    between atoms: C_9  and  C_15
                            x       y       z     vdW  Elec       q    Type
                         _______ _______ _______ _____ _____    ______ ____

>  <TORSDO>
F 1

$$$$
=
 OpenBabel11052423053D

 27 31  0  0  1  0  0  0  0  0999 V2000
  159.8990  210.0020  152.7650 N   0  0  0  0  0  2  0  0  0  0  0  0
  161.4600  208.7420  151.3800 C   0  0  0  0  0  0  0  0  0  0  0  0
  161.3610  207.6570  153.5910 N   0  0  0  0  0  2  0  0  0  0  0  0
  161.9560  205.0100  149.6070 N   0  0  0  0  0  0  0  0  0  0  0  0
  160.6540  203.0660  150.3030 C   0  0  0  0  0  1  0  0  0  0  0  0
  161.5660  208.5950  149.8950 C   0  0  0  0  0  3  0  0  0  0  0  0
  161.1460  205.1970  151.7290 C   0  0  2  0  0  3  0  0  0  0  0  0
  162.3330  209.4390  156.3500 C   0  0  0  0  0  2  0  0  0  0  0  0
  160.1980  204.9230  152.8500 C   0  0  0  0  0  1  0  0  0  0  0  0
  161.5310  210.5120  157.0950 C   0  0  0  0  0  2  0  0  0  0  0  0
  161.7680  206.3420  151.4920 C   0  0  1  0  0  3  0  0  0  0  0  0
  161.1310  210.0920  151.9830 C   0  0  1  0  0  3  0  0  0  0  0  0
  161.2890  204.3930  150.5260 C   0  0  0  0  0  0  0  0  0  0  0  0
  162.4120  206.2860  150.1460 C   0  0  2  0  0  3  0  0  0  0  0  0
  160.1940  209.7670  154.1840 C   0  0  2  0  0  3  0  0  0  0  0  0
  161.5410  207.6340  152.1630 C   0  0  0  0  0  0  0  0  0  0  0  0
  161.4880  208.4850  155.7720 O   0  0  0  0  0  0  0  0  0  0  0  0
  161.9570  207.4510  149.3140 C   0  0  0  0  0  3  0  0  0  0  0  0
  160.2100  210.8960  156.4190 C   0  0  0  0  0  2  0  0  0  0  0  0
  160.3440  211.1000  154.9140 C   0  0  0  0  0  2  0  0  0  0  0  0
  161.4150  208.8530  154.4230 C   0  0  1  0  0  3  0  0  0  0  0  0
  160.9100  213.3690  149.2040 C   0  0  0  0  0  3  0  0  0  0  0  0
  161.0570  211.2220  150.9970 C   0  0  0  0  0  0  0  0  0  0  0  0
  160.1450  212.2600  151.2170 C   0  0  0  0  0  3  0  0  0  0  0  0
  160.0700  213.3320  150.3210 C   0  0  0  0  0  3  0  0  0  0  0  0
  161.8260  212.3370  148.9820 C   0  0  0  0  0  3  0  0  0  0  0  0
  161.9010  211.2660  149.8760 C   0  0  0  0  0  3  0  0  0  0  0  0
  1 15  1  0  0  0  0
  2 12  1  0  0  0  0
  2 16  2  0  0  0  0
  4 14  1  0  0  0  0
  4 13  2  0  0  0  0
  5 13  1  0  0  0  0
  6  2  1  0  0  0  0
  7  9  1  6  0  0  0
  8 10  1  0  0  0  0
 11  7  1  0  0  0  0
 11 16  1  6  0  0  0
 12 23  1  6  0  0  0
 12  1  1  0  0  0  0
 13  7  1  0  0  0  0
 14 18  1  6  0  0  0
 14 11  1  0  0  0  0
 15 21  1  0  0  0  0
 15 20  1  1  0  0  0
 16  3  1  0  0  0  0
 17  8  1  0  0  0  0
 18  6  2  0  0  0  0
 19 10  1  0  0  0  0
 20 19  1  0  0  0  0
 21  3  1  6  0  0  0
 21 17  1  0  0  0  0
 22 25  1  0  0  0  0
 23 24  1  0  0  0  0
 25 24  2  0  0  0  0
 26 22  2  0  0  0  0
 26 27  1  0  0  0  0
 27 23  2  0  0  0  0
M  END
>  <MODEL>
5

>  <REMARK>
 VINA RESULT:      -5.3      1.168      1.320
  Name = 
  1 active torsions:
  status: ('A' for Active; 'I' for Inactive)
    1  A    between atoms: C_9  and  C_15
                            x       y       z     vdW  Elec       q    Type
                         _______ _______ _______ _____ _____    ______ ____

>  <TORSDO>
F 1

$$$$
=
 OpenBabel11052423053D

 27 31  0  0  1  0  0  0  0  0999 V2000
  160.8530  212.0560  140.5760 N   0  0  0  0  0  2  0  0  0  0  0  0
  161.7410  213.5790  142.2590 C   0  0  0  0  0  0  0  0  0  0  0  0
  159.3010  213.4340  142.5780 N   0  0  0  0  0  2  0  0  0  0  0  0
  162.2250  213.9570  146.3750 N   0  0  0  0  0  0  0  0  0  0  0  0
  160.9650  212.5870  147.9550 C   0  0  0  0  0  1  0  0  0  0  0  0
  163.1000  213.6860  142.8750 C   0  0  0  0  0  3  0  0  0  0  0  0
  160.2850  213.1440  145.4960 C   0  0  2  0  0  3  0  0  0  0  0  0
  157.2400  214.4530  140.0400 C   0  0  0  0  0  2  0  0  0  0  0  0
  159.1500  212.1830  145.3690 C   0  0  0  0  0  1  0  0  0  0  0  0
  156.8880  213.6850  138.7620 C   0  0  0  0  0  2  0  0  0  0  0  0
  160.8660  213.8060  144.5060 C   0  0  1  0  0  3  0  0  0  0  0  0
  161.6050  213.2930  140.7780 C   0  0  1  0  0  3  0  0  0  0  0  0
  161.1670  213.2650  146.6460 C   0  0  0  0  0  0  0  0  0  0  0  0
  162.1140  214.4530  145.0080 C   0  0  2  0  0  3  0  0  0  0  0  0
  159.4300  212.3360  140.3550 C   0  0  2  0  0  3  0  0  0  0  0  0
  160.6450  213.6190  143.0610 C   0  0  0  0  0  0  0  0  0  0  0  0
  157.4960  213.5790  141.1020 O   0  0  0  0  0  0  0  0  0  0  0  0
  163.2810  214.0420  144.1560 C   0  0  0  0  0  3  0  0  0  0  0  0
  157.6700  212.3800  138.5730 C   0  0  0  0  0  2  0  0  0  0  0  0
  159.1600  212.5280  138.8640 C   0  0  0  0  0  2  0  0  0  0  0  0
  158.8930  213.5240  141.1820 C   0  0  1  0  0  3  0  0  0  0  0  0
  165.2950  213.1570  138.5700 C   0  0  0  0  0  3  0  0  0  0  0  0
  162.9010  213.2610  140.0200 C   0  0  0  0  0  0  0  0  0  0  0  0
  163.4050  212.0310  139.5830 C   0  0  0  0  0  3  0  0  0  0  0  0
  164.6020  211.9790  138.8600 C   0  0  0  0  0  3  0  0  0  0  0  0
  164.7930  214.3890  138.9990 C   0  0  0  0  0  3  0  0  0  0  0  0
  163.5980  214.4420  139.7220 C   0  0  0  0  0  3  0  0  0  0  0  0
  1 12  1  0  0  0  0
  2  6  1  0  0  0  0
  2 16  2  0  0  0  0
  3 16  1  0  0  0  0
  4 13  2  0  0  0  0
  6 18  2  0  0  0  0
  7  9  1  6  0  0  0
  7 13  1  0  0  0  0
  8 17  1  0  0  0  0
 10  8  1  0  0  0  0
 11 16  1  6  0  0  0
 11 14  1  0  0  0  0
 11  7  1  0  0  0  0
 12 23  1  1  0  0  0
 12  2  1  0  0  0  0
 13  5  1  0  0  0  0
 14 18  1  6  0  0  0
 14  4  1  0  0  0  0
 15 20  1  6  0  0  0
 15  1  1  0  0  0  0
 15 21  1  0  0  0  0
 19 10  1  0  0  0  0
 19 20  1  0  0  0  0
 21 17  1  1  0  0  0
 21  3  1  0  0  0  0
 22 25  2  0  0  0  0
 22 26  1  0  0  0  0
 24 23  2  0  0  0  0
 25 24  1  0  0  0  0
 26 27  2  0  0  0  0
 27 23  1  0  0  0  0
M  END
>  <MODEL>
6

>  <REMARK>
 VINA RESULT:      -5.3      8.747     12.634
  Name = 
  1 active torsions:
  status: ('A' for Active; 'I' for Inactive)
    1  A    between atoms: C_9  and  C_15
                            x       y       z     vdW  Elec       q    Type
                         _______ _______ _______ _____ _____    ______ ____

>  <TORSDO>
F 1

$$$$
=
 OpenBabel11052423053D

 27 31  0  0  1  0  0  0  0  0999 V2000
  158.3430  210.7150  139.7800 N   0  0  0  0  0  2  0  0  0  0  0  0
  160.3420  211.8800  140.5480 C   0  0  0  0  0  0  0  0  0  0  0  0
  158.3830  213.2340  141.1850 N   0  0  0  0  0  2  0  0  0  0  0  0
  162.2690  213.0870  144.0330 N   0  0  0  0  0  0  0  0  0  0  0  0
  161.1110  213.1910  146.1800 C   0  0  0  0  0  1  0  0  0  0  0  0
  161.7070  211.3760  140.8960 C   0  0  0  0  0  3  0  0  0  0  0  0
  160.0100  213.2960  143.8150 C   0  0  2  0  0  3  0  0  0  0  0  0
  156.3440  214.4510  138.7170 C   0  0  0  0  0  2  0  0  0  0  0  0
  158.5860  213.1540  144.2390 C   0  0  0  0  0  1  0  0  0  0  0  0
  155.2730  213.6860  137.9330 C   0  0  0  0  0  2  0  0  0  0  0  0
  160.4720  213.1970  142.5770 C   0  0  1  0  0  3  0  0  0  0  0  0
  159.6090  211.3080  139.3530 C   0  0  1  0  0  3  0  0  0  0  0  0
  161.1660  213.2250  144.6930 C   0  0  0  0  0  0  0  0  0  0  0  0
  161.9630  213.1400  142.6080 C   0  0  2  0  0  3  0  0  0  0  0  0
  157.2390  211.6690  139.6320 C   0  0  2  0  0  3  0  0  0  0  0  0
  159.7280  212.7600  141.3820 C   0  0  0  0  0  0  0  0  0  0  0  0
  156.4900  213.9370  140.0100 O   0  0  0  0  0  0  0  0  0  0  0  0
  162.4430  211.9190  141.8770 C   0  0  0  0  0  3  0  0  0  0  0  0
  155.2350  212.1810  138.2190 C   0  0  0  0  0  2  0  0  0  0  0  0
  156.6190  211.5400  138.2430 C   0  0  0  0  0  2  0  0  0  0  0  0
  157.6330  213.1300  139.9390 C   0  0  1  0  0  3  0  0  0  0  0  0
  161.9400  208.5510  137.0130 C   0  0  0  0  0  3  0  0  0  0  0  0
  160.4050  210.3350  138.5310 C   0  0  0  0  0  0  0  0  0  0  0  0
  161.4880  210.8030  137.7790 C   0  0  0  0  0  3  0  0  0  0  0  0
  162.2540  209.9130  137.0200 C   0  0  0  0  0  3  0  0  0  0  0  0
  160.8620  208.0770  137.7660 C   0  0  0  0  0  3  0  0  0  0  0  0
  160.0960  208.9660  138.5250 C   0  0  0  0  0  3  0  0  0  0  0  0
  2  6  1  0  0  0  0
  2 16  2  0  0  0  0
  3 16  1  0  0  0  0
  4 13  2  0  0  0  0
  6 18  2  0  0  0  0
  7  9  1  1  0  0  0
  7 13  1  0  0  0  0
  8 17  1  0  0  0  0
 10 19  1  0  0  0  0
 10  8  1  0  0  0  0
 11 16  1  1  0  0  0
 11 14  1  0  0  0  0
 11  7  1  0  0  0  0
 12 23  1  1  0  0  0
 12  1  1  0  0  0  0
 12  2  1  0  0  0  0
 13  5  1  0  0  0  0
 14 18  1  6  0  0  0
 14  4  1  0  0  0  0
 15 20  1  6  0  0  0
 15  1  1  0  0  0  0
 15 21  1  0  0  0  0
 19 20  1  0  0  0  0
 21 17  1  1  0  0  0
 21  3  1  0  0  0  0
 22 25  2  0  0  0  0
 22 26  1  0  0  0  0
 24 23  2  0  0  0  0
 25 24  1  0  0  0  0
 26 27  2  0  0  0  0
 27 23  1  0  0  0  0
M  END
>  <MODEL>
7

>  <REMARK>
 VINA RESULT:      -5.2     10.142     13.792
  Name = 
  1 active torsions:
  status: ('A' for Active; 'I' for Inactive)
    1  A    between atoms: C_9  and  C_15
                            x       y       z     vdW  Elec       q    Type
                         _______ _______ _______ _____ _____    ______ ____

>  <TORSDO>
F 1

$$$$
=
 OpenBabel11052423053D

 27 31  0  0  1  0  0  0  0  0999 V2000
  160.3300  206.4510  149.2690 N   0  0  0  0  0  2  0  0  0  0  0  0
  161.6710  208.3750  149.9320 C   0  0  0  0  0  0  0  0  0  0  0  0
  161.8100  208.1630  147.4810 N   0  0  0  0  0  2  0  0  0  0  0  0
  161.8340  212.5160  149.5510 N   0  0  0  0  0  0  0  0  0  0  0  0
  160.5680  213.7060  147.8360 C   0  0  0  0  0  1  0  0  0  0  0  0
  161.5920  209.2700  151.1290 C   0  0  0  0  0  3  0  0  0  0  0  0
  161.2950  211.1990  147.7710 C   0  0  2  0  0  3  0  0  0  0  0  0
  163.1640  205.3150  146.1430 C   0  0  0  0  0  2  0  0  0  0  0  0
  160.4830  210.7760  146.5920 C   0  0  0  0  0  1  0  0  0  0  0  0
  162.4920  203.9470  145.9950 C   0  0  0  0  0  2  0  0  0  0  0  0
  161.9180  210.3970  148.6210 C   0  0  1  0  0  3  0  0  0  0  0  0
  161.4590  206.8840  150.0900 C   0  0  1  0  0  3  0  0  0  0  0  0
  161.2650  212.5140  148.3900 C   0  0  0  0  0  0  0  0  0  0  0  0
  162.3910  211.1900  149.7940 C   0  0  2  0  0  3  0  0  0  0  0  0
  160.7880  205.9530  147.9670 C   0  0  2  0  0  3  0  0  0  0  0  0
  161.8130  208.9290  148.6990 C   0  0  0  0  0  0  0  0  0  0  0  0
  162.2270  206.3510  146.0660 O   0  0  0  0  0  0  0  0  0  0  0  0
  161.8740  210.5800  151.0650 C   0  0  0  0  0  3  0  0  0  0  0  0
  161.1100  203.8460  146.6510 C   0  0  0  0  0  2  0  0  0  0  0  0
  161.0670  204.4540  148.0490 C   0  0  0  0  0  2  0  0  0  0  0  0
  162.0010  206.7200  147.3970 C   0  0  1  0  0  3  0  0  0  0  0  0
  161.0420  205.4970  154.1410 C   0  0  0  0  0  3  0  0  0  0  0  0
  161.3000  206.4160  151.5080 C   0  0  0  0  0  0  0  0  0  0  0  0
  161.2500  205.0430  151.7710 C   0  0  0  0  0  3  0  0  0  0  0  0
  161.1190  204.5830  153.0860 C   0  0  0  0  0  3  0  0  0  0  0  0
  161.0960  206.8690  153.8840 C   0  0  0  0  0  3  0  0  0  0  0  0
  161.2270  207.3290  152.5710 C   0  0  0  0  0  3  0  0  0  0  0  0
  1 12  1  0  0  0  0
  2 12  1  0  0  0  0
  2  6  1  0  0  0  0
  3 16  1  0  0  0  0
  4 14  1  0  0  0  0
  5 13  1  0  0  0  0
  7  9  1  1  0  0  0
  7 13  1  0  0  0  0
  7 11  1  0  0  0  0
 10  8  1  0  0  0  0
 10 19  1  0  0  0  0
 11 16  1  1  0  0  0
 11 14  1  0  0  0  0
 12 23  1  1  0  0  0
 13  4  2  0  0  0  0
 14 18  1  1  0  0  0
 15 20  1  1  0  0  0
 15  1  1  0  0  0  0
 16  2  2  0  0  0  0
 17  8  1  0  0  0  0
 18  6  2  0  0  0  0
 19 20  1  0  0  0  0
 21 17  1  6  0  0  0
 21  3  1  0  0  0  0
 21 15  1  0  0  0  0
 23 24  2  0  0  0  0
 23 27  1  0  0  0  0
 24 25  1  0  0  0  0
 25 22  2  0  0  0  0
 26 22  1  0  0  0  0
 27 26  2  0  0  0  0
M  END
>  <MODEL>
8

>  <REMARK>
 VINA RESULT:      -4.8      3.717      8.201
  Name = 
  1 active torsions:
  status: ('A' for Active; 'I' for Inactive)
    1  A    between atoms: C_9  and  C_15
                            x       y       z     vdW  Elec       q    Type
                         _______ _______ _______ _____ _____    ______ ____

>  <TORSDO>
F 1

$$$$
=
 OpenBabel11052423053D

 27 31  0  0  1  0  0  0  0  0999 V2000
  162.4510  210.5980  150.8300 N   0  0  0  0  0  2  0  0  0  0  0  0
  160.4170  211.8750  151.2530 C   0  0  0  0  0  0  0  0  0  0  0  0
  160.4800  209.9980  152.8490 N   0  0  0  0  0  2  0  0  0  0  0  0
  158.6040  214.2420  154.1550 N   0  0  0  0  0  0  0  0  0  0  0  0
  159.3490  214.2330  156.4800 C   0  0  0  0  0  1  0  0  0  0  0  0
  160.0770  213.3070  150.9860 C   0  0  0  0  0  3  0  0  0  0  0  0
  159.7060  212.3300  154.7270 C   0  0  2  0  0  3  0  0  0  0  0  0
  160.4560  206.7950  151.6360 C   0  0  0  0  0  2  0  0  0  0  0  0
  160.6690  211.5010  155.5110 C   0  0  0  0  0  1  0  0  0  0  0  0
  161.6310  206.0210  151.0310 C   0  0  0  0  0  2  0  0  0  0  0  0
  159.4260  212.1990  153.4390 C   0  0  1  0  0  3  0  0  0  0  0  0
  161.2090  211.0850  150.2310 C   0  0  1  0  0  3  0  0  0  0  0  0
  159.1730  213.6200  155.1360 C   0  0  0  0  0  0  0  0  0  0  0  0
  158.6230  213.3720  152.9840 C   0  0  2  0  0  3  0  0  0  0  0  0
  162.2900  209.2290  151.3330 C   0  0  2  0  0  3  0  0  0  0  0  0
  160.1150  211.3360  152.4630 C   0  0  0  0  0  0  0  0  0  0  0  0
  160.8950  207.7130  152.5970 O   0  0  0  0  0  0  0  0  0  0  0  0
  159.2900  214.0210  151.8040 C   0  0  0  0  0  3  0  0  0  0  0  0
  162.9060  206.8510  150.8420 C   0  0  0  0  0  2  0  0  0  0  0  0
  162.6400  208.2260  150.2370 C   0  0  0  0  0  2  0  0  0  0  0  0
  160.8950  208.9450  151.9310 C   0  0  1  0  0  3  0  0  0  0  0  0
  162.0510  213.1380  146.5450 C   0  0  0  0  0  3  0  0  0  0  0  0
  161.4850  211.8130  148.9470 C   0  0  0  0  0  0  0  0  0  0  0  0
  162.8010  212.1720  148.6360 C   0  0  0  0  0  3  0  0  0  0  0  0
  163.0840  212.8350  147.4370 C   0  0  0  0  0  3  0  0  0  0  0  0
  160.7360  212.7760  146.8490 C   0  0  0  0  0  3  0  0  0  0  0  0
  160.4520  212.1140  148.0460 C   0  0  0  0  0  3  0  0  0  0  0  0
  1 15  1  0  0  0  0
  2 16  2  0  0  0  0
  4 13  2  0  0  0  0
  6  2  1  0  0  0  0
  6 18  2  0  0  0  0
  7 13  1  0  0  0  0
  7  9  1  6  0  0  0
  8 17  1  0  0  0  0
 10  8  1  0  0  0  0
 11 16  1  6  0  0  0
 11  7  1  0  0  0  0
 12 23  1  6  0  0  0
 12  1  1  0  0  0  0
 12  2  1  0  0  0  0
 13  5  1  0  0  0  0
 14 18  1  6  0  0  0
 14 11  1  0  0  0  0
 14  4  1  0  0  0  0
 15 20  1  6  0  0  0
 15 21  1  0  0  0  0
 16  3  1  0  0  0  0
 19 10  1  0  0  0  0
 20 19  1  0  0  0  0
 21 17  1  1  0  0  0
 21  3  1  0  0  0  0
 22 26  2  0  0  0  0
 22 25  1  0  0  0  0
 24 23  1  0  0  0  0
 25 24  2  0  0  0  0
 26 27  1  0  0  0  0
 27 23  2  0  0  0  0
M  END
>  <MODEL>
9

>  <REMARK>
 VINA RESULT:      -4.8      1.924      5.946
  Name = 
  1 active torsions:
  status: ('A' for Active; 'I' for Inactive)
    1  A    between atoms: C_9  and  C_15
                            x       y       z     vdW  Elec       q    Type
                         _______ _______ _______ _____ _____    ______ ____

>  <TORSDO>
F 1

$$$$
