=
 OpenBabel11062408093D

 34 39  0  0  1  0  0  0  0  0999 V2000
  157.3610  213.1300  155.8120 C   0  0  0  0  0  0  0  0  0  0  0  0
  156.1310  211.2150  154.9550 C   0  0  0  0  0  0  0  0  0  0  0  0
  157.7300  212.4320  153.4050 C   0  0  1  0  0  3  0  0  0  0  0  0
  159.9760  211.9070  152.3460 C   0  0  0  0  0  0  0  0  0  0  0  0
  155.8540  211.9070  157.2610 C   0  0  0  0  0  3  0  0  0  0  0  0
  155.5400  211.0420  156.2100 C   0  0  0  0  0  3  0  0  0  0  0  0
  158.9540  210.2290  153.7660 C   0  0  0  0  0  3  0  0  0  0  0  0
  157.0570  212.2530  154.7500 C   0  0  0  0  0  0  0  0  0  0  0  0
  160.0280  209.3710  153.5260 C   0  0  0  0  0  3  0  0  0  0  0  0
  161.0510  211.0450  152.1130 C   0  0  0  0  0  3  0  0  0  0  0  0
  156.7570  212.9540  157.0600 C   0  0  0  0  0  3  0  0  0  0  0  0
  158.0900  213.9170  153.1710 C   0  0  2  0  0  3  0  0  0  0  0  0
  158.2220  214.2530  155.5970 N   0  0  0  0  0  2  0  0  0  0  0  0
  155.7930  210.3520  153.9190 O   0  0  0  0  0  1  0  0  0  0  0  0
  159.9690  213.1990  151.7320 N   0  0  0  0  0  2  0  0  0  0  0  0
  158.8360  214.1160  151.8470 C   0  0  1  0  0  3  0  0  0  0  0  0
  161.0860  209.7780  152.7010 C   0  0  0  0  0  0  0  0  0  0  0  0
  158.9240  211.5140  153.2000 C   0  0  0  0  0  0  0  0  0  0  0  0
  158.9280  214.4500  154.3350 C   0  0  0  0  0  2  0  0  0  0  0  0
  155.7340  214.1730  149.6420 C   0  0  0  0  0  0  0  0  0  0  0  0
  156.3000  213.8120  148.4180 C   0  0  0  0  0  3  0  0  0  0  0  0
  157.9210  214.0030  150.6660 C   0  0  0  0  0  0  0  0  0  0  0  0
  157.6340  213.5600  148.3320 N   0  0  0  0  0  0  0  0  0  0  0  0
  156.5490  214.2700  150.7690 C   0  0  0  0  0  3  0  0  0  0  0  0
  158.4470  213.6500  149.4210 C   0  0  0  0  0  3  0  0  0  0  0  0
  154.2780  214.4530  149.7420 C   0  0  0  0  0  1  0  0  0  0  0  0
  162.1970  208.9190  152.4430 N   0  0  0  0  0  2  0  0  0  0  0  0
  162.3120  208.1160  151.2340 C   0  0  0  0  0  2  0  0  0  0  0  0
  161.1390  205.2470  152.9300 C   0  0  0  0  0  1  0  0  0  0  0  0
  161.8280  205.7090  151.6600 C   0  0  2  0  0  3  0  0  0  0  0  0
  160.5580  205.3800  149.6450 N   0  0  0  0  0  2  0  0  0  0  0  0
  160.7610  206.8100  149.8140 C   0  0  0  0  0  2  0  0  0  0  0  0
  161.2470  207.0340  151.2270 C   0  0  2  0  0  3  0  0  0  0  0  0
  161.5170  204.7440  150.5340 C   0  0  0  0  0  2  0  0  0  0  0  0
  1 11  1  0  0  0  0
  2  6  2  0  0  0  0
  3 18  1  1  0  0  0
  3  8  1  0  0  0  0
  4 18  1  0  0  0  0
  6  5  1  0  0  0  0
  8  2  1  0  0  0  0
  8  1  2  0  0  0  0
  9  7  1  0  0  0  0
 10  4  2  0  0  0  0
 10 17  1  0  0  0  0
 11  5  2  0  0  0  0
 12  3  1  0  0  0  0
 12 19  1  1  0  0  0
 13  1  1  0  0  0  0
 14  2  1  0  0  0  0
 15 16  1  0  0  0  0
 15  4  1  0  0  0  0
 16 22  1  6  0  0  0
 16 12  1  0  0  0  0
 17  9  2  0  0  0  0
 18  7  2  0  0  0  0
 19 13  1  0  0  0  0
 20 26  1  0  0  0  0
 20 24  1  0  0  0  0
 21 20  2  0  0  0  0
 22 24  2  0  0  0  0
 23 21  1  0  0  0  0
 23 25  2  0  0  0  0
 25 22  1  0  0  0  0
 27 17  1  0  0  0  0
 28 27  1  0  0  0  0
 30 29  1  1  0  0  0
 31 32  1  0  0  0  0
 31 34  1  0  0  0  0
 32 33  1  0  0  0  0
 33 28  1  6  0  0  0
 33 30  1  0  0  0  0
 34 30  1  0  0  0  0
M  END
>  <MODEL>
1

>  <REMARK>
 VINA RESULT:      -5.5      0.000      0.000
  Name = 
  4 active torsions:
  status: ('A' for Active; 'I' for Inactive)
    1  A    between atoms: N_3  and  C_13
    2  A    between atoms: N_3  and  C_29
    3  A    between atoms: C_12  and  C_28
    4  A    between atoms: C_13  and  C_33
                            x       y       z     vdW  Elec       q    Type
                         _______ _______ _______ _____ _____    ______ ____

>  <TORSDO>
F 4

$$$$
=
 OpenBabel11062408093D

 34 39  0  0  1  0  0  0  0  0999 V2000
  161.8490  213.4420  146.2620 C   0  0  0  0  0  0  0  0  0  0  0  0
  159.5730  212.6640  145.9000 C   0  0  0  0  0  0  0  0  0  0  0  0
  160.8100  211.8970  147.9790 C   0  0  1  0  0  3  0  0  0  0  0  0
  160.6270  212.3610  150.4670 C   0  0  0  0  0  0  0  0  0  0  0  0
  160.6100  214.1780  144.3160 C   0  0  0  0  0  3  0  0  0  0  0  0
  159.5110  213.4170  144.7230 C   0  0  0  0  0  3  0  0  0  0  0  0
  159.0610  213.4550  148.9760 C   0  0  0  0  0  3  0  0  0  0  0  0
  160.7390  212.6820  146.6860 C   0  0  0  0  0  0  0  0  0  0  0  0
  158.4450  214.0660  150.0700 C   0  0  0  0  0  3  0  0  0  0  0  0
  160.0100  212.9790  151.5580 C   0  0  0  0  0  3  0  0  0  0  0  0
  161.7790  214.1840  145.0800 C   0  0  0  0  0  3  0  0  0  0  0  0
  162.2650  211.4680  148.2760 C   0  0  2  0  0  3  0  0  0  0  0  0
  163.0780  213.3940  146.9930 N   0  0  0  0  0  2  0  0  0  0  0  0
  158.4740  211.9020  146.2790 O   0  0  0  0  0  1  0  0  0  0  0  0
  161.7410  211.4910  150.6940 N   0  0  0  0  0  2  0  0  0  0  0  0
  162.3750  210.7330  149.6160 C   0  0  1  0  0  3  0  0  0  0  0  0
  158.9210  213.8340  151.3670 C   0  0  0  0  0  0  0  0  0  0  0  0
  160.1710  212.6150  149.1570 C   0  0  0  0  0  0  0  0  0  0  0  0
  163.1890  212.6880  148.2650 C   0  0  0  0  0  2  0  0  0  0  0  0
  161.2740  207.3370  148.2940 C   0  0  0  0  0  0  0  0  0  0  0  0
  160.8440  206.7430  149.4820 C   0  0  0  0  0  3  0  0  0  0  0  0
  161.8290  209.3390  149.5370 C   0  0  0  0  0  0  0  0  0  0  0  0
  160.9120  207.4330  150.6530 N   0  0  0  0  0  0  0  0  0  0  0  0
  161.7700  208.6400  148.3240 C   0  0  0  0  0  3  0  0  0  0  0  0
  161.3930  208.7050  150.7030 C   0  0  0  0  0  3  0  0  0  0  0  0
  161.2060  206.5890  147.0130 C   0  0  0  0  0  1  0  0  0  0  0  0
  158.3100  214.4500  152.5020 N   0  0  0  0  0  2  0  0  0  0  0  0
  157.0520  213.9880  153.0700 C   0  0  0  0  0  2  0  0  0  0  0  0
  158.7240  211.2950  154.6310 C   0  0  0  0  0  1  0  0  0  0  0  0
  157.3520  211.8040  154.2330 C   0  0  2  0  0  3  0  0  0  0  0  0
  155.8980  212.3330  156.0730 N   0  0  0  0  0  2  0  0  0  0  0  0
  156.1420  213.5600  155.3320 C   0  0  0  0  0  2  0  0  0  0  0  0
  157.3050  213.3040  154.4020 C   0  0  2  0  0  3  0  0  0  0  0  0
  156.3110  211.2560  155.1870 C   0  0  0  0  0  2  0  0  0  0  0  0
  1  8  1  0  0  0  0
  1 13  1  0  0  0  0
  2 14  1  0  0  0  0
  2  8  2  0  0  0  0
  3  8  1  6  0  0  0
  3 12  1  0  0  0  0
  3 18  1  0  0  0  0
  4 15  1  0  0  0  0
  4 10  1  0  0  0  0
  5  6  2  0  0  0  0
  5 11  1  0  0  0  0
  6  2  1  0  0  0  0
  7 18  1  0  0  0  0
  7  9  2  0  0  0  0
  9 17  1  0  0  0  0
 11  1  2  0  0  0  0
 12 19  1  1  0  0  0
 12 16  1  0  0  0  0
 13 19  1  0  0  0  0
 16 22  1  6  0  0  0
 16 15  1  0  0  0  0
 17 10  2  0  0  0  0
 17 27  1  0  0  0  0
 18  4  2  0  0  0  0
 20 24  2  0  0  0  0
 20 21  1  0  0  0  0
 21 23  2  0  0  0  0
 22 25  2  0  0  0  0
 23 25  1  0  0  0  0
 24 22  1  0  0  0  0
 26 20  1  0  0  0  0
 27 28  1  0  0  0  0
 30 33  1  0  0  0  0
 30 29  1  1  0  0  0
 30 34  1  0  0  0  0
 32 31  1  0  0  0  0
 33 28  1  6  0  0  0
 33 32  1  0  0  0  0
 34 31  1  0  0  0  0
M  END
>  <MODEL>
2

>  <REMARK>
 VINA RESULT:      -4.9      3.254      8.258
  Name = 
  4 active torsions:
  status: ('A' for Active; 'I' for Inactive)
    1  A    between atoms: N_3  and  C_13
    2  A    between atoms: N_3  and  C_29
    3  A    between atoms: C_12  and  C_28
    4  A    between atoms: C_13  and  C_33
                            x       y       z     vdW  Elec       q    Type
                         _______ _______ _______ _____ _____    ______ ____

>  <TORSDO>
F 4

$$$$
=
 OpenBabel11062408093D

 34 39  0  0  1  0  0  0  0  0999 V2000
  161.7390  208.9020  155.9590 C   0  0  0  0  0  0  0  0  0  0  0  0
  159.7590  207.5940  155.4260 C   0  0  0  0  0  0  0  0  0  0  0  0
  160.3030  209.6230  154.0010 C   0  0  1  0  0  3  0  0  0  0  0  0
  161.1200  210.0010  151.6280 C   0  0  0  0  0  0  0  0  0  0  0  0
  161.1980  206.9330  157.2610 C   0  0  0  0  0  3  0  0  0  0  0  0
  160.0640  206.7190  156.4730 C   0  0  0  0  0  3  0  0  0  0  0  0
  160.7810  207.7210  152.3780 C   0  0  0  0  0  3  0  0  0  0  0  0
  160.6030  208.6860  155.1520 C   0  0  0  0  0  0  0  0  0  0  0  0
  161.1630  207.2510  151.1200 C   0  0  0  0  0  3  0  0  0  0  0  0
  161.5070  209.5240  150.3730 C   0  0  0  0  0  3  0  0  0  0  0  0
  162.0290  208.0260  157.0090 C   0  0  0  0  0  3  0  0  0  0  0  0
  160.8460  211.0390  154.2980 C   0  0  2  0  0  3  0  0  0  0  0  0
  162.5540  210.0620  155.7620 N   0  0  0  0  0  2  0  0  0  0  0  0
  158.6180  207.3720  154.6640 O   0  0  0  0  0  1  0  0  0  0  0  0
  161.1040  211.4120  151.8660 N   0  0  0  0  0  2  0  0  0  0  0  0
  160.6190  211.9900  153.1180 C   0  0  1  0  0  3  0  0  0  0  0  0
  161.5330  208.1510  150.1130 C   0  0  0  0  0  0  0  0  0  0  0  0
  160.7760  209.0970  152.6560 C   0  0  0  0  0  0  0  0  0  0  0  0
  162.3350  210.9740  154.6450 C   0  0  0  0  0  2  0  0  0  0  0  0
  156.9450  212.6070  153.9050 C   0  0  0  0  0  0  0  0  0  0  0  0
  156.5510  213.2540  152.7330 C   0  0  0  0  0  3  0  0  0  0  0  0
  159.1830  212.4080  153.0050 C   0  0  0  0  0  0  0  0  0  0  0  0
  157.4530  213.4680  151.7370 N   0  0  0  0  0  0  0  0  0  0  0  0
  158.2670  212.1840  154.0410 C   0  0  0  0  0  3  0  0  0  0  0  0
  158.7490  213.0640  151.8500 C   0  0  0  0  0  3  0  0  0  0  0  0
  155.9670  212.3720  154.9980 C   0  0  0  0  0  1  0  0  0  0  0  0
  161.9310  207.6940  148.8190 N   0  0  0  0  0  2  0  0  0  0  0  0
  161.1560  206.7340  148.0470 C   0  0  0  0  0  2  0  0  0  0  0  0
  163.3450  204.7460  146.1130 C   0  0  0  0  0  1  0  0  0  0  0  0
  161.9080  204.8610  146.5850 C   0  0  2  0  0  3  0  0  0  0  0  0
  161.1930  203.1160  148.0760 N   0  0  0  0  0  2  0  0  0  0  0  0
  161.1240  204.3760  148.8000 C   0  0  0  0  0  2  0  0  0  0  0  0
  161.8850  205.4030  147.9940 C   0  0  2  0  0  3  0  0  0  0  0  0
  161.2910  203.4800  146.6710 C   0  0  0  0  0  2  0  0  0  0  0  0
  1 11  1  0  0  0  0
  2  6  2  0  0  0  0
  3 18  1  6  0  0  0
  3 12  1  0  0  0  0
  3  8  1  0  0  0  0
  4 15  1  0  0  0  0
  4 18  1  0  0  0  0
  6  5  1  0  0  0  0
  7 18  2  0  0  0  0
  8  2  1  0  0  0  0
  8  1  2  0  0  0  0
  9  7  1  0  0  0  0
 10  4  2  0  0  0  0
 11  5  2  0  0  0  0
 12 19  1  6  0  0  0
 13  1  1  0  0  0  0
 14  2  1  0  0  0  0
 15 16  1  0  0  0  0
 16 22  1  6  0  0  0
 16 12  1  0  0  0  0
 17 10  1  0  0  0  0
 17  9  2  0  0  0  0
 19 13  1  0  0  0  0
 20 24  1  0  0  0  0
 20 26  1  0  0  0  0
 21 20  2  0  0  0  0
 22 24  2  0  0  0  0
 23 25  2  0  0  0  0
 23 21  1  0  0  0  0
 25 22  1  0  0  0  0
 27 17  1  0  0  0  0
 28 27  1  0  0  0  0
 30 29  1  1  0  0  0
 30 34  1  0  0  0  0
 30 33  1  0  0  0  0
 31 32  1  0  0  0  0
 33 28  1  6  0  0  0
 33 32  1  0  0  0  0
 34 31  1  0  0  0  0
M  END
>  <MODEL>
3

>  <REMARK>
 VINA RESULT:      -4.3      2.588      4.482
  Name = 
  4 active torsions:
  status: ('A' for Active; 'I' for Inactive)
    1  A    between atoms: N_3  and  C_13
    2  A    between atoms: N_3  and  C_29
    3  A    between atoms: C_12  and  C_28
    4  A    between atoms: C_13  and  C_33
                            x       y       z     vdW  Elec       q    Type
                         _______ _______ _______ _____ _____    ______ ____

>  <TORSDO>
F 4

$$$$
=
 OpenBabel11062408093D

 34 39  0  0  1  0  0  0  0  0999 V2000
  160.6560  207.2950  153.6420 C   0  0  0  0  0  0  0  0  0  0  0  0
  161.3600  208.9860  152.0410 C   0  0  0  0  0  0  0  0  0  0  0  0
  160.5180  209.7320  154.3160 C   0  0  1  0  0  3  0  0  0  0  0  0
  161.5680  210.7550  156.3880 C   0  0  0  0  0  0  0  0  0  0  0  0
  161.5070  206.6350  151.4730 C   0  0  0  0  0  3  0  0  0  0  0  0
  161.6920  207.9770  151.1320 C   0  0  0  0  0  3  0  0  0  0  0  0
  162.9970  210.2850  154.4880 C   0  0  0  0  0  3  0  0  0  0  0  0
  160.8510  208.6520  153.3090 C   0  0  0  0  0  0  0  0  0  0  0  0
  164.0920  210.8010  155.1830 C   0  0  0  0  0  3  0  0  0  0  0  0
  162.6690  211.2650  157.0810 C   0  0  0  0  0  3  0  0  0  0  0  0
  160.9830  206.2950  152.7220 C   0  0  0  0  0  3  0  0  0  0  0  0
  159.3800  209.2690  155.2540 C   0  0  2  0  0  3  0  0  0  0  0  0
  160.0460  206.9380  154.8850 N   0  0  0  0  0  2  0  0  0  0  0  0
  161.5380  210.3150  151.6770 O   0  0  0  0  0  1  0  0  0  0  0  0
  160.2860  210.7420  157.0230 N   0  0  0  0  0  2  0  0  0  0  0  0
  159.0710  210.3170  156.3290 C   0  0  1  0  0  3  0  0  0  0  0  0
  163.9340  211.2880  156.4870 C   0  0  0  0  0  0  0  0  0  0  0  0
  161.7280  210.2340  155.0870 C   0  0  0  0  0  0  0  0  0  0  0  0
  159.7430  207.9340  155.9080 C   0  0  0  0  0  2  0  0  0  0  0  0
  157.6050  212.8670  153.9110 C   0  0  0  0  0  0  0  0  0  0  0  0
  156.8800  213.6590  154.8040 C   0  0  0  0  0  3  0  0  0  0  0  0
  158.3250  211.4910  155.7680 C   0  0  0  0  0  0  0  0  0  0  0  0
  156.8840  213.3650  156.1330 N   0  0  0  0  0  0  0  0  0  0  0  0
  158.3280  211.7780  154.3970 C   0  0  0  0  0  3  0  0  0  0  0  0
  157.5830  212.3060  156.6260 C   0  0  0  0  0  3  0  0  0  0  0  0
  157.6030  213.1790  152.4590 C   0  0  0  0  0  1  0  0  0  0  0  0
  165.0390  211.8180  157.2200 N   0  0  0  0  0  2  0  0  0  0  0  0
  165.4380  213.2160  157.1500 C   0  0  0  0  0  2  0  0  0  0  0  0
  167.6580  211.5850  154.9360 C   0  0  0  0  0  1  0  0  0  0  0  0
  167.4760  212.0030  156.3830 C   0  0  2  0  0  3  0  0  0  0  0  0
  169.0270  213.6690  157.1560 N   0  0  0  0  0  2  0  0  0  0  0  0
  167.6910  214.2380  157.2280 C   0  0  0  0  0  2  0  0  0  0  0  0
  166.7730  213.3380  156.4350 C   0  0  2  0  0  3  0  0  0  0  0  0
  168.8320  212.2340  157.0180 C   0  0  0  0  0  2  0  0  0  0  0  0
  1 13  1  0  0  0  0
  2  8  2  0  0  0  0
  3  8  1  1  0  0  0
  3 18  1  0  0  0  0
  3 12  1  0  0  0  0
  4 15  1  0  0  0  0
  4 10  1  0  0  0  0
  5 11  1  0  0  0  0
  6  5  2  0  0  0  0
  6  2  1  0  0  0  0
  7 18  1  0  0  0  0
  7  9  2  0  0  0  0
  8  1  1  0  0  0  0
  9 17  1  0  0  0  0
 11  1  2  0  0  0  0
 12 19  1  1  0  0  0
 12 16  1  0  0  0  0
 13 19  1  0  0  0  0
 14  2  1  0  0  0  0
 16 22  1  6  0  0  0
 16 15  1  0  0  0  0
 17 10  2  0  0  0  0
 17 27  1  0  0  0  0
 18  4  2  0  0  0  0
 20 24  2  0  0  0  0
 20 21  1  0  0  0  0
 21 23  2  0  0  0  0
 22 25  2  0  0  0  0
 23 25  1  0  0  0  0
 24 22  1  0  0  0  0
 26 20  1  0  0  0  0
 28 27  1  0  0  0  0
 30 29  1  6  0  0  0
 30 33  1  0  0  0  0
 30 34  1  0  0  0  0
 31 32  1  0  0  0  0
 33 28  1  1  0  0  0
 33 32  1  0  0  0  0
 34 31  1  0  0  0  0
M  END
>  <MODEL>
4

>  <REMARK>
 VINA RESULT:      -3.9      4.582      7.464
  Name = 
  4 active torsions:
  status: ('A' for Active; 'I' for Inactive)
    1  A    between atoms: N_3  and  C_13
    2  A    between atoms: N_3  and  C_29
    3  A    between atoms: C_12  and  C_28
    4  A    between atoms: C_13  and  C_33
                            x       y       z     vdW  Elec       q    Type
                         _______ _______ _______ _____ _____    ______ ____

>  <TORSDO>
F 4

$$$$
=
 OpenBabel11062408093D

 34 39  0  0  1  0  0  0  0  0999 V2000
  161.4420  210.6320  156.8570 C   0  0  0  0  0  0  0  0  0  0  0  0
  159.9890  208.9320  155.9010 C   0  0  0  0  0  0  0  0  0  0  0  0
  159.2560  211.3590  155.8040 C   0  0  1  0  0  3  0  0  0  0  0  0
  159.0020  213.1010  153.9760 C   0  0  0  0  0  0  0  0  0  0  0  0
  162.1140  208.3060  156.8860 C   0  0  0  0  0  3  0  0  0  0  0  0
  160.9260  207.9510  156.2410 C   0  0  0  0  0  3  0  0  0  0  0  0
  159.7660  210.8870  153.3550 C   0  0  0  0  0  3  0  0  0  0  0  0
  160.2460  210.2830  156.1950 C   0  0  0  0  0  0  0  0  0  0  0  0
  159.8210  211.2800  152.0170 C   0  0  0  0  0  3  0  0  0  0  0  0
  159.0650  213.4910  152.6360 C   0  0  0  0  0  3  0  0  0  0  0  0
  162.3670  209.6430  157.2010 C   0  0  0  0  0  3  0  0  0  0  0  0
  159.3370  212.5540  156.7810 C   0  0  2  0  0  3  0  0  0  0  0  0
  161.6760  211.9860  157.2560 N   0  0  0  0  0  2  0  0  0  0  0  0
  158.8080  208.5550  155.2730 O   0  0  0  0  0  1  0  0  0  0  0  0
  158.5800  214.0490  154.9620 N   0  0  0  0  0  2  0  0  0  0  0  0
  158.3950  213.6890  156.3670 C   0  0  1  0  0  3  0  0  0  0  0  0
  159.4760  212.5880  151.6520 C   0  0  0  0  0  0  0  0  0  0  0  0
  159.3790  211.7950  154.3530 C   0  0  0  0  0  0  0  0  0  0  0  0
  160.7760  213.0680  156.8700 C   0  0  0  0  0  2  0  0  0  0  0  0
  155.1610  211.7750  156.9780 C   0  0  0  0  0  0  0  0  0  0  0  0
  154.3000  212.8380  157.2590 C   0  0  0  0  0  3  0  0  0  0  0  0
  156.9610  213.3620  156.6610 C   0  0  0  0  0  0  0  0  0  0  0  0
  154.7670  214.1160  157.2420 N   0  0  0  0  0  0  0  0  0  0  0  0
  156.4970  212.0400  156.6790 C   0  0  0  0  0  3  0  0  0  0  0  0
  156.0680  214.3950  156.9540 C   0  0  0  0  0  3  0  0  0  0  0  0
  154.6590  210.3770  156.9980 C   0  0  0  0  0  1  0  0  0  0  0  0
  159.5270  213.0160  150.2900 N   0  0  0  0  0  2  0  0  0  0  0  0
  160.6790  213.6980  149.7190 C   0  0  0  0  0  2  0  0  0  0  0  0
  161.7970  210.5770  148.4990 C   0  0  0  0  0  1  0  0  0  0  0  0
  162.2540  211.9850  148.8260 C   0  0  2  0  0  3  0  0  0  0  0  0
  162.9450  213.2900  146.9290 N   0  0  0  0  0  2  0  0  0  0  0  0
  161.7880  213.9430  147.5190 C   0  0  0  0  0  2  0  0  0  0  0  0
  161.1550  212.9620  148.4790 C   0  0  2  0  0  3  0  0  0  0  0  0
  163.4230  212.3590  147.9390 C   0  0  0  0  0  2  0  0  0  0  0  0
  1 11  1  0  0  0  0
  1 13  1  0  0  0  0
  2  8  1  0  0  0  0
  2  6  2  0  0  0  0
  3 18  1  6  0  0  0
  3  8  1  0  0  0  0
  3 12  1  0  0  0  0
  4 18  1  0  0  0  0
  4 15  1  0  0  0  0
  5 11  2  0  0  0  0
  6  5  1  0  0  0  0
  7 18  2  0  0  0  0
  8  1  2  0  0  0  0
  9  7  1  0  0  0  0
 10  4  2  0  0  0  0
 12 19  1  6  0  0  0
 14  2  1  0  0  0  0
 15 16  1  0  0  0  0
 16 22  1  6  0  0  0
 16 12  1  0  0  0  0
 17  9  2  0  0  0  0
 17 10  1  0  0  0  0
 19 13  1  0  0  0  0
 20 26  1  0  0  0  0
 20 21  1  0  0  0  0
 22 24  1  0  0  0  0
 22 25  2  0  0  0  0
 23 21  2  0  0  0  0
 24 20  2  0  0  0  0
 25 23  1  0  0  0  0
 27 17  1  0  0  0  0
 28 27  1  0  0  0  0
 30 29  1  6  0  0  0
 31 32  1  0  0  0  0
 31 34  1  0  0  0  0
 32 33  1  0  0  0  0
 33 30  1  0  0  0  0
 33 28  1  1  0  0  0
 34 30  1  0  0  0  0
M  END
>  <MODEL>
5

>  <REMARK>
 VINA RESULT:      -3.7      3.300      5.892
  Name = 
  4 active torsions:
  status: ('A' for Active; 'I' for Inactive)
    1  A    between atoms: N_3  and  C_13
    2  A    between atoms: N_3  and  C_29
    3  A    between atoms: C_12  and  C_28
    4  A    between atoms: C_13  and  C_33
                            x       y       z     vdW  Elec       q    Type
                         _______ _______ _______ _____ _____    ______ ____

>  <TORSDO>
F 4

$$$$
