=
 OpenBabel11062409073D

 37 42  0  0  1  0  0  0  0  0999 V2000
  159.0940  212.3370  153.1220 C   0  0  1  0  0  3  0  0  0  0  0  0
  160.7300  211.3710  154.6340 O   0  0  0  0  0  0  0  0  0  0  0  0
  160.1400  211.9280  152.0960 C   0  0  2  0  0  3  0  0  0  0  0  0
  159.3940  211.8150  154.5230 C   0  0  1  0  0  3  0  0  0  0  0  0
  159.6140  212.1160  150.8100 O   0  0  0  0  0  0  0  0  0  0  0  0
  159.1560  213.0070  155.4250 C   0  0  0  0  0  2  0  0  0  0  0  0
  160.9140  210.2280  153.8090 C   0  0  2  0  0  3  0  0  0  0  0  0
  158.0400  214.2020  152.2030 C   0  0  0  0  0  2  0  0  0  0  0  0
  158.5400  214.0590  154.5220 C   0  0  0  0  0  2  0  0  0  0  0  0
  159.0360  213.7860  153.1850 N   0  0  1  0  0  0  0  0  0  0  0  0
  160.5740  210.4830  152.3200 C   0  0  2  0  0  3  0  0  0  0  0  0
  159.8720  213.4630  150.5060 C   0  0  2  0  0  3  0  0  0  0  0  0
  158.6610  214.3730  150.8030 C   0  0  0  0  0  2  0  0  0  0  0  0
  159.5030  214.2990  148.1810 C   0  0  0  0  0  3  0  0  0  0  0  0
  160.3120  213.6000  149.0850 C   0  0  0  0  0  0  0  0  0  0  0  0
  161.5300  213.0570  148.6510 C   0  0  0  0  0  3  0  0  0  0  0  0
  163.1060  212.6770  146.9030 F   0  0  0  0  0  0  0  0  0  0  0  0
  161.1180  213.9030  146.4190 C   0  0  0  0  0  3  0  0  0  0  0  0
  161.9300  213.2040  147.3190 C   0  0  0  0  0  0  0  0  0  0  0  0
  159.9060  214.4500  146.8500 C   0  0  0  0  0  3  0  0  0  0  0  0
  160.7020  208.6850  155.7430 C   0  0  2  0  0  3  0  0  0  0  0  0
  160.1800  209.0050  154.3530 C   0  0  2  0  0  3  0  0  0  0  0  0
  161.1540  207.8610  154.5550 C   0  0  0  0  0  2  0  0  0  0  0  0
  159.7200  207.9880  156.4470 O   0  0  0  0  0  0  0  0  0  0  0  0
  160.4270  207.0520  157.2030 C   0  0  0  0  0  1  0  0  0  0  0  0
  162.9750  209.4000  152.1770 O   0  0  0  0  0  0  0  0  0  0  0  0
  161.9940  210.1150  151.2570 S   0  0  1  0  0  0  0  0  0  0  0  0
  161.4160  208.8310  150.1170 C   0  0  2  0  0  3  0  0  0  0  0  0
  160.7090  206.9160  151.4610 O   0  0  0  0  0  0  0  0  0  0  0  0
  161.7410  207.4390  150.6500 C   0  0  1  0  0  0  0  0  0  0  0  0
  160.9450  206.2640  150.2330 C   0  0  2  0  0  0  0  0  0  0  0  0
  163.0010  207.1980  151.2060 O   0  0  0  0  0  1  0  0  0  0  0  0
  159.9020  206.4770  149.3290 O   0  0  0  0  0  1  0  0  0  0  0  0
  160.8090  203.9840  151.1490 C   0  0  0  0  0  2  0  0  0  0  0  0
  161.4700  204.8730  150.4110 C   0  0  0  0  0  3  0  0  0  0  0  0
  162.6820  207.8320  148.3520 O   0  0  0  0  0  1  0  0  0  0  0  0
  162.0560  209.0150  148.7510 C   0  0  0  0  0  2  0  0  0  0  0  0
  1 10  1  0  0  0  0
  1  4  1  0  0  0  0
  3 11  1  0  0  0  0
  3  1  1  0  0  0  0
  4  2  1  0  0  0  0
  4  6  1  0  0  0  0
  5  3  1  0  0  0  0
  7 22  1  0  0  0  0
  7  2  1  0  0  0  0
  8 10  1  0  0  0  0
  9  6  1  0  0  0  0
 10  9  1  0  0  0  0
 11  7  1  0  0  0  0
 12 13  1  0  0  0  0
 12  5  1  0  0  0  0
 13  8  1  0  0  0  0
 14 15  1  0  0  0  0
 15 12  1  0  0  0  0
 16 15  2  0  0  0  0
 17 19  1  0  0  0  0
 18 20  1  0  0  0  0
 18 19  2  0  0  0  0
 19 16  1  0  0  0  0
 20 14  2  0  0  0  0
 21 24  1  0  0  0  0
 22 23  1  0  0  0  0
 22 21  1  0  0  0  0
 23 21  1  0  0  0  0
 24 25  1  0  0  0  0
 27 26  2  0  0  0  0
 27 11  1  0  0  0  0
 28 30  1  0  0  0  0
 28 27  1  0  0  0  0
 30 32  1  0  0  0  0
 30 29  1  0  0  0  0
 31 35  1  0  0  0  0
 31 30  1  0  0  0  0
 31 29  1  0  0  0  0
 33 31  1  0  0  0  0
 35 34  2  0  0  0  0
 36 37  1  0  0  0  0
 37 28  1  0  0  0  0
M  END
>  <MODEL>
1

>  <REMARK>
 VINA RESULT:      -5.9      0.000      0.000
  Name = 
  8 active torsions:
  status: ('A' for Active; 'I' for Inactive)
    1  A    between atoms: O_3  and  C_21
    2  A    between atoms: C_6  and  C_31
    3  A    between atoms: C_11  and  C_33
    4  A    between atoms: C_17  and  C_23
    5  A    between atoms: C_20  and  C_25
    6  A    between atoms: C_27  and  C_33
    7  A    between atoms: C_29  and  S_36
    8  A    between atoms: C_33  and  S_36
                            x       y       z     vdW  Elec       q    Type
                         _______ _______ _______ _____ _____    ______ ____

>  <TORSDO>
F 8

$$$$
=
 OpenBabel11062409073D

 37 42  0  0  1  0  0  0  0  0999 V2000
  159.0510  212.5220  153.4210 C   0  0  1  0  0  3  0  0  0  0  0  0
  160.7730  211.8830  155.0100 O   0  0  0  0  0  0  0  0  0  0  0  0
  160.1140  212.0620  152.4330 C   0  0  2  0  0  3  0  0  0  0  0  0
  159.4050  212.2090  154.8700 C   0  0  1  0  0  3  0  0  0  0  0  0
  159.5610  212.0430  151.1450 O   0  0  0  0  0  0  0  0  0  0  0  0
  159.0880  213.4870  155.6170 C   0  0  0  0  0  2  0  0  0  0  0  0
  161.0330  210.6590  154.3340 C   0  0  2  0  0  3  0  0  0  0  0  0
  157.8500  214.1700  152.2920 C   0  0  0  0  0  2  0  0  0  0  0  0
  158.3850  214.3650  154.5990 C   0  0  0  0  0  2  0  0  0  0  0  0
  158.8850  213.9590  153.2980 N   0  0  1  0  0  0  0  0  0  0  0  0
  160.6590  210.6930  152.8330 C   0  0  2  0  0  3  0  0  0  0  0  0
  159.7130  213.3540  150.6660 C   0  0  2  0  0  3  0  0  0  0  0  0
  158.4400  214.2030  150.8680 C   0  0  0  0  0  2  0  0  0  0  0  0
  159.1970  213.6950  148.2450 C   0  0  0  0  0  3  0  0  0  0  0  0
  160.1250  213.3370  149.2300 C   0  0  0  0  0  0  0  0  0  0  0  0
  161.4320  212.9900  148.8590 C   0  0  0  0  0  3  0  0  0  0  0  0
  163.0660  212.6530  147.1540 F   0  0  0  0  0  0  0  0  0  0  0  0
  160.8720  213.3470  146.5290 C   0  0  0  0  0  3  0  0  0  0  0  0
  161.8030  212.9900  147.5100 C   0  0  0  0  0  0  0  0  0  0  0  0
  159.5690  213.7000  146.8980 C   0  0  0  0  0  3  0  0  0  0  0  0
  160.9850  209.3470  156.4420 C   0  0  2  0  0  3  0  0  0  0  0  0
  160.3990  209.4660  155.0460 C   0  0  2  0  0  3  0  0  0  0  0  0
  161.4530  208.4170  155.3410 C   0  0  0  0  0  2  0  0  0  0  0  0
  160.0750  208.6790  157.2610 O   0  0  0  0  0  0  0  0  0  0  0  0
  160.5090  207.3520  157.2610 C   0  0  0  0  0  1  0  0  0  0  0  0
  163.2590  210.2560  152.7710 O   0  0  0  0  0  0  0  0  0  0  0  0
  162.0900  210.2960  151.7960 S   0  0  1  0  0  0  0  0  0  0  0  0
  161.8520  208.5720  151.2950 C   0  0  2  0  0  3  0  0  0  0  0  0
  163.0830  207.6890  149.3770 O   0  0  0  0  0  0  0  0  0  0  0  0
  161.9450  208.4240  149.7790 C   0  0  1  0  0  0  0  0  0  0  0  0
  161.8260  207.0950  149.1390 C   0  0  2  0  0  0  0  0  0  0  0  0
  161.7490  209.5470  148.9700 O   0  0  0  0  0  1  0  0  0  0  0  0
  161.6120  205.9940  149.9710 O   0  0  0  0  0  1  0  0  0  0  0  0
  161.8630  205.8720  147.0050 C   0  0  0  0  0  2  0  0  0  0  0  0
  161.5170  206.9660  147.6810 C   0  0  0  0  0  3  0  0  0  0  0  0
  160.6680  206.9960  152.6480 O   0  0  0  0  0  1  0  0  0  0  0  0
  160.4990  208.0690  151.7710 C   0  0  0  0  0  2  0  0  0  0  0  0
  1  4  1  0  0  0  0
  3 11  1  0  0  0  0
  3  1  1  0  0  0  0
  4  2  1  0  0  0  0
  4  6  1  0  0  0  0
  5  3  1  0  0  0  0
  7  2  1  0  0  0  0
  7 22  1  0  0  0  0
  8 10  1  0  0  0  0
  9  6  1  0  0  0  0
 10  1  1  0  0  0  0
 10  9  1  0  0  0  0
 11  7  1  0  0  0  0
 12 13  1  0  0  0  0
 12  5  1  0  0  0  0
 13  8  1  0  0  0  0
 14 15  1  0  0  0  0
 15 12  1  0  0  0  0
 16 15  2  0  0  0  0
 17 19  1  0  0  0  0
 18 20  1  0  0  0  0
 18 19  2  0  0  0  0
 19 16  1  0  0  0  0
 20 14  2  0  0  0  0
 21 24  1  0  0  0  0
 22 23  1  0  0  0  0
 22 21  1  0  0  0  0
 23 21  1  0  0  0  0
 25 24  1  0  0  0  0
 27 26  2  0  0  0  0
 27 11  1  0  0  0  0
 28 37  1  0  0  0  0
 28 27  1  0  0  0  0
 29 30  1  0  0  0  0
 30 28  1  0  0  0  0
 31 29  1  0  0  0  0
 31 30  1  0  0  0  0
 31 33  1  0  0  0  0
 32 30  1  0  0  0  0
 34 35  2  0  0  0  0
 35 31  1  0  0  0  0
 37 36  1  0  0  0  0
M  END
>  <MODEL>
2

>  <REMARK>
 VINA RESULT:      -5.8      1.132      1.737
  Name = 
  8 active torsions:
  status: ('A' for Active; 'I' for Inactive)
    1  A    between atoms: O_3  and  C_21
    2  A    between atoms: C_6  and  C_31
    3  A    between atoms: C_11  and  C_33
    4  A    between atoms: C_17  and  C_23
    5  A    between atoms: C_20  and  C_25
    6  A    between atoms: C_27  and  C_33
    7  A    between atoms: C_29  and  S_36
    8  A    between atoms: C_33  and  S_36
                            x       y       z     vdW  Elec       q    Type
                         _______ _______ _______ _____ _____    ______ ____

>  <TORSDO>
F 8

$$$$
=
 OpenBabel11062409073D

 37 42  0  0  1  0  0  0  0  0999 V2000
  160.5250  208.2090  153.8780 C   0  0  1  0  0  3  0  0  0  0  0  0
  162.1790  206.4350  153.9960 O   0  0  0  0  0  0  0  0  0  0  0  0
  161.1550  208.3930  152.5050 C   0  0  2  0  0  3  0  0  0  0  0  0
  161.0120  206.9570  154.5970 C   0  0  1  0  0  3  0  0  0  0  0  0
  160.4010  209.3240  151.7780 O   0  0  0  0  0  0  0  0  0  0  0  0
  161.3070  207.4250  156.0060 C   0  0  0  0  0  2  0  0  0  0  0  0
  161.8630  205.9660  152.6910 C   0  0  2  0  0  3  0  0  0  0  0  0
  159.7880  210.3330  154.4940 C   0  0  0  0  0  2  0  0  0  0  0  0
  160.7790  208.8450  156.0600 C   0  0  0  0  0  2  0  0  0  0  0  0
  160.8520  209.3580  154.7040 N   0  0  1  0  0  0  0  0  0  0  0  0
  161.2510  207.0550  151.7770 C   0  0  2  0  0  3  0  0  0  0  0  0
  160.9090  210.5780  152.1560 C   0  0  2  0  0  3  0  0  0  0  0  0
  160.0750  211.2340  153.2770 C   0  0  0  0  0  2  0  0  0  0  0  0
  160.2480  212.6470  150.9230 C   0  0  0  0  0  3  0  0  0  0  0  0
  161.0130  211.4750  150.9670 C   0  0  0  0  0  0  0  0  0  0  0  0
  161.8810  211.1720  149.9080 C   0  0  0  0  0  3  0  0  0  0  0  0
  162.8100  211.7340  147.7850 F   0  0  0  0  0  0  0  0  0  0  0  0
  161.2060  213.2000  148.7670 C   0  0  0  0  0  3  0  0  0  0  0  0
  161.9730  212.0310  148.8070 C   0  0  0  0  0  0  0  0  0  0  0  0
  160.3450  213.5080  149.8250 C   0  0  0  0  0  3  0  0  0  0  0  0
  161.4610  203.7500  151.6450 C   0  0  2  0  0  3  0  0  0  0  0  0
  160.9970  204.7090  152.7280 C   0  0  2  0  0  3  0  0  0  0  0  0
  160.2110  204.5820  151.4390 C   0  0  0  0  0  2  0  0  0  0  0  0
  161.1020  202.4510  152.0060 O   0  0  0  0  0  0  0  0  0  0  0  0
  160.9330  201.7830  150.7920 C   0  0  0  0  0  1  0  0  0  0  0  0
  163.5960  206.6900  150.6270 O   0  0  0  0  0  0  0  0  0  0  0  0
  162.2320  207.2660  150.2690 S   0  0  1  0  0  0  0  0  0  0  0  0
  161.5360  206.0910  149.0790 C   0  0  2  0  0  3  0  0  0  0  0  0
  163.3060  205.4590  147.5170 O   0  0  0  0  0  0  0  0  0  0  0  0
  162.1640  206.2710  147.7000 C   0  0  1  0  0  0  0  0  0  0  0  0
  162.1780  205.1590  146.7240 C   0  0  2  0  0  0  0  0  0  0  0  0
  162.3700  207.5630  147.2070 O   0  0  0  0  0  1  0  0  0  0  0  0
  161.5850  203.9550  147.1080 O   0  0  0  0  0  1  0  0  0  0  0  0
  161.4120  205.3410  144.3930 C   0  0  0  0  0  2  0  0  0  0  0  0
  162.4130  205.4140  145.2680 C   0  0  0  0  0  3  0  0  0  0  0  0
  159.6650  206.5240  147.6560 O   0  0  0  0  0  1  0  0  0  0  0  0
  160.0310  206.2750  148.9800 C   0  0  0  0  0  2  0  0  0  0  0  0
  1  4  1  0  0  0  0
  1 10  1  0  0  0  0
  2  4  1  0  0  0  0
  3  1  1  0  0  0  0
  4  6  1  0  0  0  0
  5 12  1  0  0  0  0
  5  3  1  0  0  0  0
  6  9  1  0  0  0  0
  7 22  1  0  0  0  0
  7  2  1  0  0  0  0
  8 10  1  0  0  0  0
 10  9  1  0  0  0  0
 11  3  1  0  0  0  0
 11  7  1  0  0  0  0
 12 13  1  0  0  0  0
 13  8  1  0  0  0  0
 14 15  1  0  0  0  0
 15 12  1  0  0  0  0
 16 15  2  0  0  0  0
 17 19  1  0  0  0  0
 18 19  2  0  0  0  0
 18 20  1  0  0  0  0
 19 16  1  0  0  0  0
 20 14  2  0  0  0  0
 21 24  1  0  0  0  0
 21 22  1  0  0  0  0
 23 21  1  0  0  0  0
 23 22  1  0  0  0  0
 25 24  1  0  0  0  0
 27 26  2  0  0  0  0
 27 11  1  0  0  0  0
 28 27  1  0  0  0  0
 29 30  1  0  0  0  0
 30 28  1  0  0  0  0
 31 33  1  0  0  0  0
 31 29  1  0  0  0  0
 31 30  1  0  0  0  0
 32 30  1  0  0  0  0
 34 35  2  0  0  0  0
 35 31  1  0  0  0  0
 36 37  1  0  0  0  0
 37 28  1  0  0  0  0
M  END
>  <MODEL>
3

>  <REMARK>
 VINA RESULT:      -5.4      2.449      4.462
  Name = 
  8 active torsions:
  status: ('A' for Active; 'I' for Inactive)
    1  A    between atoms: O_3  and  C_21
    2  A    between atoms: C_6  and  C_31
    3  A    between atoms: C_11  and  C_33
    4  A    between atoms: C_17  and  C_23
    5  A    between atoms: C_20  and  C_25
    6  A    between atoms: C_27  and  C_33
    7  A    between atoms: C_29  and  S_36
    8  A    between atoms: C_33  and  S_36
                            x       y       z     vdW  Elec       q    Type
                         _______ _______ _______ _____ _____    ______ ____

>  <TORSDO>
F 8

$$$$
=
 OpenBabel11062409073D

 37 42  0  0  1  0  0  0  0  0999 V2000
  160.8310  207.6050  152.7210 C   0  0  1  0  0  3  0  0  0  0  0  0
  162.6020  207.4890  151.0640 O   0  0  0  0  0  0  0  0  0  0  0  0
  161.0960  209.0960  152.5650 C   0  0  2  0  0  3  0  0  0  0  0  0
  161.5760  206.7550  151.6990 C   0  0  1  0  0  3  0  0  0  0  0  0
  160.1160  209.8090  153.2700 O   0  0  0  0  0  0  0  0  0  0  0  0
  162.1620  205.6210  152.5110 C   0  0  0  0  0  2  0  0  0  0  0  0
  162.0210  208.5210  150.2770 C   0  0  2  0  0  3  0  0  0  0  0  0
  160.0950  207.3480  154.9180 C   0  0  0  0  0  2  0  0  0  0  0  0
  161.5500  205.7750  153.8900 C   0  0  0  0  0  2  0  0  0  0  0  0
  161.2530  207.1880  154.0470 N   0  0  1  0  0  0  0  0  0  0  0  0
  161.1210  209.4830  151.0890 C   0  0  2  0  0  3  0  0  0  0  0  0
  160.5970  209.8820  154.5870 C   0  0  2  0  0  3  0  0  0  0  0  0
  160.0080  208.7780  155.4890 C   0  0  0  0  0  2  0  0  0  0  0  0
  160.9140  211.5840  156.3880 C   0  0  0  0  0  3  0  0  0  0  0  0
  160.3400  211.2380  155.1590 C   0  0  0  0  0  0  0  0  0  0  0  0
  159.5510  212.1730  154.4730 C   0  0  0  0  0  3  0  0  0  0  0  0
  158.5670  214.3420  154.3550 F   0  0  0  0  0  0  0  0  0  0  0  0
  159.9060  213.7830  156.2490 C   0  0  0  0  0  3  0  0  0  0  0  0
  159.3310  213.4420  155.0200 C   0  0  0  0  0  0  0  0  0  0  0  0
  160.6970  212.8540  156.9320 C   0  0  0  0  0  3  0  0  0  0  0  0
  162.2450  207.0870  148.2620 C   0  0  2  0  0  3  0  0  0  0  0  0
  161.2940  207.9670  149.0540 C   0  0  2  0  0  3  0  0  0  0  0  0
  161.9360  208.4920  147.7850 C   0  0  0  0  0  2  0  0  0  0  0  0
  161.5020  206.1690  147.5190 O   0  0  0  0  0  0  0  0  0  0  0  0
  162.3310  205.8270  146.4500 C   0  0  0  0  0  1  0  0  0  0  0  0
  162.7320  211.1430  149.8210 O   0  0  0  0  0  0  0  0  0  0  0  0
  161.6910  211.1960  150.9320 S   0  0  1  0  0  0  0  0  0  0  0  0
  160.2950  212.0980  150.2110 C   0  0  2  0  0  3  0  0  0  0  0  0
  160.8870  212.2070  147.8430 O   0  0  0  0  0  0  0  0  0  0  0  0
  160.7480  212.9550  149.0330 C   0  0  1  0  0  0  0  0  0  0  0  0
  159.8590  213.1730  147.8700 C   0  0  2  0  0  0  0  0  0  0  0  0
  161.8110  213.8460  149.2060 O   0  0  0  0  0  1  0  0  0  0  0  0
  158.5960  212.5780  147.9020 O   0  0  0  0  0  1  0  0  0  0  0  0
  160.0010  214.1110  145.6010 C   0  0  0  0  0  2  0  0  0  0  0  0
  160.1010  214.2990  146.9150 C   0  0  0  0  0  3  0  0  0  0  0  0
  158.2550  212.9540  151.1160 O   0  0  0  0  0  1  0  0  0  0  0  0
  159.6430  212.9810  151.2620 C   0  0  0  0  0  2  0  0  0  0  0  0
  1 10  1  0  0  0  0
  2  4  1  0  0  0  0
  3  1  1  0  0  0  0
  3  5  1  0  0  0  0
  4  6  1  0  0  0  0
  4  1  1  0  0  0  0
  5 12  1  0  0  0  0
  6  9  1  0  0  0  0
  7  2  1  0  0  0  0
  7 11  1  0  0  0  0
  8 13  1  0  0  0  0
  9 10  1  0  0  0  0
 10  8  1  0  0  0  0
 11  3  1  0  0  0  0
 12 15  1  0  0  0  0
 12 13  1  0  0  0  0
 14 20  1  0  0  0  0
 15 14  2  0  0  0  0
 16 19  2  0  0  0  0
 16 15  1  0  0  0  0
 17 19  1  0  0  0  0
 18 20  2  0  0  0  0
 19 18  1  0  0  0  0
 21 22  1  0  0  0  0
 22  7  1  0  0  0  0
 23 21  1  0  0  0  0
 23 22  1  0  0  0  0
 24 21  1  0  0  0  0
 25 24  1  0  0  0  0
 26 27  2  0  0  0  0
 27 11  1  0  0  0  0
 28 27  1  0  0  0  0
 28 37  1  0  0  0  0
 29 31  1  0  0  0  0
 29 30  1  0  0  0  0
 30 32  1  0  0  0  0
 30 28  1  0  0  0  0
 31 33  1  0  0  0  0
 31 30  1  0  0  0  0
 34 35  2  0  0  0  0
 35 31  1  0  0  0  0
 36 37  1  0  0  0  0
M  END
>  <MODEL>
4

>  <REMARK>
 VINA RESULT:      -4.9      2.587      7.147
  Name = 
  8 active torsions:
  status: ('A' for Active; 'I' for Inactive)
    1  A    between atoms: O_3  and  C_21
    2  A    between atoms: C_6  and  C_31
    3  A    between atoms: C_11  and  C_33
    4  A    between atoms: C_17  and  C_23
    5  A    between atoms: C_20  and  C_25
    6  A    between atoms: C_27  and  C_33
    7  A    between atoms: C_29  and  S_36
    8  A    between atoms: C_33  and  S_36
                            x       y       z     vdW  Elec       q    Type
                         _______ _______ _______ _____ _____    ______ ____

>  <TORSDO>
F 8

$$$$
=
 OpenBabel11062409073D

 37 42  0  0  1  0  0  0  0  0999 V2000
  161.2170  209.3580  150.0860 C   0  0  1  0  0  3  0  0  0  0  0  0
  162.0650  210.7960  151.8490 O   0  0  0  0  0  0  0  0  0  0  0  0
  161.1240  208.3770  151.2450 C   0  0  2  0  0  3  0  0  0  0  0  0
  161.5680  210.7740  150.5270 C   0  0  1  0  0  3  0  0  0  0  0  0
  160.4500  207.2260  150.8150 O   0  0  0  0  0  0  0  0  0  0  0  0
  162.6390  211.2150  149.5520 C   0  0  0  0  0  2  0  0  0  0  0  0
  161.0280  210.4180  152.7450 C   0  0  2  0  0  3  0  0  0  0  0  0
  161.5830  208.0350  148.2010 C   0  0  0  0  0  2  0  0  0  0  0  0
  162.6820  210.1210  148.5030 C   0  0  0  0  0  2  0  0  0  0  0  0
  162.2460  208.9050  149.1670 N   0  0  1  0  0  0  0  0  0  0  0  0
  160.4280  209.0240  152.4390 C   0  0  2  0  0  3  0  0  0  0  0  0
  161.4430  206.4170  150.2380 C   0  0  2  0  0  3  0  0  0  0  0  0
  161.5120  206.5800  148.7050 C   0  0  0  0  0  2  0  0  0  0  0  0
  161.3460  204.6140  151.9630 C   0  0  0  0  0  3  0  0  0  0  0  0
  161.2350  204.9880  150.6190 C   0  0  0  0  0  0  0  0  0  0  0  0
  160.9110  204.0240  149.6540 C   0  0  0  0  0  3  0  0  0  0  0  0
  160.3980  201.7620  149.0970 F   0  0  0  0  0  0  0  0  0  0  0  0
  160.8220  202.3220  151.3760 C   0  0  0  0  0  3  0  0  0  0  0  0
  160.7090  202.6920  150.0320 C   0  0  0  0  0  0  0  0  0  0  0  0
  161.1390  203.2830  152.3410 C   0  0  0  0  0  3  0  0  0  0  0  0
  159.1190  211.2440  154.1020 C   0  0  2  0  0  3  0  0  0  0  0  0
  159.9430  211.4870  152.8490 C   0  0  2  0  0  3  0  0  0  0  0  0
  158.5720  210.8490  152.7450 C   0  0  0  0  0  2  0  0  0  0  0  0
  158.5400  212.4470  154.5050 O   0  0  0  0  0  0  0  0  0  0  0  0
  157.1650  212.2230  154.4190 C   0  0  0  0  0  1  0  0  0  0  0  0
  162.0160  207.4660  153.8560 O   0  0  0  0  0  0  0  0  0  0  0  0
  160.5650  207.9280  153.8750 S   0  0  1  0  0  0  0  0  0  0  0  0
  160.4480  209.0150  155.3180 C   0  0  2  0  0  3  0  0  0  0  0  0
  162.7270  209.8770  155.1220 O   0  0  0  0  0  0  0  0  0  0  0  0
  161.8150  209.2100  155.9700 C   0  0  1  0  0  0  0  0  0  0  0  0
  162.3180  210.5650  156.2830 C   0  0  2  0  0  0  0  0  0  0  0  0
  162.4180  208.1320  156.6250 O   0  0  0  0  0  1  0  0  0  0  0  0
  161.4920  211.6480  155.9750 O   0  0  0  0  0  1  0  0  0  0  0  0
  164.3550  211.7090  157.0550 C   0  0  0  0  0  2  0  0  0  0  0  0
  163.4360  210.7660  157.2580 C   0  0  0  0  0  3  0  0  0  0  0  0
  159.1330  207.1320  155.9780 O   0  0  0  0  0  1  0  0  0  0  0  0
  159.4790  208.4360  156.3350 C   0  0  0  0  0  2  0  0  0  0  0  0
  1  4  1  0  0  0  0
  1  3  1  0  0  0  0
  2  7  1  0  0  0  0
  3 11  1  0  0  0  0
  4  2  1  0  0  0  0
  5  3  1  0  0  0  0
  6  4  1  0  0  0  0
  7 22  1  0  0  0  0
  8 13  1  0  0  0  0
  8 10  1  0  0  0  0
  9 10  1  0  0  0  0
  9  6  1  0  0  0  0
 10  1  1  0  0  0  0
 11  7  1  0  0  0  0
 11 27  1  0  0  0  0
 12 15  1  0  0  0  0
 12  5  1  0  0  0  0
 13 12  1  0  0  0  0
 14 20  1  0  0  0  0
 15 14  2  0  0  0  0
 16 19  2  0  0  0  0
 16 15  1  0  0  0  0
 17 19  1  0  0  0  0
 18 20  2  0  0  0  0
 19 18  1  0  0  0  0
 21 24  1  0  0  0  0
 22 21  1  0  0  0  0
 23 22  1  0  0  0  0
 23 21  1  0  0  0  0
 25 24  1  0  0  0  0
 26 27  2  0  0  0  0
 27 28  1  0  0  0  0
 28 30  1  0  0  0  0
 28 37  1  0  0  0  0
 29 30  1  0  0  0  0
 29 31  1  0  0  0  0
 30 31  1  0  0  0  0
 30 32  1  0  0  0  0
 31 35  1  0  0  0  0
 33 31  1  0  0  0  0
 34 35  2  0  0  0  0
 36 37  1  0  0  0  0
M  END
>  <MODEL>
5

>  <REMARK>
 VINA RESULT:      -4.6      3.223      7.353
  Name = 
  8 active torsions:
  status: ('A' for Active; 'I' for Inactive)
    1  A    between atoms: O_3  and  C_21
    2  A    between atoms: C_6  and  C_31
    3  A    between atoms: C_11  and  C_33
    4  A    between atoms: C_17  and  C_23
    5  A    between atoms: C_20  and  C_25
    6  A    between atoms: C_27  and  C_33
    7  A    between atoms: C_29  and  S_36
    8  A    between atoms: C_33  and  S_36
                            x       y       z     vdW  Elec       q    Type
                         _______ _______ _______ _____ _____    ______ ____

>  <TORSDO>
F 8

$$$$
=
 OpenBabel11062409073D

 37 42  0  0  1  0  0  0  0  0999 V2000
  159.5130  210.5490  153.6680 C   0  0  1  0  0  3  0  0  0  0  0  0
  161.3650  209.2440  154.5400 O   0  0  0  0  0  0  0  0  0  0  0  0
  160.4270  210.6080  152.4520 C   0  0  2  0  0  3  0  0  0  0  0  0
  160.0120  209.5940  154.7460 C   0  0  1  0  0  3  0  0  0  0  0  0
  159.7300  211.1940  151.3860 O   0  0  0  0  0  0  0  0  0  0  0  0
  159.8580  210.3720  156.0350 C   0  0  0  0  0  2  0  0  0  0  0  0
  161.4740  208.4800  153.3460 C   0  0  2  0  0  3  0  0  0  0  0  0
  158.2880  212.5320  153.6010 C   0  0  0  0  0  2  0  0  0  0  0  0
  159.0950  211.6230  155.6430 C   0  0  0  0  0  2  0  0  0  0  0  0
  159.4180  211.8760  154.2500 N   0  0  1  0  0  0  0  0  0  0  0  0
  160.9330  209.2140  152.0950 C   0  0  2  0  0  3  0  0  0  0  0  0
  159.9020  212.5780  151.5570 C   0  0  2  0  0  3  0  0  0  0  0  0
  158.7130  213.2290  152.2930 C   0  0  0  0  0  2  0  0  0  0  0  0
  161.4180  213.7430  149.9510 C   0  0  0  0  0  3  0  0  0  0  0  0
  160.1460  213.2370  150.2390 C   0  0  0  0  0  0  0  0  0  0  0  0
  159.1250  213.3360  149.2820 C   0  0  0  0  0  3  0  0  0  0  0  0
  158.3870  214.0430  147.1270 F   0  0  0  0  0  0  0  0  0  0  0  0
  160.6490  214.4530  147.7650 C   0  0  0  0  0  3  0  0  0  0  0  0
  159.3760  213.9480  148.0490 C   0  0  0  0  0  0  0  0  0  0  0  0
  161.6690  214.3500  148.7160 C   0  0  0  0  0  3  0  0  0  0  0  0
  161.7340  206.0750  152.7840 C   0  0  2  0  0  3  0  0  0  0  0  0
  160.8580  207.0910  153.4950 C   0  0  2  0  0  3  0  0  0  0  0  0
  160.4500  206.5550  152.1380 C   0  0  0  0  0  2  0  0  0  0  0  0
  161.5280  204.8190  153.3540 O   0  0  0  0  0  0  0  0  0  0  0  0
  161.1740  203.9990  152.2820 C   0  0  0  0  0  1  0  0  0  0  0  0
  163.1900  208.2330  151.1460 O   0  0  0  0  0  0  0  0  0  0  0  0
  162.2100  209.3520  150.8180 S   0  0  1  0  0  0  0  0  0  0  0  0
  161.4080  208.8240  149.2820 C   0  0  2  0  0  3  0  0  0  0  0  0
  161.8640  206.4310  149.4760 O   0  0  0  0  0  0  0  0  0  0  0  0
  162.0940  207.5900  148.7020 C   0  0  1  0  0  0  0  0  0  0  0  0
  161.2980  206.4560  148.1850 C   0  0  2  0  0  0  0  0  0  0  0  0
  163.4280  207.6790  148.2950 O   0  0  0  0  0  1  0  0  0  0  0  0
  159.9070  206.5650  148.2350 O   0  0  0  0  0  1  0  0  0  0  0  0
  161.3330  205.1400  146.1060 C   0  0  0  0  0  2  0  0  0  0  0  0
  161.9070  205.4400  147.2690 C   0  0  0  0  0  3  0  0  0  0  0  0
  162.3240  210.9470  148.6720 O   0  0  0  0  0  1  0  0  0  0  0  0
  161.4380  209.9490  148.2610 C   0  0  0  0  0  2  0  0  0  0  0  0
  1 10  1  0  0  0  0
  1  4  1  0  0  0  0
  2  4  1  0  0  0  0
  3  1  1  0  0  0  0
  4  6  1  0  0  0  0
  5 12  1  0  0  0  0
  5  3  1  0  0  0  0
  7 22  1  0  0  0  0
  7  2  1  0  0  0  0
  8 10  1  0  0  0  0
  9  6  1  0  0  0  0
 10  9  1  0  0  0  0
 11  3  1  0  0  0  0
 11  7  1  0  0  0  0
 12 13  1  0  0  0  0
 13  8  1  0  0  0  0
 14 15  1  0  0  0  0
 15 12  1  0  0  0  0
 16 15  2  0  0  0  0
 17 19  1  0  0  0  0
 18 19  2  0  0  0  0
 18 20  1  0  0  0  0
 19 16  1  0  0  0  0
 20 14  2  0  0  0  0
 21 24  1  0  0  0  0
 21 22  1  0  0  0  0
 23 21  1  0  0  0  0
 23 22  1  0  0  0  0
 25 24  1  0  0  0  0
 27 26  2  0  0  0  0
 27 11  1  0  0  0  0
 28 27  1  0  0  0  0
 30 28  1  0  0  0  0
 30 29  1  0  0  0  0
 31 33  1  0  0  0  0
 31 30  1  0  0  0  0
 31 29  1  0  0  0  0
 32 30  1  0  0  0  0
 34 35  2  0  0  0  0
 35 31  1  0  0  0  0
 37 36  1  0  0  0  0
 37 28  1  0  0  0  0
M  END
>  <MODEL>
6

>  <REMARK>
 VINA RESULT:      -3.9      1.902      2.710
  Name = 
  8 active torsions:
  status: ('A' for Active; 'I' for Inactive)
    1  A    between atoms: O_3  and  C_21
    2  A    between atoms: C_6  and  C_31
    3  A    between atoms: C_11  and  C_33
    4  A    between atoms: C_17  and  C_23
    5  A    between atoms: C_20  and  C_25
    6  A    between atoms: C_27  and  C_33
    7  A    between atoms: C_29  and  S_36
    8  A    between atoms: C_33  and  S_36
                            x       y       z     vdW  Elec       q    Type
                         _______ _______ _______ _____ _____    ______ ____

>  <TORSDO>
F 8

$$$$
=
 OpenBabel11062409073D

 37 42  0  0  1  0  0  0  0  0999 V2000
  160.8480  208.3380  154.5190 C   0  0  1  0  0  3  0  0  0  0  0  0
  159.1230  209.9430  155.1060 O   0  0  0  0  0  0  0  0  0  0  0  0
  160.5160  208.8380  153.1210 C   0  0  2  0  0  3  0  0  0  0  0  0
  160.1680  209.1440  155.6200 C   0  0  1  0  0  3  0  0  0  0  0  0
  161.4440  208.3070  152.2140 O   0  0  0  0  0  0  0  0  0  0  0  0
  159.6180  208.0970  156.5650 C   0  0  0  0  0  2  0  0  0  0  0  0
  159.6720  210.9410  154.2560 C   0  0  2  0  0  3  0  0  0  0  0  0
  161.5450  206.1330  154.2230 C   0  0  0  0  0  2  0  0  0  0  0  0
  160.1900  206.7850  156.0640 C   0  0  0  0  0  2  0  0  0  0  0  0
  160.4160  206.9570  154.6400 N   0  0  1  0  0  0  0  0  0  0  0  0
  160.5060  210.3640  153.0870 C   0  0  2  0  0  3  0  0  0  0  0  0
  160.9300  207.0480  151.8640 C   0  0  2  0  0  3  0  0  0  0  0  0
  161.5500  205.9080  152.6980 C   0  0  0  0  0  2  0  0  0  0  0  0
  161.5020  207.8600  149.5720 C   0  0  0  0  0  3  0  0  0  0  0  0
  161.1080  206.8030  150.4010 C   0  0  0  0  0  0  0  0  0  0  0  0
  160.9090  205.5280  149.8530 C   0  0  0  0  0  3  0  0  0  0  0  0
  160.8970  204.0830  147.9560 F   0  0  0  0  0  0  0  0  0  0  0  0
  161.4840  206.3750  147.6580 C   0  0  0  0  0  3  0  0  0  0  0  0
  161.0920  205.3160  148.4820 C   0  0  0  0  0  0  0  0  0  0  0  0
  161.6890  207.6460  148.2030 C   0  0  0  0  0  3  0  0  0  0  0  0
  159.5540  212.5940  156.1060 C   0  0  2  0  0  3  0  0  0  0  0  0
  160.4530  211.9940  155.0390 C   0  0  2  0  0  3  0  0  0  0  0  0
  159.8340  213.3620  154.8300 C   0  0  0  0  0  2  0  0  0  0  0  0
  160.3460  213.0970  157.1370 O   0  0  0  0  0  0  0  0  0  0  0  0
  159.9580  214.4330  157.2600 C   0  0  0  0  0  1  0  0  0  0  0  0
  158.7350  211.8810  151.8540 O   0  0  0  0  0  0  0  0  0  0  0  0
  159.8590  210.9200  151.4880 S   0  0  1  0  0  0  0  0  0  0  0  0
  161.1560  211.9750  150.7910 C   0  0  2  0  0  3  0  0  0  0  0  0
  161.5450  213.4970  148.9190 O   0  0  0  0  0  0  0  0  0  0  0  0
  160.5710  212.9800  149.8020 C   0  0  1  0  0  0  0  0  0  0  0  0
  160.5400  212.6850  148.3530 C   0  0  2  0  0  0  0  0  0  0  0  0
  159.7210  213.9850  150.2740 O   0  0  0  0  0  1  0  0  0  0  0  0
  161.0480  211.4550  147.9320 O   0  0  0  0  0  1  0  0  0  0  0  0
  158.7340  212.8100  146.6870 C   0  0  0  0  0  2  0  0  0  0  0  0
  159.6370  213.4450  147.4310 C   0  0  0  0  0  3  0  0  0  0  0  0
  163.0830  210.5800  151.0280 O   0  0  0  0  0  1  0  0  0  0  0  0
  162.2030  211.1250  150.0910 C   0  0  0  0  0  2  0  0  0  0  0  0
  1 10  1  0  0  0  0
  1  4  1  0  0  0  0
  2  4  1  0  0  0  0
  3  1  1  0  0  0  0
  4  6  1  0  0  0  0
  5  3  1  0  0  0  0
  7 22  1  0  0  0  0
  7  2  1  0  0  0  0
  8 10  1  0  0  0  0
  9  6  1  0  0  0  0
 10  9  1  0  0  0  0
 11  3  1  0  0  0  0
 11  7  1  0  0  0  0
 12  5  1  0  0  0  0
 12 13  1  0  0  0  0
 13  8  1  0  0  0  0
 14 15  1  0  0  0  0
 15 12  1  0  0  0  0
 16 15  2  0  0  0  0
 17 19  1  0  0  0  0
 18 20  1  0  0  0  0
 18 19  2  0  0  0  0
 19 16  1  0  0  0  0
 20 14  2  0  0  0  0
 21 24  1  0  0  0  0
 22 21  1  0  0  0  0
 23 22  1  0  0  0  0
 23 21  1  0  0  0  0
 24 25  1  0  0  0  0
 27 26  2  0  0  0  0
 27 11  1  0  0  0  0
 28 27  1  0  0  0  0
 29 30  1  0  0  0  0
 30 32  1  0  0  0  0
 30 28  1  0  0  0  0
 31 29  1  0  0  0  0
 31 30  1  0  0  0  0
 33 31  1  0  0  0  0
 34 35  2  0  0  0  0
 35 31  1  0  0  0  0
 37 28  1  0  0  0  0
 37 36  1  0  0  0  0
M  END
>  <MODEL>
7

>  <REMARK>
 VINA RESULT:      -3.6      2.561      6.201
  Name = 
  8 active torsions:
  status: ('A' for Active; 'I' for Inactive)
    1  A    between atoms: O_3  and  C_21
    2  A    between atoms: C_6  and  C_31
    3  A    between atoms: C_11  and  C_33
    4  A    between atoms: C_17  and  C_23
    5  A    between atoms: C_20  and  C_25
    6  A    between atoms: C_27  and  C_33
    7  A    between atoms: C_29  and  S_36
    8  A    between atoms: C_33  and  S_36
                            x       y       z     vdW  Elec       q    Type
                         _______ _______ _______ _____ _____    ______ ____

>  <TORSDO>
F 8

$$$$
=
 OpenBabel11062409073D

 37 42  0  0  1  0  0  0  0  0999 V2000
  160.9290  208.4410  154.9880 C   0  0  1  0  0  3  0  0  0  0  0  0
  158.9610  209.5970  155.8180 O   0  0  0  0  0  0  0  0  0  0  0  0
  160.3920  208.9580  153.6620 C   0  0  2  0  0  3  0  0  0  0  0  0
  160.1870  209.0030  156.1950 C   0  0  1  0  0  3  0  0  0  0  0  0
  161.3360  208.7020  152.6570 O   0  0  0  0  0  0  0  0  0  0  0  0
  159.9410  207.7980  157.0780 C   0  0  0  0  0  2  0  0  0  0  0  0
  159.2240  210.7470  155.0250 C   0  0  2  0  0  3  0  0  0  0  0  0
  162.0420  206.4610  154.4600 C   0  0  0  0  0  2  0  0  0  0  0  0
  160.7320  206.6770  156.4310 C   0  0  0  0  0  2  0  0  0  0  0  0
  160.8030  206.9950  155.0160 N   0  0  1  0  0  0  0  0  0  0  0  0
  160.0640  210.4450  153.7600 C   0  0  2  0  0  3  0  0  0  0  0  0
  161.0670  207.3910  152.2310 C   0  0  2  0  0  3  0  0  0  0  0  0
  161.9730  206.3530  152.9240 C   0  0  0  0  0  2  0  0  0  0  0  0
  160.3860  206.3670  150.0570 C   0  0  0  0  0  3  0  0  0  0  0  0
  161.1760  207.2960  150.7450 C   0  0  0  0  0  0  0  0  0  0  0  0
  162.0410  208.1360  150.0290 C   0  0  0  0  0  3  0  0  0  0  0  0
  162.9600  208.8510  147.9480 F   0  0  0  0  0  0  0  0  0  0  0  0
  161.3320  207.1080  147.9530 C   0  0  0  0  0  3  0  0  0  0  0  0
  162.1220  208.0380  148.6360 C   0  0  0  0  0  0  0  0  0  0  0  0
  160.4640  206.2730  148.6640 C   0  0  0  0  0  3  0  0  0  0  0  0
  158.9080  213.0900  155.7870 C   0  0  2  0  0  3  0  0  0  0  0  0
  159.8290  211.8830  155.8460 C   0  0  2  0  0  3  0  0  0  0  0  0
  160.1670  213.0540  154.9440 C   0  0  0  0  0  2  0  0  0  0  0  0
  159.1250  213.8810  156.9150 O   0  0  0  0  0  0  0  0  0  0  0  0
  157.8590  214.3560  157.2610 C   0  0  0  0  0  1  0  0  0  0  0  0
  157.8270  211.4190  152.7590 O   0  0  0  0  0  0  0  0  0  0  0  0
  159.1920  210.9640  152.2600 S   0  0  1  0  0  0  0  0  0  0  0  0
  160.0180  212.4880  151.7320 C   0  0  2  0  0  3  0  0  0  0  0  0
  159.3420  214.3970  150.3640 O   0  0  0  0  0  0  0  0  0  0  0  0
  159.0050  213.6010  151.4820 C   0  0  1  0  0  0  0  0  0  0  0  0
  158.1770  213.6100  150.2560 C   0  0  2  0  0  0  0  0  0  0  0  0
  158.5720  214.3840  152.5560 O   0  0  0  0  0  1  0  0  0  0  0  0
  158.3480  212.5590  149.3520 O   0  0  0  0  0  1  0  0  0  0  0  0
  155.7990  213.9130  149.7030 C   0  0  0  0  0  2  0  0  0  0  0  0
  156.9310  214.4340  150.1730 C   0  0  0  0  0  3  0  0  0  0  0  0
  161.7320  211.2000  150.6730 O   0  0  0  0  0  1  0  0  0  0  0  0
  160.8210  212.2370  150.4660 C   0  0  0  0  0  2  0  0  0  0  0  0
  1 10  1  0  0  0  0
  1  4  1  0  0  0  0
  2  4  1  0  0  0  0
  3 11  1  0  0  0  0
  3  1  1  0  0  0  0
  4  6  1  0  0  0  0
  5  3  1  0  0  0  0
  7  2  1  0  0  0  0
  7 22  1  0  0  0  0
  8 10  1  0  0  0  0
  9  6  1  0  0  0  0
 10  9  1  0  0  0  0
 11  7  1  0  0  0  0
 12  5  1  0  0  0  0
 12 13  1  0  0  0  0
 13  8  1  0  0  0  0
 14 15  1  0  0  0  0
 15 12  1  0  0  0  0
 16 15  2  0  0  0  0
 17 19  1  0  0  0  0
 18 19  2  0  0  0  0
 18 20  1  0  0  0  0
 19 16  1  0  0  0  0
 20 14  2  0  0  0  0
 21 22  1  0  0  0  0
 21 24  1  0  0  0  0
 23 21  1  0  0  0  0
 23 22  1  0  0  0  0
 24 25  1  0  0  0  0
 27 26  2  0  0  0  0
 27 11  1  0  0  0  0
 28 27  1  0  0  0  0
 29 30  1  0  0  0  0
 30 28  1  0  0  0  0
 30 32  1  0  0  0  0
 31 29  1  0  0  0  0
 31 30  1  0  0  0  0
 33 31  1  0  0  0  0
 34 35  2  0  0  0  0
 35 31  1  0  0  0  0
 37 36  1  0  0  0  0
 37 28  1  0  0  0  0
M  END
>  <MODEL>
8

>  <REMARK>
 VINA RESULT:      -3.6      2.531      6.346
  Name = 
  8 active torsions:
  status: ('A' for Active; 'I' for Inactive)
    1  A    between atoms: O_3  and  C_21
    2  A    between atoms: C_6  and  C_31
    3  A    between atoms: C_11  and  C_33
    4  A    between atoms: C_17  and  C_23
    5  A    between atoms: C_20  and  C_25
    6  A    between atoms: C_27  and  C_33
    7  A    between atoms: C_29  and  S_36
    8  A    between atoms: C_33  and  S_36
                            x       y       z     vdW  Elec       q    Type
                         _______ _______ _______ _____ _____    ______ ____

>  <TORSDO>
F 8

$$$$
