=
 OpenBabel11052422583D

 28 32  0  0  1  0  0  0  0  0999 V2000
  160.4330  210.6180  153.7340 N   0  0  0  0  0  0  0  0  0  0  0  0
  161.6000  207.3410  149.4590 C   0  0  0  0  0  2  0  0  0  0  0  0
  160.0730  206.6260  155.4270 C   0  0  0  0  0  1  0  0  0  0  0  0
  160.9890  205.1630  150.5460 C   0  0  0  0  0  0  0  0  0  0  0  0
  161.2400  207.2530  151.9510 C   0  0  1  0  0  3  0  0  0  0  0  0
  161.3200  205.2650  148.1260 C   0  0  0  0  0  0  0  0  0  0  0  0
  160.8150  206.6670  150.5920 C   0  0  1  0  0  3  0  0  0  0  0  0
  161.3450  205.0980  152.9760 C   0  0  0  0  0  2  0  0  0  0  0  0
  161.1730  204.5230  149.3870 C   0  0  0  0  0  3  0  0  0  0  0  0
  161.4810  208.4440  154.3820 C   0  0  2  0  0  3  0  0  0  0  0  0
  160.7430  208.7140  152.0370 C   0  0  0  0  0  2  0  0  0  0  0  0
  160.7680  204.3570  151.7810 C   0  0  0  0  0  2  0  0  0  0  0  0
  162.0950  210.4350  155.5510 C   0  0  0  0  0  2  0  0  0  0  0  0
  161.1610  206.9420  154.4080 C   0  0  2  0  0  3  0  0  0  0  0  0
  161.5390  209.0790  155.6950 N   0  0  0  0  0  2  0  0  0  0  0  0
  161.5070  204.6400  147.0500 O   0  0  0  0  0  0  0  0  0  0  0  0
  161.1940  206.7580  148.1090 C   0  0  0  0  0  2  0  0  0  0  0  0
  160.7460  206.4270  153.0840 N   0  0  1  0  0  0  0  0  0  0  0  0
  161.7230  211.1110  154.2150 C   0  0  0  0  0  2  0  0  0  0  0  0
  160.4760  209.1540  153.4830 C   0  0  2  0  0  3  0  0  0  0  0  0
  160.0610  211.3890  152.5510 C   0  0  0  0  0  2  0  0  0  0  0  0
  158.6010  211.8020  152.6270 C   0  0  1  0  0  3  0  0  0  0  0  0
  157.2040  213.1720  154.0670 C   0  0  0  0  0  0  0  0  0  0  0  0
  158.1720  212.0020  154.0670 C   0  0  0  0  0  2  0  0  0  0  0  0
  158.4060  213.1420  151.9560 C   0  0  0  0  0  2  0  0  0  0  0  0
  157.2390  213.7820  152.6770 C   0  0  0  0  0  2  0  0  0  0  0  0
  155.8030  212.6880  154.3820 C   0  0  0  0  0  1  0  0  0  0  0  0
  157.6360  214.1970  155.0960 C   0  0  0  0  0  1  0  0  0  0  0  0
  1 19  1  0  0  0  0
  4  7  1  0  0  0  0
  4 12  1  0  0  0  0
  5 11  1  1  0  0  0
  5 18  1  0  0  0  0
  6  9  1  0  0  0  0
  7  2  1  6  0  0  0
  7  5  1  0  0  0  0
  9  4  2  0  0  0  0
 10 14  1  0  0  0  0
 10 15  1  1  0  0  0
 12  8  1  0  0  0  0
 13 15  1  0  0  0  0
 14  3  1  1  0  0  0
 16  6  2  0  0  0  0
 17  6  1  0  0  0  0
 17  2  1  0  0  0  0
 18  8  1  6  0  0  0
 18 14  1  0  0  0  0
 19 13  1  0  0  0  0
 20 11  1  6  0  0  0
 20  1  1  0  0  0  0
 20 10  1  0  0  0  0
 21  1  1  0  0  0  0
 22 21  1  1  0  0  0
 22 24  1  0  0  0  0
 23 24  1  0  0  0  0
 23 27  1  0  0  0  0
 23 28  1  0  0  0  0
 25 22  1  0  0  0  0
 25 26  1  0  0  0  0
 26 23  1  0  0  0  0
M  END
>  <MODEL>
1

>  <REMARK>
 VINA RESULT:      -8.5      0.000      0.000
  Name = 
  2 active torsions:
  status: ('A' for Active; 'I' for Inactive)
    1  A    between atoms: N_1  and  C_2
    2  A    between atoms: C_2  and  C_3
                            x       y       z     vdW  Elec       q    Type
                         _______ _______ _______ _____ _____    ______ ____

>  <TORSDO>
F 2

$$$$
=
 OpenBabel11052422583D

 28 32  0  0  1  0  0  0  0  0999 V2000
  159.7810  210.7500  153.5880 N   0  0  0  0  0  0  0  0  0  0  0  0
  161.2020  207.3240  149.5120 C   0  0  0  0  0  2  0  0  0  0  0  0
  160.3710  206.9620  155.6470 C   0  0  0  0  0  1  0  0  0  0  0  0
  161.1330  205.1950  150.8410 C   0  0  0  0  0  0  0  0  0  0  0  0
  161.0850  207.4310  152.0260 C   0  0  1  0  0  3  0  0  0  0  0  0
  161.2270  205.1050  148.3990 C   0  0  0  0  0  0  0  0  0  0  0  0
  160.6680  206.6360  150.7750 C   0  0  1  0  0  3  0  0  0  0  0  0
  161.7040  205.4550  153.2160 C   0  0  0  0  0  2  0  0  0  0  0  0
  161.3400  204.4840  149.7280 C   0  0  0  0  0  3  0  0  0  0  0  0
  161.2930  208.8950  154.3060 C   0  0  2  0  0  3  0  0  0  0  0  0
  160.3160  208.7730  152.0370 C   0  0  0  0  0  2  0  0  0  0  0  0
  161.1850  204.4960  152.1570 C   0  0  0  0  0  2  0  0  0  0  0  0
  161.5980  211.0770  155.2290 C   0  0  0  0  0  2  0  0  0  0  0  0
  161.2820  207.3710  154.4960 C   0  0  2  0  0  3  0  0  0  0  0  0
  161.3370  209.6640  155.5470 N   0  0  0  0  0  2  0  0  0  0  0  0
  161.4410  204.4170  147.3670 O   0  0  0  0  0  0  0  0  0  0  0  0
  160.8050  206.5360  148.2670 C   0  0  0  0  0  2  0  0  0  0  0  0
  160.8650  206.6500  153.2710 N   0  0  1  0  0  0  0  0  0  0  0  0
  160.9840  211.5270  153.8860 C   0  0  0  0  0  2  0  0  0  0  0  0
  160.0930  209.3030  153.4610 C   0  0  2  0  0  3  0  0  0  0  0  0
  159.1630  211.3080  152.3880 C   0  0  0  0  0  2  0  0  0  0  0  0
  160.0560  212.3780  151.7830 C   0  0  1  0  0  3  0  0  0  0  0  0
  160.3960  213.4000  149.6060 C   0  0  0  0  0  0  0  0  0  0  0  0
  160.3620  212.0670  150.3310 C   0  0  0  0  0  2  0  0  0  0  0  0
  159.3360  213.7070  151.7700 C   0  0  0  0  0  2  0  0  0  0  0  0
  159.9010  214.4530  150.5810 C   0  0  0  0  0  2  0  0  0  0  0  0
  161.8140  213.7210  149.1760 C   0  0  0  0  0  1  0  0  0  0  0  0
  159.4910  213.3480  148.3920 C   0  0  0  0  0  1  0  0  0  0  0  0
  1 19  1  0  0  0  0
  4 12  1  0  0  0  0
  5 11  1  1  0  0  0
  5 18  1  0  0  0  0
  6  9  1  0  0  0  0
  7  2  1  6  0  0  0
  7  4  1  0  0  0  0
  7  5  1  0  0  0  0
  9  4  2  0  0  0  0
 10 14  1  0  0  0  0
 10 15  1  1  0  0  0
 12  8  1  0  0  0  0
 13 15  1  0  0  0  0
 14  3  1  1  0  0  0
 16  6  2  0  0  0  0
 17  6  1  0  0  0  0
 17  2  1  0  0  0  0
 18  8  1  6  0  0  0
 18 14  1  0  0  0  0
 19 13  1  0  0  0  0
 20 11  1  6  0  0  0
 20  1  1  0  0  0  0
 20 10  1  0  0  0  0
 21  1  1  0  0  0  0
 22 21  1  6  0  0  0
 23 24  1  0  0  0  0
 23 26  1  0  0  0  0
 24 22  1  0  0  0  0
 25 22  1  0  0  0  0
 26 25  1  0  0  0  0
 27 23  1  0  0  0  0
 28 23  1  0  0  0  0
M  END
>  <MODEL>
2

>  <REMARK>
 VINA RESULT:      -7.0      1.502      2.569
  Name = 
  2 active torsions:
  status: ('A' for Active; 'I' for Inactive)
    1  A    between atoms: N_1  and  C_2
    2  A    between atoms: C_2  and  C_3
                            x       y       z     vdW  Elec       q    Type
                         _______ _______ _______ _____ _____    ______ ____

>  <TORSDO>
F 2

$$$$
=
 OpenBabel11052422583D

 28 32  0  0  1  0  0  0  0  0999 V2000
  162.3350  209.3230  149.5160 N   0  0  0  0  0  0  0  0  0  0  0  0
  159.3820  210.9650  153.8690 C   0  0  0  0  0  2  0  0  0  0  0  0
  162.7170  205.9840  152.2800 C   0  0  0  0  0  1  0  0  0  0  0  0
  160.0320  209.1020  155.4210 C   0  0  0  0  0  0  0  0  0  0  0  0
  160.5420  208.9280  152.9490 C   0  0  1  0  0  3  0  0  0  0  0  0
  158.9230  211.0940  156.3060 C   0  0  0  0  0  0  0  0  0  0  0  0
  160.4060  209.8620  154.1640 C   0  0  1  0  0  3  0  0  0  0  0  0
  160.5070  206.9640  154.3090 C   0  0  0  0  0  2  0  0  0  0  0  0
  159.3870  209.7030  156.4260 C   0  0  0  0  0  3  0  0  0  0  0  0
  161.2910  207.4480  150.7960 C   0  0  2  0  0  3  0  0  0  0  0  0
  161.2260  209.7060  151.8010 C   0  0  0  0  0  2  0  0  0  0  0  0
  160.5480  207.7180  155.6280 C   0  0  0  0  0  2  0  0  0  0  0  0
  161.3710  207.3360  148.4100 C   0  0  0  0  0  2  0  0  0  0  0  0
  161.4010  206.7420  152.1550 C   0  0  2  0  0  3  0  0  0  0  0  0
  161.7610  206.6610  149.6590 N   0  0  0  0  0  2  0  0  0  0  0  0
  158.3050  211.6320  157.2610 O   0  0  0  0  0  0  0  0  0  0  0  0
  159.2300  211.8890  155.0740 C   0  0  0  0  0  2  0  0  0  0  0  0
  161.2760  207.6810  153.2940 N   0  0  1  0  0  0  0  0  0  0  0  0
  161.3570  208.8750  148.5240 C   0  0  0  0  0  2  0  0  0  0  0  0
  162.0190  208.7840  150.8640 C   0  0  2  0  0  3  0  0  0  0  0  0
  162.3850  210.7820  149.4810 C   0  0  0  0  0  2  0  0  0  0  0  0
  162.2070  211.2830  148.0570 C   0  0  1  0  0  3  0  0  0  0  0  0
  161.1360  213.1560  146.9430 C   0  0  0  0  0  0  0  0  0  0  0  0
  160.8850  212.0070  147.9020 C   0  0  0  0  0  2  0  0  0  0  0  0
  163.2700  212.3050  147.7320 C   0  0  0  0  0  2  0  0  0  0  0  0
  162.6350  213.2290  146.7150 C   0  0  0  0  0  2  0  0  0  0  0  0
  160.4260  212.9010  145.6280 C   0  0  0  0  0  1  0  0  0  0  0  0
  160.6390  214.4520  147.5510 C   0  0  0  0  0  1  0  0  0  0  0  0
  1 20  1  0  0  0  0
  2 17  1  0  0  0  0
  4 12  1  0  0  0  0
  4  9  2  0  0  0  0
  5 11  1  6  0  0  0
  5 18  1  0  0  0  0
  5  7  1  0  0  0  0
  6  9  1  0  0  0  0
  6 16  2  0  0  0  0
  7  2  1  6  0  0  0
  7  4  1  0  0  0  0
  8 12  1  0  0  0  0
 10 15  1  6  0  0  0
 10 20  1  0  0  0  0
 10 14  1  0  0  0  0
 13 19  1  0  0  0  0
 13 15  1  0  0  0  0
 14  3  1  6  0  0  0
 14 18  1  0  0  0  0
 17  6  1  0  0  0  0
 18  8  1  1  0  0  0
 19  1  1  0  0  0  0
 20 11  1  6  0  0  0
 21  1  1  0  0  0  0
 22 21  1  1  0  0  0
 23 28  1  0  0  0  0
 23 24  1  0  0  0  0
 24 22  1  0  0  0  0
 25 22  1  0  0  0  0
 26 23  1  0  0  0  0
 26 25  1  0  0  0  0
 27 23  1  0  0  0  0
M  END
>  <MODEL>
3

>  <REMARK>
 VINA RESULT:      -6.3      4.095      6.576
  Name = 
  2 active torsions:
  status: ('A' for Active; 'I' for Inactive)
    1  A    between atoms: N_1  and  C_2
    2  A    between atoms: C_2  and  C_3
                            x       y       z     vdW  Elec       q    Type
                         _______ _______ _______ _____ _____    ______ ____

>  <TORSDO>
F 2

$$$$
=
 OpenBabel11052422583D

 28 32  0  0  1  0  0  0  0  0999 V2000
  160.7840  209.5990  153.1170 N   0  0  0  0  0  0  0  0  0  0  0  0
  162.3930  207.1940  148.4270 C   0  0  0  0  0  2  0  0  0  0  0  0
  160.0940  205.3730  153.8910 C   0  0  0  0  0  1  0  0  0  0  0  0
  161.5850  204.8770  148.9580 C   0  0  0  0  0  0  0  0  0  0  0  0
  161.7150  206.6240  150.7850 C   0  0  1  0  0  3  0  0  0  0  0  0
  162.2260  205.4480  146.6690 C   0  0  0  0  0  0  0  0  0  0  0  0
  161.4510  206.3490  149.2940 C   0  0  1  0  0  3  0  0  0  0  0  0
  161.6240  204.3040  151.3460 C   0  0  0  0  0  2  0  0  0  0  0  0
  161.8980  204.4760  147.7220 C   0  0  0  0  0  3  0  0  0  0  0  0
  161.6770  207.2850  153.4210 C   0  0  2  0  0  3  0  0  0  0  0  0
  161.2540  208.0630  151.1120 C   0  0  0  0  0  2  0  0  0  0  0  0
  161.1840  203.8520  149.9640 C   0  0  0  0  0  2  0  0  0  0  0  0
  162.1940  208.9620  155.0420 C   0  0  0  0  0  2  0  0  0  0  0  0
  161.3120  205.8290  153.0970 C   0  0  2  0  0  3  0  0  0  0  0  0
  161.5840  207.6380  154.8350 N   0  0  0  0  0  2  0  0  0  0  0  0
  162.5320  205.0440  145.5170 O   0  0  0  0  0  0  0  0  0  0  0  0
  162.1470  206.9180  146.9460 C   0  0  0  0  0  2  0  0  0  0  0  0
  161.0560  205.6150  151.6550 N   0  0  1  0  0  0  0  0  0  0  0  0
  162.0160  209.9140  153.8410 C   0  0  0  0  0  2  0  0  0  0  0  0
  160.8160  208.2160  152.5750 C   0  0  2  0  0  3  0  0  0  0  0  0
  160.5900  210.6120  152.0830 C   0  0  0  0  0  2  0  0  0  0  0  0
  159.3620  211.4540  152.3920 C   0  0  1  0  0  3  0  0  0  0  0  0
  158.5550  212.8300  154.2240 C   0  0  0  0  0  0  0  0  0  0  0  0
  159.0610  211.4420  153.8780 C   0  0  0  0  0  2  0  0  0  0  0  0
  159.6250  212.9000  152.0430 C   0  0  0  0  0  2  0  0  0  0  0  0
  158.7660  213.7010  152.9980 C   0  0  0  0  0  2  0  0  0  0  0  0
  157.0810  212.7750  154.5690 C   0  0  0  0  0  1  0  0  0  0  0  0
  159.3370  213.3860  155.3970 C   0  0  0  0  0  1  0  0  0  0  0  0
  1 19  1  0  0  0  0
  4  7  1  0  0  0  0
  4 12  1  0  0  0  0
  5 11  1  1  0  0  0
  5 18  1  0  0  0  0
  6 17  1  0  0  0  0
  6  9  1  0  0  0  0
  7  2  1  6  0  0  0
  7  5  1  0  0  0  0
  9  4  2  0  0  0  0
 10 15  1  1  0  0  0
 12  8  1  0  0  0  0
 14 10  1  0  0  0  0
 14  3  1  1  0  0  0
 15 13  1  0  0  0  0
 16  6  2  0  0  0  0
 17  2  1  0  0  0  0
 18  8  1  6  0  0  0
 18 14  1  0  0  0  0
 19 13  1  0  0  0  0
 20 11  1  6  0  0  0
 20  1  1  0  0  0  0
 20 10  1  0  0  0  0
 21  1  1  0  0  0  0
 22 21  1  1  0  0  0
 22 24  1  0  0  0  0
 23 27  1  0  0  0  0
 23 28  1  0  0  0  0
 24 23  1  0  0  0  0
 25 22  1  0  0  0  0
 25 26  1  0  0  0  0
 26 23  1  0  0  0  0
M  END
>  <MODEL>
4

>  <REMARK>
 VINA RESULT:      -5.7      1.254      1.537
  Name = 
  2 active torsions:
  status: ('A' for Active; 'I' for Inactive)
    1  A    between atoms: N_1  and  C_2
    2  A    between atoms: C_2  and  C_3
                            x       y       z     vdW  Elec       q    Type
                         _______ _______ _______ _____ _____    ______ ____

>  <TORSDO>
F 2

$$$$
=
 OpenBabel11052422583D

 28 32  0  0  1  0  0  0  0  0999 V2000
  161.6090  207.8900  152.6580 N   0  0  0  0  0  0  0  0  0  0  0  0
  160.3730  203.3760  149.7490 C   0  0  0  0  0  2  0  0  0  0  0  0
  163.1080  208.8390  148.6850 C   0  0  0  0  0  1  0  0  0  0  0  0
  161.6200  203.9880  147.6580 C   0  0  0  0  0  0  0  0  0  0  0  0
  161.2040  205.7340  149.4430 C   0  0  1  0  0  3  0  0  0  0  0  0
  160.8260  201.6970  147.9770 C   0  0  0  0  0  0  0  0  0  0  0  0
  161.4800  204.2490  149.1440 C   0  0  1  0  0  3  0  0  0  0  0  0
  161.7470  206.4000  147.2140 C   0  0  0  0  0  2  0  0  0  0  0  0
  161.3590  202.7840  147.1400 C   0  0  0  0  0  3  0  0  0  0  0  0
  161.1800  208.3330  150.2370 C   0  0  2  0  0  3  0  0  0  0  0  0
  161.3910  205.9770  150.9580 C   0  0  0  0  0  2  0  0  0  0  0  0
  162.2330  205.0270  146.7810 C   0  0  0  0  0  2  0  0  0  0  0  0
  160.3920  209.8900  151.8690 C   0  0  0  0  0  2  0  0  0  0  0  0
  161.8060  208.0660  148.8600 C   0  0  2  0  0  3  0  0  0  0  0  0
  161.2370  209.7250  150.6750 N   0  0  0  0  0  2  0  0  0  0  0  0
  160.5750  200.5770  147.4620 O   0  0  0  0  0  0  0  0  0  0  0  0
  160.6310  201.9020  149.4480 C   0  0  0  0  0  2  0  0  0  0  0  0
  162.0640  206.6270  148.6230 N   0  0  1  0  0  0  0  0  0  0  0  0
  160.3570  208.6400  152.7730 C   0  0  0  0  0  2  0  0  0  0  0  0
  161.8270  207.4160  151.2670 C   0  0  2  0  0  3  0  0  0  0  0  0
  161.5810  206.8040  153.6340 C   0  0  0  0  0  2  0  0  0  0  0  0
  161.5960  207.3630  155.0470 C   0  0  1  0  0  3  0  0  0  0  0  0
  160.7290  209.3140  156.2060 C   0  0  0  0  0  0  0  0  0  0  0  0
  161.5800  208.8790  155.0270 C   0  0  0  0  0  2  0  0  0  0  0  0
  160.3400  206.9540  155.7790 C   0  0  0  0  0  2  0  0  0  0  0  0
  160.0800  208.0640  156.7740 C   0  0  0  0  0  2  0  0  0  0  0  0
  161.5970  209.9690  157.2610 C   0  0  0  0  0  1  0  0  0  0  0  0
  159.6650  210.2870  155.7410 C   0  0  0  0  0  1  0  0  0  0  0  0
  1 19  1  0  0  0  0
  1 21  1  0  0  0  0
  4  7  1  0  0  0  0
  5 11  1  1  0  0  0
  6 17  1  0  0  0  0
  7  5  1  0  0  0  0
  7  2  1  6  0  0  0
  9  4  2  0  0  0  0
  9  6  1  0  0  0  0
 10 15  1  1  0  0  0
 10 20  1  0  0  0  0
 12  8  1  0  0  0  0
 12  4  1  0  0  0  0
 13 19  1  0  0  0  0
 14  3  1  1  0  0  0
 14 10  1  0  0  0  0
 15 13  1  0  0  0  0
 16  6  2  0  0  0  0
 17  2  1  0  0  0  0
 18  8  1  6  0  0  0
 18 14  1  0  0  0  0
 18  5  1  0  0  0  0
 20 11  1  1  0  0  0
 20  1  1  0  0  0  0
 22 21  1  6  0  0  0
 22 25  1  0  0  0  0
 23 26  1  0  0  0  0
 23 27  1  0  0  0  0
 24 22  1  0  0  0  0
 24 23  1  0  0  0  0
 25 26  1  0  0  0  0
 28 23  1  0  0  0  0
M  END
>  <MODEL>
5

>  <REMARK>
 VINA RESULT:      -5.7      2.572      4.929
  Name = 
  2 active torsions:
  status: ('A' for Active; 'I' for Inactive)
    1  A    between atoms: N_1  and  C_2
    2  A    between atoms: C_2  and  C_3
                            x       y       z     vdW  Elec       q    Type
                         _______ _______ _______ _____ _____    ______ ____

>  <TORSDO>
F 2

$$$$
