=
 OpenBabel11062410133D

 43 47  0  0  1  0  0  0  0  0999 V2000
  160.9660  203.7590  149.0990 C   0  0  0  0  0  0  0  0  0  0  0  0
  161.9500  208.6520  149.9410 C   0  0  0  0  0  0  0  0  0  0  0  0
  161.2670  209.2780  152.6000 C   0  0  2  0  0  3  0  0  0  0  0  0
  161.5310  206.1030  148.8440 C   0  0  0  0  0  0  0  0  0  0  0  0
  160.8290  203.9390  150.4730 C   0  0  0  0  0  3  0  0  0  0  0  0
  160.7300  202.4180  148.4970 C   0  0  0  0  0  1  0  0  0  0  0  0
  161.3850  206.2970  150.2370 C   0  0  0  0  0  0  0  0  0  0  0  0
  161.3160  204.8400  148.2860 C   0  0  0  0  0  3  0  0  0  0  0  0
  161.0360  205.2000  151.0400 C   0  0  0  0  0  3  0  0  0  0  0  0
  161.4890  207.8000  152.2700 C   0  0  0  0  0  2  0  0  0  0  0  0
  161.5840  207.5810  150.7860 C   0  0  0  0  0  0  0  0  0  0  0  0
  162.0990  208.4350  148.5690 C   0  0  0  0  0  3  0  0  0  0  0  0
  162.1430  210.0460  150.4830 C   0  0  2  0  0  3  0  0  0  0  0  0
  162.2980  210.0880  151.9430 N   0  0  0  0  0  2  0  0  0  0  0  0
  161.8910  207.1690  148.0240 C   0  0  0  0  0  3  0  0  0  0  0  0
  161.2720  209.5270  154.1140 C   0  0  2  0  0  3  0  0  0  0  0  0
  160.4470  208.4760  154.8530 C   0  0  0  0  0  1  0  0  0  0  0  0
  160.7420  210.8560  154.4000 N   0  0  0  0  0  2  0  0  0  0  0  0
  161.0130  211.5660  155.6090 C   0  0  0  0  0  0  0  0  0  0  0  0
  161.9430  211.1930  156.3740 O   0  0  0  0  0  0  0  0  0  0  0  0
  160.1260  212.7080  156.0150 C   0  0  0  0  0  2  0  0  0  0  0  0
  158.8700  212.7800  155.2600 N   0  0  0  0  0  0  0  0  0  0  0  0
  157.8000  212.1370  156.0180 C   0  0  0  0  0  2  0  0  0  0  0  0
  155.8100  210.9540  155.1070 C   0  0  0  0  0  1  0  0  0  0  0  0
  157.3130  210.8950  155.2950 C   0  0  0  0  0  2  0  0  0  0  0  0
  158.5010  214.1700  155.0190 C   0  0  0  0  0  2  0  0  0  0  0  0
  157.3910  214.2390  154.0210 C   0  0  0  0  0  0  0  0  0  0  0  0
  156.2050  214.3580  154.4370 O   0  0  0  0  0  0  0  0  0  0  0  0
  157.6660  214.1890  152.5670 C   0  0  0  0  0  0  0  0  0  0  0  0
  159.2520  214.2280  150.7240 C   0  0  0  0  0  3  0  0  0  0  0  0
  156.8850  214.0020  150.2730 C   0  0  0  0  0  3  0  0  0  0  0  0
  158.2020  214.0870  149.8130 C   0  0  0  0  0  3  0  0  0  0  0  0
  156.6180  214.0550  151.6430 C   0  0  0  0  0  3  0  0  0  0  0  0
  158.9860  214.2810  152.0980 C   0  0  0  0  0  3  0  0  0  0  0  0
  161.0320  210.9780  150.0180 C   0  0  0  0  0  2  0  0  0  0  0  0
  163.4410  212.5980  147.5000 C   0  0  0  0  0  3  0  0  0  0  0  0
  162.5530  213.0400  146.5860 C   0  0  0  0  0  0  0  0  0  0  0  0
  160.6560  212.1970  147.8940 C   0  0  0  0  0  3  0  0  0  0  0  0
  162.9990  211.6790  148.6090 C   0  0  0  0  0  2  0  0  0  0  0  0
  161.5750  212.0470  149.0820 C   0  0  2  0  0  3  0  0  0  0  0  0
  161.1200  212.6920  146.7360 C   0  0  0  0  0  3  0  0  0  0  0  0
  162.9450  213.8300  145.4990 O   0  0  0  0  0  0  0  0  0  0  0  0
  163.0900  213.3140  144.1790 C   0  0  0  0  0  1  0  0  0  0  0  0
  1  5  1  0  0  0  0
  2 13  1  0  0  0  0
  2 11  1  0  0  0  0
  3 16  1  1  0  0  0
  4  7  1  0  0  0  0
  5  9  2  0  0  0  0
  6  1  1  0  0  0  0
  7 11  2  0  0  0  0
  7  9  1  0  0  0  0
  8  4  1  0  0  0  0
  8  1  2  0  0  0  0
 10  3  1  0  0  0  0
 11 10  1  0  0  0  0
 12  2  2  0  0  0  0
 13 35  1  1  0  0  0
 13 14  1  0  0  0  0
 14  3  1  0  0  0  0
 15 12  1  0  0  0  0
 15  4  2  0  0  0  0
 16 18  1  0  0  0  0
 16 17  1  1  0  0  0
 18 19  1  0  0  0  0
 19 21  1  0  0  0  0
 19 20  2  0  0  0  0
 22 21  1  0  0  0  0
 22 23  1  0  0  0  0
 24 25  1  0  0  0  0
 25 23  1  0  0  0  0
 26 22  1  0  0  0  0
 27 28  2  0  0  0  0
 27 26  1  0  0  0  0
 29 27  1  0  0  0  0
 30 34  2  0  0  0  0
 31 33  1  0  0  0  0
 32 31  2  0  0  0  0
 32 30  1  0  0  0  0
 33 29  2  0  0  0  0
 34 29  1  0  0  0  0
 36 39  1  0  0  0  0
 37 41  1  0  0  0  0
 37 36  2  0  0  0  0
 38 40  1  0  0  0  0
 39 40  1  0  0  0  0
 40 35  1  1  0  0  0
 41 38  2  0  0  0  0
 42 37  1  0  0  0  0
 43 42  1  0  0  0  0
M  END
>  <MODEL>
1

>  <REMARK>
 VINA RESULT:      -7.7      0.000      0.000
  Name = 
  12 active torsions:
  status: ('A' for Active; 'I' for Inactive)
    1  A    between atoms: C_1  and  C_34
    2  A    between atoms: C_1  and  C_35
    3  A    between atoms: C_2  and  N_6
    4  A    between atoms: C_2  and  C_13
    5  A    between atoms: C_3  and  N_4
    6  A    between atoms: C_3  and  C_12
    7  A    between atoms: N_4  and  C_15
    8  A    between atoms: N_4  and  C_22
    9  A    between atoms: C_11  and  C_14
   10  A    between atoms: C_14  and  C_22
   11  A    between atoms: C_15  and  C_42
   12  A    between atoms: C_19  and  O_25
                            x       y       z     vdW  Elec       q    Type
                         _______ _______ _______ _____ _____    ______ ____

>  <TORSDO>
F 12

$$$$
=
 OpenBabel11062410133D

 43 47  0  0  1  0  0  0  0  0999 V2000
  161.2040  203.0980  146.7100 C   0  0  0  0  0  0  0  0  0  0  0  0
  160.8200  205.8840  150.9180 C   0  0  0  0  0  0  0  0  0  0  0  0
  162.0020  208.3980  150.4620 C   0  0  2  0  0  3  0  0  0  0  0  0
  160.8150  203.8540  148.9800 C   0  0  0  0  0  0  0  0  0  0  0  0
  161.5900  204.3860  146.3450 C   0  0  0  0  0  3  0  0  0  0  0  0
  161.2120  202.0050  145.7000 C   0  0  0  0  0  1  0  0  0  0  0  0
  161.2150  205.1610  148.6220 C   0  0  0  0  0  0  0  0  0  0  0  0
  160.8180  202.8330  148.0260 C   0  0  0  0  0  3  0  0  0  0  0  0
  161.5960  205.4110  147.2940 C   0  0  0  0  0  3  0  0  0  0  0  0
  161.5950  207.5890  149.2280 C   0  0  0  0  0  2  0  0  0  0  0  0
  161.2280  206.1790  149.5980 C   0  0  0  0  0  0  0  0  0  0  0  0
  160.4200  204.5870  151.2480 C   0  0  0  0  0  3  0  0  0  0  0  0
  160.8480  206.9350  151.9990 C   0  0  2  0  0  3  0  0  0  0  0  0
  160.9500  208.3050  151.4790 N   0  0  0  0  0  2  0  0  0  0  0  0
  160.4170  203.5780  150.2860 C   0  0  0  0  0  3  0  0  0  0  0  0
  162.2780  209.8660  150.1090 C   0  0  2  0  0  3  0  0  0  0  0  0
  161.6890  210.8090  151.1560 C   0  0  0  0  0  1  0  0  0  0  0  0
  161.7150  210.1760  148.7990 N   0  0  0  0  0  2  0  0  0  0  0  0
  161.8310  211.4560  148.1770 C   0  0  0  0  0  0  0  0  0  0  0  0
  162.6580  212.3030  148.6090 O   0  0  0  0  0  0  0  0  0  0  0  0
  160.8990  211.8270  147.0590 C   0  0  0  0  0  2  0  0  0  0  0  0
  160.3920  213.2020  147.1420 N   0  0  0  0  0  0  0  0  0  0  0  0
  160.3720  213.8020  145.8120 C   0  0  0  0  0  2  0  0  0  0  0  0
  159.2960  212.9240  143.7460 C   0  0  0  0  0  1  0  0  0  0  0  0
  160.4180  212.7230  144.7450 C   0  0  0  0  0  2  0  0  0  0  0  0
  159.0360  213.2110  147.6810 C   0  0  0  0  0  2  0  0  0  0  0  0
  159.0290  213.8400  149.0360 C   0  0  0  0  0  0  0  0  0  0  0  0
  160.1180  214.2590  149.5190 O   0  0  0  0  0  0  0  0  0  0  0  0
  157.7710  213.9930  149.8000 C   0  0  0  0  0  0  0  0  0  0  0  0
  155.3410  214.0900  149.8560 C   0  0  0  0  0  3  0  0  0  0  0  0
  156.6030  214.3210  151.9070 C   0  0  0  0  0  3  0  0  0  0  0  0
  155.3760  214.2730  151.2400 C   0  0  0  0  0  3  0  0  0  0  0  0
  157.7950  214.1840  151.1900 C   0  0  0  0  0  3  0  0  0  0  0  0
  156.5350  213.9520  149.1360 C   0  0  0  0  0  3  0  0  0  0  0  0
  161.9420  206.6490  153.0190 C   0  0  0  0  0  2  0  0  0  0  0  0
  161.2200  209.5900  155.3850 C   0  0  0  0  0  3  0  0  0  0  0  0
  160.1810  209.0780  156.0760 C   0  0  0  0  0  0  0  0  0  0  0  0
  160.2850  206.9650  154.8350 C   0  0  0  0  0  3  0  0  0  0  0  0
  161.7390  208.8860  154.1580 C   0  0  0  0  0  2  0  0  0  0  0  0
  161.6550  207.3550  154.3360 C   0  0  2  0  0  3  0  0  0  0  0  0
  159.6140  207.7690  155.6750 C   0  0  0  0  0  3  0  0  0  0  0  0
  159.6240  209.7470  157.1730 O   0  0  0  0  0  0  0  0  0  0  0  0
  159.5560  211.1680  157.2600 C   0  0  0  0  0  1  0  0  0  0  0  0
  1  8  1  0  0  0  0
  2 12  1  0  0  0  0
  2 13  1  0  0  0  0
  3 16  1  6  0  0  0
  3 14  1  0  0  0  0
  4 15  1  0  0  0  0
  5  1  2  0  0  0  0
  5  9  1  0  0  0  0
  6  1  1  0  0  0  0
  7  4  1  0  0  0  0
  7 11  1  0  0  0  0
  8  4  2  0  0  0  0
  9  7  2  0  0  0  0
 10 11  1  0  0  0  0
 10  3  1  0  0  0  0
 11  2  2  0  0  0  0
 13 35  1  1  0  0  0
 14 13  1  0  0  0  0
 15 12  2  0  0  0  0
 16 17  1  1  0  0  0
 18 16  1  0  0  0  0
 19 20  2  0  0  0  0
 19 18  1  0  0  0  0
 21 22  1  0  0  0  0
 21 19  1  0  0  0  0
 22 26  1  0  0  0  0
 23 22  1  0  0  0  0
 24 25  1  0  0  0  0
 25 23  1  0  0  0  0
 26 27  1  0  0  0  0
 27 28  2  0  0  0  0
 27 29  1  0  0  0  0
 29 33  1  0  0  0  0
 30 32  2  0  0  0  0
 32 31  1  0  0  0  0
 33 31  2  0  0  0  0
 34 29  2  0  0  0  0
 34 30  1  0  0  0  0
 36 37  2  0  0  0  0
 37 42  1  0  0  0  0
 38 41  2  0  0  0  0
 39 40  1  0  0  0  0
 39 36  1  0  0  0  0
 40 35  1  6  0  0  0
 40 38  1  0  0  0  0
 41 37  1  0  0  0  0
 42 43  1  0  0  0  0
M  END
>  <MODEL>
2

>  <REMARK>
 VINA RESULT:      -7.4      2.276      6.630
  Name = 
  12 active torsions:
  status: ('A' for Active; 'I' for Inactive)
    1  A    between atoms: C_1  and  C_34
    2  A    between atoms: C_1  and  C_35
    3  A    between atoms: C_2  and  N_6
    4  A    between atoms: C_2  and  C_13
    5  A    between atoms: C_3  and  N_4
    6  A    between atoms: C_3  and  C_12
    7  A    between atoms: N_4  and  C_15
    8  A    between atoms: N_4  and  C_22
    9  A    between atoms: C_11  and  C_14
   10  A    between atoms: C_14  and  C_22
   11  A    between atoms: C_15  and  C_42
   12  A    between atoms: C_19  and  O_25
                            x       y       z     vdW  Elec       q    Type
                         _______ _______ _______ _____ _____    ______ ____

>  <TORSDO>
F 12

$$$$
=
 OpenBabel11062410133D

 43 47  0  0  1  0  0  0  0  0999 V2000
  161.1940  202.9720  146.7610 C   0  0  0  0  0  0  0  0  0  0  0  0
  160.8640  205.9350  150.8510 C   0  0  0  0  0  0  0  0  0  0  0  0
  162.1210  208.3940  150.3030 C   0  0  2  0  0  3  0  0  0  0  0  0
  160.8120  203.8290  148.9960 C   0  0  0  0  0  0  0  0  0  0  0  0
  161.6190  204.2320  146.3480 C   0  0  0  0  0  3  0  0  0  0  0  0
  161.1770  201.8390  145.7960 C   0  0  0  0  0  1  0  0  0  0  0  0
  161.2520  205.1090  148.5890 C   0  0  0  0  0  0  0  0  0  0  0  0
  160.7920  202.7710  148.0840 C   0  0  0  0  0  3  0  0  0  0  0  0
  161.6500  205.2950  147.2550 C   0  0  0  0  0  3  0  0  0  0  0  0
  161.6990  207.5470  149.1000 C   0  0  0  0  0  2  0  0  0  0  0  0
  161.2880  206.1640  149.5240 C   0  0  0  0  0  0  0  0  0  0  0  0
  160.4240  204.6650  151.2300 C   0  0  0  0  0  3  0  0  0  0  0  0
  160.9150  207.0280  151.8890 C   0  0  2  0  0  3  0  0  0  0  0  0
  161.0610  208.3720  151.3150 N   0  0  0  0  0  2  0  0  0  0  0  0
  160.3980  203.6180  150.3090 C   0  0  0  0  0  3  0  0  0  0  0  0
  162.4420  209.8380  149.8940 C   0  0  2  0  0  3  0  0  0  0  0  0
  162.3700  210.7830  151.0910 C   0  0  0  0  0  1  0  0  0  0  0  0
  161.5080  210.2800  148.8640 N   0  0  0  0  0  2  0  0  0  0  0  0
  161.7000  211.4620  148.0860 C   0  0  0  0  0  0  0  0  0  0  0  0
  162.8210  212.0380  148.0640 O   0  0  0  0  0  0  0  0  0  0  0  0
  160.5340  212.0740  147.3630 C   0  0  0  0  0  2  0  0  0  0  0  0
  160.7200  212.1660  145.9100 N   0  0  0  0  0  0  0  0  0  0  0  0
  159.4240  212.1100  145.2410 C   0  0  0  0  0  2  0  0  0  0  0  0
  157.1500  212.3420  146.2250 C   0  0  0  0  0  1  0  0  0  0  0  0
  158.4450  213.0610  145.9060 C   0  0  0  0  0  2  0  0  0  0  0  0
  161.3720  213.4240  145.5610 C   0  0  0  0  0  2  0  0  0  0  0  0
  162.3080  213.2140  144.4150 C   0  0  0  0  0  0  0  0  0  0  0  0
  163.5320  213.0190  144.6560 O   0  0  0  0  0  0  0  0  0  0  0  0
  161.8170  213.2130  143.0190 C   0  0  0  0  0  0  0  0  0  0  0  0
  161.7870  212.2180  140.8000 C   0  0  0  0  0  3  0  0  0  0  0  0
  160.4540  214.1850  141.2560 C   0  0  0  0  0  3  0  0  0  0  0  0
  160.8870  213.1960  140.3690 C   0  0  0  0  0  3  0  0  0  0  0  0
  160.9180  214.1950  142.5740 C   0  0  0  0  0  3  0  0  0  0  0  0
  162.2540  212.2270  142.1200 C   0  0  0  0  0  3  0  0  0  0  0  0
  161.9930  206.7510  152.9290 C   0  0  0  0  0  2  0  0  0  0  0  0
  160.9030  209.6780  155.1690 C   0  0  0  0  0  3  0  0  0  0  0  0
  160.0890  209.0220  156.0210 C   0  0  0  0  0  0  0  0  0  0  0  0
  160.5230  206.8730  154.9200 C   0  0  0  0  0  3  0  0  0  0  0  0
  161.4240  208.9900  153.9340 C   0  0  0  0  0  2  0  0  0  0  0  0
  161.7060  207.4990  154.2220 C   0  0  2  0  0  3  0  0  0  0  0  0
  159.7890  207.5890  155.7850 C   0  0  0  0  0  3  0  0  0  0  0  0
  159.5230  209.6550  157.1350 O   0  0  0  0  0  0  0  0  0  0  0  0
  159.0980  211.0150  157.1190 C   0  0  0  0  0  1  0  0  0  0  0  0
  1  8  1  0  0  0  0
  2 12  1  0  0  0  0
  2 13  1  0  0  0  0
  3 16  1  6  0  0  0
  3 14  1  0  0  0  0
  4 15  1  0  0  0  0
  5  1  2  0  0  0  0
  5  9  1  0  0  0  0
  6  1  1  0  0  0  0
  7  4  1  0  0  0  0
  7 11  1  0  0  0  0
  8  4  2  0  0  0  0
  9  7  2  0  0  0  0
 10 11  1  0  0  0  0
 10  3  1  0  0  0  0
 11  2  2  0  0  0  0
 13 35  1  1  0  0  0
 14 13  1  0  0  0  0
 15 12  2  0  0  0  0
 16 17  1  1  0  0  0
 18 16  1  0  0  0  0
 19 18  1  0  0  0  0
 20 19  2  0  0  0  0
 21 19  1  0  0  0  0
 22 21  1  0  0  0  0
 23 25  1  0  0  0  0
 23 22  1  0  0  0  0
 25 24  1  0  0  0  0
 26 22  1  0  0  0  0
 27 28  2  0  0  0  0
 27 26  1  0  0  0  0
 29 27  1  0  0  0  0
 30 34  1  0  0  0  0
 31 33  2  0  0  0  0
 32 30  2  0  0  0  0
 32 31  1  0  0  0  0
 33 29  1  0  0  0  0
 34 29  2  0  0  0  0
 36 37  2  0  0  0  0
 37 42  1  0  0  0  0
 38 41  2  0  0  0  0
 39 40  1  0  0  0  0
 39 36  1  0  0  0  0
 40 35  1  6  0  0  0
 40 38  1  0  0  0  0
 41 37  1  0  0  0  0
 43 42  1  0  0  0  0
M  END
>  <MODEL>
3

>  <REMARK>
 VINA RESULT:      -7.0      2.868      7.845
  Name = 
  12 active torsions:
  status: ('A' for Active; 'I' for Inactive)
    1  A    between atoms: C_1  and  C_34
    2  A    between atoms: C_1  and  C_35
    3  A    between atoms: C_2  and  N_6
    4  A    between atoms: C_2  and  C_13
    5  A    between atoms: C_3  and  N_4
    6  A    between atoms: C_3  and  C_12
    7  A    between atoms: N_4  and  C_15
    8  A    between atoms: N_4  and  C_22
    9  A    between atoms: C_11  and  C_14
   10  A    between atoms: C_14  and  C_22
   11  A    between atoms: C_15  and  C_42
   12  A    between atoms: C_19  and  O_25
                            x       y       z     vdW  Elec       q    Type
                         _______ _______ _______ _____ _____    ______ ____

>  <TORSDO>
F 12

$$$$
=
 OpenBabel11062410133D

 43 47  0  0  1  0  0  0  0  0999 V2000
  161.5660  203.6980  146.6520 C   0  0  0  0  0  0  0  0  0  0  0  0
  160.9590  206.2330  150.9910 C   0  0  0  0  0  0  0  0  0  0  0  0
  161.9000  208.8640  150.6530 C   0  0  2  0  0  3  0  0  0  0  0  0
  161.1260  204.3050  148.9580 C   0  0  0  0  0  0  0  0  0  0  0  0
  161.8280  205.0320  146.3480 C   0  0  0  0  0  3  0  0  0  0  0  0
  161.6670  202.6600  145.5910 C   0  0  0  0  0  1  0  0  0  0  0  0
  161.4010  205.6600  148.6610 C   0  0  0  0  0  0  0  0  0  0  0  0
  161.2150  203.3360  147.9550 C   0  0  0  0  0  3  0  0  0  0  0  0
  161.7480  206.0080  147.3460 C   0  0  0  0  0  3  0  0  0  0  0  0
  161.5600  208.0800  149.3830 C   0  0  0  0  0  2  0  0  0  0  0  0
  161.3270  206.6260  149.6860 C   0  0  0  0  0  0  0  0  0  0  0  0
  160.6810  204.8900  151.2600 C   0  0  0  0  0  3  0  0  0  0  0  0
  160.8970  207.2290  152.1210 C   0  0  2  0  0  3  0  0  0  0  0  0
  160.8690  208.6260  151.6670 N   0  0  0  0  0  2  0  0  0  0  0  0
  160.7640  203.9320  150.2500 C   0  0  0  0  0  3  0  0  0  0  0  0
  162.0370  210.3660  150.3710 C   0  0  2  0  0  3  0  0  0  0  0  0
  161.1980  211.1930  151.3420 C   0  0  0  0  0  1  0  0  0  0  0  0
  161.6240  210.6530  149.0010 N   0  0  0  0  0  2  0  0  0  0  0  0
  162.1640  211.7250  148.2260 C   0  0  0  0  0  0  0  0  0  0  0  0
  163.2170  212.3120  148.5940 O   0  0  0  0  0  0  0  0  0  0  0  0
  161.4210  212.2160  147.0170 C   0  0  0  0  0  2  0  0  0  0  0  0
  160.1540  212.8870  147.3320 N   0  0  0  0  0  0  0  0  0  0  0  0
  160.3170  213.7140  148.5250 C   0  0  0  0  0  2  0  0  0  0  0  0
  159.2550  214.0920  150.7430 C   0  0  0  0  0  1  0  0  0  0  0  0
  159.0010  213.8260  149.2730 C   0  0  0  0  0  2  0  0  0  0  0  0
  159.7430  213.7420  146.2240 C   0  0  0  0  0  2  0  0  0  0  0  0
  158.8920  212.9670  145.2700 C   0  0  0  0  0  0  0  0  0  0  0  0
  157.8450  212.4100  145.7030 O   0  0  0  0  0  0  0  0  0  0  0  0
  159.2500  212.8640  143.8380 C   0  0  0  0  0  0  0  0  0  0  0  0
  159.1380  213.7430  141.5720 C   0  0  0  0  0  3  0  0  0  0  0  0
  160.3770  211.7120  142.0180 C   0  0  0  0  0  3  0  0  0  0  0  0
  159.9280  212.6840  141.1190 C   0  0  0  0  0  3  0  0  0  0  0  0
  160.0370  211.8010  143.3700 C   0  0  0  0  0  3  0  0  0  0  0  0
  158.7970  213.8330  142.9280 C   0  0  0  0  0  3  0  0  0  0  0  0
  162.0200  206.9970  153.1230 C   0  0  0  0  0  2  0  0  0  0  0  0
  161.4010  209.9060  155.5580 C   0  0  0  0  0  3  0  0  0  0  0  0
  160.2870  209.4570  156.1710 C   0  0  0  0  0  0  0  0  0  0  0  0
  160.2930  207.3850  154.8580 C   0  0  0  0  0  3  0  0  0  0  0  0
  161.9320  209.2040  154.3340 C   0  0  0  0  0  2  0  0  0  0  0  0
  161.7160  207.6790  154.4490 C   0  0  2  0  0  3  0  0  0  0  0  0
  159.6420  208.2120  155.6900 C   0  0  0  0  0  3  0  0  0  0  0  0
  159.7230  210.1310  157.2610 O   0  0  0  0  0  0  0  0  0  0  0  0
  159.1440  211.4290  157.1530 C   0  0  0  0  0  1  0  0  0  0  0  0
  1  8  1  0  0  0  0
  2 12  1  0  0  0  0
  2 13  1  0  0  0  0
  3 16  1  6  0  0  0
  3 14  1  0  0  0  0
  4 15  1  0  0  0  0
  5  1  2  0  0  0  0
  5  9  1  0  0  0  0
  6  1  1  0  0  0  0
  7  4  1  0  0  0  0
  7 11  1  0  0  0  0
  8  4  2  0  0  0  0
  9  7  2  0  0  0  0
 10 11  1  0  0  0  0
 10  3  1  0  0  0  0
 11  2  2  0  0  0  0
 13 35  1  1  0  0  0
 14 13  1  0  0  0  0
 15 12  2  0  0  0  0
 16 17  1  1  0  0  0
 18 16  1  0  0  0  0
 19 20  2  0  0  0  0
 19 18  1  0  0  0  0
 21 22  1  0  0  0  0
 21 19  1  0  0  0  0
 22 23  1  0  0  0  0
 23 25  1  0  0  0  0
 25 24  1  0  0  0  0
 26 22  1  0  0  0  0
 27 28  2  0  0  0  0
 27 26  1  0  0  0  0
 29 27  1  0  0  0  0
 30 34  1  0  0  0  0
 31 33  2  0  0  0  0
 32 30  2  0  0  0  0
 32 31  1  0  0  0  0
 33 29  1  0  0  0  0
 34 29  2  0  0  0  0
 36 37  2  0  0  0  0
 37 42  1  0  0  0  0
 38 41  2  0  0  0  0
 39 40  1  0  0  0  0
 39 36  1  0  0  0  0
 40 35  1  6  0  0  0
 40 38  1  0  0  0  0
 41 37  1  0  0  0  0
 43 42  1  0  0  0  0
M  END
>  <MODEL>
4

>  <REMARK>
 VINA RESULT:      -7.0      2.429      7.135
  Name = 
  12 active torsions:
  status: ('A' for Active; 'I' for Inactive)
    1  A    between atoms: C_1  and  C_34
    2  A    between atoms: C_1  and  C_35
    3  A    between atoms: C_2  and  N_6
    4  A    between atoms: C_2  and  C_13
    5  A    between atoms: C_3  and  N_4
    6  A    between atoms: C_3  and  C_12
    7  A    between atoms: N_4  and  C_15
    8  A    between atoms: N_4  and  C_22
    9  A    between atoms: C_11  and  C_14
   10  A    between atoms: C_14  and  C_22
   11  A    between atoms: C_15  and  C_42
   12  A    between atoms: C_19  and  O_25
                            x       y       z     vdW  Elec       q    Type
                         _______ _______ _______ _____ _____    ______ ____

>  <TORSDO>
F 12

$$$$
=
 OpenBabel11062410133D

 43 47  0  0  1  0  0  0  0  0999 V2000
  161.1940  201.1640  147.3200 C   0  0  0  0  0  0  0  0  0  0  0  0
  160.9630  204.9480  150.6740 C   0  0  0  0  0  0  0  0  0  0  0  0
  161.8530  207.3180  149.4420 C   0  0  2  0  0  3  0  0  0  0  0  0
  160.9590  202.4750  149.3450 C   0  0  0  0  0  0  0  0  0  0  0  0
  161.4190  202.3290  146.5890 C   0  0  0  0  0  3  0  0  0  0  0  0
  161.2060  199.8430  146.6350 C   0  0  0  0  0  1  0  0  0  0  0  0
  161.1970  203.6620  148.6140 C   0  0  0  0  0  0  0  0  0  0  0  0
  160.9640  201.2380  148.6960 C   0  0  0  0  0  3  0  0  0  0  0  0
  161.4220  203.5700  147.2310 C   0  0  0  0  0  3  0  0  0  0  0  0
  161.4060  206.1820  148.5190 C   0  0  0  0  0  2  0  0  0  0  0  0
  161.2100  204.9020  149.2840 C   0  0  0  0  0  0  0  0  0  0  0  0
  160.7200  203.7640  151.3750 C   0  0  0  0  0  3  0  0  0  0  0  0
  160.9970  206.2500  151.4330 C   0  0  2  0  0  3  0  0  0  0  0  0
  160.9190  207.4330  150.5660 N   0  0  0  0  0  2  0  0  0  0  0  0
  160.7180  202.5360  150.7160 C   0  0  0  0  0  3  0  0  0  0  0  0
  161.9540  208.6510  148.6900 C   0  0  2  0  0  3  0  0  0  0  0  0
  163.3780  208.9050  148.1980 C   0  0  0  0  0  1  0  0  0  0  0  0
  161.5360  209.7450  149.5610 N   0  0  0  0  0  2  0  0  0  0  0  0
  161.4130  211.0970  149.1190 C   0  0  0  0  0  0  0  0  0  0  0  0
  161.4010  211.3690  147.8890 O   0  0  0  0  0  0  0  0  0  0  0  0
  161.3910  212.2090  150.1290 C   0  0  0  0  0  2  0  0  0  0  0  0
  160.0610  212.4720  150.6910 N   0  0  0  0  0  0  0  0  0  0  0  0
  160.1120  212.3750  152.1470 C   0  0  0  0  0  2  0  0  0  0  0  0
  158.2070  212.8700  153.6700 C   0  0  0  0  0  1  0  0  0  0  0  0
  158.7880  211.8700  152.6890 C   0  0  0  0  0  2  0  0  0  0  0  0
  159.6120  213.8120  150.3280 C   0  0  0  0  0  2  0  0  0  0  0  0
  158.3630  213.7290  149.5120 C   0  0  0  0  0  0  0  0  0  0  0  0
  157.2480  213.8400  150.0940 O   0  0  0  0  0  0  0  0  0  0  0  0
  158.4200  213.5400  148.0450 C   0  0  0  0  0  0  0  0  0  0  0  0
  157.4970  212.5790  146.0100 C   0  0  0  0  0  3  0  0  0  0  0  0
  159.4840  213.9560  145.8990 C   0  0  0  0  0  3  0  0  0  0  0  0
  158.5120  213.1800  145.2620 C   0  0  0  0  0  3  0  0  0  0  0  0
  159.4390  214.1340  147.2840 C   0  0  0  0  0  3  0  0  0  0  0  0
  157.4510  212.7560  147.3990 C   0  0  0  0  0  3  0  0  0  0  0  0
  162.2070  206.3190  152.3550 C   0  0  0  0  0  2  0  0  0  0  0  0
  160.9130  209.3390  154.3500 C   0  0  0  0  0  3  0  0  0  0  0  0
  160.2300  208.6960  155.3200 C   0  0  0  0  0  0  0  0  0  0  0  0
  160.8480  206.4990  154.4190 C   0  0  0  0  0  3  0  0  0  0  0  0
  161.4400  208.5800  153.1600 C   0  0  0  0  0  2  0  0  0  0  0  0
  161.9090  207.1700  153.5810 C   0  0  2  0  0  3  0  0  0  0  0  0
  160.0850  207.2220  155.2540 C   0  0  0  0  0  3  0  0  0  0  0  0
  159.6590  209.3830  156.3980 O   0  0  0  0  0  0  0  0  0  0  0  0
  159.6130  210.8050  156.4730 C   0  0  0  0  0  1  0  0  0  0  0  0
  1  8  1  0  0  0  0
  2 12  1  0  0  0  0
  2 13  1  0  0  0  0
  3 16  1  6  0  0  0
  3 14  1  0  0  0  0
  4 15  1  0  0  0  0
  5  9  1  0  0  0  0
  5  1  2  0  0  0  0
  6  1  1  0  0  0  0
  7 11  1  0  0  0  0
  7  4  1  0  0  0  0
  8  4  2  0  0  0  0
  9  7  2  0  0  0  0
 10 11  1  0  0  0  0
 10  3  1  0  0  0  0
 11  2  2  0  0  0  0
 13 35  1  6  0  0  0
 14 13  1  0  0  0  0
 15 12  2  0  0  0  0
 16 17  1  1  0  0  0
 16 18  1  0  0  0  0
 19 18  1  0  0  0  0
 19 21  1  0  0  0  0
 20 19  2  0  0  0  0
 21 22  1  0  0  0  0
 22 23  1  0  0  0  0
 23 25  1  0  0  0  0
 25 24  1  0  0  0  0
 26 22  1  0  0  0  0
 27 28  2  0  0  0  0
 27 26  1  0  0  0  0
 29 27  1  0  0  0  0
 30 34  2  0  0  0  0
 31 33  1  0  0  0  0
 32 31  2  0  0  0  0
 32 30  1  0  0  0  0
 33 29  2  0  0  0  0
 34 29  1  0  0  0  0
 36 37  2  0  0  0  0
 37 42  1  0  0  0  0
 38 41  2  0  0  0  0
 39 40  1  0  0  0  0
 39 36  1  0  0  0  0
 40 35  1  6  0  0  0
 40 38  1  0  0  0  0
 41 37  1  0  0  0  0
 42 43  1  0  0  0  0
M  END
>  <MODEL>
5

>  <REMARK>
 VINA RESULT:      -6.7      2.206      5.994
  Name = 
  12 active torsions:
  status: ('A' for Active; 'I' for Inactive)
    1  A    between atoms: C_1  and  C_34
    2  A    between atoms: C_1  and  C_35
    3  A    between atoms: C_2  and  N_6
    4  A    between atoms: C_2  and  C_13
    5  A    between atoms: C_3  and  N_4
    6  A    between atoms: C_3  and  C_12
    7  A    between atoms: N_4  and  C_15
    8  A    between atoms: N_4  and  C_22
    9  A    between atoms: C_11  and  C_14
   10  A    between atoms: C_14  and  C_22
   11  A    between atoms: C_15  and  C_42
   12  A    between atoms: C_19  and  O_25
                            x       y       z     vdW  Elec       q    Type
                         _______ _______ _______ _____ _____    ______ ____

>  <TORSDO>
F 12

$$$$
=
 OpenBabel11062410133D

 43 47  0  0  1  0  0  0  0  0999 V2000
  162.1780  211.8610  148.4070 C   0  0  0  0  0  0  0  0  0  0  0  0
  161.2520  207.5910  150.9620 C   0  0  0  0  0  0  0  0  0  0  0  0
  161.2450  208.1580  153.7200 C   0  0  2  0  0  3  0  0  0  0  0  0
  161.8160  209.5460  149.0290 C   0  0  0  0  0  0  0  0  0  0  0  0
  161.9590  212.2530  149.7260 C   0  0  0  0  0  3  0  0  0  0  0  0
  162.4970  212.8820  147.3720 C   0  0  0  0  0  1  0  0  0  0  0  0
  161.6020  209.9320  150.3720 C   0  0  0  0  0  0  0  0  0  0  0  0
  162.1070  210.5100  148.0600 C   0  0  0  0  0  3  0  0  0  0  0  0
  161.6740  211.2950  150.7030 C   0  0  0  0  0  3  0  0  0  0  0  0
  161.0440  209.3400  152.7680 C   0  0  0  0  0  2  0  0  0  0  0  0
  161.3300  208.9480  151.3450 C   0  0  0  0  0  0  0  0  0  0  0  0
  161.4570  207.2330  149.6270 C   0  0  0  0  0  3  0  0  0  0  0  0
  160.9930  206.5060  151.9760 C   0  0  2  0  0  3  0  0  0  0  0  0
  160.4640  207.0110  153.2490 N   0  0  0  0  0  2  0  0  0  0  0  0
  161.7370  208.2040  148.6660 C   0  0  0  0  0  3  0  0  0  0  0  0
  160.8550  208.5190  155.1590 C   0  0  2  0  0  3  0  0  0  0  0  0
  160.1480  207.3560  155.8510 C   0  0  0  0  0  1  0  0  0  0  0  0
  159.9850  209.6900  155.1590 N   0  0  0  0  0  2  0  0  0  0  0  0
  160.3450  210.9350  155.7590 C   0  0  0  0  0  0  0  0  0  0  0  0
  161.5410  211.1660  156.0850 O   0  0  0  0  0  0  0  0  0  0  0  0
  159.2760  211.9380  156.0890 C   0  0  0  0  0  2  0  0  0  0  0  0
  158.2180  212.0300  155.0750 N   0  0  0  0  0  0  0  0  0  0  0  0
  156.9160  211.8210  155.7010 C   0  0  0  0  0  2  0  0  0  0  0  0
  154.9420  210.3150  155.5300 C   0  0  0  0  0  1  0  0  0  0  0  0
  155.9840  211.0920  154.7500 C   0  0  0  0  0  2  0  0  0  0  0  0
  158.2300  213.3470  154.4480 C   0  0  0  0  0  2  0  0  0  0  0  0
  158.5260  213.2160  152.9890 C   0  0  0  0  0  0  0  0  0  0  0  0
  159.6500  212.7620  152.6350 O   0  0  0  0  0  0  0  0  0  0  0  0
  157.5210  213.5910  151.9690 C   0  0  0  0  0  0  0  0  0  0  0  0
  156.8740  213.8110  149.6350 C   0  0  0  0  0  3  0  0  0  0  0  0
  155.3160  214.4280  151.3810 C   0  0  0  0  0  3  0  0  0  0  0  0
  155.6210  214.2910  150.0240 C   0  0  0  0  0  3  0  0  0  0  0  0
  156.2630  214.0810  152.3490 C   0  0  0  0  0  3  0  0  0  0  0  0
  157.8230  213.4630  150.6040 C   0  0  0  0  0  3  0  0  0  0  0  0
  162.2320  205.6470  152.1940 C   0  0  0  0  0  2  0  0  0  0  0  0
  160.7720  202.2500  151.1430 C   0  0  0  0  0  3  0  0  0  0  0  0
  160.8060  202.3930  149.8020 C   0  0  0  0  0  0  0  0  0  0  0  0
  161.8050  204.6260  149.9760 C   0  0  0  0  0  3  0  0  0  0  0  0
  161.0460  203.4300  152.0400 C   0  0  0  0  0  2  0  0  0  0  0  0
  162.1300  204.3400  151.4230 C   0  0  2  0  0  3  0  0  0  0  0  0
  161.2090  203.6940  149.2170 C   0  0  0  0  0  3  0  0  0  0  0  0
  160.4790  201.3380  148.9410 O   0  0  0  0  0  0  0  0  0  0  0  0
  160.2750  201.5170  147.5420 C   0  0  0  0  0  1  0  0  0  0  0  0
  1  5  1  0  0  0  0
  2 11  1  0  0  0  0
  2 13  1  0  0  0  0
  3 16  1  1  0  0  0
  4  7  1  0  0  0  0
  5  9  2  0  0  0  0
  6  1  1  0  0  0  0
  7  9  1  0  0  0  0
  7 11  2  0  0  0  0
  8  1  2  0  0  0  0
  8  4  1  0  0  0  0
 10  3  1  0  0  0  0
 11 10  1  0  0  0  0
 12  2  2  0  0  0  0
 13 35  1  1  0  0  0
 13 14  1  0  0  0  0
 14  3  1  0  0  0  0
 15  4  2  0  0  0  0
 15 12  1  0  0  0  0
 16 18  1  0  0  0  0
 16 17  1  6  0  0  0
 18 19  1  0  0  0  0
 19 20  2  0  0  0  0
 19 21  1  0  0  0  0
 22 23  1  0  0  0  0
 22 21  1  0  0  0  0
 25 24  1  0  0  0  0
 25 23  1  0  0  0  0
 26 22  1  0  0  0  0
 27 26  1  0  0  0  0
 28 27  2  0  0  0  0
 29 33  1  0  0  0  0
 29 27  1  0  0  0  0
 30 32  2  0  0  0  0
 30 34  1  0  0  0  0
 31 33  2  0  0  0  0
 32 31  1  0  0  0  0
 34 29  2  0  0  0  0
 36 39  1  0  0  0  0
 37 36  2  0  0  0  0
 38 40  1  0  0  0  0
 40 39  1  0  0  0  0
 40 35  1  1  0  0  0
 41 37  1  0  0  0  0
 41 38  2  0  0  0  0
 42 37  1  0  0  0  0
 43 42  1  0  0  0  0
M  END
>  <MODEL>
6

>  <REMARK>
 VINA RESULT:      -5.9      2.355      5.653
  Name = 
  12 active torsions:
  status: ('A' for Active; 'I' for Inactive)
    1  A    between atoms: C_1  and  C_34
    2  A    between atoms: C_1  and  C_35
    3  A    between atoms: C_2  and  N_6
    4  A    between atoms: C_2  and  C_13
    5  A    between atoms: C_3  and  N_4
    6  A    between atoms: C_3  and  C_12
    7  A    between atoms: N_4  and  C_15
    8  A    between atoms: N_4  and  C_22
    9  A    between atoms: C_11  and  C_14
   10  A    between atoms: C_14  and  C_22
   11  A    between atoms: C_15  and  C_42
   12  A    between atoms: C_19  and  O_25
                            x       y       z     vdW  Elec       q    Type
                         _______ _______ _______ _____ _____    ______ ____

>  <TORSDO>
F 12

$$$$
=
 OpenBabel11062410133D

 43 47  0  0  1  0  0  0  0  0999 V2000
  161.7860  204.4750  145.7900 C   0  0  0  0  0  0  0  0  0  0  0  0
  161.0660  206.3850  150.4210 C   0  0  0  0  0  0  0  0  0  0  0  0
  161.8800  209.0800  150.4360 C   0  0  2  0  0  3  0  0  0  0  0  0
  161.3210  204.7520  148.1530 C   0  0  0  0  0  0  0  0  0  0  0  0
  161.9840  205.8480  145.6650 C   0  0  0  0  0  3  0  0  0  0  0  0
  161.9350  203.5910  144.6020 C   0  0  0  0  0  1  0  0  0  0  0  0
  161.5310  206.1460  148.0390 C   0  0  0  0  0  0  0  0  0  0  0  0
  161.4560  203.9280  147.0320 C   0  0  0  0  0  3  0  0  0  0  0  0
  161.8590  206.6790  146.7820 C   0  0  0  0  0  3  0  0  0  0  0  0
  161.5760  208.4550  149.0730 C   0  0  0  0  0  2  0  0  0  0  0  0
  161.4130  206.9640  149.1810 C   0  0  0  0  0  0  0  0  0  0  0  0
  160.8540  205.0080  150.5100 C   0  0  0  0  0  3  0  0  0  0  0  0
  160.9590  207.2200  151.6720 C   0  0  2  0  0  3  0  0  0  0  0  0
  160.8640  208.6620  151.4060 N   0  0  0  0  0  2  0  0  0  0  0  0
  160.9810  204.1950  149.3840 C   0  0  0  0  0  3  0  0  0  0  0  0
  161.9450  210.6110  150.3540 C   0  0  2  0  0  3  0  0  0  0  0  0
  160.7130  211.2540  150.9870 C   0  0  0  0  0  1  0  0  0  0  0  0
  162.0540  211.0290  148.9600 N   0  0  0  0  0  2  0  0  0  0  0  0
  161.7150  212.3400  148.5050 C   0  0  0  0  0  0  0  0  0  0  0  0
  161.5600  213.2820  149.3270 O   0  0  0  0  0  0  0  0  0  0  0  0
  161.4510  212.5740  147.0450 C   0  0  0  0  0  2  0  0  0  0  0  0
  161.1290  213.9680  146.7170 N   0  0  0  0  0  0  0  0  0  0  0  0
  161.6550  214.2990  145.3960 C   0  0  0  0  0  2  0  0  0  0  0  0
  163.6680  213.9390  143.9780 C   0  0  0  0  0  1  0  0  0  0  0  0
  162.7350  213.3120  144.9950 C   0  0  0  0  0  2  0  0  0  0  0  0
  159.6830  214.1650  146.7080 C   0  0  0  0  0  2  0  0  0  0  0  0
  159.0310  213.1190  145.8630 C   0  0  0  0  0  0  0  0  0  0  0  0
  158.3850  212.1940  146.4300 O   0  0  0  0  0  0  0  0  0  0  0  0
  159.1160  213.1680  144.3860 C   0  0  0  0  0  0  0  0  0  0  0  0
  159.8420  212.1770  142.2870 C   0  0  0  0  0  3  0  0  0  0  0  0
  158.6380  214.2760  142.2760 C   0  0  0  0  0  3  0  0  0  0  0  0
  159.2780  213.2440  141.5840 C   0  0  0  0  0  3  0  0  0  0  0  0
  158.5600  214.2390  143.6710 C   0  0  0  0  0  3  0  0  0  0  0  0
  159.7630  212.1380  143.6850 C   0  0  0  0  0  3  0  0  0  0  0  0
  162.0940  206.9120  152.6400 C   0  0  0  0  0  2  0  0  0  0  0  0
  161.3420  209.5930  155.2890 C   0  0  0  0  0  3  0  0  0  0  0  0
  160.3080  209.0040  155.9230 C   0  0  0  0  0  0  0  0  0  0  0  0
  160.4340  207.0270  154.4770 C   0  0  0  0  0  3  0  0  0  0  0  0
  161.8680  209.0220  153.9980 C   0  0  0  0  0  2  0  0  0  0  0  0
  161.8000  207.4790  154.0210 C   0  0  2  0  0  3  0  0  0  0  0  0
  159.7550  207.7360  155.3920 C   0  0  0  0  0  3  0  0  0  0  0  0
  159.7440  209.5530  157.0810 O   0  0  0  0  0  0  0  0  0  0  0  0
  158.8890  210.6930  157.0600 C   0  0  0  0  0  1  0  0  0  0  0  0
  1  8  1  0  0  0  0
  2 12  1  0  0  0  0
  2 13  1  0  0  0  0
  3 16  1  6  0  0  0
  3 14  1  0  0  0  0
  4 15  1  0  0  0  0
  5  1  2  0  0  0  0
  5  9  1  0  0  0  0
  6  1  1  0  0  0  0
  7  4  1  0  0  0  0
  7 11  1  0  0  0  0
  8  4  2  0  0  0  0
  9  7  2  0  0  0  0
 10 11  1  0  0  0  0
 10  3  1  0  0  0  0
 11  2  2  0  0  0  0
 13 35  1  1  0  0  0
 14 13  1  0  0  0  0
 15 12  2  0  0  0  0
 16 17  1  6  0  0  0
 18 16  1  0  0  0  0
 19 18  1  0  0  0  0
 19 20  2  0  0  0  0
 21 19  1  0  0  0  0
 22 21  1  0  0  0  0
 23 22  1  0  0  0  0
 24 25  1  0  0  0  0
 25 23  1  0  0  0  0
 26 22  1  0  0  0  0
 27 28  2  0  0  0  0
 27 26  1  0  0  0  0
 29 27  1  0  0  0  0
 30 34  2  0  0  0  0
 31 33  1  0  0  0  0
 32 31  2  0  0  0  0
 32 30  1  0  0  0  0
 33 29  2  0  0  0  0
 34 29  1  0  0  0  0
 36 37  2  0  0  0  0
 37 42  1  0  0  0  0
 38 41  2  0  0  0  0
 39 40  1  0  0  0  0
 39 36  1  0  0  0  0
 40 35  1  6  0  0  0
 40 38  1  0  0  0  0
 41 37  1  0  0  0  0
 43 42  1  0  0  0  0
M  END
>  <MODEL>
7

>  <REMARK>
 VINA RESULT:      -5.2      2.753      7.498
  Name = 
  12 active torsions:
  status: ('A' for Active; 'I' for Inactive)
    1  A    between atoms: C_1  and  C_34
    2  A    between atoms: C_1  and  C_35
    3  A    between atoms: C_2  and  N_6
    4  A    between atoms: C_2  and  C_13
    5  A    between atoms: C_3  and  N_4
    6  A    between atoms: C_3  and  C_12
    7  A    between atoms: N_4  and  C_15
    8  A    between atoms: N_4  and  C_22
    9  A    between atoms: C_11  and  C_14
   10  A    between atoms: C_14  and  C_22
   11  A    between atoms: C_15  and  C_42
   12  A    between atoms: C_19  and  O_25
                            x       y       z     vdW  Elec       q    Type
                         _______ _______ _______ _____ _____    ______ ____

>  <TORSDO>
F 12

$$$$
=
 OpenBabel11062410133D

 43 47  0  0  1  0  0  0  0  0999 V2000
  160.8840  202.6430  148.7150 C   0  0  0  0  0  0  0  0  0  0  0  0
  161.8700  207.5380  149.5390 C   0  0  0  0  0  0  0  0  0  0  0  0
  161.0520  208.2090  152.1480 C   0  0  2  0  0  3  0  0  0  0  0  0
  161.4860  204.9770  148.4580 C   0  0  0  0  0  0  0  0  0  0  0  0
  160.6750  202.8440  150.0770 C   0  0  0  0  0  3  0  0  0  0  0  0
  160.6670  201.2950  148.1200 C   0  0  0  0  0  1  0  0  0  0  0  0
  161.2670  205.1930  149.8380 C   0  0  0  0  0  0  0  0  0  0  0  0
  161.2880  203.7080  147.9070 C   0  0  0  0  0  3  0  0  0  0  0  0
  160.8640  204.1110  150.6360 C   0  0  0  0  0  3  0  0  0  0  0  0
  161.2770  206.7250  151.8520 C   0  0  0  0  0  2  0  0  0  0  0  0
  161.4490  206.4830  150.3780 C   0  0  0  0  0  0  0  0  0  0  0  0
  162.0910  207.3000  148.1810 C   0  0  0  0  0  3  0  0  0  0  0  0
  162.0480  208.9370  150.0710 C   0  0  2  0  0  3  0  0  0  0  0  0
  162.1240  208.9990  151.5370 N   0  0  0  0  0  2  0  0  0  0  0  0
  161.9000  206.0280  147.6430 C   0  0  0  0  0  3  0  0  0  0  0  0
  160.9780  208.4800  153.6570 C   0  0  2  0  0  3  0  0  0  0  0  0
  160.4590  207.2610  154.4160 C   0  0  0  0  0  1  0  0  0  0  0  0
  160.1090  209.6240  153.9130 N   0  0  0  0  0  2  0  0  0  0  0  0
  160.5990  210.9420  154.1630 C   0  0  0  0  0  0  0  0  0  0  0  0
  161.7970  211.2370  153.9090 O   0  0  0  0  0  0  0  0  0  0  0  0
  159.7040  211.9550  154.8190 C   0  0  0  0  0  2  0  0  0  0  0  0
  159.6110  213.2240  154.0880 N   0  0  0  0  0  0  0  0  0  0  0  0
  159.7170  212.9760  152.6530 C   0  0  0  0  0  2  0  0  0  0  0  0
  158.3420  213.0740  150.5820 C   0  0  0  0  0  1  0  0  0  0  0  0
  158.3440  212.7280  152.0570 C   0  0  0  0  0  2  0  0  0  0  0  0
  158.3320  213.8720  154.3570 C   0  0  0  0  0  2  0  0  0  0  0  0
  158.0340  213.8260  155.8210 C   0  0  0  0  0  0  0  0  0  0  0  0
  158.9420  214.1440  156.6370 O   0  0  0  0  0  0  0  0  0  0  0  0
  156.6950  213.4340  156.3150 C   0  0  0  0  0  0  0  0  0  0  0  0
  154.4170  214.0330  156.9220 C   0  0  0  0  0  3  0  0  0  0  0  0
  155.1490  211.7350  157.1100 C   0  0  0  0  0  3  0  0  0  0  0  0
  154.1490  212.7010  157.2450 C   0  0  0  0  0  3  0  0  0  0  0  0
  156.4170  212.0990  156.6500 C   0  0  0  0  0  3  0  0  0  0  0  0
  155.6880  214.4000  156.4600 C   0  0  0  0  0  3  0  0  0  0  0  0
  160.9730  209.8730  149.5340 C   0  0  0  0  0  2  0  0  0  0  0  0
  163.4610  212.2280  147.7920 C   0  0  0  0  0  3  0  0  0  0  0  0
  162.5950  213.0500  147.1630 C   0  0  0  0  0  0  0  0  0  0  0  0
  160.6590  211.8630  148.0900 C   0  0  0  0  0  3  0  0  0  0  0  0
  162.9690  210.9680  148.4540 C   0  0  0  0  0  2  0  0  0  0  0  0
  161.5780  211.1950  149.0850 C   0  0  2  0  0  3  0  0  0  0  0  0
  161.1440  212.7540  147.2120 C   0  0  0  0  0  3  0  0  0  0  0  0
  163.0290  214.1870  146.4700 O   0  0  0  0  0  0  0  0  0  0  0  0
  162.8200  214.3680  145.0720 C   0  0  0  0  0  1  0  0  0  0  0  0
  1  5  1  0  0  0  0
  2 13  1  0  0  0  0
  2 11  1  0  0  0  0
  3 16  1  1  0  0  0
  4  7  1  0  0  0  0
  5  9  2  0  0  0  0
  6  1  1  0  0  0  0
  7 11  2  0  0  0  0
  7  9  1  0  0  0  0
  8  4  1  0  0  0  0
  8  1  2  0  0  0  0
 10  3  1  0  0  0  0
 11 10  1  0  0  0  0
 12  2  2  0  0  0  0
 13 35  1  1  0  0  0
 13 14  1  0  0  0  0
 14  3  1  0  0  0  0
 15 12  1  0  0  0  0
 15  4  2  0  0  0  0
 16 18  1  0  0  0  0
 16 17  1  1  0  0  0
 18 19  1  0  0  0  0
 19 21  1  0  0  0  0
 20 19  2  0  0  0  0
 22 26  1  0  0  0  0
 22 21  1  0  0  0  0
 23 22  1  0  0  0  0
 24 25  1  0  0  0  0
 25 23  1  0  0  0  0
 26 27  1  0  0  0  0
 27 29  1  0  0  0  0
 27 28  2  0  0  0  0
 29 34  2  0  0  0  0
 29 33  1  0  0  0  0
 30 32  2  0  0  0  0
 31 32  1  0  0  0  0
 33 31  2  0  0  0  0
 34 30  1  0  0  0  0
 36 39  1  0  0  0  0
 37 41  1  0  0  0  0
 37 36  2  0  0  0  0
 38 40  1  0  0  0  0
 39 40  1  0  0  0  0
 40 35  1  6  0  0  0
 41 38  2  0  0  0  0
 42 37  1  0  0  0  0
 43 42  1  0  0  0  0
M  END
>  <MODEL>
8

>  <REMARK>
 VINA RESULT:      -5.2      1.541      3.010
  Name = 
  12 active torsions:
  status: ('A' for Active; 'I' for Inactive)
    1  A    between atoms: C_1  and  C_34
    2  A    between atoms: C_1  and  C_35
    3  A    between atoms: C_2  and  N_6
    4  A    between atoms: C_2  and  C_13
    5  A    between atoms: C_3  and  N_4
    6  A    between atoms: C_3  and  C_12
    7  A    between atoms: N_4  and  C_15
    8  A    between atoms: N_4  and  C_22
    9  A    between atoms: C_11  and  C_14
   10  A    between atoms: C_14  and  C_22
   11  A    between atoms: C_15  and  C_42
   12  A    between atoms: C_19  and  O_25
                            x       y       z     vdW  Elec       q    Type
                         _______ _______ _______ _____ _____    ______ ____

>  <TORSDO>
F 12

$$$$
=
 OpenBabel11062410133D

 43 47  0  0  1  0  0  0  0  0999 V2000
  161.1960  202.1830  147.3950 C   0  0  0  0  0  0  0  0  0  0  0  0
  161.0360  206.1720  150.5060 C   0  0  0  0  0  0  0  0  0  0  0  0
  161.9020  208.4580  149.1090 C   0  0  2  0  0  3  0  0  0  0  0  0
  161.0040  203.6200  149.3370 C   0  0  0  0  0  0  0  0  0  0  0  0
  161.4080  203.2990  146.5870 C   0  0  0  0  0  3  0  0  0  0  0  0
  161.1940  200.8210  146.7950 C   0  0  0  0  0  1  0  0  0  0  0  0
  161.2280  204.7580  148.5280 C   0  0  0  0  0  0  0  0  0  0  0  0
  160.9950  202.3440  148.7670 C   0  0  0  0  0  3  0  0  0  0  0  0
  161.4240  204.5780  147.1490 C   0  0  0  0  0  3  0  0  0  0  0  0
  161.4350  207.2670  148.2690 C   0  0  0  0  0  2  0  0  0  0  0  0
  161.2550  206.0380  149.1170 C   0  0  0  0  0  0  0  0  0  0  0  0
  160.8070  205.0360  151.2860 C   0  0  0  0  0  3  0  0  0  0  0  0
  161.0860  207.5200  151.1800 C   0  0  2  0  0  3  0  0  0  0  0  0
  160.9910  208.6460  150.2420 N   0  0  0  0  0  2  0  0  0  0  0  0
  160.7900  203.7680  150.7060 C   0  0  0  0  0  3  0  0  0  0  0  0
  161.9890  209.7410  148.2720 C   0  0  2  0  0  3  0  0  0  0  0  0
  163.4380  210.0980  147.9510 C   0  0  0  0  0  1  0  0  0  0  0  0
  161.3600  210.8450  148.9900 N   0  0  0  0  0  2  0  0  0  0  0  0
  161.1690  212.1420  148.4240 C   0  0  0  0  0  0  0  0  0  0  0  0
  161.2900  212.3210  147.1830 O   0  0  0  0  0  0  0  0  0  0  0  0
  160.9120  213.3160  149.3260 C   0  0  0  0  0  2  0  0  0  0  0  0
  159.4890  213.6290  149.4990 N   0  0  0  0  0  0  0  0  0  0  0  0
  158.7760  213.3940  148.2470 C   0  0  0  0  0  2  0  0  0  0  0  0
  156.7740  214.1150  146.9570 C   0  0  0  0  0  1  0  0  0  0  0  0
  157.3540  213.9170  148.3430 C   0  0  0  0  0  2  0  0  0  0  0  0
  158.9060  212.7840  150.5350 C   0  0  0  0  0  2  0  0  0  0  0  0
  158.8100  213.5420  151.8190 C   0  0  0  0  0  0  0  0  0  0  0  0
  159.6730  214.4300  152.0670 O   0  0  0  0  0  0  0  0  0  0  0  0
  157.7180  213.2780  152.7830 C   0  0  0  0  0  0  0  0  0  0  0  0
  155.4660  213.7250  153.5840 C   0  0  0  0  0  3  0  0  0  0  0  0
  156.8450  212.0880  154.7140 C   0  0  0  0  0  3  0  0  0  0  0  0
  155.6360  212.7810  154.6000 C   0  0  0  0  0  3  0  0  0  0  0  0
  157.8810  212.3370  153.8110 C   0  0  0  0  0  3  0  0  0  0  0  0
  156.5040  213.9750  152.6790 C   0  0  0  0  0  3  0  0  0  0  0  0
  162.3150  207.6450  152.0720 C   0  0  0  0  0  2  0  0  0  0  0  0
  160.5020  209.9030  154.5990 C   0  0  0  0  0  3  0  0  0  0  0  0
  160.1310  208.9770  155.5070 C   0  0  0  0  0  0  0  0  0  0  0  0
  161.2030  207.1740  154.2360 C   0  0  0  0  0  3  0  0  0  0  0  0
  161.0720  209.4800  153.2700 C   0  0  0  0  0  2  0  0  0  0  0  0
  161.9440  208.2160  153.4320 C   0  0  2  0  0  3  0  0  0  0  0  0
  160.3770  207.5430  155.2270 C   0  0  0  0  0  3  0  0  0  0  0  0
  159.5250  209.3340  156.7180 O   0  0  0  0  0  0  0  0  0  0  0  0
  159.3420  210.6880  157.1220 C   0  0  0  0  0  1  0  0  0  0  0  0
  1  8  1  0  0  0  0
  2 13  1  0  0  0  0
  2 12  1  0  0  0  0
  3 16  1  6  0  0  0
  3 14  1  0  0  0  0
  4 15  1  0  0  0  0
  5  9  1  0  0  0  0
  5  1  2  0  0  0  0
  6  1  1  0  0  0  0
  7 11  1  0  0  0  0
  7  4  1  0  0  0  0
  8  4  2  0  0  0  0
  9  7  2  0  0  0  0
 10  3  1  0  0  0  0
 10 11  1  0  0  0  0
 11  2  2  0  0  0  0
 13 35  1  6  0  0  0
 14 13  1  0  0  0  0
 15 12  2  0  0  0  0
 16 17  1  1  0  0  0
 16 18  1  0  0  0  0
 19 18  1  0  0  0  0
 19 21  1  0  0  0  0
 20 19  2  0  0  0  0
 21 22  1  0  0  0  0
 22 26  1  0  0  0  0
 23 25  1  0  0  0  0
 23 22  1  0  0  0  0
 24 25  1  0  0  0  0
 26 27  1  0  0  0  0
 27 28  2  0  0  0  0
 27 29  1  0  0  0  0
 29 33  1  0  0  0  0
 30 32  2  0  0  0  0
 32 31  1  0  0  0  0
 33 31  2  0  0  0  0
 34 29  2  0  0  0  0
 34 30  1  0  0  0  0
 36 37  2  0  0  0  0
 37 42  1  0  0  0  0
 38 41  2  0  0  0  0
 39 40  1  0  0  0  0
 39 36  1  0  0  0  0
 40 35  1  6  0  0  0
 40 38  1  0  0  0  0
 41 37  1  0  0  0  0
 42 43  1  0  0  0  0
M  END
>  <MODEL>
9

>  <REMARK>
 VINA RESULT:      -5.1      2.106      6.099
  Name = 
  12 active torsions:
  status: ('A' for Active; 'I' for Inactive)
    1  A    between atoms: C_1  and  C_34
    2  A    between atoms: C_1  and  C_35
    3  A    between atoms: C_2  and  N_6
    4  A    between atoms: C_2  and  C_13
    5  A    between atoms: C_3  and  N_4
    6  A    between atoms: C_3  and  C_12
    7  A    between atoms: N_4  and  C_15
    8  A    between atoms: N_4  and  C_22
    9  A    between atoms: C_11  and  C_14
   10  A    between atoms: C_14  and  C_22
   11  A    between atoms: C_15  and  C_42
   12  A    between atoms: C_19  and  O_25
                            x       y       z     vdW  Elec       q    Type
                         _______ _______ _______ _____ _____    ______ ____

>  <TORSDO>
F 12

$$$$
