=
 OpenBabel11052423123D

 27 31  0  0  0  0  0  0  0  0999 V2000
  162.1440  208.5590  148.5080 N   0  0  0  0  0  2  0  0  0  0  0  0
  161.6350  209.6520  150.7050 C   0  0  0  0  0  0  0  0  0  0  0  0
  162.5780  207.3490  151.1260 C   0  0  0  0  0  2  0  0  0  0  0  0
  160.3600  209.4230  154.6740 N   0  0  0  0  0  0  0  0  0  0  0  0
  160.2030  207.3640  156.0820 C   0  0  0  0  0  1  0  0  0  0  0  0
  161.2640  210.9140  151.4330 C   0  0  0  0  0  3  0  0  0  0  0  0
  161.0190  207.4790  153.7100 N   0  0  0  0  0  0  0  0  0  0  0  0
  160.7950  204.5330  149.2730 C   0  0  0  0  0  3  0  0  0  0  0  0
  161.2980  206.0630  153.5350 C   0  0  0  0  0  1  0  0  0  0  0  0
  161.0180  204.4430  147.9640 C   0  0  0  0  0  3  0  0  0  0  0  0
  161.1570  208.4800  152.8240 C   0  0  0  0  0  0  0  0  0  0  0  0
  161.9250  209.7040  149.3670 C   0  0  0  0  0  0  0  0  0  0  0  0
  160.5280  208.0830  154.8180 C   0  0  0  0  0  0  0  0  0  0  0  0
  160.7620  209.6400  153.4060 C   0  0  0  0  0  0  0  0  0  0  0  0
  162.1210  207.2670  148.6590 C   0  0  0  0  0  0  0  0  0  0  0  0
  161.6890  208.4310  151.4890 N   0  0  0  0  0  0  0  0  0  0  0  0
  161.4050  205.4690  150.2240 C   0  0  0  0  0  2  0  0  0  0  0  0
  160.8460  210.9170  152.7050 C   0  0  0  0  0  3  0  0  0  0  0  0
  161.9140  205.2730  147.1500 C   0  0  0  0  0  3  0  0  0  0  0  0
  162.3810  206.4830  147.4450 C   0  0  0  0  0  3  0  0  0  0  0  0
  162.0060  206.6320  149.9760 C   0  0  0  0  0  0  0  0  0  0  0  0
  160.4450  213.2600  146.4780 N   0  0  0  0  0  2  0  0  0  0  0  0
  161.9680  210.9960  148.6340 C   0  0  0  0  0  0  0  0  0  0  0  0
  160.9260  211.4520  147.8650 N   0  0  0  0  0  0  0  0  0  0  0  0
  161.2400  212.6150  147.2640 C   0  0  0  0  0  0  0  0  0  0  0  0
  162.7860  213.0550  147.6550 S   0  0  0  0  0  0  0  0  0  0  0  0
  163.1080  211.7490  148.6330 N   0  0  0  0  0  2  0  0  0  0  0  0
  1 15  1  0  0  0  0
  1 12  1  0  0  0  0
  2  6  1  0  0  0  0
  2 16  1  0  0  0  0
  3 16  1  0  0  0  0
  4 13  2  0  0  0  0
  6 18  2  0  0  0  0
  7 13  1  0  0  0  0
  8 17  1  0  0  0  0
  9  7  1  0  0  0  0
 10  8  2  0  0  0  0
 11 14  2  0  0  0  0
 11  7  1  0  0  0  0
 12  2  2  0  0  0  0
 13  5  1  0  0  0  0
 14  4  1  0  0  0  0
 15 21  2  0  0  0  0
 16 11  1  0  0  0  0
 18 14  1  0  0  0  0
 19 20  2  0  0  0  0
 19 10  1  0  0  0  0
 20 15  1  0  0  0  0
 21 17  1  0  0  0  0
 21  3  1  0  0  0  0
 22 25  2  0  0  0  0
 23 12  1  0  0  0  0
 24 23  2  0  0  0  0
 25 26  1  0  0  0  0
 25 24  1  0  0  0  0
 26 27  1  0  0  0  0
 27 23  1  0  0  0  0
M  END
>  <MODEL>
1

>  <REMARK>
 VINA RESULT:      -9.0      0.000      0.000
  Name = 
  1 active torsions:
  status: ('A' for Active; 'I' for Inactive)
    1  A    between atoms: C_9  and  C_15
                            x       y       z     vdW  Elec       q    Type
                         _______ _______ _______ _____ _____    ______ ____

>  <TORSDO>
F 1

$$$$
=
 OpenBabel11052423123D

 27 31  0  0  0  0  0  0  0  0999 V2000
  161.7450  208.8560  152.1580 N   0  0  0  0  0  2  0  0  0  0  0  0
  161.2920  206.3920  152.1450 C   0  0  0  0  0  0  0  0  0  0  0  0
  162.7400  206.9770  150.1630 C   0  0  0  0  0  2  0  0  0  0  0  0
  160.5890  202.8330  150.0780 N   0  0  0  0  0  0  0  0  0  0  0  0
  161.0410  202.3880  147.6610 C   0  0  0  0  0  1  0  0  0  0  0  0
  160.7560  205.2020  152.8900 C   0  0  0  0  0  3  0  0  0  0  0  0
  161.5180  204.5260  148.8890 N   0  0  0  0  0  0  0  0  0  0  0  0
  161.3740  209.7730  147.9580 C   0  0  0  0  0  3  0  0  0  0  0  0
  162.0640  205.2740  147.7680 C   0  0  0  0  0  1  0  0  0  0  0  0
  161.4490  211.0090  148.4460 C   0  0  0  0  0  3  0  0  0  0  0  0
  161.3330  204.9270  150.1580 C   0  0  0  0  0  0  0  0  0  0  0  0
  161.3970  207.5980  152.7850 C   0  0  0  0  0  0  0  0  0  0  0  0
  161.0510  203.2550  148.8730 C   0  0  0  0  0  0  0  0  0  0  0  0
  160.7780  203.9110  150.8650 C   0  0  0  0  0  0  0  0  0  0  0  0
  162.0120  209.2480  150.9460 C   0  0  0  0  0  0  0  0  0  0  0  0
  161.6950  206.1790  150.7660 N   0  0  0  0  0  0  0  0  0  0  0  0
  161.8860  208.5380  148.5640 C   0  0  0  0  0  2  0  0  0  0  0  0
  160.5060  204.0290  152.2930 C   0  0  0  0  0  3  0  0  0  0  0  0
  162.0440  211.4350  149.7180 C   0  0  0  0  0  3  0  0  0  0  0  0
  162.2800  210.6830  150.7890 C   0  0  0  0  0  3  0  0  0  0  0  0
  162.1950  208.3040  149.8390 C   0  0  0  0  0  0  0  0  0  0  0  0
  161.6030  209.3620  157.2600 N   0  0  0  0  0  2  0  0  0  0  0  0
  161.0790  207.7390  154.2300 C   0  0  0  0  0  0  0  0  0  0  0  0
  161.6360  208.7100  155.0250 N   0  0  0  0  0  0  0  0  0  0  0  0
  161.2270  208.5850  156.3010 C   0  0  0  0  0  0  0  0  0  0  0  0
  160.2170  207.2820  156.4470 S   0  0  0  0  0  0  0  0  0  0  0  0
  160.2650  206.8320  154.8470 N   0  0  0  0  0  2  0  0  0  0  0  0
  1 12  1  0  0  0  0
  2 12  2  0  0  0  0
  2  6  1  0  0  0  0
  3 16  1  0  0  0  0
  4 14  1  0  0  0  0
  5 13  1  0  0  0  0
  7 11  1  0  0  0  0
  8 10  2  0  0  0  0
  8 17  1  0  0  0  0
  9  7  1  0  0  0  0
 10 19  1  0  0  0  0
 11 16  1  0  0  0  0
 11 14  2  0  0  0  0
 12 23  1  0  0  0  0
 13  7  1  0  0  0  0
 13  4  2  0  0  0  0
 14 18  1  0  0  0  0
 15  1  1  0  0  0  0
 16  2  1  0  0  0  0
 17 21  1  0  0  0  0
 18  6  2  0  0  0  0
 19 20  2  0  0  0  0
 20 15  1  0  0  0  0
 21  3  1  0  0  0  0
 21 15  2  0  0  0  0
 23 27  1  0  0  0  0
 23 24  2  0  0  0  0
 24 25  1  0  0  0  0
 25 26  1  0  0  0  0
 25 22  2  0  0  0  0
 27 26  1  0  0  0  0
M  END
>  <MODEL>
2

>  <REMARK>
 VINA RESULT:      -6.2      3.151      6.582
  Name = 
  1 active torsions:
  status: ('A' for Active; 'I' for Inactive)
    1  A    between atoms: C_9  and  C_15
                            x       y       z     vdW  Elec       q    Type
                         _______ _______ _______ _____ _____    ______ ____

>  <TORSDO>
F 1

$$$$
