=
 OpenBabel11052423183D

 27 31  0  0  1  0  0  0  0  0999 V2000
  161.8450  209.0220  148.4260 C   0  0  0  0  0  3  0  0  0  0  0  0
  161.8750  207.9690  150.6460 C   0  0  0  0  0  0  0  0  0  0  0  0
  161.9870  210.3230  150.4180 O   0  0  0  0  0  0  0  0  0  0  0  0
  160.5380  207.7360  154.8120 C   0  0  0  0  0  3  0  0  0  0  0  0
  159.3750  209.8450  155.2320 F   0  0  0  0  0  0  0  0  0  0  0  0
  161.7220  206.9450  151.6190 N   0  0  0  0  0  0  0  0  0  0  0  0
  160.8450  209.7460  153.4070 C   0  0  0  0  0  0  0  0  0  0  0  0
  160.5060  211.4340  153.0490 Cl  0  0  0  0  0  0  0  0  0  0  0  0
  161.9610  209.0380  152.6720 C   0  0  1  0  0  3  0  0  0  0  0  0
  161.8090  207.8110  149.2150 N   0  0  0  0  0  0  0  0  0  0  0  0
  160.2610  209.1560  154.4700 C   0  0  0  0  0  0  0  0  0  0  0  0
  161.7690  207.5490  152.7650 C   0  0  0  0  0  0  0  0  0  0  0  0
  161.9330  210.2340  149.0130 C   0  0  0  0  0  0  0  0  0  0  0  0
  161.9340  209.1630  151.1930 C   0  0  0  0  0  0  0  0  0  0  0  0
  161.2440  206.9490  153.9920 C   0  0  0  0  0  3  0  0  0  0  0  0
  161.5970  204.0560  147.2900 N   0  0  0  0  0  0  0  0  0  0  0  0
  161.7260  206.5260  148.5600 C   0  0  0  0  0  0  0  0  0  0  0  0
  161.1290  205.4230  149.1900 C   0  0  0  0  0  3  0  0  0  0  0  0
  161.0720  204.1910  148.5360 C   0  0  0  0  0  3  0  0  0  0  0  0
  162.1860  205.1010  146.6520 C   0  0  0  0  0  3  0  0  0  0  0  0
  162.2620  206.3490  147.2740 C   0  0  0  0  0  3  0  0  0  0  0  0
  160.8700  213.0000  146.6720 C   0  0  0  0  0  3  0  0  0  0  0  0
  162.0060  213.8110  146.6560 C   0  0  0  0  0  3  0  0  0  0  0  0
  160.8530  211.8340  147.4440 C   0  0  0  0  0  3  0  0  0  0  0  0
  163.1270  213.4580  147.4130 C   0  0  0  0  0  3  0  0  0  0  0  0
  163.1100  212.2930  148.1840 C   0  0  0  0  0  3  0  0  0  0  0  0
  161.9710  211.4690  148.2060 C   0  0  0  0  0  0  0  0  0  0  0  0
  1 13  2  0  0  0  0
  1 10  1  0  0  0  0
  2 14  2  0  0  0  0
  2  6  1  0  0  0  0
  3 14  1  0  0  0  0
  6 12  2  0  0  0  0
  7 11  2  0  0  0  0
  8  7  1  0  0  0  0
  9 14  1  6  0  0  0
  9 12  1  0  0  0  0
  9  7  1  0  0  0  0
 10  2  1  0  0  0  0
 11  4  1  0  0  0  0
 11  5  1  0  0  0  0
 12 15  1  0  0  0  0
 13  3  1  0  0  0  0
 15  4  2  0  0  0  0
 16 19  1  0  0  0  0
 17 18  1  0  0  0  0
 17 10  1  0  0  0  0
 19 18  2  0  0  0  0
 20 21  1  0  0  0  0
 20 16  2  0  0  0  0
 21 17  2  0  0  0  0
 22 24  1  0  0  0  0
 23 22  2  0  0  0  0
 23 25  1  0  0  0  0
 24 27  2  0  0  0  0
 25 26  2  0  0  0  0
 26 27  1  0  0  0  0
 27 13  1  0  0  0  0
M  END
>  <MODEL>
1

>  <REMARK>
 VINA RESULT:      -8.7      0.000      0.000
  Name = 
  2 active torsions:
  status: ('A' for Active; 'I' for Inactive)
    1  A    between atoms: C_9  and  N_15
    2  A    between atoms: C_18  and  C_26
                            x       y       z     vdW  Elec       q    Type
                         _______ _______ _______ _____ _____    ______ ____

>  <TORSDO>
F 2

$$$$
=
 OpenBabel11052423183D

 27 31  0  0  1  0  0  0  0  0999 V2000
  161.7960  208.8800  149.0050 C   0  0  0  0  0  3  0  0  0  0  0  0
  161.1810  210.0080  151.0990 C   0  0  0  0  0  0  0  0  0  0  0  0
  160.9950  207.6570  150.8880 O   0  0  0  0  0  0  0  0  0  0  0  0
  161.2480  210.3130  155.4690 C   0  0  0  0  0  3  0  0  0  0  0  0
  162.1030  208.1590  156.2490 F   0  0  0  0  0  0  0  0  0  0  0  0
  161.1050  211.0560  152.0560 N   0  0  0  0  0  0  0  0  0  0  0  0
  161.2430  208.2740  154.0710 C   0  0  0  0  0  0  0  0  0  0  0  0
  161.5670  206.5590  153.8580 Cl  0  0  0  0  0  0  0  0  0  0  0  0
  160.4380  209.0160  153.0270 C   0  0  1  0  0  3  0  0  0  0  0  0
  161.6740  210.1140  149.7490 N   0  0  0  0  0  0  0  0  0  0  0  0
  161.5250  208.8680  155.2490 C   0  0  0  0  0  0  0  0  0  0  0  0
  160.6860  210.4950  153.1480 C   0  0  0  0  0  0  0  0  0  0  0  0
  161.4650  207.6950  149.5600 C   0  0  0  0  0  0  0  0  0  0  0  0
  160.8910  208.8390  151.6240 C   0  0  0  0  0  0  0  0  0  0  0  0
  160.8630  211.1080  154.4640 C   0  0  0  0  0  3  0  0  0  0  0  0
  162.7070  213.7690  147.8990 N   0  0  0  0  0  0  0  0  0  0  0  0
  162.0250  211.3690  149.1260 C   0  0  0  0  0  0  0  0  0  0  0  0
  161.2260  212.5120  149.2870 C   0  0  0  0  0  3  0  0  0  0  0  0
  161.5850  213.7080  148.6650 C   0  0  0  0  0  3  0  0  0  0  0  0
  163.5010  212.6810  147.7190 C   0  0  0  0  0  3  0  0  0  0  0  0
  163.1740  211.4660  148.3250 C   0  0  0  0  0  3  0  0  0  0  0  0
  161.2190  204.0380  148.6500 C   0  0  0  0  0  3  0  0  0  0  0  0
  161.8070  204.0210  147.3840 C   0  0  0  0  0  3  0  0  0  0  0  0
  161.1100  205.2410  149.3540 C   0  0  0  0  0  3  0  0  0  0  0  0
  162.2880  205.2060  146.8200 C   0  0  0  0  0  3  0  0  0  0  0  0
  162.1800  206.4080  147.5240 C   0  0  0  0  0  3  0  0  0  0  0  0
  161.5890  206.4370  148.7990 C   0  0  0  0  0  0  0  0  0  0  0  0
  1 13  2  0  0  0  0
  1 10  1  0  0  0  0
  2 14  2  0  0  0  0
  2  6  1  0  0  0  0
  3 14  1  0  0  0  0
  6 12  2  0  0  0  0
  7 11  2  0  0  0  0
  8  7  1  0  0  0  0
  9 14  1  6  0  0  0
  9 12  1  0  0  0  0
  9  7  1  0  0  0  0
 10  2  1  0  0  0  0
 11  4  1  0  0  0  0
 11  5  1  0  0  0  0
 12 15  1  0  0  0  0
 13  3  1  0  0  0  0
 15  4  2  0  0  0  0
 16 19  1  0  0  0  0
 17 18  1  0  0  0  0
 17 10  1  0  0  0  0
 19 18  2  0  0  0  0
 20 16  2  0  0  0  0
 20 21  1  0  0  0  0
 21 17  2  0  0  0  0
 22 24  1  0  0  0  0
 23 22  2  0  0  0  0
 25 23  1  0  0  0  0
 25 26  2  0  0  0  0
 26 27  1  0  0  0  0
 27 24  2  0  0  0  0
 27 13  1  0  0  0  0
M  END
>  <MODEL>
2

>  <REMARK>
 VINA RESULT:      -8.4      2.258      5.554
  Name = 
  2 active torsions:
  status: ('A' for Active; 'I' for Inactive)
    1  A    between atoms: C_9  and  N_15
    2  A    between atoms: C_18  and  C_26
                            x       y       z     vdW  Elec       q    Type
                         _______ _______ _______ _____ _____    ______ ____

>  <TORSDO>
F 2

$$$$
=
 OpenBabel11052423183D

 27 31  0  0  1  0  0  0  0  0999 V2000
  161.4670  210.4620  151.7550 C   0  0  0  0  0  3  0  0  0  0  0  0
  162.0630  209.0070  149.8670 C   0  0  0  0  0  0  0  0  0  0  0  0
  161.8350  208.1260  152.0520 O   0  0  0  0  0  0  0  0  0  0  0  0
  161.6100  205.3040  147.5700 C   0  0  0  0  0  3  0  0  0  0  0  0
  160.2990  203.8170  149.0020 F   0  0  0  0  0  0  0  0  0  0  0  0
  162.2330  208.6120  148.5120 N   0  0  0  0  0  0  0  0  0  0  0  0
  161.3820  205.6380  150.0090 C   0  0  0  0  0  0  0  0  0  0  0  0
  160.7720  205.1260  151.5770 Cl  0  0  0  0  0  0  0  0  0  0  0  0
  162.4120  206.7430  149.9340 C   0  0  1  0  0  3  0  0  0  0  0  0
  161.7380  210.3290  150.3410 N   0  0  0  0  0  0  0  0  0  0  0  0
  161.0970  204.9100  148.9090 C   0  0  0  0  0  0  0  0  0  0  0  0
  162.4280  207.3310  148.5490 C   0  0  0  0  0  0  0  0  0  0  0  0
  161.5170  209.3940  152.5780 C   0  0  0  0  0  0  0  0  0  0  0  0
  162.0790  207.9800  150.6850 C   0  0  0  0  0  0  0  0  0  0  0  0
  162.2340  206.4720  147.3810 C   0  0  0  0  0  3  0  0  0  0  0  0
  161.5940  213.7480  147.8630 N   0  0  0  0  0  0  0  0  0  0  0  0
  161.6880  211.4920  149.4850 C   0  0  0  0  0  0  0  0  0  0  0  0
  162.4620  211.5700  148.3160 C   0  0  0  0  0  3  0  0  0  0  0  0
  162.4010  212.7100  147.5140 C   0  0  0  0  0  3  0  0  0  0  0  0
  160.8350  213.7070  148.9890 C   0  0  0  0  0  3  0  0  0  0  0  0
  160.8690  212.5830  149.8170 C   0  0  0  0  0  3  0  0  0  0  0  0
  160.4620  208.5500  156.1050 C   0  0  0  0  0  3  0  0  0  0  0  0
  160.7040  209.7540  156.7690 C   0  0  0  0  0  3  0  0  0  0  0  0
  160.7300  208.4390  154.7370 C   0  0  0  0  0  3  0  0  0  0  0  0
  161.2140  210.8500  156.0670 C   0  0  0  0  0  3  0  0  0  0  0  0
  161.4820  210.7390  154.7000 C   0  0  0  0  0  3  0  0  0  0  0  0
  161.2420  209.5310  154.0210 C   0  0  0  0  0  0  0  0  0  0  0  0
  1 13  2  0  0  0  0
  2 10  1  0  0  0  0
  2 14  2  0  0  0  0
  3 13  1  0  0  0  0
  4 11  1  0  0  0  0
  6 12  2  0  0  0  0
  6  2  1  0  0  0  0
  7  8  1  0  0  0  0
  9 12  1  6  0  0  0
  9  7  1  0  0  0  0
  9 14  1  0  0  0  0
 10  1  1  0  0  0  0
 11  5  1  0  0  0  0
 11  7  2  0  0  0  0
 13 27  1  0  0  0  0
 14  3  1  0  0  0  0
 15  4  2  0  0  0  0
 15 12  1  0  0  0  0
 16 20  1  0  0  0  0
 17 21  1  0  0  0  0
 17 10  1  0  0  0  0
 18 17  2  0  0  0  0
 19 16  2  0  0  0  0
 19 18  1  0  0  0  0
 20 21  2  0  0  0  0
 22 23  1  0  0  0  0
 24 22  2  0  0  0  0
 25 23  2  0  0  0  0
 26 25  1  0  0  0  0
 27 26  2  0  0  0  0
 27 24  1  0  0  0  0
M  END
>  <MODEL>
3

>  <REMARK>
 VINA RESULT:      -8.1      2.818      6.720
  Name = 
  2 active torsions:
  status: ('A' for Active; 'I' for Inactive)
    1  A    between atoms: C_9  and  N_15
    2  A    between atoms: C_18  and  C_26
                            x       y       z     vdW  Elec       q    Type
                         _______ _______ _______ _____ _____    ______ ____

>  <TORSDO>
F 2

$$$$
=
 OpenBabel11052423183D

 27 31  0  0  1  0  0  0  0  0999 V2000
  161.5920  209.5260  150.4440 C   0  0  0  0  0  3  0  0  0  0  0  0
  160.9200  207.1670  150.3000 C   0  0  0  0  0  0  0  0  0  0  0  0
  161.2630  208.4510  148.3410 O   0  0  0  0  0  0  0  0  0  0  0  0
  161.2980  203.1560  148.5800 C   0  0  0  0  0  3  0  0  0  0  0  0
  162.6920  203.4400  146.5910 F   0  0  0  0  0  0  0  0  0  0  0  0
  160.6880  205.8360  150.7400 N   0  0  0  0  0  0  0  0  0  0  0  0
  161.6410  205.3400  147.4750 C   0  0  0  0  0  0  0  0  0  0  0  0
  162.3310  206.3150  146.1850 Cl  0  0  0  0  0  0  0  0  0  0  0  0
  160.5980  205.9440  148.3890 C   0  0  1  0  0  3  0  0  0  0  0  0
  161.2540  208.2980  151.1290 N   0  0  0  0  0  0  0  0  0  0  0  0
  161.8800  204.0130  147.5130 C   0  0  0  0  0  0  0  0  0  0  0  0
  160.5080  205.1420  149.6600 C   0  0  0  0  0  0  0  0  0  0  0  0
  161.5930  209.5950  149.0960 C   0  0  0  0  0  0  0  0  0  0  0  0
  160.9540  207.2540  148.9900 C   0  0  0  0  0  0  0  0  0  0  0  0
  160.6540  203.6880  149.6250 C   0  0  0  0  0  3  0  0  0  0  0  0
  161.2200  208.1990  155.3520 N   0  0  0  0  0  0  0  0  0  0  0  0
  161.2500  208.2560  152.5730 C   0  0  0  0  0  0  0  0  0  0  0  0
  161.2200  207.0370  153.2670 C   0  0  0  0  0  3  0  0  0  0  0  0
  161.2070  207.0280  154.6620 C   0  0  0  0  0  3  0  0  0  0  0  0
  161.2460  209.3980  154.7120 C   0  0  0  0  0  3  0  0  0  0  0  0
  161.2600  209.4470  153.3170 C   0  0  0  0  0  3  0  0  0  0  0  0
  161.2980  212.6430  146.8860 C   0  0  0  0  0  3  0  0  0  0  0  0
  162.5510  213.2350  147.0500 C   0  0  0  0  0  3  0  0  0  0  0  0
  160.9910  211.4550  147.5570 C   0  0  0  0  0  3  0  0  0  0  0  0
  163.5010  212.6410  147.8860 C   0  0  0  0  0  3  0  0  0  0  0  0
  163.1950  211.4530  148.5560 C   0  0  0  0  0  3  0  0  0  0  0  0
  161.9360  210.8490  148.3980 C   0  0  0  0  0  0  0  0  0  0  0  0
  1 10  1  0  0  0  0
  2  6  1  0  0  0  0
  2 10  1  0  0  0  0
  3 14  1  0  0  0  0
  3 13  1  0  0  0  0
  4 15  2  0  0  0  0
  5 11  1  0  0  0  0
  7 11  2  0  0  0  0
  8  7  1  0  0  0  0
  9  7  1  6  0  0  0
  9 14  1  0  0  0  0
  9 12  1  0  0  0  0
 10 17  1  0  0  0  0
 11  4  1  0  0  0  0
 12  6  2  0  0  0  0
 13  1  2  0  0  0  0
 14  2  2  0  0  0  0
 15 12  1  0  0  0  0
 17 18  2  0  0  0  0
 17 21  1  0  0  0  0
 18 19  1  0  0  0  0
 19 16  2  0  0  0  0
 20 16  1  0  0  0  0
 21 20  2  0  0  0  0
 22 23  2  0  0  0  0
 22 24  1  0  0  0  0
 23 25  1  0  0  0  0
 24 27  2  0  0  0  0
 25 26  2  0  0  0  0
 27 26  1  0  0  0  0
 27 13  1  0  0  0  0
M  END
>  <MODEL>
4

>  <REMARK>
 VINA RESULT:      -7.7      3.048      5.465
  Name = 
  2 active torsions:
  status: ('A' for Active; 'I' for Inactive)
    1  A    between atoms: C_9  and  N_15
    2  A    between atoms: C_18  and  C_26
                            x       y       z     vdW  Elec       q    Type
                         _______ _______ _______ _____ _____    ______ ____

>  <TORSDO>
F 2

$$$$
=
 OpenBabel11052423183D

 27 31  0  0  1  0  0  0  0  0999 V2000
  161.0070  205.7990  152.4630 C   0  0  0  0  0  3  0  0  0  0  0  0
  161.7320  208.0850  151.9290 C   0  0  0  0  0  0  0  0  0  0  0  0
  161.8900  206.3560  150.3200 O   0  0  0  0  0  0  0  0  0  0  0  0
  161.8820  211.5480  149.2500 C   0  0  0  0  0  3  0  0  0  0  0  0
  161.0490  210.7330  147.1010 F   0  0  0  0  0  0  0  0  0  0  0  0
  161.8630  209.4920  152.0780 N   0  0  0  0  0  0  0  0  0  0  0  0
  161.8020  209.1500  148.6580 C   0  0  0  0  0  0  0  0  0  0  0  0
  161.4550  207.8630  147.5100 Cl  0  0  0  0  0  0  0  0  0  0  0  0
  162.5610  208.8320  149.9280 C   0  0  1  0  0  3  0  0  0  0  0  0
  161.1750  207.1690  152.8930 N   0  0  0  0  0  0  0  0  0  0  0  0
  161.5830  210.4350  148.3110 C   0  0  0  0  0  0  0  0  0  0  0  0
  162.3310  209.9160  150.9450 C   0  0  0  0  0  0  0  0  0  0  0  0
  161.3550  205.4110  151.2180 C   0  0  0  0  0  0  0  0  0  0  0  0
  162.0390  207.6870  150.7160 C   0  0  0  0  0  0  0  0  0  0  0  0
  162.2230  211.3120  150.5220 C   0  0  0  0  0  3  0  0  0  0  0  0
  160.1070  208.2710  156.8290 N   0  0  0  0  0  0  0  0  0  0  0  0
  160.8040  207.5540  154.2350 C   0  0  0  0  0  0  0  0  0  0  0  0
  160.8090  208.9000  154.6350 C   0  0  0  0  0  3  0  0  0  0  0  0
  160.4550  209.2410  155.9410 C   0  0  0  0  0  3  0  0  0  0  0  0
  160.0950  206.9590  156.4770 C   0  0  0  0  0  3  0  0  0  0  0  0
  160.4430  206.5790  155.1790 C   0  0  0  0  0  3  0  0  0  0  0  0
  160.6630  202.4200  149.0190 C   0  0  0  0  0  3  0  0  0  0  0  0
  160.8490  201.3620  149.9110 C   0  0  0  0  0  3  0  0  0  0  0  0
  160.8310  203.7390  149.4520 C   0  0  0  0  0  3  0  0  0  0  0  0
  161.2030  201.6220  151.2380 C   0  0  0  0  0  3  0  0  0  0  0  0
  161.3690  202.9400  151.6720 C   0  0  0  0  0  3  0  0  0  0  0  0
  161.1850  204.0120  150.7810 C   0  0  0  0  0  0  0  0  0  0  0  0
  1 10  1  0  0  0  0
  2  6  1  0  0  0  0
  2 10  1  0  0  0  0
  3 14  1  0  0  0  0
  3 13  1  0  0  0  0
  4 15  2  0  0  0  0
  5 11  1  0  0  0  0
  8  7  1  0  0  0  0
  9  7  1  6  0  0  0
  9 14  1  0  0  0  0
  9 12  1  0  0  0  0
 10 17  1  0  0  0  0
 11  7  2  0  0  0  0
 11  4  1  0  0  0  0
 12  6  2  0  0  0  0
 13  1  2  0  0  0  0
 14  2  2  0  0  0  0
 15 12  1  0  0  0  0
 17 18  2  0  0  0  0
 17 21  1  0  0  0  0
 18 19  1  0  0  0  0
 19 16  2  0  0  0  0
 20 16  1  0  0  0  0
 21 20  2  0  0  0  0
 22 24  2  0  0  0  0
 22 23  1  0  0  0  0
 23 25  2  0  0  0  0
 24 27  1  0  0  0  0
 25 26  1  0  0  0  0
 27 13  1  0  0  0  0
 27 26  2  0  0  0  0
M  END
>  <MODEL>
5

>  <REMARK>
 VINA RESULT:      -7.2      3.111      7.424
  Name = 
  2 active torsions:
  status: ('A' for Active; 'I' for Inactive)
    1  A    between atoms: C_9  and  N_15
    2  A    between atoms: C_18  and  C_26
                            x       y       z     vdW  Elec       q    Type
                         _______ _______ _______ _____ _____    ______ ____

>  <TORSDO>
F 2

$$$$
=
 OpenBabel11052423183D

 27 31  0  0  1  0  0  0  0  0999 V2000
  161.5790  209.5660  149.7720 C   0  0  0  0  0  3  0  0  0  0  0  0
  161.0730  209.5030  152.1760 C   0  0  0  0  0  0  0  0  0  0  0  0
  161.2570  211.5660  151.0290 O   0  0  0  0  0  0  0  0  0  0  0  0
  158.7870  210.8440  155.6640 C   0  0  0  0  0  3  0  0  0  0  0  0
  157.5770  212.8310  154.9120 F   0  0  0  0  0  0  0  0  0  0  0  0
  160.6850  208.9460  153.4240 N   0  0  0  0  0  0  0  0  0  0  0  0
  159.4350  212.1390  153.6600 C   0  0  0  0  0  0  0  0  0  0  0  0
  159.2060  213.5040  152.5750 Cl  0  0  0  0  0  0  0  0  0  0  0  0
  160.6870  211.2980  153.5470 C   0  0  1  0  0  3  0  0  0  0  0  0
  161.3460  208.7770  150.9610 N   0  0  0  0  0  0  0  0  0  0  0  0
  158.6110  211.9770  154.7160 C   0  0  0  0  0  0  0  0  0  0  0  0
  160.4650  209.9610  154.2000 C   0  0  0  0  0  0  0  0  0  0  0  0
  161.5360  210.9150  149.8110 C   0  0  0  0  0  0  0  0  0  0  0  0
  161.0120  210.8150  152.1810 C   0  0  0  0  0  0  0  0  0  0  0  0
  159.6600  209.8610  155.4170 C   0  0  0  0  0  3  0  0  0  0  0  0
  161.5390  204.5630  150.7290 N   0  0  0  0  0  0  0  0  0  0  0  0
  161.4090  207.3350  150.8920 C   0  0  0  0  0  0  0  0  0  0  0  0
  162.0180  206.5830  151.9080 C   0  0  0  0  0  3  0  0  0  0  0  0
  162.0720  205.1920  151.8100 C   0  0  0  0  0  3  0  0  0  0  0  0
  160.9450  205.2600  149.7250 C   0  0  0  0  0  3  0  0  0  0  0  0
  160.8710  206.6530  149.7880 C   0  0  0  0  0  3  0  0  0  0  0  0
  163.3350  212.8250  147.0950 C   0  0  0  0  0  3  0  0  0  0  0  0
  162.2720  213.2520  146.2960 C   0  0  0  0  0  3  0  0  0  0  0  0
  163.0870  212.0620  148.2400 C   0  0  0  0  0  3  0  0  0  0  0  0
  160.9600  212.9170  146.6420 C   0  0  0  0  0  3  0  0  0  0  0  0
  160.7120  212.1550  147.7870 C   0  0  0  0  0  3  0  0  0  0  0  0
  161.7750  211.7200  148.5980 C   0  0  0  0  0  0  0  0  0  0  0  0
  1 13  2  0  0  0  0
  1 10  1  0  0  0  0
  2 14  2  0  0  0  0
  2  6  1  0  0  0  0
  3 14  1  0  0  0  0
  6 12  2  0  0  0  0
  7 11  2  0  0  0  0
  8  7  1  0  0  0  0
  9 14  1  6  0  0  0
  9  7  1  0  0  0  0
  9 12  1  0  0  0  0
 10  2  1  0  0  0  0
 11  5  1  0  0  0  0
 11  4  1  0  0  0  0
 12 15  1  0  0  0  0
 13  3  1  0  0  0  0
 15  4  2  0  0  0  0
 16 19  1  0  0  0  0
 17 10  1  0  0  0  0
 17 18  1  0  0  0  0
 19 18  2  0  0  0  0
 20 21  1  0  0  0  0
 20 16  2  0  0  0  0
 21 17  2  0  0  0  0
 22 24  1  0  0  0  0
 23 25  1  0  0  0  0
 23 22  2  0  0  0  0
 24 27  2  0  0  0  0
 25 26  2  0  0  0  0
 26 27  1  0  0  0  0
 27 13  1  0  0  0  0
M  END
>  <MODEL>
6

>  <REMARK>
 VINA RESULT:      -6.2      1.814      2.673
  Name = 
  2 active torsions:
  status: ('A' for Active; 'I' for Inactive)
    1  A    between atoms: C_9  and  N_15
    2  A    between atoms: C_18  and  C_26
                            x       y       z     vdW  Elec       q    Type
                         _______ _______ _______ _____ _____    ______ ____

>  <TORSDO>
F 2

$$$$
=
 OpenBabel11052423183D

 27 31  0  0  1  0  0  0  0  0999 V2000
  161.8750  210.2800  151.4300 C   0  0  0  0  0  3  0  0  0  0  0  0
  161.1450  207.9350  151.4910 C   0  0  0  0  0  0  0  0  0  0  0  0
  161.3150  209.0990  149.4360 O   0  0  0  0  0  0  0  0  0  0  0  0
  161.2660  203.8260  149.9770 C   0  0  0  0  0  3  0  0  0  0  0  0
  162.4580  203.9620  147.8470 F   0  0  0  0  0  0  0  0  0  0  0  0
  160.9310  206.6370  152.0280 N   0  0  0  0  0  0  0  0  0  0  0  0
  161.5400  205.9360  148.7190 C   0  0  0  0  0  0  0  0  0  0  0  0
  162.1160  206.8190  147.3120 Cl  0  0  0  0  0  0  0  0  0  0  0  0
  160.6070  206.6160  149.6960 C   0  0  1  0  0  3  0  0  0  0  0  0
  161.5830  209.1020  152.2150 N   0  0  0  0  0  0  0  0  0  0  0  0
  161.7550  204.6070  148.8100 C   0  0  0  0  0  0  0  0  0  0  0  0
  160.6290  205.8900  151.0130 C   0  0  0  0  0  0  0  0  0  0  0  0
  161.7420  210.2740  150.0870 C   0  0  0  0  0  0  0  0  0  0  0  0
  161.0480  207.9480  150.1810 C   0  0  0  0  0  0  0  0  0  0  0  0
  160.7410  204.4320  151.0480 C   0  0  0  0  0  3  0  0  0  0  0  0
  161.9990  209.1830  156.4190 N   0  0  0  0  0  0  0  0  0  0  0  0
  161.7240  209.1400  153.6520 C   0  0  0  0  0  0  0  0  0  0  0  0
  162.4920  210.1310  154.2840 C   0  0  0  0  0  3  0  0  0  0  0  0
  162.6170  210.1370  155.6740 C   0  0  0  0  0  3  0  0  0  0  0  0
  161.2510  208.2070  155.8400 C   0  0  0  0  0  3  0  0  0  0  0  0
  161.1020  208.1680  154.4520 C   0  0  0  0  0  3  0  0  0  0  0  0
  161.7110  213.8530  148.8820 C   0  0  0  0  0  3  0  0  0  0  0  0
  162.5760  213.7920  147.7870 C   0  0  0  0  0  3  0  0  0  0  0  0
  161.4440  212.7010  149.6290 C   0  0  0  0  0  3  0  0  0  0  0  0
  163.1750  212.5780  147.4370 C   0  0  0  0  0  3  0  0  0  0  0  0
  162.9080  211.4270  148.1820 C   0  0  0  0  0  3  0  0  0  0  0  0
  162.0390  211.4780  149.2860 C   0  0  0  0  0  0  0  0  0  0  0  0
  1 10  1  0  0  0  0
  2  6  1  0  0  0  0
  2 10  1  0  0  0  0
  3 13  1  0  0  0  0
  3 14  1  0  0  0  0
  4 15  2  0  0  0  0
  5 11  1  0  0  0  0
  7 11  2  0  0  0  0
  8  7  1  0  0  0  0
  9  7  1  6  0  0  0
  9 14  1  0  0  0  0
  9 12  1  0  0  0  0
 10 17  1  0  0  0  0
 11  4  1  0  0  0  0
 12 15  1  0  0  0  0
 12  6  2  0  0  0  0
 13  1  2  0  0  0  0
 14  2  2  0  0  0  0
 17 18  2  0  0  0  0
 17 21  1  0  0  0  0
 18 19  1  0  0  0  0
 19 16  2  0  0  0  0
 20 16  1  0  0  0  0
 21 20  2  0  0  0  0
 22 24  1  0  0  0  0
 23 22  2  0  0  0  0
 25 23  1  0  0  0  0
 25 26  2  0  0  0  0
 26 27  1  0  0  0  0
 27 24  2  0  0  0  0
 27 13  1  0  0  0  0
M  END
>  <MODEL>
7

>  <REMARK>
 VINA RESULT:      -6.2      2.970      5.461
  Name = 
  2 active torsions:
  status: ('A' for Active; 'I' for Inactive)
    1  A    between atoms: C_9  and  N_15
    2  A    between atoms: C_18  and  C_26
                            x       y       z     vdW  Elec       q    Type
                         _______ _______ _______ _____ _____    ______ ____

>  <TORSDO>
F 2

$$$$
=
 OpenBabel11052423183D

 27 31  0  0  1  0  0  0  0  0999 V2000
  161.1320  210.4960  140.7650 C   0  0  0  0  0  3  0  0  0  0  0  0
  159.3990  212.2340  140.6500 C   0  0  0  0  0  0  0  0  0  0  0  0
  159.5390  210.5490  138.9930 O   0  0  0  0  0  0  0  0  0  0  0  0
  155.2530  213.4980  140.0120 C   0  0  0  0  0  3  0  0  0  0  0  0
  154.1350  211.5570  139.0320 F   0  0  0  0  0  0  0  0  0  0  0  0
  158.5700  213.2970  141.0980 N   0  0  0  0  0  0  0  0  0  0  0  0
  156.4760  211.6390  138.9350 C   0  0  0  0  0  0  0  0  0  0  0  0
  156.4890  210.1090  138.0680 Cl  0  0  0  0  0  0  0  0  0  0  0  0
  157.7570  212.4330  139.0640 C   0  0  1  0  0  3  0  0  0  0  0  0
  160.5290  211.6730  141.3480 N   0  0  0  0  0  0  0  0  0  0  0  0
  155.3010  212.1970  139.2930 C   0  0  0  0  0  0  0  0  0  0  0  0
  157.6390  213.4100  140.2030 C   0  0  0  0  0  0  0  0  0  0  0  0
  160.6500  209.9570  139.6250 C   0  0  0  0  0  0  0  0  0  0  0  0
  158.9340  211.6740  139.5560 C   0  0  0  0  0  0  0  0  0  0  0  0
  156.3670  214.0800  140.4700 C   0  0  0  0  0  3  0  0  0  0  0  0
  162.1310  213.3420  144.8840 N   0  0  0  0  0  0  0  0  0  0  0  0
  161.0720  212.2360  142.5630 C   0  0  0  0  0  0  0  0  0  0  0  0
  160.3040  212.3210  143.7340 C   0  0  0  0  0  3  0  0  0  0  0  0
  160.8530  212.8780  144.8900 C   0  0  0  0  0  3  0  0  0  0  0  0
  162.9010  213.2780  143.7660 C   0  0  0  0  0  3  0  0  0  0  0  0
  162.3870  212.7270  142.5910 C   0  0  0  0  0  3  0  0  0  0  0  0
  161.9620  207.5230  137.0530 C   0  0  0  0  0  3  0  0  0  0  0  0
  162.4370  206.4860  137.8590 C   0  0  0  0  0  3  0  0  0  0  0  0
  161.3800  208.6530  137.6360 C   0  0  0  0  0  3  0  0  0  0  0  0
  162.3310  206.5780  139.2500 C   0  0  0  0  0  3  0  0  0  0  0  0
  161.7500  207.7070  139.8330 C   0  0  0  0  0  3  0  0  0  0  0  0
  161.2680  208.7560  139.0300 C   0  0  0  0  0  0  0  0  0  0  0  0
  1 10  1  0  0  0  0
  2  6  1  0  0  0  0
  2 10  1  0  0  0  0
  3 14  1  0  0  0  0
  3 13  1  0  0  0  0
  4 15  2  0  0  0  0
  5 11  1  0  0  0  0
  7 11  2  0  0  0  0
  8  7  1  0  0  0  0
  9  7  1  1  0  0  0
  9 14  1  0  0  0  0
  9 12  1  0  0  0  0
 10 17  1  0  0  0  0
 11  4  1  0  0  0  0
 12 15  1  0  0  0  0
 12  6  2  0  0  0  0
 13  1  2  0  0  0  0
 14  2  2  0  0  0  0
 16 19  1  0  0  0  0
 17 21  2  0  0  0  0
 17 18  1  0  0  0  0
 18 19  2  0  0  0  0
 20 16  2  0  0  0  0
 21 20  1  0  0  0  0
 22 24  2  0  0  0  0
 22 23  1  0  0  0  0
 23 25  2  0  0  0  0
 24 27  1  0  0  0  0
 25 26  1  0  0  0  0
 27 13  1  0  0  0  0
 27 26  2  0  0  0  0
M  END
>  <MODEL>
8

>  <REMARK>
 VINA RESULT:      -6.0      8.703     12.052
  Name = 
  2 active torsions:
  status: ('A' for Active; 'I' for Inactive)
    1  A    between atoms: C_9  and  N_15
    2  A    between atoms: C_18  and  C_26
                            x       y       z     vdW  Elec       q    Type
                         _______ _______ _______ _____ _____    ______ ____

>  <TORSDO>
F 2

$$$$
=
 OpenBabel11052423183D

 27 31  0  0  1  0  0  0  0  0999 V2000
  161.5140  206.9860  149.3340 C   0  0  0  0  0  3  0  0  0  0  0  0
  161.6680  209.3440  150.0080 C   0  0  0  0  0  0  0  0  0  0  0  0
  161.7770  208.7250  147.7250 O   0  0  0  0  0  0  0  0  0  0  0  0
  160.5760  213.5600  149.5360 C   0  0  0  0  0  3  0  0  0  0  0  0
  159.4490  213.6930  147.3710 F   0  0  0  0  0  0  0  0  0  0  0  0
  161.5690  210.4790  150.8570 N   0  0  0  0  0  0  0  0  0  0  0  0
  160.8080  211.8280  147.7880 C   0  0  0  0  0  0  0  0  0  0  0  0
  160.4560  211.2180  146.1770 Cl  0  0  0  0  0  0  0  0  0  0  0  0
  161.8770  211.1580  148.6230 C   0  0  1  0  0  3  0  0  0  0  0  0
  161.5190  207.9640  150.3980 N   0  0  0  0  0  0  0  0  0  0  0  0
  160.2850  213.0060  148.1880 C   0  0  0  0  0  0  0  0  0  0  0  0
  161.6850  211.5060  150.0740 C   0  0  0  0  0  0  0  0  0  0  0  0
  161.6400  207.3600  148.0430 C   0  0  0  0  0  0  0  0  0  0  0  0
  161.7640  209.6820  148.7420 C   0  0  0  0  0  0  0  0  0  0  0  0
  161.2300  212.8420  150.4570 C   0  0  0  0  0  3  0  0  0  0  0  0
  161.1220  206.7260  154.4180 N   0  0  0  0  0  0  0  0  0  0  0  0
  161.3930  207.5360  151.7720 C   0  0  0  0  0  0  0  0  0  0  0  0
  161.6810  206.2160  152.1540 C   0  0  0  0  0  3  0  0  0  0  0  0
  161.5410  205.8280  153.4870 C   0  0  0  0  0  3  0  0  0  0  0  0
  160.8310  208.0110  154.0830 C   0  0  0  0  0  3  0  0  0  0  0  0
  160.9600  208.4360  152.7590 C   0  0  0  0  0  3  0  0  0  0  0  0
  162.7220  204.5050  145.8190 C   0  0  0  0  0  3  0  0  0  0  0  0
  161.6680  204.4430  144.9040 C   0  0  0  0  0  3  0  0  0  0  0  0
  162.7050  205.4590  146.8420 C   0  0  0  0  0  3  0  0  0  0  0  0
  160.5970  205.3350  145.0100 C   0  0  0  0  0  3  0  0  0  0  0  0
  160.5820  206.2890  146.0310 C   0  0  0  0  0  3  0  0  0  0  0  0
  161.6370  206.3600  146.9570 C   0  0  0  0  0  0  0  0  0  0  0  0
  1 10  1  0  0  0  0
  2 10  1  0  0  0  0
  2  6  1  0  0  0  0
  3 13  1  0  0  0  0
  3 14  1  0  0  0  0
  4 15  2  0  0  0  0
  5 11  1  0  0  0  0
  7 11  2  0  0  0  0
  8  7  1  0  0  0  0
  9  7  1  6  0  0  0
  9 14  1  0  0  0  0
  9 12  1  0  0  0  0
 10 17  1  0  0  0  0
 11  4  1  0  0  0  0
 12 15  1  0  0  0  0
 12  6  2  0  0  0  0
 13  1  2  0  0  0  0
 14  2  2  0  0  0  0
 17 18  2  0  0  0  0
 17 21  1  0  0  0  0
 18 19  1  0  0  0  0
 19 16  2  0  0  0  0
 20 16  1  0  0  0  0
 21 20  2  0  0  0  0
 22 24  1  0  0  0  0
 23 25  1  0  0  0  0
 23 22  2  0  0  0  0
 24 27  2  0  0  0  0
 25 26  2  0  0  0  0
 26 27  1  0  0  0  0
 27 13  1  0  0  0  0
M  END
>  <MODEL>
9

>  <REMARK>
 VINA RESULT:      -5.9      2.769      6.047
  Name = 
  2 active torsions:
  status: ('A' for Active; 'I' for Inactive)
    1  A    between atoms: C_9  and  N_15
    2  A    between atoms: C_18  and  C_26
                            x       y       z     vdW  Elec       q    Type
                         _______ _______ _______ _____ _____    ______ ____

>  <TORSDO>
F 2

$$$$
