=
 OpenBabel11052421593D

 30 34  0  0  1  0  0  0  0  0999 V2000
  161.0450  210.6830  151.8140 C   0  0  1  0  0  3  0  0  0  0  0  0
  161.2120  211.6510  149.3480 C   0  0  1  0  0  3  0  0  0  0  0  0
  158.7510  213.9570  152.4460 C   0  0  1  0  0  3  0  0  0  0  0  0
  160.3660  210.9050  153.1750 C   0  0  2  0  0  3  0  0  0  0  0  0
  160.8340  209.3170  151.3450 N   0  0  0  0  0  0  0  0  0  0  0  0
  161.0800  207.0490  154.4940 S   0  0  0  0  0  0  0  0  0  0  0  0
  160.1400  211.4240  155.9790 C   0  0  0  0  0  0  0  0  0  0  0  0
  161.4290  208.6080  153.6120 C   0  0  1  0  0  3  0  0  0  0  0  0
  160.8340  206.9960  151.8340 N   0  0  0  0  0  2  0  0  0  0  0  0
  158.7570  211.7750  155.4550 C   0  0  1  0  0  3  0  0  0  0  0  0
  159.2930  213.3900  153.6390 O   0  0  0  0  0  0  0  0  0  0  0  0
  161.0600  208.3460  152.1820 C   0  0  0  0  0  0  0  0  0  0  0  0
  160.5430  209.7510  154.1520 C   0  0  1  0  0  3  0  0  0  0  0  0
  161.4060  213.3190  148.6080 S   0  0  0  0  0  0  0  0  0  0  0  0
  160.5990  212.1060  156.9340 O   0  0  0  0  0  0  0  0  0  0  0  0
  162.3340  205.3360  152.7650 C   0  0  0  0  0  1  0  0  0  0  0  0
  162.5560  210.9490  149.2660 C   0  0  0  0  0  1  0  0  0  0  0  0
  159.5440  213.5800  151.1830 C   0  0  2  0  0  3  0  0  0  0  0  0
  159.6320  213.7790  148.6480 C   0  0  0  0  0  2  0  0  0  0  0  0
  161.0240  206.0780  152.9410 C   0  0  1  0  0  3  0  0  0  0  0  0
  160.7420  211.7980  150.7990 C   0  0  1  0  0  3  0  0  0  0  0  0
  158.9880  211.1230  153.0660 O   0  0  0  0  0  0  0  0  0  0  0  0
  157.2290  213.8690  152.2900 C   0  0  0  0  0  1  0  0  0  0  0  0
  158.6540  212.1640  153.9560 C   0  0  1  0  0  3  0  0  0  0  0  0
  162.1470  209.9240  156.1190 C   0  0  0  0  0  1  0  0  0  0  0  0
  159.2270  214.4530  149.9670 C   0  0  0  0  0  2  0  0  0  0  0  0
  159.4160  212.2290  150.8580 O   0  0  0  0  0  0  0  0  0  0  0  0
  160.9120  210.3180  155.4500 N   0  0  0  0  0  0  0  0  0  0  0  0
  157.8170  210.7060  155.7570 N   0  0  0  0  0  2  0  0  0  0  0  0
  156.5930  211.1320  155.3650 O   0  0  0  0  0  1  0  0  0  0  0  0
  1  5  1  6  0  0  0
  1  4  1  0  0  0  0
  2 17  1  1  0  0  0
  2 21  1  0  0  0  0
  3 23  1  6  0  0  0
  3 11  1  0  0  0  0
  4 22  1  6  0  0  0
  4 13  1  0  0  0  0
  5 12  2  0  0  0  0
  7 15  2  0  0  0  0
  8 12  1  6  0  0  0
  8 13  1  0  0  0  0
  8  6  1  0  0  0  0
  9 12  1  0  0  0  0
  9 20  1  0  0  0  0
 10 29  1  6  0  0  0
 10  7  1  0  0  0  0
 11 24  1  0  0  0  0
 13 28  1  1  0  0  0
 14 19  1  0  0  0  0
 14  2  1  0  0  0  0
 18 26  1  6  0  0  0
 18  3  1  0  0  0  0
 19 26  1  0  0  0  0
 20 16  1  6  0  0  0
 20  6  1  0  0  0  0
 21 27  1  6  0  0  0
 21  1  1  0  0  0  0
 24 22  1  6  0  0  0
 24 10  1  0  0  0  0
 27 18  1  0  0  0  0
 28  7  1  0  0  0  0
 28 25  1  0  0  0  0
 30 29  1  0  0  0  0
M  END
>  <MODEL>
1

>  <REMARK>
 VINA RESULT:      -4.2      0.000      0.000
  Name = 
  1 active torsions:
  status: ('A' for Active; 'I' for Inactive)
    1  A    between atoms: C_10  and  N_15
                            x       y       z     vdW  Elec       q    Type
                         _______ _______ _______ _____ _____    ______ ____

>  <TORSDO>
F 1

$$$$
=
 OpenBabel11052421593D

 30 34  0  0  1  0  0  0  0  0999 V2000
  160.6200  211.2180  152.1850 C   0  0  1  0  0  3  0  0  0  0  0  0
  160.9370  211.7110  149.5950 C   0  0  1  0  0  3  0  0  0  0  0  0
  158.1330  214.4060  152.0120 C   0  0  1  0  0  3  0  0  0  0  0  0
  159.8250  211.6520  153.4260 C   0  0  2  0  0  3  0  0  0  0  0  0
  160.5110  209.7780  151.9740 N   0  0  0  0  0  0  0  0  0  0  0  0
  160.6130  208.1660  155.5110 S   0  0  0  0  0  0  0  0  0  0  0  0
  159.3530  212.6760  156.0550 C   0  0  0  0  0  0  0  0  0  0  0  0
  160.9570  209.5480  154.3710 C   0  0  1  0  0  3  0  0  0  0  0  0
  160.5810  207.5960  152.9020 N   0  0  0  0  0  2  0  0  0  0  0  0
  158.0010  212.8360  155.3790 C   0  0  1  0  0  3  0  0  0  0  0  0
  158.6040  214.1090  153.3260 O   0  0  0  0  0  0  0  0  0  0  0  0
  160.7160  208.9990  152.9970 C   0  0  0  0  0  0  0  0  0  0  0  0
  159.9780  210.7160  154.6180 C   0  0  1  0  0  3  0  0  0  0  0  0
  161.1110  213.2180  148.5620 S   0  0  0  0  0  0  0  0  0  0  0  0
  159.7020  213.5540  156.8900 O   0  0  0  0  0  0  0  0  0  0  0  0
  162.0790  206.2370  154.2360 C   0  0  0  0  0  1  0  0  0  0  0  0
  162.3160  211.0900  149.7440 C   0  0  0  0  0  1  0  0  0  0  0  0
  159.0400  213.8460  150.9030 C   0  0  2  0  0  3  0  0  0  0  0  0
  159.3200  213.5670  148.3900 C   0  0  0  0  0  2  0  0  0  0  0  0
  160.7260  206.9170  154.1750 C   0  0  1  0  0  3  0  0  0  0  0  0
  160.3470  212.1010  150.9550 C   0  0  1  0  0  3  0  0  0  0  0  0
  158.4520  211.7610  153.1820 O   0  0  0  0  0  0  0  0  0  0  0  0
  156.6330  214.1960  151.7710 C   0  0  0  0  0  1  0  0  0  0  0  0
  158.0000  212.9290  153.8300 C   0  0  1  0  0  3  0  0  0  0  0  0
  161.4110  211.3560  156.6200 C   0  0  0  0  0  1  0  0  0  0  0  0
  158.7800  214.4530  149.5220 C   0  0  0  0  0  2  0  0  0  0  0  0
  159.0020  212.4530  150.8370 O   0  0  0  0  0  0  0  0  0  0  0  0
  160.2160  211.5400  155.8050 N   0  0  0  0  0  0  0  0  0  0  0  0
  157.0910  211.7890  155.8150 N   0  0  0  0  0  2  0  0  0  0  0  0
  155.9230  211.9790  155.1590 O   0  0  0  0  0  1  0  0  0  0  0  0
  1  5  1  6  0  0  0
  1  4  1  0  0  0  0
  2 17  1  1  0  0  0
  2 21  1  0  0  0  0
  3 23  1  6  0  0  0
  3 11  1  0  0  0  0
  4 22  1  6  0  0  0
  4 13  1  0  0  0  0
  5 12  2  0  0  0  0
  7 15  2  0  0  0  0
  8 12  1  6  0  0  0
  8 13  1  0  0  0  0
  8  6  1  0  0  0  0
  9 12  1  0  0  0  0
  9 20  1  0  0  0  0
 10 29  1  6  0  0  0
 10  7  1  0  0  0  0
 11 24  1  0  0  0  0
 13 28  1  1  0  0  0
 14  2  1  0  0  0  0
 18 26  1  6  0  0  0
 18  3  1  0  0  0  0
 19 14  1  0  0  0  0
 19 26  1  0  0  0  0
 20 16  1  6  0  0  0
 20  6  1  0  0  0  0
 21 27  1  6  0  0  0
 21  1  1  0  0  0  0
 24 22  1  6  0  0  0
 24 10  1  0  0  0  0
 27 18  1  0  0  0  0
 28  7  1  0  0  0  0
 28 25  1  0  0  0  0
 30 29  1  0  0  0  0
M  END
>  <MODEL>
2

>  <REMARK>
 VINA RESULT:      -3.6      1.078      1.111
  Name = 
  1 active torsions:
  status: ('A' for Active; 'I' for Inactive)
    1  A    between atoms: C_10  and  N_15
                            x       y       z     vdW  Elec       q    Type
                         _______ _______ _______ _____ _____    ______ ____

>  <TORSDO>
F 1

$$$$
=
 OpenBabel11052421593D

 30 34  0  0  1  0  0  0  0  0999 V2000
  161.4390  210.8370  150.8870 C   0  0  1  0  0  3  0  0  0  0  0  0
  161.9350  211.5510  148.3780 C   0  0  1  0  0  3  0  0  0  0  0  0
  159.2150  214.2180  150.9200 C   0  0  1  0  0  3  0  0  0  0  0  0
  160.6110  211.2110  152.1270 C   0  0  2  0  0  3  0  0  0  0  0  0
  161.2320  209.4370  150.5270 N   0  0  0  0  0  0  0  0  0  0  0  0
  161.0130  207.4870  153.8840 S   0  0  0  0  0  0  0  0  0  0  0  0
  160.0740  212.0110  154.8200 C   0  0  0  0  0  0  0  0  0  0  0  0
  161.5250  208.9400  152.9070 C   0  0  1  0  0  3  0  0  0  0  0  0
  161.0830  207.1770  151.2310 N   0  0  0  0  0  2  0  0  0  0  0  0
  158.7780  212.3450  154.1000 C   0  0  1  0  0  3  0  0  0  0  0  0
  159.5880  213.7570  152.2180 O   0  0  0  0  0  0  0  0  0  0  0  0
  161.3190  208.5490  151.4750 C   0  0  0  0  0  0  0  0  0  0  0  0
  160.6260  210.1550  153.2240 C   0  0  1  0  0  3  0  0  0  0  0  0
  162.2810  213.1320  147.5120 S   0  0  0  0  0  0  0  0  0  0  0  0
  160.4420  212.7720  155.7550 O   0  0  0  0  0  0  0  0  0  0  0  0
  162.3970  205.5770  152.4920 C   0  0  0  0  0  1  0  0  0  0  0  0
  163.2520  210.8080  148.5290 C   0  0  0  0  0  1  0  0  0  0  0  0
  160.1370  213.6970  149.8040 C   0  0  2  0  0  3  0  0  0  0  0  0
  160.5340  213.6400  147.2920 C   0  0  0  0  0  2  0  0  0  0  0  0
  161.1050  206.3680  152.4350 C   0  0  1  0  0  3  0  0  0  0  0  0
  161.3030  211.8530  149.7410 C   0  0  1  0  0  3  0  0  0  0  0  0
  159.2660  211.4540  151.8300 O   0  0  0  0  0  0  0  0  0  0  0  0
  157.7190  214.1560  150.5880 C   0  0  0  0  0  1  0  0  0  0  0  0
  158.8690  212.5870  152.5700 C   0  0  1  0  0  3  0  0  0  0  0  0
  161.9900  210.4780  155.3460 C   0  0  0  0  0  1  0  0  0  0  0  0
  160.0010  214.4530  148.4810 C   0  0  0  0  0  2  0  0  0  0  0  0
  159.9960  212.3240  149.5960 O   0  0  0  0  0  0  0  0  0  0  0  0
  160.8600  210.8370  154.4980 N   0  0  0  0  0  0  0  0  0  0  0  0
  157.7680  211.3380  154.3850 N   0  0  0  0  0  2  0  0  0  0  0  0
  157.8060  211.1020  155.7170 O   0  0  0  0  0  1  0  0  0  0  0  0
  1  5  1  6  0  0  0
  1  4  1  0  0  0  0
  2 17  1  1  0  0  0
  2 21  1  0  0  0  0
  3 23  1  6  0  0  0
  3 11  1  0  0  0  0
  4 22  1  6  0  0  0
  4 13  1  0  0  0  0
  5 12  2  0  0  0  0
  7 15  2  0  0  0  0
  8 12  1  6  0  0  0
  8 13  1  0  0  0  0
  8  6  1  0  0  0  0
  9 12  1  0  0  0  0
  9 20  1  0  0  0  0
 10 29  1  6  0  0  0
 10  7  1  0  0  0  0
 11 24  1  0  0  0  0
 13 28  1  1  0  0  0
 14  2  1  0  0  0  0
 18 26  1  6  0  0  0
 18  3  1  0  0  0  0
 19 14  1  0  0  0  0
 19 26  1  0  0  0  0
 20 16  1  1  0  0  0
 20  6  1  0  0  0  0
 21 27  1  6  0  0  0
 21  1  1  0  0  0  0
 24 22  1  6  0  0  0
 24 10  1  0  0  0  0
 27 18  1  0  0  0  0
 28  7  1  0  0  0  0
 28 25  1  0  0  0  0
 29 30  1  0  0  0  0
M  END
>  <MODEL>
3

>  <REMARK>
 VINA RESULT:      -3.5      1.093      1.241
  Name = 
  1 active torsions:
  status: ('A' for Active; 'I' for Inactive)
    1  A    between atoms: C_10  and  N_15
                            x       y       z     vdW  Elec       q    Type
                         _______ _______ _______ _____ _____    ______ ____

>  <TORSDO>
F 1

$$$$
=
 OpenBabel11052421593D

 30 34  0  0  1  0  0  0  0  0999 V2000
  160.6050  210.0090  151.2640 C   0  0  1  0  0  3  0  0  0  0  0  0
  161.7450  207.6560  150.8030 C   0  0  1  0  0  3  0  0  0  0  0  0
  160.3940  208.6390  155.0670 C   0  0  1  0  0  3  0  0  0  0  0  0
  160.0610  210.9090  152.3860 C   0  0  2  0  0  3  0  0  0  0  0  0
  161.5820  210.7260  150.4500 N   0  0  0  0  0  0  0  0  0  0  0  0
  160.2320  214.3570  150.1060 S   0  0  0  0  0  0  0  0  0  0  0  0
  158.1580  212.4360  153.8790 C   0  0  0  0  0  0  0  0  0  0  0  0
  159.9810  212.5800  150.4370 C   0  0  1  0  0  3  0  0  0  0  0  0
  162.1620  212.7050  149.2790 N   0  0  0  0  0  2  0  0  0  0  0  0
  159.2580  212.1740  154.8950 C   0  0  1  0  0  3  0  0  0  0  0  0
  159.4800  209.6970  154.7810 O   0  0  0  0  0  0  0  0  0  0  0  0
  161.2620  211.9160  150.0280 C   0  0  0  0  0  0  0  0  0  0  0  0
  159.7520  212.3320  151.9430 C   0  0  1  0  0  3  0  0  0  0  0  0
  161.4590  205.9310  151.3620 S   0  0  0  0  0  0  0  0  0  0  0  0
  156.9680  212.4660  154.2930 O   0  0  0  0  0  0  0  0  0  0  0  0
  161.2280  214.1410  147.5640 C   0  0  0  0  0  1  0  0  0  0  0  0
  161.2050  207.7800  149.3880 C   0  0  0  0  0  1  0  0  0  0  0  0
  160.8620  207.8870  153.8090 C   0  0  2  0  0  3  0  0  0  0  0  0
  162.3970  206.0570  152.9310 C   0  0  0  0  0  2  0  0  0  0  0  0
  161.6680  214.0430  149.0120 C   0  0  1  0  0  3  0  0  0  0  0  0
  161.0350  208.6180  151.7610 C   0  0  1  0  0  3  0  0  0  0  0  0
  160.9350  211.0120  153.4720 O   0  0  0  0  0  0  0  0  0  0  0  0
  161.5120  208.9660  156.0630 C   0  0  0  0  0  1  0  0  0  0  0  0
  160.1600  210.9350  154.6470 C   0  0  1  0  0  3  0  0  0  0  0  0
  157.3560  213.1150  151.6010 C   0  0  0  0  0  1  0  0  0  0  0  0
  161.5270  206.5400  154.1020 C   0  0  0  0  0  2  0  0  0  0  0  0
  161.6830  208.6690  152.9960 O   0  0  0  0  0  0  0  0  0  0  0  0
  158.4390  212.6920  152.4810 N   0  0  0  0  0  0  0  0  0  0  0  0
  160.0810  213.3610  155.0660 N   0  0  0  0  0  2  0  0  0  0  0  0
  159.3350  214.2680  155.7390 O   0  0  0  0  0  1  0  0  0  0  0  0
  1  5  1  1  0  0  0
  1 21  1  0  0  0  0
  1  4  1  0  0  0  0
  2 17  1  6  0  0  0
  2 14  1  0  0  0  0
  2 21  1  0  0  0  0
  3 23  1  6  0  0  0
  4 22  1  1  0  0  0
  6  8  1  0  0  0  0
  7 15  2  0  0  0  0
  7 10  1  0  0  0  0
  8 12  1  1  0  0  0
  8 13  1  0  0  0  0
  9 12  1  0  0  0  0
 10 29  1  6  0  0  0
 11  3  1  0  0  0  0
 12  5  2  0  0  0  0
 13  4  1  0  0  0  0
 13 28  1  6  0  0  0
 14 19  1  0  0  0  0
 18 26  1  1  0  0  0
 18  3  1  0  0  0  0
 19 26  1  0  0  0  0
 20 16  1  6  0  0  0
 20  9  1  0  0  0  0
 20  6  1  0  0  0  0
 21 27  1  1  0  0  0
 24 22  1  6  0  0  0
 24 11  1  0  0  0  0
 24 10  1  0  0  0  0
 25 28  1  0  0  0  0
 27 18  1  0  0  0  0
 28  7  1  0  0  0  0
 29 30  1  0  0  0  0
M  END
>  <MODEL>
4

>  <REMARK>
 VINA RESULT:      -3.2      2.069      5.633
  Name = 
  1 active torsions:
  status: ('A' for Active; 'I' for Inactive)
    1  A    between atoms: C_10  and  N_15
                            x       y       z     vdW  Elec       q    Type
                         _______ _______ _______ _____ _____    ______ ____

>  <TORSDO>
F 1

$$$$
