=
 OpenBabel11052423043D

 28 29  0  0  1  0  0  0  0  0999 V2000
  161.8700  207.0630  153.3940 C   0  0  0  0  0  2  0  0  0  0  0  0
  161.1050  206.4330  152.2410 C   0  0  2  0  0  3  0  0  0  0  0  0
  161.8210  205.1680  151.7890 C   0  0  0  0  0  2  0  0  0  0  0  0
  160.8490  204.0010  151.7330 C   0  0  0  0  0  2  0  0  0  0  0  0
  160.8390  201.3100  149.0820 C   0  0  0  0  0  3  0  0  0  0  0  0
  160.9520  203.3140  150.4160 C   0  0  0  0  0  0  0  0  0  0  0  0
  161.2890  203.3910  148.0300 C   0  0  0  0  0  0  0  0  0  0  0  0
  160.7580  201.9330  150.3310 C   0  0  0  0  0  3  0  0  0  0  0  0
  161.2140  204.0510  149.2590 C   0  0  0  0  0  3  0  0  0  0  0  0
  161.5370  204.0930  146.9000 F   0  0  0  0  0  0  0  0  0  0  0  0
  161.1030  202.0450  147.9680 N   0  0  0  0  0  0  0  0  0  0  0  0
  161.0200  207.4170  151.0850 C   0  0  0  0  0  2  0  0  0  0  0  0
  162.1520  207.7870  148.6350 S   0  0  0  0  0  1  0  0  0  0  0  0
  162.3750  207.5690  150.4210 C   0  0  0  0  0  2  0  0  0  0  0  0
  160.9150  207.4350  154.5230 C   0  0  0  0  0  2  0  0  0  0  0  0
  160.0150  209.4970  155.8040 C   0  0  2  0  0  0  0  0  0  0  0  0
  161.8750  210.7460  155.1330 C   0  0  1  0  0  3  0  0  0  0  0  0
  161.1120  210.3160  156.3010 N   0  0  0  0  0  2  0  0  0  0  0  0
  163.2370  210.7260  155.4310 O   0  0  0  0  0  1  0  0  0  0  0  0
  161.5890  209.7940  153.9870 C   0  0  2  0  0  3  0  0  0  0  0  0
  161.1680  210.5200  152.8730 O   0  0  0  0  0  1  0  0  0  0  0  0
  159.7090  208.5080  156.7450 O   0  0  0  0  0  1  0  0  0  0  0  0
  160.4660  208.9020  154.4670 C   0  0  1  0  0  3  0  0  0  0  0  0
  158.7890  210.3810  155.5930 C   0  0  0  0  0  2  0  0  0  0  0  0
  158.6410  211.2810  156.6510 O   0  0  0  0  0  0  0  0  0  0  0  0
  157.4270  211.8460  156.4490 N   0  0  0  0  0  2  0  0  0  0  0  0
  157.1510  211.7650  155.0240 C   0  0  0  0  0  2  0  0  0  0  0  0
  155.8150  212.0910  154.7860 O   0  0  0  0  0  1  0  0  0  0  0  0
  1 15  1  0  0  0  0
  2 12  1  6  0  0  0
  2  1  1  0  0  0  0
  3  2  1  0  0  0  0
  4  3  1  0  0  0  0
  5  8  1  0  0  0  0
  6  4  1  0  0  0  0
  7  9  2  0  0  0  0
  8  6  2  0  0  0  0
  9  6  1  0  0  0  0
 10  7  1  0  0  0  0
 11  7  1  0  0  0  0
 11  5  2  0  0  0  0
 13 14  1  0  0  0  0
 14 12  1  0  0  0  0
 16 18  1  0  0  0  0
 16 22  1  1  0  0  0
 17 19  1  1  0  0  0
 17 18  1  0  0  0  0
 20 21  1  6  0  0  0
 20 23  1  0  0  0  0
 20 17  1  0  0  0  0
 23 15  1  1  0  0  0
 23 16  1  0  0  0  0
 24 16  1  0  0  0  0
 24 25  1  0  0  0  0
 26 25  1  0  0  0  0
 27 26  1  0  0  0  0
 28 27  1  0  0  0  0
M  END
>  <MODEL>
1

>  <REMARK>
 VINA RESULT:      -6.8      0.000      0.000
  Name = 
  12 active torsions:
  status: ('A' for Active; 'I' for Inactive)
    1  A    between atoms: C_1  and  C_11
    2  A    between atoms: O_6  and  N_8
    3  A    between atoms: O_6  and  C_11
    4  A    between atoms: N_8  and  C_22
    5  A    between atoms: C_9  and  C_18
    6  A    between atoms: C_10  and  C_14
    7  A    between atoms: C_10  and  C_17
    8  A    between atoms: C_10  and  C_25
    9  A    between atoms: C_14  and  C_18
   10  A    between atoms: C_17  and  C_19
   11  A    between atoms: C_19  and  C_27
   12  A    between atoms: C_20  and  C_25
                            x       y       z     vdW  Elec       q    Type
                         _______ _______ _______ _____ _____    ______ ____

>  <TORSDO>
F 12

$$$$
=
 OpenBabel11052423043D

 28 29  0  0  1  0  0  0  0  0999 V2000
  160.8070  204.5850  149.6320 C   0  0  0  0  0  2  0  0  0  0  0  0
  160.8470  204.0040  151.0360 C   0  0  2  0  0  3  0  0  0  0  0  0
  161.7380  204.8670  151.9180 C   0  0  0  0  0  2  0  0  0  0  0  0
  161.1190  205.0340  153.2950 C   0  0  0  0  0  2  0  0  0  0  0  0
  160.7890  208.2610  155.2320 C   0  0  0  0  0  3  0  0  0  0  0  0
  160.9730  206.4810  153.6170 C   0  0  0  0  0  0  0  0  0  0  0  0
  160.8140  208.7820  152.9150 C   0  0  0  0  0  0  0  0  0  0  0  0
  160.9060  206.8970  154.9500 C   0  0  0  0  0  3  0  0  0  0  0  0
  160.9330  207.4280  152.5910 C   0  0  0  0  0  3  0  0  0  0  0  0
  160.7800  209.7110  151.9320 F   0  0  0  0  0  0  0  0  0  0  0  0
  160.7440  209.1660  154.2170 N   0  0  0  0  0  0  0  0  0  0  0  0
  161.3920  202.5840  150.9870 C   0  0  0  0  0  2  0  0  0  0  0  0
  161.2190  201.0310  148.7560 S   0  0  0  0  0  1  0  0  0  0  0  0
  160.4250  201.6750  150.2550 C   0  0  0  0  0  2  0  0  0  0  0  0
  160.2470  206.0020  149.6610 C   0  0  0  0  0  2  0  0  0  0  0  0
  162.0320  207.5840  148.6530 C   0  0  2  0  0  0  0  0  0  0  0  0
  162.3560  206.1060  146.8690 C   0  0  1  0  0  3  0  0  0  0  0  0
  163.0480  206.8260  147.9350 N   0  0  0  0  0  2  0  0  0  0  0  0
  162.9090  204.8340  146.7300 O   0  0  0  0  0  1  0  0  0  0  0  0
  160.8890  205.9880  147.2330 C   0  0  2  0  0  3  0  0  0  0  0  0
  160.1090  206.4870  146.1890 O   0  0  0  0  0  1  0  0  0  0  0  0
  162.3910  207.6840  150.0010 O   0  0  0  0  0  1  0  0  0  0  0  0
  160.7020  206.8480  148.4620 C   0  0  1  0  0  3  0  0  0  0  0  0
  161.9400  208.9850  148.0550 C   0  0  0  0  0  2  0  0  0  0  0  0
  161.9940  209.9550  149.0590 O   0  0  0  0  0  0  0  0  0  0  0  0
  162.5080  211.0490  148.4470 N   0  0  0  0  0  2  0  0  0  0  0  0
  161.5660  212.1360  148.6560 C   0  0  0  0  0  2  0  0  0  0  0  0
  160.7340  212.2550  147.5410 O   0  0  0  0  0  1  0  0  0  0  0  0
  1 15  1  0  0  0  0
  2  1  1  6  0  0  0
  2  3  1  0  0  0  0
  3  4  1  0  0  0  0
  4  6  1  0  0  0  0
  6  8  2  0  0  0  0
  7 11  1  0  0  0  0
  8  5  1  0  0  0  0
  9  7  2  0  0  0  0
  9  6  1  0  0  0  0
 10  7  1  0  0  0  0
 11  5  2  0  0  0  0
 12  2  1  0  0  0  0
 13 14  1  0  0  0  0
 14 12  1  0  0  0  0
 16 22  1  1  0  0  0
 17 19  1  1  0  0  0
 17 20  1  0  0  0  0
 17 18  1  0  0  0  0
 18 16  1  0  0  0  0
 20 21  1  6  0  0  0
 20 23  1  0  0  0  0
 23 16  1  0  0  0  0
 23 15  1  1  0  0  0
 24 16  1  0  0  0  0
 24 25  1  0  0  0  0
 26 27  1  0  0  0  0
 26 25  1  0  0  0  0
 28 27  1  0  0  0  0
M  END
>  <MODEL>
2

>  <REMARK>
 VINA RESULT:      -6.7      4.134      7.249
  Name = 
  12 active torsions:
  status: ('A' for Active; 'I' for Inactive)
    1  A    between atoms: C_1  and  C_11
    2  A    between atoms: O_6  and  N_8
    3  A    between atoms: O_6  and  C_11
    4  A    between atoms: N_8  and  C_22
    5  A    between atoms: C_9  and  C_18
    6  A    between atoms: C_10  and  C_14
    7  A    between atoms: C_10  and  C_17
    8  A    between atoms: C_10  and  C_25
    9  A    between atoms: C_14  and  C_18
   10  A    between atoms: C_17  and  C_19
   11  A    between atoms: C_19  and  C_27
   12  A    between atoms: C_20  and  C_25
                            x       y       z     vdW  Elec       q    Type
                         _______ _______ _______ _____ _____    ______ ____

>  <TORSDO>
F 12

$$$$
=
 OpenBabel11052423043D

 28 29  0  0  1  0  0  0  0  0999 V2000
  161.0070  207.2990  153.0810 C   0  0  0  0  0  2  0  0  0  0  0  0
  161.2980  206.7660  151.6880 C   0  0  2  0  0  3  0  0  0  0  0  0
  161.9390  205.3900  151.7950 C   0  0  0  0  0  2  0  0  0  0  0  0
  160.8720  204.3090  151.8220 C   0  0  0  0  0  2  0  0  0  0  0  0
  160.9110  201.3160  149.5160 C   0  0  0  0  0  3  0  0  0  0  0  0
  160.9620  203.4720  150.5930 C   0  0  0  0  0  0  0  0  0  0  0  0
  161.1970  203.2740  148.2020 C   0  0  0  0  0  0  0  0  0  0  0  0
  160.8450  202.0830  150.6830 C   0  0  0  0  0  3  0  0  0  0  0  0
  161.1330  204.0750  149.3450 C   0  0  0  0  0  3  0  0  0  0  0  0
  161.3570  203.8440  146.9850 F   0  0  0  0  0  0  0  0  0  0  0  0
  161.0870  201.9230  148.3110 N   0  0  0  0  0  0  0  0  0  0  0  0
  162.2380  207.7160  150.9620 C   0  0  0  0  0  2  0  0  0  0  0  0
  162.4100  207.4020  148.2610 S   0  0  0  0  0  1  0  0  0  0  0  0
  161.6030  208.2030  149.6740 C   0  0  0  0  0  2  0  0  0  0  0  0
  161.3360  208.7860  153.1580 C   0  0  0  0  0  2  0  0  0  0  0  0
  160.1160  210.2270  154.9300 C   0  0  2  0  0  0  0  0  0  0  0  0
  159.9550  208.3740  156.3490 C   0  0  1  0  0  3  0  0  0  0  0  0
  159.1740  209.4190  155.6930 N   0  0  0  0  0  2  0  0  0  0  0  0
  159.2410  207.1760  156.3310 O   0  0  0  0  0  1  0  0  0  0  0  0
  161.2620  208.2000  155.5990 C   0  0  2  0  0  3  0  0  0  0  0  0
  162.3290  208.3200  156.4900 O   0  0  0  0  0  1  0  0  0  0  0  0
  159.4850  210.7170  153.7820 O   0  0  0  0  0  1  0  0  0  0  0  0
  161.3110  209.3290  154.5950 C   0  0  1  0  0  3  0  0  0  0  0  0
  160.5740  211.4020  155.7890 C   0  0  0  0  0  2  0  0  0  0  0  0
  160.1170  212.6100  155.2560 O   0  0  0  0  0  0  0  0  0  0  0  0
  159.5090  213.2310  156.2950 N   0  0  0  0  0  2  0  0  0  0  0  0
  158.5670  214.1830  155.7300 C   0  0  0  0  0  2  0  0  0  0  0  0
  158.1370  213.7330  154.4810 O   0  0  0  0  0  1  0  0  0  0  0  0
  1 15  1  0  0  0  0
  2 12  1  1  0  0  0
  2  3  1  0  0  0  0
  2  1  1  0  0  0  0
  3  4  1  0  0  0  0
  5  8  1  0  0  0  0
  6  8  2  0  0  0  0
  6  4  1  0  0  0  0
  7 11  1  0  0  0  0
  7  9  2  0  0  0  0
  9  6  1  0  0  0  0
 10  7  1  0  0  0  0
 11  5  2  0  0  0  0
 13 14  1  0  0  0  0
 14 12  1  0  0  0  0
 16 22  1  6  0  0  0
 16 18  1  0  0  0  0
 16 24  1  0  0  0  0
 17 19  1  6  0  0  0
 18 17  1  0  0  0  0
 20 17  1  0  0  0  0
 20 21  1  1  0  0  0
 23 15  1  6  0  0  0
 23 16  1  0  0  0  0
 23 20  1  0  0  0  0
 25 24  1  0  0  0  0
 25 26  1  0  0  0  0
 27 26  1  0  0  0  0
 28 27  1  0  0  0  0
M  END
>  <MODEL>
3

>  <REMARK>
 VINA RESULT:      -6.5      1.472      2.139
  Name = 
  12 active torsions:
  status: ('A' for Active; 'I' for Inactive)
    1  A    between atoms: C_1  and  C_11
    2  A    between atoms: O_6  and  N_8
    3  A    between atoms: O_6  and  C_11
    4  A    between atoms: N_8  and  C_22
    5  A    between atoms: C_9  and  C_18
    6  A    between atoms: C_10  and  C_14
    7  A    between atoms: C_10  and  C_17
    8  A    between atoms: C_10  and  C_25
    9  A    between atoms: C_14  and  C_18
   10  A    between atoms: C_17  and  C_19
   11  A    between atoms: C_19  and  C_27
   12  A    between atoms: C_20  and  C_25
                            x       y       z     vdW  Elec       q    Type
                         _______ _______ _______ _____ _____    ______ ____

>  <TORSDO>
F 12

$$$$
=
 OpenBabel11052423043D

 28 29  0  0  1  0  0  0  0  0999 V2000
  160.9890  208.1580  152.6120 C   0  0  0  0  0  2  0  0  0  0  0  0
  161.7570  207.4240  151.5250 C   0  0  2  0  0  3  0  0  0  0  0  0
  160.8160  207.0850  150.3790 C   0  0  0  0  0  2  0  0  0  0  0  0
  161.4490  207.4510  149.0470 C   0  0  0  0  0  2  0  0  0  0  0  0
  162.2840  205.1840  146.1430 C   0  0  0  0  0  3  0  0  0  0  0  0
  161.5980  206.2350  148.2010 C   0  0  0  0  0  0  0  0  0  0  0  0
  161.3950  203.8520  147.8970 C   0  0  0  0  0  0  0  0  0  0  0  0
  162.1340  206.3400  146.9150 C   0  0  0  0  0  3  0  0  0  0  0  0
  161.2310  204.9840  148.7000 C   0  0  0  0  0  3  0  0  0  0  0  0
  161.0480  202.6320  148.3690 F   0  0  0  0  0  0  0  0  0  0  0  0
  161.9130  203.9750  146.6450 N   0  0  0  0  0  0  0  0  0  0  0  0
  162.3550  206.1470  152.0950 C   0  0  0  0  0  2  0  0  0  0  0  0
  161.0000  203.7850  152.1770 S   0  0  0  0  0  1  0  0  0  0  0  0
  161.3230  205.4060  152.9230 C   0  0  0  0  0  2  0  0  0  0  0  0
  160.7980  209.6210  152.2310 C   0  0  0  0  0  2  0  0  0  0  0  0
  159.4660  211.1730  153.8180 C   0  0  2  0  0  0  0  0  0  0  0  0
  160.1270  209.8870  155.6570 C   0  0  1  0  0  3  0  0  0  0  0  0
  158.9610  210.4290  154.9650 N   0  0  0  0  0  2  0  0  0  0  0  0
  159.8420  208.6020  156.1160 O   0  0  0  0  0  1  0  0  0  0  0  0
  161.2900  209.8360  154.6840 C   0  0  2  0  0  3  0  0  0  0  0  0
  162.3850  210.5050  155.2320 O   0  0  0  0  0  1  0  0  0  0  0  0
  158.5430  211.0940  152.7700 O   0  0  0  0  0  1  0  0  0  0  0  0
  160.8200  210.5620  153.4450 C   0  0  1  0  0  3  0  0  0  0  0  0
  159.6470  212.6360  154.2140 C   0  0  0  0  0  2  0  0  0  0  0  0
  158.6200  213.4210  153.6850 O   0  0  0  0  0  0  0  0  0  0  0  0
  157.9190  213.8370  154.7670 N   0  0  0  0  0  2  0  0  0  0  0  0
  156.5120  213.8020  154.4020 C   0  0  0  0  0  2  0  0  0  0  0  0
  156.0340  212.4950  154.5020 O   0  0  0  0  0  1  0  0  0  0  0  0
  2  3  1  6  0  0  0
  2 12  1  0  0  0  0
  2  1  1  0  0  0  0
  4  3  1  0  0  0  0
  5 11  2  0  0  0  0
  5  8  1  0  0  0  0
  6  9  1  0  0  0  0
  6  4  1  0  0  0  0
  7 10  1  0  0  0  0
  7  9  2  0  0  0  0
  8  6  2  0  0  0  0
 11  7  1  0  0  0  0
 12 14  1  0  0  0  0
 13 14  1  0  0  0  0
 15  1  1  0  0  0  0
 16 22  1  6  0  0  0
 16 24  1  0  0  0  0
 16 18  1  0  0  0  0
 17 19  1  6  0  0  0
 18 17  1  0  0  0  0
 20 21  1  1  0  0  0
 20 17  1  0  0  0  0
 23 15  1  6  0  0  0
 23 16  1  0  0  0  0
 23 20  1  0  0  0  0
 25 24  1  0  0  0  0
 25 26  1  0  0  0  0
 27 28  1  0  0  0  0
 27 26  1  0  0  0  0
M  END
>  <MODEL>
4

>  <REMARK>
 VINA RESULT:      -6.3      2.171      3.131
  Name = 
  12 active torsions:
  status: ('A' for Active; 'I' for Inactive)
    1  A    between atoms: C_1  and  C_11
    2  A    between atoms: O_6  and  N_8
    3  A    between atoms: O_6  and  C_11
    4  A    between atoms: N_8  and  C_22
    5  A    between atoms: C_9  and  C_18
    6  A    between atoms: C_10  and  C_14
    7  A    between atoms: C_10  and  C_17
    8  A    between atoms: C_10  and  C_25
    9  A    between atoms: C_14  and  C_18
   10  A    between atoms: C_17  and  C_19
   11  A    between atoms: C_19  and  C_27
   12  A    between atoms: C_20  and  C_25
                            x       y       z     vdW  Elec       q    Type
                         _______ _______ _______ _____ _____    ______ ____

>  <TORSDO>
F 12

$$$$
=
 OpenBabel11052423043D

 28 29  0  0  1  0  0  0  0  0999 V2000
  161.8620  205.3140  150.4220 C   0  0  0  0  0  2  0  0  0  0  0  0
  161.5500  204.2350  151.4450 C   0  0  2  0  0  3  0  0  0  0  0  0
  160.5170  203.2750  150.8730 C   0  0  0  0  0  2  0  0  0  0  0  0
  161.1670  201.9500  150.5130 C   0  0  0  0  0  2  0  0  0  0  0  0
  160.8270  202.6030  146.8070 C   0  0  0  0  0  3  0  0  0  0  0  0
  161.1170  201.7400  149.0390 C   0  0  0  0  0  0  0  0  0  0  0  0
  161.3300  200.3020  147.1160 C   0  0  0  0  0  0  0  0  0  0  0  0
  160.8500  202.8160  148.1890 C   0  0  0  0  0  3  0  0  0  0  0  0
  161.3650  200.4750  148.5020 C   0  0  0  0  0  3  0  0  0  0  0  0
  161.5730  199.0830  146.5800 F   0  0  0  0  0  0  0  0  0  0  0  0
  161.0630  201.3610  146.3050 N   0  0  0  0  0  0  0  0  0  0  0  0
  161.0090  204.8750  152.7150 C   0  0  0  0  0  2  0  0  0  0  0  0
  160.9460  207.3080  153.9380 S   0  0  0  0  0  1  0  0  0  0  0  0
  161.9290  205.9890  153.1750 C   0  0  0  0  0  2  0  0  0  0  0  0
  160.5870  206.0410  150.0120 C   0  0  0  0  0  2  0  0  0  0  0  0
  161.9980  207.8760  148.8530 C   0  0  2  0  0  0  0  0  0  0  0  0
  162.3600  206.4650  147.0230 C   0  0  1  0  0  3  0  0  0  0  0  0
  163.0390  207.2820  148.0240 N   0  0  0  0  0  2  0  0  0  0  0  0
  163.0820  205.2920  146.8090 O   0  0  0  0  0  1  0  0  0  0  0  0
  160.9720  206.1250  147.5320 C   0  0  2  0  0  3  0  0  0  0  0  0
  160.0230  206.4980  146.5800 O   0  0  0  0  0  1  0  0  0  0  0  0
  162.4740  208.0300  150.1590 O   0  0  0  0  0  1  0  0  0  0  0  0
  160.7830  206.9460  148.7860 C   0  0  1  0  0  3  0  0  0  0  0  0
  161.6350  209.2470  148.2890 C   0  0  0  0  0  2  0  0  0  0  0  0
  162.2490  210.2630  149.0260 O   0  0  0  0  0  0  0  0  0  0  0  0
  161.7080  211.4070  148.5430 N   0  0  0  0  0  2  0  0  0  0  0  0
  162.7790  212.1430  147.8920 C   0  0  0  0  0  2  0  0  0  0  0  0
  162.7170  213.4870  148.2600 O   0  0  0  0  0  1  0  0  0  0  0  0
  2  1  1  6  0  0  0
  2 12  1  0  0  0  0
  3  2  1  0  0  0  0
  4  3  1  0  0  0  0
  5  8  1  0  0  0  0
  6  4  1  0  0  0  0
  7  9  2  0  0  0  0
  8  6  2  0  0  0  0
  9  6  1  0  0  0  0
 10  7  1  0  0  0  0
 11  5  2  0  0  0  0
 11  7  1  0  0  0  0
 12 14  1  0  0  0  0
 14 13  1  0  0  0  0
 15  1  1  0  0  0  0
 16 22  1  1  0  0  0
 17 19  1  1  0  0  0
 17 20  1  0  0  0  0
 17 18  1  0  0  0  0
 18 16  1  0  0  0  0
 20 21  1  6  0  0  0
 20 23  1  0  0  0  0
 23 16  1  0  0  0  0
 23 15  1  1  0  0  0
 24 16  1  0  0  0  0
 24 25  1  0  0  0  0
 26 25  1  0  0  0  0
 27 28  1  0  0  0  0
 27 26  1  0  0  0  0
M  END
>  <MODEL>
5

>  <REMARK>
 VINA RESULT:      -6.3      4.780      6.226
  Name = 
  12 active torsions:
  status: ('A' for Active; 'I' for Inactive)
    1  A    between atoms: C_1  and  C_11
    2  A    between atoms: O_6  and  N_8
    3  A    between atoms: O_6  and  C_11
    4  A    between atoms: N_8  and  C_22
    5  A    between atoms: C_9  and  C_18
    6  A    between atoms: C_10  and  C_14
    7  A    between atoms: C_10  and  C_17
    8  A    between atoms: C_10  and  C_25
    9  A    between atoms: C_14  and  C_18
   10  A    between atoms: C_17  and  C_19
   11  A    between atoms: C_19  and  C_27
   12  A    between atoms: C_20  and  C_25
                            x       y       z     vdW  Elec       q    Type
                         _______ _______ _______ _____ _____    ______ ____

>  <TORSDO>
F 12

$$$$
=
 OpenBabel11052423043D

 28 29  0  0  1  0  0  0  0  0999 V2000
  161.1350  208.3660  152.2650 C   0  0  0  0  0  2  0  0  0  0  0  0
  161.9010  207.1780  151.7070 C   0  0  2  0  0  3  0  0  0  0  0  0
  162.1470  207.3850  150.2200 C   0  0  0  0  0  2  0  0  0  0  0  0
  160.9320  206.9530  149.4170 C   0  0  0  0  0  2  0  0  0  0  0  0
  162.3470  205.6470  146.1670 C   0  0  0  0  0  3  0  0  0  0  0  0
  161.3440  206.0280  148.3250 C   0  0  0  0  0  0  0  0  0  0  0  0
  161.5650  203.7980  147.4360 C   0  0  0  0  0  0  0  0  0  0  0  0
  161.9490  206.5330  147.1720 C   0  0  0  0  0  3  0  0  0  0  0  0
  161.1550  204.6510  148.4630 C   0  0  0  0  0  3  0  0  0  0  0  0
  161.3930  202.4610  147.5580 F   0  0  0  0  0  0  0  0  0  0  0  0
  162.1470  204.3100  146.3180 N   0  0  0  0  0  0  0  0  0  0  0  0
  161.0990  205.9040  151.9240 C   0  0  0  0  0  2  0  0  0  0  0  0
  161.0670  203.1830  151.7940 S   0  0  0  0  0  1  0  0  0  0  0  0
  162.0250  204.7070  152.0120 C   0  0  0  0  0  2  0  0  0  0  0  0
  160.8480  208.1630  153.7490 C   0  0  0  0  0  2  0  0  0  0  0  0
  160.3080  209.3520  155.9850 C   0  0  2  0  0  0  0  0  0  0  0  0
  162.0440  210.8750  155.6120 C   0  0  1  0  0  3  0  0  0  0  0  0
  161.5150  209.9140  156.5760 N   0  0  0  0  0  2  0  0  0  0  0  0
  163.4360  210.8000  155.5920 O   0  0  0  0  0  1  0  0  0  0  0  0
  161.4950  210.5400  154.2390 C   0  0  2  0  0  3  0  0  0  0  0  0
  160.8870  211.6710  153.6920 O   0  0  0  0  0  1  0  0  0  0  0  0
  160.1590  208.0260  156.4030 O   0  0  0  0  0  1  0  0  0  0  0  0
  160.4570  209.4650  154.4640 C   0  0  1  0  0  3  0  0  0  0  0  0
  159.1020  210.1620  156.4500 C   0  0  0  0  0  2  0  0  0  0  0  0
  158.1980  210.3490  155.4010 O   0  0  0  0  0  0  0  0  0  0  0  0
  157.5040  211.4610  155.7440 N   0  0  0  0  0  2  0  0  0  0  0  0
  156.2110  211.3760  155.0850 C   0  0  0  0  0  2  0  0  0  0  0  0
  155.8940  212.6090  154.5130 O   0  0  0  0  0  1  0  0  0  0  0  0
  1 15  1  0  0  0  0
  2  3  1  6  0  0  0
  2 12  1  0  0  0  0
  2  1  1  0  0  0  0
  4  3  1  0  0  0  0
  5 11  2  0  0  0  0
  5  8  1  0  0  0  0
  6  9  1  0  0  0  0
  6  4  1  0  0  0  0
  7 10  1  0  0  0  0
  7  9  2  0  0  0  0
  8  6  2  0  0  0  0
 11  7  1  0  0  0  0
 12 14  1  0  0  0  0
 13 14  1  0  0  0  0
 16 22  1  1  0  0  0
 16 24  1  0  0  0  0
 16 18  1  0  0  0  0
 17 19  1  6  0  0  0
 17 18  1  0  0  0  0
 20 21  1  1  0  0  0
 20 23  1  0  0  0  0
 20 17  1  0  0  0  0
 23 15  1  1  0  0  0
 23 16  1  0  0  0  0
 25 26  1  0  0  0  0
 25 24  1  0  0  0  0
 27 26  1  0  0  0  0
 28 27  1  0  0  0  0
M  END
>  <MODEL>
6

>  <REMARK>
 VINA RESULT:      -6.3      1.793      2.475
  Name = 
  12 active torsions:
  status: ('A' for Active; 'I' for Inactive)
    1  A    between atoms: C_1  and  C_11
    2  A    between atoms: O_6  and  N_8
    3  A    between atoms: O_6  and  C_11
    4  A    between atoms: N_8  and  C_22
    5  A    between atoms: C_9  and  C_18
    6  A    between atoms: C_10  and  C_14
    7  A    between atoms: C_10  and  C_17
    8  A    between atoms: C_10  and  C_25
    9  A    between atoms: C_14  and  C_18
   10  A    between atoms: C_17  and  C_19
   11  A    between atoms: C_19  and  C_27
   12  A    between atoms: C_20  and  C_25
                            x       y       z     vdW  Elec       q    Type
                         _______ _______ _______ _____ _____    ______ ____

>  <TORSDO>
F 12

$$$$
=
 OpenBabel11052423043D

 28 29  0  0  1  0  0  0  0  0999 V2000
  162.4390  207.6230  149.5640 C   0  0  0  0  0  2  0  0  0  0  0  0
  162.3380  209.1100  149.8650 C   0  0  2  0  0  3  0  0  0  0  0  0
  161.4070  209.3260  151.0480 C   0  0  0  0  0  2  0  0  0  0  0  0
  161.2090  208.0270  151.8120 C   0  0  0  0  0  2  0  0  0  0  0  0
  160.1520  209.8640  154.9390 C   0  0  0  0  0  3  0  0  0  0  0  0
  160.8500  208.3170  153.2270 C   0  0  0  0  0  0  0  0  0  0  0  0
  160.4700  207.5760  155.4900 C   0  0  0  0  0  0  0  0  0  0  0  0
  160.5060  209.6160  153.6100 C   0  0  0  0  0  3  0  0  0  0  0  0
  160.8270  207.2870  154.1710 C   0  0  0  0  0  3  0  0  0  0  0  0
  160.4380  206.5870  156.4140 F   0  0  0  0  0  0  0  0  0  0  0  0
  160.1440  208.8480  155.8440 N   0  0  0  0  0  0  0  0  0  0  0  0
  161.8010  209.8430  148.6460 C   0  0  0  0  0  2  0  0  0  0  0  0
  161.1880  212.2890  147.6160 S   0  0  0  0  0  1  0  0  0  0  0  0
  162.2960  211.2760  148.6330 C   0  0  0  0  0  2  0  0  0  0  0  0
  162.4510  207.3870  148.0580 C   0  0  0  0  0  2  0  0  0  0  0  0
  160.9010  205.3250  147.8270 C   0  0  2  0  0  0  0  0  0  0  0  0
  161.4550  205.1440  145.5610 C   0  0  1  0  0  3  0  0  0  0  0  0
  160.3320  205.2550  146.4870 N   0  0  0  0  0  2  0  0  0  0  0  0
  161.1930  205.8990  144.4180 O   0  0  0  0  0  1  0  0  0  0  0  0
  162.7030  205.6680  146.2450 C   0  0  2  0  0  3  0  0  0  0  0  0
  163.7080  204.7020  146.1830 O   0  0  0  0  0  1  0  0  0  0  0  0
  160.0840  206.1190  148.6390 O   0  0  0  0  0  1  0  0  0  0  0  0
  162.3130  205.9030  147.6860 C   0  0  1  0  0  3  0  0  0  0  0  0
  160.9720  203.9180  148.4130 C   0  0  0  0  0  2  0  0  0  0  0  0
  161.2450  203.9670  149.7820 O   0  0  0  0  0  0  0  0  0  0  0  0
  160.7170  202.8210  150.2750 N   0  0  0  0  0  2  0  0  0  0  0  0
  161.1960  202.6840  151.6400 C   0  0  0  0  0  2  0  0  0  0  0  0
  160.8360  203.8120  152.3800 O   0  0  0  0  0  1  0  0  0  0  0  0
  1  2  1  0  0  0  0
  2 12  1  6  0  0  0
  2  3  1  0  0  0  0
  3  4  1  0  0  0  0
  4  6  1  0  0  0  0
  5 11  1  0  0  0  0
  6  8  1  0  0  0  0
  6  9  2  0  0  0  0
  7 11  2  0  0  0  0
  7 10  1  0  0  0  0
  8  5  2  0  0  0  0
  9  7  1  0  0  0  0
 13 14  1  0  0  0  0
 14 12  1  0  0  0  0
 15  1  1  0  0  0  0
 16 24  1  0  0  0  0
 16 22  1  1  0  0  0
 17 19  1  6  0  0  0
 17 20  1  0  0  0  0
 17 18  1  0  0  0  0
 18 16  1  0  0  0  0
 20 21  1  1  0  0  0
 20 23  1  0  0  0  0
 23 16  1  0  0  0  0
 23 15  1  6  0  0  0
 24 25  1  0  0  0  0
 25 26  1  0  0  0  0
 26 27  1  0  0  0  0
 27 28  1  0  0  0  0
M  END
>  <MODEL>
7

>  <REMARK>
 VINA RESULT:      -6.0      4.357      8.455
  Name = 
  12 active torsions:
  status: ('A' for Active; 'I' for Inactive)
    1  A    between atoms: C_1  and  C_11
    2  A    between atoms: O_6  and  N_8
    3  A    between atoms: O_6  and  C_11
    4  A    between atoms: N_8  and  C_22
    5  A    between atoms: C_9  and  C_18
    6  A    between atoms: C_10  and  C_14
    7  A    between atoms: C_10  and  C_17
    8  A    between atoms: C_10  and  C_25
    9  A    between atoms: C_14  and  C_18
   10  A    between atoms: C_17  and  C_19
   11  A    between atoms: C_19  and  C_27
   12  A    between atoms: C_20  and  C_25
                            x       y       z     vdW  Elec       q    Type
                         _______ _______ _______ _____ _____    ______ ____

>  <TORSDO>
F 12

$$$$
=
 OpenBabel11052423043D

 28 29  0  0  1  0  0  0  0  0999 V2000
  162.0260  208.6410  151.6740 C   0  0  0  0  0  2  0  0  0  0  0  0
  161.9390  207.2720  151.0190 C   0  0  2  0  0  3  0  0  0  0  0  0
  161.6090  207.4360  149.5430 C   0  0  0  0  0  2  0  0  0  0  0  0
  160.4650  206.5170  149.1510 C   0  0  0  0  0  2  0  0  0  0  0  0
  161.5710  203.5300  147.1190 C   0  0  0  0  0  3  0  0  0  0  0  0
  160.8690  205.6600  148.0010 C   0  0  0  0  0  0  0  0  0  0  0  0
  161.2400  205.3580  145.6380 C   0  0  0  0  0  0  0  0  0  0  0  0
  161.2140  204.3230  148.2130 C   0  0  0  0  0  3  0  0  0  0  0  0
  160.8750  206.1820  146.7060 C   0  0  0  0  0  3  0  0  0  0  0  0
  161.2460  205.8470  144.3770 F   0  0  0  0  0  0  0  0  0  0  0  0
  161.5790  204.0600  145.8660 N   0  0  0  0  0  0  0  0  0  0  0  0
  160.8580  206.4470  151.7000 C   0  0  0  0  0  2  0  0  0  0  0  0
  161.1910  203.7450  151.7670 S   0  0  0  0  0  1  0  0  0  0  0  0
  161.4830  205.3560  152.5460 C   0  0  0  0  0  2  0  0  0  0  0  0
  160.8280  208.8680  152.5890 C   0  0  0  0  0  2  0  0  0  0  0  0
  159.6160  210.8940  153.6520 C   0  0  2  0  0  0  0  0  0  0  0  0
  160.4230  210.2900  155.7630 C   0  0  1  0  0  3  0  0  0  0  0  0
  159.2050  210.5930  155.0170 N   0  0  0  0  0  2  0  0  0  0  0  0
  160.1790  209.2420  156.6490 O   0  0  0  0  0  1  0  0  0  0  0  0
  161.5070  209.8870  154.7820 C   0  0  2  0  0  3  0  0  0  0  0  0
  162.6380  210.6770  154.9880 O   0  0  0  0  0  1  0  0  0  0  0  0
  158.6160  210.4860  152.7630 O   0  0  0  0  0  1  0  0  0  0  0  0
  160.9390  210.1630  153.4080 C   0  0  1  0  0  3  0  0  0  0  0  0
  159.8220  212.4000  153.5140 C   0  0  0  0  0  2  0  0  0  0  0  0
  159.1120  212.8970  152.4190 O   0  0  0  0  0  0  0  0  0  0  0  0
  160.0670  213.3620  151.5780 N   0  0  0  0  0  2  0  0  0  0  0  0
  159.3860  213.8690  150.3980 C   0  0  0  0  0  2  0  0  0  0  0  0
  158.0110  213.6700  150.5280 O   0  0  0  0  0  1  0  0  0  0  0  0
  1 15  1  0  0  0  0
  2  3  1  6  0  0  0
  2  1  1  0  0  0  0
  2 12  1  0  0  0  0
  4  3  1  0  0  0  0
  5  8  1  0  0  0  0
  6  8  2  0  0  0  0
  6  4  1  0  0  0  0
  7 11  1  0  0  0  0
  7  9  2  0  0  0  0
  9  6  1  0  0  0  0
 10  7  1  0  0  0  0
 11  5  2  0  0  0  0
 12 14  1  0  0  0  0
 13 14  1  0  0  0  0
 16 22  1  6  0  0  0
 16 18  1  0  0  0  0
 17 19  1  1  0  0  0
 18 17  1  0  0  0  0
 20 21  1  1  0  0  0
 20 17  1  0  0  0  0
 23 15  1  1  0  0  0
 23 16  1  0  0  0  0
 23 20  1  0  0  0  0
 24 16  1  0  0  0  0
 25 24  1  0  0  0  0
 26 25  1  0  0  0  0
 27 28  1  0  0  0  0
 27 26  1  0  0  0  0
M  END
>  <MODEL>
8

>  <REMARK>
 VINA RESULT:      -5.9      2.762      3.406
  Name = 
  12 active torsions:
  status: ('A' for Active; 'I' for Inactive)
    1  A    between atoms: C_1  and  C_11
    2  A    between atoms: O_6  and  N_8
    3  A    between atoms: O_6  and  C_11
    4  A    between atoms: N_8  and  C_22
    5  A    between atoms: C_9  and  C_18
    6  A    between atoms: C_10  and  C_14
    7  A    between atoms: C_10  and  C_17
    8  A    between atoms: C_10  and  C_25
    9  A    between atoms: C_14  and  C_18
   10  A    between atoms: C_17  and  C_19
   11  A    between atoms: C_19  and  C_27
   12  A    between atoms: C_20  and  C_25
                            x       y       z     vdW  Elec       q    Type
                         _______ _______ _______ _____ _____    ______ ____

>  <TORSDO>
F 12

$$$$
=
 OpenBabel11052423043D

 28 29  0  0  1  0  0  0  0  0999 V2000
  161.0030  204.4270  151.5790 C   0  0  0  0  0  2  0  0  0  0  0  0
  161.9080  205.6450  151.4860 C   0  0  2  0  0  3  0  0  0  0  0  0
  162.1580  206.2000  152.8800 C   0  0  0  0  0  2  0  0  0  0  0  0
  160.8760  206.1800  153.6960 C   0  0  0  0  0  2  0  0  0  0  0  0
  160.2670  208.4830  156.6280 C   0  0  0  0  0  3  0  0  0  0  0  0
  160.7860  207.4070  154.5350 C   0  0  0  0  0  0  0  0  0  0  0  0
  161.1140  209.7780  154.8270 C   0  0  0  0  0  0  0  0  0  0  0  0
  160.3250  207.3230  155.8510 C   0  0  0  0  0  3  0  0  0  0  0  0
  161.1890  208.6410  154.0180 C   0  0  0  0  0  3  0  0  0  0  0  0
  161.5060  210.9790  154.3420 F   0  0  0  0  0  0  0  0  0  0  0  0
  160.6570  209.6760  156.1040 N   0  0  0  0  0  0  0  0  0  0  0  0
  161.2480  206.7080  150.6200 C   0  0  0  0  0  2  0  0  0  0  0  0
  161.9620  208.6550  148.8530 S   0  0  0  0  0  1  0  0  0  0  0  0
  162.1460  207.9240  150.5030 C   0  0  0  0  0  2  0  0  0  0  0  0
  161.4980  203.3260  150.6480 C   0  0  0  0  0  2  0  0  0  0  0  0
  161.4000  203.6620  148.0830 C   0  0  2  0  0  0  0  0  0  0  0  0
  160.8930  201.3980  147.7890 C   0  0  1  0  0  3  0  0  0  0  0  0
  161.8180  202.4530  147.3860 N   0  0  0  0  0  2  0  0  0  0  0  0
  161.5900  200.2010  147.9510 O   0  0  0  0  0  1  0  0  0  0  0  0
  160.2450  201.7930  149.1030 C   0  0  2  0  0  3  0  0  0  0  0  0
  158.8580  201.7360  148.9730 O   0  0  0  0  0  1  0  0  0  0  0  0
  162.5210  204.4510  148.3610 O   0  0  0  0  0  1  0  0  0  0  0  0
  160.6730  203.2210  149.3570 C   0  0  1  0  0  3  0  0  0  0  0  0
  160.4460  204.4480  147.1870 C   0  0  0  0  0  2  0  0  0  0  0  0
  160.8770  205.7690  147.0460 O   0  0  0  0  0  0  0  0  0  0  0  0
  160.4090  206.1530  145.8340 N   0  0  0  0  0  2  0  0  0  0  0  0
  160.6530  205.0530  144.9160 C   0  0  0  0  0  2  0  0  0  0  0  0
  161.5840  205.4430  143.9530 O   0  0  0  0  0  1  0  0  0  0  0  0
  2 12  1  6  0  0  0
  2  1  1  0  0  0  0
  2  3  1  0  0  0  0
  3  4  1  0  0  0  0
  4  6  1  0  0  0  0
  6  8  1  0  0  0  0
  7 11  2  0  0  0  0
  8  5  2  0  0  0  0
  9  6  2  0  0  0  0
  9  7  1  0  0  0  0
 10  7  1  0  0  0  0
 11  5  1  0  0  0  0
 13 14  1  0  0  0  0
 14 12  1  0  0  0  0
 15  1  1  0  0  0  0
 16 22  1  1  0  0  0
 16 23  1  0  0  0  0
 17 19  1  1  0  0  0
 17 20  1  0  0  0  0
 18 17  1  0  0  0  0
 18 16  1  0  0  0  0
 20 21  1  6  0  0  0
 20 23  1  0  0  0  0
 23 15  1  1  0  0  0
 24 16  1  0  0  0  0
 25 24  1  0  0  0  0
 26 25  1  0  0  0  0
 27 26  1  0  0  0  0
 28 27  1  0  0  0  0
M  END
>  <MODEL>
9

>  <REMARK>
 VINA RESULT:      -5.8      4.833      8.969
  Name = 
  12 active torsions:
  status: ('A' for Active; 'I' for Inactive)
    1  A    between atoms: C_1  and  C_11
    2  A    between atoms: O_6  and  N_8
    3  A    between atoms: O_6  and  C_11
    4  A    between atoms: N_8  and  C_22
    5  A    between atoms: C_9  and  C_18
    6  A    between atoms: C_10  and  C_14
    7  A    between atoms: C_10  and  C_17
    8  A    between atoms: C_10  and  C_25
    9  A    between atoms: C_14  and  C_18
   10  A    between atoms: C_17  and  C_19
   11  A    between atoms: C_19  and  C_27
   12  A    between atoms: C_20  and  C_25
                            x       y       z     vdW  Elec       q    Type
                         _______ _______ _______ _____ _____    ______ ____

>  <TORSDO>
F 12

$$$$
