=
 OpenBabel11052422203D

 25 28  0  0  1  0  0  0  0  0999 V2000
  161.5070  206.1930  150.0250 C   0  0  0  0  0  0  0  0  0  0  0  0
  161.7910  207.3330  150.6560 C   0  0  0  0  0  0  0  0  0  0  0  0
  161.3280  207.1760  147.8960 N   0  0  0  0  0  0  0  0  0  0  0  0
  161.3460  204.9010  150.4780 C   0  0  0  0  0  0  0  0  0  0  0  0
  160.8630  202.1870  150.7410 C   0  0  0  0  0  3  0  0  0  0  0  0
  161.7420  208.4970  148.3960 C   0  0  0  0  0  2  0  0  0  0  0  0
  161.0050  204.1500  149.3720 C   0  0  0  0  0  0  0  0  0  0  0  0
  160.7570  202.7830  149.4710 C   0  0  0  0  0  3  0  0  0  0  0  0
  161.2060  202.9590  151.8720 C   0  0  0  0  0  3  0  0  0  0  0  0
  161.2600  206.1380  148.6720 C   0  0  0  0  0  0  0  0  0  0  0  0
  160.9430  204.8940  148.2460 N   0  0  0  0  0  2  0  0  0  0  0  0
  161.4500  204.3370  151.7490 C   0  0  0  0  0  3  0  0  0  0  0  0
  161.8170  208.5440  149.8670 N   0  0  0  0  0  0  0  0  0  0  0  0
  162.0580  209.8420  150.4830 C   0  0  0  0  0  2  0  0  0  0  0  0
  161.4340  211.9980  149.6970 O   0  0  0  0  0  1  0  0  0  0  0  0
  162.2490  210.9020  149.4160 C   0  0  0  0  0  2  0  0  0  0  0  0
  162.0670  207.3600  152.1320 C   0  0  0  0  0  2  0  0  0  0  0  0
  160.9410  209.0520  154.9210 C   0  0  0  0  0  0  0  0  0  0  0  0
  160.8830  207.7940  152.8590 N   0  0  0  0  0  0  0  0  0  0  0  0
  161.9950  209.8640  155.6470 C   0  0  0  0  0  1  0  0  0  0  0  0
  159.5560  209.6050  155.2310 C   0  0  0  0  0  1  0  0  0  0  0  0
  160.7060  206.8660  153.9730 C   0  0  0  0  0  2  0  0  0  0  0  0
  160.2610  207.1800  156.3040 O   0  0  0  0  0  1  0  0  0  0  0  0
  161.1760  209.1100  153.4300 C   0  0  0  0  0  2  0  0  0  0  0  0
  161.0850  207.5830  155.2500 C   0  0  2  0  0  3  0  0  0  0  0  0
  1  4  1  0  0  0  0
  1  2  2  0  0  0  0
  2 17  1  0  0  0  0
  3  6  1  0  0  0  0
  3 10  2  0  0  0  0
  4 12  1  0  0  0  0
  5  9  1  0  0  0  0
  6 13  1  0  0  0  0
  7  8  1  0  0  0  0
  7  4  2  0  0  0  0
  8  5  2  0  0  0  0
 10  1  1  0  0  0  0
 11 10  1  0  0  0  0
 11  7  1  0  0  0  0
 12  9  2  0  0  0  0
 13 14  1  0  0  0  0
 13  2  1  0  0  0  0
 16 15  1  0  0  0  0
 16 14  1  0  0  0  0
 17 19  1  0  0  0  0
 18 21  1  0  0  0  0
 18 25  1  0  0  0  0
 18 20  1  0  0  0  0
 19 24  1  0  0  0  0
 19 22  1  0  0  0  0
 22 25  1  0  0  0  0
 24 18  1  0  0  0  0
 25 23  1  1  0  0  0
M  END
>  <MODEL>
1

>  <REMARK>
 VINA RESULT:      -8.5      0.000      0.000
  Name = 
  4 active torsions:
  status: ('A' for Active; 'I' for Inactive)
    1  A    between atoms: C_3  and  C_16
    2  A    between atoms: N_6  and  C_16
    3  A    between atoms: C_13  and  C_20
    4  A    between atoms: C_13  and  N_24
                            x       y       z     vdW  Elec       q    Type
                         _______ _______ _______ _____ _____    ______ ____

>  <TORSDO>
F 4

$$$$
=
 OpenBabel11052422203D

 25 28  0  0  1  0  0  0  0  0999 V2000
  161.3990  205.8200  150.2060 C   0  0  0  0  0  0  0  0  0  0  0  0
  161.1540  206.7690  149.3010 C   0  0  0  0  0  0  0  0  0  0  0  0
  162.5460  207.2400  151.6890 N   0  0  0  0  0  0  0  0  0  0  0  0
  161.1040  204.4740  150.2350 C   0  0  0  0  0  0  0  0  0  0  0  0
  160.8680  201.7880  150.8710 C   0  0  0  0  0  3  0  0  0  0  0  0
  162.2700  208.4310  150.8690 C   0  0  0  0  0  2  0  0  0  0  0  0
  161.6560  203.9900  151.4040 C   0  0  0  0  0  0  0  0  0  0  0  0
  161.5530  202.6450  151.7520 C   0  0  0  0  0  3  0  0  0  0  0  0
  160.3100  202.2860  149.6740 C   0  0  0  0  0  3  0  0  0  0  0  0
  162.1030  206.0640  151.3630 C   0  0  0  0  0  0  0  0  0  0  0  0
  162.2810  204.9540  152.1150 N   0  0  0  0  0  2  0  0  0  0  0  0
  160.4270  203.6460  149.3410 C   0  0  0  0  0  3  0  0  0  0  0  0
  161.6760  208.0920  149.5640 N   0  0  0  0  0  0  0  0  0  0  0  0
  161.5100  209.1730  148.6030 C   0  0  0  0  0  2  0  0  0  0  0  0
  162.3190  211.3620  148.1440 O   0  0  0  0  0  1  0  0  0  0  0  0
  162.0360  210.4740  149.1800 C   0  0  0  0  0  2  0  0  0  0  0  0
  160.3720  206.4750  148.0540 C   0  0  0  0  0  2  0  0  0  0  0  0
  161.2350  205.0800  145.0170 C   0  0  0  0  0  0  0  0  0  0  0  0
  161.2210  206.6180  146.8800 N   0  0  0  0  0  0  0  0  0  0  0  0
  160.2990  203.9960  144.5210 C   0  0  0  0  0  1  0  0  0  0  0  0
  161.9890  205.6920  143.8440 C   0  0  0  0  0  1  0  0  0  0  0  0
  162.3400  205.6940  147.0510 C   0  0  0  0  0  2  0  0  0  0  0  0
  163.3770  204.1010  145.5970 O   0  0  0  0  0  1  0  0  0  0  0  0
  160.4510  206.1610  145.7220 C   0  0  0  0  0  2  0  0  0  0  0  0
  162.1470  204.5380  146.0960 C   0  0  2  0  0  3  0  0  0  0  0  0
  1  4  1  0  0  0  0
  1 10  1  0  0  0  0
  2 13  1  0  0  0  0
  2  1  2  0  0  0  0
  4  7  1  0  0  0  0
  5  8  1  0  0  0  0
  6  3  1  0  0  0  0
  7  8  2  0  0  0  0
  7 11  1  0  0  0  0
  9  5  2  0  0  0  0
 10  3  2  0  0  0  0
 10 11  1  0  0  0  0
 12  9  1  0  0  0  0
 12  4  2  0  0  0  0
 13  6  1  0  0  0  0
 14 16  1  0  0  0  0
 14 13  1  0  0  0  0
 15 16  1  0  0  0  0
 17  2  1  0  0  0  0
 18 24  1  0  0  0  0
 18 25  1  0  0  0  0
 19 22  1  0  0  0  0
 19 17  1  0  0  0  0
 20 18  1  0  0  0  0
 21 18  1  0  0  0  0
 24 19  1  0  0  0  0
 25 23  1  6  0  0  0
 25 22  1  0  0  0  0
M  END
>  <MODEL>
2

>  <REMARK>
 VINA RESULT:      -7.8      2.967      6.049
  Name = 
  4 active torsions:
  status: ('A' for Active; 'I' for Inactive)
    1  A    between atoms: C_3  and  C_16
    2  A    between atoms: N_6  and  C_16
    3  A    between atoms: C_13  and  C_20
    4  A    between atoms: C_13  and  N_24
                            x       y       z     vdW  Elec       q    Type
                         _______ _______ _______ _____ _____    ______ ____

>  <TORSDO>
F 4

$$$$
=
 OpenBabel11052422203D

 25 28  0  0  1  0  0  0  0  0999 V2000
  161.4100  206.8460  150.8160 C   0  0  0  0  0  0  0  0  0  0  0  0
  160.9630  205.6890  150.3250 C   0  0  0  0  0  0  0  0  0  0  0  0
  161.5740  206.0790  153.0330 N   0  0  0  0  0  0  0  0  0  0  0  0
  161.6560  208.0670  150.2250 C   0  0  0  0  0  0  0  0  0  0  0  0
  162.2840  210.7080  149.6750 C   0  0  0  0  0  3  0  0  0  0  0  0
  161.2060  204.7040  152.6570 C   0  0  0  0  0  2  0  0  0  0  0  0
  162.0550  208.9080  151.2430 C   0  0  0  0  0  0  0  0  0  0  0  0
  162.3780  210.2410  150.9990 C   0  0  0  0  0  3  0  0  0  0  0  0
  161.8700  209.8460  148.6370 C   0  0  0  0  0  3  0  0  0  0  0  0
  161.6840  207.0260  152.1530 C   0  0  0  0  0  0  0  0  0  0  0  0
  162.0760  208.2870  152.4440 N   0  0  0  0  0  2  0  0  0  0  0  0
  161.5460  208.5050  148.9060 C   0  0  0  0  0  3  0  0  0  0  0  0
  160.7510  204.6050  151.2580 N   0  0  0  0  0  0  0  0  0  0  0  0
  160.2080  203.3270  150.8210 C   0  0  0  0  0  2  0  0  0  0  0  0
  160.9780  201.1630  150.2050 O   0  0  0  0  0  1  0  0  0  0  0  0
  161.2000  202.2130  151.0950 C   0  0  0  0  0  2  0  0  0  0  0  0
  160.6850  205.5190  148.8590 C   0  0  0  0  0  2  0  0  0  0  0  0
  162.1180  204.7830  145.8070 C   0  0  0  0  0  0  0  0  0  0  0  0
  161.8130  204.8750  148.2020 N   0  0  0  0  0  0  0  0  0  0  0  0
  161.5320  205.5310  144.6270 C   0  0  0  0  0  1  0  0  0  0  0  0
  163.5350  204.3280  145.4810 C   0  0  0  0  0  1  0  0  0  0  0  0
  161.3410  203.5770  147.7250 C   0  0  0  0  0  2  0  0  0  0  0  0
  161.5590  202.4290  145.6360 O   0  0  0  0  0  1  0  0  0  0  0  0
  162.1510  205.6770  147.0250 C   0  0  0  0  0  2  0  0  0  0  0  0
  161.2060  203.6490  146.2200 C   0  0  2  0  0  3  0  0  0  0  0  0
  1 10  1  0  0  0  0
  2  1  2  0  0  0  0
  2 13  1  0  0  0  0
  4  1  1  0  0  0  0
  4  7  1  0  0  0  0
  5  8  1  0  0  0  0
  6  3  1  0  0  0  0
  7 11  1  0  0  0  0
  8  7  2  0  0  0  0
  9 12  1  0  0  0  0
  9  5  2  0  0  0  0
 10 11  1  0  0  0  0
 10  3  2  0  0  0  0
 12  4  2  0  0  0  0
 13  6  1  0  0  0  0
 14 16  1  0  0  0  0
 14 13  1  0  0  0  0
 15 16  1  0  0  0  0
 17  2  1  0  0  0  0
 18 25  1  0  0  0  0
 18 24  1  0  0  0  0
 19 17  1  0  0  0  0
 20 18  1  0  0  0  0
 21 18  1  0  0  0  0
 22 19  1  0  0  0  0
 24 19  1  0  0  0  0
 25 23  1  6  0  0  0
 25 22  1  0  0  0  0
M  END
>  <MODEL>
3

>  <REMARK>
 VINA RESULT:      -7.6      3.354      7.473
  Name = 
  4 active torsions:
  status: ('A' for Active; 'I' for Inactive)
    1  A    between atoms: C_3  and  C_16
    2  A    between atoms: N_6  and  C_16
    3  A    between atoms: C_13  and  C_20
    4  A    between atoms: C_13  and  N_24
                            x       y       z     vdW  Elec       q    Type
                         _______ _______ _______ _____ _____    ______ ____

>  <TORSDO>
F 4

$$$$
=
 OpenBabel11052422203D

 25 28  0  0  1  0  0  0  0  0999 V2000
  161.2940  207.8160  150.9480 C   0  0  0  0  0  0  0  0  0  0  0  0
  161.0260  206.9960  149.9310 C   0  0  0  0  0  0  0  0  0  0  0  0
  162.1340  209.5500  149.5990 N   0  0  0  0  0  0  0  0  0  0  0  0
  161.1510  207.6740  152.3110 C   0  0  0  0  0  0  0  0  0  0  0  0
  161.1630  207.9970  155.0620 C   0  0  0  0  0  3  0  0  0  0  0  0
  161.8020  208.8360  148.3560 C   0  0  0  0  0  2  0  0  0  0  0  0
  161.6460  208.8350  152.8680 C   0  0  0  0  0  0  0  0  0  0  0  0
  161.6640  209.0290  154.2480 C   0  0  0  0  0  3  0  0  0  0  0  0
  160.6630  206.8070  154.4900 C   0  0  0  0  0  3  0  0  0  0  0  0
  161.8590  209.0590  150.7680 C   0  0  0  0  0  0  0  0  0  0  0  0
  162.0910  209.7040  151.9340 N   0  0  0  0  0  2  0  0  0  0  0  0
  160.6550  206.6330  153.0950 C   0  0  0  0  0  3  0  0  0  0  0  0
  161.3700  207.4480  148.6010 N   0  0  0  0  0  0  0  0  0  0  0  0
  161.1710  206.5940  147.4380 C   0  0  0  0  0  2  0  0  0  0  0  0
  162.3650  205.7840  145.5480 O   0  0  0  0  0  1  0  0  0  0  0  0
  162.5090  206.1350  146.8890 C   0  0  0  0  0  2  0  0  0  0  0  0
  160.3990  205.6510  150.1570 C   0  0  0  0  0  2  0  0  0  0  0  0
  160.7720  202.2570  149.6540 C   0  0  0  0  0  0  0  0  0  0  0  0
  161.3550  204.5930  149.8650 N   0  0  0  0  0  0  0  0  0  0  0  0
  159.4790  201.4930  149.4500 C   0  0  0  0  0  1  0  0  0  0  0  0
  161.9330  201.4860  149.0390 C   0  0  0  0  0  1  0  0  0  0  0  0
  161.6490  203.9250  151.1310 C   0  0  0  0  0  2  0  0  0  0  0  0
  161.7640  201.6230  151.7750 O   0  0  0  0  0  1  0  0  0  0  0  0
  160.6810  203.6180  149.0050 C   0  0  0  0  0  2  0  0  0  0  0  0
  160.9740  202.5720  151.1190 C   0  0  2  0  0  3  0  0  0  0  0  0
  1  4  1  0  0  0  0
  2 17  1  0  0  0  0
  2  1  2  0  0  0  0
  3 10  2  0  0  0  0
  4  7  2  0  0  0  0
  4 12  1  0  0  0  0
  6 13  1  0  0  0  0
  6  3  1  0  0  0  0
  7  8  1  0  0  0  0
  8  5  2  0  0  0  0
  9  5  1  0  0  0  0
 10  1  1  0  0  0  0
 10 11  1  0  0  0  0
 11  7  1  0  0  0  0
 12  9  2  0  0  0  0
 13  2  1  0  0  0  0
 14 13  1  0  0  0  0
 15 16  1  0  0  0  0
 16 14  1  0  0  0  0
 18 25  1  0  0  0  0
 19 17  1  0  0  0  0
 19 22  1  0  0  0  0
 20 18  1  0  0  0  0
 21 18  1  0  0  0  0
 24 18  1  0  0  0  0
 24 19  1  0  0  0  0
 25 22  1  0  0  0  0
 25 23  1  6  0  0  0
M  END
>  <MODEL>
4

>  <REMARK>
 VINA RESULT:      -7.3      2.411      5.853
  Name = 
  4 active torsions:
  status: ('A' for Active; 'I' for Inactive)
    1  A    between atoms: C_3  and  C_16
    2  A    between atoms: N_6  and  C_16
    3  A    between atoms: C_13  and  C_20
    4  A    between atoms: C_13  and  N_24
                            x       y       z     vdW  Elec       q    Type
                         _______ _______ _______ _____ _____    ______ ____

>  <TORSDO>
F 4

$$$$
=
 OpenBabel11052422203D

 25 28  0  0  1  0  0  0  0  0999 V2000
  161.2660  206.0920  151.6390 C   0  0  0  0  0  0  0  0  0  0  0  0
  161.3050  205.3180  150.5530 C   0  0  0  0  0  0  0  0  0  0  0  0
  160.8180  204.3310  153.1320 N   0  0  0  0  0  0  0  0  0  0  0  0
  161.4080  207.4530  151.8080 C   0  0  0  0  0  0  0  0  0  0  0  0
  161.5490  210.0370  152.7950 C   0  0  0  0  0  3  0  0  0  0  0  0
  160.9400  203.3140  152.0750 C   0  0  0  0  0  2  0  0  0  0  0  0
  161.2150  207.6890  153.1540 C   0  0  0  0  0  0  0  0  0  0  0  0
  161.2810  208.9780  153.6810 C   0  0  0  0  0  3  0  0  0  0  0  0
  161.7400  209.7920  151.4180 C   0  0  0  0  0  3  0  0  0  0  0  0
  161.0030  205.5940  152.8950 C   0  0  0  0  0  0  0  0  0  0  0  0
  160.9600  206.5560  153.8440 N   0  0  0  0  0  2  0  0  0  0  0  0
  161.6680  208.4840  150.9080 C   0  0  0  0  0  3  0  0  0  0  0  0
  161.0410  203.9080  150.7300 N   0  0  0  0  0  0  0  0  0  0  0  0
  161.0020  202.9980  149.5930 C   0  0  0  0  0  2  0  0  0  0  0  0
  161.1930  200.6900  149.0550 O   0  0  0  0  0  1  0  0  0  0  0  0
  160.8180  201.5700  150.0690 C   0  0  0  0  0  2  0  0  0  0  0  0
  161.6050  205.8890  149.1980 C   0  0  0  0  0  2  0  0  0  0  0  0
  161.8510  204.6520  145.9850 C   0  0  0  0  0  0  0  0  0  0  0  0
  160.9220  205.1250  148.1650 N   0  0  0  0  0  0  0  0  0  0  0  0
  163.2410  204.7030  145.3840 C   0  0  0  0  0  1  0  0  0  0  0  0
  161.0230  203.5800  145.2890 C   0  0  0  0  0  1  0  0  0  0  0  0
  160.3800  206.0900  147.2110 C   0  0  0  0  0  2  0  0  0  0  0  0
  160.4050  206.2130  144.8210 O   0  0  0  0  0  1  0  0  0  0  0  0
  161.9340  204.3360  147.4600 C   0  0  0  0  0  2  0  0  0  0  0  0
  161.2090  206.0210  145.9480 C   0  0  2  0  0  3  0  0  0  0  0  0
  1  4  1  0  0  0  0
  1 10  1  0  0  0  0
  2 13  1  0  0  0  0
  2  1  2  0  0  0  0
  4  7  1  0  0  0  0
  5  8  1  0  0  0  0
  6  3  1  0  0  0  0
  7  8  2  0  0  0  0
  7 11  1  0  0  0  0
  9  5  2  0  0  0  0
 10  3  2  0  0  0  0
 10 11  1  0  0  0  0
 12  9  1  0  0  0  0
 12  4  2  0  0  0  0
 13  6  1  0  0  0  0
 14 16  1  0  0  0  0
 14 13  1  0  0  0  0
 15 16  1  0  0  0  0
 17  2  1  0  0  0  0
 18 24  1  0  0  0  0
 19 17  1  0  0  0  0
 20 18  1  0  0  0  0
 21 18  1  0  0  0  0
 22 19  1  0  0  0  0
 24 19  1  0  0  0  0
 25 23  1  6  0  0  0
 25 18  1  0  0  0  0
 25 22  1  0  0  0  0
M  END
>  <MODEL>
5

>  <REMARK>
 VINA RESULT:      -7.3      3.145      7.448
  Name = 
  4 active torsions:
  status: ('A' for Active; 'I' for Inactive)
    1  A    between atoms: C_3  and  C_16
    2  A    between atoms: N_6  and  C_16
    3  A    between atoms: C_13  and  C_20
    4  A    between atoms: C_13  and  N_24
                            x       y       z     vdW  Elec       q    Type
                         _______ _______ _______ _____ _____    ______ ____

>  <TORSDO>
F 4

$$$$
=
 OpenBabel11052422203D

 25 28  0  0  1  0  0  0  0  0999 V2000
  161.5540  207.0590  150.4780 C   0  0  0  0  0  0  0  0  0  0  0  0
  161.8570  206.2510  149.4610 C   0  0  0  0  0  0  0  0  0  0  0  0
  161.5300  209.0210  149.1810 N   0  0  0  0  0  0  0  0  0  0  0  0
  161.3570  206.8190  151.8210 C   0  0  0  0  0  0  0  0  0  0  0  0
  160.9000  207.0130  154.5460 C   0  0  0  0  0  3  0  0  0  0  0  0
  161.7480  208.2780  147.9300 C   0  0  0  0  0  2  0  0  0  0  0  0
  161.1220  208.0520  152.3960 C   0  0  0  0  0  0  0  0  0  0  0  0
  160.8880  208.1820  153.7630 C   0  0  0  0  0  3  0  0  0  0  0  0
  161.1460  205.7550  153.9560 C   0  0  0  0  0  3  0  0  0  0  0  0
  161.4190  208.4210  150.3270 C   0  0  0  0  0  0  0  0  0  0  0  0
  161.1590  209.0560  151.4920 N   0  0  0  0  0  2  0  0  0  0  0  0
  161.3810  205.6460  152.5740 C   0  0  0  0  0  3  0  0  0  0  0  0
  162.0640  206.8580  148.1650 N   0  0  0  0  0  0  0  0  0  0  0  0
  162.4590  206.0600  147.0120 C   0  0  0  0  0  2  0  0  0  0  0  0
  161.6950  205.2330  144.9180 O   0  0  0  0  0  1  0  0  0  0  0  0
  161.4030  206.1500  145.9260 C   0  0  0  0  0  2  0  0  0  0  0  0
  161.9870  204.7680  149.6550 C   0  0  0  0  0  2  0  0  0  0  0  0
  160.3600  201.7300  149.4560 C   0  0  0  0  0  0  0  0  0  0  0  0
  160.7970  204.0890  149.1630 N   0  0  0  0  0  0  0  0  0  0  0  0
  160.9160  200.6460  150.3570 C   0  0  0  0  0  1  0  0  0  0  0  0
  158.9090  201.4240  149.1090 C   0  0  0  0  0  1  0  0  0  0  0  0
  161.1830  203.3900  147.9390 C   0  0  0  0  0  2  0  0  0  0  0  0
  160.8010  201.1670  147.1390 O   0  0  0  0  0  1  0  0  0  0  0  0
  160.4330  203.0700  150.1490 C   0  0  0  0  0  2  0  0  0  0  0  0
  161.2400  201.9090  148.2390 C   0  0  2  0  0  3  0  0  0  0  0  0
  1  4  1  0  0  0  0
  2 17  1  0  0  0  0
  2  1  2  0  0  0  0
  3 10  2  0  0  0  0
  4  7  2  0  0  0  0
  4 12  1  0  0  0  0
  6 13  1  0  0  0  0
  6  3  1  0  0  0  0
  7  8  1  0  0  0  0
  8  5  2  0  0  0  0
  9  5  1  0  0  0  0
 10  1  1  0  0  0  0
 10 11  1  0  0  0  0
 11  7  1  0  0  0  0
 12  9  2  0  0  0  0
 13  2  1  0  0  0  0
 14 13  1  0  0  0  0
 15 16  1  0  0  0  0
 16 14  1  0  0  0  0
 18 24  1  0  0  0  0
 18 20  1  0  0  0  0
 19 17  1  0  0  0  0
 19 24  1  0  0  0  0
 21 18  1  0  0  0  0
 22 25  1  0  0  0  0
 22 19  1  0  0  0  0
 25 23  1  6  0  0  0
 25 18  1  0  0  0  0
M  END
>  <MODEL>
6

>  <REMARK>
 VINA RESULT:      -6.8      3.079      6.172
  Name = 
  4 active torsions:
  status: ('A' for Active; 'I' for Inactive)
    1  A    between atoms: C_3  and  C_16
    2  A    between atoms: N_6  and  C_16
    3  A    between atoms: C_13  and  C_20
    4  A    between atoms: C_13  and  N_24
                            x       y       z     vdW  Elec       q    Type
                         _______ _______ _______ _____ _____    ______ ____

>  <TORSDO>
F 4

$$$$
=
 OpenBabel11052422203D

 25 28  0  0  1  0  0  0  0  0999 V2000
  161.0840  209.6070  152.1490 C   0  0  0  0  0  0  0  0  0  0  0  0
  161.6430  209.6790  150.9400 C   0  0  0  0  0  0  0  0  0  0  0  0
  160.4130  211.8610  152.1990 N   0  0  0  0  0  0  0  0  0  0  0  0
  160.9720  208.5750  153.0550 C   0  0  0  0  0  0  0  0  0  0  0  0
  160.4660  206.9810  155.2630 C   0  0  0  0  0  3  0  0  0  0  0  0
  160.8710  212.0990  150.8210 C   0  0  0  0  0  2  0  0  0  0  0  0
  160.3380  209.1060  154.1590 C   0  0  0  0  0  0  0  0  0  0  0  0
  160.0690  208.3300  155.2850 C   0  0  0  0  0  3  0  0  0  0  0  0
  161.1190  206.4420  154.1330 C   0  0  0  0  0  3  0  0  0  0  0  0
  160.5030  210.6950  152.7620 C   0  0  0  0  0  0  0  0  0  0  0  0
  160.0420  210.4150  154.0020 N   0  0  0  0  0  2  0  0  0  0  0  0
  161.3830  207.2440  153.0090 C   0  0  0  0  0  3  0  0  0  0  0  0
  161.6410  210.9650  150.2790 N   0  0  0  0  0  0  0  0  0  0  0  0
  162.2840  211.1500  148.9850 C   0  0  0  0  0  2  0  0  0  0  0  0
  160.9100  212.0480  147.2640 O   0  0  0  0  0  1  0  0  0  0  0  0
  161.7570  212.4040  148.3120 C   0  0  0  0  0  2  0  0  0  0  0  0
  162.2580  208.4730  150.2920 C   0  0  0  0  0  2  0  0  0  0  0  0
  161.0540  205.9090  148.3200 C   0  0  0  0  0  0  0  0  0  0  0  0
  161.5630  208.1550  149.0540 N   0  0  0  0  0  0  0  0  0  0  0  0
  161.0080  204.5520  148.9910 C   0  0  0  0  0  1  0  0  0  0  0  0
  160.0570  205.9530  147.1680 C   0  0  0  0  0  1  0  0  0  0  0  0
  162.5790  207.7400  148.0900 C   0  0  0  0  0  2  0  0  0  0  0  0
  162.7350  205.8960  146.5730 O   0  0  0  0  0  1  0  0  0  0  0  0
  160.7100  206.9930  149.3150 C   0  0  0  0  0  2  0  0  0  0  0  0
  162.4670  206.2440  147.8990 C   0  0  2  0  0  3  0  0  0  0  0  0
  1 10  1  0  0  0  0
  1  4  1  0  0  0  0
  2  1  2  0  0  0  0
  3 10  2  0  0  0  0
  4  7  1  0  0  0  0
  5  8  1  0  0  0  0
  6  3  1  0  0  0  0
  7  8  2  0  0  0  0
  9  5  2  0  0  0  0
 10 11  1  0  0  0  0
 11  7  1  0  0  0  0
 12  4  2  0  0  0  0
 12  9  1  0  0  0  0
 13  6  1  0  0  0  0
 13  2  1  0  0  0  0
 14 13  1  0  0  0  0
 15 16  1  0  0  0  0
 16 14  1  0  0  0  0
 17  2  1  0  0  0  0
 18 20  1  0  0  0  0
 18 24  1  0  0  0  0
 19 24  1  0  0  0  0
 19 17  1  0  0  0  0
 21 18  1  0  0  0  0
 22 19  1  0  0  0  0
 25 23  1  6  0  0  0
 25 22  1  0  0  0  0
 25 18  1  0  0  0  0
M  END
>  <MODEL>
7

>  <REMARK>
 VINA RESULT:      -6.6      2.705      5.850
  Name = 
  4 active torsions:
  status: ('A' for Active; 'I' for Inactive)
    1  A    between atoms: C_3  and  C_16
    2  A    between atoms: N_6  and  C_16
    3  A    between atoms: C_13  and  C_20
    4  A    between atoms: C_13  and  N_24
                            x       y       z     vdW  Elec       q    Type
                         _______ _______ _______ _____ _____    ______ ____

>  <TORSDO>
F 4

$$$$
=
 OpenBabel11052422203D

 25 28  0  0  1  0  0  0  0  0999 V2000
  161.3130  207.8840  150.5440 C   0  0  0  0  0  0  0  0  0  0  0  0
  161.0300  208.7190  151.5450 C   0  0  0  0  0  0  0  0  0  0  0  0
  162.1460  209.5550  149.1130 N   0  0  0  0  0  0  0  0  0  0  0  0
  161.1430  206.5250  150.3990 C   0  0  0  0  0  0  0  0  0  0  0  0
  161.0340  203.9130  149.4820 C   0  0  0  0  0  3  0  0  0  0  0  0
  162.0120  210.5990  150.1420 C   0  0  0  0  0  2  0  0  0  0  0  0
  161.5720  206.2230  149.1220 C   0  0  0  0  0  0  0  0  0  0  0  0
  161.5300  204.9190  148.6320 C   0  0  0  0  0  3  0  0  0  0  0  0
  160.5920  204.2260  150.7850 C   0  0  0  0  0  3  0  0  0  0  0  0
  161.8410  208.3160  149.3470 C   0  0  0  0  0  0  0  0  0  0  0  0
  162.0040  207.3140  148.4530 N   0  0  0  0  0  2  0  0  0  0  0  0
  160.6410  205.5490  151.2580 C   0  0  0  0  0  3  0  0  0  0  0  0
  161.2810  210.1270  151.3320 N   0  0  0  0  0  0  0  0  0  0  0  0
  160.9450  211.1160  152.3470 C   0  0  0  0  0  2  0  0  0  0  0  0
  158.6920  211.8770  152.2790 O   0  0  0  0  0  1  0  0  0  0  0  0
  159.9700  212.1340  151.7850 C   0  0  0  0  0  2  0  0  0  0  0  0
  160.4670  208.2170  152.8430 C   0  0  0  0  0  2  0  0  0  0  0  0
  160.9080  208.0910  156.2640 C   0  0  0  0  0  0  0  0  0  0  0  0
  161.2130  208.7680  153.9640 N   0  0  0  0  0  0  0  0  0  0  0  0
  160.2600  206.9050  156.9500 C   0  0  0  0  0  1  0  0  0  0  0  0
  162.0520  208.6240  157.1180 C   0  0  0  0  0  1  0  0  0  0  0  0
  160.3390  209.7370  154.6210 C   0  0  0  0  0  2  0  0  0  0  0  0
  159.7660  210.1290  156.9120 O   0  0  0  0  0  1  0  0  0  0  0  0
  161.4480  207.6790  154.9140 C   0  0  0  0  0  2  0  0  0  0  0  0
  159.8720  209.1400  155.9300 C   0  0  2  0  0  3  0  0  0  0  0  0
  1  2  2  0  0  0  0
  2 17  1  0  0  0  0
  3 10  2  0  0  0  0
  3  6  1  0  0  0  0
  4  1  1  0  0  0  0
  4 12  1  0  0  0  0
  5  9  1  0  0  0  0
  6 13  1  0  0  0  0
  7  4  2  0  0  0  0
  8  7  1  0  0  0  0
  8  5  2  0  0  0  0
  9 12  2  0  0  0  0
 10  1  1  0  0  0  0
 11  7  1  0  0  0  0
 11 10  1  0  0  0  0
 13  2  1  0  0  0  0
 13 14  1  0  0  0  0
 16 15  1  0  0  0  0
 16 14  1  0  0  0  0
 17 19  1  0  0  0  0
 18 20  1  0  0  0  0
 18 21  1  0  0  0  0
 19 22  1  0  0  0  0
 19 24  1  0  0  0  0
 22 25  1  0  0  0  0
 24 18  1  0  0  0  0
 25 18  1  0  0  0  0
 25 23  1  1  0  0  0
M  END
>  <MODEL>
8

>  <REMARK>
 VINA RESULT:      -6.3      1.705      2.493
  Name = 
  4 active torsions:
  status: ('A' for Active; 'I' for Inactive)
    1  A    between atoms: C_3  and  C_16
    2  A    between atoms: N_6  and  C_16
    3  A    between atoms: C_13  and  C_20
    4  A    between atoms: C_13  and  N_24
                            x       y       z     vdW  Elec       q    Type
                         _______ _______ _______ _____ _____    ______ ____

>  <TORSDO>
F 4

$$$$
=
 OpenBabel11052422203D

 25 28  0  0  1  0  0  0  0  0999 V2000
  161.0360  204.7090  148.9320 C   0  0  0  0  0  0  0  0  0  0  0  0
  160.8120  205.5290  149.9590 C   0  0  0  0  0  0  0  0  0  0  0  0
  161.2070  202.7690  150.2500 N   0  0  0  0  0  0  0  0  0  0  0  0
  161.1550  204.9370  147.5780 C   0  0  0  0  0  0  0  0  0  0  0  0
  161.5350  204.7300  144.8420 C   0  0  0  0  0  3  0  0  0  0  0  0
  160.8580  203.4940  151.4830 C   0  0  0  0  0  2  0  0  0  0  0  0
  161.4410  203.7110  147.0110 C   0  0  0  0  0  0  0  0  0  0  0  0
  161.6360  203.5750  145.6380 C   0  0  0  0  0  3  0  0  0  0  0  0
  161.2480  205.9830  145.4250 C   0  0  0  0  0  3  0  0  0  0  0  0
  161.2500  203.3590  149.0950 C   0  0  0  0  0  0  0  0  0  0  0  0
  161.5080  202.7230  147.9300 N   0  0  0  0  0  2  0  0  0  0  0  0
  161.0560  206.0980  146.8130 C   0  0  0  0  0  3  0  0  0  0  0  0
  160.8170  204.9540  151.2860 N   0  0  0  0  0  0  0  0  0  0  0  0
  160.6420  205.7840  152.4700 C   0  0  0  0  0  2  0  0  0  0  0  0
  161.7900  206.7240  154.3280 O   0  0  0  0  0  1  0  0  0  0  0  0
  161.9160  205.7990  153.2930 C   0  0  0  0  0  2  0  0  0  0  0  0
  160.5700  206.9960  149.7490 C   0  0  0  0  0  2  0  0  0  0  0  0
  161.7010  209.9600  151.1080 C   0  0  0  0  0  0  0  0  0  0  0  0
  161.7550  207.7600  150.1100 N   0  0  0  0  0  0  0  0  0  0  0  0
  160.6430  210.7880  151.8090 C   0  0  0  0  0  1  0  0  0  0  0  0
  163.0820  210.3220  151.6410 C   0  0  0  0  0  1  0  0  0  0  0  0
  161.9570  208.7520  149.0560 C   0  0  0  0  0  2  0  0  0  0  0  0
  162.4220  211.0990  149.0920 O   0  0  0  0  0  1  0  0  0  0  0  0
  161.4490  208.4890  151.3420 C   0  0  0  0  0  2  0  0  0  0  0  0
  161.5810  210.1090  149.6080 C   0  0  2  0  0  3  0  0  0  0  0  0
  1 10  1  0  0  0  0
  1  2  2  0  0  0  0
  2 13  1  0  0  0  0
  3  6  1  0  0  0  0
  4  1  1  0  0  0  0
  5  9  2  0  0  0  0
  5  8  1  0  0  0  0
  7  4  1  0  0  0  0
  7 11  1  0  0  0  0
  8  7  2  0  0  0  0
  9 12  1  0  0  0  0
 10  3  2  0  0  0  0
 11 10  1  0  0  0  0
 12  4  2  0  0  0  0
 13  6  1  0  0  0  0
 13 14  1  0  0  0  0
 14 16  1  0  0  0  0
 16 15  1  0  0  0  0
 17  2  1  0  0  0  0
 17 19  1  0  0  0  0
 18 24  1  0  0  0  0
 18 21  1  0  0  0  0
 18 20  1  0  0  0  0
 19 24  1  0  0  0  0
 22 25  1  0  0  0  0
 22 19  1  0  0  0  0
 25 23  1  6  0  0  0
 25 18  1  0  0  0  0
M  END
>  <MODEL>
9

>  <REMARK>
 VINA RESULT:      -6.3      2.082      4.822
  Name = 
  4 active torsions:
  status: ('A' for Active; 'I' for Inactive)
    1  A    between atoms: C_3  and  C_16
    2  A    between atoms: N_6  and  C_16
    3  A    between atoms: C_13  and  C_20
    4  A    between atoms: C_13  and  N_24
                            x       y       z     vdW  Elec       q    Type
                         _______ _______ _______ _____ _____    ______ ____

>  <TORSDO>
F 4

$$$$
