=
 OpenBabel11052423223D

 27 31  0  0  1  0  0  0  0  0999 V2000
  159.0310  211.6450  156.7780 C   0  0  0  0  0  2  0  0  0  0  0  0
  159.0290  212.0890  154.4250 C   0  0  1  0  0  3  0  0  0  0  0  0
  161.4420  211.6290  155.1320 C   0  0  0  0  0  2  0  0  0  0  0  0
  157.9180  213.4800  152.9340 C   0  0  1  0  0  3  0  0  0  0  0  0
  158.2260  212.1370  153.2630 O   0  0  0  0  0  0  0  0  0  0  0  0
  155.1660  212.1130  157.0810 C   0  0  0  0  0  2  0  0  0  0  0  0
  156.9530  211.8870  155.5980 C   0  0  1  0  0  3  0  0  0  0  0  0
  161.7670  208.2390  157.0120 C   0  0  0  0  0  2  0  0  0  0  0  0
  156.8220  213.3140  156.1360 C   0  0  2  0  0  3  0  0  0  0  0  0
  160.2870  208.0660  157.0360 C   0  0  0  0  0  0  0  0  0  0  0  0
  158.3330  211.3840  155.5150 N   0  0  2  0  0  0  0  0  0  0  0  0
  156.6680  214.0510  153.6220 C   0  0  2  0  0  3  0  0  0  0  0  0
  160.0480  210.5510  157.0840 C   0  0  1  0  0  3  0  0  0  0  0  0
  160.3590  211.4100  154.0680 C   0  0  1  0  0  3  0  0  0  0  0  0
  162.1060  209.3420  156.0140 C   0  0  0  0  0  2  0  0  0  0  0  0
  159.1060  214.4420  152.8760 C   0  0  0  0  0  1  0  0  0  0  0  0
  159.7790  206.9170  157.1010 O   0  0  0  0  0  0  0  0  0  0  0  0
  155.5830  213.3020  156.8570 N   0  0  0  0  0  2  0  0  0  0  0  0
  159.4530  209.2210  156.9790 N   0  0  0  0  0  2  0  0  0  0  0  0
  156.8660  214.4410  155.0950 C   0  0  0  0  0  2  0  0  0  0  0  0
  161.4020  210.6730  156.3330 C   0  0  1  0  0  3  0  0  0  0  0  0
  156.0620  211.0630  156.5150 C   0  0  0  0  0  2  0  0  0  0  0  0
  159.9640  209.9150  152.2400 O   0  0  0  0  0  0  0  0  0  0  0  0
  161.2640  209.5910  152.6660 C   0  0  0  0  0  2  0  0  0  0  0  0
  160.1990  209.9560  153.6270 C   0  0  1  0  0  3  0  0  0  0  0  0
  154.4660  214.0960  153.3890 C   0  0  0  0  0  1  0  0  0  0  0  0
  155.5550  213.2240  153.4420 O   0  0  0  0  0  0  0  0  0  0  0  0
  2  5  1  6  0  0  0
  2 11  1  0  0  0  0
  4 16  1  1  0  0  0
  4  5  1  0  0  0  0
  4 12  1  0  0  0  0
  7  9  1  0  0  0  0
  7 22  1  1  0  0  0
  8 10  1  0  0  0  0
  9 20  1  6  0  0  0
  9 18  1  0  0  0  0
 10 17  2  0  0  0  0
 11  7  1  0  0  0  0
 11  1  1  1  0  0  0
 12 27  1  1  0  0  0
 12 20  1  0  0  0  0
 13  1  1  6  0  0  0
 14  2  1  0  0  0  0
 14  3  1  1  0  0  0
 15 21  1  0  0  0  0
 15  8  1  0  0  0  0
 18  6  1  0  0  0  0
 19 10  1  0  0  0  0
 19 13  1  0  0  0  0
 21  3  1  6  0  0  0
 21 13  1  0  0  0  0
 22  6  1  0  0  0  0
 23 24  1  0  0  0  0
 23 25  1  0  0  0  0
 25 24  1  6  0  0  0
 25 14  1  0  0  0  0
 26 27  1  0  0  0  0
M  END
>  <MODEL>
1

>  <REMARK>
 VINA RESULT:      -3.6      0.000      0.000
  Name = 
  2 active torsions:
  status: ('A' for Active; 'I' for Inactive)
    1  A    between atoms: C_14  and  C_19
    2  A    between atoms: O_16  and  C_17
                            x       y       z     vdW  Elec       q    Type
                         _______ _______ _______ _____ _____    ______ ____

>  <TORSDO>
F 2

$$$$
=
 OpenBabel11052423223D

 27 31  0  0  1  0  0  0  0  0999 V2000
  160.0560  212.5800  152.6610 C   0  0  0  0  0  2  0  0  0  0  0  0
  159.0650  211.5100  154.5600 C   0  0  1  0  0  3  0  0  0  0  0  0
  158.0400  213.8420  154.3540 C   0  0  0  0  0  2  0  0  0  0  0  0
  159.7170  210.0710  156.2630 C   0  0  1  0  0  3  0  0  0  0  0  0
  158.8210  210.2640  155.1830 O   0  0  0  0  0  0  0  0  0  0  0  0
  162.3050  209.4970  151.8340 C   0  0  0  0  0  2  0  0  0  0  0  0
  160.5160  210.2670  153.1180 C   0  0  1  0  0  3  0  0  0  0  0  0
  156.5640  214.4530  150.8070 C   0  0  0  0  0  2  0  0  0  0  0  0
  161.8700  210.6620  153.7140 C   0  0  2  0  0  3  0  0  0  0  0  0
  157.1280  213.1680  150.3080 C   0  0  0  0  0  0  0  0  0  0  0  0
  159.4920  211.3230  153.1630 N   0  0  2  0  0  0  0  0  0  0  0  0
  161.0640  209.4330  155.8880 C   0  0  2  0  0  3  0  0  0  0  0  0
  158.9990  213.4130  151.9430 C   0  0  1  0  0  3  0  0  0  0  0  0
  157.7890  212.3590  154.6560 C   0  0  1  0  0  3  0  0  0  0  0  0
  156.6280  214.4470  152.3310 C   0  0  0  0  0  2  0  0  0  0  0  0
  159.8170  211.2250  157.2610 C   0  0  0  0  0  1  0  0  0  0  0  0
  156.5920  212.5670  149.3410 O   0  0  0  0  0  0  0  0  0  0  0  0
  162.8220  209.9490  152.9140 N   0  0  0  0  0  2  0  0  0  0  0  0
  158.2820  212.6240  150.9450 N   0  0  0  0  0  2  0  0  0  0  0  0
  162.0610  210.3870  155.2110 C   0  0  0  0  0  2  0  0  0  0  0  0
  158.0540  214.2280  152.8680 C   0  0  1  0  0  3  0  0  0  0  0  0
  160.8520  209.8090  151.7070 C   0  0  0  0  0  2  0  0  0  0  0  0
  155.9910  210.7800  154.7100 O   0  0  0  0  0  0  0  0  0  0  0  0
  155.3440  212.0250  154.6360 C   0  0  0  0  0  2  0  0  0  0  0  0
  156.6030  211.7570  153.9050 C   0  0  1  0  0  3  0  0  0  0  0  0
  160.3360  207.3490  156.0730 C   0  0  0  0  0  1  0  0  0  0  0  0
  160.8920  208.2500  155.1630 O   0  0  0  0  0  0  0  0  0  0  0  0
  2 14  1  0  0  0  0
  2  5  1  6  0  0  0
  4 16  1  6  0  0  0
  5  4  1  0  0  0  0
  6 18  1  0  0  0  0
  7 22  1  6  0  0  0
  7 11  1  0  0  0  0
  7  9  1  0  0  0  0
  8 15  1  0  0  0  0
  9 20  1  1  0  0  0
 10  8  1  0  0  0  0
 10 19  1  0  0  0  0
 11  1  1  1  0  0  0
 11  2  1  0  0  0  0
 12 27  1  6  0  0  0
 12  4  1  0  0  0  0
 13  1  1  1  0  0  0
 13 21  1  0  0  0  0
 14  3  1  6  0  0  0
 17 10  2  0  0  0  0
 18  9  1  0  0  0  0
 19 13  1  0  0  0  0
 20 12  1  0  0  0  0
 21 15  1  6  0  0  0
 21  3  1  0  0  0  0
 22  6  1  0  0  0  0
 24 23  1  0  0  0  0
 25 24  1  1  0  0  0
 25 14  1  0  0  0  0
 25 23  1  0  0  0  0
 27 26  1  0  0  0  0
M  END
>  <MODEL>
2

>  <REMARK>
 VINA RESULT:      -3.4      2.304      6.615
  Name = 
  2 active torsions:
  status: ('A' for Active; 'I' for Inactive)
    1  A    between atoms: C_14  and  C_19
    2  A    between atoms: O_16  and  C_17
                            x       y       z     vdW  Elec       q    Type
                         _______ _______ _______ _____ _____    ______ ____

>  <TORSDO>
F 2

$$$$
=
 OpenBabel11052423223D

 27 31  0  0  1  0  0  0  0  0999 V2000
  162.2800  210.2060  153.4810 C   0  0  0  0  0  2  0  0  0  0  0  0
  161.3620  207.9950  153.5260 C   0  0  1  0  0  3  0  0  0  0  0  0
  162.2640  208.5150  155.8610 C   0  0  0  0  0  2  0  0  0  0  0  0
  161.2260  206.1560  152.1140 C   0  0  1  0  0  3  0  0  0  0  0  0
  160.4870  207.0970  152.8720 O   0  0  0  0  0  0  0  0  0  0  0  0
  161.3970  210.7210  149.7120 C   0  0  0  0  0  2  0  0  0  0  0  0
  161.0810  209.3590  151.5800 C   0  0  1  0  0  3  0  0  0  0  0  0
  160.7950  211.8340  157.2610 C   0  0  0  0  0  2  0  0  0  0  0  0
  162.4110  209.0780  150.8750 C   0  0  2  0  0  3  0  0  0  0  0  0
  160.1400  212.1390  155.9580 C   0  0  0  0  0  0  0  0  0  0  0  0
  161.1530  209.3720  153.0490 N   0  0  2  0  0  0  0  0  0  0  0  0
  161.5760  206.5980  150.6850 C   0  0  2  0  0  3  0  0  0  0  0  0
  161.9760  210.9050  154.8020 C   0  0  1  0  0  3  0  0  0  0  0  0
  161.1350  207.8770  155.0400 C   0  0  1  0  0  3  0  0  0  0  0  0
  161.2280  210.3710  157.2510 C   0  0  0  0  0  2  0  0  0  0  0  0
  162.3600  205.4470  152.8550 C   0  0  0  0  0  1  0  0  0  0  0  0
  159.1120  212.8640  155.9140 O   0  0  0  0  0  0  0  0  0  0  0  0
  162.3370  209.8530  149.6710 N   0  0  0  0  0  2  0  0  0  0  0  0
  160.6890  211.5930  154.7610 N   0  0  0  0  0  2  0  0  0  0  0  0
  162.7320  207.6050  150.5890 C   0  0  0  0  0  2  0  0  0  0  0  0
  162.1600  210.0320  156.0740 C   0  0  1  0  0  3  0  0  0  0  0  0
  160.6190  210.6790  150.9830 C   0  0  0  0  0  2  0  0  0  0  0  0
  158.8910  207.1630  155.4680 O   0  0  0  0  0  0  0  0  0  0  0  0
  159.3550  207.5900  156.7240 C   0  0  0  0  0  2  0  0  0  0  0  0
  159.7310  208.2910  155.4770 C   0  0  1  0  0  3  0  0  0  0  0  0
  160.4650  206.3010  148.7920 C   0  0  0  0  0  1  0  0  0  0  0  0
  160.4450  207.0260  149.9840 O   0  0  0  0  0  0  0  0  0  0  0  0
  2  5  1  6  0  0  0
  2 14  1  0  0  0  0
  4 16  1  1  0  0  0
  4  5  1  0  0  0  0
  6 22  1  0  0  0  0
  7 22  1  6  0  0  0
  7 11  1  0  0  0  0
  9 20  1  6  0  0  0
  9  7  1  0  0  0  0
 10  8  1  0  0  0  0
 11  1  1  6  0  0  0
 11  2  1  0  0  0  0
 12 27  1  1  0  0  0
 12  4  1  0  0  0  0
 13  1  1  6  0  0  0
 13 21  1  0  0  0  0
 14 25  1  0  0  0  0
 14  3  1  1  0  0  0
 15  8  1  0  0  0  0
 17 10  2  0  0  0  0
 18  6  1  0  0  0  0
 18  9  1  0  0  0  0
 19 13  1  0  0  0  0
 19 10  1  0  0  0  0
 20 12  1  0  0  0  0
 21  3  1  6  0  0  0
 21 15  1  0  0  0  0
 23 25  1  0  0  0  0
 23 24  1  0  0  0  0
 25 24  1  1  0  0  0
 26 27  1  0  0  0  0
M  END
>  <MODEL>
3

>  <REMARK>
 VINA RESULT:      -2.2      3.286      6.597
  Name = 
  2 active torsions:
  status: ('A' for Active; 'I' for Inactive)
    1  A    between atoms: C_14  and  C_19
    2  A    between atoms: O_16  and  C_17
                            x       y       z     vdW  Elec       q    Type
                         _______ _______ _______ _____ _____    ______ ____

>  <TORSDO>
F 2

$$$$
=
 OpenBabel11052423223D

 27 31  0  0  1  0  0  0  0  0999 V2000
  159.4230  214.1450  139.4480 C   0  0  0  0  0  2  0  0  0  0  0  0
  159.1840  211.7940  139.0650 C   0  0  1  0  0  3  0  0  0  0  0  0
  161.4840  212.4970  138.2010 C   0  0  0  0  0  2  0  0  0  0  0  0
  157.5070  210.3090  138.4530 C   0  0  1  0  0  3  0  0  0  0  0  0
  158.4700  210.6320  139.4390 O   0  0  0  0  0  0  0  0  0  0  0  0
  155.8810  214.4530  141.0650 C   0  0  0  0  0  2  0  0  0  0  0  0
  157.5200  212.9680  140.3220 C   0  0  1  0  0  3  0  0  0  0  0  0
  163.5330  214.3650  140.9300 C   0  0  0  0  0  2  0  0  0  0  0  0
  156.6660  213.5110  139.1740 C   0  0  2  0  0  3  0  0  0  0  0  0
  162.3600  214.3900  141.8490 C   0  0  0  0  0  0  0  0  0  0  0  0
  158.9600  212.8820  140.0320 N   0  0  2  0  0  0  0  0  0  0  0  0
  156.1440  210.9990  138.6190 C   0  0  2  0  0  3  0  0  0  0  0  0
  160.8620  214.4470  139.8530 C   0  0  1  0  0  3  0  0  0  0  0  0
  160.6720  211.4330  138.9500 C   0  0  1  0  0  3  0  0  0  0  0  0
  163.2460  213.3710  139.8090 C   0  0  0  0  0  2  0  0  0  0  0  0
  158.0190  210.2530  137.0130 C   0  0  0  0  0  1  0  0  0  0  0  0
  162.5260  214.4520  143.0940 O   0  0  0  0  0  0  0  0  0  0  0  0
  155.6160  214.2320  139.8320 N   0  0  0  0  0  2  0  0  0  0  0  0
  161.0470  214.3380  141.2970 N   0  0  0  0  0  2  0  0  0  0  0  0
  156.1140  212.4740  138.1860 C   0  0  0  0  0  2  0  0  0  0  0  0
  161.9520  213.6950  139.0410 C   0  0  1  0  0  3  0  0  0  0  0  0
  157.1920  213.8830  141.4920 C   0  0  0  0  0  2  0  0  0  0  0  0
  160.6930  209.7820  140.6830 O   0  0  0  0  0  0  0  0  0  0  0  0
  161.9710  209.6830  140.1070 C   0  0  0  0  0  2  0  0  0  0  0  0
  161.2920  210.9870  140.2730 C   0  0  1  0  0  3  0  0  0  0  0  0
  154.2630  210.5810  139.7100 C   0  0  0  0  0  1  0  0  0  0  0  0
  155.6250  210.8170  139.9040 O   0  0  0  0  0  0  0  0  0  0  0  0
  2  5  1  1  0  0  0
  2 11  1  0  0  0  0
  4 16  1  6  0  0  0
  4 12  1  0  0  0  0
  4  5  1  0  0  0  0
  6 22  1  0  0  0  0
  7 22  1  1  0  0  0
  8 10  1  0  0  0  0
  9 20  1  1  0  0  0
  9 18  1  0  0  0  0
  9  7  1  0  0  0  0
 10 17  2  0  0  0  0
 11  1  1  6  0  0  0
 11  7  1  0  0  0  0
 12 27  1  1  0  0  0
 13  1  1  1  0  0  0
 13 19  1  0  0  0  0
 14  3  1  1  0  0  0
 14  2  1  0  0  0  0
 14 25  1  0  0  0  0
 15  8  1  0  0  0  0
 18  6  1  0  0  0  0
 19 10  1  0  0  0  0
 20 12  1  0  0  0  0
 21  3  1  1  0  0  0
 21 15  1  0  0  0  0
 21 13  1  0  0  0  0
 24 23  1  0  0  0  0
 25 24  1  6  0  0  0
 25 23  1  0  0  0  0
 26 27  1  0  0  0  0
M  END
>  <MODEL>
4

>  <REMARK>
 VINA RESULT:      -2.2     14.120     15.745
  Name = 
  2 active torsions:
  status: ('A' for Active; 'I' for Inactive)
    1  A    between atoms: C_14  and  C_19
    2  A    between atoms: O_16  and  C_17
                            x       y       z     vdW  Elec       q    Type
                         _______ _______ _______ _____ _____    ______ ____

>  <TORSDO>
F 2

$$$$
=
 OpenBabel11052423223D

 27 31  0  0  1  0  0  0  0  0999 V2000
  160.6460  210.6980  141.5490 C   0  0  0  0  0  2  0  0  0  0  0  0
  160.7460  211.6320  139.3470 C   0  0  1  0  0  3  0  0  0  0  0  0
  159.4840  213.2800  140.8390 C   0  0  0  0  0  2  0  0  0  0  0  0
  160.6390  210.8850  137.1510 C   0  0  1  0  0  3  0  0  0  0  0  0
  161.4190  211.5840  138.1050 O   0  0  0  0  0  0  0  0  0  0  0  0
  162.6050  207.4860  140.5010 C   0  0  0  0  0  2  0  0  0  0  0  0
  161.9570  209.6290  139.8440 C   0  0  1  0  0  3  0  0  0  0  0  0
  161.5340  214.2010  144.0150 C   0  0  0  0  0  2  0  0  0  0  0  0
  160.8430  208.5990  139.6430 C   0  0  2  0  0  3  0  0  0  0  0  0
  162.5710  213.1810  143.6890 C   0  0  0  0  0  0  0  0  0  0  0  0
  161.5100  210.9220  140.3860 N   0  0  2  0  0  0  0  0  0  0  0  0
  160.8410  209.3620  137.1320 C   0  0  2  0  0  3  0  0  0  0  0  0
  160.8030  211.8130  142.5780 C   0  0  1  0  0  3  0  0  0  0  0  0
  160.5160  213.1050  139.7180 C   0  0  1  0  0  3  0  0  0  0  0  0
  160.6660  214.4170  142.7790 C   0  0  0  0  0  2  0  0  0  0  0  0
  159.1840  211.3350  137.0210 C   0  0  0  0  0  1  0  0  0  0  0  0
  163.7520  213.3180  144.1010 O   0  0  0  0  0  0  0  0  0  0  0  0
  161.4780  207.3420  139.9100 N   0  0  0  0  0  2  0  0  0  0  0  0
  162.2080  212.0520  142.8990 N   0  0  0  0  0  2  0  0  0  0  0  0
  160.1450  208.6080  138.2760 C   0  0  0  0  0  2  0  0  0  0  0  0
  160.0180  213.1170  142.2700 C   0  0  1  0  0  3  0  0  0  0  0  0
  162.9650  208.9150  140.7320 C   0  0  0  0  0  2  0  0  0  0  0  0
  162.8460  213.2780  139.1940 O   0  0  0  0  0  0  0  0  0  0  0  0
  162.2880  214.4460  138.6460 C   0  0  0  0  0  2  0  0  0  0  0  0
  161.8120  213.8860  139.9300 C   0  0  1  0  0  3  0  0  0  0  0  0
  162.2100  207.6250  137.0210 C   0  0  0  0  0  1  0  0  0  0  0  0
  162.1930  209.0200  137.0210 O   0  0  0  0  0  0  0  0  0  0  0  0
  2  5  1  6  0  0  0
  2 14  1  0  0  0  0
  2 11  1  0  0  0  0
  4 16  1  1  0  0  0
  4  5  1  0  0  0  0
  6 22  1  0  0  0  0
  7 11  1  0  0  0  0
  7 22  1  1  0  0  0
  9 20  1  6  0  0  0
  9  7  1  0  0  0  0
  9 18  1  0  0  0  0
 10  8  1  0  0  0  0
 10 17  2  0  0  0  0
 11  1  1  1  0  0  0
 12 27  1  1  0  0  0
 12  4  1  0  0  0  0
 12 20  1  0  0  0  0
 13  1  1  6  0  0  0
 13 19  1  0  0  0  0
 14 25  1  0  0  0  0
 14  3  1  1  0  0  0
 15  8  1  0  0  0  0
 18  6  1  0  0  0  0
 19 10  1  0  0  0  0
 21  3  1  6  0  0  0
 21 13  1  0  0  0  0
 21 15  1  0  0  0  0
 23 25  1  0  0  0  0
 24 23  1  0  0  0  0
 25 24  1  6  0  0  0
 27 26  1  0  0  0  0
M  END
>  <MODEL>
5

>  <REMARK>
 VINA RESULT:      -1.8     13.282     16.010
  Name = 
  2 active torsions:
  status: ('A' for Active; 'I' for Inactive)
    1  A    between atoms: C_14  and  C_19
    2  A    between atoms: O_16  and  C_17
                            x       y       z     vdW  Elec       q    Type
                         _______ _______ _______ _____ _____    ______ ____

>  <TORSDO>
F 2

$$$$
=
 OpenBabel11052423223D

 27 31  0  0  1  0  0  0  0  0999 V2000
  162.1330  204.0340  149.1120 C   0  0  0  0  0  2  0  0  0  0  0  0
  161.6280  206.2700  148.4210 C   0  0  1  0  0  3  0  0  0  0  0  0
  162.6870  205.0580  146.4350 C   0  0  0  0  0  2  0  0  0  0  0  0
  161.6550  208.4040  149.3360 C   0  0  1  0  0  3  0  0  0  0  0  0
  160.8550  207.4180  148.7090 O   0  0  0  0  0  0  0  0  0  0  0  0
  160.7450  204.6120  152.7170 C   0  0  0  0  0  2  0  0  0  0  0  0
  160.8900  205.4920  150.5610 C   0  0  1  0  0  3  0  0  0  0  0  0
  160.8310  201.7370  145.6230 C   0  0  0  0  0  2  0  0  0  0  0  0
  162.1580  205.7490  151.3790 C   0  0  2  0  0  3  0  0  0  0  0  0
  159.9860  201.8650  146.8440 C   0  0  0  0  0  0  0  0  0  0  0  0
  161.1270  205.1000  149.1630 N   0  0  2  0  0  0  0  0  0  0  0  0
  161.7550  208.2910  150.8650 C   0  0  2  0  0  3  0  0  0  0  0  0
  161.8660  203.0760  147.9560 C   0  0  1  0  0  3  0  0  0  0  0  0
  161.6010  206.0350  146.9030 C   0  0  1  0  0  3  0  0  0  0  0  0
  161.5090  203.0790  145.3650 C   0  0  0  0  0  2  0  0  0  0  0  0
  162.9730  208.7370  148.6360 C   0  0  0  0  0  1  0  0  0  0  0  0
  158.8500  201.3280  146.8940 O   0  0  0  0  0  0  0  0  0  0  0  0
  161.8120  205.3200  152.7020 N   0  0  0  0  0  2  0  0  0  0  0  0
  160.4820  202.6100  147.9540 N   0  0  0  0  0  2  0  0  0  0  0  0
  162.6980  207.1860  151.3660 C   0  0  0  0  0  2  0  0  0  0  0  0
  162.3450  203.5660  146.5620 C   0  0  1  0  0  3  0  0  0  0  0  0
  160.1380  204.4430  151.3650 C   0  0  0  0  0  2  0  0  0  0  0  0
  159.7060  206.8630  145.6980 O   0  0  0  0  0  0  0  0  0  0  0  0
  160.1960  205.8260  144.8860 C   0  0  0  0  0  2  0  0  0  0  0  0
  160.2060  205.7290  146.3620 C   0  0  1  0  0  3  0  0  0  0  0  0
  160.4740  209.2580  152.3910 C   0  0  0  0  0  1  0  0  0  0  0  0
  160.4930  208.2170  151.4620 O   0  0  0  0  0  0  0  0  0  0  0  0
  2  5  1  6  0  0  0
  2 11  1  0  0  0  0
  3 21  1  0  0  0  0
  4 16  1  6  0  0  0
  4 12  1  0  0  0  0
  5  4  1  0  0  0  0
  7 22  1  1  0  0  0
  7  9  1  0  0  0  0
  8 10  1  0  0  0  0
  9 20  1  1  0  0  0
  9 18  1  0  0  0  0
 10 17  2  0  0  0  0
 10 19  1  0  0  0  0
 11  1  1  1  0  0  0
 11  7  1  0  0  0  0
 12 20  1  0  0  0  0
 12 27  1  1  0  0  0
 13  1  1  1  0  0  0
 14  3  1  1  0  0  0
 14  2  1  0  0  0  0
 15  8  1  0  0  0  0
 18  6  1  0  0  0  0
 19 13  1  0  0  0  0
 21 15  1  6  0  0  0
 21 13  1  0  0  0  0
 22  6  1  0  0  0  0
 23 25  1  0  0  0  0
 24 23  1  0  0  0  0
 25 24  1  6  0  0  0
 25 14  1  0  0  0  0
 27 26  1  0  0  0  0
M  END
>  <MODEL>
6

>  <REMARK>
 VINA RESULT:      -1.8      6.995      9.933
  Name = 
  2 active torsions:
  status: ('A' for Active; 'I' for Inactive)
    1  A    between atoms: C_14  and  C_19
    2  A    between atoms: O_16  and  C_17
                            x       y       z     vdW  Elec       q    Type
                         _______ _______ _______ _____ _____    ______ ____

>  <TORSDO>
F 2

$$$$
=
 OpenBabel11052423223D

 27 31  0  0  1  0  0  0  0  0999 V2000
  162.0630  211.4890  149.8470 C   0  0  0  0  0  2  0  0  0  0  0  0
  160.3780  211.8230  151.5160 C   0  0  1  0  0  3  0  0  0  0  0  0
  160.8540  214.0830  150.4200 C   0  0  0  0  0  2  0  0  0  0  0  0
  159.8660  211.0220  153.6340 C   0  0  1  0  0  3  0  0  0  0  0  0
  159.3980  211.1820  152.3070 O   0  0  0  0  0  0  0  0  0  0  0  0
  162.3290  207.6630  150.5850 C   0  0  0  0  0  2  0  0  0  0  0  0
  161.0960  209.6040  150.9800 C   0  0  1  0  0  3  0  0  0  0  0  0
  160.5060  213.9060  146.5500 C   0  0  0  0  0  2  0  0  0  0  0  0
  162.3360  209.5130  151.8730 C   0  0  2  0  0  3  0  0  0  0  0  0
  160.3340  212.4260  146.5940 C   0  0  0  0  0  0  0  0  0  0  0  0
  160.8320  210.9410  150.4270 N   0  0  2  0  0  0  0  0  0  0  0  0
  160.6750  209.7400  153.8910 C   0  0  2  0  0  3  0  0  0  0  0  0
  161.7610  212.3720  148.6410 C   0  0  1  0  0  3  0  0  0  0  0  0
  159.7850  213.1330  150.9760 C   0  0  1  0  0  3  0  0  0  0  0  0
  160.3290  214.4530  147.9630 C   0  0  0  0  0  2  0  0  0  0  0  0
  160.4380  212.2770  154.2960 C   0  0  0  0  0  1  0  0  0  0  0  0
  159.7050  211.8290  145.6830 O   0  0  0  0  0  0  0  0  0  0  0  0
  162.8430  208.1940  151.6310 N   0  0  0  0  0  2  0  0  0  0  0  0
  160.8860  211.6970  147.6870 N   0  0  0  0  0  2  0  0  0  0  0  0
  162.1200  209.7770  153.3690 C   0  0  0  0  0  2  0  0  0  0  0  0
  161.2990  213.8170  148.9750 C   0  0  1  0  0  3  0  0  0  0  0  0
  161.3280  208.5430  149.9160 C   0  0  0  0  0  2  0  0  0  0  0  0
  157.4080  212.9000  150.8090 O   0  0  0  0  0  0  0  0  0  0  0  0
  157.6810  214.0870  150.1070 C   0  0  0  0  0  2  0  0  0  0  0  0
  158.5910  212.9210  150.0470 C   0  0  1  0  0  3  0  0  0  0  0  0
  160.4620  207.5700  154.2750 C   0  0  0  0  0  1  0  0  0  0  0  0
  159.9880  208.6000  153.4620 O   0  0  0  0  0  0  0  0  0  0  0  0
  2  5  1  6  0  0  0
  4 12  1  0  0  0  0
  4 16  1  6  0  0  0
  5  4  1  0  0  0  0
  6 18  1  0  0  0  0
  7 22  1  6  0  0  0
  7  9  1  0  0  0  0
  8 10  1  0  0  0  0
  8 15  1  0  0  0  0
  9 20  1  1  0  0  0
 10 19  1  0  0  0  0
 11  1  1  1  0  0  0
 11  7  1  0  0  0  0
 11  2  1  0  0  0  0
 12 27  1  6  0  0  0
 13 21  1  0  0  0  0
 13  1  1  1  0  0  0
 14  3  1  6  0  0  0
 14  2  1  0  0  0  0
 17 10  2  0  0  0  0
 18  9  1  0  0  0  0
 19 13  1  0  0  0  0
 20 12  1  0  0  0  0
 21 15  1  6  0  0  0
 21  3  1  0  0  0  0
 22  6  1  0  0  0  0
 24 23  1  0  0  0  0
 25 24  1  6  0  0  0
 25 23  1  0  0  0  0
 25 14  1  0  0  0  0
 27 26  1  0  0  0  0
M  END
>  <MODEL>
7

>  <REMARK>
 VINA RESULT:      -0.9      4.042      7.726
  Name = 
  2 active torsions:
  status: ('A' for Active; 'I' for Inactive)
    1  A    between atoms: C_14  and  C_19
    2  A    between atoms: O_16  and  C_17
                            x       y       z     vdW  Elec       q    Type
                         _______ _______ _______ _____ _____    ______ ____

>  <TORSDO>
F 2

$$$$
=
 OpenBabel11052423223D

 27 31  0  0  1  0  0  0  0  0999 V2000
  162.0530  206.5700  153.6730 C   0  0  0  0  0  2  0  0  0  0  0  0
  161.4030  208.1670  152.0110 C   0  0  1  0  0  3  0  0  0  0  0  0
  162.9480  206.4620  150.8970 C   0  0  0  0  0  2  0  0  0  0  0  0
  160.9950  210.4490  151.8790 C   0  0  1  0  0  3  0  0  0  0  0  0
  160.4520  209.1570  151.6750 O   0  0  0  0  0  0  0  0  0  0  0  0
  159.9760  208.3290  156.4740 C   0  0  0  0  0  2  0  0  0  0  0  0
  160.3950  208.2330  154.1810 C   0  0  1  0  0  3  0  0  0  0  0  0
  161.7030  202.8180  151.4510 C   0  0  0  0  0  2  0  0  0  0  0  0
  161.4530  209.0480  154.9300 C   0  0  2  0  0  3  0  0  0  0  0  0
  160.6420  203.2820  152.3900 C   0  0  0  0  0  0  0  0  0  0  0  0
  160.9290  207.3440  153.1370 N   0  0  2  0  0  0  0  0  0  0  0  0
  160.8310  211.0090  153.3010 C   0  0  2  0  0  3  0  0  0  0  0  0
  162.1220  205.1840  153.0420 C   0  0  1  0  0  3  0  0  0  0  0  0
  161.6810  207.3160  150.7630 C   0  0  1  0  0  3  0  0  0  0  0  0
  162.2420  204.0300  150.6970 C   0  0  0  0  0  2  0  0  0  0  0  0
  162.3660  210.7030  151.2510 C   0  0  0  0  0  1  0  0  0  0  0  0
  159.5930  202.6080  152.5510 O   0  0  0  0  0  0  0  0  0  0  0  0
  160.9300  209.1560  156.2610 N   0  0  0  0  0  2  0  0  0  0  0  0
  160.8310  204.5040  153.0990 N   0  0  0  0  0  2  0  0  0  0  0  0
  161.8000  210.4210  154.3390 C   0  0  0  0  0  2  0  0  0  0  0  0
  162.7790  205.1260  151.6360 C   0  0  1  0  0  3  0  0  0  0  0  0
  159.6490  207.4950  155.2810 C   0  0  0  0  0  2  0  0  0  0  0  0
  160.0810  207.0380  149.0040 O   0  0  0  0  0  0  0  0  0  0  0  0
  160.7780  205.8180  149.0220 C   0  0  0  0  0  2  0  0  0  0  0  0
  160.4560  206.5480  150.2680 C   0  0  1  0  0  3  0  0  0  0  0  0
  158.8350  211.9060  152.9600 C   0  0  0  0  0  1  0  0  0  0  0  0
  159.5010  210.9520  153.7300 O   0  0  0  0  0  0  0  0  0  0  0  0
  2  5  1  6  0  0  0
  2 11  1  0  0  0  0
  3 21  1  0  0  0  0
  4 16  1  1  0  0  0
  4 12  1  0  0  0  0
  5  4  1  0  0  0  0
  7  9  1  0  0  0  0
  7 22  1  1  0  0  0
  8 10  1  0  0  0  0
  9 20  1  6  0  0  0
  9 18  1  0  0  0  0
 10 17  2  0  0  0  0
 10 19  1  0  0  0  0
 11  1  1  1  0  0  0
 11  7  1  0  0  0  0
 12 27  1  1  0  0  0
 12 20  1  0  0  0  0
 13 19  1  0  0  0  0
 13  1  1  6  0  0  0
 14  3  1  1  0  0  0
 14  2  1  0  0  0  0
 15  8  1  0  0  0  0
 18  6  1  0  0  0  0
 21 15  1  6  0  0  0
 21 13  1  0  0  0  0
 22  6  1  0  0  0  0
 23 24  1  0  0  0  0
 23 25  1  0  0  0  0
 25 24  1  6  0  0  0
 25 14  1  0  0  0  0
 26 27  1  0  0  0  0
M  END
>  <MODEL>
8

>  <REMARK>
 VINA RESULT:      -0.7      3.820      5.918
  Name = 
  2 active torsions:
  status: ('A' for Active; 'I' for Inactive)
    1  A    between atoms: C_14  and  C_19
    2  A    between atoms: O_16  and  C_17
                            x       y       z     vdW  Elec       q    Type
                         _______ _______ _______ _____ _____    ______ ____

>  <TORSDO>
F 2

$$$$
