=
 OpenBabel11062410563D

 32 36  0  0  0  0  0  0  0  0999 V2000
  160.9950  209.4210  155.3820 C   0  0  0  0  0  0  0  0  0  0  0  0
  161.1530  206.3900  151.3720 C   0  0  0  0  0  0  0  0  0  0  0  0
  160.9470  203.9420  150.9430 C   0  0  0  0  0  0  0  0  0  0  0  0
  160.9510  202.8890  150.0170 C   0  0  0  0  0  0  0  0  0  0  0  0
  160.9680  207.2640  153.5860 C   0  0  0  0  0  0  0  0  0  0  0  0
  161.3890  208.7760  151.7560 C   0  0  0  0  0  3  0  0  0  0  0  0
  160.9620  200.8180  148.1630 C   0  0  0  0  0  3  0  0  0  0  0  0
  161.2000  209.6440  154.0100 C   0  0  0  0  0  3  0  0  0  0  0  0
  161.3720  207.6930  150.8600 C   0  0  0  0  0  0  0  0  0  0  0  0
  161.5760  207.8950  149.4790 C   0  0  0  0  0  0  0  0  0  0  0  0
  161.3450  205.4960  149.1080 C   0  0  0  0  0  0  0  0  0  0  0  0
  160.7690  200.5620  149.4840 N   0  0  0  0  0  0  0  0  0  0  0  0
  160.7780  208.1160  155.8440 C   0  0  0  0  0  3  0  0  0  0  0  0
  161.1870  208.5710  153.1160 C   0  0  0  0  0  0  0  0  0  0  0  0
  160.7600  201.5580  150.4100 C   0  0  0  0  0  3  0  0  0  0  0  0
  160.7640  207.0410  154.9500 C   0  0  0  0  0  3  0  0  0  0  0  0
  161.5380  206.7900  148.5960 C   0  0  0  0  0  0  0  0  0  0  0  0
  161.3390  204.4460  148.2430 N   0  0  0  0  0  2  0  0  0  0  0  0
  160.9590  206.2250  152.7130 N   0  0  0  0  0  0  0  0  0  0  0  0
  160.7650  203.6850  152.1660 O   0  0  0  0  0  0  0  0  0  0  0  0
  161.1570  202.1290  147.7230 C   0  0  0  0  0  3  0  0  0  0  0  0
  161.1460  205.2770  150.4960 C   0  0  0  0  0  0  0  0  0  0  0  0
  161.1520  203.1680  148.6540 C   0  0  0  0  0  0  0  0  0  0  0  0
  162.1440  210.2870  148.6150 N   0  0  0  0  0  0  0  0  0  0  0  0
  161.8890  209.2250  148.9960 C   0  0  0  0  0  0  0  0  0  0  0  0
  160.7260  206.5470  146.2390 C   0  0  0  0  0  1  0  0  0  0  0  0
  161.7040  206.9100  147.2040 O   0  0  0  0  0  0  0  0  0  0  0  0
  161.0020  210.4710  156.3040 O   0  0  0  0  0  0  0  0  0  0  0  0
  160.3800  211.7230  156.0440 C   0  0  0  0  0  2  0  0  0  0  0  0
  158.9030  211.5730  156.1360 C   0  0  0  0  0  0  0  0  0  0  0  0
  158.3500  211.4720  157.2610 O   0  0  0  0  0  1  0  0  0  0  0  0
  158.1320  211.5890  154.9820 O   0  0  0  0  0  0  0  0  0  0  0  0
  1 13  1  0  0  0  0
  1 28  1  0  0  0  0
  2 19  1  0  0  0  0
  3 20  2  0  0  0  0
  4 15  1  0  0  0  0
  4  3  1  0  0  0  0
  5 16  1  0  0  0  0
  6 14  2  0  0  0  0
  7 12  1  0  0  0  0
  8  1  2  0  0  0  0
  9  2  1  0  0  0  0
  9  6  1  0  0  0  0
 10  9  2  0  0  0  0
 11 22  1  0  0  0  0
 12 15  2  0  0  0  0
 14  5  1  0  0  0  0
 14  8  1  0  0  0  0
 16 13  2  0  0  0  0
 17 11  2  0  0  0  0
 17 10  1  0  0  0  0
 18 23  1  0  0  0  0
 18 11  1  0  0  0  0
 19  5  2  0  0  0  0
 21  7  2  0  0  0  0
 21 23  1  0  0  0  0
 22  3  1  0  0  0  0
 22  2  2  0  0  0  0
 23  4  2  0  0  0  0
 24 25  3  0  0  0  0
 25 10  1  0  0  0  0
 26 27  1  0  0  0  0
 27 17  1  0  0  0  0
 29 30  1  0  0  0  0
 29 28  1  0  0  0  0
 30 31  1  0  0  0  0
 32 30  2  0  0  0  0
M  END
>  <MODEL>
1

>  <REMARK>
 VINA RESULT:      -9.9      0.000      0.000
  Name = 
  5 active torsions:
  status: ('A' for Active; 'I' for Inactive)
    1  A    between atoms: C_1  and  C_10
    2  A    between atoms: C_2  and  O_24
    3  A    between atoms: C_10  and  O_24
    4  A    between atoms: C_13  and  C_15
    5  A    between atoms: O_25  and  C_26
                            x       y       z     vdW  Elec       q    Type
                         _______ _______ _______ _____ _____    ______ ____

>  <TORSDO>
F 5

$$$$
=
 OpenBabel11062410563D

 32 36  0  0  0  0  0  0  0  0999 V2000
  161.5740  203.9230  147.2920 C   0  0  0  0  0  0  0  0  0  0  0  0
  161.2490  207.1240  151.1570 C   0  0  0  0  0  0  0  0  0  0  0  0
  160.7960  206.9680  153.6040 C   0  0  0  0  0  0  0  0  0  0  0  0
  160.6460  207.6260  154.8340 C   0  0  0  0  0  0  0  0  0  0  0  0
  161.2830  205.1650  149.7920 C   0  0  0  0  0  0  0  0  0  0  0  0
  161.6630  207.3160  148.7720 C   0  0  0  0  0  3  0  0  0  0  0  0
  160.3560  208.9510  157.2600 C   0  0  0  0  0  3  0  0  0  0  0  0
  161.6930  205.3180  147.4030 C   0  0  0  0  0  3  0  0  0  0  0  0
  161.5190  207.9340  150.0270 C   0  0  0  0  0  0  0  0  0  0  0  0
  161.6350  209.3340  150.1600 C   0  0  0  0  0  0  0  0  0  0  0  0
  161.2100  209.1270  152.5520 C   0  0  0  0  0  0  0  0  0  0  0  0
  160.2250  207.5990  157.1910 N   0  0  0  0  0  0  0  0  0  0  0  0
  161.3100  203.1600  148.4370 C   0  0  0  0  0  3  0  0  0  0  0  0
  161.5480  205.9370  148.6470 C   0  0  0  0  0  0  0  0  0  0  0  0
  160.3620  206.9280  156.0160 C   0  0  0  0  0  3  0  0  0  0  0  0
  161.1650  203.7770  149.6830 C   0  0  0  0  0  3  0  0  0  0  0  0
  161.5020  209.9290  151.4370 C   0  0  0  0  0  0  0  0  0  0  0  0
  161.0600  209.7250  153.7650 N   0  0  0  0  0  2  0  0  0  0  0  0
  161.1420  205.7720  150.9970 N   0  0  0  0  0  0  0  0  0  0  0  0
  160.6710  205.7120  153.5600 O   0  0  0  0  0  0  0  0  0  0  0  0
  160.6390  209.6890  156.1090 C   0  0  0  0  0  3  0  0  0  0  0  0
  161.0830  207.7190  152.4320 C   0  0  0  0  0  0  0  0  0  0  0  0
  160.7840  209.0230  154.8920 C   0  0  0  0  0  0  0  0  0  0  0  0
  161.9670  210.8000  148.0320 N   0  0  0  0  0  0  0  0  0  0  0  0
  161.8210  210.1450  148.9740 C   0  0  0  0  0  0  0  0  0  0  0  0
  160.5540  212.2390  151.6370 C   0  0  0  0  0  1  0  0  0  0  0  0
  161.6310  211.3120  151.6590 O   0  0  0  0  0  0  0  0  0  0  0  0
  161.7130  203.2710  146.0640 O   0  0  0  0  0  0  0  0  0  0  0  0
  160.5970  202.8430  145.2930 C   0  0  0  0  0  2  0  0  0  0  0  0
  160.4570  201.3670  145.3970 C   0  0  0  0  0  0  0  0  0  0  0  0
  159.7840  200.7370  144.5400 O   0  0  0  0  0  0  0  0  0  0  0  0
  161.1030  200.6790  146.4140 O   0  0  0  0  0  1  0  0  0  0  0  0
  1  8  2  0  0  0  0
  1 13  1  0  0  0  0
  2 22  1  0  0  0  0
  3  4  1  0  0  0  0
  4 23  2  0  0  0  0
  4 15  1  0  0  0  0
  5 19  1  0  0  0  0
  6  9  2  0  0  0  0
  8 14  1  0  0  0  0
  9 10  1  0  0  0  0
  9  2  1  0  0  0  0
 10 17  2  0  0  0  0
 11 18  1  0  0  0  0
 12  7  1  0  0  0  0
 13 16  2  0  0  0  0
 14  6  1  0  0  0  0
 14  5  2  0  0  0  0
 15 12  2  0  0  0  0
 16  5  1  0  0  0  0
 17 27  1  0  0  0  0
 17 11  1  0  0  0  0
 18 23  1  0  0  0  0
 19  2  2  0  0  0  0
 20  3  2  0  0  0  0
 21  7  2  0  0  0  0
 22 11  2  0  0  0  0
 22  3  1  0  0  0  0
 23 21  1  0  0  0  0
 24 25  3  0  0  0  0
 25 10  1  0  0  0  0
 26 27  1  0  0  0  0
 28  1  1  0  0  0  0
 29 30  1  0  0  0  0
 29 28  1  0  0  0  0
 30 32  1  0  0  0  0
 31 30  2  0  0  0  0
M  END
>  <MODEL>
2

>  <REMARK>
 VINA RESULT:      -8.4      2.608      8.285
  Name = 
  5 active torsions:
  status: ('A' for Active; 'I' for Inactive)
    1  A    between atoms: C_1  and  C_10
    2  A    between atoms: C_2  and  O_24
    3  A    between atoms: C_10  and  O_24
    4  A    between atoms: C_13  and  C_15
    5  A    between atoms: O_25  and  C_26
                            x       y       z     vdW  Elec       q    Type
                         _______ _______ _______ _____ _____    ______ ____

>  <TORSDO>
F 5

$$$$
=
 OpenBabel11062410563D

 32 36  0  0  0  0  0  0  0  0999 V2000
  160.8070  202.0850  148.6560 C   0  0  0  0  0  0  0  0  0  0  0  0
  161.1860  206.1770  151.5550 C   0  0  0  0  0  0  0  0  0  0  0  0
  160.8320  206.7310  153.9600 C   0  0  0  0  0  0  0  0  0  0  0  0
  160.8500  207.6980  154.9760 C   0  0  0  0  0  0  0  0  0  0  0  0
  160.8410  203.9570  150.7470 C   0  0  0  0  0  0  0  0  0  0  0  0
  161.5110  205.6810  149.2000 C   0  0  0  0  0  3  0  0  0  0  0  0
  160.8930  209.6300  156.9750 C   0  0  0  0  0  3  0  0  0  0  0  0
  161.1540  203.4220  148.3990 C   0  0  0  0  0  3  0  0  0  0  0  0
  161.5280  206.6140  150.2500 C   0  0  0  0  0  0  0  0  0  0  0  0
  161.8730  207.9610  150.0140 C   0  0  0  0  0  0  0  0  0  0  0  0
  161.5360  208.4480  152.3790 C   0  0  0  0  0  0  0  0  0  0  0  0
  160.5440  208.3470  157.2610 N   0  0  0  0  0  0  0  0  0  0  0  0
  160.4800  201.6960  149.9610 C   0  0  0  0  0  3  0  0  0  0  0  0
  161.1700  204.3540  149.4390 C   0  0  0  0  0  0  0  0  0  0  0  0
  160.5150  207.3850  156.3000 C   0  0  0  0  0  3  0  0  0  0  0  0
  160.4960  202.6280  151.0040 C   0  0  0  0  0  3  0  0  0  0  0  0
  161.9000  208.8780  151.0920 C   0  0  0  0  0  0  0  0  0  0  0  0
  161.5420  209.3530  153.3950 N   0  0  0  0  0  2  0  0  0  0  0  0
  160.8570  204.8680  151.7530 N   0  0  0  0  0  0  0  0  0  0  0  0
  160.5060  205.5460  154.2450 O   0  0  0  0  0  0  0  0  0  0  0  0
  161.2350  209.9900  155.6700 C   0  0  0  0  0  3  0  0  0  0  0  0
  161.1800  207.0980  152.6310 C   0  0  0  0  0  0  0  0  0  0  0  0
  161.2130  209.0200  154.6670 C   0  0  0  0  0  0  0  0  0  0  0  0
  162.3300  208.7550  147.5740 N   0  0  0  0  0  0  0  0  0  0  0  0
  162.1290  208.3990  148.6570 C   0  0  0  0  0  0  0  0  0  0  0  0
  161.4350  211.2260  150.3540 C   0  0  0  0  0  1  0  0  0  0  0  0
  162.2590  210.2300  150.9450 O   0  0  0  0  0  0  0  0  0  0  0  0
  160.7810  201.1270  147.6400 O   0  0  0  0  0  0  0  0  0  0  0  0
  161.4430  201.3100  146.3950 C   0  0  0  0  0  2  0  0  0  0  0  0
  160.4770  201.8190  145.3870 C   0  0  0  0  0  0  0  0  0  0  0  0
  159.6300  201.0400  144.8780 O   0  0  0  0  0  0  0  0  0  0  0  0
  160.4810  203.1620  145.0380 O   0  0  0  0  0  1  0  0  0  0  0  0
  1 13  1  0  0  0  0
  2 19  2  0  0  0  0
  2 22  1  0  0  0  0
  3 20  2  0  0  0  0
  3  4  1  0  0  0  0
  4 15  1  0  0  0  0
  5 16  1  0  0  0  0
  5 19  1  0  0  0  0
  6 14  1  0  0  0  0
  6  9  2  0  0  0  0
  7 12  1  0  0  0  0
  8  1  2  0  0  0  0
  8 14  1  0  0  0  0
  9  2  1  0  0  0  0
 10  9  1  0  0  0  0
 10 17  2  0  0  0  0
 11 22  2  0  0  0  0
 11 18  1  0  0  0  0
 13 16  2  0  0  0  0
 14  5  2  0  0  0  0
 15 12  2  0  0  0  0
 17 11  1  0  0  0  0
 18 23  1  0  0  0  0
 21  7  2  0  0  0  0
 22  3  1  0  0  0  0
 23  4  2  0  0  0  0
 23 21  1  0  0  0  0
 24 25  3  0  0  0  0
 25 10  1  0  0  0  0
 26 27  1  0  0  0  0
 27 17  1  0  0  0  0
 28  1  1  0  0  0  0
 29 28  1  0  0  0  0
 30 29  1  0  0  0  0
 31 30  2  0  0  0  0
 32 30  1  0  0  0  0
M  END
>  <MODEL>
3

>  <REMARK>
 VINA RESULT:      -8.1      2.624      8.177
  Name = 
  5 active torsions:
  status: ('A' for Active; 'I' for Inactive)
    1  A    between atoms: C_1  and  C_10
    2  A    between atoms: C_2  and  O_24
    3  A    between atoms: C_10  and  O_24
    4  A    between atoms: C_13  and  C_15
    5  A    between atoms: O_25  and  C_26
                            x       y       z     vdW  Elec       q    Type
                         _______ _______ _______ _____ _____    ______ ____

>  <TORSDO>
F 5

$$$$
=
 OpenBabel11062410563D

 32 36  0  0  0  0  0  0  0  0999 V2000
  161.0010  209.3410  154.0620 C   0  0  0  0  0  0  0  0  0  0  0  0
  161.0970  206.2660  150.0830 C   0  0  0  0  0  0  0  0  0  0  0  0
  161.1840  206.5160  147.6040 C   0  0  0  0  0  0  0  0  0  0  0  0
  161.2140  205.9010  146.3430 C   0  0  0  0  0  0  0  0  0  0  0  0
  161.0870  208.1840  151.5060 C   0  0  0  0  0  0  0  0  0  0  0  0
  160.9820  205.9860  152.4920 C   0  0  0  0  0  3  0  0  0  0  0  0
  161.2750  204.6610  143.8560 C   0  0  0  0  0  3  0  0  0  0  0  0
  160.9700  207.9440  153.9200 C   0  0  0  0  0  3  0  0  0  0  0  0
  161.0270  205.4110  151.2110 C   0  0  0  0  0  0  0  0  0  0  0  0
  160.9970  204.0110  151.0460 C   0  0  0  0  0  0  0  0  0  0  0  0
  161.1050  204.3060  148.6280 C   0  0  0  0  0  0  0  0  0  0  0  0
  161.2970  206.0170  143.9530 N   0  0  0  0  0  0  0  0  0  0  0  0
  161.0750  210.1490  152.9190 C   0  0  0  0  0  3  0  0  0  0  0  0
  161.0120  207.3680  152.6480 C   0  0  0  0  0  0  0  0  0  0  0  0
  161.2680  206.6470  145.1580 C   0  0  0  0  0  3  0  0  0  0  0  0
  161.1180  209.5740  151.6450 C   0  0  0  0  0  3  0  0  0  0  0  0
  161.0600  203.4560  149.7450 C   0  0  0  0  0  0  0  0  0  0  0  0
  161.1380  203.7510  147.3860 N   0  0  0  0  0  2  0  0  0  0  0  0
  161.1250  207.6180  150.2730 N   0  0  0  0  0  0  0  0  0  0  0  0
  161.2070  207.7760  147.6730 O   0  0  0  0  0  0  0  0  0  0  0  0
  161.2200  203.8750  145.0090 C   0  0  0  0  0  3  0  0  0  0  0  0
  161.1290  205.7160  148.7780 C   0  0  0  0  0  0  0  0  0  0  0  0
  161.1900  204.4990  146.2570 C   0  0  0  0  0  0  0  0  0  0  0  0
  160.7020  202.4820  153.1360 N   0  0  0  0  0  0  0  0  0  0  0  0
  160.8320  203.1640  152.2100 C   0  0  0  0  0  0  0  0  0  0  0  0
  159.8960  201.2790  149.3230 C   0  0  0  0  0  1  0  0  0  0  0  0
  161.0630  202.0710  149.4980 O   0  0  0  0  0  0  0  0  0  0  0  0
  160.9610  209.9510  155.3180 O   0  0  0  0  0  0  0  0  0  0  0  0
  161.8680  210.9770  155.7010 C   0  0  0  0  0  2  0  0  0  0  0  0
  162.8770  210.4230  156.6420 C   0  0  0  0  0  0  0  0  0  0  0  0
  163.9160  211.0790  156.9080 O   0  0  0  0  0  0  0  0  0  0  0  0
  162.6500  209.2020  157.2610 O   0  0  0  0  0  1  0  0  0  0  0  0
  1 28  1  0  0  0  0
  2 19  2  0  0  0  0
  2  9  1  0  0  0  0
  3 20  2  0  0  0  0
  3 22  1  0  0  0  0
  4  3  1  0  0  0  0
  5 16  2  0  0  0  0
  5 14  1  0  0  0  0
  6 14  1  0  0  0  0
  7 12  2  0  0  0  0
  7 21  1  0  0  0  0
  8  1  1  0  0  0  0
  9  6  2  0  0  0  0
 10  9  1  0  0  0  0
 10 25  1  0  0  0  0
 11 22  2  0  0  0  0
 11 17  1  0  0  0  0
 12 15  1  0  0  0  0
 13  1  2  0  0  0  0
 14  8  2  0  0  0  0
 15  4  2  0  0  0  0
 16 13  1  0  0  0  0
 17 10  2  0  0  0  0
 18 11  1  0  0  0  0
 19  5  1  0  0  0  0
 21 23  2  0  0  0  0
 22  2  1  0  0  0  0
 23  4  1  0  0  0  0
 23 18  1  0  0  0  0
 25 24  3  0  0  0  0
 26 27  1  0  0  0  0
 27 17  1  0  0  0  0
 28 29  1  0  0  0  0
 29 30  1  0  0  0  0
 30 31  2  0  0  0  0
 30 32  1  0  0  0  0
M  END
>  <MODEL>
4

>  <REMARK>
 VINA RESULT:      -6.9      1.935      4.430
  Name = 
  5 active torsions:
  status: ('A' for Active; 'I' for Inactive)
    1  A    between atoms: C_1  and  C_10
    2  A    between atoms: C_2  and  O_24
    3  A    between atoms: C_10  and  O_24
    4  A    between atoms: C_13  and  C_15
    5  A    between atoms: O_25  and  C_26
                            x       y       z     vdW  Elec       q    Type
                         _______ _______ _______ _____ _____    ______ ____

>  <TORSDO>
F 5

$$$$
