=
 OpenBabel11062408303D

 32 36  0  0  1  0  0  0  0  0999 V2000
  160.8050  208.0630  149.0990 C   0  0  0  0  0  2  0  0  0  0  0  0
  161.7790  207.6770  152.5260 C   0  0  1  0  0  3  0  0  0  0  0  0
  162.0300  208.9740  148.9780 C   0  0  0  0  0  2  0  0  0  0  0  0
  161.5890  208.7420  151.6550 O   0  0  0  0  0  0  0  0  0  0  0  0
  161.0110  207.9920  153.8270 C   0  0  2  0  0  0  0  0  0  0  0  0
  161.3950  206.4020  151.7650 C   0  0  1  0  0  3  0  0  0  0  0  0
  160.9300  209.4510  154.1790 C   0  0  1  0  0  0  0  0  0  0  0  0
  162.3700  209.7910  152.1220 C   0  0  2  0  0  3  0  0  0  0  0  0
  161.6110  210.4880  153.2540 C   0  0  0  0  0  2  0  0  0  0  0  0
  162.7440  210.7200  150.9610 C   0  0  0  0  0  2  0  0  0  0  0  0
  162.0920  206.3990  150.4730 N   0  0  0  0  0  2  0  0  0  0  0  0
  159.8890  209.9370  155.1720 C   0  0  0  0  0  1  0  0  0  0  0  0
  161.1290  206.5840  149.3850 C   0  0  2  0  0  3  0  0  0  0  0  0
  161.8550  208.5840  154.7960 O   0  0  0  0  0  0  0  0  0  0  0  0
  161.5800  210.6620  149.5350 S   0  0  0  0  0  0  0  0  0  0  0  0
  163.1880  203.6440  145.0490 F   0  0  0  0  0  0  0  0  0  0  0  0
  162.5260  205.7840  145.8730 C   0  0  0  0  0  2  0  0  0  0  0  0
  161.5720  205.8480  148.1550 C   0  0  0  0  0  0  0  0  0  0  0  0
  162.0980  203.6820  147.1460 C   0  0  0  0  0  3  0  0  0  0  0  0
  162.1280  206.5090  147.1280 C   0  0  0  0  0  3  0  0  0  0  0  0
  161.4440  204.3680  148.0910 C   0  0  0  0  0  0  0  0  0  0  0  0
  163.0400  204.3820  146.2060 C   0  0  1  0  0  3  0  0  0  0  0  0
  160.5590  203.6290  149.0420 C   0  0  0  0  0  2  0  0  0  0  0  0
  160.5040  202.1490  148.6960 C   0  0  0  0  0  2  0  0  0  0  0  0
  159.4870  201.5250  149.4190 O   0  0  0  0  0  1  0  0  0  0  0  0
  161.7230  202.8880  151.8270 C   0  0  0  0  0  2  0  0  0  0  0  0
  160.4810  204.3770  152.9310 C   0  0  0  0  0  2  0  0  0  0  0  0
  161.7370  205.1380  152.5630 C   0  0  1  0  0  3  0  0  0  0  0  0
  160.3950  203.2370  152.1160 O   0  0  0  0  0  0  0  0  0  0  0  0
  162.5450  204.1520  151.7640 C   0  0  0  0  0  2  0  0  0  0  0  0
  160.4130  206.6150  155.6980 O   0  0  0  0  0  1  0  0  0  0  0  0
  159.9870  207.0390  154.4390 C   0  0  0  0  0  2  0  0  0  0  0  0
  1 13  1  0  0  0  0
  2  4  1  6  0  0  0
  2  5  1  0  0  0  0
  3  1  1  0  0  0  0
  3 15  1  0  0  0  0
  4  8  1  0  0  0  0
  5  7  1  0  0  0  0
  5 32  1  1  0  0  0
  5 14  1  0  0  0  0
  6 11  1  6  0  0  0
  6  2  1  0  0  0  0
  6 28  1  0  0  0  0
  7 14  1  0  0  0  0
  7 12  1  1  0  0  0
  8 10  1  6  0  0  0
  8  9  1  0  0  0  0
  9  7  1  0  0  0  0
 13 18  1  6  0  0  0
 13 11  1  0  0  0  0
 15 10  1  0  0  0  0
 17 22  1  0  0  0  0
 17 20  1  0  0  0  0
 19 21  2  0  0  0  0
 20 18  2  0  0  0  0
 21 18  1  0  0  0  0
 21 23  1  0  0  0  0
 22 16  1  6  0  0  0
 22 19  1  0  0  0  0
 24 23  1  0  0  0  0
 24 25  1  0  0  0  0
 26 29  1  0  0  0  0
 28 30  1  6  0  0  0
 28 27  1  0  0  0  0
 29 27  1  0  0  0  0
 30 26  1  0  0  0  0
 32 31  1  0  0  0  0
M  END
>  <MODEL>
1

>  <REMARK>
 VINA RESULT:      -5.1      0.000      0.000
  Name = 
  5 active torsions:
  status: ('A' for Active; 'I' for Inactive)
    1  A    between atoms: C_3  and  C_23
    2  A    between atoms: C_6  and  C_17
    3  A    between atoms: C_10  and  C_28
    4  A    between atoms: C_16  and  C_27
    5  A    between atoms: C_22  and  C_23
                            x       y       z     vdW  Elec       q    Type
                         _______ _______ _______ _____ _____    ______ ____

>  <TORSDO>
F 5

$$$$
=
 OpenBabel11062408303D

 32 36  0  0  1  0  0  0  0  0999 V2000
  160.9950  209.8190  151.0940 C   0  0  0  0  0  2  0  0  0  0  0  0
  159.3730  212.9210  150.3210 C   0  0  1  0  0  3  0  0  0  0  0  0
  162.2850  210.5250  150.6710 C   0  0  0  0  0  2  0  0  0  0  0  0
  160.2770  212.0790  149.6850 O   0  0  0  0  0  0  0  0  0  0  0  0
  158.2420  213.2370  149.3200 C   0  0  2  0  0  0  0  0  0  0  0  0
  158.9850  212.2420  151.6420 C   0  0  1  0  0  3  0  0  0  0  0  0
  158.6640  213.2800  147.8790 C   0  0  1  0  0  0  0  0  0  0  0  0
  160.9920  212.8600  148.7870 C   0  0  2  0  0  3  0  0  0  0  0  0
  160.1490  213.0290  147.5210 C   0  0  0  0  0  2  0  0  0  0  0  0
  162.3700  212.2370  148.5360 C   0  0  0  0  0  2  0  0  0  0  0  0
  160.2120  211.8510  152.3470 N   0  0  0  0  0  2  0  0  0  0  0  0
  157.6230  213.1720  146.7780 C   0  0  0  0  0  1  0  0  0  0  0  0
  160.3340  210.3930  152.3640 C   0  0  2  0  0  3  0  0  0  0  0  0
  158.4800  214.4530  148.6390 O   0  0  0  0  0  0  0  0  0  0  0  0
  162.4530  210.4230  148.8470 S   0  0  0  0  0  0  0  0  0  0  0  0
  162.4170  208.5580  157.2600 F   0  0  0  0  0  0  0  0  0  0  0  0
  162.2720  210.3630  155.7060 C   0  0  0  0  0  2  0  0  0  0  0  0
  161.0150  209.9320  153.6190 C   0  0  0  0  0  0  0  0  0  0  0  0
  161.3890  208.0890  155.1840 C   0  0  0  0  0  3  0  0  0  0  0  0
  161.5430  210.8220  154.4730 C   0  0  0  0  0  3  0  0  0  0  0  0
  161.0600  208.4830  153.9480 C   0  0  0  0  0  0  0  0  0  0  0  0
  161.6190  209.1010  156.2730 C   0  0  1  0  0  3  0  0  0  0  0  0
  160.7850  207.4470  152.9070 C   0  0  0  0  0  2  0  0  0  0  0  0
  161.9730  206.5120  152.7420 C   0  0  0  0  0  2  0  0  0  0  0  0
  162.4240  206.5380  151.4220 O   0  0  0  0  0  1  0  0  0  0  0  0
  158.7520  214.2910  154.5080 C   0  0  0  0  0  2  0  0  0  0  0  0
  157.7090  212.4530  153.7930 C   0  0  0  0  0  2  0  0  0  0  0  0
  158.1290  213.1610  152.5220 C   0  0  1  0  0  3  0  0  0  0  0  0
  158.4660  212.9630  154.8590 O   0  0  0  0  0  0  0  0  0  0  0  0
  158.8870  214.3670  153.0060 C   0  0  0  0  0  2  0  0  0  0  0  0
  156.1510  214.2320  149.9470 O   0  0  0  0  0  1  0  0  0  0  0  0
  156.7650  213.0170  149.6390 C   0  0  0  0  0  2  0  0  0  0  0  0
  1 13  1  0  0  0  0
  2  4  1  6  0  0  0
  2  6  1  0  0  0  0
  3  1  1  0  0  0  0
  5 32  1  1  0  0  0
  5  2  1  0  0  0  0
  6 11  1  1  0  0  0
  6 28  1  0  0  0  0
  7 12  1  6  0  0  0
  7 14  1  0  0  0  0
  7  5  1  0  0  0  0
  8  9  1  6  0  0  0
  8  4  1  0  0  0  0
  9  7  1  0  0  0  0
 10  8  1  0  0  0  0
 10 15  1  0  0  0  0
 11 13  1  0  0  0  0
 13 18  1  1  0  0  0
 14  5  1  0  0  0  0
 15  3  1  0  0  0  0
 17 22  1  0  0  0  0
 18 21  1  0  0  0  0
 18 20  2  0  0  0  0
 19 22  1  0  0  0  0
 20 17  1  0  0  0  0
 21 19  2  0  0  0  0
 22 16  1  1  0  0  0
 23 21  1  0  0  0  0
 24 23  1  0  0  0  0
 25 24  1  0  0  0  0
 26 29  1  0  0  0  0
 27 29  1  0  0  0  0
 28 30  1  1  0  0  0
 28 27  1  0  0  0  0
 30 26  1  0  0  0  0
 32 31  1  0  0  0  0
M  END
>  <MODEL>
2

>  <REMARK>
 VINA RESULT:      -5.0      4.652      7.915
  Name = 
  5 active torsions:
  status: ('A' for Active; 'I' for Inactive)
    1  A    between atoms: C_3  and  C_23
    2  A    between atoms: C_6  and  C_17
    3  A    between atoms: C_10  and  C_28
    4  A    between atoms: C_16  and  C_27
    5  A    between atoms: C_22  and  C_23
                            x       y       z     vdW  Elec       q    Type
                         _______ _______ _______ _____ _____    ______ ____

>  <TORSDO>
F 5

$$$$
=
 OpenBabel11062408303D

 32 36  0  0  1  0  0  0  0  0999 V2000
  160.6530  207.4370  149.7100 C   0  0  0  0  0  2  0  0  0  0  0  0
  160.7740  209.8060  152.3970 C   0  0  1  0  0  3  0  0  0  0  0  0
  162.0670  207.9220  149.3780 C   0  0  0  0  0  2  0  0  0  0  0  0
  161.0430  209.8250  151.0350 O   0  0  0  0  0  0  0  0  0  0  0  0
  159.8620  211.0100  152.7130 C   0  0  2  0  0  0  0  0  0  0  0  0
  160.2420  208.4050  152.7280 C   0  0  1  0  0  3  0  0  0  0  0  0
  160.0840  212.2180  151.8470 C   0  0  1  0  0  0  0  0  0  0  0  0
  161.9520  210.8510  150.8170 C   0  0  2  0  0  3  0  0  0  0  0  0
  161.1800  212.1720  150.7560 C   0  0  0  0  0  2  0  0  0  0  0  0
  162.7790  210.5580  149.5600 C   0  0  0  0  0  2  0  0  0  0  0  0
  161.1660  207.4090  152.1690 N   0  0  0  0  0  2  0  0  0  0  0  0
  159.0200  213.2990  151.7630 C   0  0  0  0  0  1  0  0  0  0  0  0
  160.5250  206.7030  151.0590 C   0  0  2  0  0  3  0  0  0  0  0  0
  160.6120  212.1260  153.1510 O   0  0  0  0  0  0  0  0  0  0  0  0
  161.9560  209.4380  148.3520 S   0  0  0  0  0  0  0  0  0  0  0  0
  161.8420  201.2410  150.7180 F   0  0  0  0  0  0  0  0  0  0  0  0
  161.9590  203.2440  152.0110 C   0  0  0  0  0  2  0  0  0  0  0  0
  161.0080  205.2840  150.9840 C   0  0  0  0  0  0  0  0  0  0  0  0
  161.1140  203.2270  149.6640 C   0  0  0  0  0  3  0  0  0  0  0  0
  161.4260  204.6480  152.0890 C   0  0  0  0  0  3  0  0  0  0  0  0
  160.9750  204.5580  149.6870 C   0  0  0  0  0  0  0  0  0  0  0  0
  161.2060  202.4450  150.9450 C   0  0  1  0  0  3  0  0  0  0  0  0
  160.8310  205.2950  148.3950 C   0  0  0  0  0  2  0  0  0  0  0  0
  161.6080  204.6030  147.2850 C   0  0  0  0  0  2  0  0  0  0  0  0
  162.5690  205.4690  146.7610 O   0  0  0  0  0  1  0  0  0  0  0  0
  161.7710  208.0780  155.8930 C   0  0  0  0  0  2  0  0  0  0  0  0
  160.4560  206.7880  154.6350 C   0  0  0  0  0  2  0  0  0  0  0  0
  160.0810  208.2000  154.2390 C   0  0  1  0  0  3  0  0  0  0  0  0
  161.7040  206.8200  155.2760 O   0  0  0  0  0  0  0  0  0  0  0  0
  161.0130  209.0670  155.0410 C   0  0  0  0  0  2  0  0  0  0  0  0
  158.6190  211.4040  154.7270 O   0  0  0  0  0  1  0  0  0  0  0  0
  158.5270  210.8720  153.4400 C   0  0  0  0  0  2  0  0  0  0  0  0
  1 13  1  0  0  0  0
  2  4  1  6  0  0  0
  2  5  1  0  0  0  0
  2  6  1  0  0  0  0
  3  1  1  0  0  0  0
  5 14  1  0  0  0  0
  5 32  1  1  0  0  0
  6 11  1  1  0  0  0
  6 28  1  0  0  0  0
  7 12  1  6  0  0  0
  7  5  1  0  0  0  0
  7 14  1  0  0  0  0
  8 10  1  6  0  0  0
  8  4  1  0  0  0  0
  9  8  1  0  0  0  0
  9  7  1  0  0  0  0
 13 18  1  6  0  0  0
 13 11  1  0  0  0  0
 15  3  1  0  0  0  0
 15 10  1  0  0  0  0
 17 20  1  0  0  0  0
 18 20  2  0  0  0  0
 19 21  2  0  0  0  0
 19 22  1  0  0  0  0
 21 18  1  0  0  0  0
 22 16  1  6  0  0  0
 22 17  1  0  0  0  0
 23 21  1  0  0  0  0
 24 23  1  0  0  0  0
 25 24  1  0  0  0  0
 27 29  1  0  0  0  0
 28 27  1  6  0  0  0
 28 30  1  0  0  0  0
 29 26  1  0  0  0  0
 30 26  1  0  0  0  0
 32 31  1  0  0  0  0
M  END
>  <MODEL>
3

>  <REMARK>
 VINA RESULT:      -3.9      2.369      3.900
  Name = 
  5 active torsions:
  status: ('A' for Active; 'I' for Inactive)
    1  A    between atoms: C_3  and  C_23
    2  A    between atoms: C_6  and  C_17
    3  A    between atoms: C_10  and  C_28
    4  A    between atoms: C_16  and  C_27
    5  A    between atoms: C_22  and  C_23
                            x       y       z     vdW  Elec       q    Type
                         _______ _______ _______ _____ _____    ______ ____

>  <TORSDO>
F 5

$$$$
=
 OpenBabel11062408303D

 32 36  0  0  1  0  0  0  0  0999 V2000
  159.7190  204.0170  150.6550 C   0  0  0  0  0  2  0  0  0  0  0  0
  161.5800  204.2570  147.6010 C   0  0  1  0  0  3  0  0  0  0  0  0
  160.5820  202.7850  150.9440 C   0  0  0  0  0  2  0  0  0  0  0  0
  160.8980  203.2560  148.2800 O   0  0  0  0  0  0  0  0  0  0  0  0
  161.1030  204.2380  146.1340 C   0  0  2  0  0  0  0  0  0  0  0  0
  161.3790  205.5540  148.3970 C   0  0  1  0  0  3  0  0  0  0  0  0
  160.7200  202.8840  145.6080 C   0  0  1  0  0  0  0  0  0  0  0  0
  161.4570  202.0480  147.8850 C   0  0  2  0  0  3  0  0  0  0  0  0
  160.8430  201.6530  146.5380 C   0  0  0  0  0  2  0  0  0  0  0  0
  161.2650  200.9990  148.9850 C   0  0  0  0  0  2  0  0  0  0  0  0
  161.7080  205.2950  149.8050 N   0  0  0  0  0  2  0  0  0  0  0  0
  159.8670  202.7670  144.3580 C   0  0  0  0  0  1  0  0  0  0  0  0
  160.4930  205.3500  150.6190 C   0  0  2  0  0  3  0  0  0  0  0  0
  161.9690  203.4710  145.3190 O   0  0  0  0  0  0  0  0  0  0  0  0
  159.8440  201.3270  150.1100 S   0  0  0  0  0  0  0  0  0  0  0  0
  162.1190  207.3950  155.6040 F   0  0  0  0  0  0  0  0  0  0  0  0
  161.2060  205.5400  154.4120 C   0  0  0  0  0  2  0  0  0  0  0  0
  160.7980  205.8690  151.9940 C   0  0  0  0  0  0  0  0  0  0  0  0
  161.5460  207.7680  153.3420 C   0  0  0  0  0  3  0  0  0  0  0  0
  160.9510  205.0230  153.0230 C   0  0  0  0  0  3  0  0  0  0  0  0
  160.9870  207.3280  152.2090 C   0  0  0  0  0  0  0  0  0  0  0  0
  162.0760  206.7970  154.3610 C   0  0  1  0  0  3  0  0  0  0  0  0
  160.5210  208.3230  151.1960 C   0  0  0  0  0  2  0  0  0  0  0  0
  160.8310  209.7430  151.6450 C   0  0  0  0  0  2  0  0  0  0  0  0
  159.7660  210.2550  152.3860 O   0  0  0  0  0  1  0  0  0  0  0  0
  162.7060  208.7950  148.8430 C   0  0  0  0  0  2  0  0  0  0  0  0
  161.3680  207.8300  147.3410 C   0  0  0  0  0  2  0  0  0  0  0  0
  162.2380  206.6980  147.8460 C   0  0  1  0  0  3  0  0  0  0  0  0
  161.4330  208.8880  148.2600 O   0  0  0  0  0  0  0  0  0  0  0  0
  163.0950  207.3370  148.9040 C   0  0  0  0  0  2  0  0  0  0  0  0
  161.3980  205.8280  144.3610 O   0  0  0  0  0  1  0  0  0  0  0  0
  160.5610  205.4740  145.4200 C   0  0  0  0  0  2  0  0  0  0  0  0
  1  3  1  0  0  0  0
  2  4  1  1  0  0  0
  2  6  1  0  0  0  0
  5 32  1  6  0  0  0
  5  2  1  0  0  0  0
  6 11  1  1  0  0  0
  7 12  1  6  0  0  0
  7  5  1  0  0  0  0
  7  9  1  0  0  0  0
  8  9  1  6  0  0  0
  8  4  1  0  0  0  0
  8 10  1  0  0  0  0
 10 15  1  0  0  0  0
 11 13  1  0  0  0  0
 13  1  1  0  0  0  0
 13 18  1  1  0  0  0
 14  7  1  0  0  0  0
 14  5  1  0  0  0  0
 15  3  1  0  0  0  0
 18 21  1  0  0  0  0
 18 20  2  0  0  0  0
 19 22  1  0  0  0  0
 20 17  1  0  0  0  0
 21 19  2  0  0  0  0
 22 17  1  0  0  0  0
 22 16  1  1  0  0  0
 23 24  1  0  0  0  0
 23 21  1  0  0  0  0
 24 25  1  0  0  0  0
 26 30  1  0  0  0  0
 27 29  1  0  0  0  0
 28 27  1  1  0  0  0
 28  6  1  0  0  0  0
 28 30  1  0  0  0  0
 29 26  1  0  0  0  0
 31 32  1  0  0  0  0
M  END
>  <MODEL>
4

>  <REMARK>
 VINA RESULT:      -3.7      3.460      7.925
  Name = 
  5 active torsions:
  status: ('A' for Active; 'I' for Inactive)
    1  A    between atoms: C_3  and  C_23
    2  A    between atoms: C_6  and  C_17
    3  A    between atoms: C_10  and  C_28
    4  A    between atoms: C_16  and  C_27
    5  A    between atoms: C_22  and  C_23
                            x       y       z     vdW  Elec       q    Type
                         _______ _______ _______ _____ _____    ______ ____

>  <TORSDO>
F 5

$$$$
=
 OpenBabel11062408303D

 32 36  0  0  1  0  0  0  0  0999 V2000
  161.7810  210.7410  150.9760 C   0  0  0  0  0  2  0  0  0  0  0  0
  160.1330  210.3680  154.1380 C   0  0  1  0  0  3  0  0  0  0  0  0
  161.1320  209.4020  150.6160 C   0  0  0  0  0  2  0  0  0  0  0  0
  160.9310  209.5730  153.3260 O   0  0  0  0  0  0  0  0  0  0  0  0
  160.7110  210.3100  155.5670 C   0  0  2  0  0  0  0  0  0  0  0  0
  160.0420  211.7440  153.4630 C   0  0  1  0  0  3  0  0  0  0  0  0
  161.3660  209.0080  155.9340 C   0  0  1  0  0  0  0  0  0  0  0  0
  160.6270  208.2520  153.6310 C   0  0  2  0  0  3  0  0  0  0  0  0
  161.3970  207.8620  154.8950 C   0  0  0  0  0  2  0  0  0  0  0  0
  160.9220  207.3560  152.4230 C   0  0  0  0  0  2  0  0  0  0  0  0
  159.6630  211.5530  152.0580 N   0  0  0  0  0  2  0  0  0  0  0  0
  162.3150  208.9420  157.1180 C   0  0  0  0  0  1  0  0  0  0  0  0
  160.7870  211.9000  151.1860 C   0  0  2  0  0  3  0  0  0  0  0  0
  160.0570  209.3290  156.3490 O   0  0  0  0  0  0  0  0  0  0  0  0
  162.1760  208.0370  151.2590 S   0  0  0  0  0  0  0  0  0  0  0  0
  159.2550  214.4490  146.4070 F   0  0  0  0  0  0  0  0  0  0  0  0
  158.5460  213.5220  148.4890 C   0  0  0  0  0  2  0  0  0  0  0  0
  160.2950  212.4720  149.8890 C   0  0  0  0  0  0  0  0  0  0  0  0
  160.8830  213.2750  147.6540 C   0  0  0  0  0  3  0  0  0  0  0  0
  159.0620  212.9940  149.7990 C   0  0  0  0  0  3  0  0  0  0  0  0
  161.1960  212.5100  148.7070 C   0  0  0  0  0  0  0  0  0  0  0  0
  159.6780  214.1720  147.6920 C   0  0  1  0  0  3  0  0  0  0  0  0
  162.4330  211.6720  148.6540 C   0  0  0  0  0  2  0  0  0  0  0  0
  163.4190  212.2220  147.6350 C   0  0  0  0  0  2  0  0  0  0  0  0
  164.3010  213.1110  148.2530 O   0  0  0  0  0  1  0  0  0  0  0  0
  156.7760  213.0770  153.6020 C   0  0  0  0  0  2  0  0  0  0  0  0
  158.8230  213.9360  153.3870 C   0  0  0  0  0  2  0  0  0  0  0  0
  159.0360  212.6590  154.1720 C   0  0  1  0  0  3  0  0  0  0  0  0
  157.5690  213.8720  152.7610 O   0  0  0  0  0  0  0  0  0  0  0  0
  157.6640  212.0480  154.2600 C   0  0  0  0  0  2  0  0  0  0  0  0
  160.0500  211.8760  157.2600 O   0  0  0  0  0  1  0  0  0  0  0  0
  161.0750  211.5570  156.3680 C   0  0  0  0  0  2  0  0  0  0  0  0
  1 13  1  0  0  0  0
  2  4  1  6  0  0  0
  2  5  1  0  0  0  0
  3  1  1  0  0  0  0
  3 15  1  0  0  0  0
  4  8  1  0  0  0  0
  5  7  1  0  0  0  0
  5 14  1  0  0  0  0
  5 32  1  1  0  0  0
  6 11  1  6  0  0  0
  6  2  1  0  0  0  0
  6 28  1  0  0  0  0
  7 14  1  0  0  0  0
  7 12  1  1  0  0  0
  8 10  1  6  0  0  0
  8  9  1  0  0  0  0
  9  7  1  0  0  0  0
 13 18  1  6  0  0  0
 13 11  1  0  0  0  0
 15 10  1  0  0  0  0
 17 20  1  0  0  0  0
 19 22  1  0  0  0  0
 19 21  2  0  0  0  0
 20 18  2  0  0  0  0
 21 18  1  0  0  0  0
 22 16  1  6  0  0  0
 22 17  1  0  0  0  0
 23 21  1  0  0  0  0
 24 25  1  0  0  0  0
 24 23  1  0  0  0  0
 26 30  1  0  0  0  0
 28 27  1  6  0  0  0
 28 30  1  0  0  0  0
 29 27  1  0  0  0  0
 29 26  1  0  0  0  0
 32 31  1  0  0  0  0
M  END
>  <MODEL>
5

>  <REMARK>
 VINA RESULT:      -3.3      4.553      7.285
  Name = 
  5 active torsions:
  status: ('A' for Active; 'I' for Inactive)
    1  A    between atoms: C_3  and  C_23
    2  A    between atoms: C_6  and  C_17
    3  A    between atoms: C_10  and  C_28
    4  A    between atoms: C_16  and  C_27
    5  A    between atoms: C_22  and  C_23
                            x       y       z     vdW  Elec       q    Type
                         _______ _______ _______ _____ _____    ______ ____

>  <TORSDO>
F 5

$$$$
=
 OpenBabel11062408303D

 32 36  0  0  1  0  0  0  0  0999 V2000
  162.4430  211.0170  149.6220 C   0  0  0  0  0  2  0  0  0  0  0  0
  160.1940  210.7330  152.3990 C   0  0  1  0  0  3  0  0  0  0  0  0
  161.7030  209.8040  149.0530 C   0  0  0  0  0  2  0  0  0  0  0  0
  161.0190  209.8710  151.6880 O   0  0  0  0  0  0  0  0  0  0  0  0
  160.4790  210.5230  153.9010 C   0  0  2  0  0  0  0  0  0  0  0  0
  160.4150  212.1380  151.8230 C   0  0  1  0  0  3  0  0  0  0  0  0
  160.8760  209.1250  154.2820 C   0  0  1  0  0  0  0  0  0  0  0  0
  160.4910  208.5950  151.8340 C   0  0  2  0  0  3  0  0  0  0  0  0
  160.9500  208.0370  153.1840 C   0  0  0  0  0  2  0  0  0  0  0  0
  160.8870  207.7250  150.6360 C   0  0  0  0  0  2  0  0  0  0  0  0
  160.2860  212.0720  150.3620 N   0  0  0  0  0  2  0  0  0  0  0  0
  161.5670  208.8650  155.6090 C   0  0  0  0  0  1  0  0  0  0  0  0
  161.5900  212.2960  149.7350 C   0  0  2  0  0  3  0  0  0  0  0  0
  159.5660  209.6090  154.4770 O   0  0  0  0  0  0  0  0  0  0  0  0
  162.4180  208.2740  149.7710 S   0  0  0  0  0  0  0  0  0  0  0  0
  160.9750  214.4460  144.5700 F   0  0  0  0  0  0  0  0  0  0  0  0
  162.3100  214.3560  146.5470 C   0  0  0  0  0  2  0  0  0  0  0  0
  161.4310  212.9940  148.4160 C   0  0  0  0  0  0  0  0  0  0  0  0
  160.0480  213.3110  146.4240 C   0  0  0  0  0  3  0  0  0  0  0  0
  162.4750  213.6110  147.8420 C   0  0  0  0  0  3  0  0  0  0  0  0
  160.1220  212.9600  147.7130 C   0  0  0  0  0  0  0  0  0  0  0  0
  161.2930  213.6470  145.6500 C   0  0  1  0  0  3  0  0  0  0  0  0
  158.8690  212.5790  148.4340 C   0  0  0  0  0  2  0  0  0  0  0  0
  157.6620  212.6720  147.5140 C   0  0  0  0  0  2  0  0  0  0  0  0
  156.8800  213.7750  147.8580 O   0  0  0  0  0  1  0  0  0  0  0  0
  157.2810  213.7470  151.5880 C   0  0  0  0  0  2  0  0  0  0  0  0
  159.4070  214.4230  151.5810 C   0  0  0  0  0  2  0  0  0  0  0  0
  159.4230  213.1530  152.4040 C   0  0  1  0  0  3  0  0  0  0  0  0
  158.2250  214.4510  150.8250 O   0  0  0  0  0  0  0  0  0  0  0  0
  158.0010  212.6640  152.3540 C   0  0  0  0  0  2  0  0  0  0  0  0
  159.7540  212.0060  155.6410 O   0  0  0  0  0  1  0  0  0  0  0  0
  160.8470  211.6650  154.8440 C   0  0  0  0  0  2  0  0  0  0  0  0
  1 13  1  0  0  0  0
  2  4  1  6  0  0  0
  2  5  1  0  0  0  0
  3  1  1  0  0  0  0
  3 15  1  0  0  0  0
  4  8  1  0  0  0  0
  5  7  1  0  0  0  0
  5 14  1  0  0  0  0
  5 32  1  1  0  0  0
  6 11  1  6  0  0  0
  6  2  1  0  0  0  0
  6 28  1  0  0  0  0
  7 14  1  0  0  0  0
  7 12  1  1  0  0  0
  8 10  1  6  0  0  0
  8  9  1  0  0  0  0
  9  7  1  0  0  0  0
 13 18  1  6  0  0  0
 13 11  1  0  0  0  0
 15 10  1  0  0  0  0
 17 20  1  0  0  0  0
 19 21  2  0  0  0  0
 20 18  2  0  0  0  0
 21 18  1  0  0  0  0
 21 23  1  0  0  0  0
 22 16  1  6  0  0  0
 22 19  1  0  0  0  0
 22 17  1  0  0  0  0
 24 25  1  0  0  0  0
 24 23  1  0  0  0  0
 26 30  1  0  0  0  0
 28 27  1  6  0  0  0
 29 27  1  0  0  0  0
 29 26  1  0  0  0  0
 30 28  1  0  0  0  0
 32 31  1  0  0  0  0
M  END
>  <MODEL>
6

>  <REMARK>
 VINA RESULT:      -3.3      4.395      7.263
  Name = 
  5 active torsions:
  status: ('A' for Active; 'I' for Inactive)
    1  A    between atoms: C_3  and  C_23
    2  A    between atoms: C_6  and  C_17
    3  A    between atoms: C_10  and  C_28
    4  A    between atoms: C_16  and  C_27
    5  A    between atoms: C_22  and  C_23
                            x       y       z     vdW  Elec       q    Type
                         _______ _______ _______ _____ _____    ______ ____

>  <TORSDO>
F 5

$$$$
=
 OpenBabel11062408303D

 32 36  0  0  1  0  0  0  0  0999 V2000
  162.7570  205.8620  147.1860 C   0  0  0  0  0  2  0  0  0  0  0  0
  160.5730  203.1030  147.8710 C   0  0  1  0  0  3  0  0  0  0  0  0
  161.7310  206.2530  146.1180 C   0  0  0  0  0  2  0  0  0  0  0  0
  161.1470  203.6670  146.7390 O   0  0  0  0  0  0  0  0  0  0  0  0
  160.8340  201.5830  147.8230 C   0  0  2  0  0  0  0  0  0  0  0  0
  161.1130  203.8800  149.0790 C   0  0  1  0  0  3  0  0  0  0  0  0
  160.8900  200.9920  146.4420 C   0  0  1  0  0  0  0  0  0  0  0  0
  160.3290  203.3380  145.6650 C   0  0  2  0  0  3  0  0  0  0  0  0
  160.6720  201.9140  145.2190 C   0  0  0  0  0  2  0  0  0  0  0  0
  160.4740  204.3880  144.5580 C   0  0  0  0  0  2  0  0  0  0  0  0
  160.9370  205.3160  148.8310 N   0  0  0  0  0  2  0  0  0  0  0  0
  161.5290  199.6320  146.2230 C   0  0  0  0  0  1  0  0  0  0  0  0
  162.2410  205.9520  148.6360 C   0  0  2  0  0  3  0  0  0  0  0  0
  159.7410  200.8890  147.2540 O   0  0  0  0  0  0  0  0  0  0  0  0
  162.0710  205.3060  144.5850 S   0  0  0  0  0  0  0  0  0  0  0  0
  161.6990  211.1490  150.7290 F   0  0  0  0  0  0  0  0  0  0  0  0
  162.1450  209.8110  148.8040 C   0  0  0  0  0  2  0  0  0  0  0  0
  162.2250  207.3620  149.1490 C   0  0  0  0  0  0  0  0  0  0  0  0
  161.9710  208.8290  151.0900 C   0  0  0  0  0  3  0  0  0  0  0  0
  162.1100  208.3940  148.3000 C   0  0  0  0  0  3  0  0  0  0  0  0
  162.2830  207.6180  150.6120 C   0  0  0  0  0  0  0  0  0  0  0  0
  161.4670  209.9070  150.1720 C   0  0  1  0  0  3  0  0  0  0  0  0
  162.7280  206.5560  151.5640 C   0  0  0  0  0  2  0  0  0  0  0  0
  162.3780  206.9260  152.9970 C   0  0  0  0  0  2  0  0  0  0  0  0
  161.0550  207.3640  153.0690 O   0  0  0  0  0  1  0  0  0  0  0  0
  160.7130  204.3540  152.5550 C   0  0  0  0  0  2  0  0  0  0  0  0
  161.3340  202.6500  151.2560 C   0  0  0  0  0  2  0  0  0  0  0  0
  160.4110  203.4690  150.3790 C   0  0  1  0  0  3  0  0  0  0  0  0
  161.7620  203.4520  152.3250 O   0  0  0  0  0  0  0  0  0  0  0  0
  160.0430  204.6510  151.2350 C   0  0  0  0  0  2  0  0  0  0  0  0
  160.5170  200.2360  149.7820 O   0  0  0  0  0  1  0  0  0  0  0  0
  161.4900  200.8160  148.9680 C   0  0  0  0  0  2  0  0  0  0  0  0
  1 13  1  0  0  0  0
  2  4  1  6  0  0  0
  2  6  1  0  0  0  0
  3  1  1  0  0  0  0
  5  2  1  0  0  0  0
  5 32  1  1  0  0  0
  6 11  1  6  0  0  0
  6 28  1  0  0  0  0
  7 12  1  6  0  0  0
  7 14  1  0  0  0  0
  7  5  1  0  0  0  0
  8 10  1  6  0  0  0
  8  4  1  0  0  0  0
  9  8  1  0  0  0  0
  9  7  1  0  0  0  0
 10 15  1  0  0  0  0
 13 11  1  0  0  0  0
 13 18  1  6  0  0  0
 14  5  1  0  0  0  0
 15  3  1  0  0  0  0
 17 22  1  0  0  0  0
 18 21  1  0  0  0  0
 20 17  1  0  0  0  0
 20 18  2  0  0  0  0
 21 19  2  0  0  0  0
 21 23  1  0  0  0  0
 22 16  1  1  0  0  0
 22 19  1  0  0  0  0
 23 24  1  0  0  0  0
 24 25  1  0  0  0  0
 27 29  1  0  0  0  0
 28 30  1  1  0  0  0
 28 27  1  0  0  0  0
 29 26  1  0  0  0  0
 30 26  1  0  0  0  0
 32 31  1  0  0  0  0
M  END
>  <MODEL>
7

>  <REMARK>
 VINA RESULT:      -3.1      2.804      6.958
  Name = 
  5 active torsions:
  status: ('A' for Active; 'I' for Inactive)
    1  A    between atoms: C_3  and  C_23
    2  A    between atoms: C_6  and  C_17
    3  A    between atoms: C_10  and  C_28
    4  A    between atoms: C_16  and  C_27
    5  A    between atoms: C_22  and  C_23
                            x       y       z     vdW  Elec       q    Type
                         _______ _______ _______ _____ _____    ______ ____

>  <TORSDO>
F 5

$$$$
=
 OpenBabel11062408303D

 32 36  0  0  1  0  0  0  0  0999 V2000
  162.4030  210.0290  150.9620 C   0  0  0  0  0  2  0  0  0  0  0  0
  160.2690  209.8540  153.8380 C   0  0  1  0  0  3  0  0  0  0  0  0
  161.6170  208.8170  150.4540 C   0  0  0  0  0  2  0  0  0  0  0  0
  161.0470  208.9590  153.1140 O   0  0  0  0  0  0  0  0  0  0  0  0
  160.6150  209.6740  155.3310 C   0  0  2  0  0  0  0  0  0  0  0  0
  160.4910  211.2410  153.2190 C   0  0  1  0  0  3  0  0  0  0  0  0
  161.0020  208.2770  155.7290 C   0  0  1  0  0  0  0  0  0  0  0  0
  160.5020  207.6980  153.3130 C   0  0  2  0  0  3  0  0  0  0  0  0
  161.0090  207.1630  154.6550 C   0  0  0  0  0  2  0  0  0  0  0  0
  160.8310  206.7930  152.1210 C   0  0  0  0  0  2  0  0  0  0  0  0
  160.2980  211.1420  151.7660 N   0  0  0  0  0  2  0  0  0  0  0  0
  161.7440  208.0360  157.0310 C   0  0  0  0  0  1  0  0  0  0  0  0
  161.5780  211.3260  151.0800 C   0  0  2  0  0  3  0  0  0  0  0  0
  159.7100  208.7920  155.9670 O   0  0  0  0  0  0  0  0  0  0  0  0
  162.3330  207.2920  151.1780 S   0  0  0  0  0  0  0  0  0  0  0  0
  160.3400  213.6450  146.1030 F   0  0  0  0  0  0  0  0  0  0  0  0
  161.7990  212.2040  147.3240 C   0  0  0  0  0  2  0  0  0  0  0  0
  161.3760  211.9970  149.7530 C   0  0  0  0  0  0  0  0  0  0  0  0
  160.0640  213.5980  148.4500 C   0  0  0  0  0  3  0  0  0  0  0  0
  161.9560  211.5060  148.6470 C   0  0  0  0  0  3  0  0  0  0  0  0
  160.4850  213.1820  149.6500 C   0  0  0  0  0  0  0  0  0  0  0  0
  160.4040  212.8200  147.2080 C   0  0  1  0  0  3  0  0  0  0  0  0
  160.0810  213.9510  150.8670 C   0  0  0  0  0  2  0  0  0  0  0  0
  158.6420  214.4300  150.7550 C   0  0  0  0  0  2  0  0  0  0  0  0
  157.7780  213.3380  150.6700 O   0  0  0  0  0  1  0  0  0  0  0  0
  158.2840  212.1560  155.8180 C   0  0  0  0  0  2  0  0  0  0  0  0
  158.0980  211.8870  153.6110 C   0  0  0  0  0  2  0  0  0  0  0  0
  159.5440  212.2880  153.8170 C   0  0  1  0  0  3  0  0  0  0  0  0
  157.5790  211.4430  154.8360 O   0  0  0  0  0  0  0  0  0  0  0  0
  159.6830  212.4060  155.3100 C   0  0  0  0  0  2  0  0  0  0  0  0
  162.4090  211.0780  156.0820 O   0  0  0  0  0  1  0  0  0  0  0  0
  161.0440  210.8310  156.2300 C   0  0  0  0  0  2  0  0  0  0  0  0
  1 13  1  0  0  0  0
  2  4  1  6  0  0  0
  2  5  1  0  0  0  0
  3  1  1  0  0  0  0
  3 15  1  0  0  0  0
  4  8  1  0  0  0  0
  5  7  1  0  0  0  0
  5 14  1  0  0  0  0
  5 32  1  1  0  0  0
  6 11  1  6  0  0  0
  6 28  1  0  0  0  0
  6  2  1  0  0  0  0
  7 14  1  0  0  0  0
  7 12  1  1  0  0  0
  8 10  1  6  0  0  0
  8  9  1  0  0  0  0
  9  7  1  0  0  0  0
 13 18  1  6  0  0  0
 13 11  1  0  0  0  0
 15 10  1  0  0  0  0
 17 20  1  0  0  0  0
 19 21  2  0  0  0  0
 20 18  2  0  0  0  0
 21 18  1  0  0  0  0
 21 23  1  0  0  0  0
 22 16  1  6  0  0  0
 22 17  1  0  0  0  0
 22 19  1  0  0  0  0
 24 23  1  0  0  0  0
 25 24  1  0  0  0  0
 27 29  1  0  0  0  0
 28 27  1  1  0  0  0
 28 30  1  0  0  0  0
 29 26  1  0  0  0  0
 30 26  1  0  0  0  0
 31 32  1  0  0  0  0
M  END
>  <MODEL>
8

>  <REMARK>
 VINA RESULT:      -3.1      4.103      6.919
  Name = 
  5 active torsions:
  status: ('A' for Active; 'I' for Inactive)
    1  A    between atoms: C_3  and  C_23
    2  A    between atoms: C_6  and  C_17
    3  A    between atoms: C_10  and  C_28
    4  A    between atoms: C_16  and  C_27
    5  A    between atoms: C_22  and  C_23
                            x       y       z     vdW  Elec       q    Type
                         _______ _______ _______ _____ _____    ______ ____

>  <TORSDO>
F 5

$$$$
=
 OpenBabel11062408303D

 32 36  0  0  1  0  0  0  0  0999 V2000
  162.8030  207.2470  148.0530 C   0  0  0  0  0  2  0  0  0  0  0  0
  160.7520  204.7300  149.5720 C   0  0  1  0  0  3  0  0  0  0  0  0
  161.7970  207.2010  146.9000 C   0  0  0  0  0  2  0  0  0  0  0  0
  161.3340  204.9280  148.3270 O   0  0  0  0  0  0  0  0  0  0  0  0
  161.0990  203.2980  150.0300 C   0  0  2  0  0  0  0  0  0  0  0  0
  161.2040  205.8920  150.4660 C   0  0  1  0  0  3  0  0  0  0  0  0
  161.2370  202.2930  148.9220 C   0  0  1  0  0  0  0  0  0  0  0  0
  160.5760  204.2150  147.4080 C   0  0  2  0  0  3  0  0  0  0  0  0
  161.0130  202.7490  147.4600 C   0  0  0  0  0  2  0  0  0  0  0  0
  160.7020  204.8520  146.0200 C   0  0  0  0  0  2  0  0  0  0  0  0
  160.9580  207.1540  149.7570 N   0  0  0  0  0  2  0  0  0  0  0  0
  161.9580  200.9800  149.1710 C   0  0  0  0  0  1  0  0  0  0  0  0
  162.2310  207.7740  149.3840 C   0  0  2  0  0  3  0  0  0  0  0  0
  160.0670  202.3870  149.7040 O   0  0  0  0  0  0  0  0  0  0  0  0
  162.2440  205.8280  145.7690 S   0  0  0  0  0  0  0  0  0  0  0  0
  161.3110  213.3220  149.5980 F   0  0  0  0  0  0  0  0  0  0  0  0
  162.0260  211.4690  148.2750 C   0  0  0  0  0  2  0  0  0  0  0  0
  162.1180  209.2700  149.4050 C   0  0  0  0  0  0  0  0  0  0  0  0
  161.5880  211.2620  150.7220 C   0  0  0  0  0  3  0  0  0  0  0  0
  162.0870  209.9660  148.2590 C   0  0  0  0  0  3  0  0  0  0  0  0
  161.9850  209.9850  150.7020 C   0  0  0  0  0  0  0  0  0  0  0  0
  161.1790  211.9560  149.4520 C   0  0  1  0  0  3  0  0  0  0  0  0
  162.3310  209.3120  151.9910 C   0  0  0  0  0  2  0  0  0  0  0  0
  162.4690  210.3280  153.1150 C   0  0  0  0  0  2  0  0  0  0  0  0
  161.3090  210.3440  153.8920 O   0  0  0  0  0  1  0  0  0  0  0  0
  161.0870  206.9980  153.8170 C   0  0  0  0  0  2  0  0  0  0  0  0
  161.2060  205.0090  152.8150 C   0  0  0  0  0  2  0  0  0  0  0  0
  160.4790  205.8850  151.8170 C   0  0  1  0  0  3  0  0  0  0  0  0
  161.8670  205.8350  153.7370 O   0  0  0  0  0  0  0  0  0  0  0  0
  160.4560  207.2420  152.4670 C   0  0  0  0  0  2  0  0  0  0  0  0
  160.8800  202.2680  152.1860 O   0  0  0  0  0  1  0  0  0  0  0  0
  161.7540  202.9920  151.3740 C   0  0  0  0  0  2  0  0  0  0  0  0
  1 13  1  0  0  0  0
  2  4  1  6  0  0  0
  2  5  1  0  0  0  0
  2  6  1  0  0  0  0
  3  1  1  0  0  0  0
  5 32  1  1  0  0  0
  6 11  1  6  0  0  0
  6 28  1  0  0  0  0
  7 12  1  1  0  0  0
  7 14  1  0  0  0  0
  7  5  1  0  0  0  0
  8 10  1  6  0  0  0
  8  9  1  0  0  0  0
  8  4  1  0  0  0  0
  9  7  1  0  0  0  0
 13 18  1  6  0  0  0
 13 11  1  0  0  0  0
 14  5  1  0  0  0  0
 15 10  1  0  0  0  0
 15  3  1  0  0  0  0
 17 22  1  0  0  0  0
 18 21  1  0  0  0  0
 20 17  1  0  0  0  0
 20 18  2  0  0  0  0
 21 19  2  0  0  0  0
 21 23  1  0  0  0  0
 22 16  1  1  0  0  0
 22 19  1  0  0  0  0
 23 24  1  0  0  0  0
 24 25  1  0  0  0  0
 27 29  1  0  0  0  0
 28 30  1  1  0  0  0
 28 27  1  0  0  0  0
 29 26  1  0  0  0  0
 30 26  1  0  0  0  0
 32 31  1  0  0  0  0
M  END
>  <MODEL>
9

>  <REMARK>
 VINA RESULT:      -2.8      2.689      6.446
  Name = 
  5 active torsions:
  status: ('A' for Active; 'I' for Inactive)
    1  A    between atoms: C_3  and  C_23
    2  A    between atoms: C_6  and  C_17
    3  A    between atoms: C_10  and  C_28
    4  A    between atoms: C_16  and  C_27
    5  A    between atoms: C_22  and  C_23
                            x       y       z     vdW  Elec       q    Type
                         _______ _______ _______ _____ _____    ______ ____

>  <TORSDO>
F 5

$$$$
