=
 OpenBabel11062410253D

 43 48  0  0  1  0  0  0  0  0999 V2000
  161.5480  204.0770  146.1820 C   0  0  0  0  0  0  0  0  0  0  0  0
  161.5610  207.2130  150.1380 C   0  0  0  0  0  0  0  0  0  0  0  0
  162.0450  208.7040  148.2840 O   0  0  0  0  0  0  0  0  0  0  0  0
  161.4210  205.0520  148.4250 C   0  0  0  0  0  0  0  0  0  0  0  0
  161.8220  205.2520  145.6130 C   0  0  0  0  0  3  0  0  0  0  0  0
  161.4610  202.9640  145.4150 F   0  0  0  0  0  0  0  0  0  0  0  0
  161.7070  206.3230  147.8910 C   0  0  0  0  0  0  0  0  0  0  0  0
  161.3410  203.9780  147.6360 C   0  0  0  0  0  3  0  0  0  0  0  0
  161.9330  206.5240  146.4110 C   0  0  0  0  0  2  0  0  0  0  0  0
  162.1060  209.8020  149.1530 C   0  0  0  0  0  0  0  0  0  0  0  0
  161.7730  207.4140  148.7630 C   0  0  0  0  0  0  0  0  0  0  0  0
  161.2900  205.9590  150.5910 N   0  0  0  0  0  0  0  0  0  0  0  0
  161.6270  208.2590  150.9840 C   0  0  0  0  0  0  0  0  0  0  0  0
  161.9100  209.6150  150.4640 C   0  0  0  0  0  3  0  0  0  0  0  0
  161.2220  204.9150  149.7620 N   0  0  0  0  0  0  0  0  0  0  0  0
  162.3730  211.1420  148.6130 C   0  0  0  0  0  0  0  0  0  0  0  0
  161.2890  211.9200  148.1020 N   0  0  0  0  0  2  0  0  0  0  0  0
  163.5460  211.6080  148.6070 O   0  0  0  0  0  0  0  0  0  0  0  0
  162.6370  213.5480  146.5120 O   0  0  0  0  0  0  0  0  0  0  0  0
  161.5010  213.5270  147.4960 S   0  0  0  0  0  0  0  0  0  0  0  0
  161.8040  214.4530  148.6420 O   0  0  0  0  0  0  0  0  0  0  0  0
  159.9820  214.0550  146.6950 C   0  0  2  0  0  3  0  0  0  0  0  0
  158.5070  212.2640  146.1590 C   0  0  0  0  0  2  0  0  0  0  0  0
  158.8350  213.9060  147.6640 C   0  0  0  0  0  2  0  0  0  0  0  0
  159.5490  213.1870  145.5310 C   0  0  1  0  0  0  0  0  0  0  0  0
  158.8840  214.0950  144.4980 C   0  0  0  0  0  1  0  0  0  0  0  0
  158.2770  212.6300  147.4980 O   0  0  0  0  0  0  0  0  0  0  0  0
  160.6460  212.4810  144.9720 O   0  0  0  0  0  0  0  0  0  0  0  0
  160.7330  212.7320  143.5910 C   0  0  0  0  0  3  0  0  0  0  0  0
  162.5020  212.5930  141.7330 C   0  0  0  0  0  2  0  0  0  0  0  0
  160.1330  211.8360  141.3000 C   0  0  0  0  0  2  0  0  0  0  0  0
  161.2680  212.7680  140.8520 C   0  0  0  0  0  2  0  0  0  0  0  0
  160.1160  211.5720  142.8130 C   0  0  0  0  0  2  0  0  0  0  0  0
  162.2020  212.9490  143.1960 C   0  0  0  0  0  2  0  0  0  0  0  0
  161.3710  208.0930  152.4500 C   0  0  0  0  0  2  0  0  0  0  0  0
  161.0550  211.0860  154.7560 C   0  0  0  0  0  3  0  0  0  0  0  0
  159.9330  211.7270  154.2220 C   0  0  0  0  0  0  0  0  0  0  0  0
  159.7660  210.0130  152.5190 C   0  0  0  0  0  3  0  0  0  0  0  0
  161.5330  209.9090  154.1730 C   0  0  0  0  0  3  0  0  0  0  0  0
  160.8920  209.3730  153.0490 C   0  0  0  0  0  0  0  0  0  0  0  0
  159.2890  211.1900  153.1030 C   0  0  0  0  0  3  0  0  0  0  0  0
  159.0450  213.9080  155.3060 N   0  0  0  0  0  0  0  0  0  0  0  0
  159.4420  212.9350  154.8220 C   0  0  0  0  0  0  0  0  0  0  0  0
  1  8  1  0  0  0  0
  2 12  1  0  0  0  0
  2 13  2  0  0  0  0
  3 11  1  0  0  0  0
  3 10  1  0  0  0  0
  4 15  1  0  0  0  0
  5  1  2  0  0  0  0
  5  9  1  0  0  0  0
  6  1  1  0  0  0  0
  7  4  1  0  0  0  0
  7 11  2  0  0  0  0
  8  4  2  0  0  0  0
  9  7  1  0  0  0  0
 10 14  2  0  0  0  0
 11  2  1  0  0  0  0
 13 35  1  0  0  0  0
 14 13  1  0  0  0  0
 15 12  2  0  0  0  0
 16 10  1  0  0  0  0
 17 16  1  0  0  0  0
 18 16  2  0  0  0  0
 19 20  2  0  0  0  0
 20 17  1  0  0  0  0
 20 21  2  0  0  0  0
 22 20  1  1  0  0  0
 22 24  1  0  0  0  0
 23 27  1  0  0  0  0
 25 26  1  6  0  0  0
 25 23  1  0  0  0  0
 25 22  1  0  0  0  0
 27 24  1  0  0  0  0
 28 25  1  0  0  0  0
 29 28  1  0  0  0  0
 30 34  1  0  0  0  0
 31 33  1  0  0  0  0
 32 31  1  0  0  0  0
 32 30  1  0  0  0  0
 33 29  1  0  0  0  0
 34 29  1  0  0  0  0
 35 40  1  0  0  0  0
 37 36  1  0  0  0  0
 37 43  1  0  0  0  0
 38 40  2  0  0  0  0
 38 41  1  0  0  0  0
 39 36  2  0  0  0  0
 40 39  1  0  0  0  0
 41 37  2  0  0  0  0
 43 42  3  0  0  0  0
M  END
>  <MODEL>
1

>  <REMARK>
 VINA RESULT:      -8.7      0.000      0.000
  Name = 
  8 active torsions:
  status: ('A' for Active; 'I' for Inactive)
    1  A    between atoms: C_1  and  C_34
    2  A    between atoms: C_1  and  C_35
    3  A    between atoms: C_2  and  C_27
    4  A    between atoms: C_4  and  S_12
    5  A    between atoms: N_6  and  S_12
    6  A    between atoms: C_11  and  O_14
    7  A    between atoms: O_14  and  C_22
    8  A    between atoms: C_19  and  C_37
                            x       y       z     vdW  Elec       q    Type
                         _______ _______ _______ _____ _____    ______ ____

>  <TORSDO>
F 8

$$$$
=
 OpenBabel11062410253D

 43 48  0  0  1  0  0  0  0  0999 V2000
  160.8740  203.6930  150.6930 C   0  0  0  0  0  0  0  0  0  0  0  0
  161.4030  208.3870  152.4730 C   0  0  0  0  0  0  0  0  0  0  0  0
  161.7610  208.6850  150.0900 O   0  0  0  0  0  0  0  0  0  0  0  0
  161.0080  205.6760  152.1220 C   0  0  0  0  0  0  0  0  0  0  0  0
  161.1370  204.3890  149.5850 C   0  0  0  0  0  3  0  0  0  0  0  0
  160.6670  202.3570  150.6110 F   0  0  0  0  0  0  0  0  0  0  0  0
  161.2900  206.4730  150.9960 C   0  0  0  0  0  0  0  0  0  0  0  0
  160.8080  204.3620  152.0010 C   0  0  0  0  0  3  0  0  0  0  0  0
  161.3770  205.8750  149.6100 C   0  0  0  0  0  2  0  0  0  0  0  0
  161.9510  210.0630  150.2680 C   0  0  0  0  0  0  0  0  0  0  0  0
  161.4860  207.8440  151.1790 C   0  0  0  0  0  0  0  0  0  0  0  0
  161.1280  207.5630  153.5210 N   0  0  0  0  0  0  0  0  0  0  0  0
  161.5940  209.7080  152.6570 C   0  0  0  0  0  0  0  0  0  0  0  0
  161.8790  210.5830  151.4990 C   0  0  0  0  0  3  0  0  0  0  0  0
  160.9370  206.2530  153.3500 N   0  0  0  0  0  0  0  0  0  0  0  0
  162.2170  210.9160  149.1020 C   0  0  0  0  0  0  0  0  0  0  0  0
  161.8770  212.3020  149.1560 N   0  0  0  0  0  2  0  0  0  0  0  0
  162.7490  210.4330  148.0640 O   0  0  0  0  0  0  0  0  0  0  0  0
  162.8060  212.6340  146.7010 O   0  0  0  0  0  0  0  0  0  0  0  0
  162.2030  213.3920  147.8510 S   0  0  0  0  0  0  0  0  0  0  0  0
  163.1600  214.4530  148.3190 O   0  0  0  0  0  0  0  0  0  0  0  0
  160.6640  214.1670  147.3400 C   0  0  2  0  0  3  0  0  0  0  0  0
  158.8620  212.6340  147.0670 C   0  0  0  0  0  2  0  0  0  0  0  0
  159.6980  214.1580  148.4980 C   0  0  0  0  0  2  0  0  0  0  0  0
  159.9050  213.4120  146.2680 C   0  0  1  0  0  0  0  0  0  0  0  0
  159.2140  214.4430  145.3750 C   0  0  0  0  0  1  0  0  0  0  0  0
  158.9310  212.9860  148.4280 O   0  0  0  0  0  0  0  0  0  0  0  0
  160.7650  212.5690  145.5160 O   0  0  0  0  0  0  0  0  0  0  0  0
  160.7290  212.9250  144.1560 C   0  0  0  0  0  3  0  0  0  0  0  0
  162.2790  212.8120  142.1100 C   0  0  0  0  0  2  0  0  0  0  0  0
  159.8250  212.2630  141.8850 C   0  0  0  0  0  2  0  0  0  0  0  0
  160.9780  213.1450  141.3850 C   0  0  0  0  0  2  0  0  0  0  0  0
  159.9440  211.8790  143.3670 C   0  0  0  0  0  2  0  0  0  0  0  0
  162.1600  213.0680  143.6190 C   0  0  0  0  0  2  0  0  0  0  0  0
  161.4770  210.3300  154.0150 C   0  0  0  0  0  2  0  0  0  0  0  0
  158.6290  212.8030  153.6290 C   0  0  0  0  0  3  0  0  0  0  0  0
  157.7020  212.2980  154.5460 C   0  0  0  0  0  0  0  0  0  0  0  0
  159.2250  210.4970  155.0950 C   0  0  0  0  0  3  0  0  0  0  0  0
  159.8550  212.1560  153.4450 C   0  0  0  0  0  3  0  0  0  0  0  0
  160.1520  210.9980  154.1750 C   0  0  0  0  0  0  0  0  0  0  0  0
  158.0000  211.1450  155.2790 C   0  0  0  0  0  3  0  0  0  0  0  0
  155.4300  213.4990  154.8890 N   0  0  0  0  0  0  0  0  0  0  0  0
  156.4440  212.9630  154.7360 C   0  0  0  0  0  0  0  0  0  0  0  0
  1  8  1  0  0  0  0
  2 13  2  0  0  0  0
  2 12  1  0  0  0  0
  3 10  1  0  0  0  0
  3 11  1  0  0  0  0
  4 15  1  0  0  0  0
  5  9  1  0  0  0  0
  5  1  2  0  0  0  0
  6  1  1  0  0  0  0
  7 11  2  0  0  0  0
  7  4  1  0  0  0  0
  8  4  2  0  0  0  0
  9  7  1  0  0  0  0
 10 14  2  0  0  0  0
 11  2  1  0  0  0  0
 13 35  1  0  0  0  0
 14 13  1  0  0  0  0
 15 12  2  0  0  0  0
 16 17  1  0  0  0  0
 16 10  1  0  0  0  0
 18 16  2  0  0  0  0
 19 20  2  0  0  0  0
 20 21  2  0  0  0  0
 20 17  1  0  0  0  0
 22 20  1  1  0  0  0
 22 24  1  0  0  0  0
 23 27  1  0  0  0  0
 25 26  1  6  0  0  0
 25 23  1  0  0  0  0
 25 22  1  0  0  0  0
 27 24  1  0  0  0  0
 28 25  1  0  0  0  0
 29 28  1  0  0  0  0
 30 34  1  0  0  0  0
 31 33  1  0  0  0  0
 32 31  1  0  0  0  0
 32 30  1  0  0  0  0
 33 29  1  0  0  0  0
 34 29  1  0  0  0  0
 35 40  1  0  0  0  0
 36 37  1  0  0  0  0
 37 43  1  0  0  0  0
 37 41  2  0  0  0  0
 38 41  1  0  0  0  0
 39 36  2  0  0  0  0
 39 40  1  0  0  0  0
 40 38  2  0  0  0  0
 43 42  3  0  0  0  0
M  END
>  <MODEL>
2

>  <REMARK>
 VINA RESULT:      -7.6      1.859      2.458
  Name = 
  8 active torsions:
  status: ('A' for Active; 'I' for Inactive)
    1  A    between atoms: C_1  and  C_34
    2  A    between atoms: C_1  and  C_35
    3  A    between atoms: C_2  and  C_27
    4  A    between atoms: C_4  and  S_12
    5  A    between atoms: N_6  and  S_12
    6  A    between atoms: C_11  and  O_14
    7  A    between atoms: O_14  and  C_22
    8  A    between atoms: C_19  and  C_37
                            x       y       z     vdW  Elec       q    Type
                         _______ _______ _______ _____ _____    ______ ____

>  <TORSDO>
F 8

$$$$
=
 OpenBabel11062410253D

 43 48  0  0  1  0  0  0  0  0999 V2000
  161.2170  203.8510  148.0290 C   0  0  0  0  0  0  0  0  0  0  0  0
  162.1190  208.6050  149.4690 C   0  0  0  0  0  0  0  0  0  0  0  0
  160.9540  207.6850  151.3910 O   0  0  0  0  0  0  0  0  0  0  0  0
  161.9310  206.1910  148.1410 C   0  0  0  0  0  0  0  0  0  0  0  0
  160.6730  203.8870  149.2460 C   0  0  0  0  0  3  0  0  0  0  0  0
  161.1700  202.7060  147.3070 F   0  0  0  0  0  0  0  0  0  0  0  0
  161.3780  206.3000  149.4320 C   0  0  0  0  0  0  0  0  0  0  0  0
  161.8670  205.0440  147.4620 C   0  0  0  0  0  3  0  0  0  0  0  0
  160.6930  205.1290  150.0970 C   0  0  0  0  0  3  0  0  0  0  0  0
  161.0590  208.9080  152.0690 C   0  0  0  0  0  0  0  0  0  0  0  0
  161.4790  207.5240  150.1000 C   0  0  0  0  0  0  0  0  0  0  0  0
  162.6320  208.4350  148.2200 N   0  0  0  0  0  2  0  0  0  0  0  0
  162.2170  209.7870  150.1070 C   0  0  0  0  0  0  0  0  0  0  0  0
  161.6620  209.9420  151.4700 C   0  0  0  0  0  3  0  0  0  0  0  0
  162.5410  207.2670  147.5800 N   0  0  0  0  0  0  0  0  0  0  0  0
  160.5160  209.0340  153.4270 C   0  0  0  0  0  0  0  0  0  0  0  0
  160.2950  210.3350  153.9760 N   0  0  0  0  0  2  0  0  0  0  0  0
  160.2360  208.0050  154.1030 O   0  0  0  0  0  0  0  0  0  0  0  0
  160.4900  209.9440  156.5850 O   0  0  0  0  0  0  0  0  0  0  0  0
  159.6080  210.5790  155.5460 S   0  0  0  0  0  0  0  0  0  0  0  0
  158.2400  209.9570  155.5910 O   0  0  0  0  0  0  0  0  0  0  0  0
  159.4660  212.3440  155.8530 C   0  0  2  0  0  3  0  0  0  0  0  0
  157.2180  213.1210  155.9640 C   0  0  0  0  0  2  0  0  0  0  0  0
  158.9720  212.5620  157.2610 C   0  0  0  0  0  2  0  0  0  0  0  0
  158.4140  213.0460  155.0180 C   0  0  1  0  0  0  0  0  0  0  0  0
  158.9270  214.4530  154.7140 C   0  0  0  0  0  1  0  0  0  0  0  0
  157.5710  212.6280  157.2340 O   0  0  0  0  0  0  0  0  0  0  0  0
  158.1310  212.3280  153.8270 O   0  0  0  0  0  0  0  0  0  0  0  0
  158.1940  213.1880  152.7150 C   0  0  0  0  0  3  0  0  0  0  0  0
  158.7820  213.0400  150.2180 C   0  0  0  0  0  2  0  0  0  0  0  0
  156.8050  214.4110  150.9860 C   0  0  0  0  0  2  0  0  0  0  0  0
  158.1310  214.4210  150.2120 C   0  0  0  0  0  2  0  0  0  0  0  0
  156.7890  213.4250  152.1630 C   0  0  0  0  0  2  0  0  0  0  0  0
  159.1170  212.5850  151.6450 C   0  0  0  0  0  2  0  0  0  0  0  0
  162.9230  210.9520  149.4840 C   0  0  0  0  0  2  0  0  0  0  0  0
  160.0520  211.7700  147.1460 C   0  0  0  0  0  3  0  0  0  0  0  0
  160.3210  213.1070  146.8380 C   0  0  0  0  0  0  0  0  0  0  0  0
  162.2690  213.0450  148.2750 C   0  0  0  0  0  3  0  0  0  0  0  0
  160.8910  211.0690  148.0170 C   0  0  0  0  0  3  0  0  0  0  0  0
  161.9990  211.7090  148.5880 C   0  0  0  0  0  0  0  0  0  0  0  0
  161.4300  213.7440  147.4040 C   0  0  0  0  0  3  0  0  0  0  0  0
  158.7670  214.4040  145.2190 N   0  0  0  0  0  0  0  0  0  0  0  0
  159.4600  213.8250  145.9420 C   0  0  0  0  0  0  0  0  0  0  0  0
  1  5  1  0  0  0  0
  2 11  1  0  0  0  0
  2 13  2  0  0  0  0
  3 10  1  0  0  0  0
  4  7  1  0  0  0  0
  5  9  2  0  0  0  0
  6  1  1  0  0  0  0
  7  9  1  0  0  0  0
  7 11  2  0  0  0  0
  8  1  2  0  0  0  0
  8  4  1  0  0  0  0
 10 16  1  0  0  0  0
 11  3  1  0  0  0  0
 12  2  1  0  0  0  0
 13 14  1  0  0  0  0
 14 10  2  0  0  0  0
 15  4  2  0  0  0  0
 15 12  1  0  0  0  0
 16 17  1  0  0  0  0
 16 18  2  0  0  0  0
 17 20  1  0  0  0  0
 20 21  2  0  0  0  0
 20 19  2  0  0  0  0
 22 20  1  6  0  0  0
 22 24  1  0  0  0  0
 23 27  1  0  0  0  0
 25 26  1  6  0  0  0
 25 22  1  0  0  0  0
 25 23  1  0  0  0  0
 27 24  1  0  0  0  0
 28 25  1  0  0  0  0
 29 28  1  0  0  0  0
 30 34  1  0  0  0  0
 31 33  1  0  0  0  0
 32 30  1  0  0  0  0
 32 31  1  0  0  0  0
 33 29  1  0  0  0  0
 34 29  1  0  0  0  0
 35 13  1  0  0  0  0
 36 39  1  0  0  0  0
 37 36  2  0  0  0  0
 37 41  1  0  0  0  0
 38 40  1  0  0  0  0
 39 40  2  0  0  0  0
 40 35  1  0  0  0  0
 41 38  2  0  0  0  0
 42 43  3  0  0  0  0
 43 37  1  0  0  0  0
M  END
>  <MODEL>
3

>  <REMARK>
 VINA RESULT:      -6.4      3.636      7.137
  Name = 
  8 active torsions:
  status: ('A' for Active; 'I' for Inactive)
    1  A    between atoms: C_1  and  C_34
    2  A    between atoms: C_1  and  C_35
    3  A    between atoms: C_2  and  C_27
    4  A    between atoms: C_4  and  S_12
    5  A    between atoms: N_6  and  S_12
    6  A    between atoms: C_11  and  O_14
    7  A    between atoms: O_14  and  C_22
    8  A    between atoms: C_19  and  C_37
                            x       y       z     vdW  Elec       q    Type
                         _______ _______ _______ _____ _____    ______ ____

>  <TORSDO>
F 8

$$$$
=
 OpenBabel11062410253D

 43 48  0  0  1  0  0  0  0  0999 V2000
  161.2350  202.9840  146.4390 C   0  0  0  0  0  0  0  0  0  0  0  0
  161.4450  205.5230  150.7980 C   0  0  0  0  0  0  0  0  0  0  0  0
  161.5810  207.2990  149.1480 O   0  0  0  0  0  0  0  0  0  0  0  0
  161.2890  203.6190  148.8040 C   0  0  0  0  0  0  0  0  0  0  0  0
  161.3400  204.2490  146.0270 C   0  0  0  0  0  3  0  0  0  0  0  0
  161.1520  201.9860  145.5280 F   0  0  0  0  0  0  0  0  0  0  0  0
  161.4010  204.9750  148.4400 C   0  0  0  0  0  0  0  0  0  0  0  0
  161.2070  202.6630  147.8750 C   0  0  0  0  0  3  0  0  0  0  0  0
  161.4350  205.4020  146.9910 C   0  0  0  0  0  2  0  0  0  0  0  0
  161.6500  208.2660  150.1610 C   0  0  0  0  0  0  0  0  0  0  0  0
  161.4770  205.9340  149.4540 C   0  0  0  0  0  0  0  0  0  0  0  0
  161.3350  204.1970  151.0830 N   0  0  0  0  0  0  0  0  0  0  0  0
  161.5200  206.4420  151.7790 C   0  0  0  0  0  0  0  0  0  0  0  0
  161.6250  207.8790  151.4420 C   0  0  0  0  0  3  0  0  0  0  0  0
  161.2590  203.2770  150.1180 N   0  0  0  0  0  0  0  0  0  0  0  0
  161.7380  209.6880  149.8030 C   0  0  0  0  0  0  0  0  0  0  0  0
  161.1690  210.1360  148.5720 N   0  0  0  0  0  2  0  0  0  0  0  0
  162.3020  210.5090  150.5770 O   0  0  0  0  0  0  0  0  0  0  0  0
  161.1270  212.6750  149.3150 O   0  0  0  0  0  0  0  0  0  0  0  0
  161.1780  211.8000  148.0930 S   0  0  0  0  0  0  0  0  0  0  0  0
  159.9830  212.0730  147.2230 O   0  0  0  0  0  0  0  0  0  0  0  0
  162.6770  212.1310  147.1600 C   0  0  2  0  0  3  0  0  0  0  0  0
  163.1530  214.4500  146.8980 C   0  0  0  0  0  2  0  0  0  0  0  0
  163.7420  212.6390  148.1000 C   0  0  0  0  0  2  0  0  0  0  0  0
  162.5570  213.2570  146.1540 C   0  0  1  0  0  0  0  0  0  0  0  0
  163.4350  212.9010  144.9540 C   0  0  0  0  0  1  0  0  0  0  0  0
  163.6650  214.0380  148.1430 O   0  0  0  0  0  0  0  0  0  0  0  0
  161.2080  213.4670  145.7660 O   0  0  0  0  0  0  0  0  0  0  0  0
  161.0550  213.2280  144.3880 C   0  0  0  0  0  3  0  0  0  0  0  0
  159.4340  211.9780  142.8360 C   0  0  0  0  0  2  0  0  0  0  0  0
  160.3130  214.2570  142.1960 C   0  0  0  0  0  2  0  0  0  0  0  0
  160.1780  212.7870  141.7760 C   0  0  0  0  0  2  0  0  0  0  0  0
  160.4380  214.4520  143.7150 C   0  0  0  0  0  2  0  0  0  0  0  0
  160.1880  211.9790  144.1720 C   0  0  0  0  0  2  0  0  0  0  0  0
  161.4520  206.0480  153.2230 C   0  0  0  0  0  2  0  0  0  0  0  0
  159.9000  207.9950  156.0820 C   0  0  0  0  0  3  0  0  0  0  0  0
  159.9190  209.2960  155.5710 C   0  0  0  0  0  0  0  0  0  0  0  0
  160.9620  208.4820  153.5420 C   0  0  0  0  0  3  0  0  0  0  0  0
  160.4100  206.9370  155.3240 C   0  0  0  0  0  3  0  0  0  0  0  0
  160.9470  207.1810  154.0540 C   0  0  0  0  0  0  0  0  0  0  0  0
  160.4510  209.5390  154.3010 C   0  0  0  0  0  3  0  0  0  0  0  0
  158.9720  211.2570  156.9780 N   0  0  0  0  0  0  0  0  0  0  0  0
  159.3940  210.3820  156.3500 C   0  0  0  0  0  0  0  0  0  0  0  0
  1  8  1  0  0  0  0
  2 12  1  0  0  0  0
  2 13  2  0  0  0  0
  3 11  1  0  0  0  0
  3 10  1  0  0  0  0
  4 15  1  0  0  0  0
  5  1  2  0  0  0  0
  5  9  1  0  0  0  0
  6  1  1  0  0  0  0
  7  4  1  0  0  0  0
  7 11  2  0  0  0  0
  8  4  2  0  0  0  0
  9  7  1  0  0  0  0
 10 14  2  0  0  0  0
 11  2  1  0  0  0  0
 13 35  1  0  0  0  0
 14 13  1  0  0  0  0
 15 12  2  0  0  0  0
 16 10  1  0  0  0  0
 16 18  2  0  0  0  0
 17 16  1  0  0  0  0
 20 17  1  0  0  0  0
 20 19  2  0  0  0  0
 21 20  2  0  0  0  0
 22 20  1  1  0  0  0
 22 24  1  0  0  0  0
 23 27  1  0  0  0  0
 24 27  1  0  0  0  0
 25 26  1  6  0  0  0
 25 23  1  0  0  0  0
 25 22  1  0  0  0  0
 28 25  1  0  0  0  0
 29 28  1  0  0  0  0
 30 34  1  0  0  0  0
 31 33  1  0  0  0  0
 32 31  1  0  0  0  0
 32 30  1  0  0  0  0
 33 29  1  0  0  0  0
 34 29  1  0  0  0  0
 35 40  1  0  0  0  0
 37 36  1  0  0  0  0
 37 43  1  0  0  0  0
 38 40  2  0  0  0  0
 38 41  1  0  0  0  0
 39 36  2  0  0  0  0
 40 39  1  0  0  0  0
 41 37  2  0  0  0  0
 43 42  3  0  0  0  0
M  END
>  <MODEL>
4

>  <REMARK>
 VINA RESULT:      -6.2      1.838      2.704
  Name = 
  8 active torsions:
  status: ('A' for Active; 'I' for Inactive)
    1  A    between atoms: C_1  and  C_34
    2  A    between atoms: C_1  and  C_35
    3  A    between atoms: C_2  and  C_27
    4  A    between atoms: C_4  and  S_12
    5  A    between atoms: N_6  and  S_12
    6  A    between atoms: C_11  and  O_14
    7  A    between atoms: O_14  and  C_22
    8  A    between atoms: C_19  and  C_37
                            x       y       z     vdW  Elec       q    Type
                         _______ _______ _______ _____ _____    ______ ____

>  <TORSDO>
F 8

$$$$
=
 OpenBabel11062410253D

 43 49  0  0  1  0  0  0  0  0999 V2000
  160.9380  201.9800  149.0890 C   0  0  0  0  0  0  0  0  0  0  0  0
  161.3550  206.2100  151.8110 C   0  0  0  0  0  0  0  0  0  0  0  0
  161.5440  207.0300  149.5340 O   0  0  0  0  0  0  0  0  0  0  0  0
  161.0690  203.6180  150.9040 C   0  0  0  0  0  0  0  0  0  0  0  0
  161.0960  202.9100  148.1460 C   0  0  0  0  0  3  0  0  0  0  0  0
  160.7900  200.6820  148.7320 F   0  0  0  0  0  0  0  0  0  0  0  0
  161.2390  204.6510  149.9630 C   0  0  0  0  0  0  0  0  0  0  0  0
  160.9240  202.3500  150.5130 C   0  0  0  0  0  3  0  0  0  0  0  0
  161.2650  204.3690  148.4790 C   0  0  0  0  0  2  0  0  0  0  0  0
  161.6790  208.3480  149.9950 C   0  0  0  0  0  0  0  0  0  0  0  0
  161.3800  205.9620  150.4280 C   0  0  0  0  0  0  0  0  0  0  0  0
  161.1870  205.1680  152.6700 N   0  0  0  0  0  0  0  0  0  0  0  0
  161.4930  207.4710  152.2660 C   0  0  0  0  0  0  0  0  0  0  0  0
  161.6610  208.5890  151.3110 C   0  0  0  0  0  3  0  0  0  0  0  0
  161.0490  203.9150  152.2300 N   0  0  0  0  0  0  0  0  0  0  0  0
  161.8280  209.4430  149.0280 C   0  0  0  0  0  0  0  0  0  0  0  0
  161.8100  210.7940  149.4920 N   0  0  0  0  0  2  0  0  0  0  0  0
  161.9800  209.1970  147.7990 O   0  0  0  0  0  0  0  0  0  0  0  0
  163.3180  211.9820  147.6710 O   0  0  0  0  0  0  0  0  0  0  0  0
  162.0320  212.1450  148.4330 S   0  0  0  0  0  0  0  0  0  0  0  0
  162.0800  213.4100  149.2450 O   0  0  0  0  0  0  0  0  0  0  0  0
  160.6460  212.2270  147.2920 C   0  0  2  0  0  3  0  0  0  0  0  0
  160.1280  214.4350  146.5660 C   0  0  0  0  0  2  0  0  0  0  0  0
  161.1620  212.5450  145.9110 C   0  0  0  0  0  2  0  0  0  0  0  0
  159.6790  213.3630  147.5560 C   0  0  1  0  0  0  0  0  0  0  0  0
  158.2780  212.8730  147.1910 C   0  0  0  0  0  2  0  0  0  0  0  0
  161.1580  213.9380  145.7450 O   0  0  0  0  0  0  0  0  0  0  0  0
  159.7420  213.7970  148.9060 O   0  0  0  0  0  0  0  0  0  0  0  0
  158.4700  214.2090  149.3430 C   0  0  2  0  0  3  0  0  0  0  0  0
  156.0560  213.3310  149.2920 C   0  0  0  0  0  2  0  0  0  0  0  0
  156.9710  214.4320  151.3730 C   0  0  0  0  0  2  0  0  0  0  0  0
  155.8630  214.4530  150.3090 C   0  0  0  0  0  2  0  0  0  0  0  0
  158.3230  213.9370  150.8400 C   0  0  0  0  0  2  0  0  0  0  0  0
  157.3840  213.4820  148.5370 C   0  0  2  0  0  3  0  0  0  0  0  0
  161.4350  207.7820  153.7300 C   0  0  0  0  0  2  0  0  0  0  0  0
  159.4090  210.9480  153.2360 C   0  0  0  0  0  3  0  0  0  0  0  0
  159.8100  211.7060  154.3400 C   0  0  0  0  0  0  0  0  0  0  0  0
  161.2490  209.8950  155.0590 C   0  0  0  0  0  3  0  0  0  0  0  0
  159.9270  209.6640  153.0420 C   0  0  0  0  0  3  0  0  0  0  0  0
  160.8450  209.1340  153.9570 C   0  0  0  0  0  0  0  0  0  0  0  0
  160.7310  211.1790  155.2520 C   0  0  0  0  0  3  0  0  0  0  0  0
  158.8510  214.0880  154.6980 N   0  0  0  0  0  0  0  0  0  0  0  0
  159.2790  213.0250  154.5380 C   0  0  0  0  0  0  0  0  0  0  0  0
  1  8  1  0  0  0  0
  2 13  2  0  0  0  0
  2 12  1  0  0  0  0
  3 10  1  0  0  0  0
  3 11  1  0  0  0  0
  4 15  1  0  0  0  0
  5  9  1  0  0  0  0
  5  1  2  0  0  0  0
  6  1  1  0  0  0  0
  7 11  2  0  0  0  0
  7  4  1  0  0  0  0
  8  4  2  0  0  0  0
  9  7  1  0  0  0  0
 10 14  2  0  0  0  0
 11  2  1  0  0  0  0
 13 35  1  0  0  0  0
 14 13  1  0  0  0  0
 15 12  2  0  0  0  0
 16 17  1  0  0  0  0
 16 10  1  0  0  0  0
 18 16  2  0  0  0  0
 19 20  2  0  0  0  0
 20 21  2  0  0  0  0
 20 17  1  0  0  0  0
 22 25  1  0  0  0  0
 22 20  1  1  0  0  0
 24 22  1  0  0  0  0
 25 23  1  6  0  0  0
 25 28  1  0  0  0  0
 26 25  1  0  0  0  0
 27 24  1  0  0  0  0
 27 23  1  0  0  0  0
 28 29  1  0  0  0  0
 29 33  1  1  0  0  0
 30 32  1  0  0  0  0
 32 31  1  0  0  0  0
 33 31  1  0  0  0  0
 34 26  1  1  0  0  0
 34 30  1  0  0  0  0
 34 29  1  0  0  0  0
 35 40  1  0  0  0  0
 36 37  1  0  0  0  0
 37 43  1  0  0  0  0
 37 41  2  0  0  0  0
 38 41  1  0  0  0  0
 39 36  2  0  0  0  0
 39 40  1  0  0  0  0
 40 38  2  0  0  0  0
 43 42  3  0  0  0  0
M  END
>  <MODEL>
5

>  <REMARK>
 VINA RESULT:      -6.1      2.144      4.132
  Name = 
  8 active torsions:
  status: ('A' for Active; 'I' for Inactive)
    1  A    between atoms: C_1  and  C_34
    2  A    between atoms: C_1  and  C_35
    3  A    between atoms: C_2  and  C_27
    4  A    between atoms: C_4  and  S_12
    5  A    between atoms: N_6  and  S_12
    6  A    between atoms: C_11  and  O_14
    7  A    between atoms: O_14  and  C_22
    8  A    between atoms: C_19  and  C_37
                            x       y       z     vdW  Elec       q    Type
                         _______ _______ _______ _____ _____    ______ ____

>  <TORSDO>
F 8

$$$$
