=
 OpenBabel11052422283D

 31 34  0  0  1  0  0  0  0  0999 V2000
  159.8890  209.4340  154.5900 C   0  0  2  0  0  3  0  0  0  0  0  0
  161.1700  208.2970  151.6590 C   0  0  2  0  0  3  0  0  0  0  0  0
  161.9560  209.9250  150.1390 C   0  0  0  0  0  1  0  0  0  0  0  0
  162.3520  209.0820  151.2570 N   0  0  0  0  0  0  0  0  0  0  0  0
  161.1730  207.9450  153.1650 C   0  0  1  0  0  3  0  0  0  0  0  0
  162.2990  206.9920  153.5360 C   0  0  0  0  0  1  0  0  0  0  0  0
  161.2300  209.1380  154.0400 N   0  0  0  0  0  0  0  0  0  0  0  0
  162.8180  209.9860  152.3200 C   0  0  0  0  0  2  0  0  0  0  0  0
  161.7090  210.3330  153.3190 C   0  0  0  0  0  2  0  0  0  0  0  0
  160.7610  206.0600  148.6000 C   0  0  0  0  0  0  0  0  0  0  0  0
  160.6710  204.6900  150.5950 C   0  0  0  0  0  3  0  0  0  0  0  0
  160.7140  206.2030  146.8560 Cl  0  0  0  0  0  0  0  0  0  0  0  0
  160.9300  207.2000  149.3890 C   0  0  0  0  0  3  0  0  0  0  0  0
  160.8400  205.8300  151.3850 C   0  0  0  0  0  3  0  0  0  0  0  0
  160.9650  207.0900  150.7870 C   0  0  0  0  0  0  0  0  0  0  0  0
  160.6300  204.8050  149.2020 C   0  0  0  0  0  3  0  0  0  0  0  0
  159.5090  210.9360  154.5300 C   0  0  2  0  0  3  0  0  0  0  0  0
  157.8080  211.9780  156.0240 C   0  0  0  0  0  3  0  0  0  0  0  0
  158.9970  211.3920  155.8710 C   0  0  0  0  0  3  0  0  0  0  0  0
  158.9300  211.1140  152.2020 O   0  0  0  0  0  0  0  0  0  0  0  0
  156.9310  212.2210  154.8680 C   0  0  0  0  0  0  0  0  0  0  0  0
  155.5980  212.8440  155.0820 C   0  0  0  0  0  1  0  0  0  0  0  0
  158.5820  211.3140  153.3940 C   0  0  0  0  0  0  0  0  0  0  0  0
  157.3100  211.9150  153.6640 N   0  0  0  0  0  0  0  0  0  0  0  0
  160.3700  206.7610  156.7520 O   0  0  0  0  0  0  0  0  0  0  0  0
  159.6530  208.8280  155.9950 C   0  0  1  0  0  3  0  0  0  0  0  0
  161.2370  207.6980  157.2500 N   0  0  0  0  0  0  0  0  0  0  0  0
  159.3390  207.3290  155.9600 C   0  0  0  0  0  2  0  0  0  0  0  0
  160.8810  208.8650  156.8430 C   0  0  0  0  0  0  0  0  0  0  0  0
  163.0810  209.9530  157.1070 C   0  0  0  0  0  1  0  0  0  0  0  0
  161.5810  210.1140  157.2610 C   0  0  0  0  0  2  0  0  0  0  0  0
  1  7  1  1  0  0  0
  2 15  1  6  0  0  0
  2  5  1  0  0  0  0
  3  4  1  0  0  0  0
  4  2  1  0  0  0  0
  4  8  1  0  0  0  0
  5  6  1  6  0  0  0
  5  7  1  0  0  0  0
  8  9  1  0  0  0  0
  9  7  1  0  0  0  0
 10 16  2  0  0  0  0
 10 13  1  0  0  0  0
 11 14  2  0  0  0  0
 12 10  1  0  0  0  0
 13 15  2  0  0  0  0
 15 14  1  0  0  0  0
 16 11  1  0  0  0  0
 17  1  1  1  0  0  0
 17 19  1  0  0  0  0
 19 18  2  0  0  0  0
 20 23  2  0  0  0  0
 21 22  1  0  0  0  0
 21 18  1  0  0  0  0
 23 24  1  0  0  0  0
 23 17  1  0  0  0  0
 24 21  2  0  0  0  0
 25 27  1  0  0  0  0
 26  1  1  6  0  0  0
 26 29  1  0  0  0  0
 28 26  1  0  0  0  0
 28 25  1  0  0  0  0
 29 27  2  0  0  0  0
 29 31  1  0  0  0  0
 30 31  1  0  0  0  0
M  END
>  <MODEL>
1

>  <REMARK>
 VINA RESULT:      -6.4      0.000      0.000
  Name = 
  5 active torsions:
  status: ('A' for Active; 'I' for Inactive)
    1  A    between atoms: C_3  and  C_22
    2  A    between atoms: C_4  and  C_5
    3  A    between atoms: C_4  and  C_12
    4  A    between atoms: C_4  and  N_21
    5  A    between atoms: C_27  and  C_28
                            x       y       z     vdW  Elec       q    Type
                         _______ _______ _______ _____ _____    ______ ____

>  <TORSDO>
F 5

$$$$
=
 OpenBabel11052422283D

 31 34  0  0  1  0  0  0  0  0999 V2000
  159.8920  209.4670  154.5630 C   0  0  2  0  0  3  0  0  0  0  0  0
  161.1870  208.2310  151.6790 C   0  0  2  0  0  3  0  0  0  0  0  0
  161.9360  209.8070  150.0880 C   0  0  0  0  0  1  0  0  0  0  0  0
  162.3520  209.0210  151.2390 N   0  0  0  0  0  0  0  0  0  0  0  0
  161.2010  207.9440  153.1990 C   0  0  1  0  0  3  0  0  0  0  0  0
  162.3480  207.0300  153.6070 C   0  0  0  0  0  1  0  0  0  0  0  0
  161.2370  209.1740  154.0220 N   0  0  0  0  0  0  0  0  0  0  0  0
  162.8030  209.9790  152.2610 C   0  0  0  0  0  2  0  0  0  0  0  0
  161.6900  210.3460  153.2480 C   0  0  0  0  0  2  0  0  0  0  0  0
  160.8050  204.5720  150.6790 C   0  0  0  0  0  0  0  0  0  0  0  0
  160.6040  205.9540  148.7010 C   0  0  0  0  0  3  0  0  0  0  0  0
  160.8050  202.9910  151.4300 Cl  0  0  0  0  0  0  0  0  0  0  0  0
  161.0000  205.7150  151.4590 C   0  0  0  0  0  3  0  0  0  0  0  0
  160.7990  207.0980  149.4810 C   0  0  0  0  0  3  0  0  0  0  0  0
  161.0030  206.9830  150.8610 C   0  0  0  0  0  0  0  0  0  0  0  0
  160.6080  204.6910  149.3000 C   0  0  0  0  0  3  0  0  0  0  0  0
  159.5160  210.9700  154.5200 C   0  0  2  0  0  3  0  0  0  0  0  0
  157.8230  212.0030  156.0270 C   0  0  0  0  0  3  0  0  0  0  0  0
  159.0090  211.4150  155.8660 C   0  0  0  0  0  3  0  0  0  0  0  0
  158.9320  211.1730  152.1940 O   0  0  0  0  0  0  0  0  0  0  0  0
  156.9430  212.2600  154.8750 C   0  0  0  0  0  0  0  0  0  0  0  0
  155.6130  212.8850  155.0990 C   0  0  0  0  0  1  0  0  0  0  0  0
  158.5880  211.3620  153.3900 C   0  0  0  0  0  0  0  0  0  0  0  0
  157.3180  211.9640  153.6680 N   0  0  0  0  0  0  0  0  0  0  0  0
  160.3550  206.7690  156.6990 O   0  0  0  0  0  0  0  0  0  0  0  0
  159.6420  208.8430  155.9580 C   0  0  1  0  0  3  0  0  0  0  0  0
  161.2150  207.7030  157.2180 N   0  0  0  0  0  0  0  0  0  0  0  0
  159.3320  207.3450  155.9030 C   0  0  0  0  0  2  0  0  0  0  0  0
  160.8600  208.8740  156.8210 C   0  0  0  0  0  0  0  0  0  0  0  0
  163.0390  210.0240  156.9740 C   0  0  0  0  0  1  0  0  0  0  0  0
  161.5530  210.1190  157.2610 C   0  0  0  0  0  2  0  0  0  0  0  0
  1  7  1  1  0  0  0
  2 15  1  6  0  0  0
  2  5  1  0  0  0  0
  3  4  1  0  0  0  0
  4  2  1  0  0  0  0
  4  8  1  0  0  0  0
  5  6  1  6  0  0  0
  5  7  1  0  0  0  0
  8  9  1  0  0  0  0
  9  7  1  0  0  0  0
 10 12  1  0  0  0  0
 10 13  1  0  0  0  0
 11 16  1  0  0  0  0
 11 14  2  0  0  0  0
 14 15  1  0  0  0  0
 15 13  2  0  0  0  0
 16 10  2  0  0  0  0
 17  1  1  1  0  0  0
 17 19  1  0  0  0  0
 19 18  2  0  0  0  0
 20 23  2  0  0  0  0
 21 22  1  0  0  0  0
 21 18  1  0  0  0  0
 23 24  1  0  0  0  0
 23 17  1  0  0  0  0
 24 21  2  0  0  0  0
 25 27  1  0  0  0  0
 26  1  1  6  0  0  0
 26 29  1  0  0  0  0
 28 26  1  0  0  0  0
 28 25  1  0  0  0  0
 29 27  2  0  0  0  0
 29 31  1  0  0  0  0
 30 31  1  0  0  0  0
M  END
>  <MODEL>
2

>  <REMARK>
 VINA RESULT:      -6.3      1.009      1.330
  Name = 
  5 active torsions:
  status: ('A' for Active; 'I' for Inactive)
    1  A    between atoms: C_3  and  C_22
    2  A    between atoms: C_4  and  C_5
    3  A    between atoms: C_4  and  C_12
    4  A    between atoms: C_4  and  N_21
    5  A    between atoms: C_27  and  C_28
                            x       y       z     vdW  Elec       q    Type
                         _______ _______ _______ _____ _____    ______ ____

>  <TORSDO>
F 5

$$$$
=
 OpenBabel11052422283D

 31 34  0  0  1  0  0  0  0  0999 V2000
  158.2280  211.6950  153.7570 C   0  0  2  0  0  3  0  0  0  0  0  0
  160.7790  209.4630  153.5780 C   0  0  2  0  0  3  0  0  0  0  0  0
  162.9610  210.3520  153.4210 C   0  0  0  0  0  1  0  0  0  0  0  0
  161.9400  209.9210  154.3630 N   0  0  0  0  0  0  0  0  0  0  0  0
  159.4390  209.6680  154.3220 C   0  0  1  0  0  3  0  0  0  0  0  0
  159.3210  208.7910  155.5600 C   0  0  0  0  0  1  0  0  0  0  0  0
  159.1910  211.0790  154.6950 N   0  0  0  0  0  0  0  0  0  0  0  0
  161.6280  211.0860  155.2060 C   0  0  0  0  0  2  0  0  0  0  0  0
  160.4290  211.8820  154.6800 C   0  0  0  0  0  2  0  0  0  0  0  0
  161.1160  206.4510  151.2660 C   0  0  0  0  0  0  0  0  0  0  0  0
  161.3450  205.7120  153.5600 C   0  0  0  0  0  3  0  0  0  0  0  0
  161.0910  206.0920  149.5530 Cl  0  0  0  0  0  0  0  0  0  0  0  0
  160.9330  207.7640  151.7060 C   0  0  0  0  0  3  0  0  0  0  0  0
  161.1610  207.0250  154.0020 C   0  0  0  0  0  3  0  0  0  0  0  0
  160.9490  208.0550  153.0780 C   0  0  0  0  0  0  0  0  0  0  0  0
  161.3210  205.4240  152.1920 C   0  0  0  0  0  3  0  0  0  0  0  0
  158.8280  212.8500  152.9150 C   0  0  2  0  0  3  0  0  0  0  0  0
  157.4430  214.4500  151.6000 C   0  0  0  0  0  3  0  0  0  0  0  0
  157.8270  213.9670  152.7830 C   0  0  0  0  0  3  0  0  0  0  0  0
  160.3530  211.5970  151.5380 O   0  0  0  0  0  0  0  0  0  0  0  0
  157.9980  213.9130  150.3480 C   0  0  0  0  0  0  0  0  0  0  0  0
  157.5190  214.4530  149.0480 C   0  0  0  0  0  1  0  0  0  0  0  0
  159.4120  212.4310  151.5830 C   0  0  0  0  0  0  0  0  0  0  0  0
  158.9090  212.9890  150.3620 N   0  0  0  0  0  0  0  0  0  0  0  0
  155.7430  210.9110  156.0510 O   0  0  0  0  0  0  0  0  0  0  0  0
  156.8890  212.0940  154.4250 C   0  0  1  0  0  3  0  0  0  0  0  0
  156.4150  211.9230  156.6840 N   0  0  0  0  0  0  0  0  0  0  0  0
  155.9480  210.9070  154.6470 C   0  0  0  0  0  2  0  0  0  0  0  0
  157.0770  212.6020  155.8160 C   0  0  0  0  0  0  0  0  0  0  0  0
  158.8720  213.4880  157.2610 C   0  0  0  0  0  1  0  0  0  0  0  0
  157.8690  213.8150  156.1720 C   0  0  0  0  0  2  0  0  0  0  0  0
  1  7  1  1  0  0  0
  2 15  1  1  0  0  0
  2  5  1  0  0  0  0
  2  4  1  0  0  0  0
  3  4  1  0  0  0  0
  4  8  1  0  0  0  0
  5  7  1  0  0  0  0
  5  6  1  1  0  0  0
  9  7  1  0  0  0  0
  9  8  1  0  0  0  0
 10 13  2  0  0  0  0
 10 16  1  0  0  0  0
 11 14  1  0  0  0  0
 12 10  1  0  0  0  0
 13 15  1  0  0  0  0
 15 14  2  0  0  0  0
 16 11  2  0  0  0  0
 17  1  1  6  0  0  0
 18 19  2  0  0  0  0
 19 17  1  0  0  0  0
 20 23  2  0  0  0  0
 21 24  2  0  0  0  0
 21 18  1  0  0  0  0
 22 21  1  0  0  0  0
 23 17  1  0  0  0  0
 24 23  1  0  0  0  0
 25 27  1  0  0  0  0
 26  1  1  1  0  0  0
 26 28  1  0  0  0  0
 26 29  1  0  0  0  0
 28 25  1  0  0  0  0
 29 31  1  0  0  0  0
 29 27  2  0  0  0  0
 31 30  1  0  0  0  0
M  END
>  <MODEL>
3

>  <REMARK>
 VINA RESULT:      -5.3      2.348      3.998
  Name = 
  5 active torsions:
  status: ('A' for Active; 'I' for Inactive)
    1  A    between atoms: C_3  and  C_22
    2  A    between atoms: C_4  and  C_5
    3  A    between atoms: C_4  and  C_12
    4  A    between atoms: C_4  and  N_21
    5  A    between atoms: C_27  and  C_28
                            x       y       z     vdW  Elec       q    Type
                         _______ _______ _______ _____ _____    ______ ____

>  <TORSDO>
F 5

$$$$
=
 OpenBabel11052422283D

 31 34  0  0  1  0  0  0  0  0999 V2000
  160.4340  208.3850  152.9780 C   0  0  2  0  0  3  0  0  0  0  0  0
  160.9080  206.0210  150.5890 C   0  0  2  0  0  3  0  0  0  0  0  0
  160.4220  206.6450  148.3630 C   0  0  0  0  0  1  0  0  0  0  0  0
  161.4780  206.6120  149.3640 N   0  0  0  0  0  0  0  0  0  0  0  0
  161.5820  206.5510  151.8750 C   0  0  1  0  0  3  0  0  0  0  0  0
  163.0370  206.1190  151.9900 C   0  0  0  0  0  1  0  0  0  0  0  0
  161.4940  208.0230  152.0130 N   0  0  0  0  0  0  0  0  0  0  0  0
  161.9160  208.0030  149.5590 C   0  0  0  0  0  2  0  0  0  0  0  0
  161.1950  208.6830  150.7270 C   0  0  0  0  0  2  0  0  0  0  0  0
  160.8630  202.4380  149.2860 C   0  0  0  0  0  0  0  0  0  0  0  0
  160.8770  202.3960  151.7060 C   0  0  0  0  0  3  0  0  0  0  0  0
  160.8540  201.5900  147.7540 Cl  0  0  0  0  0  0  0  0  0  0  0  0
  160.8710  203.8350  149.3100 C   0  0  0  0  0  3  0  0  0  0  0  0
  160.8840  203.7930  151.7310 C   0  0  0  0  0  3  0  0  0  0  0  0
  160.8760  204.5190  150.5340 C   0  0  0  0  0  0  0  0  0  0  0  0
  160.8650  201.7180  150.4840 C   0  0  0  0  0  3  0  0  0  0  0  0
  160.4080  209.8920  153.3390 C   0  0  2  0  0  3  0  0  0  0  0  0
  158.9110  211.5420  152.2230 C   0  0  0  0  0  3  0  0  0  0  0  0
  159.0590  210.4770  153.0140 C   0  0  0  0  0  3  0  0  0  0  0  0
  162.7390  210.4170  153.0550 O   0  0  0  0  0  0  0  0  0  0  0  0
  160.0790  212.2130  151.6320 C   0  0  0  0  0  0  0  0  0  0  0  0
  159.8720  213.3750  150.7280 C   0  0  0  0  0  1  0  0  0  0  0  0
  161.5490  210.7050  152.7660 C   0  0  0  0  0  0  0  0  0  0  0  0
  161.2860  211.8170  151.9010 N   0  0  0  0  0  0  0  0  0  0  0  0
  162.1380  207.1770  155.7510 O   0  0  0  0  0  0  0  0  0  0  0  0
  160.4150  207.4830  154.2360 C   0  0  1  0  0  3  0  0  0  0  0  0
  161.2560  208.0620  156.3140 N   0  0  0  0  0  0  0  0  0  0  0  0
  161.7320  206.7370  154.4640 C   0  0  0  0  0  2  0  0  0  0  0  0
  160.2840  208.2700  155.4980 C   0  0  0  0  0  0  0  0  0  0  0  0
  159.5380  210.2320  156.7970 C   0  0  0  0  0  1  0  0  0  0  0  0
  159.1190  209.1380  155.8350 C   0  0  0  0  0  2  0  0  0  0  0  0
  1  7  1  1  0  0  0
  2 15  1  6  0  0  0
  2  5  1  0  0  0  0
  3  4  1  0  0  0  0
  4  8  1  0  0  0  0
  4  2  1  0  0  0  0
  5  6  1  6  0  0  0
  5  7  1  0  0  0  0
  8  9  1  0  0  0  0
  9  7  1  0  0  0  0
 10 13  2  0  0  0  0
 10 16  1  0  0  0  0
 11 14  1  0  0  0  0
 12 10  1  0  0  0  0
 13 15  1  0  0  0  0
 15 14  2  0  0  0  0
 16 11  2  0  0  0  0
 17  1  1  6  0  0  0
 18 19  2  0  0  0  0
 19 17  1  0  0  0  0
 21 24  2  0  0  0  0
 21 18  1  0  0  0  0
 22 21  1  0  0  0  0
 23 20  2  0  0  0  0
 23 17  1  0  0  0  0
 24 23  1  0  0  0  0
 25 27  1  0  0  0  0
 26  1  1  6  0  0  0
 26 28  1  0  0  0  0
 26 29  1  0  0  0  0
 28 25  1  0  0  0  0
 29 31  1  0  0  0  0
 29 27  2  0  0  0  0
 31 30  1  0  0  0  0
M  END
>  <MODEL>
4

>  <REMARK>
 VINA RESULT:      -3.5      2.215      3.220
  Name = 
  5 active torsions:
  status: ('A' for Active; 'I' for Inactive)
    1  A    between atoms: C_3  and  C_22
    2  A    between atoms: C_4  and  C_5
    3  A    between atoms: C_4  and  C_12
    4  A    between atoms: C_4  and  N_21
    5  A    between atoms: C_27  and  C_28
                            x       y       z     vdW  Elec       q    Type
                         _______ _______ _______ _____ _____    ______ ____

>  <TORSDO>
F 5

$$$$
