=
 OpenBabel11062409243D

 37 36  0  0  1  0  0  0  0  0999 V2000
  163.1450  207.6920  148.9530 O   0  0  0  0  0  1  0  0  0  0  0  0
  161.8730  207.9210  149.5040 C   0  0  1  0  0  0  0  0  0  0  0  0
  162.9900  207.0080  151.4580 O   0  0  0  0  0  1  0  0  0  0  0  0
  161.7540  207.1180  150.8130 C   0  0  2  0  0  3  0  0  0  0  0  0
  161.1080  205.7410  150.6460 C   0  0  0  0  0  2  0  0  0  0  0  0
  161.7620  204.6810  151.5280 C   0  0  0  0  0  2  0  0  0  0  0  0
  160.0490  203.3990  150.4860 F   0  0  0  0  0  0  0  0  0  0  0  0
  160.9510  203.3930  151.5330 C   0  0  0  0  0  0  0  0  0  0  0  0
  160.2590  203.3020  152.7250 F   0  0  0  0  0  0  0  0  0  0  0  0
  161.7920  202.3010  151.4160 F   0  0  0  0  0  0  0  0  0  0  0  0
  161.7200  209.4200  149.8390 C   0  0  2  0  0  3  0  0  0  0  0  0
  162.1670  211.4740  148.3310 C   0  0  0  0  0  0  0  0  0  0  0  0
  162.5700  210.2720  149.0000 N   0  0  0  0  0  2  0  0  0  0  0  0
  160.8080  211.9010  148.3400 N   0  0  0  0  0  1  0  0  0  0  0  0
  163.0240  212.1530  147.7110 O   0  0  0  0  0  0  0  0  0  0  0  0
  161.8510  209.7470  151.3270 C   0  0  0  0  0  2  0  0  0  0  0  0
  160.8000  210.7650  151.7300 C   0  0  0  0  0  2  0  0  0  0  0  0
  160.2750  210.4470  153.1120 C   0  0  0  0  0  2  0  0  0  0  0  0
  161.6620  210.4640  154.2860 S   0  0  0  0  0  0  0  0  0  0  0  0
  159.3870  210.1820  155.8840 S   0  0  0  0  0  0  0  0  0  0  0  0
  160.7010  209.6890  155.5840 C   0  0  0  0  0  0  0  0  0  0  0  0
  161.1520  208.3680  156.1300 C   0  0  0  0  0  2  0  0  0  0  0  0
  160.7350  206.7070  154.3180 C   0  0  0  0  0  1  0  0  0  0  0  0
  160.2620  207.2300  155.6620 C   0  0  0  0  0  2  0  0  0  0  0  0
  160.8500  207.5000  148.6260 O   0  0  0  0  0  0  0  0  0  0  0  0
  161.4290  207.0500  147.5000 O   0  0  0  0  0  0  0  0  0  0  0  0
  160.6510  206.6910  146.4240 N   0  0  0  0  0  0  0  0  0  0  0  0
  160.7710  205.5370  145.8510 C   0  0  0  0  0  0  0  0  0  0  0  0
  159.9990  205.2490  144.7720 F   0  0  0  0  0  0  0  0  0  0  0  0
  161.3980  204.1280  147.6440 O   0  0  0  0  0  1  0  0  0  0  0  0
  161.7510  204.5250  146.3530 C   0  0  1  0  0  3  0  0  0  0  0  0
  161.7630  203.3960  145.4880 O   0  0  0  0  0  0  0  0  0  0  0  0
  160.8800  202.3260  145.6460 C   0  0  0  0  0  0  0  0  0  0  0  0
  159.8320  202.2530  144.9430 O   0  0  0  0  0  0  0  0  0  0  0  0
  161.1830  201.3270  146.5710 O   0  0  0  0  0  0  0  0  0  0  0  0
  160.6790  201.3610  147.8970 C   0  0  0  0  0  2  0  0  0  0  0  0
  161.4710  200.5590  148.7150 O   0  0  0  0  0  1  0  0  0  0  0  0
  2  1  1  6  0  0  0
  2 11  1  0  0  0  0
  2  4  1  0  0  0  0
  4  3  1  6  0  0  0
  5  4  1  0  0  0  0
  5  6  1  0  0  0  0
  6  8  1  0  0  0  0
  7  8  1  0  0  0  0
  8  9  1  0  0  0  0
 10  8  1  0  0  0  0
 11 16  1  1  0  0  0
 12 14  1  0  0  0  0
 12 13  1  0  0  0  0
 13 11  1  0  0  0  0
 15 12  2  0  0  0  0
 16 17  1  0  0  0  0
 17 18  1  0  0  0  0
 18 19  1  0  0  0  0
 19 21  1  0  0  0  0
 21 20  2  0  0  0  0
 21 22  1  0  0  0  0
 23 24  1  0  0  0  0
 24 22  1  0  0  0  0
 25  2  1  0  0  0  0
 26 25  1  0  0  0  0
 27 26  1  0  0  0  0
 28 31  1  0  0  0  0
 28 27  2  0  0  0  0
 29 28  1  0  0  0  0
 31 30  1  1  0  0  0
 32 33  1  0  0  0  0
 32 31  1  0  0  0  0
 33 35  1  0  0  0  0
 34 33  2  0  0  0  0
 35 36  1  0  0  0  0
 36 37  1  0  0  0  0
M  END
>  <MODEL>
1

>  <REMARK>
 VINA RESULT:      -6.2      0.000      0.000
  Name = 
  21 active torsions:
  status: ('A' for Active; 'I' for Inactive)
    1  A    between atoms: N_1  and  O_36
    2  A    between atoms: C_5  and  C_17
    3  A    between atoms: C_6  and  S_8
    4  A    between atoms: C_6  and  C_31
    5  A    between atoms: C_7  and  O_33
    6  A    between atoms: S_8  and  C_19
    7  A    between atoms: C_10  and  C_14
    8  A    between atoms: C_10  and  C_20
    9  A    between atoms: C_10  and  N_22
   10  A    between atoms: C_11  and  O_26
   11  A    between atoms: C_11  and  O_33
   12  A    between atoms: C_14  and  C_31
   13  A    between atoms: C_16  and  C_21
   14  A    between atoms: C_16  and  C_30
   15  A    between atoms: C_17  and  O_26
   16  A    between atoms: C_18  and  C_19
   17  A    between atoms: C_18  and  C_35
   18  A    between atoms: C_20  and  C_24
   19  A    between atoms: C_20  and  O_29
   20  A    between atoms: C_24  and  C_30
   21  A    between atoms: O_29  and  O_36
                            x       y       z     vdW  Elec       q    Type
                         _______ _______ _______ _____ _____    ______ ____

>  <TORSDO>
F 21

$$$$
=
 OpenBabel11062409243D

 37 36  0  0  1  0  0  0  0  0999 V2000
  159.8880  206.6100  149.0450 O   0  0  0  0  0  1  0  0  0  0  0  0
  161.2620  206.9020  149.0090 C   0  0  1  0  0  0  0  0  0  0  0  0
  160.6300  207.1060  146.6730 O   0  0  0  0  0  1  0  0  0  0  0  0
  161.7160  206.9420  147.5380 C   0  0  2  0  0  3  0  0  0  0  0  0
  162.5690  205.7450  147.1130 C   0  0  0  0  0  2  0  0  0  0  0  0
  161.7230  204.5280  146.7510 C   0  0  0  0  0  2  0  0  0  0  0  0
  163.3010  203.8300  145.1130 F   0  0  0  0  0  0  0  0  0  0  0  0
  161.9600  204.1010  145.3100 C   0  0  0  0  0  0  0  0  0  0  0  0
  161.5770  205.1270  144.4690 F   0  0  0  0  0  0  0  0  0  0  0  0
  161.2110  202.9750  145.0180 F   0  0  0  0  0  0  0  0  0  0  0  0
  161.5080  208.2940  149.6310 C   0  0  2  0  0  3  0  0  0  0  0  0
  162.1960  210.6480  148.8080 C   0  0  0  0  0  0  0  0  0  0  0  0
  162.1540  209.2200  148.6940 N   0  0  0  0  0  2  0  0  0  0  0  0
  161.4820  211.3250  149.8390 N   0  0  0  0  0  1  0  0  0  0  0  0
  162.8590  211.3150  147.9740 O   0  0  0  0  0  0  0  0  0  0  0  0
  162.2040  208.2600  150.9920 C   0  0  0  0  0  2  0  0  0  0  0  0
  161.1770  208.0830  152.0960 C   0  0  0  0  0  2  0  0  0  0  0  0
  160.5620  209.4180  152.4480 C   0  0  0  0  0  2  0  0  0  0  0  0
  161.6670  210.2930  153.5940 S   0  0  0  0  0  0  0  0  0  0  0  0
  159.1590  211.0300  154.5810 S   0  0  0  0  0  0  0  0  0  0  0  0
  160.4170  210.4020  154.8720 C   0  0  0  0  0  0  0  0  0  0  0  0
  160.5810  209.5890  156.1200 C   0  0  0  0  0  2  0  0  0  0  0  0
  160.3170  207.1630  155.6000 C   0  0  0  0  0  1  0  0  0  0  0  0
  161.3100  208.2830  155.8500 C   0  0  0  0  0  2  0  0  0  0  0  0
  162.0150  205.9150  149.6840 O   0  0  0  0  0  0  0  0  0  0  0  0
  161.1960  204.8850  149.9570 O   0  0  0  0  0  0  0  0  0  0  0  0
  160.7710  204.6710  151.2480 N   0  0  0  0  0  0  0  0  0  0  0  0
  160.9140  203.5240  151.8310 C   0  0  0  0  0  0  0  0  0  0  0  0
  160.4460  203.3610  153.0940 F   0  0  0  0  0  0  0  0  0  0  0  0
  162.4500  201.7350  152.0060 O   0  0  0  0  0  1  0  0  0  0  0  0
  161.5750  202.3800  151.1300 C   0  0  1  0  0  3  0  0  0  0  0  0
  160.5890  201.4630  150.6710 O   0  0  0  0  0  0  0  0  0  0  0  0
  160.1440  201.4470  149.3480 C   0  0  0  0  0  0  0  0  0  0  0  0
  158.9070  201.4110  149.0910 O   0  0  0  0  0  0  0  0  0  0  0  0
  161.0800  201.4990  148.3160 O   0  0  0  0  0  0  0  0  0  0  0  0
  161.6270  200.3200  147.7460 C   0  0  0  0  0  2  0  0  0  0  0  0
  161.1890  200.1950  146.4300 O   0  0  0  0  0  1  0  0  0  0  0  0
  2  1  1  1  0  0  0
  2 11  1  0  0  0  0
  2 25  1  0  0  0  0
  4  3  1  6  0  0  0
  4  2  1  0  0  0  0
  5  4  1  0  0  0  0
  6  5  1  0  0  0  0
  7  8  1  0  0  0  0
  8  6  1  0  0  0  0
  9  8  1  0  0  0  0
 10  8  1  0  0  0  0
 11 16  1  1  0  0  0
 12 14  1  0  0  0  0
 13 12  1  0  0  0  0
 13 11  1  0  0  0  0
 15 12  2  0  0  0  0
 16 17  1  0  0  0  0
 17 18  1  0  0  0  0
 18 19  1  0  0  0  0
 19 21  1  0  0  0  0
 20 21  2  0  0  0  0
 21 22  1  0  0  0  0
 23 24  1  0  0  0  0
 24 22  1  0  0  0  0
 25 26  1  0  0  0  0
 26 27  1  0  0  0  0
 27 28  2  0  0  0  0
 28 29  1  0  0  0  0
 31 28  1  0  0  0  0
 31 30  1  1  0  0  0
 32 31  1  0  0  0  0
 33 32  1  0  0  0  0
 34 33  2  0  0  0  0
 35 33  1  0  0  0  0
 36 35  1  0  0  0  0
 37 36  1  0  0  0  0
M  END
>  <MODEL>
2

>  <REMARK>
 VINA RESULT:      -5.9      1.847      4.026
  Name = 
  21 active torsions:
  status: ('A' for Active; 'I' for Inactive)
    1  A    between atoms: N_1  and  O_36
    2  A    between atoms: C_5  and  C_17
    3  A    between atoms: C_6  and  S_8
    4  A    between atoms: C_6  and  C_31
    5  A    between atoms: C_7  and  O_33
    6  A    between atoms: S_8  and  C_19
    7  A    between atoms: C_10  and  C_14
    8  A    between atoms: C_10  and  C_20
    9  A    between atoms: C_10  and  N_22
   10  A    between atoms: C_11  and  O_26
   11  A    between atoms: C_11  and  O_33
   12  A    between atoms: C_14  and  C_31
   13  A    between atoms: C_16  and  C_21
   14  A    between atoms: C_16  and  C_30
   15  A    between atoms: C_17  and  O_26
   16  A    between atoms: C_18  and  C_19
   17  A    between atoms: C_18  and  C_35
   18  A    between atoms: C_20  and  C_24
   19  A    between atoms: C_20  and  O_29
   20  A    between atoms: C_24  and  C_30
   21  A    between atoms: O_29  and  O_36
                            x       y       z     vdW  Elec       q    Type
                         _______ _______ _______ _____ _____    ______ ____

>  <TORSDO>
F 21

$$$$
=
 OpenBabel11062409243D

 37 36  0  0  1  0  0  0  0  0999 V2000
  163.0330  207.2610  150.8540 O   0  0  0  0  0  1  0  0  0  0  0  0
  161.7430  207.7330  150.5570 C   0  0  1  0  0  0  0  0  0  0  0  0
  162.4080  209.5550  152.0190 O   0  0  0  0  0  1  0  0  0  0  0  0
  161.3310  208.7470  151.6410 C   0  0  2  0  0  3  0  0  0  0  0  0
  160.6710  208.1170  152.8690 C   0  0  0  0  0  2  0  0  0  0  0  0
  161.0820  208.8050  154.1670 C   0  0  0  0  0  2  0  0  0  0  0  0
  161.4580  207.9380  156.3510 F   0  0  0  0  0  0  0  0  0  0  0  0
  160.4900  208.0970  155.3770 C   0  0  0  0  0  0  0  0  0  0  0  0
  160.0290  206.8540  154.9890 F   0  0  0  0  0  0  0  0  0  0  0  0
  159.4330  208.8300  155.8880 F   0  0  0  0  0  0  0  0  0  0  0  0
  161.7620  208.4590  149.1950 C   0  0  2  0  0  3  0  0  0  0  0  0
  161.8170  206.7740  147.2330 C   0  0  0  0  0  0  0  0  0  0  0  0
  162.4400  207.6790  148.1530 N   0  0  0  0  0  2  0  0  0  0  0  0
  160.4310  206.4590  147.3340 N   0  0  0  0  0  1  0  0  0  0  0  0
  162.5090  206.2340  146.3330 O   0  0  0  0  0  0  0  0  0  0  0  0
  162.2590  209.9040  149.2600 C   0  0  0  0  0  2  0  0  0  0  0  0
  161.5550  210.7430  148.2100 C   0  0  0  0  0  2  0  0  0  0  0  0
  162.2070  212.1030  148.1120 C   0  0  0  0  0  2  0  0  0  0  0  0
  161.1050  213.3400  148.8580 S   0  0  0  0  0  0  0  0  0  0  0  0
  160.6980  213.7070  146.1180 S   0  0  0  0  0  0  0  0  0  0  0  0
  160.0840  213.4590  147.3910 C   0  0  0  0  0  0  0  0  0  0  0  0
  158.6560  213.0100  147.4620 C   0  0  0  0  0  2  0  0  0  0  0  0
  156.8270  213.6480  145.8910 C   0  0  0  0  0  1  0  0  0  0  0  0
  158.0640  212.7890  146.0800 C   0  0  0  0  0  2  0  0  0  0  0  0
  160.8010  206.6800  150.5470 O   0  0  0  0  0  0  0  0  0  0  0  0
  161.4400  205.5500  150.8940 O   0  0  0  0  0  0  0  0  0  0  0  0
  160.9470  204.7690  151.9150 N   0  0  0  0  0  0  0  0  0  0  0  0
  160.9120  203.4780  151.8290 C   0  0  0  0  0  0  0  0  0  0  0  0
  160.3850  202.7610  152.8530 F   0  0  0  0  0  0  0  0  0  0  0  0
  161.4130  201.3920  150.8350 O   0  0  0  0  0  1  0  0  0  0  0  0
  161.4310  202.7720  150.6180 C   0  0  1  0  0  3  0  0  0  0  0  0
  160.6260  203.0930  149.4900 O   0  0  0  0  0  0  0  0  0  0  0  0
  161.0230  202.7990  148.1830 C   0  0  0  0  0  0  0  0  0  0  0  0
  161.9790  203.4290  147.6500 O   0  0  0  0  0  0  0  0  0  0  0  0
  160.3660  201.7860  147.4870 O   0  0  0  0  0  0  0  0  0  0  0  0
  160.8450  201.3070  146.2400 C   0  0  0  0  0  2  0  0  0  0  0  0
  159.9030  201.5710  145.2490 O   0  0  0  0  0  1  0  0  0  0  0  0
  2  1  1  1  0  0  0
  2  4  1  0  0  0  0
  4  3  1  1  0  0  0
  4  5  1  0  0  0  0
  5  6  1  0  0  0  0
  6  8  1  0  0  0  0
  8 10  1  0  0  0  0
  8  7  1  0  0  0  0
  9  8  1  0  0  0  0
 11 16  1  1  0  0  0
 11  2  1  0  0  0  0
 12 14  1  0  0  0  0
 12 13  1  0  0  0  0
 13 11  1  0  0  0  0
 15 12  2  0  0  0  0
 17 16  1  0  0  0  0
 18 17  1  0  0  0  0
 18 19  1  0  0  0  0
 20 21  2  0  0  0  0
 21 22  1  0  0  0  0
 21 19  1  0  0  0  0
 23 24  1  0  0  0  0
 24 22  1  0  0  0  0
 25  2  1  0  0  0  0
 25 26  1  0  0  0  0
 26 27  1  0  0  0  0
 28 27  2  0  0  0  0
 28 29  1  0  0  0  0
 31 30  1  1  0  0  0
 31 28  1  0  0  0  0
 32 31  1  0  0  0  0
 33 32  1  0  0  0  0
 34 33  2  0  0  0  0
 35 33  1  0  0  0  0
 36 35  1  0  0  0  0
 37 36  1  0  0  0  0
M  END
>  <MODEL>
3

>  <REMARK>
 VINA RESULT:      -5.7      3.274      5.776
  Name = 
  21 active torsions:
  status: ('A' for Active; 'I' for Inactive)
    1  A    between atoms: N_1  and  O_36
    2  A    between atoms: C_5  and  C_17
    3  A    between atoms: C_6  and  S_8
    4  A    between atoms: C_6  and  C_31
    5  A    between atoms: C_7  and  O_33
    6  A    between atoms: S_8  and  C_19
    7  A    between atoms: C_10  and  C_14
    8  A    between atoms: C_10  and  C_20
    9  A    between atoms: C_10  and  N_22
   10  A    between atoms: C_11  and  O_26
   11  A    between atoms: C_11  and  O_33
   12  A    between atoms: C_14  and  C_31
   13  A    between atoms: C_16  and  C_21
   14  A    between atoms: C_16  and  C_30
   15  A    between atoms: C_17  and  O_26
   16  A    between atoms: C_18  and  C_19
   17  A    between atoms: C_18  and  C_35
   18  A    between atoms: C_20  and  C_24
   19  A    between atoms: C_20  and  O_29
   20  A    between atoms: C_24  and  C_30
   21  A    between atoms: O_29  and  O_36
                            x       y       z     vdW  Elec       q    Type
                         _______ _______ _______ _____ _____    ______ ____

>  <TORSDO>
F 21

$$$$
=
 OpenBabel11062409243D

 37 36  0  0  1  0  0  0  0  0999 V2000
  160.3810  209.4000  152.0420 O   0  0  0  0  0  1  0  0  0  0  0  0
  161.7380  209.2090  151.7310 C   0  0  1  0  0  0  0  0  0  0  0  0
  162.9660  207.2140  151.0910 O   0  0  0  0  0  1  0  0  0  0  0  0
  162.1140  207.7520  152.0610 C   0  0  2  0  0  3  0  0  0  0  0  0
  160.9130  206.8320  152.2950 C   0  0  0  0  0  2  0  0  0  0  0  0
  161.3040  205.5320  152.9900 C   0  0  0  0  0  2  0  0  0  0  0  0
  160.6190  203.2620  152.7890 F   0  0  0  0  0  0  0  0  0  0  0  0
  161.1100  204.3360  152.0700 C   0  0  0  0  0  0  0  0  0  0  0  0
  162.3290  203.9910  151.5190 F   0  0  0  0  0  0  0  0  0  0  0  0
  160.2290  204.6560  151.0520 F   0  0  0  0  0  0  0  0  0  0  0  0
  161.9560  209.4360  150.2200 C   0  0  2  0  0  3  0  0  0  0  0  0
  162.0290  211.6270  148.8450 C   0  0  0  0  0  0  0  0  0  0  0  0
  161.4060  210.7170  149.7610 N   0  0  0  0  0  2  0  0  0  0  0  0
  163.3520  211.4010  148.3690 N   0  0  0  0  0  1  0  0  0  0  0  0
  161.4040  212.6520  148.4720 O   0  0  0  0  0  0  0  0  0  0  0  0
  161.5240  208.2630  149.3390 C   0  0  0  0  0  2  0  0  0  0  0  0
  162.5530  208.0250  148.2500 C   0  0  0  0  0  2  0  0  0  0  0  0
  162.1030  206.8970  147.3500 C   0  0  0  0  0  2  0  0  0  0  0  0
  160.7600  205.9890  148.1710 S   0  0  0  0  0  0  0  0  0  0  0  0
  161.6400  204.3160  146.1130 S   0  0  0  0  0  0  0  0  0  0  0  0
  161.2820  204.4130  147.5000 C   0  0  0  0  0  0  0  0  0  0  0  0
  161.6180  203.2980  148.4430 C   0  0  0  0  0  2  0  0  0  0  0  0
  160.2150  201.5320  149.5060 C   0  0  0  0  0  1  0  0  0  0  0  0
  160.7590  202.0700  148.1960 C   0  0  0  0  0  2  0  0  0  0  0  0
  162.5650  210.0670  152.4890 O   0  0  0  0  0  0  0  0  0  0  0  0
  161.8660  210.4730  153.5630 O   0  0  0  0  0  0  0  0  0  0  0  0
  162.3830  210.2940  154.8260 N   0  0  0  0  0  0  0  0  0  0  0  0
  161.7240  209.6720  155.7490 C   0  0  0  0  0  0  0  0  0  0  0  0
  162.2700  209.5540  156.9860 F   0  0  0  0  0  0  0  0  0  0  0  0
  160.3910  207.7190  155.7160 O   0  0  0  0  0  1  0  0  0  0  0  0
  160.3720  209.0940  155.4770 C   0  0  1  0  0  3  0  0  0  0  0  0
  159.4050  209.7150  156.3150 O   0  0  0  0  0  0  0  0  0  0  0  0
  158.8360  210.9530  156.0070 C   0  0  0  0  0  0  0  0  0  0  0  0
  159.5540  211.9910  155.9560 O   0  0  0  0  0  0  0  0  0  0  0  0
  157.4710  211.0220  155.7330 O   0  0  0  0  0  0  0  0  0  0  0  0
  156.9830  211.5150  154.4940 C   0  0  0  0  0  2  0  0  0  0  0  0
  155.9820  212.4530  154.7300 O   0  0  0  0  0  1  0  0  0  0  0  0
  2  1  1  1  0  0  0
  2  4  1  0  0  0  0
  2 25  1  0  0  0  0
  4  3  1  6  0  0  0
  4  5  1  0  0  0  0
  5  6  1  0  0  0  0
  8  7  1  0  0  0  0
  8  6  1  0  0  0  0
  9  8  1  0  0  0  0
 10  8  1  0  0  0  0
 11 16  1  6  0  0  0
 11  2  1  0  0  0  0
 12 13  1  0  0  0  0
 13 11  1  0  0  0  0
 14 12  1  0  0  0  0
 15 12  2  0  0  0  0
 17 16  1  0  0  0  0
 18 19  1  0  0  0  0
 18 17  1  0  0  0  0
 20 21  2  0  0  0  0
 21 19  1  0  0  0  0
 21 22  1  0  0  0  0
 24 22  1  0  0  0  0
 24 23  1  0  0  0  0
 25 26  1  0  0  0  0
 26 27  1  0  0  0  0
 27 28  2  0  0  0  0
 28 29  1  0  0  0  0
 31 30  1  1  0  0  0
 31 28  1  0  0  0  0
 31 32  1  0  0  0  0
 33 32  1  0  0  0  0
 34 33  2  0  0  0  0
 35 33  1  0  0  0  0
 36 37  1  0  0  0  0
 36 35  1  0  0  0  0
M  END
>  <MODEL>
4

>  <REMARK>
 VINA RESULT:      -5.7      4.151      8.072
  Name = 
  21 active torsions:
  status: ('A' for Active; 'I' for Inactive)
    1  A    between atoms: N_1  and  O_36
    2  A    between atoms: C_5  and  C_17
    3  A    between atoms: C_6  and  S_8
    4  A    between atoms: C_6  and  C_31
    5  A    between atoms: C_7  and  O_33
    6  A    between atoms: S_8  and  C_19
    7  A    between atoms: C_10  and  C_14
    8  A    between atoms: C_10  and  C_20
    9  A    between atoms: C_10  and  N_22
   10  A    between atoms: C_11  and  O_26
   11  A    between atoms: C_11  and  O_33
   12  A    between atoms: C_14  and  C_31
   13  A    between atoms: C_16  and  C_21
   14  A    between atoms: C_16  and  C_30
   15  A    between atoms: C_17  and  O_26
   16  A    between atoms: C_18  and  C_19
   17  A    between atoms: C_18  and  C_35
   18  A    between atoms: C_20  and  C_24
   19  A    between atoms: C_20  and  O_29
   20  A    between atoms: C_24  and  C_30
   21  A    between atoms: O_29  and  O_36
                            x       y       z     vdW  Elec       q    Type
                         _______ _______ _______ _____ _____    ______ ____

>  <TORSDO>
F 21

$$$$
=
 OpenBabel11062409243D

 37 36  0  0  1  0  0  0  0  0999 V2000
  160.5110  207.5300  150.0680 O   0  0  0  0  0  1  0  0  0  0  0  0
  161.8700  207.4170  150.4040 C   0  0  1  0  0  0  0  0  0  0  0  0
  162.5020  209.5030  151.4750 O   0  0  0  0  0  1  0  0  0  0  0  0
  162.5260  208.8040  150.2640 C   0  0  2  0  0  3  0  0  0  0  0  0
  161.9460  209.6600  149.1360 C   0  0  0  0  0  2  0  0  0  0  0  0
  161.9260  211.1450  149.4830 C   0  0  0  0  0  2  0  0  0  0  0  0
  163.3740  211.7440  147.6920 F   0  0  0  0  0  0  0  0  0  0  0  0
  162.1330  212.0030  148.2440 C   0  0  0  0  0  0  0  0  0  0  0  0
  162.0680  213.3350  148.6040 F   0  0  0  0  0  0  0  0  0  0  0  0
  161.1460  211.7390  147.3120 F   0  0  0  0  0  0  0  0  0  0  0  0
  162.0010  206.9650  151.8740 C   0  0  2  0  0  3  0  0  0  0  0  0
  161.5750  204.4210  151.6740 C   0  0  0  0  0  0  0  0  0  0  0  0
  162.3900  205.5550  151.9950 N   0  0  0  0  0  2  0  0  0  0  0  0
  160.2100  204.5780  151.2970 N   0  0  0  0  0  1  0  0  0  0  0  0
  162.0680  203.2670  151.7450 O   0  0  0  0  0  0  0  0  0  0  0  0
  160.7960  207.3160  152.7490 C   0  0  0  0  0  2  0  0  0  0  0  0
  161.1000  207.0020  154.2020 C   0  0  0  0  0  2  0  0  0  0  0  0
  160.4950  208.0590  155.0970 C   0  0  0  0  0  2  0  0  0  0  0  0
  161.4600  209.5900  154.9340 S   0  0  0  0  0  0  0  0  0  0  0  0
  159.6820  210.5040  156.8860 S   0  0  0  0  0  0  0  0  0  0  0  0
  160.1160  210.6170  155.5220 C   0  0  0  0  0  0  0  0  0  0  0  0
  159.6640  211.7730  154.6830 C   0  0  0  0  0  2  0  0  0  0  0  0
  159.7090  212.1150  152.2120 C   0  0  0  0  0  1  0  0  0  0  0  0
  159.0990  211.3150  153.3490 C   0  0  0  0  0  2  0  0  0  0  0  0
  162.5380  206.5170  149.5450 O   0  0  0  0  0  0  0  0  0  0  0  0
  161.8130  206.4030  148.4190 O   0  0  0  0  0  0  0  0  0  0  0  0
  162.4040  206.6250  147.1960 N   0  0  0  0  0  0  0  0  0  0  0  0
  162.1550  205.8730  146.1730 C   0  0  0  0  0  0  0  0  0  0  0  0
  162.7920  206.1190  145.0000 F   0  0  0  0  0  0  0  0  0  0  0  0
  160.7050  204.4220  144.9960 O   0  0  0  0  0  1  0  0  0  0  0  0
  161.1880  204.7370  146.2680 C   0  0  1  0  0  3  0  0  0  0  0  0
  161.8330  203.6020  146.8320 O   0  0  0  0  0  0  0  0  0  0  0  0
  161.1180  202.5300  147.3720 C   0  0  0  0  0  0  0  0  0  0  0  0
  160.9150  201.4890  146.6860 O   0  0  0  0  0  0  0  0  0  0  0  0
  160.6570  202.6150  148.6840 O   0  0  0  0  0  0  0  0  0  0  0  0
  160.0980  201.4940  149.3530 C   0  0  0  0  0  2  0  0  0  0  0  0
  161.1120  200.7760  149.9810 O   0  0  0  0  0  1  0  0  0  0  0  0
  2  1  1  6  0  0  0
  2 11  1  0  0  0  0
  4  2  1  0  0  0  0
  4  3  1  1  0  0  0
  5  6  1  0  0  0  0
  5  4  1  0  0  0  0
  7  8  1  0  0  0  0
  8  9  1  0  0  0  0
  8  6  1  0  0  0  0
 10  8  1  0  0  0  0
 11 13  1  0  0  0  0
 11 16  1  1  0  0  0
 12 15  2  0  0  0  0
 12 13  1  0  0  0  0
 14 12  1  0  0  0  0
 16 17  1  0  0  0  0
 17 18  1  0  0  0  0
 19 18  1  0  0  0  0
 19 21  1  0  0  0  0
 21 20  2  0  0  0  0
 22 21  1  0  0  0  0
 23 24  1  0  0  0  0
 24 22  1  0  0  0  0
 25  2  1  0  0  0  0
 26 25  1  0  0  0  0
 27 26  1  0  0  0  0
 28 31  1  0  0  0  0
 28 27  2  0  0  0  0
 29 28  1  0  0  0  0
 31 30  1  6  0  0  0
 31 32  1  0  0  0  0
 32 33  1  0  0  0  0
 33 35  1  0  0  0  0
 34 33  2  0  0  0  0
 35 36  1  0  0  0  0
 36 37  1  0  0  0  0
M  END
>  <MODEL>
5

>  <REMARK>
 VINA RESULT:      -5.7      3.006      4.968
  Name = 
  21 active torsions:
  status: ('A' for Active; 'I' for Inactive)
    1  A    between atoms: N_1  and  O_36
    2  A    between atoms: C_5  and  C_17
    3  A    between atoms: C_6  and  S_8
    4  A    between atoms: C_6  and  C_31
    5  A    between atoms: C_7  and  O_33
    6  A    between atoms: S_8  and  C_19
    7  A    between atoms: C_10  and  C_14
    8  A    between atoms: C_10  and  C_20
    9  A    between atoms: C_10  and  N_22
   10  A    between atoms: C_11  and  O_26
   11  A    between atoms: C_11  and  O_33
   12  A    between atoms: C_14  and  C_31
   13  A    between atoms: C_16  and  C_21
   14  A    between atoms: C_16  and  C_30
   15  A    between atoms: C_17  and  O_26
   16  A    between atoms: C_18  and  C_19
   17  A    between atoms: C_18  and  C_35
   18  A    between atoms: C_20  and  C_24
   19  A    between atoms: C_20  and  O_29
   20  A    between atoms: C_24  and  C_30
   21  A    between atoms: O_29  and  O_36
                            x       y       z     vdW  Elec       q    Type
                         _______ _______ _______ _____ _____    ______ ____

>  <TORSDO>
F 21

$$$$
=
 OpenBabel11062409243D

 37 36  0  0  1  0  0  0  0  0999 V2000
  161.8460  210.6920  152.6500 O   0  0  0  0  0  1  0  0  0  0  0  0
  160.6750  210.6570  153.4250 C   0  0  1  0  0  0  0  0  0  0  0  0
  162.4510  210.6110  155.0820 O   0  0  0  0  0  1  0  0  0  0  0  0
  161.0690  210.7420  154.9120 C   0  0  2  0  0  3  0  0  0  0  0  0
  160.3190  209.7610  155.8160 C   0  0  0  0  0  2  0  0  0  0  0  0
  161.1540  208.5300  156.1570 C   0  0  0  0  0  2  0  0  0  0  0  0
  160.4990  206.5190  157.2490 F   0  0  0  0  0  0  0  0  0  0  0  0
  160.3150  207.2620  156.0970 C   0  0  0  0  0  0  0  0  0  0  0  0
  160.7110  206.5120  155.0080 F   0  0  0  0  0  0  0  0  0  0  0  0
  158.9760  207.5830  155.9620 F   0  0  0  0  0  0  0  0  0  0  0  0
  159.7970  211.8800  153.0860 C   0  0  2  0  0  3  0  0  0  0  0  0
  157.5820  212.1070  154.4030 C   0  0  0  0  0  0  0  0  0  0  0  0
  158.3690  211.6240  153.3070 N   0  0  0  0  0  2  0  0  0  0  0  0
  158.1810  212.8220  155.4810 N   0  0  0  0  0  1  0  0  0  0  0  0
  156.3460  211.8800  154.4240 O   0  0  0  0  0  0  0  0  0  0  0  0
  160.0750  212.4910  151.7120 C   0  0  0  0  0  2  0  0  0  0  0  0
  158.9800  213.4780  151.3510 C   0  0  0  0  0  2  0  0  0  0  0  0
  159.2020  214.0080  149.9530 C   0  0  0  0  0  2  0  0  0  0  0  0
  160.7140  213.2630  149.2740 S   0  0  0  0  0  0  0  0  0  0  0  0
  161.6630  214.3310  146.8720 S   0  0  0  0  0  0  0  0  0  0  0  0
  160.5090  214.0590  147.6820 C   0  0  0  0  0  0  0  0  0  0  0  0
  159.1360  214.1610  147.0920 C   0  0  0  0  0  2  0  0  0  0  0  0
  157.2970  212.5020  146.7910 C   0  0  0  0  0  1  0  0  0  0  0  0
  158.7190  212.8700  146.4070 C   0  0  0  0  0  2  0  0  0  0  0  0
  159.9590  209.4570  153.2200 O   0  0  0  0  0  0  0  0  0  0  0  0
  160.4750  208.8470  152.1400 O   0  0  0  0  0  0  0  0  0  0  0  0
  161.4680  207.9050  152.2920 N   0  0  0  0  0  0  0  0  0  0  0  0
  162.0890  207.4000  151.2750 C   0  0  0  0  0  0  0  0  0  0  0  0
  163.0360  206.4500  151.4840 F   0  0  0  0  0  0  0  0  0  0  0  0
  162.1970  209.1530  149.6920 O   0  0  0  0  0  1  0  0  0  0  0  0
  161.7700  207.8370  149.8820 C   0  0  1  0  0  3  0  0  0  0  0  0
  162.4190  206.9810  148.9480 O   0  0  0  0  0  0  0  0  0  0  0  0
  161.7290  206.3500  147.9110 C   0  0  0  0  0  0  0  0  0  0  0  0
  160.7280  205.6210  148.1610 O   0  0  0  0  0  0  0  0  0  0  0  0
  162.1440  206.5560  146.5960 O   0  0  0  0  0  0  0  0  0  0  0  0
  162.2680  205.4830  145.6760 C   0  0  0  0  0  2  0  0  0  0  0  0
  163.4200  204.7560  145.9620 O   0  0  0  0  0  1  0  0  0  0  0  0
  2  1  1  6  0  0  0
  2  4  1  0  0  0  0
  4  3  1  6  0  0  0
  4  5  1  0  0  0  0
  5  6  1  0  0  0  0
  8  6  1  0  0  0  0
  8  7  1  0  0  0  0
  9  8  1  0  0  0  0
 10  8  1  0  0  0  0
 11 16  1  6  0  0  0
 11 13  1  0  0  0  0
 11  2  1  0  0  0  0
 12 15  2  0  0  0  0
 12 14  1  0  0  0  0
 13 12  1  0  0  0  0
 17 16  1  0  0  0  0
 18 17  1  0  0  0  0
 19 18  1  0  0  0  0
 20 21  2  0  0  0  0
 21 19  1  0  0  0  0
 22 21  1  0  0  0  0
 24 23  1  0  0  0  0
 24 22  1  0  0  0  0
 25  2  1  0  0  0  0
 26 27  1  0  0  0  0
 26 25  1  0  0  0  0
 28 29  1  0  0  0  0
 28 27  2  0  0  0  0
 31 30  1  1  0  0  0
 31 28  1  0  0  0  0
 32 31  1  0  0  0  0
 33 34  2  0  0  0  0
 33 32  1  0  0  0  0
 35 33  1  0  0  0  0
 36 37  1  0  0  0  0
 36 35  1  0  0  0  0
M  END
>  <MODEL>
6

>  <REMARK>
 VINA RESULT:      -5.4      3.998      6.584
  Name = 
  21 active torsions:
  status: ('A' for Active; 'I' for Inactive)
    1  A    between atoms: N_1  and  O_36
    2  A    between atoms: C_5  and  C_17
    3  A    between atoms: C_6  and  S_8
    4  A    between atoms: C_6  and  C_31
    5  A    between atoms: C_7  and  O_33
    6  A    between atoms: S_8  and  C_19
    7  A    between atoms: C_10  and  C_14
    8  A    between atoms: C_10  and  C_20
    9  A    between atoms: C_10  and  N_22
   10  A    between atoms: C_11  and  O_26
   11  A    between atoms: C_11  and  O_33
   12  A    between atoms: C_14  and  C_31
   13  A    between atoms: C_16  and  C_21
   14  A    between atoms: C_16  and  C_30
   15  A    between atoms: C_17  and  O_26
   16  A    between atoms: C_18  and  C_19
   17  A    between atoms: C_18  and  C_35
   18  A    between atoms: C_20  and  C_24
   19  A    between atoms: C_20  and  O_29
   20  A    between atoms: C_24  and  C_30
   21  A    between atoms: O_29  and  O_36
                            x       y       z     vdW  Elec       q    Type
                         _______ _______ _______ _____ _____    ______ ____

>  <TORSDO>
F 21

$$$$
=
 OpenBabel11062409243D

 37 36  0  0  1  0  0  0  0  0999 V2000
  163.1300  206.8770  149.4600 O   0  0  0  0  0  1  0  0  0  0  0  0
  161.8540  207.3430  149.8210 C   0  0  1  0  0  0  0  0  0  0  0  0
  162.4810  206.4630  151.9960 O   0  0  0  0  0  1  0  0  0  0  0  0
  161.4140  206.6180  151.1070 C   0  0  2  0  0  3  0  0  0  0  0  0
  160.7160  205.2780  150.8620 C   0  0  0  0  0  2  0  0  0  0  0  0
  161.6940  204.1070  150.8500 C   0  0  0  0  0  2  0  0  0  0  0  0
  160.4290  203.2930  152.6940 F   0  0  0  0  0  0  0  0  0  0  0  0
  161.1080  202.8940  151.5580 C   0  0  0  0  0  0  0  0  0  0  0  0
  162.1360  202.0460  151.9200 F   0  0  0  0  0  0  0  0  0  0  0  0
  160.2450  202.2210  150.7130 F   0  0  0  0  0  0  0  0  0  0  0  0
  161.9250  208.8560  150.1170 C   0  0  2  0  0  3  0  0  0  0  0  0
  161.2130  209.9300  152.3610 C   0  0  0  0  0  0  0  0  0  0  0  0
  160.9350  209.2790  151.1150 N   0  0  0  0  0  2  0  0  0  0  0  0
  162.5520  210.1300  152.8040 N   0  0  0  0  0  1  0  0  0  0  0  0
  160.2590  210.3130  153.0840 O   0  0  0  0  0  0  0  0  0  0  0  0
  161.9140  209.7420  148.8700 C   0  0  0  0  0  2  0  0  0  0  0  0
  162.3970  211.1370  149.2190 C   0  0  0  0  0  2  0  0  0  0  0  0
  161.4680  212.1700  148.6240 C   0  0  0  0  0  2  0  0  0  0  0  0
  160.7660  213.1740  149.9660 S   0  0  0  0  0  0  0  0  0  0  0  0
  159.5660  213.6690  147.4910 S   0  0  0  0  0  0  0  0  0  0  0  0
  159.5030  213.8810  148.9100 C   0  0  0  0  0  0  0  0  0  0  0  0
  158.2540  214.4230  149.5350 C   0  0  0  0  0  2  0  0  0  0  0  0
  155.9500  214.2080  148.6060 C   0  0  0  0  0  1  0  0  0  0  0  0
  157.0720  213.4910  149.3350 C   0  0  0  0  0  2  0  0  0  0  0  0
  160.9050  207.0770  148.8090 O   0  0  0  0  0  0  0  0  0  0  0  0
  161.5650  206.6120  147.7350 O   0  0  0  0  0  0  0  0  0  0  0  0
  160.9240  206.5260  146.5200 N   0  0  0  0  0  0  0  0  0  0  0  0
  161.2120  205.6020  145.6610 C   0  0  0  0  0  0  0  0  0  0  0  0
  160.5710  205.5850  144.4660 F   0  0  0  0  0  0  0  0  0  0  0  0
  162.3090  204.3500  147.3420 O   0  0  0  0  0  1  0  0  0  0  0  0
  162.2460  204.5650  145.9630 C   0  0  1  0  0  3  0  0  0  0  0  0
  161.9160  203.3490  145.3010 O   0  0  0  0  0  0  0  0  0  0  0  0
  160.7790  202.6070  145.6270 C   0  0  0  0  0  0  0  0  0  0  0  0
  159.8350  202.4860  144.7960 O   0  0  0  0  0  0  0  0  0  0  0  0
  160.7130  201.9800  146.8710 O   0  0  0  0  0  0  0  0  0  0  0  0
  161.2880  200.7020  147.0940 C   0  0  0  0  0  2  0  0  0  0  0  0
  161.5230  200.5300  148.4550 O   0  0  0  0  0  1  0  0  0  0  0  0
  2  1  1  6  0  0  0
  2 11  1  0  0  0  0
  2  4  1  0  0  0  0
  4  3  1  1  0  0  0
  5  4  1  0  0  0  0
  6  5  1  0  0  0  0
  6  8  1  0  0  0  0
  8  9  1  0  0  0  0
  8  7  1  0  0  0  0
 10  8  1  0  0  0  0
 11 16  1  6  0  0  0
 11 13  1  0  0  0  0
 12 14  1  0  0  0  0
 12 15  2  0  0  0  0
 13 12  1  0  0  0  0
 16 17  1  0  0  0  0
 18 17  1  0  0  0  0
 18 19  1  0  0  0  0
 20 21  2  0  0  0  0
 21 22  1  0  0  0  0
 21 19  1  0  0  0  0
 23 24  1  0  0  0  0
 24 22  1  0  0  0  0
 25  2  1  0  0  0  0
 26 25  1  0  0  0  0
 27 26  1  0  0  0  0
 28 31  1  0  0  0  0
 28 27  2  0  0  0  0
 29 28  1  0  0  0  0
 31 30  1  1  0  0  0
 32 33  1  0  0  0  0
 32 31  1  0  0  0  0
 33 35  1  0  0  0  0
 34 33  2  0  0  0  0
 35 36  1  0  0  0  0
 36 37  1  0  0  0  0
M  END
>  <MODEL>
7

>  <REMARK>
 VINA RESULT:      -5.4      2.638      4.092
  Name = 
  21 active torsions:
  status: ('A' for Active; 'I' for Inactive)
    1  A    between atoms: N_1  and  O_36
    2  A    between atoms: C_5  and  C_17
    3  A    between atoms: C_6  and  S_8
    4  A    between atoms: C_6  and  C_31
    5  A    between atoms: C_7  and  O_33
    6  A    between atoms: S_8  and  C_19
    7  A    between atoms: C_10  and  C_14
    8  A    between atoms: C_10  and  C_20
    9  A    between atoms: C_10  and  N_22
   10  A    between atoms: C_11  and  O_26
   11  A    between atoms: C_11  and  O_33
   12  A    between atoms: C_14  and  C_31
   13  A    between atoms: C_16  and  C_21
   14  A    between atoms: C_16  and  C_30
   15  A    between atoms: C_17  and  O_26
   16  A    between atoms: C_18  and  C_19
   17  A    between atoms: C_18  and  C_35
   18  A    between atoms: C_20  and  C_24
   19  A    between atoms: C_20  and  O_29
   20  A    between atoms: C_24  and  C_30
   21  A    between atoms: O_29  and  O_36
                            x       y       z     vdW  Elec       q    Type
                         _______ _______ _______ _____ _____    ______ ____

>  <TORSDO>
F 21

$$$$
=
 OpenBabel11062409243D

 37 36  0  0  1  0  0  0  0  0999 V2000
  160.0570  206.3700  152.2770 O   0  0  0  0  0  1  0  0  0  0  0  0
  161.4210  206.0540  152.1660 C   0  0  1  0  0  0  0  0  0  0  0  0
  162.8540  204.1680  151.6280 O   0  0  0  0  0  1  0  0  0  0  0  0
  161.5600  204.5270  152.0190 C   0  0  2  0  0  3  0  0  0  0  0  0
  160.5200  203.8910  151.0940 C   0  0  0  0  0  2  0  0  0  0  0  0
  160.8240  202.4250  150.8000 C   0  0  0  0  0  2  0  0  0  0  0  0
  161.3680  203.2450  148.6330 F   0  0  0  0  0  0  0  0  0  0  0  0
  160.8410  202.1560  149.3020 C   0  0  0  0  0  0  0  0  0  0  0  0
  159.5470  201.9420  148.8690 F   0  0  0  0  0  0  0  0  0  0  0  0
  161.6000  201.0320  149.0290 F   0  0  0  0  0  0  0  0  0  0  0  0
  162.0010  206.7180  150.8990 C   0  0  2  0  0  3  0  0  0  0  0  0
  162.0980  209.2080  151.5940 C   0  0  0  0  0  0  0  0  0  0  0  0
  162.7040  207.9720  151.1940 N   0  0  0  0  0  2  0  0  0  0  0  0
  160.6820  209.3550  151.6320 N   0  0  0  0  0  1  0  0  0  0  0  0
  162.8300  210.1840  151.8980 O   0  0  0  0  0  0  0  0  0  0  0  0
  161.0000  206.8640  149.7520 C   0  0  0  0  0  2  0  0  0  0  0  0
  161.6270  207.6440  148.6110 C   0  0  0  0  0  2  0  0  0  0  0  0
  162.0880  206.6960  147.5280 C   0  0  0  0  0  2  0  0  0  0  0  0
  160.6330  206.0510  146.6520 S   0  0  0  0  0  0  0  0  0  0  0  0
  162.9970  204.7100  146.0020 S   0  0  0  0  0  0  0  0  0  0  0  0
  161.5970  204.8610  145.7220 C   0  0  0  0  0  0  0  0  0  0  0  0
  160.8830  203.8450  144.8840 C   0  0  0  0  0  2  0  0  0  0  0  0
  159.8220  201.5880  144.8820 C   0  0  0  0  0  1  0  0  0  0  0  0
  160.8420  202.4850  145.5590 C   0  0  0  0  0  2  0  0  0  0  0  0
  162.1380  206.4610  153.3140 O   0  0  0  0  0  0  0  0  0  0  0  0
  161.3240  207.2280  154.0580 O   0  0  0  0  0  0  0  0  0  0  0  0
  160.5390  206.6530  155.0310 N   0  0  0  0  0  0  0  0  0  0  0  0
  160.0780  207.3380  156.0280 C   0  0  0  0  0  0  0  0  0  0  0  0
  159.3360  206.7110  156.9750 F   0  0  0  0  0  0  0  0  0  0  0  0
  161.7360  209.0060  156.2740 O   0  0  0  0  0  1  0  0  0  0  0  0
  160.3600  208.8010  156.1540 C   0  0  1  0  0  3  0  0  0  0  0  0
  159.8690  209.4870  155.0090 O   0  0  0  0  0  0  0  0  0  0  0  0
  159.9010  210.8800  154.9030 C   0  0  0  0  0  0  0  0  0  0  0  0
  160.8910  211.4560  154.3710 O   0  0  0  0  0  0  0  0  0  0  0  0
  158.8160  211.6200  155.3690 O   0  0  0  0  0  0  0  0  0  0  0  0
  157.5010  211.0860  155.3860 C   0  0  0  0  0  2  0  0  0  0  0  0
  156.8290  211.5450  156.5150 O   0  0  0  0  0  1  0  0  0  0  0  0
  2  1  1  1  0  0  0
  2 25  1  0  0  0  0
  4  3  1  6  0  0  0
  4  2  1  0  0  0  0
  5  4  1  0  0  0  0
  6  5  1  0  0  0  0
  7  8  1  0  0  0  0
  8  6  1  0  0  0  0
  9  8  1  0  0  0  0
 10  8  1  0  0  0  0
 11 16  1  6  0  0  0
 11 13  1  0  0  0  0
 11  2  1  0  0  0  0
 12 14  1  0  0  0  0
 12 15  2  0  0  0  0
 13 12  1  0  0  0  0
 17 16  1  0  0  0  0
 18 17  1  0  0  0  0
 19 18  1  0  0  0  0
 21 20  2  0  0  0  0
 21 19  1  0  0  0  0
 22 24  1  0  0  0  0
 22 21  1  0  0  0  0
 23 24  1  0  0  0  0
 25 26  1  0  0  0  0
 26 27  1  0  0  0  0
 27 28  2  0  0  0  0
 28 31  1  0  0  0  0
 28 29  1  0  0  0  0
 31 30  1  6  0  0  0
 32 31  1  0  0  0  0
 33 32  1  0  0  0  0
 33 35  1  0  0  0  0
 34 33  2  0  0  0  0
 35 36  1  0  0  0  0
 36 37  1  0  0  0  0
M  END
>  <MODEL>
8

>  <REMARK>
 VINA RESULT:      -5.3      4.072      8.403
  Name = 
  21 active torsions:
  status: ('A' for Active; 'I' for Inactive)
    1  A    between atoms: N_1  and  O_36
    2  A    between atoms: C_5  and  C_17
    3  A    between atoms: C_6  and  S_8
    4  A    between atoms: C_6  and  C_31
    5  A    between atoms: C_7  and  O_33
    6  A    between atoms: S_8  and  C_19
    7  A    between atoms: C_10  and  C_14
    8  A    between atoms: C_10  and  C_20
    9  A    between atoms: C_10  and  N_22
   10  A    between atoms: C_11  and  O_26
   11  A    between atoms: C_11  and  O_33
   12  A    between atoms: C_14  and  C_31
   13  A    between atoms: C_16  and  C_21
   14  A    between atoms: C_16  and  C_30
   15  A    between atoms: C_17  and  O_26
   16  A    between atoms: C_18  and  C_19
   17  A    between atoms: C_18  and  C_35
   18  A    between atoms: C_20  and  C_24
   19  A    between atoms: C_20  and  O_29
   20  A    between atoms: C_24  and  C_30
   21  A    between atoms: O_29  and  O_36
                            x       y       z     vdW  Elec       q    Type
                         _______ _______ _______ _____ _____    ______ ____

>  <TORSDO>
F 21

$$$$
=
 OpenBabel11062409243D

 37 36  0  0  1  0  0  0  0  0999 V2000
  160.3800  208.6450  151.9870 O   0  0  0  0  0  1  0  0  0  0  0  0
  161.7470  208.6980  151.6660 C   0  0  1  0  0  0  0  0  0  0  0  0
  163.2640  207.0160  150.7890 O   0  0  0  0  0  1  0  0  0  0  0  0
  162.3370  207.2810  151.8020 C   0  0  2  0  0  3  0  0  0  0  0  0
  161.2870  206.1700  151.8770 C   0  0  0  0  0  2  0  0  0  0  0  0
  161.6490  204.9680  151.0100 C   0  0  0  0  0  2  0  0  0  0  0  0
  160.0060  203.2720  150.7170 F   0  0  0  0  0  0  0  0  0  0  0  0
  161.0240  203.6910  151.5530 C   0  0  0  0  0  0  0  0  0  0  0  0
  160.5050  203.9420  152.8070 F   0  0  0  0  0  0  0  0  0  0  0  0
  161.9820  202.6980  151.6520 F   0  0  0  0  0  0  0  0  0  0  0  0
  161.9130  209.1540  150.2000 C   0  0  2  0  0  3  0  0  0  0  0  0
  161.9740  211.4620  149.0340 C   0  0  0  0  0  0  0  0  0  0  0  0
  161.4460  210.5280  149.9840 N   0  0  0  0  0  2  0  0  0  0  0  0
  163.1280  211.1510  148.2590 N   0  0  0  0  0  1  0  0  0  0  0  0
  161.4210  212.5820  148.8970 O   0  0  0  0  0  0  0  0  0  0  0  0
  161.3480  208.1740  149.1700 C   0  0  0  0  0  2  0  0  0  0  0  0
  162.3340  207.9930  148.0310 C   0  0  0  0  0  2  0  0  0  0  0  0
  162.3390  206.5520  147.5750 C   0  0  0  0  0  2  0  0  0  0  0  0
  160.6410  206.0640  147.1490 S   0  0  0  0  0  0  0  0  0  0  0  0
  161.5530  205.4580  144.5780 S   0  0  0  0  0  0  0  0  0  0  0  0
  161.1810  204.9390  145.8640 C   0  0  0  0  0  0  0  0  0  0  0  0
  161.5180  203.5260  146.2310 C   0  0  0  0  0  2  0  0  0  0  0  0
  161.0870  201.8330  148.0110 C   0  0  0  0  0  1  0  0  0  0  0  0
  161.4080  203.2890  147.7280 C   0  0  0  0  0  2  0  0  0  0  0  0
  162.4470  209.5600  152.5380 O   0  0  0  0  0  0  0  0  0  0  0  0
  161.6500  209.8230  153.5880 O   0  0  0  0  0  0  0  0  0  0  0  0
  160.8510  210.9430  153.5780 N   0  0  0  0  0  0  0  0  0  0  0  0
  160.5680  211.5870  154.6650 C   0  0  0  0  0  0  0  0  0  0  0  0
  159.7470  212.6660  154.6000 F   0  0  0  0  0  0  0  0  0  0  0  0
  161.0650  212.2160  156.8900 O   0  0  0  0  0  1  0  0  0  0  0  0
  161.1200  211.1530  155.9840 C   0  0  1  0  0  3  0  0  0  0  0  0
  160.3660  210.0550  156.4850 O   0  0  0  0  0  0  0  0  0  0  0  0
  160.9720  208.8940  156.9700 C   0  0  0  0  0  0  0  0  0  0  0  0
  162.2200  208.8600  157.1660 O   0  0  0  0  0  0  0  0  0  0  0  0
  160.1790  207.7860  157.2600 O   0  0  0  0  0  0  0  0  0  0  0  0
  159.6640  206.9490  156.2350 C   0  0  0  0  0  2  0  0  0  0  0  0
  160.4620  207.0610  155.1000 O   0  0  0  0  0  1  0  0  0  0  0  0
  2  4  1  0  0  0  0
  2  1  1  1  0  0  0
  2 25  1  0  0  0  0
  4  3  1  6  0  0  0
  4  5  1  0  0  0  0
  6  8  1  0  0  0  0
  6  5  1  0  0  0  0
  7  8  1  0  0  0  0
  8 10  1  0  0  0  0
  8  9  1  0  0  0  0
 11 16  1  6  0  0  0
 11  2  1  0  0  0  0
 12 13  1  0  0  0  0
 13 11  1  0  0  0  0
 14 12  1  0  0  0  0
 15 12  2  0  0  0  0
 17 16  1  0  0  0  0
 18 17  1  0  0  0  0
 19 18  1  0  0  0  0
 20 21  2  0  0  0  0
 21 22  1  0  0  0  0
 21 19  1  0  0  0  0
 22 24  1  0  0  0  0
 24 23  1  0  0  0  0
 25 26  1  0  0  0  0
 27 26  1  0  0  0  0
 27 28  2  0  0  0  0
 28 31  1  0  0  0  0
 29 28  1  0  0  0  0
 31 32  1  0  0  0  0
 31 30  1  1  0  0  0
 32 33  1  0  0  0  0
 33 34  2  0  0  0  0
 33 35  1  0  0  0  0
 36 35  1  0  0  0  0
 37 36  1  0  0  0  0
M  END
>  <MODEL>
9

>  <REMARK>
 VINA RESULT:      -5.3      3.945      7.886
  Name = 
  21 active torsions:
  status: ('A' for Active; 'I' for Inactive)
    1  A    between atoms: N_1  and  O_36
    2  A    between atoms: C_5  and  C_17
    3  A    between atoms: C_6  and  S_8
    4  A    between atoms: C_6  and  C_31
    5  A    between atoms: C_7  and  O_33
    6  A    between atoms: S_8  and  C_19
    7  A    between atoms: C_10  and  C_14
    8  A    between atoms: C_10  and  C_20
    9  A    between atoms: C_10  and  N_22
   10  A    between atoms: C_11  and  O_26
   11  A    between atoms: C_11  and  O_33
   12  A    between atoms: C_14  and  C_31
   13  A    between atoms: C_16  and  C_21
   14  A    between atoms: C_16  and  C_30
   15  A    between atoms: C_17  and  O_26
   16  A    between atoms: C_18  and  C_19
   17  A    between atoms: C_18  and  C_35
   18  A    between atoms: C_20  and  C_24
   19  A    between atoms: C_20  and  O_29
   20  A    between atoms: C_24  and  C_30
   21  A    between atoms: O_29  and  O_36
                            x       y       z     vdW  Elec       q    Type
                         _______ _______ _______ _____ _____    ______ ____

>  <TORSDO>
F 21

$$$$
