=
 OpenBabel11062410373D

 32 37  0  0  1  0  0  0  0  0999 V2000
  162.8440  205.9300  151.4900 C   0  0  0  0  0  2  0  0  0  0  0  0
  160.3950  210.1320  153.0140 C   0  0  2  0  0  3  0  0  0  0  0  0
  160.8990  213.4160  149.2390 C   0  0  0  0  0  2  0  0  0  0  0  0
  160.7360  214.4240  150.3810 C   0  0  0  0  0  2  0  0  0  0  0  0
  159.2650  211.5370  154.8280 C   0  0  0  0  0  0  0  0  0  0  0  0
  159.8820  211.0210  155.9790 C   0  0  0  0  0  0  0  0  0  0  0  0
  161.2440  207.7970  152.9180 C   0  0  2  0  0  3  0  0  0  0  0  0
  161.7100  209.4910  151.0900 O   0  0  0  0  0  0  0  0  0  0  0  0
  158.2740  213.3330  156.0960 C   0  0  0  0  0  0  0  0  0  0  0  0
  162.6440  207.3190  150.9400 C   0  0  0  0  0  3  0  0  0  0  0  0
  161.2440  212.0070  149.7530 C   0  0  0  0  0  2  0  0  0  0  0  0
  160.6010  210.2830  151.5110 C   0  0  2  0  0  3  0  0  0  0  0  0
  160.7650  211.7600  151.1910 C   0  0  2  0  0  3  0  0  0  0  0  0
  158.5930  211.9550  152.6260 C   0  0  2  0  0  3  0  0  0  0  0  0
  158.8700  212.8280  157.2610 C   0  0  0  0  0  3  0  0  0  0  0  0
  161.8870  208.1990  151.5980 C   0  0  0  0  0  0  0  0  0  0  0  0
  159.6730  211.6770  157.2010 C   0  0  0  0  0  3  0  0  0  0  0  0
  160.8660  206.3420  152.9070 C   0  0  0  0  0  3  0  0  0  0  0  0
  161.6170  205.4570  152.2420 C   0  0  0  0  0  0  0  0  0  0  0  0
  159.6090  214.0150  151.3430 C   0  0  0  0  0  2  0  0  0  0  0  0
  159.4340  212.4890  151.4340 C   0  0  1  0  0  3  0  0  0  0  0  0
  157.9980  213.0500  153.5420 C   0  0  0  0  0  2  0  0  0  0  0  0
  160.0420  208.6740  153.2770 C   0  0  0  0  0  2  0  0  0  0  0  0
  160.6860  209.8890  155.9320 O   0  0  0  0  0  1  0  0  0  0  0  0
  157.5110  214.4530  156.1460 F   0  0  0  0  0  0  0  0  0  0  0  0
  159.3570  211.0470  153.4970 N   0  0  0  0  0  0  0  0  0  0  0  0
  158.4900  212.6650  154.8900 C   0  0  0  0  0  0  0  0  0  0  0  0
  161.2560  204.1070  152.2700 O   0  0  0  0  0  0  0  0  0  0  0  0
  161.6500  203.1820  151.2630 C   0  0  0  0  0  2  0  0  0  0  0  0
  160.6680  203.2070  150.1040 C   0  0  2  0  0  3  0  0  0  0  0  0
  160.2400  201.9110  149.8190 O   0  0  0  0  0  1  0  0  0  0  0  0
  161.3450  203.7920  148.8840 C   0  0  0  0  0  1  0  0  0  0  0  0
  1 19  1  0  0  0  0
  2 23  1  6  0  0  0
  2 26  1  0  0  0  0
  3 11  1  0  0  0  0
  3  4  1  0  0  0  0
  4 20  1  0  0  0  0
  5 27  2  0  0  0  0
  5  6  1  0  0  0  0
  6 17  2  0  0  0  0
  7 18  1  6  0  0  0
  7 23  1  0  0  0  0
  8 16  1  0  0  0  0
  9 25  1  0  0  0  0
  9 15  2  0  0  0  0
 10  1  1  0  0  0  0
 10 16  2  0  0  0  0
 12  8  1  1  0  0  0
 12  2  1  0  0  0  0
 13 11  1  6  0  0  0
 13 21  1  0  0  0  0
 13 12  1  0  0  0  0
 14 26  1  0  0  0  0
 14 22  1  1  0  0  0
 16  7  1  0  0  0  0
 17 15  1  0  0  0  0
 19 28  1  0  0  0  0
 19 18  2  0  0  0  0
 21 20  1  1  0  0  0
 21 14  1  0  0  0  0
 22 27  1  0  0  0  0
 24  6  1  0  0  0  0
 26  5  1  0  0  0  0
 27  9  1  0  0  0  0
 29 28  1  0  0  0  0
 30 32  1  6  0  0  0
 30 29  1  0  0  0  0
 31 30  1  0  0  0  0
M  END
>  <MODEL>
1

>  <REMARK>
 VINA RESULT:      -5.7      0.000      0.000
  Name = 
  3 active torsions:
  status: ('A' for Active; 'I' for Inactive)
    1  A    between atoms: C_1  and  C_10
    2  A    between atoms: C_10  and  O_19
    3  A    between atoms: O_19  and  C_24
                            x       y       z     vdW  Elec       q    Type
                         _______ _______ _______ _____ _____    ______ ____

>  <TORSDO>
F 3

$$$$
=
 OpenBabel11062410373D

 32 37  0  0  1  0  0  0  0  0999 V2000
  162.1530  211.8250  147.8880 C   0  0  0  0  0  2  0  0  0  0  0  0
  159.3450  212.6130  152.0680 C   0  0  2  0  0  3  0  0  0  0  0  0
  160.9600  209.2310  155.4210 C   0  0  0  0  0  2  0  0  0  0  0  0
  159.5360  209.4010  155.9560 C   0  0  0  0  0  2  0  0  0  0  0  0
  157.3420  213.6660  153.2590 C   0  0  0  0  0  0  0  0  0  0  0  0
  156.4720  213.8700  152.1750 C   0  0  0  0  0  0  0  0  0  0  0  0
  160.3570  212.8960  149.8150 C   0  0  2  0  0  3  0  0  0  0  0  0
  161.0480  211.0360  151.3930 O   0  0  0  0  0  0  0  0  0  0  0  0
  155.5990  214.2130  154.8340 C   0  0  0  0  0  0  0  0  0  0  0  0
  162.0140  211.1600  149.2330 C   0  0  0  0  0  3  0  0  0  0  0  0
  161.1110  209.7730  153.9880 C   0  0  0  0  0  2  0  0  0  0  0  0
  160.5290  211.7590  152.5070 C   0  0  2  0  0  3  0  0  0  0  0  0
  160.0810  210.8600  153.6480 C   0  0  2  0  0  3  0  0  0  0  0  0
  159.1730  213.1130  154.6060 C   0  0  2  0  0  3  0  0  0  0  0  0
  154.7160  214.4350  153.7670 C   0  0  0  0  0  3  0  0  0  0  0  0
  161.1810  211.6610  150.1480 C   0  0  0  0  0  0  0  0  0  0  0  0
  155.1520  214.2620  152.4420 C   0  0  0  0  0  3  0  0  0  0  0  0
  161.1220  213.8210  148.9090 C   0  0  0  0  0  3  0  0  0  0  0  0
  161.9640  213.3240  147.9970 C   0  0  0  0  0  0  0  0  0  0  0  0
  159.1160  210.8790  155.9960 C   0  0  0  0  0  2  0  0  0  0  0  0
  159.7880  211.7140  154.8910 C   0  0  1  0  0  3  0  0  0  0  0  0
  157.9860  213.4980  155.5180 C   0  0  0  0  0  2  0  0  0  0  0  0
  159.8690  213.6320  151.0650 C   0  0  0  0  0  2  0  0  0  0  0  0
  156.8870  213.6930  150.8620 O   0  0  0  0  0  1  0  0  0  0  0  0
  155.1780  214.3640  156.1140 F   0  0  0  0  0  0  0  0  0  0  0  0
  158.7000  213.2510  153.2190 N   0  0  0  0  0  0  0  0  0  0  0  0
  156.9090  213.8280  154.5490 C   0  0  0  0  0  0  0  0  0  0  0  0
  162.6430  214.2060  147.1500 O   0  0  0  0  0  0  0  0  0  0  0  0
  162.2380  214.4520  145.8080 C   0  0  0  0  0  2  0  0  0  0  0  0
  162.7450  213.3530  144.8900 C   0  0  2  0  0  3  0  0  0  0  0  0
  163.7300  213.8620  144.0440 O   0  0  0  0  0  1  0  0  0  0  0  0
  161.5960  212.8220  144.0600 C   0  0  0  0  0  1  0  0  0  0  0  0
  1 19  1  0  0  0  0
  1 10  1  0  0  0  0
  2 23  1  6  0  0  0
  2 12  1  0  0  0  0
  2 26  1  0  0  0  0
  3  4  1  0  0  0  0
  4 20  1  0  0  0  0
  5 27  1  0  0  0  0
  6 17  1  0  0  0  0
  6  5  2  0  0  0  0
  7 18  1  6  0  0  0
  7 16  1  0  0  0  0
  7 23  1  0  0  0  0
  9 25  1  0  0  0  0
 10 16  2  0  0  0  0
 11  3  1  0  0  0  0
 12  8  1  6  0  0  0
 12 13  1  0  0  0  0
 13 11  1  1  0  0  0
 13 21  1  0  0  0  0
 14 21  1  0  0  0  0
 14 22  1  1  0  0  0
 15  9  1  0  0  0  0
 16  8  1  0  0  0  0
 17 15  2  0  0  0  0
 19 18  2  0  0  0  0
 21 20  1  1  0  0  0
 24  6  1  0  0  0  0
 26  5  1  0  0  0  0
 26 14  1  0  0  0  0
 27  9  2  0  0  0  0
 27 22  1  0  0  0  0
 28 19  1  0  0  0  0
 29 28  1  0  0  0  0
 30 32  1  6  0  0  0
 30 29  1  0  0  0  0
 31 30  1  0  0  0  0
M  END
>  <MODEL>
2

>  <REMARK>
 VINA RESULT:      -5.3      3.743      6.688
  Name = 
  3 active torsions:
  status: ('A' for Active; 'I' for Inactive)
    1  A    between atoms: C_1  and  C_10
    2  A    between atoms: C_10  and  O_19
    3  A    between atoms: O_19  and  C_24
                            x       y       z     vdW  Elec       q    Type
                         _______ _______ _______ _____ _____    ______ ____

>  <TORSDO>
F 3

$$$$
=
 OpenBabel11062410373D

 32 37  0  0  1  0  0  0  0  0999 V2000
  162.4360  212.8480  148.5300 C   0  0  0  0  0  2  0  0  0  0  0  0
  161.5920  207.8580  149.1360 C   0  0  2  0  0  3  0  0  0  0  0  0
  161.4570  207.1190  154.1080 C   0  0  0  0  0  2  0  0  0  0  0  0
  161.9080  205.7160  153.6940 C   0  0  0  0  0  2  0  0  0  0  0  0
  161.4700  205.4760  148.2150 C   0  0  0  0  0  0  0  0  0  0  0  0
  162.3190  205.5830  147.1010 C   0  0  0  0  0  0  0  0  0  0  0  0
  161.8480  210.1010  148.0930 C   0  0  2  0  0  3  0  0  0  0  0  0
  162.0080  209.7380  150.5970 O   0  0  0  0  0  0  0  0  0  0  0  0
  161.3700  203.0770  147.9790 C   0  0  0  0  0  0  0  0  0  0  0  0
  162.3560  211.9040  149.7020 C   0  0  0  0  0  3  0  0  0  0  0  0
  161.6530  208.1480  152.9810 C   0  0  0  0  0  2  0  0  0  0  0  0
  161.3010  208.5050  150.4860 C   0  0  2  0  0  3  0  0  0  0  0  0
  161.6520  207.5130  151.5830 C   0  0  2  0  0  3  0  0  0  0  0  0
  160.1910  205.9140  150.1250 C   0  0  2  0  0  3  0  0  0  0  0  0
  162.2080  203.1620  146.8570 C   0  0  0  0  0  3  0  0  0  0  0  0
  162.0720  210.6150  149.5080 C   0  0  0  0  0  0  0  0  0  0  0  0
  162.6820  204.4110  146.4210 C   0  0  0  0  0  3  0  0  0  0  0  0
  161.1920  211.1510  147.2400 C   0  0  0  0  0  3  0  0  0  0  0  0
  161.4680  212.4450  147.4370 C   0  0  0  0  0  0  0  0  0  0  0  0
  161.1180  205.1990  152.4810 C   0  0  0  0  0  2  0  0  0  0  0  0
  160.6670  206.3330  151.5430 C   0  0  1  0  0  3  0  0  0  0  0  0
  160.1880  204.3900  149.8660 C   0  0  0  0  0  2  0  0  0  0  0  0
  161.0530  208.7930  148.0610 C   0  0  0  0  0  2  0  0  0  0  0  0
  162.8020  206.8100  146.6670 O   0  0  0  0  0  1  0  0  0  0  0  0
  160.9230  201.8730  148.4110 F   0  0  0  0  0  0  0  0  0  0  0  0
  160.9980  206.5210  149.0530 N   0  0  0  0  0  0  0  0  0  0  0  0
  161.0170  204.2540  148.6400 C   0  0  0  0  0  0  0  0  0  0  0  0
  160.8640  213.3990  146.6120 O   0  0  0  0  0  0  0  0  0  0  0  0
  161.6080  214.3490  145.8580 C   0  0  0  0  0  2  0  0  0  0  0  0
  161.7690  213.8800  144.4220 C   0  0  2  0  0  3  0  0  0  0  0  0
  160.8110  212.9090  144.1320 O   0  0  0  0  0  1  0  0  0  0  0  0
  163.1510  213.2930  144.2360 C   0  0  0  0  0  1  0  0  0  0  0  0
  1 10  1  0  0  0  0
  2 23  1  6  0  0  0
  2 12  1  0  0  0  0
  4  3  1  0  0  0  0
  5 27  1  0  0  0  0
  5 26  1  0  0  0  0
  6  5  2  0  0  0  0
  7 18  1  6  0  0  0
  7 16  1  0  0  0  0
  9 25  1  0  0  0  0
  9 27  2  0  0  0  0
 11  3  1  0  0  0  0
 12  8  1  1  0  0  0
 12 13  1  0  0  0  0
 13 11  1  1  0  0  0
 14 22  1  1  0  0  0
 14 21  1  0  0  0  0
 15  9  1  0  0  0  0
 16 10  2  0  0  0  0
 16  8  1  0  0  0  0
 17 15  2  0  0  0  0
 17  6  1  0  0  0  0
 18 19  2  0  0  0  0
 19  1  1  0  0  0  0
 20  4  1  0  0  0  0
 21 13  1  0  0  0  0
 21 20  1  6  0  0  0
 23  7  1  0  0  0  0
 24  6  1  0  0  0  0
 26  2  1  0  0  0  0
 26 14  1  0  0  0  0
 27 22  1  0  0  0  0
 28 19  1  0  0  0  0
 29 28  1  0  0  0  0
 30 32  1  1  0  0  0
 30 29  1  0  0  0  0
 31 30  1  0  0  0  0
M  END
>  <MODEL>
3

>  <REMARK>
 VINA RESULT:      -4.6      4.726      9.194
  Name = 
  3 active torsions:
  status: ('A' for Active; 'I' for Inactive)
    1  A    between atoms: C_1  and  C_10
    2  A    between atoms: C_10  and  O_19
    3  A    between atoms: O_19  and  C_24
                            x       y       z     vdW  Elec       q    Type
                         _______ _______ _______ _____ _____    ______ ____

>  <TORSDO>
F 3

$$$$
=
 OpenBabel11062410373D

 32 37  0  0  1  0  0  0  0  0999 V2000
  162.6940  205.8140  148.0660 C   0  0  0  0  0  2  0  0  0  0  0  0
  161.3100  209.6780  151.0880 C   0  0  2  0  0  3  0  0  0  0  0  0
  161.3530  213.7570  148.1460 C   0  0  0  0  0  2  0  0  0  0  0  0
  161.6160  214.4530  149.4840 C   0  0  0  0  0  2  0  0  0  0  0  0
  160.8650  210.6660  153.4040 C   0  0  0  0  0  0  0  0  0  0  0  0
  161.6610  209.8280  154.2020 C   0  0  0  0  0  0  0  0  0  0  0  0
  161.7690  207.3830  150.2500 C   0  0  2  0  0  3  0  0  0  0  0  0
  162.0180  209.4400  148.7890 O   0  0  0  0  0  0  0  0  0  0  0  0
  160.4760  212.1580  155.2590 C   0  0  0  0  0  0  0  0  0  0  0  0
  162.5670  207.3080  147.9140 C   0  0  0  0  0  3  0  0  0  0  0  0
  161.6070  212.2400  148.2210 C   0  0  0  0  0  2  0  0  0  0  0  0
  161.1680  210.1860  149.6580 C   0  0  2  0  0  3  0  0  0  0  0  0
  161.4590  211.6780  149.6420 C   0  0  2  0  0  3  0  0  0  0  0  0
  159.7480  211.6780  151.6150 C   0  0  2  0  0  3  0  0  0  0  0  0
  161.2570  211.3300  156.0780 C   0  0  0  0  0  3  0  0  0  0  0  0
  162.1250  208.0510  148.9300 C   0  0  0  0  0  0  0  0  0  0  0  0
  161.8490  210.1700  155.5500 C   0  0  0  0  0  3  0  0  0  0  0  0
  161.1960  206.0120  150.0180 C   0  0  0  0  0  3  0  0  0  0  0  0
  161.6290  205.2660  148.9950 C   0  0  0  0  0  0  0  0  0  0  0  0
  160.7090  213.9070  150.5980 C   0  0  0  0  0  2  0  0  0  0  0  0
  160.3440  212.4260  150.3900 C   0  0  1  0  0  3  0  0  0  0  0  0
  159.5550  212.5510  152.8760 C   0  0  0  0  0  2  0  0  0  0  0  0
  160.8270  208.2340  151.1050 C   0  0  0  0  0  2  0  0  0  0  0  0
  162.2600  208.6850  153.6910 O   0  0  0  0  0  1  0  0  0  0  0  0
  159.9150  213.2860  155.7610 F   0  0  0  0  0  0  0  0  0  0  0  0
  160.5620  210.5220  152.0240 N   0  0  0  0  0  0  0  0  0  0  0  0
  160.2970  211.8000  153.9220 C   0  0  0  0  0  0  0  0  0  0  0  0
  161.0970  203.9850  148.8180 O   0  0  0  0  0  0  0  0  0  0  0  0
  160.6830  203.1650  149.9050 C   0  0  0  0  0  2  0  0  0  0  0  0
  160.4140  201.7480  149.4290 C   0  0  2  0  0  3  0  0  0  0  0  0
  161.2050  200.8510  150.1450 O   0  0  0  0  0  1  0  0  0  0  0  0
  160.7420  201.6420  147.9550 C   0  0  0  0  0  1  0  0  0  0  0  0
  1 19  1  0  0  0  0
  2 23  1  6  0  0  0
  2 26  1  0  0  0  0
  3 11  1  0  0  0  0
  3  4  1  0  0  0  0
  4 20  1  0  0  0  0
  5 27  2  0  0  0  0
  5  6  1  0  0  0  0
  6 17  2  0  0  0  0
  7 18  1  6  0  0  0
  7 23  1  0  0  0  0
  8 16  1  0  0  0  0
  9 25  1  0  0  0  0
  9 15  2  0  0  0  0
 10  1  1  0  0  0  0
 10 16  2  0  0  0  0
 12  8  1  6  0  0  0
 12  2  1  0  0  0  0
 13 11  1  6  0  0  0
 13 12  1  0  0  0  0
 13 21  1  0  0  0  0
 14 26  1  0  0  0  0
 14 22  1  1  0  0  0
 16  7  1  0  0  0  0
 17 15  1  0  0  0  0
 19 18  2  0  0  0  0
 21 20  1  1  0  0  0
 21 14  1  0  0  0  0
 22 27  1  0  0  0  0
 24  6  1  0  0  0  0
 26  5  1  0  0  0  0
 27  9  1  0  0  0  0
 28 19  1  0  0  0  0
 28 29  1  0  0  0  0
 30 32  1  6  0  0  0
 30 29  1  0  0  0  0
 30 31  1  0  0  0  0
M  END
>  <MODEL>
4

>  <REMARK>
 VINA RESULT:      -4.4      1.857      2.382
  Name = 
  3 active torsions:
  status: ('A' for Active; 'I' for Inactive)
    1  A    between atoms: C_1  and  C_10
    2  A    between atoms: C_10  and  O_19
    3  A    between atoms: O_19  and  C_24
                            x       y       z     vdW  Elec       q    Type
                         _______ _______ _______ _____ _____    ______ ____

>  <TORSDO>
F 3

$$$$
=
 OpenBabel11062410373D

 32 37  0  0  1  0  0  0  0  0999 V2000
  162.7010  206.4190  148.3300 C   0  0  0  0  0  2  0  0  0  0  0  0
  160.8680  209.4640  151.9840 C   0  0  2  0  0  3  0  0  0  0  0  0
  160.3910  213.9870  149.8390 C   0  0  0  0  0  2  0  0  0  0  0  0
  160.5740  214.4530  151.2860 C   0  0  0  0  0  2  0  0  0  0  0  0
  160.3160  209.9470  154.4330 C   0  0  0  0  0  0  0  0  0  0  0  0
  161.2140  209.0810  155.0780 C   0  0  0  0  0  0  0  0  0  0  0  0
  161.6010  207.4350  150.7480 C   0  0  2  0  0  3  0  0  0  0  0  0
  161.5870  209.7400  149.6920 O   0  0  0  0  0  0  0  0  0  0  0  0
  159.7550  211.0140  156.5230 C   0  0  0  0  0  0  0  0  0  0  0  0
  162.3900  207.8890  148.4520 C   0  0  0  0  0  3  0  0  0  0  0  0
  160.8310  212.5260  149.6400 C   0  0  0  0  0  2  0  0  0  0  0  0
  160.6560  210.2050  150.6680 C   0  0  2  0  0  3  0  0  0  0  0  0
  160.7610  211.6980  150.9310 C   0  0  2  0  0  3  0  0  0  0  0  0
  159.0730  211.1270  152.8400 C   0  0  2  0  0  3  0  0  0  0  0  0
  160.6370  210.1510  157.1900 C   0  0  0  0  0  3  0  0  0  0  0  0
  161.8650  208.3730  149.5790 C   0  0  0  0  0  0  0  0  0  0  0  0
  161.3650  209.1890  156.4690 C   0  0  0  0  0  3  0  0  0  0  0  0
  161.2010  206.0710  150.2580 C   0  0  0  0  0  3  0  0  0  0  0  0
  161.7170  205.5840  149.1250 C   0  0  0  0  0  0  0  0  0  0  0  0
  159.7460  213.6050  152.2650 C   0  0  0  0  0  2  0  0  0  0  0  0
  159.5660  212.1550  151.7840 C   0  0  1  0  0  3  0  0  0  0  0  0
  158.7800  211.7220  154.2360 C   0  0  0  0  0  2  0  0  0  0  0  0
  160.5670  207.9930  151.7280 C   0  0  0  0  0  2  0  0  0  0  0  0
  161.9460  208.1330  154.3770 O   0  0  0  0  0  1  0  0  0  0  0  0
  159.0630  211.9540  157.2120 F   0  0  0  0  0  0  0  0  0  0  0  0
  160.0260  210.0230  153.0450 N   0  0  0  0  0  0  0  0  0  0  0  0
  159.6150  210.8890  155.1400 C   0  0  0  0  0  0  0  0  0  0  0  0
  161.3460  204.3030  148.7070 O   0  0  0  0  0  0  0  0  0  0  0  0
  160.9280  203.2870  149.6120 C   0  0  0  0  0  2  0  0  0  0  0  0
  160.5860  202.0120  148.8600 C   0  0  2  0  0  3  0  0  0  0  0  0
  161.2670  200.9340  149.4230 O   0  0  0  0  0  1  0  0  0  0  0  0
  160.9920  202.1600  147.4100 C   0  0  0  0  0  1  0  0  0  0  0  0
  1 10  1  0  0  0  0
  1 19  1  0  0  0  0
  2 23  1  6  0  0  0
  2 26  1  0  0  0  0
  3  4  1  0  0  0  0
  4 20  1  0  0  0  0
  5  6  2  0  0  0  0
  5 27  1  0  0  0  0
  6 17  1  0  0  0  0
  7 18  1  6  0  0  0
  7 23  1  0  0  0  0
  9 15  1  0  0  0  0
  9 25  1  0  0  0  0
 10 16  2  0  0  0  0
 11  3  1  0  0  0  0
 12  8  1  6  0  0  0
 12 13  1  0  0  0  0
 12  2  1  0  0  0  0
 13 11  1  6  0  0  0
 13 21  1  0  0  0  0
 14 26  1  0  0  0  0
 14 22  1  1  0  0  0
 16  8  1  0  0  0  0
 16  7  1  0  0  0  0
 17 15  2  0  0  0  0
 19 18  2  0  0  0  0
 21 20  1  1  0  0  0
 21 14  1  0  0  0  0
 22 27  1  0  0  0  0
 24  6  1  0  0  0  0
 26  5  1  0  0  0  0
 27  9  2  0  0  0  0
 28 19  1  0  0  0  0
 28 29  1  0  0  0  0
 30 32  1  6  0  0  0
 30 31  1  0  0  0  0
 30 29  1  0  0  0  0
M  END
>  <MODEL>
5

>  <REMARK>
 VINA RESULT:      -4.0      1.680      2.127
  Name = 
  3 active torsions:
  status: ('A' for Active; 'I' for Inactive)
    1  A    between atoms: C_1  and  C_10
    2  A    between atoms: C_10  and  O_19
    3  A    between atoms: O_19  and  C_24
                            x       y       z     vdW  Elec       q    Type
                         _______ _______ _______ _____ _____    ______ ____

>  <TORSDO>
F 3

$$$$
=
 OpenBabel11062410373D

 32 37  0  0  1  0  0  0  0  0999 V2000
  161.5800  209.0940  153.8900 C   0  0  0  0  0  2  0  0  0  0  0  0
  161.3050  205.8540  149.9650 C   0  0  2  0  0  3  0  0  0  0  0  0
  161.1010  201.2720  152.0260 C   0  0  0  0  0  2  0  0  0  0  0  0
  161.7260  200.8770  150.6850 C   0  0  0  0  0  2  0  0  0  0  0  0
  161.4910  205.3350  147.4680 C   0  0  0  0  0  0  0  0  0  0  0  0
  162.3560  206.3600  147.0520 C   0  0  0  0  0  0  0  0  0  0  0  0
  161.3300  207.9540  151.2980 C   0  0  2  0  0  3  0  0  0  0  0  0
  161.4520  205.6590  152.3700 O   0  0  0  0  0  0  0  0  0  0  0  0
  161.6790  204.2320  145.3310 C   0  0  0  0  0  0  0  0  0  0  0  0
  161.5740  207.5960  153.7290 C   0  0  0  0  0  3  0  0  0  0  0  0
  161.2110  202.7840  152.2950 C   0  0  0  0  0  2  0  0  0  0  0  0
  160.8980  205.0590  151.2010 C   0  0  2  0  0  3  0  0  0  0  0  0
  161.3280  203.6140  151.0090 C   0  0  2  0  0  3  0  0  0  0  0  0
  160.1100  203.9200  148.7200 C   0  0  2  0  0  3  0  0  0  0  0  0
  162.5360  205.2510  144.8900 C   0  0  0  0  0  3  0  0  0  0  0  0
  161.4480  207.0510  152.5170 C   0  0  0  0  0  0  0  0  0  0  0  0
  162.8740  206.3110  145.7490 C   0  0  0  0  0  3  0  0  0  0  0  0
  160.5840  209.2140  151.6350 C   0  0  0  0  0  3  0  0  0  0  0  0
  160.7000  209.7600  152.8510 C   0  0  0  0  0  0  0  0  0  0  0  0
  161.0400  201.5880  149.5070 C   0  0  0  0  0  2  0  0  0  0  0  0
  160.4900  202.9730  149.8910 C   0  0  1  0  0  3  0  0  0  0  0  0
  160.2930  203.3130  147.3100 C   0  0  0  0  0  2  0  0  0  0  0  0
  160.6940  207.2430  150.1000 C   0  0  0  0  0  2  0  0  0  0  0  0
  162.7070  207.4070  147.8940 O   0  0  0  0  0  1  0  0  0  0  0  0
  161.3620  203.2000  144.5110 F   0  0  0  0  0  0  0  0  0  0  0  0
  160.8740  205.1790  148.7380 N   0  0  0  0  0  0  0  0  0  0  0  0
  161.1710  204.3000  146.6290 C   0  0  0  0  0  0  0  0  0  0  0  0
  160.0150  210.9460  153.1290 O   0  0  0  0  0  0  0  0  0  0  0  0
  160.1560  211.6470  154.3600 C   0  0  0  0  0  2  0  0  0  0  0  0
  158.8940  211.5120  155.1960 C   0  0  2  0  0  3  0  0  0  0  0  0
  158.9550  210.3440  155.9560 O   0  0  0  0  0  1  0  0  0  0  0  0
  157.6890  211.4540  154.2820 C   0  0  0  0  0  1  0  0  0  0  0  0
  2 23  1  1  0  0  0
  2 12  1  0  0  0  0
  3 11  1  0  0  0  0
  4  3  1  0  0  0  0
  5 26  1  0  0  0  0
  6  5  1  0  0  0  0
  6 24  1  0  0  0  0
  7 23  1  6  0  0  0
  7 18  1  0  0  0  0
  7 16  1  0  0  0  0
  8 16  1  0  0  0  0
  9 27  1  0  0  0  0
 10  1  1  0  0  0  0
 12  8  1  1  0  0  0
 13 12  1  0  0  0  0
 13 11  1  1  0  0  0
 14 22  1  6  0  0  0
 14 26  1  0  0  0  0
 14 21  1  0  0  0  0
 15  9  2  0  0  0  0
 15 17  1  0  0  0  0
 16 10  2  0  0  0  0
 17  6  2  0  0  0  0
 18 19  2  0  0  0  0
 19 28  1  0  0  0  0
 19  1  1  0  0  0  0
 20  4  1  0  0  0  0
 21 20  1  6  0  0  0
 21 13  1  0  0  0  0
 25  9  1  0  0  0  0
 26  2  1  0  0  0  0
 27 22  1  0  0  0  0
 27  5  2  0  0  0  0
 28 29  1  0  0  0  0
 29 30  1  0  0  0  0
 30 32  1  6  0  0  0
 30 31  1  0  0  0  0
M  END
>  <MODEL>
6

>  <REMARK>
 VINA RESULT:      -3.1      3.974      9.564
  Name = 
  3 active torsions:
  status: ('A' for Active; 'I' for Inactive)
    1  A    between atoms: C_1  and  C_10
    2  A    between atoms: C_10  and  O_19
    3  A    between atoms: O_19  and  C_24
                            x       y       z     vdW  Elec       q    Type
                         _______ _______ _______ _____ _____    ______ ____

>  <TORSDO>
F 3

$$$$
=
 OpenBabel11062410373D

 32 37  0  0  1  0  0  0  0  0999 V2000
  162.5030  211.6250  150.1520 C   0  0  0  0  0  2  0  0  0  0  0  0
  161.6430  206.7480  148.9460 C   0  0  2  0  0  3  0  0  0  0  0  0
  161.0880  204.3620  153.3380 C   0  0  0  0  0  2  0  0  0  0  0  0
  161.5830  203.1740  152.5080 C   0  0  0  0  0  2  0  0  0  0  0  0
  161.6170  204.8250  147.2600 C   0  0  0  0  0  0  0  0  0  0  0  0
  162.5570  205.2860  146.3250 C   0  0  0  0  0  0  0  0  0  0  0  0
  161.9720  209.2050  148.7560 C   0  0  2  0  0  3  0  0  0  0  0  0
  161.9200  208.0080  150.9910 O   0  0  0  0  0  0  0  0  0  0  0  0
  161.5540  202.6530  146.2120 C   0  0  0  0  0  0  0  0  0  0  0  0
  162.3290  210.3400  150.9210 C   0  0  0  0  0  3  0  0  0  0  0  0
  161.3730  205.7090  152.6500 C   0  0  0  0  0  2  0  0  0  0  0  0
  161.2340  206.9020  150.4060 C   0  0  2  0  0  3  0  0  0  0  0  0
  161.4960  205.5880  151.1240 C   0  0  2  0  0  3  0  0  0  0  0  0
  160.1760  204.6160  149.0920 C   0  0  2  0  0  3  0  0  0  0  0  0
  162.4830  203.0960  145.2600 C   0  0  0  0  0  3  0  0  0  0  0  0
  162.0710  209.2010  150.2750 C   0  0  0  0  0  0  0  0  0  0  0  0
  162.9850  204.4080  145.3170 C   0  0  0  0  0  3  0  0  0  0  0  0
  161.3860  210.4980  148.2620 C   0  0  0  0  0  3  0  0  0  0  0  0
  161.6340  211.6410  148.9110 C   0  0  0  0  0  0  0  0  0  0  0  0
  160.9030  203.1200  151.1310 C   0  0  0  0  0  2  0  0  0  0  0  0
  160.5260  204.5150  150.6020 C   0  0  1  0  0  3  0  0  0  0  0  0
  160.2050  203.2720  148.3290 C   0  0  0  0  0  2  0  0  0  0  0  0
  161.1920  208.0050  148.2140 C   0  0  0  0  0  2  0  0  0  0  0  0
  163.0680  206.5760  146.3760 O   0  0  0  0  0  1  0  0  0  0  0  0
  161.0790  201.3840  146.1690 F   0  0  0  0  0  0  0  0  0  0  0  0
  161.0680  205.5330  148.3630 N   0  0  0  0  0  0  0  0  0  0  0  0
  161.1380  203.5430  147.2030 C   0  0  0  0  0  0  0  0  0  0  0  0
  161.0970  212.8320  148.4140 O   0  0  0  0  0  0  0  0  0  0  0  0
  161.3920  213.3280  147.1130 C   0  0  0  0  0  2  0  0  0  0  0  0
  160.1110  213.5680  146.3320 C   0  0  2  0  0  3  0  0  0  0  0  0
  159.0130  213.4860  147.1880 O   0  0  0  0  0  1  0  0  0  0  0  0
  159.9810  212.5210  145.2470 C   0  0  0  0  0  1  0  0  0  0  0  0
  1 10  1  0  0  0  0
  2 23  1  6  0  0  0
  2 12  1  0  0  0  0
  4  3  1  0  0  0  0
  5 26  1  0  0  0  0
  6 24  1  0  0  0  0
  6  5  2  0  0  0  0
  7 23  1  1  0  0  0
  7 16  1  0  0  0  0
  9 27  2  0  0  0  0
 11  3  1  0  0  0  0
 12  8  1  1  0  0  0
 12 13  1  0  0  0  0
 13 11  1  1  0  0  0
 14 22  1  6  0  0  0
 14 21  1  0  0  0  0
 15 17  2  0  0  0  0
 15  9  1  0  0  0  0
 16 10  2  0  0  0  0
 16  8  1  0  0  0  0
 17  6  1  0  0  0  0
 18  7  1  0  0  0  0
 18 19  2  0  0  0  0
 19  1  1  0  0  0  0
 20  4  1  0  0  0  0
 21 13  1  0  0  0  0
 21 20  1  6  0  0  0
 25  9  1  0  0  0  0
 26  2  1  0  0  0  0
 26 14  1  0  0  0  0
 27  5  1  0  0  0  0
 27 22  1  0  0  0  0
 28 19  1  0  0  0  0
 29 28  1  0  0  0  0
 30 32  1  6  0  0  0
 30 29  1  0  0  0  0
 30 31  1  0  0  0  0
M  END
>  <MODEL>
7

>  <REMARK>
 VINA RESULT:      -2.9      5.075      9.705
  Name = 
  3 active torsions:
  status: ('A' for Active; 'I' for Inactive)
    1  A    between atoms: C_1  and  C_10
    2  A    between atoms: C_10  and  O_19
    3  A    between atoms: O_19  and  C_24
                            x       y       z     vdW  Elec       q    Type
                         _______ _______ _______ _____ _____    ______ ____

>  <TORSDO>
F 3

$$$$
=
 OpenBabel11062410373D

 32 37  0  0  1  0  0  0  0  0999 V2000
  162.3300  203.6690  147.2150 C   0  0  0  0  0  2  0  0  0  0  0  0
  161.4610  207.2090  150.7780 C   0  0  2  0  0  3  0  0  0  0  0  0
  162.2270  211.6220  148.4910 C   0  0  0  0  0  2  0  0  0  0  0  0
  162.5510  212.0610  149.9220 C   0  0  0  0  0  2  0  0  0  0  0  0
  161.0980  207.8980  153.2130 C   0  0  0  0  0  0  0  0  0  0  0  0
  161.7290  206.8370  153.8810 C   0  0  0  0  0  0  0  0  0  0  0  0
  161.5880  205.0200  149.6040 C   0  0  2  0  0  3  0  0  0  0  0  0
  162.1980  207.2070  148.4750 O   0  0  0  0  0  0  0  0  0  0  0  0
  160.8830  209.1400  155.2700 C   0  0  0  0  0  0  0  0  0  0  0  0
  162.4400  205.1700  147.2910 C   0  0  0  0  0  3  0  0  0  0  0  0
  162.2420  210.0900  148.3370 C   0  0  0  0  0  2  0  0  0  0  0  0
  161.4450  207.9400  149.4400 C   0  0  2  0  0  3  0  0  0  0  0  0
  161.9620  209.3530  149.6550 C   0  0  2  0  0  3  0  0  0  0  0  0
  160.2090  209.3280  151.5890 C   0  0  2  0  0  3  0  0  0  0  0  0
  161.5000  208.0870  155.9600 C   0  0  0  0  0  3  0  0  0  0  0  0
  162.0850  205.8140  148.4050 C   0  0  0  0  0  0  0  0  0  0  0  0
  161.9230  206.9400  155.2670 C   0  0  0  0  0  3  0  0  0  0  0  0
  160.8180  203.8070  149.1610 C   0  0  0  0  0  3  0  0  0  0  0  0
  161.1640  203.1630  148.0410 C   0  0  0  0  0  0  0  0  0  0  0  0
  161.5340  211.5050  150.9320 C   0  0  0  0  0  2  0  0  0  0  0  0
  160.9520  210.1480  150.4980 C   0  0  1  0  0  3  0  0  0  0  0  0
  160.1110  210.0230  152.9660 C   0  0  0  0  0  2  0  0  0  0  0  0
  160.7610  205.8720  150.5700 C   0  0  0  0  0  2  0  0  0  0  0  0
  162.1610  205.7020  153.2070 O   0  0  0  0  0  1  0  0  0  0  0  0
  160.4870  210.2550  155.9320 F   0  0  0  0  0  0  0  0  0  0  0  0
  160.8210  208.0110  151.8240 N   0  0  0  0  0  0  0  0  0  0  0  0
  160.6950  209.0180  153.8930 C   0  0  0  0  0  0  0  0  0  0  0  0
  160.4480  202.0230  147.6660 O   0  0  0  0  0  0  0  0  0  0  0  0
  160.8370  201.1890  146.5810 C   0  0  0  0  0  2  0  0  0  0  0  0
  159.8270  201.2830  145.4490 C   0  0  2  0  0  3  0  0  0  0  0  0
  160.0780  200.2840  144.5090 O   0  0  0  0  0  1  0  0  0  0  0  0
  159.9420  202.6370  144.7840 C   0  0  0  0  0  1  0  0  0  0  0  0
  1 10  1  0  0  0  0
  1 19  1  0  0  0  0
  2 23  1  6  0  0  0
  2 26  1  0  0  0  0
  3  4  1  0  0  0  0
  4 20  1  0  0  0  0
  5  6  2  0  0  0  0
  5 27  1  0  0  0  0
  6 17  1  0  0  0  0
  7 18  1  6  0  0  0
  7 23  1  0  0  0  0
  9 25  1  0  0  0  0
  9 15  1  0  0  0  0
 10 16  2  0  0  0  0
 11  3  1  0  0  0  0
 12  8  1  6  0  0  0
 12 13  1  0  0  0  0
 12  2  1  0  0  0  0
 13 11  1  6  0  0  0
 13 21  1  0  0  0  0
 14 26  1  0  0  0  0
 14 22  1  1  0  0  0
 16  8  1  0  0  0  0
 16  7  1  0  0  0  0
 17 15  2  0  0  0  0
 19 18  2  0  0  0  0
 21 20  1  1  0  0  0
 21 14  1  0  0  0  0
 22 27  1  0  0  0  0
 24  6  1  0  0  0  0
 26  5  1  0  0  0  0
 27  9  2  0  0  0  0
 28 19  1  0  0  0  0
 29 28  1  0  0  0  0
 30 32  1  6  0  0  0
 30 29  1  0  0  0  0
 31 30  1  0  0  0  0
M  END
>  <MODEL>
8

>  <REMARK>
 VINA RESULT:      -2.8      2.773      4.316
  Name = 
  3 active torsions:
  status: ('A' for Active; 'I' for Inactive)
    1  A    between atoms: C_1  and  C_10
    2  A    between atoms: C_10  and  O_19
    3  A    between atoms: O_19  and  C_24
                            x       y       z     vdW  Elec       q    Type
                         _______ _______ _______ _____ _____    ______ ____

>  <TORSDO>
F 3

$$$$
=
 OpenBabel11062410373D

 32 37  0  0  1  0  0  0  0  0999 V2000
  160.9170  208.6650  157.1770 C   0  0  0  0  0  2  0  0  0  0  0  0
  161.0980  207.3060  152.2680 C   0  0  2  0  0  3  0  0  0  0  0  0
  161.0160  202.2780  152.2690 C   0  0  0  0  0  2  0  0  0  0  0  0
  161.7530  202.4820  150.9420 C   0  0  0  0  0  2  0  0  0  0  0  0
  161.4840  207.8570  149.8010 C   0  0  0  0  0  0  0  0  0  0  0  0
  162.3160  208.9830  149.9130 C   0  0  0  0  0  0  0  0  0  0  0  0
  160.9120  208.6780  154.3340 C   0  0  2  0  0  3  0  0  0  0  0  0
  161.0920  206.1490  154.3900 O   0  0  0  0  0  0  0  0  0  0  0  0
  161.8820  207.7290  147.4250 C   0  0  0  0  0  0  0  0  0  0  0  0
  161.0090  207.3640  156.4230 C   0  0  0  0  0  3  0  0  0  0  0  0
  161.0210  203.5500  153.1360 C   0  0  0  0  0  2  0  0  0  0  0  0
  160.6540  206.0660  153.0350 C   0  0  2  0  0  3  0  0  0  0  0  0
  161.1780  204.8360  152.3120 C   0  0  2  0  0  3  0  0  0  0  0  0
  160.1050  206.0220  150.2480 C   0  0  2  0  0  3  0  0  0  0  0  0
  162.7070  208.8600  147.5110 C   0  0  0  0  0  3  0  0  0  0  0  0
  160.9970  207.3590  155.0880 C   0  0  0  0  0  0  0  0  0  0  0  0
  162.9240  209.4840  148.7510 C   0  0  0  0  0  3  0  0  0  0  0  0
  160.0730  209.6720  155.0880 C   0  0  0  0  0  3  0  0  0  0  0  0
  160.0740  209.6750  156.4260 C   0  0  0  0  0  0  0  0  0  0  0  0
  161.1100  203.5950  150.0990 C   0  0  0  0  0  2  0  0  0  0  0  0
  160.4570  204.6870  150.9630 C   0  0  1  0  0  3  0  0  0  0  0  0
  160.4180  206.0480  148.7340 C   0  0  0  0  0  2  0  0  0  0  0  0
  160.4020  208.5040  152.9010 C   0  0  0  0  0  2  0  0  0  0  0  0
  162.5470  209.6030  151.1330 O   0  0  0  0  0  1  0  0  0  0  0  0
  161.6810  207.1150  146.2330 F   0  0  0  0  0  0  0  0  0  0  0  0
  160.7920  207.1810  150.8400 N   0  0  0  0  0  0  0  0  0  0  0  0
  161.2830  207.2490  148.5900 C   0  0  0  0  0  0  0  0  0  0  0  0
  159.3050  210.6270  157.1010 O   0  0  0  0  0  0  0  0  0  0  0  0
  158.9620  211.8860  156.5320 C   0  0  0  0  0  2  0  0  0  0  0  0
  157.4520  212.0440  156.4630 C   0  0  2  0  0  3  0  0  0  0  0  0
  156.9320  211.1890  155.4910 O   0  0  0  0  0  1  0  0  0  0  0  0
  157.1130  213.4750  156.1060 C   0  0  0  0  0  1  0  0  0  0  0  0
  2 23  1  1  0  0  0
  2 12  1  0  0  0  0
  3 11  1  0  0  0  0
  4  3  1  0  0  0  0
  5  6  1  0  0  0  0
  5 26  1  0  0  0  0
  6 24  1  0  0  0  0
  7 23  1  6  0  0  0
  7 16  1  0  0  0  0
  7 18  1  0  0  0  0
  8 16  1  0  0  0  0
  9 15  2  0  0  0  0
  9 27  1  0  0  0  0
 10  1  1  0  0  0  0
 12  8  1  1  0  0  0
 13 12  1  0  0  0  0
 13 11  1  1  0  0  0
 14 22  1  6  0  0  0
 14 26  1  0  0  0  0
 14 21  1  0  0  0  0
 15 17  1  0  0  0  0
 16 10  2  0  0  0  0
 17  6  2  0  0  0  0
 18 19  2  0  0  0  0
 19 28  1  0  0  0  0
 19  1  1  0  0  0  0
 20  4  1  0  0  0  0
 21 20  1  6  0  0  0
 21 13  1  0  0  0  0
 25  9  1  0  0  0  0
 26  2  1  0  0  0  0
 27 22  1  0  0  0  0
 27  5  2  0  0  0  0
 29 28  1  0  0  0  0
 30 32  1  6  0  0  0
 30 29  1  0  0  0  0
 31 30  1  0  0  0  0
M  END
>  <MODEL>
9

>  <REMARK>
 VINA RESULT:      -2.7      3.636      8.340
  Name = 
  3 active torsions:
  status: ('A' for Active; 'I' for Inactive)
    1  A    between atoms: C_1  and  C_10
    2  A    between atoms: C_10  and  O_19
    3  A    between atoms: O_19  and  C_24
                            x       y       z     vdW  Elec       q    Type
                         _______ _______ _______ _____ _____    ______ ____

>  <TORSDO>
F 3

$$$$
