=
 OpenBabel11062410373D

 32 36  0  0  0  0  0  0  0  0999 V2000
  161.2790  207.3760  148.4500 C   0  0  0  0  0  2  0  0  0  0  0  0
  161.2730  210.3520  151.7540 C   0  0  0  0  0  0  0  0  0  0  0  0
  158.9330  213.6520  149.0330 N   0  0  0  0  0  2  0  0  0  0  0  0
  158.6430  214.4530  150.2140 C   0  0  0  0  0  2  0  0  0  0  0  0
  160.3140  209.7950  154.0190 C   0  0  0  0  0  0  0  0  0  0  0  0
  159.3980  210.0950  155.0420 C   0  0  0  0  0  0  0  0  0  0  0  0
  161.8950  208.0850  150.7310 C   0  0  0  0  0  0  0  0  0  0  0  0
  162.0150  210.8360  149.4170 N   0  0  0  0  0  0  0  0  0  0  0  0
  161.5310  204.8640  148.0600 N   0  0  0  0  0  2  0  0  0  0  0  0
  162.3020  209.6750  148.8920 C   0  0  0  0  0  3  0  0  0  0  0  0
  160.2360  213.0230  149.2340 C   0  0  0  0  0  2  0  0  0  0  0  0
  161.1730  211.1010  150.5590 C   0  0  0  0  0  0  0  0  0  0  0  0
  160.2450  212.1460  150.4630 C   0  0  0  0  0  0  0  0  0  0  0  0
  159.4140  211.6390  152.6930 C   0  0  0  0  0  0  0  0  0  0  0  0
  161.4470  205.7360  150.2460 N   0  0  0  0  0  0  0  0  0  0  0  0
  161.8370  208.3780  149.4230 C   0  0  0  0  0  0  0  0  0  0  0  0
  159.3970  209.3130  156.1940 O   0  0  0  0  0  1  0  0  0  0  0  0
  161.3010  206.8030  151.2370 C   0  0  0  0  0  2  0  0  0  0  0  0
  161.4200  205.9640  148.9660 C   0  0  0  0  0  0  0  0  0  0  0  0
  158.3440  213.5290  151.3890 C   0  0  0  0  0  2  0  0  0  0  0  0
  159.3800  212.4340  151.5340 C   0  0  0  0  0  0  0  0  0  0  0  0
  158.5170  211.9110  153.7320 C   0  0  0  0  0  3  0  0  0  0  0  0
  162.6640  209.2150  151.8820 S   0  0  0  0  0  0  0  0  0  0  0  0
  161.1570  208.6620  154.2130 N   0  0  0  0  0  1  0  0  0  0  0  0
  160.3500  210.5740  152.8230 C   0  0  0  0  0  0  0  0  0  0  0  0
  158.4960  211.1620  154.9060 C   0  0  0  0  0  0  0  0  0  0  0  0
  161.4840  205.0180  146.6130 C   0  0  0  0  0  3  0  0  0  0  0  0
  162.7140  205.4880  146.1590 O   0  0  0  0  0  1  0  0  0  0  0  0
  161.2110  203.7870  146.0180 O   0  0  0  0  0  1  0  0  0  0  0  0
  157.5160  211.5170  155.9590 C   0  0  0  0  0  0  0  0  0  0  0  0
  157.9170  212.1430  157.1330 O   0  0  0  0  0  1  0  0  0  0  0  0
  156.2940  211.2550  155.7970 O   0  0  0  0  0  0  0  0  0  0  0  0
  1 19  1  0  0  0  0
  1 16  1  0  0  0  0
  2 23  1  0  0  0  0
  2 25  1  0  0  0  0
  3 11  1  0  0  0  0
  3  4  1  0  0  0  0
  4 20  1  0  0  0  0
  5 24  1  0  0  0  0
  5  6  1  0  0  0  0
  6 17  1  0  0  0  0
  7 18  1  0  0  0  0
  7 23  1  0  0  0  0
  8 12  1  0  0  0  0
  9 19  1  0  0  0  0
 10  8  2  0  0  0  0
 10 16  1  0  0  0  0
 11 13  1  0  0  0  0
 12  2  2  0  0  0  0
 13 12  1  0  0  0  0
 13 21  2  0  0  0  0
 14 25  1  0  0  0  0
 14 22  2  0  0  0  0
 15 18  1  0  0  0  0
 16  7  2  0  0  0  0
 19 15  2  0  0  0  0
 20 21  1  0  0  0  0
 21 14  1  0  0  0  0
 22 26  1  0  0  0  0
 25  5  2  0  0  0  0
 26  6  2  0  0  0  0
 26 30  1  0  0  0  0
 27  9  1  0  0  0  0
 28 27  1  0  0  0  0
 29 27  1  0  0  0  0
 30 31  1  0  0  0  0
 32 30  2  0  0  0  0
M  END
>  <MODEL>
1

>  <REMARK>
 VINA RESULT:      -6.0      0.000      0.000
  Name = 
  2 active torsions:
  status: ('A' for Active; 'I' for Inactive)
    1  A    between atoms: C_1  and  N_10
    2  A    between atoms: C_11  and  C_32
                            x       y       z     vdW  Elec       q    Type
                         _______ _______ _______ _____ _____    ______ ____

>  <TORSDO>
F 2

$$$$
=
 OpenBabel11062410373D

 32 36  0  0  0  0  0  0  0  0999 V2000
  161.2000  206.9570  148.9000 C   0  0  0  0  0  2  0  0  0  0  0  0
  161.3870  210.8050  151.1210 C   0  0  0  0  0  0  0  0  0  0  0  0
  159.5950  213.2970  147.3320 N   0  0  0  0  0  2  0  0  0  0  0  0
  159.3450  214.4530  148.1830 C   0  0  0  0  0  2  0  0  0  0  0  0
  160.2590  211.0840  153.3590 C   0  0  0  0  0  0  0  0  0  0  0  0
  159.3370  211.7780  154.1600 C   0  0  0  0  0  0  0  0  0  0  0  0
  161.7840  208.2820  150.8970 C   0  0  0  0  0  0  0  0  0  0  0  0
  162.2960  210.4550  148.8180 N   0  0  0  0  0  0  0  0  0  0  0  0
  161.1680  204.4370  149.3210 N   0  0  0  0  0  2  0  0  0  0  0  0
  162.4670  209.1660  148.7010 C   0  0  0  0  0  3  0  0  0  0  0  0
  160.8030  212.6380  147.8250 C   0  0  0  0  0  2  0  0  0  0  0  0
  161.4360  211.1460  149.7490 C   0  0  0  0  0  0  0  0  0  0  0  0
  160.6460  212.1950  149.2600 C   0  0  0  0  0  0  0  0  0  0  0  0
  159.6520  212.4980  151.4600 C   0  0  0  0  0  0  0  0  0  0  0  0
  161.0830  205.9550  151.1190 N   0  0  0  0  0  0  0  0  0  0  0  0
  161.8250  208.1540  149.5620 C   0  0  0  0  0  0  0  0  0  0  0  0
  159.1860  211.4010  155.4910 O   0  0  0  0  0  1  0  0  0  0  0  0
  161.0160  207.2880  151.7200 C   0  0  0  0  0  2  0  0  0  0  0  0
  161.1460  205.7710  149.8340 C   0  0  0  0  0  0  0  0  0  0  0  0
  158.8810  213.9780  149.5560 C   0  0  0  0  0  2  0  0  0  0  0  0
  159.7710  212.8880  150.1150 C   0  0  0  0  0  0  0  0  0  0  0  0
  158.7440  213.1680  152.2870 C   0  0  0  0  0  3  0  0  0  0  0  0
  162.6250  209.6340  151.7070 S   0  0  0  0  0  0  0  0  0  0  0  0
  160.9500  209.9930  153.9600 N   0  0  0  0  0  1  0  0  0  0  0  0
  160.4460  211.4410  151.9880 C   0  0  0  0  0  0  0  0  0  0  0  0
  158.5770  212.8330  153.6280 C   0  0  0  0  0  0  0  0  0  0  0  0
  161.2110  204.1330  147.8990 C   0  0  0  0  0  3  0  0  0  0  0  0
  162.4420  204.5300  147.3780 O   0  0  0  0  0  1  0  0  0  0  0  0
  161.0480  202.7620  147.7050 O   0  0  0  0  0  1  0  0  0  0  0  0
  157.5950  213.5940  154.4350 C   0  0  0  0  0  0  0  0  0  0  0  0
  156.2290  213.3800  154.2970 O   0  0  0  0  0  0  0  0  0  0  0  0
  157.9940  214.4530  155.2670 O   0  0  0  0  0  1  0  0  0  0  0  0
  1 16  1  0  0  0  0
  1 19  1  0  0  0  0
  2 23  1  0  0  0  0
  2 25  1  0  0  0  0
  3 11  1  0  0  0  0
  3  4  1  0  0  0  0
  4 20  1  0  0  0  0
  5 24  1  0  0  0  0
  5  6  1  0  0  0  0
  6 17  1  0  0  0  0
  7 23  1  0  0  0  0
  7 18  1  0  0  0  0
  8 12  1  0  0  0  0
  9 19  1  0  0  0  0
 10  8  2  0  0  0  0
 10 16  1  0  0  0  0
 11 13  1  0  0  0  0
 12  2  2  0  0  0  0
 13 12  1  0  0  0  0
 13 21  2  0  0  0  0
 14 25  1  0  0  0  0
 14 22  2  0  0  0  0
 15 18  1  0  0  0  0
 16  7  2  0  0  0  0
 19 15  2  0  0  0  0
 20 21  1  0  0  0  0
 21 14  1  0  0  0  0
 22 26  1  0  0  0  0
 25  5  2  0  0  0  0
 26  6  2  0  0  0  0
 26 30  1  0  0  0  0
 27  9  1  0  0  0  0
 28 27  1  0  0  0  0
 29 27  1  0  0  0  0
 30 32  1  0  0  0  0
 31 30  2  0  0  0  0
M  END
>  <MODEL>
2

>  <REMARK>
 VINA RESULT:      -5.9      1.366      1.690
  Name = 
  2 active torsions:
  status: ('A' for Active; 'I' for Inactive)
    1  A    between atoms: C_1  and  N_10
    2  A    between atoms: C_11  and  C_32
                            x       y       z     vdW  Elec       q    Type
                         _______ _______ _______ _____ _____    ______ ____

>  <TORSDO>
F 2

$$$$
=
 OpenBabel11062410373D

 32 36  0  0  0  0  0  0  0  0999 V2000
  158.8600  210.0450  154.7520 C   0  0  0  0  0  2  0  0  0  0  0  0
  161.7540  208.1870  151.9320 C   0  0  0  0  0  0  0  0  0  0  0  0
  160.3510  203.6820  153.1610 N   0  0  0  0  0  2  0  0  0  0  0  0
  161.0410  203.1280  152.0040 C   0  0  0  0  0  2  0  0  0  0  0  0
  161.7730  208.7920  149.4840 C   0  0  0  0  0  0  0  0  0  0  0  0
  161.6800  208.3790  148.1440 C   0  0  0  0  0  0  0  0  0  0  0  0
  160.6840  210.2040  153.0970 C   0  0  0  0  0  0  0  0  0  0  0  0
  161.5050  207.5390  154.3340 N   0  0  0  0  0  0  0  0  0  0  0  0
  157.6740  212.2670  155.1800 N   0  0  0  0  0  2  0  0  0  0  0  0
  160.9320  208.5580  154.9150 C   0  0  0  0  0  3  0  0  0  0  0  0
  161.1250  204.8280  153.6310 C   0  0  0  0  0  2  0  0  0  0  0  0
  161.5040  207.2140  152.9270 C   0  0  0  0  0  0  0  0  0  0  0  0
  161.2600  205.8840  152.5590 C   0  0  0  0  0  0  0  0  0  0  0  0
  161.3840  206.4910  150.2070 C   0  0  0  0  0  0  0  0  0  0  0  0
  159.0040  211.9670  153.2590 N   0  0  0  0  0  0  0  0  0  0  0  0
  160.1960  209.6220  154.2040 C   0  0  0  0  0  0  0  0  0  0  0  0
  161.8190  209.3290  147.1360 O   0  0  0  0  0  1  0  0  0  0  0  0
  159.8460  211.1960  152.3430 C   0  0  0  0  0  2  0  0  0  0  0  0
  158.5220  211.4620  154.3570 C   0  0  0  0  0  0  0  0  0  0  0  0
  160.8970  204.0830  150.8240 C   0  0  0  0  0  2  0  0  0  0  0  0
  161.2210  205.5130  151.2040 C   0  0  0  0  0  0  0  0  0  0  0  0
  161.2980  206.1130  148.8620 C   0  0  0  0  0  3  0  0  0  0  0  0
  162.3190  209.8000  152.5030 S   0  0  0  0  0  0  0  0  0  0  0  0
  161.9540  210.1850  149.7230 N   0  0  0  0  0  1  0  0  0  0  0  0
  161.6390  207.8490  150.5480 C   0  0  0  0  0  0  0  0  0  0  0  0
  161.4480  207.0310  147.8250 C   0  0  0  0  0  0  0  0  0  0  0  0
  157.0680  211.7800  156.4100 C   0  0  0  0  0  3  0  0  0  0  0  0
  156.8210  212.8560  157.2610 O   0  0  0  0  0  1  0  0  0  0  0  0
  155.8660  211.1360  156.1190 O   0  0  0  0  0  1  0  0  0  0  0  0
  161.3460  206.5490  146.4280 C   0  0  0  0  0  0  0  0  0  0  0  0
  160.1370  206.5760  145.7440 O   0  0  0  0  0  0  0  0  0  0  0  0
  162.3680  206.1060  145.8370 O   0  0  0  0  0  1  0  0  0  0  0  0
  2 23  1  0  0  0  0
  2 12  1  0  0  0  0
  3 11  1  0  0  0  0
  4  3  1  0  0  0  0
  5 24  1  0  0  0  0
  5 25  1  0  0  0  0
  6  5  2  0  0  0  0
  7 16  2  0  0  0  0
  8 10  2  0  0  0  0
  9 27  1  0  0  0  0
 12  8  1  0  0  0  0
 13 12  2  0  0  0  0
 13 11  1  0  0  0  0
 14 25  1  0  0  0  0
 14 21  2  0  0  0  0
 15 19  2  0  0  0  0
 16  1  1  0  0  0  0
 16 10  1  0  0  0  0
 17  6  1  0  0  0  0
 18  7  1  0  0  0  0
 18 15  1  0  0  0  0
 19  1  1  0  0  0  0
 19  9  1  0  0  0  0
 20 21  1  0  0  0  0
 20  4  1  0  0  0  0
 21 13  1  0  0  0  0
 22 14  1  0  0  0  0
 23  7  1  0  0  0  0
 25  2  2  0  0  0  0
 26  6  1  0  0  0  0
 26 22  2  0  0  0  0
 27 28  1  0  0  0  0
 29 27  1  0  0  0  0
 30 26  1  0  0  0  0
 31 30  2  0  0  0  0
 32 30  1  0  0  0  0
M  END
>  <MODEL>
3

>  <REMARK>
 VINA RESULT:      -5.3      2.183      8.644
  Name = 
  2 active torsions:
  status: ('A' for Active; 'I' for Inactive)
    1  A    between atoms: C_1  and  N_10
    2  A    between atoms: C_11  and  C_32
                            x       y       z     vdW  Elec       q    Type
                         _______ _______ _______ _____ _____    ______ ____

>  <TORSDO>
F 2

$$$$
=
 OpenBabel11062410373D

 32 36  0  0  0  0  0  0  0  0999 V2000
  161.1120  206.7390  147.7370 C   0  0  0  0  0  2  0  0  0  0  0  0
  161.7490  209.3390  151.2870 C   0  0  0  0  0  0  0  0  0  0  0  0
  160.2160  213.3030  148.8980 N   0  0  0  0  0  2  0  0  0  0  0  0
  160.1040  214.0410  150.1490 C   0  0  0  0  0  2  0  0  0  0  0  0
  160.6790  208.8120  153.5090 C   0  0  0  0  0  0  0  0  0  0  0  0
  159.8470  209.2150  154.5670 C   0  0  0  0  0  0  0  0  0  0  0  0
  161.8580  207.0900  150.0620 C   0  0  0  0  0  0  0  0  0  0  0  0
  162.5940  209.8510  148.9910 N   0  0  0  0  0  0  0  0  0  0  0  0
  160.8020  204.2780  147.1260 N   0  0  0  0  0  2  0  0  0  0  0  0
  162.6180  208.7060  148.3630 C   0  0  0  0  0  3  0  0  0  0  0  0
  161.3460  212.3860  149.0250 C   0  0  0  0  0  2  0  0  0  0  0  0
  161.8250  210.1940  150.1640 C   0  0  0  0  0  0  0  0  0  0  0  0
  161.1530  211.4230  150.1730 C   0  0  0  0  0  0  0  0  0  0  0  0
  160.2180  210.9190  152.3610 C   0  0  0  0  0  0  0  0  0  0  0  0
  160.9030  204.9510  149.3800 N   0  0  0  0  0  0  0  0  0  0  0  0
  161.8740  207.5030  148.7850 C   0  0  0  0  0  0  0  0  0  0  0  0
  159.6660  208.3550  155.6460 O   0  0  0  0  0  1  0  0  0  0  0  0
  160.9910  205.9320  150.4630 C   0  0  0  0  0  2  0  0  0  0  0  0
  160.9340  205.2910  148.1260 C   0  0  0  0  0  0  0  0  0  0  0  0
  159.6010  213.1060  151.2430 C   0  0  0  0  0  2  0  0  0  0  0  0
  160.3680  211.8000  151.2760 C   0  0  0  0  0  0  0  0  0  0  0  0
  159.3980  211.2900  153.4330 C   0  0  0  0  0  3  0  0  0  0  0  0
  162.8520  207.9150  151.2960 S   0  0  0  0  0  0  0  0  0  0  0  0
  161.2480  207.5080  153.5910 N   0  0  0  0  0  1  0  0  0  0  0  0
  160.8930  209.6660  152.3850 C   0  0  0  0  0  0  0  0  0  0  0  0
  159.2060  210.4640  154.5380 C   0  0  0  0  0  0  0  0  0  0  0  0
  160.7980  204.5660  145.6990 C   0  0  0  0  0  3  0  0  0  0  0  0
  162.0810  204.9320  145.2980 O   0  0  0  0  0  1  0  0  0  0  0  0
  160.4000  203.4320  144.9920 O   0  0  0  0  0  1  0  0  0  0  0  0
  158.3230  210.9330  155.6310 C   0  0  0  0  0  0  0  0  0  0  0  0
  158.8470  211.3520  156.8490 O   0  0  0  0  0  1  0  0  0  0  0  0
  157.0740  210.9610  155.4660 O   0  0  0  0  0  0  0  0  0  0  0  0
  1 19  1  0  0  0  0
  1 16  1  0  0  0  0
  2 23  1  0  0  0  0
  2 25  1  0  0  0  0
  3 11  1  0  0  0  0
  3  4  1  0  0  0  0
  4 20  1  0  0  0  0
  5 24  1  0  0  0  0
  5  6  1  0  0  0  0
  6 17  1  0  0  0  0
  7 18  1  0  0  0  0
  7 23  1  0  0  0  0
  8 12  1  0  0  0  0
  9 19  1  0  0  0  0
 10 16  1  0  0  0  0
 10  8  2  0  0  0  0
 11 13  1  0  0  0  0
 12 13  1  0  0  0  0
 12  2  2  0  0  0  0
 13 21  2  0  0  0  0
 14 25  1  0  0  0  0
 14 22  2  0  0  0  0
 15 18  1  0  0  0  0
 16  7  2  0  0  0  0
 19 15  2  0  0  0  0
 20 21  1  0  0  0  0
 21 14  1  0  0  0  0
 22 26  1  0  0  0  0
 25  5  2  0  0  0  0
 26  6  2  0  0  0  0
 26 30  1  0  0  0  0
 27  9  1  0  0  0  0
 28 27  1  0  0  0  0
 29 27  1  0  0  0  0
 30 31  1  0  0  0  0
 32 30  2  0  0  0  0
M  END
>  <MODEL>
4

>  <REMARK>
 VINA RESULT:      -5.2      1.116      1.209
  Name = 
  2 active torsions:
  status: ('A' for Active; 'I' for Inactive)
    1  A    between atoms: C_1  and  N_10
    2  A    between atoms: C_11  and  C_32
                            x       y       z     vdW  Elec       q    Type
                         _______ _______ _______ _____ _____    ______ ____

>  <TORSDO>
F 2

$$$$
=
 OpenBabel11062410373D

 32 36  0  0  0  0  0  0  0  0999 V2000
  160.0800  208.5480  153.3910 C   0  0  0  0  0  2  0  0  0  0  0  0
  162.1990  205.9490  150.4710 C   0  0  0  0  0  0  0  0  0  0  0  0
  159.8910  201.9580  152.0590 N   0  0  0  0  0  2  0  0  0  0  0  0
  160.3280  201.2120  150.8870 C   0  0  0  0  0  2  0  0  0  0  0  0
  162.1450  206.4390  147.9970 C   0  0  0  0  0  0  0  0  0  0  0  0
  161.8410  206.0090  146.6950 C   0  0  0  0  0  0  0  0  0  0  0  0
  161.7380  208.2050  151.5960 C   0  0  0  0  0  0  0  0  0  0  0  0
  162.0160  205.4690  152.9170 N   0  0  0  0  0  0  0  0  0  0  0  0
  159.4900  211.0030  153.7800 N   0  0  0  0  0  2  0  0  0  0  0  0
  161.7510  206.6170  153.4810 C   0  0  0  0  0  3  0  0  0  0  0  0
  160.9510  202.9030  152.4020 C   0  0  0  0  0  2  0  0  0  0  0  0
  161.8150  205.1010  151.5360 C   0  0  0  0  0  0  0  0  0  0  0  0
  161.2350  203.8550  151.2650 C   0  0  0  0  0  0  0  0  0  0  0  0
  161.2910  204.3260  148.8780 C   0  0  0  0  0  0  0  0  0  0  0  0
  160.5390  210.3230  151.7840 N   0  0  0  0  0  0  0  0  0  0  0  0
  161.2260  207.7990  152.7680 C   0  0  0  0  0  0  0  0  0  0  0  0
  162.1090  206.8600  145.6260 O   0  0  0  0  0  1  0  0  0  0  0  0
  161.0930  209.3390  150.8520 C   0  0  0  0  0  2  0  0  0  0  0  0
  160.0500  209.9890  152.9420 C   0  0  0  0  0  0  0  0  0  0  0  0
  160.3090  202.1290  149.6690 C   0  0  0  0  0  2  0  0  0  0  0  0
  160.9920  203.4530  149.9400 C   0  0  0  0  0  0  0  0  0  0  0  0
  161.0020  203.9290  147.5680 C   0  0  0  0  0  3  0  0  0  0  0  0
  163.1740  207.4000  150.9030 S   0  0  0  0  0  0  0  0  0  0  0  0
  162.6680  207.7560  148.1420 N   0  0  0  0  0  1  0  0  0  0  0  0
  161.8870  205.5950  149.1210 C   0  0  0  0  0  0  0  0  0  0  0  0
  161.2720  204.7440  146.4720 C   0  0  0  0  0  0  0  0  0  0  0  0
  158.8970  210.7220  155.0780 C   0  0  0  0  0  3  0  0  0  0  0  0
  159.5360  211.4850  156.0540 O   0  0  0  0  0  1  0  0  0  0  0  0
  157.5400  211.0440  155.0550 O   0  0  0  0  0  1  0  0  0  0  0  0
  160.9380  204.2480  145.1170 C   0  0  0  0  0  0  0  0  0  0  0  0
  160.5500  202.9300  144.9090 O   0  0  0  0  0  1  0  0  0  0  0  0
  161.0000  205.0250  144.1270 O   0  0  0  0  0  0  0  0  0  0  0  0
  2 23  1  0  0  0  0
  2 12  1  0  0  0  0
  3 11  1  0  0  0  0
  4  3  1  0  0  0  0
  5 24  1  0  0  0  0
  5 25  1  0  0  0  0
  6  5  2  0  0  0  0
  7 16  2  0  0  0  0
  8 10  2  0  0  0  0
  9 27  1  0  0  0  0
 12  8  1  0  0  0  0
 13 12  2  0  0  0  0
 13 11  1  0  0  0  0
 14 25  1  0  0  0  0
 14 21  2  0  0  0  0
 15 19  2  0  0  0  0
 16  1  1  0  0  0  0
 16 10  1  0  0  0  0
 17  6  1  0  0  0  0
 18  7  1  0  0  0  0
 18 15  1  0  0  0  0
 19  1  1  0  0  0  0
 19  9  1  0  0  0  0
 20 21  1  0  0  0  0
 20  4  1  0  0  0  0
 21 13  1  0  0  0  0
 22 14  1  0  0  0  0
 23  7  1  0  0  0  0
 25  2  2  0  0  0  0
 26  6  1  0  0  0  0
 26 22  2  0  0  0  0
 27 28  1  0  0  0  0
 29 27  1  0  0  0  0
 30 26  1  0  0  0  0
 31 30  1  0  0  0  0
 32 30  2  0  0  0  0
M  END
>  <MODEL>
5

>  <REMARK>
 VINA RESULT:      -3.6      2.428      9.216
  Name = 
  2 active torsions:
  status: ('A' for Active; 'I' for Inactive)
    1  A    between atoms: C_1  and  N_10
    2  A    between atoms: C_11  and  C_32
                            x       y       z     vdW  Elec       q    Type
                         _______ _______ _______ _____ _____    ______ ____

>  <TORSDO>
F 2

$$$$
