=
 OpenBabel11062409363D

 34 37  0  0  1  0  0  0  0  0999 V2000
  161.8640  208.7860  152.7860 O   0  0  0  0  0  0  0  0  0  0  0  0
  160.9990  210.7150  155.7150 C   0  0  0  0  0  2  0  0  0  0  0  0
  160.5970  209.2860  156.0360 C   0  0  1  0  0  3  0  0  0  0  0  0
  160.7170  207.2730  154.6460 O   0  0  0  0  0  1  0  0  0  0  0  0
  160.3090  208.6110  154.6950 C   0  0  2  0  0  3  0  0  0  0  0  0
  161.4980  210.7280  154.2780 C   0  0  0  0  0  2  0  0  0  0  0  0
  160.9140  209.4870  153.5830 C   0  0  1  0  0  0  0  0  0  0  0  0
  162.8200  209.2720  157.2120 O   0  0  0  0  0  0  0  0  0  0  0  0
  161.6470  208.6110  156.8670 C   0  0  0  0  0  0  0  0  0  0  0  0
  161.4600  207.4310  157.2580 O   0  0  0  0  0  1  0  0  0  0  0  0
  159.8000  209.9400  152.6240 C   0  0  0  0  0  2  0  0  0  0  0  0
  159.7430  212.4240  152.2080 C   0  0  0  0  0  3  0  0  0  0  0  0
  158.1790  213.8510  153.3830 C   0  0  0  0  0  3  0  0  0  0  0  0
  159.2140  213.6950  152.4560 C   0  0  0  0  0  3  0  0  0  0  0  0
  158.2030  211.4670  153.8140 C   0  0  0  0  0  3  0  0  0  0  0  0
  159.2410  211.3080  152.8890 C   0  0  0  0  0  0  0  0  0  0  0  0
  157.6740  212.7390  154.0610 C   0  0  0  0  0  3  0  0  0  0  0  0
  161.6420  208.9880  151.4080 C   0  0  2  0  0  3  0  0  0  0  0  0
  160.6010  206.4060  149.1150 C   0  0  0  0  0  2  0  0  0  0  0  0
  161.2310  205.5270  151.9920 C   0  0  0  0  0  2  0  0  0  0  0  0
  160.9630  202.6550  148.9260 N   0  0  0  0  0  0  0  0  0  0  0  0
  161.2760  201.6670  147.9390 C   0  0  0  0  0  0  0  0  0  0  0  0
  160.6040  204.0100  148.5270 C   0  0  0  0  0  2  0  0  0  0  0  0
  161.3500  201.9840  146.7210 O   0  0  0  0  0  0  0  0  0  0  0  0
  161.1250  205.0230  149.5470 C   0  0  2  0  0  3  0  0  0  0  0  0
  161.5000  200.3460  148.3150 O   0  0  0  0  0  1  0  0  0  0  0  0
  161.3000  203.3260  151.2340 C   0  0  0  0  0  2  0  0  0  0  0  0
  160.7260  204.6380  150.9250 N   0  0  1  0  0  0  0  0  0  0  0  0
  160.7310  202.2590  150.3100 C   0  0  0  0  0  2  0  0  0  0  0  0
  162.2910  206.5460  151.5520 C   0  0  0  0  0  2  0  0  0  0  0  0
  160.4140  207.2940  150.1840 O   0  0  0  0  0  0  0  0  0  0  0  0
  161.6900  207.6480  150.6640 C   0  0  1  0  0  3  0  0  0  0  0  0
  162.6290  210.0160  150.8480 C   0  0  0  0  0  2  0  0  0  0  0  0
  162.0980  210.6680  149.7330 O   0  0  0  0  0  1  0  0  0  0  0  0
  1  7  1  0  0  0  0
  2  3  1  0  0  0  0
  3  9  1  6  0  0  0
  5  4  1  1  0  0  0
  5  3  1  0  0  0  0
  6  2  1  0  0  0  0
  7 11  1  6  0  0  0
  7  6  1  0  0  0  0
  7  5  1  0  0  0  0
  9  8  2  0  0  0  0
  9 10  1  0  0  0  0
 11 16  1  0  0  0  0
 12 14  2  0  0  0  0
 12 16  1  0  0  0  0
 13 17  2  0  0  0  0
 14 13  1  0  0  0  0
 15 17  1  0  0  0  0
 16 15  2  0  0  0  0
 18 33  1  6  0  0  0
 18  1  1  0  0  0  0
 19 25  1  0  0  0  0
 19 31  1  0  0  0  0
 21 29  1  0  0  0  0
 22 26  1  0  0  0  0
 22 21  1  0  0  0  0
 23 21  1  0  0  0  0
 24 22  2  0  0  0  0
 25 23  1  6  0  0  0
 25 28  1  0  0  0  0
 28 27  1  1  0  0  0
 28 20  1  0  0  0  0
 29 27  1  0  0  0  0
 30 20  1  0  0  0  0
 31 32  1  0  0  0  0
 32 18  1  1  0  0  0
 32 30  1  0  0  0  0
 34 33  1  0  0  0  0
M  END
>  <MODEL>
1

>  <REMARK>
 VINA RESULT:      -7.1      0.000      0.000
  Name = 
  7 active torsions:
  status: ('A' for Active; 'I' for Inactive)
    1  A    between atoms: C_1  and  C_20
    2  A    between atoms: C_1  and  C_34
    3  A    between atoms: O_5  and  C_18
    4  A    between atoms: O_5  and  C_34
    5  A    between atoms: C_8  and  C_18
    6  A    between atoms: C_13  and  C_23
    7  A    between atoms: C_18  and  C_33
                            x       y       z     vdW  Elec       q    Type
                         _______ _______ _______ _____ _____    ______ ____

>  <TORSDO>
F 7

$$$$
=
 OpenBabel11062409363D

 34 37  0  0  1  0  0  0  0  0999 V2000
  161.7250  209.1620  152.8550 O   0  0  0  0  0  0  0  0  0  0  0  0
  160.7470  210.6390  156.0030 C   0  0  0  0  0  2  0  0  0  0  0  0
  160.2670  209.1990  156.0630 C   0  0  1  0  0  3  0  0  0  0  0  0
  160.3970  207.4310  154.3720 O   0  0  0  0  0  1  0  0  0  0  0  0
  160.0420  208.7630  154.6150 C   0  0  2  0  0  3  0  0  0  0  0  0
  161.3400  210.8560  154.6200 C   0  0  0  0  0  2  0  0  0  0  0  0
  160.7540  209.7740  153.6980 C   0  0  1  0  0  0  0  0  0  0  0  0
  160.8780  207.0710  157.2550 O   0  0  0  0  0  1  0  0  0  0  0  0
  161.2320  208.3470  156.8320 C   0  0  0  0  0  0  0  0  0  0  0  0
  162.3780  208.7940  157.0940 O   0  0  0  0  0  0  0  0  0  0  0  0
  159.7250  210.4310  152.7620 C   0  0  0  0  0  2  0  0  0  0  0  0
  157.8220  211.2870  154.1730 C   0  0  0  0  0  3  0  0  0  0  0  0
  157.4770  213.6630  154.4950 C   0  0  0  0  0  3  0  0  0  0  0  0
  157.0930  212.3400  154.7360 C   0  0  0  0  0  3  0  0  0  0  0  0
  159.3180  212.8800  153.1280 C   0  0  0  0  0  3  0  0  0  0  0  0
  158.9340  211.5560  153.3650 C   0  0  0  0  0  0  0  0  0  0  0  0
  158.5890  213.9330  153.6920 C   0  0  0  0  0  3  0  0  0  0  0  0
  161.3740  209.2630  151.4930 C   0  0  2  0  0  3  0  0  0  0  0  0
  161.4380  205.6650  151.2500 C   0  0  0  0  0  2  0  0  0  0  0  0
  162.0930  207.2340  148.6900 C   0  0  0  0  0  2  0  0  0  0  0  0
  161.1410  203.1410  148.4620 N   0  0  0  0  0  0  0  0  0  0  0  0
  160.4730  201.8970  148.2220 C   0  0  0  0  0  0  0  0  0  0  0  0
  161.2610  203.6660  149.8170 C   0  0  0  0  0  2  0  0  0  0  0  0
  159.8890  201.2960  149.1640 O   0  0  0  0  0  1  0  0  0  0  0  0
  161.1840  205.1920  149.8060 C   0  0  2  0  0  3  0  0  0  0  0  0
  160.4660  201.3390  146.9470 O   0  0  0  0  0  0  0  0  0  0  0  0
  161.7790  205.2670  147.4830 C   0  0  0  0  0  2  0  0  0  0  0  0
  162.1320  205.7630  148.8160 N   0  0  1  0  0  0  0  0  0  0  0  0
  161.9410  203.7560  147.4100 C   0  0  0  0  0  2  0  0  0  0  0  0
  160.9170  207.9240  149.3950 C   0  0  0  0  0  2  0  0  0  0  0  0
  162.0290  206.9350  151.3280 O   0  0  0  0  0  0  0  0  0  0  0  0
  161.0600  207.8740  150.9250 C   0  0  1  0  0  3  0  0  0  0  0  0
  162.4660  209.9950  150.7070 C   0  0  0  0  0  2  0  0  0  0  0  0
  161.9560  211.1290  150.0730 O   0  0  0  0  0  1  0  0  0  0  0  0
  1  7  1  0  0  0  0
  2  3  1  0  0  0  0
  3  9  1  6  0  0  0
  5  4  1  1  0  0  0
  5  3  1  0  0  0  0
  6  2  1  0  0  0  0
  7 11  1  6  0  0  0
  7  5  1  0  0  0  0
  7  6  1  0  0  0  0
  9 10  2  0  0  0  0
  9  8  1  0  0  0  0
 11 16  1  0  0  0  0
 12 14  1  0  0  0  0
 13 14  2  0  0  0  0
 15 16  1  0  0  0  0
 15 17  2  0  0  0  0
 16 12  2  0  0  0  0
 17 13  1  0  0  0  0
 18 33  1  6  0  0  0
 18  1  1  0  0  0  0
 19 31  1  0  0  0  0
 20 28  1  0  0  0  0
 20 30  1  0  0  0  0
 21 23  1  0  0  0  0
 22 21  1  0  0  0  0
 22 24  1  0  0  0  0
 25 23  1  1  0  0  0
 25 19  1  0  0  0  0
 26 22  2  0  0  0  0
 28 27  1  6  0  0  0
 28 25  1  0  0  0  0
 29 27  1  0  0  0  0
 29 21  1  0  0  0  0
 30 32  1  0  0  0  0
 32 31  1  0  0  0  0
 32 18  1  6  0  0  0
 34 33  1  0  0  0  0
M  END
>  <MODEL>
2

>  <REMARK>
 VINA RESULT:      -6.7      1.101      1.951
  Name = 
  7 active torsions:
  status: ('A' for Active; 'I' for Inactive)
    1  A    between atoms: C_1  and  C_20
    2  A    between atoms: C_1  and  C_34
    3  A    between atoms: O_5  and  C_18
    4  A    between atoms: O_5  and  C_34
    5  A    between atoms: C_8  and  C_18
    6  A    between atoms: C_13  and  C_23
    7  A    between atoms: C_18  and  C_33
                            x       y       z     vdW  Elec       q    Type
                         _______ _______ _______ _____ _____    ______ ____

>  <TORSDO>
F 7

$$$$
=
 OpenBabel11062409363D

 34 37  0  0  1  0  0  0  0  0999 V2000
  160.3620  208.5180  153.1200 O   0  0  0  0  0  0  0  0  0  0  0  0
  162.1850  211.0460  154.9450 C   0  0  0  0  0  2  0  0  0  0  0  0
  161.1430  210.5170  155.9150 C   0  0  1  0  0  3  0  0  0  0  0  0
  159.3890  208.8410  155.5720 O   0  0  0  0  0  1  0  0  0  0  0  0
  159.9870  209.9980  155.0590 C   0  0  2  0  0  3  0  0  0  0  0  0
  161.9480  210.3550  153.6110 C   0  0  0  0  0  2  0  0  0  0  0  0
  160.4970  209.8470  153.6150 C   0  0  1  0  0  0  0  0  0  0  0  0
  163.0680  209.6010  157.2480 O   0  0  0  0  0  0  0  0  0  0  0  0
  161.7430  209.5030  156.8420 C   0  0  0  0  0  0  0  0  0  0  0  0
  161.0330  208.5530  157.2600 O   0  0  0  0  0  1  0  0  0  0  0  0
  159.6620  210.7390  152.6800 C   0  0  0  0  0  2  0  0  0  0  0  0
  159.2710  213.1220  153.3950 C   0  0  0  0  0  3  0  0  0  0  0  0
  157.2820  213.7460  154.6280 C   0  0  0  0  0  3  0  0  0  0  0  0
  158.4950  214.0990  154.0290 C   0  0  0  0  0  3  0  0  0  0  0  0
  157.6220  211.4420  153.9600 C   0  0  0  0  0  3  0  0  0  0  0  0
  158.8380  211.7910  153.3630 C   0  0  0  0  0  0  0  0  0  0  0  0
  156.8450  212.4190  154.5930 C   0  0  0  0  0  3  0  0  0  0  0  0
  161.6050  207.8540  153.0550 C   0  0  2  0  0  3  0  0  0  0  0  0
  161.2920  207.6820  149.4660 C   0  0  0  0  0  2  0  0  0  0  0  0
  160.9300  205.0510  151.0120 C   0  0  0  0  0  2  0  0  0  0  0  0
  161.5900  204.9750  146.8560 N   0  0  0  0  0  0  0  0  0  0  0  0
  162.1790  204.8080  145.5610 C   0  0  0  0  0  0  0  0  0  0  0  0
  161.4180  206.3070  147.4230 C   0  0  0  0  0  2  0  0  0  0  0  0
  162.6520  205.8010  144.9440 O   0  0  0  0  0  0  0  0  0  0  0  0
  161.6080  206.2700  148.9390 C   0  0  2  0  0  3  0  0  0  0  0  0
  162.2320  203.5490  144.9710 O   0  0  0  0  0  1  0  0  0  0  0  0
  161.1800  203.9100  148.9970 C   0  0  0  0  0  2  0  0  0  0  0  0
  160.7740  205.2040  149.5510 N   0  0  1  0  0  0  0  0  0  0  0  0
  160.9120  203.8580  147.5000 C   0  0  0  0  0  2  0  0  0  0  0  0
  162.1040  205.8220  151.6320 C   0  0  0  0  0  2  0  0  0  0  0  0
  160.7930  207.6930  150.7770 O   0  0  0  0  0  0  0  0  0  0  0  0
  161.8530  207.3380  151.6330 C   0  0  1  0  0  3  0  0  0  0  0  0
  161.6820  206.7480  154.1120 C   0  0  0  0  0  2  0  0  0  0  0  0
  160.4150  206.4390  154.6100 O   0  0  0  0  0  1  0  0  0  0  0  0
  1  7  1  0  0  0  0
  2  3  1  0  0  0  0
  3  9  1  6  0  0  0
  5  4  1  1  0  0  0
  5  3  1  0  0  0  0
  6  7  1  0  0  0  0
  6  2  1  0  0  0  0
  7 11  1  6  0  0  0
  7  5  1  0  0  0  0
  9  8  2  0  0  0  0
  9 10  1  0  0  0  0
 11 16  1  0  0  0  0
 12 14  1  0  0  0  0
 14 13  2  0  0  0  0
 15 17  2  0  0  0  0
 16 12  2  0  0  0  0
 16 15  1  0  0  0  0
 17 13  1  0  0  0  0
 18  1  1  0  0  0  0
 18 33  1  1  0  0  0
 19 31  1  0  0  0  0
 20 30  1  0  0  0  0
 21 23  1  0  0  0  0
 21 29  1  0  0  0  0
 22 21  1  0  0  0  0
 24 22  2  0  0  0  0
 25 23  1  6  0  0  0
 25 19  1  0  0  0  0
 25 28  1  0  0  0  0
 26 22  1  0  0  0  0
 28 27  1  6  0  0  0
 28 20  1  0  0  0  0
 29 27  1  0  0  0  0
 30 32  1  0  0  0  0
 31 32  1  0  0  0  0
 32 18  1  1  0  0  0
 33 34  1  0  0  0  0
M  END
>  <MODEL>
3

>  <REMARK>
 VINA RESULT:      -6.2      1.688      2.420
  Name = 
  7 active torsions:
  status: ('A' for Active; 'I' for Inactive)
    1  A    between atoms: C_1  and  C_20
    2  A    between atoms: C_1  and  C_34
    3  A    between atoms: O_5  and  C_18
    4  A    between atoms: O_5  and  C_34
    5  A    between atoms: C_8  and  C_18
    6  A    between atoms: C_13  and  C_23
    7  A    between atoms: C_18  and  C_33
                            x       y       z     vdW  Elec       q    Type
                         _______ _______ _______ _____ _____    ______ ____

>  <TORSDO>
F 7

$$$$
=
 OpenBabel11062409363D

 34 37  0  0  1  0  0  0  0  0999 V2000
  160.7140  208.4880  152.9070 O   0  0  0  0  0  0  0  0  0  0  0  0
  161.2310  211.1700  155.2700 C   0  0  0  0  0  2  0  0  0  0  0  0
  160.0870  211.6260  154.3810 C   0  0  1  0  0  3  0  0  0  0  0  0
  159.0700  210.5240  152.4440 O   0  0  0  0  0  1  0  0  0  0  0  0
  160.2740  210.9120  153.0420 C   0  0  2  0  0  3  0  0  0  0  0  0
  161.7190  209.8370  154.7240 C   0  0  0  0  0  2  0  0  0  0  0  0
  161.2650  209.7540  153.2570 C   0  0  1  0  0  0  0  0  0  0  0  0
  157.7200  212.2860  154.9160 O   0  0  0  0  0  0  0  0  0  0  0  0
  158.7650  211.3790  155.0450 C   0  0  0  0  0  0  0  0  0  0  0  0
  158.6010  210.3330  155.7240 O   0  0  0  0  0  1  0  0  0  0  0  0
  162.4920  209.9530  152.3510 C   0  0  0  0  0  2  0  0  0  0  0  0
  161.8660  211.5340  150.4920 C   0  0  0  0  0  3  0  0  0  0  0  0
  161.6330  210.7510  148.2120 C   0  0  0  0  0  3  0  0  0  0  0  0
  161.5880  211.7910  149.1450 C   0  0  0  0  0  3  0  0  0  0  0  0
  162.2340  209.1980  149.9720 C   0  0  0  0  0  3  0  0  0  0  0  0
  162.1870  210.2360  150.9080 C   0  0  0  0  0  0  0  0  0  0  0  0
  161.9560  209.4550  148.6250 C   0  0  0  0  0  3  0  0  0  0  0  0
  161.6160  207.4340  153.1660 C   0  0  2  0  0  3  0  0  0  0  0  0
  160.7530  206.0830  149.9350 C   0  0  0  0  0  2  0  0  0  0  0  0
  160.8310  204.1030  152.2840 C   0  0  0  0  0  2  0  0  0  0  0  0
  160.8310  202.6710  148.3270 N   0  0  0  0  0  0  0  0  0  0  0  0
  161.2180  202.0960  147.0740 C   0  0  0  0  0  0  0  0  0  0  0  0
  160.6540  204.1120  148.4550 C   0  0  0  0  0  2  0  0  0  0  0  0
  161.5150  202.8360  146.0980 O   0  0  0  0  0  0  0  0  0  0  0  0
  161.0840  204.5810  149.8450 C   0  0  2  0  0  3  0  0  0  0  0  0
  161.2680  200.7140  146.9220 O   0  0  0  0  0  1  0  0  0  0  0  0
  160.8410  202.3650  150.7340 C   0  0  0  0  0  2  0  0  0  0  0  0
  160.4360  203.7630  150.9020 N   0  0  1  0  0  0  0  0  0  0  0  0
  160.3450  201.8180  149.4040 C   0  0  0  0  0  2  0  0  0  0  0  0
  162.0290  205.0550  152.4100 C   0  0  0  0  0  2  0  0  0  0  0  0
  160.4680  206.5170  151.2380 O   0  0  0  0  0  0  0  0  0  0  0  0
  161.6730  206.4820  151.9650 C   0  0  1  0  0  3  0  0  0  0  0  0
  161.2540  206.7240  154.4730 C   0  0  0  0  0  2  0  0  0  0  0  0
  159.9210  206.9530  154.8180 O   0  0  0  0  0  1  0  0  0  0  0  0
  1 18  1  0  0  0  0
  1  7  1  0  0  0  0
  3  9  1  1  0  0  0
  3  2  1  0  0  0  0
  5  4  1  1  0  0  0
  5  7  1  0  0  0  0
  5  3  1  0  0  0  0
  6  2  1  0  0  0  0
  7 11  1  6  0  0  0
  7  6  1  0  0  0  0
  8  9  2  0  0  0  0
  9 10  1  0  0  0  0
 12 16  1  0  0  0  0
 13 17  2  0  0  0  0
 13 14  1  0  0  0  0
 14 12  2  0  0  0  0
 15 16  2  0  0  0  0
 16 11  1  0  0  0  0
 17 15  1  0  0  0  0
 18 33  1  1  0  0  0
 19 31  1  0  0  0  0
 20 30  1  0  0  0  0
 21 23  1  0  0  0  0
 21 29  1  0  0  0  0
 22 21  1  0  0  0  0
 24 22  2  0  0  0  0
 25 23  1  6  0  0  0
 25 19  1  0  0  0  0
 25 28  1  0  0  0  0
 26 22  1  0  0  0  0
 28 27  1  6  0  0  0
 28 20  1  0  0  0  0
 29 27  1  0  0  0  0
 31 32  1  0  0  0  0
 32 30  1  0  0  0  0
 32 18  1  1  0  0  0
 33 34  1  0  0  0  0
M  END
>  <MODEL>
4

>  <REMARK>
 VINA RESULT:      -6.1      1.873      3.447
  Name = 
  7 active torsions:
  status: ('A' for Active; 'I' for Inactive)
    1  A    between atoms: C_1  and  C_20
    2  A    between atoms: C_1  and  C_34
    3  A    between atoms: O_5  and  C_18
    4  A    between atoms: O_5  and  C_34
    5  A    between atoms: C_8  and  C_18
    6  A    between atoms: C_13  and  C_23
    7  A    between atoms: C_18  and  C_33
                            x       y       z     vdW  Elec       q    Type
                         _______ _______ _______ _____ _____    ______ ____

>  <TORSDO>
F 7

$$$$
=
 OpenBabel11062409363D

 34 37  0  0  1  0  0  0  0  0999 V2000
  160.8460  207.1180  148.4340 O   0  0  0  0  0  0  0  0  0  0  0  0
  162.4580  204.1380  147.1800 C   0  0  0  0  0  2  0  0  0  0  0  0
  161.3860  204.4800  146.1610 C   0  0  1  0  0  3  0  0  0  0  0  0
  159.7250  206.2810  146.1740 O   0  0  0  0  0  1  0  0  0  0  0  0
  160.3020  205.2460  146.9200 C   0  0  2  0  0  3  0  0  0  0  0  0
  162.3250  205.1350  148.3220 C   0  0  0  0  0  2  0  0  0  0  0  0
  160.8980  205.7050  148.2630 C   0  0  1  0  0  0  0  0  0  0  0  0
  161.3290  205.2350  143.7630 O   0  0  0  0  0  0  0  0  0  0  0  0
  161.9740  205.2150  144.9940 C   0  0  0  0  0  0  0  0  0  0  0  0
  163.0650  205.8250  145.1340 O   0  0  0  0  0  1  0  0  0  0  0  0
  160.0810  205.1020  149.4190 C   0  0  0  0  0  2  0  0  0  0  0  0
  160.3630  202.6090  149.1970 C   0  0  0  0  0  3  0  0  0  0  0  0
  161.5130  201.3270  150.9000 C   0  0  0  0  0  3  0  0  0  0  0  0
  160.8300  201.3820  149.6810 C   0  0  0  0  0  3  0  0  0  0  0  0
  161.2600  203.7230  151.1520 C   0  0  0  0  0  3  0  0  0  0  0  0
  160.5740  203.7820  149.9340 C   0  0  0  0  0  0  0  0  0  0  0  0
  161.7280  202.4960  151.6350 C   0  0  0  0  0  3  0  0  0  0  0  0
  161.8870  207.5840  149.2630 C   0  0  2  0  0  3  0  0  0  0  0  0
  161.5800  210.2340  151.6910 C   0  0  0  0  0  2  0  0  0  0  0  0
  161.5870  207.3590  152.7770 C   0  0  0  0  0  2  0  0  0  0  0  0
  160.2750  210.5260  155.2180 N   0  0  0  0  0  0  0  0  0  0  0  0
  159.4660  211.4300  155.9800 C   0  0  0  0  0  0  0  0  0  0  0  0
  160.8280  210.9340  153.9330 C   0  0  0  0  0  2  0  0  0  0  0  0
  159.1340  212.5470  155.5000 O   0  0  0  0  0  0  0  0  0  0  0  0
  160.8770  209.7460  152.9720 C   0  0  2  0  0  3  0  0  0  0  0  0
  159.0410  211.0830  157.2590 O   0  0  0  0  0  1  0  0  0  0  0  0
  160.7730  208.1890  154.7950 C   0  0  0  0  0  2  0  0  0  0  0  0
  161.5390  208.5790  153.6080 N   0  0  1  0  0  0  0  0  0  0  0  0
  160.7810  209.3040  155.8310 C   0  0  0  0  0  2  0  0  0  0  0  0
  160.7290  207.3960  151.5050 C   0  0  0  0  0  2  0  0  0  0  0  0
  162.2700  209.2200  151.0100 O   0  0  0  0  0  0  0  0  0  0  0  0
  161.3070  208.3560  150.4540 C   0  0  1  0  0  3  0  0  0  0  0  0
  162.8950  208.4050  148.4540 C   0  0  0  0  0  2  0  0  0  0  0  0
  162.4410  209.7110  148.2600 O   0  0  0  0  0  1  0  0  0  0  0  0
  1 18  1  0  0  0  0
  2  6  1  0  0  0  0
  3  9  1  6  0  0  0
  3  5  1  0  0  0  0
  3  2  1  0  0  0  0
  5  4  1  6  0  0  0
  5  7  1  0  0  0  0
  7  6  1  0  0  0  0
  7  1  1  0  0  0  0
  7 11  1  1  0  0  0
  8  9  2  0  0  0  0
  9 10  1  0  0  0  0
 11 16  1  0  0  0  0
 12 14  2  0  0  0  0
 12 16  1  0  0  0  0
 13 17  2  0  0  0  0
 14 13  1  0  0  0  0
 15 17  1  0  0  0  0
 16 15  2  0  0  0  0
 18 33  1  6  0  0  0
 21 29  1  0  0  0  0
 21 22  1  0  0  0  0
 22 26  1  0  0  0  0
 23 21  1  0  0  0  0
 24 22  2  0  0  0  0
 25 19  1  6  0  0  0
 25 28  1  0  0  0  0
 25 23  1  0  0  0  0
 27 29  1  0  0  0  0
 28 20  1  6  0  0  0
 28 27  1  0  0  0  0
 30 20  1  0  0  0  0
 31 19  1  0  0  0  0
 32 18  1  6  0  0  0
 32 31  1  0  0  0  0
 32 30  1  0  0  0  0
 34 33  1  0  0  0  0
M  END
>  <MODEL>
5

>  <REMARK>
 VINA RESULT:      -6.0      2.907      8.971
  Name = 
  7 active torsions:
  status: ('A' for Active; 'I' for Inactive)
    1  A    between atoms: C_1  and  C_20
    2  A    between atoms: C_1  and  C_34
    3  A    between atoms: O_5  and  C_18
    4  A    between atoms: O_5  and  C_34
    5  A    between atoms: C_8  and  C_18
    6  A    between atoms: C_13  and  C_23
    7  A    between atoms: C_18  and  C_33
                            x       y       z     vdW  Elec       q    Type
                         _______ _______ _______ _____ _____    ______ ____

>  <TORSDO>
F 7

$$$$
=
 OpenBabel11062409363D

 34 37  0  0  1  0  0  0  0  0999 V2000
  160.0890  208.3690  153.2550 O   0  0  0  0  0  0  0  0  0  0  0  0
  162.3300  210.7250  154.8270 C   0  0  0  0  0  2  0  0  0  0  0  0
  161.2980  210.3770  155.8860 C   0  0  1  0  0  3  0  0  0  0  0  0
  159.3320  208.9240  155.7420 O   0  0  0  0  0  1  0  0  0  0  0  0
  160.0320  209.9710  155.1320 C   0  0  2  0  0  3  0  0  0  0  0  0
  161.9200  210.0100  153.5490 C   0  0  0  0  0  2  0  0  0  0  0  0
  160.4200  209.6910  153.6690 C   0  0  1  0  0  0  0  0  0  0  0  0
  161.0270  208.2870  157.2570 O   0  0  0  0  0  1  0  0  0  0  0  0
  161.8290  209.3380  156.8270 C   0  0  0  0  0  0  0  0  0  0  0  0
  163.0180  209.4180  157.2290 O   0  0  0  0  0  0  0  0  0  0  0  0
  159.6410  210.6390  152.7410 C   0  0  0  0  0  2  0  0  0  0  0  0
  159.3150  212.9850  153.5990 C   0  0  0  0  0  3  0  0  0  0  0  0
  157.2680  213.6310  154.7190 C   0  0  0  0  0  3  0  0  0  0  0  0
  158.5410  213.9570  154.2420 C   0  0  0  0  0  3  0  0  0  0  0  0
  157.5430  211.3640  153.9100 C   0  0  0  0  0  3  0  0  0  0  0  0
  158.8190  211.6850  153.4350 C   0  0  0  0  0  0  0  0  0  0  0  0
  156.7680  212.3370  154.5530 C   0  0  0  0  0  3  0  0  0  0  0  0
  161.2400  207.6010  152.9820 C   0  0  2  0  0  3  0  0  0  0  0  0
  161.6120  204.8990  150.6210 C   0  0  0  0  0  2  0  0  0  0  0  0
  162.2020  207.7310  149.5840 C   0  0  0  0  0  2  0  0  0  0  0  0
  161.6030  204.5760  146.8630 N   0  0  0  0  0  0  0  0  0  0  0  0
  161.0490  203.7020  145.8730 C   0  0  0  0  0  0  0  0  0  0  0  0
  161.6420  204.1750  148.2640 C   0  0  0  0  0  2  0  0  0  0  0  0
  160.4910  202.6240  146.2160 O   0  0  0  0  0  1  0  0  0  0  0  0
  161.4370  205.3880  149.1710 C   0  0  2  0  0  3  0  0  0  0  0  0
  161.1230  204.0330  144.5240 O   0  0  0  0  0  0  0  0  0  0  0  0
  162.0860  206.8890  147.4150 C   0  0  0  0  0  2  0  0  0  0  0  0
  162.3610  206.4890  148.7980 N   0  0  1  0  0  0  0  0  0  0  0  0
  162.3760  205.7420  146.4570 C   0  0  0  0  0  2  0  0  0  0  0  0
  160.9530  207.7900  150.4750 C   0  0  0  0  0  2  0  0  0  0  0  0
  162.0910  205.8880  151.4930 O   0  0  0  0  0  0  0  0  0  0  0  0
  161.0580  206.8290  151.6690 C   0  0  1  0  0  3  0  0  0  0  0  0
  161.5760  206.6920  154.1660 C   0  0  0  0  0  2  0  0  0  0  0  0
  160.4170  206.2250  154.7880 O   0  0  0  0  0  1  0  0  0  0  0  0
  1  7  1  0  0  0  0
  2  3  1  0  0  0  0
  3  9  1  6  0  0  0
  5  4  1  1  0  0  0
  5  3  1  0  0  0  0
  6  7  1  0  0  0  0
  6  2  1  0  0  0  0
  7 11  1  6  0  0  0
  7  5  1  0  0  0  0
  9 10  2  0  0  0  0
  9  8  1  0  0  0  0
 11 16  1  0  0  0  0
 12 14  1  0  0  0  0
 14 13  2  0  0  0  0
 15 17  2  0  0  0  0
 16 12  2  0  0  0  0
 16 15  1  0  0  0  0
 17 13  1  0  0  0  0
 18  1  1  0  0  0  0
 18 33  1  1  0  0  0
 19 31  1  0  0  0  0
 20 30  1  0  0  0  0
 21 23  1  0  0  0  0
 22 24  1  0  0  0  0
 22 21  1  0  0  0  0
 25 23  1  6  0  0  0
 25 19  1  0  0  0  0
 26 22  2  0  0  0  0
 28 27  1  6  0  0  0
 28 25  1  0  0  0  0
 28 20  1  0  0  0  0
 29 21  1  0  0  0  0
 29 27  1  0  0  0  0
 30 32  1  0  0  0  0
 31 32  1  0  0  0  0
 32 18  1  1  0  0  0
 33 34  1  0  0  0  0
M  END
>  <MODEL>
6

>  <REMARK>
 VINA RESULT:      -6.0      1.824      2.777
  Name = 
  7 active torsions:
  status: ('A' for Active; 'I' for Inactive)
    1  A    between atoms: C_1  and  C_20
    2  A    between atoms: C_1  and  C_34
    3  A    between atoms: O_5  and  C_18
    4  A    between atoms: O_5  and  C_34
    5  A    between atoms: C_8  and  C_18
    6  A    between atoms: C_13  and  C_23
    7  A    between atoms: C_18  and  C_33
                            x       y       z     vdW  Elec       q    Type
                         _______ _______ _______ _____ _____    ______ ____

>  <TORSDO>
F 7

$$$$
=
 OpenBabel11062409363D

 34 37  0  0  1  0  0  0  0  0999 V2000
  161.9190  206.6900  148.8970 O   0  0  0  0  0  0  0  0  0  0  0  0
  161.9450  203.7820  146.7540 C   0  0  0  0  0  2  0  0  0  0  0  0
  161.0920  204.8110  146.0330 C   0  0  1  0  0  3  0  0  0  0  0  0
  160.4270  207.0640  146.7290 O   0  0  0  0  0  1  0  0  0  0  0  0
  160.5120  205.7220  147.1160 C   0  0  2  0  0  3  0  0  0  0  0  0
  162.3340  204.3840  148.0960 C   0  0  0  0  0  2  0  0  0  0  0  0
  161.3180  205.4950  148.4070 C   0  0  1  0  0  0  0  0  0  0  0  0
  161.3270  205.8290  143.7450 O   0  0  0  0  0  0  0  0  0  0  0  0
  161.8890  205.5200  144.9780 C   0  0  0  0  0  0  0  0  0  0  0  0
  163.0810  205.8410  145.2170 O   0  0  0  0  0  1  0  0  0  0  0  0
  160.3760  205.0010  149.5200 C   0  0  0  0  0  2  0  0  0  0  0  0
  161.2480  203.3580  151.2180 C   0  0  0  0  0  3  0  0  0  0  0  0
  161.0530  200.9710  150.8610 C   0  0  0  0  0  3  0  0  0  0  0  0
  161.4670  202.0460  151.6530 C   0  0  0  0  0  3  0  0  0  0  0  0
  160.2040  202.5180  149.2010 C   0  0  0  0  0  3  0  0  0  0  0  0
  160.6190  203.5970  149.9890 C   0  0  0  0  0  0  0  0  0  0  0  0
  160.4220  201.2060  149.6360 C   0  0  0  0  0  3  0  0  0  0  0  0
  161.9010  206.7470  150.3060 C   0  0  2  0  0  3  0  0  0  0  0  0
  161.4450  210.2930  150.7840 C   0  0  0  0  0  2  0  0  0  0  0  0
  161.1430  208.5130  153.2710 C   0  0  0  0  0  2  0  0  0  0  0  0
  159.7210  212.4750  153.3340 N   0  0  0  0  0  0  0  0  0  0  0  0
  158.8770  213.6310  153.3450 C   0  0  0  0  0  0  0  0  0  0  0  0
  160.4570  212.1080  152.1290 C   0  0  0  0  0  2  0  0  0  0  0  0
  158.6760  214.2830  152.2850 O   0  0  0  0  0  0  0  0  0  0  0  0
  160.5570  210.5880  152.0080 C   0  0  2  0  0  3  0  0  0  0  0  0
  158.2730  214.0480  154.5270 O   0  0  0  0  0  1  0  0  0  0  0  0
  160.1290  210.3100  154.3520 C   0  0  0  0  0  2  0  0  0  0  0  0
  161.0620  209.9890  153.2690 N   0  0  1  0  0  0  0  0  0  0  0  0
  160.0710  211.8130  154.5840 C   0  0  0  0  0  2  0  0  0  0  0  0
  160.4570  207.8160  152.0880 C   0  0  0  0  0  2  0  0  0  0  0  0
  162.1550  209.0870  150.8840 O   0  0  0  0  0  0  0  0  0  0  0  0
  161.2210  208.0390  150.7730 C   0  0  1  0  0  3  0  0  0  0  0  0
  163.3140  206.5790  150.8710 C   0  0  0  0  0  2  0  0  0  0  0  0
  163.2980  205.8380  152.0540 O   0  0  0  0  0  1  0  0  0  0  0  0
  1 18  1  0  0  0  0
  2  6  1  0  0  0  0
  3  9  1  6  0  0  0
  3  2  1  0  0  0  0
  3  5  1  0  0  0  0
  5  4  1  6  0  0  0
  5  7  1  0  0  0  0
  6  7  1  0  0  0  0
  7  1  1  0  0  0  0
  7 11  1  1  0  0  0
  8  9  2  0  0  0  0
  9 10  1  0  0  0  0
 11 16  1  0  0  0  0
 12 14  1  0  0  0  0
 13 14  2  0  0  0  0
 15 17  2  0  0  0  0
 15 16  1  0  0  0  0
 16 12  2  0  0  0  0
 17 13  1  0  0  0  0
 18 33  1  6  0  0  0
 19 31  1  0  0  0  0
 21 22  1  0  0  0  0
 21 29  1  0  0  0  0
 22 26  1  0  0  0  0
 23 21  1  0  0  0  0
 24 22  2  0  0  0  0
 25 19  1  6  0  0  0
 25 23  1  0  0  0  0
 25 28  1  0  0  0  0
 27 29  1  0  0  0  0
 28 20  1  6  0  0  0
 28 27  1  0  0  0  0
 30 20  1  0  0  0  0
 32 18  1  1  0  0  0
 32 31  1  0  0  0  0
 32 30  1  0  0  0  0
 33 34  1  0  0  0  0
M  END
>  <MODEL>
7

>  <REMARK>
 VINA RESULT:      -5.7      3.083      9.276
  Name = 
  7 active torsions:
  status: ('A' for Active; 'I' for Inactive)
    1  A    between atoms: C_1  and  C_20
    2  A    between atoms: C_1  and  C_34
    3  A    between atoms: O_5  and  C_18
    4  A    between atoms: O_5  and  C_34
    5  A    between atoms: C_8  and  C_18
    6  A    between atoms: C_13  and  C_23
    7  A    between atoms: C_18  and  C_33
                            x       y       z     vdW  Elec       q    Type
                         _______ _______ _______ _____ _____    ______ ____

>  <TORSDO>
F 7

$$$$
=
 OpenBabel11062409363D

 34 37  0  0  1  0  0  0  0  0999 V2000
  160.5760  208.9060  152.0040 O   0  0  0  0  0  0  0  0  0  0  0  0
  161.6410  210.8890  154.8300 C   0  0  0  0  0  2  0  0  0  0  0  0
  160.3840  211.5640  154.3090 C   0  0  1  0  0  3  0  0  0  0  0  0
  158.9860  211.0020  152.3770 O   0  0  0  0  0  1  0  0  0  0  0  0
  160.2960  211.2170  152.8230 C   0  0  2  0  0  3  0  0  0  0  0  0
  161.9540  209.7380  153.8860 C   0  0  0  0  0  2  0  0  0  0  0  0
  161.2460  210.0370  152.5540 C   0  0  1  0  0  0  0  0  0  0  0  0
  158.1310  212.0430  155.3190 O   0  0  0  0  0  0  0  0  0  0  0  0
  159.1880  211.1620  155.1200 C   0  0  0  0  0  0  0  0  0  0  0  0
  159.1410  210.0100  155.6220 O   0  0  0  0  0  1  0  0  0  0  0  0
  162.3040  210.4550  151.5180 C   0  0  0  0  0  2  0  0  0  0  0  0
  161.0410  212.3910  150.5180 C   0  0  0  0  0  3  0  0  0  0  0  0
  160.8190  212.6300  148.1180 C   0  0  0  0  0  3  0  0  0  0  0  0
  160.5590  213.0970  149.4100 C   0  0  0  0  0  3  0  0  0  0  0  0
  162.0400  210.7520  149.0410 C   0  0  0  0  0  3  0  0  0  0  0  0
  161.7790  211.2140  150.3350 C   0  0  0  0  0  0  0  0  0  0  0  0
  161.5590  211.4580  147.9330 C   0  0  0  0  0  3  0  0  0  0  0  0
  161.2200  207.6980  152.3460 C   0  0  2  0  0  3  0  0  0  0  0  0
  161.5830  204.5630  150.6000 C   0  0  0  0  0  2  0  0  0  0  0  0
  161.9350  207.1220  148.9340 C   0  0  0  0  0  2  0  0  0  0  0  0
  161.3320  203.4260  147.0110 N   0  0  0  0  0  0  0  0  0  0  0  0
  160.7620  202.3350  146.2800 C   0  0  0  0  0  0  0  0  0  0  0  0
  161.4910  203.3440  148.4580 C   0  0  0  0  0  2  0  0  0  0  0  0
  160.2930  201.3360  146.8900 O   0  0  0  0  0  1  0  0  0  0  0  0
  161.2800  204.7160  149.0970 C   0  0  2  0  0  3  0  0  0  0  0  0
  160.7230  202.3660  144.8900 O   0  0  0  0  0  0  0  0  0  0  0  0
  161.7180  205.8220  147.0130 C   0  0  0  0  0  2  0  0  0  0  0  0
  162.1100  205.7470  148.4230 N   0  0  1  0  0  0  0  0  0  0  0  0
  162.0060  204.5070  146.3030 C   0  0  0  0  0  2  0  0  0  0  0  0
  160.7490  207.3220  149.8880 C   0  0  0  0  0  2  0  0  0  0  0  0
  162.0640  205.7380  151.1970 O   0  0  0  0  0  0  0  0  0  0  0  0
  160.9930  206.6510  151.2490 C   0  0  1  0  0  3  0  0  0  0  0  0
  160.7690  207.2200  153.7290 C   0  0  0  0  0  2  0  0  0  0  0  0
  161.1580  205.8980  153.9560 O   0  0  0  0  0  1  0  0  0  0  0  0
  1 18  1  0  0  0  0
  1  7  1  0  0  0  0
  3  2  1  0  0  0  0
  3  9  1  1  0  0  0
  5  4  1  1  0  0  0
  5  3  1  0  0  0  0
  6  2  1  0  0  0  0
  7 11  1  6  0  0  0
  7  5  1  0  0  0  0
  7  6  1  0  0  0  0
  9  8  2  0  0  0  0
  9 10  1  0  0  0  0
 13 14  1  0  0  0  0
 14 12  2  0  0  0  0
 15 16  2  0  0  0  0
 16 12  1  0  0  0  0
 16 11  1  0  0  0  0
 17 13  2  0  0  0  0
 17 15  1  0  0  0  0
 18 33  1  1  0  0  0
 19 31  1  0  0  0  0
 20 30  1  0  0  0  0
 21 23  1  0  0  0  0
 22 24  1  0  0  0  0
 22 21  1  0  0  0  0
 25 23  1  6  0  0  0
 25 19  1  0  0  0  0
 26 22  2  0  0  0  0
 28 27  1  6  0  0  0
 28 20  1  0  0  0  0
 28 25  1  0  0  0  0
 29 21  1  0  0  0  0
 29 27  1  0  0  0  0
 30 32  1  0  0  0  0
 31 32  1  0  0  0  0
 32 18  1  1  0  0  0
 33 34  1  0  0  0  0
M  END
>  <MODEL>
8

>  <REMARK>
 VINA RESULT:      -5.6      2.266      3.662
  Name = 
  7 active torsions:
  status: ('A' for Active; 'I' for Inactive)
    1  A    between atoms: C_1  and  C_20
    2  A    between atoms: C_1  and  C_34
    3  A    between atoms: O_5  and  C_18
    4  A    between atoms: O_5  and  C_34
    5  A    between atoms: C_8  and  C_18
    6  A    between atoms: C_13  and  C_23
    7  A    between atoms: C_18  and  C_33
                            x       y       z     vdW  Elec       q    Type
                         _______ _______ _______ _____ _____    ______ ____

>  <TORSDO>
F 7

$$$$
=
 OpenBabel11062409363D

 34 37  0  0  1  0  0  0  0  0999 V2000
  161.0870  207.1330  148.4840 O   0  0  0  0  0  0  0  0  0  0  0  0
  162.3390  204.0710  147.0350 C   0  0  0  0  0  2  0  0  0  0  0  0
  161.3060  204.5920  146.0520 C   0  0  1  0  0  3  0  0  0  0  0  0
  159.8620  206.5660  146.1950 O   0  0  0  0  0  1  0  0  0  0  0  0
  160.3220  205.4300  146.8700 C   0  0  2  0  0  3  0  0  0  0  0  0
  162.3290  205.0050  148.2350 C   0  0  0  0  0  2  0  0  0  0  0  0
  160.9760  205.7360  148.2290 C   0  0  1  0  0  0  0  0  0  0  0  0
  161.3340  205.4580  143.6920 O   0  0  0  0  0  0  0  0  0  0  0  0
  161.9660  205.3250  144.9230 C   0  0  0  0  0  0  0  0  0  0  0  0
  163.1060  205.8270  145.0950 O   0  0  0  0  0  1  0  0  0  0  0  0
  160.1040  205.1620  149.3600 C   0  0  0  0  0  2  0  0  0  0  0  0
  161.3410  203.9520  151.1900 C   0  0  0  0  0  3  0  0  0  0  0  0
  161.5600  201.5400  151.1650 C   0  0  0  0  0  3  0  0  0  0  0  0
  161.8130  202.7720  151.7750 C   0  0  0  0  0  3  0  0  0  0  0  0
  160.3640  202.6660  149.3840 C   0  0  0  0  0  3  0  0  0  0  0  0
  160.6180  203.9010  149.9910 C   0  0  0  0  0  0  0  0  0  0  0  0
  160.8360  201.4870  149.9710 C   0  0  0  0  0  3  0  0  0  0  0  0
  162.3270  207.4620  149.0700 C   0  0  2  0  0  3  0  0  0  0  0  0
  160.8710  207.4420  152.3700 C   0  0  0  0  0  2  0  0  0  0  0  0
  161.1840  210.1820  151.0140 C   0  0  0  0  0  2  0  0  0  0  0  0
  160.4560  209.9540  155.1530 N   0  0  0  0  0  0  0  0  0  0  0  0
  160.5990  209.9940  156.5780 C   0  0  0  0  0  0  0  0  0  0  0  0
  160.4020  208.6770  154.4520 C   0  0  0  0  0  2  0  0  0  0  0  0
  160.7870  208.9310  157.2290 O   0  0  0  0  0  0  0  0  0  0  0  0
  161.0780  208.7900  153.0860 C   0  0  2  0  0  3  0  0  0  0  0  0
  160.5280  211.2070  157.2560 O   0  0  0  0  0  1  0  0  0  0  0  0
  160.8280  211.1760  153.0900 C   0  0  0  0  0  2  0  0  0  0  0  0
  160.5520  209.9550  152.3300 N   0  0  1  0  0  0  0  0  0  0  0  0
  160.0900  211.1600  154.4210 C   0  0  0  0  0  2  0  0  0  0  0  0
  162.4500  209.3570  150.7420 C   0  0  0  0  0  2  0  0  0  0  0  0
  160.8270  207.5510  150.9720 O   0  0  0  0  0  0  0  0  0  0  0  0
  162.1270  207.8690  150.5340 C   0  0  1  0  0  3  0  0  0  0  0  0
  163.0450  208.5350  148.2460 C   0  0  0  0  0  2  0  0  0  0  0  0
  162.1910  209.5980  147.9500 O   0  0  0  0  0  1  0  0  0  0  0  0
  1 18  1  0  0  0  0
  2  6  1  0  0  0  0
  3  9  1  6  0  0  0
  3  5  1  0  0  0  0
  3  2  1  0  0  0  0
  5  4  1  6  0  0  0
  5  7  1  0  0  0  0
  7  6  1  0  0  0  0
  7  1  1  0  0  0  0
  7 11  1  1  0  0  0
  8  9  2  0  0  0  0
  9 10  1  0  0  0  0
 11 16  1  0  0  0  0
 12 14  1  0  0  0  0
 13 14  2  0  0  0  0
 15 17  2  0  0  0  0
 15 16  1  0  0  0  0
 16 12  2  0  0  0  0
 17 13  1  0  0  0  0
 18 33  1  6  0  0  0
 21 22  1  0  0  0  0
 22 24  2  0  0  0  0
 22 26  1  0  0  0  0
 23 21  1  0  0  0  0
 25 19  1  6  0  0  0
 25 23  1  0  0  0  0
 27 29  1  0  0  0  0
 28 20  1  6  0  0  0
 28 25  1  0  0  0  0
 28 27  1  0  0  0  0
 29 21  1  0  0  0  0
 30 20  1  0  0  0  0
 31 19  1  0  0  0  0
 32 18  1  6  0  0  0
 32 30  1  0  0  0  0
 32 31  1  0  0  0  0
 34 33  1  0  0  0  0
M  END
>  <MODEL>
9

>  <REMARK>
 VINA RESULT:      -5.3      2.737      8.892
  Name = 
  7 active torsions:
  status: ('A' for Active; 'I' for Inactive)
    1  A    between atoms: C_1  and  C_20
    2  A    between atoms: C_1  and  C_34
    3  A    between atoms: O_5  and  C_18
    4  A    between atoms: O_5  and  C_34
    5  A    between atoms: C_8  and  C_18
    6  A    between atoms: C_13  and  C_23
    7  A    between atoms: C_18  and  C_33
                            x       y       z     vdW  Elec       q    Type
                         _______ _______ _______ _____ _____    ______ ____

>  <TORSDO>
F 7

$$$$
