=
 OpenBabel11062408283D

 32 37  0  0  1  0  0  0  0  0999 V2000
  161.4920  208.1080  151.6390 C   0  0  1  0  0  3  0  0  0  0  0  0
  161.4260  206.1510  149.9270 C   0  0  0  0  0  0  0  0  0  0  0  0
  161.9850  209.5580  151.7880 C   0  0  0  0  0  2  0  0  0  0  0  0
  161.6520  207.5230  150.2300 C   0  0  0  0  0  0  0  0  0  0  0  0
  161.5920  205.6820  148.5940 C   0  0  0  0  0  0  0  0  0  0  0  0
  160.2400  201.6470  151.3120 C   0  0  0  0  0  3  0  0  0  0  0  0
  161.0330  205.2370  150.9170 C   0  0  0  0  0  3  0  0  0  0  0  0
  160.7900  202.0830  148.9940 C   0  0  0  0  0  3  0  0  0  0  0  0
  160.9990  203.4320  149.2970 C   0  0  0  0  0  0  0  0  0  0  0  0
  161.9270  208.4090  149.1600 C   0  0  0  0  0  0  0  0  0  0  0  0
  161.3770  204.3250  148.2980 C   0  0  0  0  0  3  0  0  0  0  0  0
  162.0930  207.9330  147.8610 C   0  0  0  0  0  3  0  0  0  0  0  0
  162.0020  209.8180  149.3830 N   0  0  0  0  0  2  0  0  0  0  0  0
  160.8200  203.8920  150.6170 C   0  0  0  0  0  0  0  0  0  0  0  0
  161.9430  206.5800  147.5690 C   0  0  0  0  0  0  0  0  0  0  0  0
  161.5200  210.4060  150.6230 C   0  0  0  0  0  2  0  0  0  0  0  0
  160.4110  201.1920  150.0010 C   0  0  0  0  0  3  0  0  0  0  0  0
  160.4430  202.9970  151.6210 C   0  0  0  0  0  3  0  0  0  0  0  0
  161.7300  207.6810  154.2300 C   0  0  1  0  0  3  0  0  0  0  0  0
  160.7910  206.8290  153.6120 O   0  0  0  0  0  0  0  0  0  0  0  0
  161.9010  207.1900  152.8230 C   0  0  1  0  0  3  0  0  0  0  0  0
  161.7020  209.8510  155.6180 C   0  0  2  0  0  0  0  0  0  0  0  0
  158.4290  210.1820  156.3130 O   0  0  0  0  0  1  0  0  0  0  0  0
  161.9830  208.9190  156.7940 C   0  0  0  0  0  1  0  0  0  0  0  0
  159.6800  209.1210  154.5900 C   0  0  0  0  0  2  0  0  0  0  0  0
  160.6640  210.7950  156.0290 N   0  0  0  0  0  2  0  0  0  0  0  0
  161.1700  209.1070  154.3880 C   0  0  2  0  0  3  0  0  0  0  0  0
  159.4260  210.3970  155.3620 C   0  0  2  0  0  3  0  0  0  0  0  0
  162.9880  210.5960  155.2810 C   0  0  0  0  0  2  0  0  0  0  0  0
  163.6810  210.9520  156.4410 O   0  0  0  0  0  1  0  0  0  0  0  0
  162.1690  206.1300  146.1600 C   0  0  0  0  0  2  0  0  0  0  0  0
  160.8500  206.0480  145.4190 C   0  0  0  0  0  1  0  0  0  0  0  0
  1  3  1  6  0  0  0
  1 21  1  0  0  0  0
  2  4  1  0  0  0  0
  2  7  1  0  0  0  0
  4  1  1  0  0  0  0
  5  2  2  0  0  0  0
  6 18  2  0  0  0  0
  8  9  1  0  0  0  0
  8 17  2  0  0  0  0
  9 14  1  0  0  0  0
 10 13  1  0  0  0  0
 10  4  2  0  0  0  0
 11  5  1  0  0  0  0
 11  9  2  0  0  0  0
 12 10  1  0  0  0  0
 13 16  1  0  0  0  0
 14  7  2  0  0  0  0
 14 18  1  0  0  0  0
 15 12  2  0  0  0  0
 15  5  1  0  0  0  0
 16  3  1  0  0  0  0
 17  6  1  0  0  0  0
 19 20  1  1  0  0  0
 19 27  1  0  0  0  0
 21 20  1  1  0  0  0
 21 19  1  0  0  0  0
 22 26  1  0  0  0  0
 22 24  1  1  0  0  0
 25 28  1  0  0  0  0
 27 25  1  1  0  0  0
 27 22  1  0  0  0  0
 28 26  1  0  0  0  0
 28 23  1  1  0  0  0
 29 22  1  0  0  0  0
 29 30  1  0  0  0  0
 31 15  1  0  0  0  0
 32 31  1  0  0  0  0
M  END
>  <MODEL>
1

>  <REMARK>
 VINA RESULT:      -8.8      0.000      0.000
  Name = 
  4 active torsions:
  status: ('A' for Active; 'I' for Inactive)
    1  A    between atoms: C_1  and  C_27
    2  A    between atoms: C_3  and  C_22
    3  A    between atoms: C_13  and  C_29
    4  A    between atoms: C_16  and  C_20
                            x       y       z     vdW  Elec       q    Type
                         _______ _______ _______ _____ _____    ______ ____

>  <TORSDO>
F 4

$$$$
=
 OpenBabel11062408283D

 32 37  0  0  1  0  0  0  0  0999 V2000
  161.6780  209.1170  149.6050 C   0  0  1  0  0  3  0  0  0  0  0  0
  161.2140  207.8240  151.8140 C   0  0  0  0  0  0  0  0  0  0  0  0
  162.2050  208.9030  148.1750 C   0  0  0  0  0  2  0  0  0  0  0  0
  161.5150  207.8300  150.4230 C   0  0  0  0  0  0  0  0  0  0  0  0
  161.0750  206.5880  152.5050 C   0  0  0  0  0  0  0  0  0  0  0  0
  160.3240  210.1900  155.9630 C   0  0  0  0  0  3  0  0  0  0  0  0
  161.0430  209.0190  152.5320 C   0  0  0  0  0  3  0  0  0  0  0  0
  160.3480  207.7690  155.9460 C   0  0  0  0  0  3  0  0  0  0  0  0
  160.6320  207.7810  154.5770 C   0  0  0  0  0  0  0  0  0  0  0  0
  161.5530  206.5890  149.7410 C   0  0  0  0  0  0  0  0  0  0  0  0
  160.7860  206.5850  153.8800 C   0  0  0  0  0  3  0  0  0  0  0  0
  161.4210  205.3870  150.4340 C   0  0  0  0  0  3  0  0  0  0  0  0
  161.6890  206.5430  148.3200 N   0  0  0  0  0  2  0  0  0  0  0  0
  160.7560  209.0090  153.8960 C   0  0  0  0  0  0  0  0  0  0  0  0
  161.1970  205.3730  151.8070 C   0  0  0  0  0  0  0  0  0  0  0  0
  161.5010  207.7380  147.5120 C   0  0  0  0  0  2  0  0  0  0  0  0
  160.1940  208.9720  156.6380 C   0  0  0  0  0  3  0  0  0  0  0  0
  160.6040  210.2100  154.5930 C   0  0  0  0  0  3  0  0  0  0  0  0
  162.2640  211.6860  149.7070 C   0  0  1  0  0  3  0  0  0  0  0  0
  161.3730  211.2800  150.7240 O   0  0  0  0  0  0  0  0  0  0  0  0
  162.3320  210.3240  150.3320 C   0  0  1  0  0  3  0  0  0  0  0  0
  162.0180  212.9450  147.4740 C   0  0  2  0  0  0  0  0  0  0  0  0
  158.7400  213.6930  147.4620 O   0  0  0  0  0  1  0  0  0  0  0  0
  162.4190  214.1670  148.2970 C   0  0  0  0  0  1  0  0  0  0  0  0
  160.0730  212.0080  148.4820 C   0  0  0  0  0  2  0  0  0  0  0  0
  160.8880  213.3230  146.6260 N   0  0  0  0  0  2  0  0  0  0  0  0
  161.5520  211.7730  148.3450 C   0  0  2  0  0  3  0  0  0  0  0  0
  159.6920  212.7090  147.1970 C   0  0  2  0  0  3  0  0  0  0  0  0
  163.2080  212.5360  146.6140 C   0  0  0  0  0  2  0  0  0  0  0  0
  163.0610  212.9950  145.3030 O   0  0  0  0  0  1  0  0  0  0  0  0
  161.1000  204.0480  152.4950 C   0  0  0  0  0  2  0  0  0  0  0  0
  161.1400  202.9250  151.4770 C   0  0  0  0  0  1  0  0  0  0  0  0
  1  3  1  6  0  0  0
  1 21  1  0  0  0  0
  1  4  1  0  0  0  0
  2  5  2  0  0  0  0
  2  7  1  0  0  0  0
  4  2  1  0  0  0  0
  5 11  1  0  0  0  0
  6 17  1  0  0  0  0
  7 14  2  0  0  0  0
  8 17  2  0  0  0  0
  9  8  1  0  0  0  0
 10  4  2  0  0  0  0
 10 12  1  0  0  0  0
 11  9  2  0  0  0  0
 12 15  2  0  0  0  0
 13 10  1  0  0  0  0
 14  9  1  0  0  0  0
 14 18  1  0  0  0  0
 15 31  1  0  0  0  0
 15  5  1  0  0  0  0
 16  3  1  0  0  0  0
 16 13  1  0  0  0  0
 18  6  2  0  0  0  0
 19 21  1  0  0  0  0
 19 20  1  1  0  0  0
 21 20  1  1  0  0  0
 22 24  1  1  0  0  0
 22 27  1  0  0  0  0
 26 28  1  0  0  0  0
 26 22  1  0  0  0  0
 27 25  1  1  0  0  0
 27 19  1  0  0  0  0
 28 23  1  1  0  0  0
 28 25  1  0  0  0  0
 29 22  1  0  0  0  0
 30 29  1  0  0  0  0
 32 31  1  0  0  0  0
M  END
>  <MODEL>
2

>  <REMARK>
 VINA RESULT:      -6.9      3.481      6.825
  Name = 
  4 active torsions:
  status: ('A' for Active; 'I' for Inactive)
    1  A    between atoms: C_1  and  C_27
    2  A    between atoms: C_3  and  C_22
    3  A    between atoms: C_13  and  C_29
    4  A    between atoms: C_16  and  C_20
                            x       y       z     vdW  Elec       q    Type
                         _______ _______ _______ _____ _____    ______ ____

>  <TORSDO>
F 4

$$$$
=
 OpenBabel11062408283D

 32 37  0  0  1  0  0  0  0  0999 V2000
  161.4980  206.7920  151.6850 C   0  0  1  0  0  3  0  0  0  0  0  0
  161.2940  204.9690  149.8390 C   0  0  0  0  0  0  0  0  0  0  0  0
  161.1240  207.0620  153.1520 C   0  0  0  0  0  2  0  0  0  0  0  0
  161.1910  205.3690  151.2010 C   0  0  0  0  0  0  0  0  0  0  0  0
  160.9950  203.6290  149.4670 C   0  0  0  0  0  0  0  0  0  0  0  0
  162.2530  205.9950  145.1870 C   0  0  0  0  0  3  0  0  0  0  0  0
  161.6930  205.8710  148.8400 C   0  0  0  0  0  3  0  0  0  0  0  0
  161.5640  203.7570  145.8040 C   0  0  0  0  0  3  0  0  0  0  0  0
  161.4750  204.1520  147.1420 C   0  0  0  0  0  0  0  0  0  0  0  0
  160.9010  204.3760  152.1690 C   0  0  0  0  0  0  0  0  0  0  0  0
  161.0890  203.2400  148.1200 C   0  0  0  0  0  3  0  0  0  0  0  0
  160.6040  203.0690  151.7880 C   0  0  0  0  0  3  0  0  0  0  0  0
  160.9450  204.6850  153.5640 N   0  0  0  0  0  2  0  0  0  0  0  0
  161.7860  205.4780  147.5050 C   0  0  0  0  0  0  0  0  0  0  0  0
  160.6340  202.6890  150.4490 C   0  0  0  0  0  0  0  0  0  0  0  0
  161.5600  205.9140  154.0380 C   0  0  0  0  0  2  0  0  0  0  0  0
  161.9520  204.6780  144.8280 C   0  0  0  0  0  3  0  0  0  0  0  0
  162.1710  206.3970  146.5250 C   0  0  0  0  0  3  0  0  0  0  0  0
  160.8090  209.3060  151.2880 C   0  0  1  0  0  3  0  0  0  0  0  0
  162.0710  208.9840  150.7430 O   0  0  0  0  0  0  0  0  0  0  0  0
  161.1140  207.9500  150.7230 C   0  0  1  0  0  3  0  0  0  0  0  0
  160.2480  210.7200  153.3660 C   0  0  2  0  0  0  0  0  0  0  0  0
  163.2790  211.1180  154.7670 O   0  0  0  0  0  1  0  0  0  0  0  0
  160.3990  211.9010  152.4110 C   0  0  0  0  0  1  0  0  0  0  0  0
  162.2950  209.5000  153.3280 C   0  0  0  0  0  2  0  0  0  0  0  0
  160.9510  211.0490  154.6050 N   0  0  0  0  0  2  0  0  0  0  0  0
  160.8810  209.4350  152.8210 C   0  0  2  0  0  3  0  0  0  0  0  0
  162.1830  210.2660  154.6280 C   0  0  2  0  0  3  0  0  0  0  0  0
  158.7640  210.5140  153.6410 C   0  0  0  0  0  2  0  0  0  0  0  0
  158.0960  211.7380  153.7350 O   0  0  0  0  0  1  0  0  0  0  0  0
  160.2700  201.2790  150.1050 C   0  0  0  0  0  2  0  0  0  0  0  0
  161.3420  200.6610  149.2290 C   0  0  0  0  0  1  0  0  0  0  0  0
  1  3  1  1  0  0  0
  2  4  2  0  0  0  0
  3 16  1  0  0  0  0
  4  1  1  0  0  0  0
  4 10  1  0  0  0  0
  5  2  1  0  0  0  0
  5 15  2  0  0  0  0
  6 18  2  0  0  0  0
  7  2  1  0  0  0  0
  8  9  1  0  0  0  0
  9 14  1  0  0  0  0
  9 11  2  0  0  0  0
 10 13  1  0  0  0  0
 11  5  1  0  0  0  0
 12 10  2  0  0  0  0
 13 16  1  0  0  0  0
 14  7  2  0  0  0  0
 15 12  1  0  0  0  0
 17  6  1  0  0  0  0
 17  8  2  0  0  0  0
 18 14  1  0  0  0  0
 19 20  1  6  0  0  0
 19 27  1  0  0  0  0
 21 20  1  6  0  0  0
 21 19  1  0  0  0  0
 21  1  1  0  0  0  0
 22 24  1  6  0  0  0
 22 29  1  0  0  0  0
 22 26  1  0  0  0  0
 25 28  1  0  0  0  0
 26 28  1  0  0  0  0
 27 25  1  6  0  0  0
 27 22  1  0  0  0  0
 28 23  1  6  0  0  0
 29 30  1  0  0  0  0
 31 15  1  0  0  0  0
 32 31  1  0  0  0  0
M  END
>  <MODEL>
3

>  <REMARK>
 VINA RESULT:      -6.4      1.956      4.468
  Name = 
  4 active torsions:
  status: ('A' for Active; 'I' for Inactive)
    1  A    between atoms: C_1  and  C_27
    2  A    between atoms: C_3  and  C_22
    3  A    between atoms: C_13  and  C_29
    4  A    between atoms: C_16  and  C_20
                            x       y       z     vdW  Elec       q    Type
                         _______ _______ _______ _____ _____    ______ ____

>  <TORSDO>
F 4

$$$$
=
 OpenBabel11062408283D

 32 37  0  0  1  0  0  0  0  0999 V2000
  161.0000  208.8310  153.3140 C   0  0  1  0  0  3  0  0  0  0  0  0
  161.0580  206.8070  151.6800 C   0  0  0  0  0  0  0  0  0  0  0  0
  160.6610  209.1880  154.7720 C   0  0  0  0  0  2  0  0  0  0  0  0
  160.9540  207.3300  153.0000 C   0  0  0  0  0  0  0  0  0  0  0  0
  161.0100  205.4010  151.4670 C   0  0  0  0  0  0  0  0  0  0  0  0
  161.5350  207.4670  146.8900 C   0  0  0  0  0  3  0  0  0  0  0  0
  161.2140  207.6510  150.5680 C   0  0  0  0  0  3  0  0  0  0  0  0
  161.3380  205.2230  147.7770 C   0  0  0  0  0  3  0  0  0  0  0  0
  161.2470  205.7420  149.0720 C   0  0  0  0  0  0  0  0  0  0  0  0
  160.9210  206.4150  154.0810 C   0  0  0  0  0  0  0  0  0  0  0  0
  161.1050  204.8880  150.1620 C   0  0  0  0  0  3  0  0  0  0  0  0
  160.8670  205.0420  153.8550 C   0  0  0  0  0  3  0  0  0  0  0  0
  160.9790  206.8820  155.4300 N   0  0  0  0  0  2  0  0  0  0  0  0
  161.3090  207.1350  149.2760 C   0  0  0  0  0  0  0  0  0  0  0  0
  160.8980  204.5260  152.5630 C   0  0  0  0  0  0  0  0  0  0  0  0
  161.3640  208.2520  155.7320 C   0  0  0  0  0  2  0  0  0  0  0  0
  161.4810  206.0850  146.6880 C   0  0  0  0  0  3  0  0  0  0  0  0
  161.4500  207.9940  148.1830 C   0  0  0  0  0  3  0  0  0  0  0  0
  159.5570  210.9650  152.7520 C   0  0  1  0  0  3  0  0  0  0  0  0
  160.8960  211.0730  152.3220 O   0  0  0  0  0  0  0  0  0  0  0  0
  160.3400  209.7780  152.2750 C   0  0  1  0  0  3  0  0  0  0  0  0
  158.0990  211.7000  154.7450 C   0  0  2  0  0  0  0  0  0  0  0  0
  160.0520  214.0130  156.2090 O   0  0  0  0  0  1  0  0  0  0  0  0
  157.4900  212.6740  153.7390 C   0  0  0  0  0  1  0  0  0  0  0  0
  160.4440  212.1220  154.8220 C   0  0  0  0  0  2  0  0  0  0  0  0
  158.3490  212.4310  155.9860 N   0  0  0  0  0  2  0  0  0  0  0  0
  159.4460  211.1360  154.2790 C   0  0  2  0  0  3  0  0  0  0  0  0
  159.7900  212.6490  156.0800 C   0  0  2  0  0  3  0  0  0  0  0  0
  157.1000  210.5760  154.9880 C   0  0  0  0  0  2  0  0  0  0  0  0
  155.7950  210.9980  154.7220 O   0  0  0  0  0  1  0  0  0  0  0  0
  160.8020  203.0430  152.3890 C   0  0  0  0  0  2  0  0  0  0  0  0
  162.0330  202.5190  151.6760 C   0  0  0  0  0  1  0  0  0  0  0  0
  1  3  1  1  0  0  0
  2  4  2  0  0  0  0
  3 16  1  0  0  0  0
  4  1  1  0  0  0  0
  4 10  1  0  0  0  0
  5  2  1  0  0  0  0
  5 15  2  0  0  0  0
  6 18  2  0  0  0  0
  7  2  1  0  0  0  0
  8  9  1  0  0  0  0
  9 14  1  0  0  0  0
  9 11  2  0  0  0  0
 10 13  1  0  0  0  0
 11  5  1  0  0  0  0
 12 10  2  0  0  0  0
 13 16  1  0  0  0  0
 14  7  2  0  0  0  0
 15 12  1  0  0  0  0
 17  6  1  0  0  0  0
 17  8  2  0  0  0  0
 18 14  1  0  0  0  0
 19 20  1  6  0  0  0
 19 27  1  0  0  0  0
 21 20  1  6  0  0  0
 21 19  1  0  0  0  0
 21  1  1  0  0  0  0
 22 24  1  6  0  0  0
 22 29  1  0  0  0  0
 22 26  1  0  0  0  0
 25 28  1  0  0  0  0
 26 28  1  0  0  0  0
 27 22  1  0  0  0  0
 27 25  1  6  0  0  0
 28 23  1  6  0  0  0
 30 29  1  0  0  0  0
 31 15  1  0  0  0  0
 32 31  1  0  0  0  0
M  END
>  <MODEL>
4

>  <REMARK>
 VINA RESULT:      -6.3      2.285      4.822
  Name = 
  4 active torsions:
  status: ('A' for Active; 'I' for Inactive)
    1  A    between atoms: C_1  and  C_27
    2  A    between atoms: C_3  and  C_22
    3  A    between atoms: C_13  and  C_29
    4  A    between atoms: C_16  and  C_20
                            x       y       z     vdW  Elec       q    Type
                         _______ _______ _______ _____ _____    ______ ____

>  <TORSDO>
F 4

$$$$
