=
 OpenBabel11062410443D

 32 37  0  0  1  0  0  0  0  0999 V2000
  160.9950  213.3770  148.7490 C   0  0  1  0  0  3  0  0  0  0  0  0
  161.1730  208.6920  149.9800 C   0  0  1  0  0  3  0  0  0  0  0  0
  160.7640  208.8890  154.9070 C   0  0  0  0  0  3  0  0  0  0  0  0
  160.5380  207.4260  154.9260 C   0  0  0  0  0  3  0  0  0  0  0  0
  161.1450  206.3700  148.9150 C   0  0  0  0  0  0  0  0  0  0  0  0
  161.1570  204.9960  149.0870 C   0  0  0  0  0  0  0  0  0  0  0  0
  161.6690  210.6420  148.7540 C   0  0  1  0  0  3  0  0  0  0  0  0
  161.1840  210.8380  151.1540 N   0  0  0  0  0  2  0  0  0  0  0  0
  161.2270  203.0880  150.2380 C   0  0  0  0  0  0  0  0  0  0  0  0
  161.7980  212.9080  149.9650 C   0  0  0  0  0  2  0  0  0  0  0  0
  160.9450  209.5270  153.7440 C   0  0  0  0  0  3  0  0  0  0  0  0
  161.5360  209.4240  151.2870 C   0  0  1  0  0  3  0  0  0  0  0  0
  160.8170  208.7640  152.4490 C   0  0  1  0  0  3  0  0  0  0  0  0
  161.3040  206.5330  151.3680 C   0  0  0  0  0  0  0  0  0  0  0  0
  161.1240  202.7740  148.9240 N   0  0  0  0  0  0  0  0  0  0  0  0
  161.7700  212.9010  147.1480 S   0  0  0  0  0  0  0  0  0  0  0  0
  161.9860  211.3880  150.0600 C   0  0  2  0  0  3  0  0  0  0  0  0
  161.0770  203.9320  148.2100 C   0  0  0  0  0  3  0  0  0  0  0  0
  162.4450  211.2580  147.6100 C   0  0  0  0  0  2  0  0  0  0  0  0
  160.7950  206.6930  153.8350 C   0  0  0  0  0  3  0  0  0  0  0  0
  161.4000  207.3570  152.6260 C   0  0  2  0  0  3  0  0  0  0  0  0
  161.3160  205.1970  151.4750 O   0  0  0  0  0  0  0  0  0  0  0  0
  162.0040  209.2260  148.9010 N   0  0  0  0  0  2  0  0  0  0  0  0
  160.9890  206.9320  147.6130 N   0  0  0  0  0  1  0  0  0  0  0  0
  161.2950  202.0840  151.3320 C   0  0  0  0  0  1  0  0  0  0  0  0
  161.2590  207.1760  150.0800 C   0  0  0  0  0  0  0  0  0  0  0  0
  161.2470  204.4480  150.3910 C   0  0  0  0  0  0  0  0  0  0  0  0
  159.5430  212.9260  148.8310 C   0  0  0  0  0  2  0  0  0  0  0  0
  158.6020  214.0140  149.9150 S   0  0  1  0  0  0  0  0  0  0  0  0
  157.2690  214.1540  149.1920 O   0  0  0  0  0  0  0  0  0  0  0  0
  158.2160  212.9900  151.2800 N   0  0  0  0  0  2  0  0  0  0  0  0
  158.9460  213.5160  152.4190 C   0  0  0  0  0  1  0  0  0  0  0  0
  1 28  1  1  0  0  0
  1 10  1  0  0  0  0
  2 23  1  6  0  0  0
  2 26  1  0  0  0  0
  2 12  1  0  0  0  0
  3  4  1  0  0  0  0
  5  6  2  0  0  0  0
  5 26  1  0  0  0  0
  6 27  1  0  0  0  0
  7 19  1  6  0  0  0
  7 23  1  0  0  0  0
  7 17  1  0  0  0  0
  9 27  2  0  0  0  0
  9 25  1  0  0  0  0
 11  3  2  0  0  0  0
 12  8  1  6  0  0  0
 12 13  1  0  0  0  0
 13 21  1  0  0  0  0
 13 11  1  1  0  0  0
 14 22  1  0  0  0  0
 14 21  1  0  0  0  0
 15  9  1  0  0  0  0
 16 19  1  0  0  0  0
 16  1  1  0  0  0  0
 17 10  1  6  0  0  0
 17  8  1  0  0  0  0
 18 15  2  0  0  0  0
 18  6  1  0  0  0  0
 20  4  2  0  0  0  0
 21 20  1  1  0  0  0
 24  5  1  0  0  0  0
 26 14  2  0  0  0  0
 27 22  1  0  0  0  0
 28 29  1  0  0  0  0
 29 30  2  6  0  0  0
 29 31  1  0  0  0  0
 31 32  1  0  0  0  0
M  END
>  <MODEL>
1

>  <REMARK>
 VINA RESULT:      -6.2      0.000      0.000
  Name = 
  3 active torsions:
  status: ('A' for Active; 'I' for Inactive)
    1  A    between atoms: S_1  and  N_10
    2  A    between atoms: S_1  and  C_24
    3  A    between atoms: C_2  and  C_24
                            x       y       z     vdW  Elec       q    Type
                         _______ _______ _______ _____ _____    ______ ____

>  <TORSDO>
F 3

$$$$
=
 OpenBabel11062410443D

 32 37  0  0  1  0  0  0  0  0999 V2000
  161.1690  212.8060  149.4290 C   0  0  1  0  0  3  0  0  0  0  0  0
  161.3060  207.9600  149.4080 C   0  0  1  0  0  3  0  0  0  0  0  0
  160.9970  206.8860  154.2280 C   0  0  0  0  0  3  0  0  0  0  0  0
  160.7510  205.4690  153.8750 C   0  0  0  0  0  3  0  0  0  0  0  0
  161.2240  205.9920  147.7830 C   0  0  0  0  0  0  0  0  0  0  0  0
  161.2210  204.6200  147.5950 C   0  0  0  0  0  0  0  0  0  0  0  0
  161.8050  210.1560  148.7140 C   0  0  1  0  0  3  0  0  0  0  0  0
  161.3700  209.7320  151.0940 N   0  0  0  0  0  2  0  0  0  0  0  0
  161.2870  202.4790  148.2140 C   0  0  0  0  0  0  0  0  0  0  0  0
  161.9900  212.0330  150.4640 C   0  0  0  0  0  2  0  0  0  0  0  0
  161.1640  207.8000  153.2640 C   0  0  0  0  0  3  0  0  0  0  0  0
  161.7050  208.3280  150.8500 C   0  0  1  0  0  3  0  0  0  0  0  0
  161.0000  207.3970  151.8200 C   0  0  1  0  0  3  0  0  0  0  0  0
  161.4340  205.5160  150.1900 C   0  0  0  0  0  0  0  0  0  0  0  0
  161.1530  202.5150  146.8660 N   0  0  0  0  0  0  0  0  0  0  0  0
  161.9060  212.7510  147.7420 S   0  0  0  0  0  0  0  0  0  0  0  0
  162.1580  210.5380  150.1610 C   0  0  2  0  0  3  0  0  0  0  0  0
  161.1080  203.8180  146.4760 C   0  0  0  0  0  3  0  0  0  0  0  0
  162.5670  211.0400  147.7500 C   0  0  0  0  0  2  0  0  0  0  0  0
  160.9760  205.0400  152.6260 C   0  0  0  0  0  3  0  0  0  0  0  0
  161.5660  205.9880  151.6150 C   0  0  2  0  0  3  0  0  0  0  0  0
  161.4290  204.1970  149.9490 O   0  0  0  0  0  0  0  0  0  0  0  0
  162.1230  208.7470  148.4850 N   0  0  0  0  0  2  0  0  0  0  0  0
  161.0510  206.8710  146.6730 N   0  0  0  0  0  1  0  0  0  0  0  0
  161.3610  201.2260  149.0110 C   0  0  0  0  0  1  0  0  0  0  0  0
  161.3730  206.4690  149.1120 C   0  0  0  0  0  0  0  0  0  0  0  0
  161.3290  203.7530  148.7110 C   0  0  0  0  0  0  0  0  0  0  0  0
  159.7130  212.3610  149.4250 C   0  0  0  0  0  2  0  0  0  0  0  0
  158.6360  213.7150  149.9260 S   0  0  1  0  0  0  0  0  0  0  0  0
  157.2410  213.1260  149.7670 O   0  0  0  0  0  0  0  0  0  0  0  0
  158.8520  213.7820  151.6610 N   0  0  0  0  0  2  0  0  0  0  0  0
  158.5980  212.4450  152.1670 C   0  0  0  0  0  1  0  0  0  0  0  0
  1 28  1  6  0  0  0
  1 10  1  0  0  0  0
  2 23  1  6  0  0  0
  2 12  1  0  0  0  0
  4  3  1  0  0  0  0
  5 26  1  0  0  0  0
  6  5  2  0  0  0  0
  6 27  1  0  0  0  0
  7 19  1  6  0  0  0
  7 17  1  0  0  0  0
  9 27  2  0  0  0  0
  9 25  1  0  0  0  0
 11  3  2  0  0  0  0
 12  8  1  1  0  0  0
 12 13  1  0  0  0  0
 13 11  1  1  0  0  0
 14 21  1  0  0  0  0
 15  9  1  0  0  0  0
 16 19  1  0  0  0  0
 16  1  1  0  0  0  0
 17 10  1  6  0  0  0
 17  8  1  0  0  0  0
 18 15  2  0  0  0  0
 18  6  1  0  0  0  0
 20  4  2  0  0  0  0
 21 13  1  0  0  0  0
 21 20  1  1  0  0  0
 22 14  1  0  0  0  0
 23  7  1  0  0  0  0
 24  5  1  0  0  0  0
 26  2  1  0  0  0  0
 26 14  2  0  0  0  0
 27 22  1  0  0  0  0
 28 29  1  0  0  0  0
 29 30  2  1  0  0  0
 29 31  1  0  0  0  0
 31 32  1  0  0  0  0
M  END
>  <MODEL>
2

>  <REMARK>
 VINA RESULT:      -6.0      1.180      1.451
  Name = 
  3 active torsions:
  status: ('A' for Active; 'I' for Inactive)
    1  A    between atoms: S_1  and  N_10
    2  A    between atoms: S_1  and  C_24
    3  A    between atoms: C_2  and  C_24
                            x       y       z     vdW  Elec       q    Type
                         _______ _______ _______ _____ _____    ______ ____

>  <TORSDO>
F 3

$$$$
=
 OpenBabel11062410443D

 32 37  0  0  1  0  0  0  0  0999 V2000
  161.1280  213.7010  148.0940 C   0  0  1  0  0  3  0  0  0  0  0  0
  161.2410  209.1390  149.7290 C   0  0  1  0  0  3  0  0  0  0  0  0
  160.6230  209.7580  154.5990 C   0  0  0  0  0  3  0  0  0  0  0  0
  160.3920  208.3020  154.7340 C   0  0  0  0  0  3  0  0  0  0  0  0
  161.2520  206.7350  148.8670 C   0  0  0  0  0  0  0  0  0  0  0  0
  161.2530  205.3810  149.1570 C   0  0  0  0  0  0  0  0  0  0  0  0
  161.7940  210.9770  148.3620 C   0  0  1  0  0  3  0  0  0  0  0  0
  161.2080  211.3780  150.7140 N   0  0  0  0  0  2  0  0  0  0  0  0
  161.2690  203.5780  150.4680 C   0  0  0  0  0  0  0  0  0  0  0  0
  161.8780  213.3390  149.3790 C   0  0  0  0  0  2  0  0  0  0  0  0
  160.8550  210.2940  153.3940 C   0  0  0  0  0  3  0  0  0  0  0  0
  161.5500  209.9810  150.9830 C   0  0  1  0  0  3  0  0  0  0  0  0
  160.7800  209.4220  152.1660 C   0  0  1  0  0  3  0  0  0  0  0  0
  161.3070  207.1070  151.3010 C   0  0  0  0  0  0  0  0  0  0  0  0
  161.2210  203.1520  149.1830 N   0  0  0  0  0  0  0  0  0  0  0  0
  161.9700  213.0900  146.5750 S   0  0  0  0  0  0  0  0  0  0  0  0
  162.0570  211.8330  149.6120 C   0  0  2  0  0  3  0  0  0  0  0  0
  161.2080  204.2450  148.3720 C   0  0  0  0  0  3  0  0  0  0  0  0
  162.6210  211.4940  147.2040 C   0  0  0  0  0  2  0  0  0  0  0  0
  160.6930  207.4780  153.7220 C   0  0  0  0  0  3  0  0  0  0  0  0
  161.3510  208.0370  152.4870 C   0  0  2  0  0  3  0  0  0  0  0  0
  161.3110  205.7850  151.5230 O   0  0  0  0  0  0  0  0  0  0  0  0
  162.1190  209.5790  148.6450 N   0  0  0  0  0  2  0  0  0  0  0  0
  161.1540  207.1820  147.5160 N   0  0  0  0  0  1  0  0  0  0  0  0
  161.2870  202.6710  151.6470 C   0  0  0  0  0  1  0  0  0  0  0  0
  161.3190  207.6370  149.9620 C   0  0  0  0  0  0  0  0  0  0  0  0
  161.2860  204.9460  150.5060 C   0  0  0  0  0  0  0  0  0  0  0  0
  159.6730  213.2570  148.1520 C   0  0  0  0  0  2  0  0  0  0  0  0
  158.7990  213.7570  146.6590 S   0  0  1  0  0  0  0  0  0  0  0  0
  158.4160  212.4280  146.0210 O   0  0  0  0  0  0  0  0  0  0  0  0
  157.2760  214.3680  147.2670 N   0  0  0  0  0  2  0  0  0  0  0  0
  157.0500  213.7280  148.5500 C   0  0  0  0  0  1  0  0  0  0  0  0
  1 28  1  1  0  0  0
  1 10  1  0  0  0  0
  2 23  1  6  0  0  0
  2 26  1  0  0  0  0
  2 12  1  0  0  0  0
  3  4  1  0  0  0  0
  5  6  2  0  0  0  0
  5 26  1  0  0  0  0
  6 27  1  0  0  0  0
  7 19  1  6  0  0  0
  7 23  1  0  0  0  0
  7 17  1  0  0  0  0
  9 27  2  0  0  0  0
  9 25  1  0  0  0  0
 11  3  2  0  0  0  0
 12  8  1  6  0  0  0
 12 13  1  0  0  0  0
 13 21  1  0  0  0  0
 13 11  1  1  0  0  0
 14 22  1  0  0  0  0
 14 21  1  0  0  0  0
 15  9  1  0  0  0  0
 16 19  1  0  0  0  0
 16  1  1  0  0  0  0
 17 10  1  6  0  0  0
 17  8  1  0  0  0  0
 18  6  1  0  0  0  0
 18 15  2  0  0  0  0
 20  4  2  0  0  0  0
 21 20  1  1  0  0  0
 24  5  1  0  0  0  0
 26 14  2  0  0  0  0
 27 22  1  0  0  0  0
 29 30  2  6  0  0  0
 29 31  1  0  0  0  0
 29 28  1  0  0  0  0
 31 32  1  0  0  0  0
M  END
>  <MODEL>
3

>  <REMARK>
 VINA RESULT:      -5.7      1.399      1.517
  Name = 
  3 active torsions:
  status: ('A' for Active; 'I' for Inactive)
    1  A    between atoms: S_1  and  N_10
    2  A    between atoms: S_1  and  C_24
    3  A    between atoms: C_2  and  C_24
                            x       y       z     vdW  Elec       q    Type
                         _______ _______ _______ _____ _____    ______ ____

>  <TORSDO>
F 3

$$$$
=
 OpenBabel11062410443D

 32 37  0  0  1  0  0  0  0  0999 V2000
  160.9080  213.8010  146.9220 C   0  0  1  0  0  3  0  0  0  0  0  0
  160.6220  211.1410  150.9650 C   0  0  1  0  0  3  0  0  0  0  0  0
  157.7010  213.9160  153.8370 C   0  0  0  0  0  3  0  0  0  0  0  0
  157.5610  212.7710  154.7650 C   0  0  0  0  0  3  0  0  0  0  0  0
  161.2520  208.8320  151.8540 C   0  0  0  0  0  0  0  0  0  0  0  0
  161.2320  207.9300  152.9040 C   0  0  0  0  0  0  0  0  0  0  0  0
  161.5990  212.0630  149.0280 C   0  0  1  0  0  3  0  0  0  0  0  0
  159.9280  213.3780  150.2570 N   0  0  0  0  0  2  0  0  0  0  0  0
  160.7760  207.2120  154.9650 C   0  0  0  0  0  0  0  0  0  0  0  0
  160.9810  214.4530  148.3050 C   0  0  0  0  0  2  0  0  0  0  0  0
  158.4330  213.7940  152.7220 C   0  0  0  0  0  3  0  0  0  0  0  0
  160.2200  212.5540  151.4310 C   0  0  1  0  0  3  0  0  0  0  0  0
  159.0300  212.4550  152.3680 C   0  0  1  0  0  3  0  0  0  0  0  0
  160.1050  210.3990  153.3690 C   0  0  0  0  0  0  0  0  0  0  0  0
  161.3850  206.2000  154.3020 N   0  0  0  0  0  0  0  0  0  0  0  0
  162.4230  212.8430  146.4980 S   0  0  0  0  0  0  0  0  0  0  0  0
  161.1570  213.4680  149.4680 C   0  0  2  0  0  3  0  0  0  0  0  0
  161.6660  206.6250  153.0400 C   0  0  0  0  0  3  0  0  0  0  0  0
  162.8290  212.1620  148.1520 C   0  0  0  0  0  2  0  0  0  0  0  0
  158.3800  211.7170  154.6580 C   0  0  0  0  0  3  0  0  0  0  0  0
  159.4970  211.7490  153.6470 C   0  0  2  0  0  3  0  0  0  0  0  0
  160.1170  209.4870  154.3520 O   0  0  0  0  0  0  0  0  0  0  0  0
  161.8680  211.2390  150.2060 N   0  0  0  0  0  2  0  0  0  0  0  0
  161.7720  208.4460  150.5830 N   0  0  0  0  0  1  0  0  0  0  0  0
  160.3070  207.1230  156.3740 C   0  0  0  0  0  1  0  0  0  0  0  0
  160.7090  210.1230  152.0910 C   0  0  0  0  0  0  0  0  0  0  0  0
  160.6540  208.3010  154.1450 C   0  0  0  0  0  0  0  0  0  0  0  0
  159.6470  212.9630  146.7650 C   0  0  0  0  0  2  0  0  0  0  0  0
  158.2290  214.0140  146.4040 S   0  0  1  0  0  0  0  0  0  0  0  0
  157.1870  213.0280  145.8940 O   0  0  0  0  0  0  0  0  0  0  0  0
  157.6330  214.4470  147.9910 N   0  0  0  0  0  2  0  0  0  0  0  0
  156.8980  213.3000  148.4910 C   0  0  0  0  0  1  0  0  0  0  0  0
  1 28  1  1  0  0  0
  1 10  1  0  0  0  0
  2 23  1  1  0  0  0
  2 12  1  0  0  0  0
  2 26  1  0  0  0  0
  3  4  1  0  0  0  0
  5 26  1  0  0  0  0
  5  6  2  0  0  0  0
  6 18  1  0  0  0  0
  6 27  1  0  0  0  0
  7 19  1  6  0  0  0
  7 17  1  0  0  0  0
  7 23  1  0  0  0  0
  9 25  1  0  0  0  0
 11  3  2  0  0  0  0
 12  8  1  6  0  0  0
 12 13  1  0  0  0  0
 13 11  1  1  0  0  0
 13 21  1  0  0  0  0
 14 21  1  0  0  0  0
 14 22  1  0  0  0  0
 15  9  1  0  0  0  0
 16  1  1  0  0  0  0
 16 19  1  0  0  0  0
 17 10  1  6  0  0  0
 17  8  1  0  0  0  0
 18 15  2  0  0  0  0
 20  4  2  0  0  0  0
 21 20  1  1  0  0  0
 24  5  1  0  0  0  0
 26 14  2  0  0  0  0
 27 22  1  0  0  0  0
 27  9  2  0  0  0  0
 29 30  2  6  0  0  0
 29 28  1  0  0  0  0
 29 31  1  0  0  0  0
 31 32  1  0  0  0  0
M  END
>  <MODEL>
4

>  <REMARK>
 VINA RESULT:      -5.6      2.843      4.290
  Name = 
  3 active torsions:
  status: ('A' for Active; 'I' for Inactive)
    1  A    between atoms: S_1  and  N_10
    2  A    between atoms: S_1  and  C_24
    3  A    between atoms: C_2  and  C_24
                            x       y       z     vdW  Elec       q    Type
                         _______ _______ _______ _____ _____    ______ ____

>  <TORSDO>
F 3

$$$$
=
 OpenBabel11062410443D

 32 37  0  0  1  0  0  0  0  0999 V2000
  161.0180  211.0070  152.2910 C   0  0  1  0  0  3  0  0  0  0  0  0
  161.0880  206.9650  149.6150 C   0  0  1  0  0  3  0  0  0  0  0  0
  160.9350  203.4230  153.0660 C   0  0  0  0  0  3  0  0  0  0  0  0
  160.6570  202.4300  152.0040 C   0  0  0  0  0  3  0  0  0  0  0  0
  160.9220  206.2090  147.1810 C   0  0  0  0  0  0  0  0  0  0  0  0
  160.8930  205.1640  146.2730 C   0  0  0  0  0  0  0  0  0  0  0  0
  161.5920  209.1870  150.2190 C   0  0  1  0  0  3  0  0  0  0  0  0
  161.2360  207.5240  151.9920 N   0  0  0  0  0  2  0  0  0  0  0  0
  160.9520  203.0350  145.6150 C   0  0  0  0  0  0  0  0  0  0  0  0
  161.8640  209.7990  152.7030 C   0  0  0  0  0  2  0  0  0  0  0  0
  161.0800  204.7180  152.7550 C   0  0  0  0  0  3  0  0  0  0  0  0
  161.5430  206.4860  151.0070 C   0  0  1  0  0  3  0  0  0  0  0  0
  160.8590  205.1700  151.3340 C   0  0  1  0  0  3  0  0  0  0  0  0
  161.2100  204.4940  148.9250 C   0  0  0  0  0  0  0  0  0  0  0  0
  160.7710  203.8020  144.5120 N   0  0  0  0  0  0  0  0  0  0  0  0
  161.6940  211.8910  150.8240 S   0  0  0  0  0  0  0  0  0  0  0  0
  162.0010  208.7170  151.6240 C   0  0  2  0  0  3  0  0  0  0  0  0
  160.7310  205.1060  144.9020 C   0  0  0  0  0  3  0  0  0  0  0  0
  162.3320  210.4600  149.8690 C   0  0  0  0  0  2  0  0  0  0  0  0
  160.8320  202.7560  150.7170 C   0  0  0  0  0  3  0  0  0  0  0  0
  161.3990  204.1080  150.3690 C   0  0  2  0  0  3  0  0  0  0  0  0
  161.1790  203.5220  148.0010 O   0  0  0  0  0  0  0  0  0  0  0  0
  161.8820  208.1370  149.2440 N   0  0  0  0  0  2  0  0  0  0  0  0
  160.7210  207.5510  146.7410 N   0  0  0  0  0  1  0  0  0  0  0  0
  161.0380  201.5500  145.5920 C   0  0  0  0  0  1  0  0  0  0  0  0
  161.1240  205.8810  148.5480 C   0  0  0  0  0  0  0  0  0  0  0  0
  161.0290  203.8280  146.7270 C   0  0  0  0  0  0  0  0  0  0  0  0
  159.5570  210.6250  152.0980 C   0  0  0  0  0  2  0  0  0  0  0  0
  158.4920  211.6650  153.1130 S   0  0  1  0  0  0  0  0  0  0  0  0
  159.2130  211.6950  154.4530 O   0  0  0  0  0  0  0  0  0  0  0  0
  158.7630  213.2700  152.4710 N   0  0  0  0  0  2  0  0  0  0  0  0
  158.0180  213.3570  151.2290 C   0  0  0  0  0  1  0  0  0  0  0  0
  1 28  1  6  0  0  0
  1 10  1  0  0  0  0
  2 26  1  6  0  0  0
  2 12  1  0  0  0  0
  4  3  1  0  0  0  0
  5 26  1  0  0  0  0
  6 27  1  0  0  0  0
  6  5  2  0  0  0  0
  7 19  1  6  0  0  0
  7 17  1  0  0  0  0
  9 27  2  0  0  0  0
 11  3  2  0  0  0  0
 12 13  1  0  0  0  0
 12  8  1  1  0  0  0
 13 11  1  1  0  0  0
 14 21  1  0  0  0  0
 15 18  2  0  0  0  0
 15  9  1  0  0  0  0
 16  1  1  0  0  0  0
 17  8  1  0  0  0  0
 17 10  1  1  0  0  0
 18  6  1  0  0  0  0
 19 16  1  0  0  0  0
 20  4  2  0  0  0  0
 21 20  1  6  0  0  0
 21 13  1  0  0  0  0
 22 14  1  0  0  0  0
 23  2  1  0  0  0  0
 23  7  1  0  0  0  0
 24  5  1  0  0  0  0
 25  9  1  0  0  0  0
 26 14  2  0  0  0  0
 27 22  1  0  0  0  0
 28 29  1  0  0  0  0
 29 30  2  1  0  0  0
 31 29  1  0  0  0  0
 32 31  1  0  0  0  0
M  END
>  <MODEL>
5

>  <REMARK>
 VINA RESULT:      -5.1      2.448      3.778
  Name = 
  3 active torsions:
  status: ('A' for Active; 'I' for Inactive)
    1  A    between atoms: S_1  and  N_10
    2  A    between atoms: S_1  and  C_24
    3  A    between atoms: C_2  and  C_24
                            x       y       z     vdW  Elec       q    Type
                         _______ _______ _______ _____ _____    ______ ____

>  <TORSDO>
F 3

$$$$
=
 OpenBabel11062410443D

 32 37  0  0  1  0  0  0  0  0999 V2000
  158.2780  211.1210  157.1420 C   0  0  1  0  0  3  0  0  0  0  0  0
  160.1840  211.4610  152.6980 C   0  0  1  0  0  3  0  0  0  0  0  0
  161.9130  206.8860  151.9500 C   0  0  0  0  0  3  0  0  0  0  0  0
  162.1070  207.2150  150.5200 C   0  0  0  0  0  3  0  0  0  0  0  0
  160.3030  213.0730  150.7210 C   0  0  0  0  0  0  0  0  0  0  0  0
  160.7460  213.3270  149.4340 C   0  0  0  0  0  0  0  0  0  0  0  0
  159.5740  212.1570  154.8650 C   0  0  1  0  0  3  0  0  0  0  0  0
  160.1430  209.7970  154.4910 N   0  0  0  0  0  2  0  0  0  0  0  0
  161.8010  212.8880  147.5190 C   0  0  0  0  0  0  0  0  0  0  0  0
  159.6200  210.4660  156.8040 C   0  0  0  0  0  2  0  0  0  0  0  0
  161.4000  207.7960  152.7870 C   0  0  0  0  0  3  0  0  0  0  0  0
  160.8730  210.2170  153.2940 C   0  0  1  0  0  3  0  0  0  0  0  0
  160.9270  209.1220  152.2440 C   0  0  1  0  0  3  0  0  0  0  0  0
  161.4600  210.9070  150.5370 C   0  0  0  0  0  0  0  0  0  0  0  0
  161.2250  214.1090  147.4020 N   0  0  0  0  0  0  0  0  0  0  0  0
  158.3780  212.9580  157.2350 S   0  0  0  0  0  0  0  0  0  0  0  0
  160.2180  210.8930  155.4570 C   0  0  2  0  0  3  0  0  0  0  0  0
  160.5740  214.3870  148.5650 C   0  0  0  0  0  3  0  0  0  0  0  0
  159.5880  213.2690  155.8920 C   0  0  0  0  0  2  0  0  0  0  0  0
  162.0470  208.4890  150.1110 C   0  0  0  0  0  3  0  0  0  0  0  0
  161.8730  209.5840  151.1300 C   0  0  2  0  0  3  0  0  0  0  0  0
  161.8640  211.2060  149.2950 O   0  0  0  0  0  0  0  0  0  0  0  0
  160.2950  212.5590  153.6580 N   0  0  0  0  0  2  0  0  0  0  0  0
  159.4590  214.0090  151.3890 N   0  0  0  0  0  1  0  0  0  0  0  0
  162.5950  212.2340  146.4450 C   0  0  0  0  0  1  0  0  0  0  0  0
  160.6960  211.8460  151.3180 C   0  0  0  0  0  0  0  0  0  0  0  0
  161.5310  212.3620  148.7540 C   0  0  0  0  0  0  0  0  0  0  0  0
  157.1780  210.6620  156.1950 C   0  0  0  0  0  2  0  0  0  0  0  0
  155.9710  211.9750  155.9430 S   0  0  1  0  0  0  0  0  0  0  0  0
  155.2010  211.5070  154.7150 O   0  0  0  0  0  0  0  0  0  0  0  0
  154.8320  211.7330  157.2500 N   0  0  0  0  0  2  0  0  0  0  0  0
  154.4100  210.3460  157.1870 C   0  0  0  0  0  1  0  0  0  0  0  0
  1 28  1  6  0  0  0
  1 16  1  0  0  0  0
  2 26  1  6  0  0  0
  2 12  1  0  0  0  0
  2 23  1  0  0  0  0
  3 11  2  0  0  0  0
  4  3  1  0  0  0  0
  5 26  1  0  0  0  0
  5 24  1  0  0  0  0
  6  5  2  0  0  0  0
  7 17  1  0  0  0  0
  7 19  1  1  0  0  0
  8 17  1  0  0  0  0
  9 27  2  0  0  0  0
 10  1  1  0  0  0  0
 12  8  1  1  0  0  0
 13 11  1  1  0  0  0
 13 12  1  0  0  0  0
 14 21  1  0  0  0  0
 14 26  2  0  0  0  0
 15  9  1  0  0  0  0
 15 18  2  0  0  0  0
 17 10  1  1  0  0  0
 18  6  1  0  0  0  0
 19 16  1  0  0  0  0
 20  4  2  0  0  0  0
 21 20  1  6  0  0  0
 21 13  1  0  0  0  0
 22 14  1  0  0  0  0
 23  7  1  0  0  0  0
 25  9  1  0  0  0  0
 27 22  1  0  0  0  0
 27  6  1  0  0  0  0
 29 30  2  6  0  0  0
 29 28  1  0  0  0  0
 29 31  1  0  0  0  0
 32 31  1  0  0  0  0
M  END
>  <MODEL>
6

>  <REMARK>
 VINA RESULT:      -4.2      4.004      7.099
  Name = 
  3 active torsions:
  status: ('A' for Active; 'I' for Inactive)
    1  A    between atoms: S_1  and  N_10
    2  A    between atoms: S_1  and  C_24
    3  A    between atoms: C_2  and  C_24
                            x       y       z     vdW  Elec       q    Type
                         _______ _______ _______ _____ _____    ______ ____

>  <TORSDO>
F 3

$$$$
=
 OpenBabel11062410443D

 32 37  0  0  1  0  0  0  0  0999 V2000
  160.9740  209.6620  154.5740 C   0  0  1  0  0  3  0  0  0  0  0  0
  161.1500  206.8590  150.6220 C   0  0  1  0  0  3  0  0  0  0  0  0
  160.4690  202.3390  152.5160 C   0  0  0  0  0  3  0  0  0  0  0  0
  160.2620  201.8190  151.1450 C   0  0  0  0  0  3  0  0  0  0  0  0
  161.2130  207.0420  148.0760 C   0  0  0  0  0  0  0  0  0  0  0  0
  161.2350  206.3990  146.8500 C   0  0  0  0  0  0  0  0  0  0  0  0
  161.6860  208.6670  152.0360 C   0  0  1  0  0  3  0  0  0  0  0  0
  161.0670  206.5140  153.0430 N   0  0  0  0  0  2  0  0  0  0  0  0
  161.2690  204.6510  145.4670 C   0  0  0  0  0  0  0  0  0  0  0  0
  161.7160  208.3230  154.5850 C   0  0  0  0  0  2  0  0  0  0  0  0
  160.7040  203.6420  152.7130 C   0  0  0  0  0  3  0  0  0  0  0  0
  161.4310  205.8770  151.7760 C   0  0  1  0  0  3  0  0  0  0  0  0
  160.6580  204.5910  151.5410 C   0  0  1  0  0  3  0  0  0  0  0  0
  161.2350  204.7980  149.0900 C   0  0  0  0  0  0  0  0  0  0  0  0
  161.2420  205.7740  144.7100 N   0  0  0  0  0  0  0  0  0  0  0  0
  161.8430  210.9560  153.5930 S   0  0  0  0  0  0  0  0  0  0  0  0
  161.9190  207.6920  153.2020 C   0  0  2  0  0  3  0  0  0  0  0  0
  161.2190  206.8500  145.5440 C   0  0  0  0  0  3  0  0  0  0  0  0
  162.5150  209.9170  152.2380 C   0  0  0  0  0  2  0  0  0  0  0  0
  160.5890  202.5700  150.0860 C   0  0  0  0  0  3  0  0  0  0  0  0
  161.2500  203.9060  150.3050 C   0  0  2  0  0  3  0  0  0  0  0  0
  161.2600  204.2290  147.8770 O   0  0  0  0  0  0  0  0  0  0  0  0
  162.0310  208.0170  150.7730 N   0  0  0  0  0  2  0  0  0  0  0  0
  161.1210  208.4640  148.1410 N   0  0  0  0  0  1  0  0  0  0  0  0
  161.2900  203.2710  144.9110 C   0  0  0  0  0  1  0  0  0  0  0  0
  161.2520  206.2300  149.2410 C   0  0  0  0  0  0  0  0  0  0  0  0
  161.2610  204.9830  146.7950 C   0  0  0  0  0  0  0  0  0  0  0  0
  159.5260  209.4950  154.1330 C   0  0  0  0  0  2  0  0  0  0  0  0
  158.6980  211.0930  154.0590 S   0  0  1  0  0  0  0  0  0  0  0  0
  158.3880  211.2540  152.5770 O   0  0  0  0  0  0  0  0  0  0  0  0
  157.1320  210.7690  154.7680 N   0  0  0  0  0  2  0  0  0  0  0  0
  156.4410  212.0420  154.8590 C   0  0  0  0  0  1  0  0  0  0  0  0
  1 28  1  6  0  0  0
  1 10  1  0  0  0  0
  2 26  1  6  0  0  0
  2 23  1  0  0  0  0
  2 12  1  0  0  0  0
  3 11  2  0  0  0  0
  4  3  1  0  0  0  0
  5 24  1  0  0  0  0
  5 26  1  0  0  0  0
  6  5  2  0  0  0  0
  7 19  1  1  0  0  0
  7 17  1  0  0  0  0
  8 17  1  0  0  0  0
  9 27  2  0  0  0  0
 12  8  1  1  0  0  0
 13 12  1  0  0  0  0
 13 11  1  1  0  0  0
 14 26  2  0  0  0  0
 14 21  1  0  0  0  0
 15  9  1  0  0  0  0
 15 18  2  0  0  0  0
 16  1  1  0  0  0  0
 17 10  1  1  0  0  0
 18  6  1  0  0  0  0
 19 16  1  0  0  0  0
 20  4  2  0  0  0  0
 21 20  1  6  0  0  0
 21 13  1  0  0  0  0
 22 14  1  0  0  0  0
 23  7  1  0  0  0  0
 25  9  1  0  0  0  0
 27  6  1  0  0  0  0
 27 22  1  0  0  0  0
 29 30  2  6  0  0  0
 29 28  1  0  0  0  0
 29 31  1  0  0  0  0
 31 32  1  0  0  0  0
M  END
>  <MODEL>
7

>  <REMARK>
 VINA RESULT:      -4.1      3.100      4.727
  Name = 
  3 active torsions:
  status: ('A' for Active; 'I' for Inactive)
    1  A    between atoms: S_1  and  N_10
    2  A    between atoms: S_1  and  C_24
    3  A    between atoms: C_2  and  C_24
                            x       y       z     vdW  Elec       q    Type
                         _______ _______ _______ _____ _____    ______ ____

>  <TORSDO>
F 3

$$$$
