=
 OpenBabel11062410523D

 32 37  0  0  1  0  0  0  0  0999 V2000
  161.1760  211.1540  150.4780 N   0  0  0  0  0  0  0  0  0  0  0  0
  161.8480  206.4150  148.6790 C   0  0  0  0  0  0  0  0  0  0  0  0
  161.0030  203.8800  152.7590 N   0  0  0  0  0  2  0  0  0  0  0  0
  160.2310  202.8940  152.0130 C   0  0  0  0  0  2  0  0  0  0  0  0
  162.2070  205.1800  146.4850 C   0  0  2  0  0  3  0  0  0  0  0  0
  161.3580  204.1990  145.6560 C   0  0  1  0  0  3  0  0  0  0  0  0
  162.2070  208.8310  148.7670 C   0  0  0  0  0  0  0  0  0  0  0  0
  161.5390  207.6140  150.7660 C   0  0  0  0  0  3  0  0  0  0  0  0
  161.9190  210.0300  151.0370 C   0  0  0  0  0  2  0  0  0  0  0  0
  160.7710  205.1850  152.1460 C   0  0  0  0  0  2  0  0  0  0  0  0
  161.5220  206.4070  150.0540 C   0  0  0  0  0  0  0  0  0  0  0  0
  161.1930  205.1970  150.6940 C   0  0  0  0  0  0  0  0  0  0  0  0
  161.4860  204.0110  148.5850 C   0  0  0  0  0  0  0  0  0  0  0  0
  162.8120  211.3370  148.7070 C   0  0  0  0  0  2  0  0  0  0  0  0
  161.8630  208.8240  150.1470 C   0  0  0  0  0  0  0  0  0  0  0  0
  162.5130  210.0580  147.9390 C   0  0  0  0  0  2  0  0  0  0  0  0
  161.5810  211.7870  149.4210 C   0  0  0  0  0  0  0  0  0  0  0  0
  160.8640  202.6850  150.6410 C   0  0  0  0  0  2  0  0  0  0  0  0
  161.1610  203.9950  149.9530 C   0  0  0  0  0  0  0  0  0  0  0  0
  161.4890  202.7520  147.7720 C   0  0  0  0  0  2  0  0  0  0  0  0
  162.1810  207.6260  148.0590 C   0  0  0  0  0  3  0  0  0  0  0  0
  163.6800  204.8450  146.3320 C   0  0  0  0  0  1  0  0  0  0  0  0
  161.8280  205.2140  147.9470 C   0  0  0  0  0  0  0  0  0  0  0  0
  160.7780  203.0000  146.4410 C   0  0  2  0  0  3  0  0  0  0  0  0
  160.8240  201.7480  145.5800 C   0  0  0  0  0  2  0  0  0  0  0  0
  159.5090  201.5590  144.8490 C   0  0  0  0  0  1  0  0  0  0  0  0
  160.1040  206.2620  145.1690 C   0  0  0  0  0  2  0  0  0  0  0  0
  160.2610  204.9550  144.9740 C   0  0  0  0  0  3  0  0  0  0  0  0
  160.8570  212.8660  148.9100 O   0  0  0  0  0  0  0  0  0  0  0  0
  160.3050  212.8570  147.6010 C   0  0  1  0  0  3  0  0  0  0  0  0
  159.8280  214.2110  147.2510 C   0  0  0  0  0  2  0  0  0  0  0  0
  161.0570  213.7160  146.7790 O   0  0  0  0  0  0  0  0  0  0  0  0
  1  9  1  0  0  0  0
  2 11  1  0  0  0  0
  4  3  1  0  0  0  0
  5 22  1  1  0  0  0
  5 23  1  0  0  0  0
  6 28  1  1  0  0  0
  6 24  1  0  0  0  0
  6  5  1  0  0  0  0
  7 15  1  0  0  0  0
 10  3  1  0  0  0  0
 11 12  2  0  0  0  0
 11  8  1  0  0  0  0
 12 10  1  0  0  0  0
 13 19  2  0  0  0  0
 14 17  1  0  0  0  0
 15  8  2  0  0  0  0
 15  9  1  0  0  0  0
 16 14  1  0  0  0  0
 16  7  1  0  0  0  0
 17  1  2  0  0  0  0
 18  4  1  0  0  0  0
 19 18  1  0  0  0  0
 19 12  1  0  0  0  0
 20 13  1  0  0  0  0
 21  2  1  0  0  0  0
 21  7  2  0  0  0  0
 23 13  1  0  0  0  0
 23  2  2  0  0  0  0
 24 25  1  6  0  0  0
 24 20  1  0  0  0  0
 26 25  1  0  0  0  0
 28 27  2  0  0  0  0
 29 17  1  0  0  0  0
 30 29  1  1  0  0  0
 31 30  1  0  0  0  0
 32 31  1  0  0  0  0
 32 30  1  0  0  0  0
M  END
>  <MODEL>
1

>  <REMARK>
 VINA RESULT:      -8.2      0.000      0.000
  Name = 
  4 active torsions:
  status: ('A' for Active; 'I' for Inactive)
    1  A    between atoms: C_1  and  O_10
    2  A    between atoms: C_7  and  C_22
    3  A    between atoms: O_10  and  C_24
    4  A    between atoms: C_11  and  C_32
                            x       y       z     vdW  Elec       q    Type
                         _______ _______ _______ _____ _____    ______ ____

>  <TORSDO>
F 4

$$$$
=
 OpenBabel11062410523D

 32 37  0  0  1  0  0  0  0  0999 V2000
  160.7980  209.7250  152.0490 N   0  0  0  0  0  0  0  0  0  0  0  0
  161.5980  205.6970  149.0040 C   0  0  0  0  0  0  0  0  0  0  0  0
  160.9260  202.1040  152.2330 N   0  0  0  0  0  2  0  0  0  0  0  0
  160.1740  201.3320  151.2510 C   0  0  0  0  0  2  0  0  0  0  0  0
  161.9550  205.1300  146.5510 C   0  0  2  0  0  3  0  0  0  0  0  0
  161.1250  204.3830  145.4910 C   0  0  1  0  0  3  0  0  0  0  0  0
  161.8740  208.0070  149.7520 C   0  0  0  0  0  0  0  0  0  0  0  0
  161.2900  206.2610  151.3440 C   0  0  0  0  0  3  0  0  0  0  0  0
  161.5910  208.5210  152.2680 C   0  0  0  0  0  2  0  0  0  0  0  0
  160.6360  203.5170  152.0060 C   0  0  0  0  0  2  0  0  0  0  0  0
  161.3000  205.2980  150.3260 C   0  0  0  0  0  0  0  0  0  0  0  0
  161.0270  203.9460  150.6100 C   0  0  0  0  0  0  0  0  0  0  0  0
  161.3190  203.4000  148.2530 C   0  0  0  0  0  0  0  0  0  0  0  0
  162.3890  210.4550  150.3810 C   0  0  0  0  0  2  0  0  0  0  0  0
  161.5580  207.6060  151.0800 C   0  0  0  0  0  0  0  0  0  0  0  0
  162.1200  209.4270  149.2930 C   0  0  0  0  0  2  0  0  0  0  0  0
  161.1580  210.6420  151.2040 C   0  0  0  0  0  0  0  0  0  0  0  0
  160.7860  201.5340  149.8690 C   0  0  0  0  0  2  0  0  0  0  0  0
  161.0220  202.9950  149.5660 C   0  0  0  0  0  0  0  0  0  0  0  0
  161.3500  202.4150  147.1240 C   0  0  0  0  0  2  0  0  0  0  0  0
  161.8750  207.0440  148.7390 C   0  0  0  0  0  3  0  0  0  0  0  0
  163.4360  204.9090  146.2970 C   0  0  0  0  0  1  0  0  0  0  0  0
  161.6050  204.7450  147.9680 C   0  0  0  0  0  0  0  0  0  0  0  0
  160.6030  202.9920  145.9200 C   0  0  2  0  0  3  0  0  0  0  0  0
  160.6750  202.0290  144.7460 C   0  0  0  0  0  2  0  0  0  0  0  0
  159.7360  200.8580  144.9630 C   0  0  0  0  0  1  0  0  0  0  0  0
  159.9850  206.5600  145.3130 C   0  0  0  0  0  2  0  0  0  0  0  0
  159.9870  205.2540  145.0560 C   0  0  0  0  0  3  0  0  0  0  0  0
  160.3860  211.7900  151.0180 O   0  0  0  0  0  0  0  0  0  0  0  0
  159.7870  212.4850  152.1030 C   0  0  1  0  0  3  0  0  0  0  0  0
  158.7980  213.4540  151.5890 C   0  0  0  0  0  2  0  0  0  0  0  0
  158.4070  212.2110  152.1180 O   0  0  0  0  0  0  0  0  0  0  0  0
  1  9  1  0  0  0  0
  2 11  1  0  0  0  0
  4  3  1  0  0  0  0
  5 22  1  6  0  0  0
  5 23  1  0  0  0  0
  6 28  1  1  0  0  0
  6 24  1  0  0  0  0
  6  5  1  0  0  0  0
  7 15  1  0  0  0  0
 10  3  1  0  0  0  0
 11 12  2  0  0  0  0
 11  8  1  0  0  0  0
 12 10  1  0  0  0  0
 13 19  2  0  0  0  0
 14 17  1  0  0  0  0
 15  8  2  0  0  0  0
 15  9  1  0  0  0  0
 16  7  1  0  0  0  0
 16 14  1  0  0  0  0
 17  1  2  0  0  0  0
 18  4  1  0  0  0  0
 19 18  1  0  0  0  0
 19 12  1  0  0  0  0
 20 13  1  0  0  0  0
 21  2  1  0  0  0  0
 21  7  2  0  0  0  0
 23 13  1  0  0  0  0
 23  2  2  0  0  0  0
 24 25  1  6  0  0  0
 24 20  1  0  0  0  0
 25 26  1  0  0  0  0
 28 27  2  0  0  0  0
 29 17  1  0  0  0  0
 30 29  1  6  0  0  0
 30 32  1  0  0  0  0
 31 30  1  0  0  0  0
 31 32  1  0  0  0  0
M  END
>  <MODEL>
2

>  <REMARK>
 VINA RESULT:      -7.2      1.740      2.023
  Name = 
  4 active torsions:
  status: ('A' for Active; 'I' for Inactive)
    1  A    between atoms: C_1  and  O_10
    2  A    between atoms: C_7  and  C_22
    3  A    between atoms: O_10  and  C_24
    4  A    between atoms: C_11  and  C_32
                            x       y       z     vdW  Elec       q    Type
                         _______ _______ _______ _____ _____    ______ ____

>  <TORSDO>
F 4

$$$$
=
 OpenBabel11062410523D

 32 37  0  0  1  0  0  0  0  0999 V2000
  160.0320  213.4680  149.8330 N   0  0  0  0  0  0  0  0  0  0  0  0
  161.3110  208.8500  151.6150 C   0  0  0  0  0  0  0  0  0  0  0  0
  160.0760  209.4260  156.2980 N   0  0  0  0  0  2  0  0  0  0  0  0
  159.4960  208.0890  156.3330 C   0  0  0  0  0  2  0  0  0  0  0  0
  162.0760  206.5690  150.7910 C   0  0  2  0  0  3  0  0  0  0  0  0
  161.4330  205.1700  150.7550 C   0  0  1  0  0  3  0  0  0  0  0  0
  161.4710  210.7790  150.1240 C   0  0  0  0  0  0  0  0  0  0  0  0
  160.6140  211.0420  152.3860 C   0  0  0  0  0  3  0  0  0  0  0  0
  160.7680  213.0920  151.0350 C   0  0  0  0  0  2  0  0  0  0  0  0
  159.8380  209.9810  154.9680 C   0  0  0  0  0  2  0  0  0  0  0  0
  160.7900  209.6750  152.6370 C   0  0  0  0  0  0  0  0  0  0  0  0
  160.4630  209.1240  153.8910 C   0  0  0  0  0  0  0  0  0  0  0  0
  161.1480  206.9250  153.0950 C   0  0  0  0  0  0  0  0  0  0  0  0
  161.8890  212.7190  148.4770 C   0  0  0  0  0  2  0  0  0  0  0  0
  160.9320  211.6050  151.1480 C   0  0  0  0  0  0  0  0  0  0  0  0
  161.8010  211.2200  148.7160 C   0  0  0  0  0  2  0  0  0  0  0  0
  160.5370  213.3290  148.6460 C   0  0  0  0  0  0  0  0  0  0  0  0
  160.3350  207.1490  155.4740 C   0  0  0  0  0  2  0  0  0  0  0  0
  160.6300  207.7400  154.1160 C   0  0  0  0  0  0  0  0  0  0  0  0
  161.3640  205.4570  153.3050 C   0  0  0  0  0  2  0  0  0  0  0  0
  161.6380  209.4150  150.3760 C   0  0  0  0  0  3  0  0  0  0  0  0
  163.5770  206.4420  150.9840 C   0  0  0  0  0  1  0  0  0  0  0  0
  161.4870  207.4730  151.8470 C   0  0  0  0  0  0  0  0  0  0  0  0
  160.8370  204.6830  152.0950 C   0  0  2  0  0  3  0  0  0  0  0  0
  161.1000  203.1960  152.2670 C   0  0  0  0  0  2  0  0  0  0  0  0
  160.9570  202.4750  150.9410 C   0  0  0  0  0  1  0  0  0  0  0  0
  160.3930  206.0330  148.6950 C   0  0  0  0  0  2  0  0  0  0  0  0
  160.3920  205.1370  149.6790 C   0  0  0  0  0  3  0  0  0  0  0  0
  159.8160  213.7040  147.5110 O   0  0  0  0  0  0  0  0  0  0  0  0
  158.9410  212.8100  146.8380 C   0  0  1  0  0  3  0  0  0  0  0  0
  158.8100  213.2100  145.4220 C   0  0  0  0  0  2  0  0  0  0  0  0
  159.6500  212.1540  145.8160 O   0  0  0  0  0  0  0  0  0  0  0  0
  1  9  1  0  0  0  0
  2 23  2  0  0  0  0
  2 11  1  0  0  0  0
  3  4  1  0  0  0  0
  5 22  1  1  0  0  0
  5 23  1  0  0  0  0
  6 28  1  6  0  0  0
  6  5  1  0  0  0  0
  6 24  1  0  0  0  0
  7 21  2  0  0  0  0
  7 15  1  0  0  0  0
  8 11  1  0  0  0  0
  9 15  1  0  0  0  0
 10  3  1  0  0  0  0
 11 12  2  0  0  0  0
 12 19  1  0  0  0  0
 12 10  1  0  0  0  0
 13 20  1  0  0  0  0
 13 19  2  0  0  0  0
 14 17  1  0  0  0  0
 14 16  1  0  0  0  0
 15  8  2  0  0  0  0
 16  7  1  0  0  0  0
 17  1  2  0  0  0  0
 18  4  1  0  0  0  0
 19 18  1  0  0  0  0
 21  2  1  0  0  0  0
 23 13  1  0  0  0  0
 24 25  1  1  0  0  0
 24 20  1  0  0  0  0
 26 25  1  0  0  0  0
 27 28  2  0  0  0  0
 29 17  1  0  0  0  0
 30 29  1  1  0  0  0
 31 32  1  0  0  0  0
 31 30  1  0  0  0  0
 32 30  1  0  0  0  0
M  END
>  <MODEL>
3

>  <REMARK>
 VINA RESULT:      -6.9      2.781      4.527
  Name = 
  4 active torsions:
  status: ('A' for Active; 'I' for Inactive)
    1  A    between atoms: C_1  and  O_10
    2  A    between atoms: C_7  and  C_22
    3  A    between atoms: O_10  and  C_24
    4  A    between atoms: C_11  and  C_32
                            x       y       z     vdW  Elec       q    Type
                         _______ _______ _______ _____ _____    ______ ____

>  <TORSDO>
F 4

$$$$
=
 OpenBabel11062410523D

 32 37  0  0  1  0  0  0  0  0999 V2000
  161.6540  206.3410  151.2020 N   0  0  0  0  0  0  0  0  0  0  0  0
  159.8190  210.4940  153.5530 C   0  0  0  0  0  0  0  0  0  0  0  0
  160.7110  213.8270  150.1070 N   0  0  0  0  0  2  0  0  0  0  0  0
  159.4120  214.4460  150.3370 C   0  0  0  0  0  2  0  0  0  0  0  0
  158.5230  211.1590  155.6370 C   0  0  2  0  0  3  0  0  0  0  0  0
  157.1180  211.7390  155.8870 C   0  0  1  0  0  3  0  0  0  0  0  0
  160.8390  208.2760  153.4330 C   0  0  0  0  0  0  0  0  0  0  0  0
  161.0860  209.8440  151.5880 C   0  0  0  0  0  3  0  0  0  0  0  0
  162.2240  207.6770  151.3360 C   0  0  0  0  0  2  0  0  0  0  0  0
  160.5620  212.3880  150.3050 C   0  0  0  0  0  2  0  0  0  0  0  0
  160.3300  210.8050  152.2730 C   0  0  0  0  0  0  0  0  0  0  0  0
  160.0840  212.0690  151.7030 C   0  0  0  0  0  0  0  0  0  0  0  0
  158.7980  212.6990  153.6750 C   0  0  0  0  0  0  0  0  0  0  0  0
  161.9940  205.9740  153.5680 C   0  0  0  0  0  2  0  0  0  0  0  0
  161.3380  208.5850  152.1370 C   0  0  0  0  0  0  0  0  0  0  0  0
  160.9670  206.9430  154.1340 C   0  0  0  0  0  2  0  0  0  0  0  0
  161.5610  205.5290  152.2100 C   0  0  0  0  0  0  0  0  0  0  0  0
  159.0800  214.3930  151.8250 C   0  0  0  0  0  2  0  0  0  0  0  0
  159.3030  213.0150  152.4020 C   0  0  0  0  0  0  0  0  0  0  0  0
  157.9870  213.6870  154.4580 C   0  0  0  0  0  2  0  0  0  0  0  0
  160.0790  209.2350  154.1090 C   0  0  0  0  0  3  0  0  0  0  0  0
  159.4900  211.6790  156.6860 C   0  0  0  0  0  1  0  0  0  0  0  0
  159.0520  211.4440  154.2520 C   0  0  0  0  0  0  0  0  0  0  0  0
  156.7610  212.9880  155.0500 C   0  0  2  0  0  3  0  0  0  0  0  0
  155.9590  213.9640  155.8950 C   0  0  0  0  0  2  0  0  0  0  0  0
  156.6270  214.1750  157.2400 C   0  0  0  0  0  1  0  0  0  0  0  0
  155.3150  210.6600  154.6010 C   0  0  0  0  0  2  0  0  0  0  0  0
  156.0990  210.6620  155.6760 C   0  0  0  0  0  3  0  0  0  0  0  0
  161.0210  204.2520  152.0550 O   0  0  0  0  0  0  0  0  0  0  0  0
  161.6010  203.2820  151.1940 C   0  0  1  0  0  3  0  0  0  0  0  0
  160.5360  202.4970  150.5370 C   0  0  0  0  0  2  0  0  0  0  0  0
  161.2000  203.5420  149.8720 O   0  0  0  0  0  0  0  0  0  0  0  0
  1  9  1  0  0  0  0
  1 17  2  0  0  0  0
  2 21  2  0  0  0  0
  2 23  1  0  0  0  0
  3 10  1  0  0  0  0
  3  4  1  0  0  0  0
  4 18  1  0  0  0  0
  5  6  1  0  0  0  0
  5 22  1  1  0  0  0
  6 28  1  6  0  0  0
  7 21  1  0  0  0  0
  7 16  1  0  0  0  0
  8 15  1  0  0  0  0
  8 11  2  0  0  0  0
  9 15  1  0  0  0  0
 10 12  1  0  0  0  0
 11  2  1  0  0  0  0
 12 11  1  0  0  0  0
 12 19  2  0  0  0  0
 13 23  2  0  0  0  0
 13 20  1  0  0  0  0
 14 16  1  0  0  0  0
 15  7  2  0  0  0  0
 17 14  1  0  0  0  0
 18 19  1  0  0  0  0
 19 13  1  0  0  0  0
 20 24  1  0  0  0  0
 23  5  1  0  0  0  0
 24  6  1  0  0  0  0
 24 25  1  1  0  0  0
 25 26  1  0  0  0  0
 27 28  2  0  0  0  0
 29 17  1  0  0  0  0
 30 29  1  1  0  0  0
 31 30  1  0  0  0  0
 32 31  1  0  0  0  0
 32 30  1  0  0  0  0
M  END
>  <MODEL>
4

>  <REMARK>
 VINA RESULT:      -6.4      5.089     10.158
  Name = 
  4 active torsions:
  status: ('A' for Active; 'I' for Inactive)
    1  A    between atoms: C_1  and  O_10
    2  A    between atoms: C_7  and  C_22
    3  A    between atoms: O_10  and  C_24
    4  A    between atoms: C_11  and  C_32
                            x       y       z     vdW  Elec       q    Type
                         _______ _______ _______ _____ _____    ______ ____

>  <TORSDO>
F 4

$$$$
=
 OpenBabel11062410523D

 32 37  0  0  1  0  0  0  0  0999 V2000
  159.5110  213.6850  147.8860 N   0  0  0  0  0  0  0  0  0  0  0  0
  160.0480  211.5060  152.4810 C   0  0  0  0  0  0  0  0  0  0  0  0
  156.3030  213.5970  154.8030 N   0  0  0  0  0  2  0  0  0  0  0  0
  155.9610  212.3310  155.4390 C   0  0  0  0  0  2  0  0  0  0  0  0
  161.3960  209.6950  153.6500 C   0  0  2  0  0  3  0  0  0  0  0  0
  161.0500  208.3200  154.2520 C   0  0  1  0  0  3  0  0  0  0  0  0
  160.8150  212.3700  150.3270 C   0  0  0  0  0  0  0  0  0  0  0  0
  158.7960  213.2550  151.3570 C   0  0  0  0  0  3  0  0  0  0  0  0
  159.4650  214.2740  149.2200 C   0  0  0  0  0  2  0  0  0  0  0  0
  156.8080  213.3030  153.4650 C   0  0  0  0  0  2  0  0  0  0  0  0
  158.9490  212.3940  152.4520 C   0  0  0  0  0  0  0  0  0  0  0  0
  158.0280  212.4110  153.5170 C   0  0  0  0  0  0  0  0  0  0  0  0
  159.2850  210.6400  154.6230 C   0  0  0  0  0  0  0  0  0  0  0  0
  161.8790  213.2810  148.1610 C   0  0  0  0  0  2  0  0  0  0  0  0
  159.6990  213.2510  150.2920 C   0  0  0  0  0  0  0  0  0  0  0  0
  161.8390  212.1970  149.2280 C   0  0  0  0  0  2  0  0  0  0  0  0
  160.6150  213.2440  147.3680 C   0  0  0  0  0  0  0  0  0  0  0  0
  157.2390  211.5690  155.7740 C   0  0  0  0  0  2  0  0  0  0  0  0
  158.1890  211.5200  154.6010 C   0  0  0  0  0  0  0  0  0  0  0  0
  159.5040  209.6990  155.7680 C   0  0  0  0  0  2  0  0  0  0  0  0
  160.9590  211.5070  151.4170 C   0  0  0  0  0  3  0  0  0  0  0  0
  162.5200  210.3380  154.4440 C   0  0  0  0  0  1  0  0  0  0  0  0
  160.2130  210.6290  153.5680 C   0  0  0  0  0  0  0  0  0  0  0  0
  159.8540  208.3100  155.2300 C   0  0  2  0  0  3  0  0  0  0  0  0
  160.1360  207.3580  156.3810 C   0  0  0  0  0  2  0  0  0  0  0  0
  161.2440  207.9020  157.2600 C   0  0  0  0  0  1  0  0  0  0  0  0
  161.3590  207.5320  151.9380 C   0  0  0  0  0  2  0  0  0  0  0  0
  160.8220  207.3420  153.1410 C   0  0  0  0  0  3  0  0  0  0  0  0
  160.6360  212.6920  146.0860 O   0  0  0  0  0  0  0  0  0  0  0  0
  159.7990  213.1690  145.0410 C   0  0  1  0  0  3  0  0  0  0  0  0
  159.7480  212.1750  143.9490 C   0  0  0  0  0  2  0  0  0  0  0  0
  158.7090  212.2930  144.8890 O   0  0  0  0  0  0  0  0  0  0  0  0
  1  9  1  0  0  0  0
  2 23  1  0  0  0  0
  3  4  1  0  0  0  0
  4 18  1  0  0  0  0
  5  6  1  0  0  0  0
  5 22  1  1  0  0  0
  6 28  1  6  0  0  0
  6 24  1  0  0  0  0
  7 21  1  0  0  0  0
  8 11  2  0  0  0  0
  9 15  1  0  0  0  0
 10 12  1  0  0  0  0
 10  3  1  0  0  0  0
 11  2  1  0  0  0  0
 11 12  1  0  0  0  0
 12 19  2  0  0  0  0
 13 20  1  0  0  0  0
 14 16  1  0  0  0  0
 15  7  2  0  0  0  0
 15  8  1  0  0  0  0
 16  7  1  0  0  0  0
 17  1  2  0  0  0  0
 17 14  1  0  0  0  0
 19 13  1  0  0  0  0
 19 18  1  0  0  0  0
 21  2  2  0  0  0  0
 23  5  1  0  0  0  0
 23 13  2  0  0  0  0
 24 20  1  0  0  0  0
 24 25  1  1  0  0  0
 25 26  1  0  0  0  0
 27 28  2  0  0  0  0
 29 17  1  0  0  0  0
 30 29  1  1  0  0  0
 31 32  1  0  0  0  0
 31 30  1  0  0  0  0
 32 30  1  0  0  0  0
M  END
>  <MODEL>
5

>  <REMARK>
 VINA RESULT:      -6.2      5.025      7.909
  Name = 
  4 active torsions:
  status: ('A' for Active; 'I' for Inactive)
    1  A    between atoms: C_1  and  O_10
    2  A    between atoms: C_7  and  C_22
    3  A    between atoms: O_10  and  C_24
    4  A    between atoms: C_11  and  C_32
                            x       y       z     vdW  Elec       q    Type
                         _______ _______ _______ _____ _____    ______ ____

>  <TORSDO>
F 4

$$$$
=
 OpenBabel11062410523D

 32 37  0  0  1  0  0  0  0  0999 V2000
  161.4640  205.7500  149.6440 N   0  0  0  0  0  0  0  0  0  0  0  0
  160.5310  210.1080  152.1500 C   0  0  0  0  0  0  0  0  0  0  0  0
  161.8910  213.3070  148.7290 N   0  0  0  0  0  2  0  0  0  0  0  0
  160.7400  214.1500  149.0280 C   0  0  0  0  0  2  0  0  0  0  0  0
  159.4660  210.9470  154.3010 C   0  0  2  0  0  3  0  0  0  0  0  0
  158.2050  211.7710  154.6230 C   0  0  1  0  0  3  0  0  0  0  0  0
  161.1140  207.7430  151.9440 C   0  0  0  0  0  0  0  0  0  0  0  0
  161.5750  209.2860  150.1190 C   0  0  0  0  0  3  0  0  0  0  0  0
  162.2780  206.9540  149.7770 C   0  0  0  0  0  2  0  0  0  0  0  0
  161.4840  211.9160  148.9070 C   0  0  0  0  0  2  0  0  0  0  0  0
  161.0390  210.3520  150.8540 C   0  0  0  0  0  0  0  0  0  0  0  0
  161.0110  211.6550  150.3190 C   0  0  0  0  0  0  0  0  0  0  0  0
  159.9450  212.4600  152.3570 C   0  0  0  0  0  0  0  0  0  0  0  0
  161.8240  205.2640  151.9860 C   0  0  0  0  0  2  0  0  0  0  0  0
  161.6100  207.9880  150.6340 C   0  0  0  0  0  0  0  0  0  0  0  0
  161.0200  206.3920  152.6150 C   0  0  0  0  0  2  0  0  0  0  0  0
  161.2620  204.9440  150.6400 C   0  0  0  0  0  0  0  0  0  0  0  0
  160.4640  214.1210  150.5280 C   0  0  0  0  0  2  0  0  0  0  0  0
  160.4480  212.7110  151.0690 C   0  0  0  0  0  0  0  0  0  0  0  0
  159.3640  213.5600  153.1930 C   0  0  0  0  0  2  0  0  0  0  0  0
  160.5740  208.8090  152.6700 C   0  0  0  0  0  3  0  0  0  0  0  0
  160.5540  211.2510  155.3160 C   0  0  0  0  0  1  0  0  0  0  0  0
  159.9830  211.1650  152.8990 C   0  0  0  0  0  0  0  0  0  0  0  0
  158.0550  213.0860  153.8260 C   0  0  2  0  0  3  0  0  0  0  0  0
  157.4830  214.1720  154.7240 C   0  0  0  0  0  2  0  0  0  0  0  0
  156.0340  214.4440  154.3690 C   0  0  0  0  0  1  0  0  0  0  0  0
  156.0820  210.7910  155.3980 C   0  0  0  0  0  2  0  0  0  0  0  0
  156.9960  210.9080  154.4380 C   0  0  0  0  0  3  0  0  0  0  0  0
  160.4870  203.7930  150.4860 O   0  0  0  0  0  0  0  0  0  0  0  0
  161.0640  202.5140  150.2630 C   0  0  1  0  0  3  0  0  0  0  0  0
  160.1080  201.6550  149.5330 C   0  0  0  0  0  2  0  0  0  0  0  0
  161.1770  202.2940  148.8790 O   0  0  0  0  0  0  0  0  0  0  0  0
  1  9  1  0  0  0  0
  1 17  2  0  0  0  0
  2 21  2  0  0  0  0
  2 23  1  0  0  0  0
  3 10  1  0  0  0  0
  3  4  1  0  0  0  0
  4 18  1  0  0  0  0
  5  6  1  0  0  0  0
  5 22  1  1  0  0  0
  6 28  1  6  0  0  0
  7 16  1  0  0  0  0
  7 21  1  0  0  0  0
  8 15  1  0  0  0  0
  8 11  2  0  0  0  0
  9 15  1  0  0  0  0
 10 12  1  0  0  0  0
 11  2  1  0  0  0  0
 12 11  1  0  0  0  0
 12 19  2  0  0  0  0
 13 23  2  0  0  0  0
 13 20  1  0  0  0  0
 14 16  1  0  0  0  0
 15  7  2  0  0  0  0
 17 14  1  0  0  0  0
 18 19  1  0  0  0  0
 19 13  1  0  0  0  0
 20 24  1  0  0  0  0
 23  5  1  0  0  0  0
 24  6  1  0  0  0  0
 24 25  1  1  0  0  0
 26 25  1  0  0  0  0
 28 27  2  0  0  0  0
 29 17  1  0  0  0  0
 30 29  1  6  0  0  0
 31 30  1  0  0  0  0
 32 31  1  0  0  0  0
 32 30  1  0  0  0  0
M  END
>  <MODEL>
6

>  <REMARK>
 VINA RESULT:      -5.8      4.337      9.600
  Name = 
  4 active torsions:
  status: ('A' for Active; 'I' for Inactive)
    1  A    between atoms: C_1  and  O_10
    2  A    between atoms: C_7  and  C_22
    3  A    between atoms: O_10  and  C_24
    4  A    between atoms: C_11  and  C_32
                            x       y       z     vdW  Elec       q    Type
                         _______ _______ _______ _____ _____    ______ ____

>  <TORSDO>
F 4

$$$$
=
 OpenBabel11062410523D

 32 37  0  0  1  0  0  0  0  0999 V2000
  160.6120  212.9260  150.1230 N   0  0  0  0  0  0  0  0  0  0  0  0
  161.6980  207.9670  149.5080 C   0  0  0  0  0  0  0  0  0  0  0  0
  161.2860  206.4760  154.1330 N   0  0  0  0  0  2  0  0  0  0  0  0
  160.5910  205.2680  153.7050 C   0  0  0  0  0  2  0  0  0  0  0  0
  162.0950  206.2580  147.6680 C   0  0  2  0  0  3  0  0  0  0  0  0
  161.3200  205.0260  147.1630 C   0  0  1  0  0  3  0  0  0  0  0  0
  161.8090  210.3500  148.9740 C   0  0  0  0  0  0  0  0  0  0  0  0
  161.3510  209.6200  151.2500 C   0  0  0  0  0  3  0  0  0  0  0  0
  161.4900  212.0500  150.8920 C   0  0  0  0  0  2  0  0  0  0  0  0
  160.8960  207.5580  153.2340 C   0  0  0  0  0  2  0  0  0  0  0  0
  161.4300  208.2770  150.8600 C   0  0  0  0  0  0  0  0  0  0  0  0
  161.2550  207.2420  151.7990 C   0  0  0  0  0  0  0  0  0  0  0  0
  161.5840  205.5940  150.0340 C   0  0  0  0  0  0  0  0  0  0  0  0
  162.1480  212.8050  148.2590 C   0  0  0  0  0  2  0  0  0  0  0  0
  161.5230  210.6590  150.3320 C   0  0  0  0  0  0  0  0  0  0  0  0
  161.9520  211.3520  147.8510 C   0  0  0  0  0  2  0  0  0  0  0  0
  160.9060  213.3070  148.9180 C   0  0  0  0  0  0  0  0  0  0  0  0
  161.1860  204.7780  152.3890 C   0  0  0  0  0  2  0  0  0  0  0  0
  161.3180  205.8940  151.3810 C   0  0  0  0  0  0  0  0  0  0  0  0
  161.6850  204.1770  149.5580 C   0  0  0  0  0  2  0  0  0  0  0  0
  161.8790  209.0080  148.5880 C   0  0  0  0  0  3  0  0  0  0  0  0
  163.5880  206.0300  147.5070 C   0  0  0  0  0  1  0  0  0  0  0  0
  161.7730  206.6240  149.0970 C   0  0  0  0  0  0  0  0  0  0  0  0
  160.8990  204.0170  148.2550 C   0  0  2  0  0  3  0  0  0  0  0  0
  161.0400  202.5980  147.7290 C   0  0  0  0  0  2  0  0  0  0  0  0
  160.8160  201.5940  148.8430 C   0  0  0  0  0  1  0  0  0  0  0  0
  160.2590  206.1790  145.2620 C   0  0  0  0  0  2  0  0  0  0  0  0
  160.1230  205.4850  146.3890 C   0  0  0  0  0  3  0  0  0  0  0  0
  160.0540  214.1520  148.2050 O   0  0  0  0  0  0  0  0  0  0  0  0
  158.7120  213.7970  147.9020 C   0  0  1  0  0  3  0  0  0  0  0  0
  158.5120  213.8070  146.4390 C   0  0  0  0  0  2  0  0  0  0  0  0
  158.7090  212.6100  147.1490 O   0  0  0  0  0  0  0  0  0  0  0  0
  1  9  1  0  0  0  0
  2 11  1  0  0  0  0
  4  3  1  0  0  0  0
  5 22  1  1  0  0  0
  5 23  1  0  0  0  0
  6 28  1  1  0  0  0
  6  5  1  0  0  0  0
  6 24  1  0  0  0  0
  7 15  1  0  0  0  0
 10  3  1  0  0  0  0
 11  8  1  0  0  0  0
 11 12  2  0  0  0  0
 12 10  1  0  0  0  0
 13 19  2  0  0  0  0
 14 17  1  0  0  0  0
 15  9  1  0  0  0  0
 15  8  2  0  0  0  0
 16 14  1  0  0  0  0
 16  7  1  0  0  0  0
 17  1  2  0  0  0  0
 18  4  1  0  0  0  0
 19 12  1  0  0  0  0
 19 18  1  0  0  0  0
 20 13  1  0  0  0  0
 21  7  2  0  0  0  0
 21  2  1  0  0  0  0
 23  2  2  0  0  0  0
 23 13  1  0  0  0  0
 24 25  1  6  0  0  0
 24 20  1  0  0  0  0
 25 26  1  0  0  0  0
 27 28  2  0  0  0  0
 29 17  1  0  0  0  0
 30 29  1  6  0  0  0
 31 32  1  0  0  0  0
 31 30  1  0  0  0  0
 32 30  1  0  0  0  0
M  END
>  <MODEL>
7

>  <REMARK>
 VINA RESULT:      -5.5      1.503      2.131
  Name = 
  4 active torsions:
  status: ('A' for Active; 'I' for Inactive)
    1  A    between atoms: C_1  and  O_10
    2  A    between atoms: C_7  and  C_22
    3  A    between atoms: O_10  and  C_24
    4  A    between atoms: C_11  and  C_32
                            x       y       z     vdW  Elec       q    Type
                         _______ _______ _______ _____ _____    ______ ____

>  <TORSDO>
F 4

$$$$
