=
 OpenBabel11052422393D

 31 34  0  0  1  0  0  0  0  0999 V2000
  160.2760  208.9300  157.1220 C   0  0  2  0  0  3  0  0  0  0  0  0
  158.8330  211.2170  154.3290 C   0  0  2  0  0  3  0  0  0  0  0  0
  157.6060  211.8980  154.9100 C   0  0  0  0  0  0  0  0  0  0  0  0
  156.9140  212.3370  157.2430 C   0  0  0  0  0  3  0  0  0  0  0  0
  159.8300  210.7310  155.4080 C   0  0  1  0  0  3  0  0  0  0  0  0
  161.7250  209.4350  157.0700 C   0  0  0  0  0  2  0  0  0  0  0  0
  156.9910  211.3250  156.1510 C   0  0  0  0  0  2  0  0  0  0  0  0
  160.6730  211.3400  152.6560 C   0  0  0  0  0  0  0  0  0  0  0  0
  160.2560  207.4210  157.2610 C   0  0  0  0  0  1  0  0  0  0  0  0
  157.4260  213.2120  152.9210 O   0  0  0  0  0  0  0  0  0  0  0  0
  156.1700  213.4340  157.1450 C   0  0  0  0  0  3  0  0  0  0  0  0
  161.5030  210.6870  153.4750 C   0  0  0  0  0  3  0  0  0  0  0  0
  159.5200  212.0900  153.2690 C   0  0  1  0  0  3  0  0  0  0  0  0
  159.4340  209.3410  155.9070 C   0  0  0  0  0  2  0  0  0  0  0  0
  155.4130  213.8260  155.9420 C   0  0  0  0  0  3  0  0  0  0  0  0
  161.3260  210.7610  154.9660 C   0  0  2  0  0  3  0  0  0  0  0  0
  162.1900  209.6890  155.6390 C   0  0  0  0  0  2  0  0  0  0  0  0
  158.4730  212.5150  152.2520 C   0  0  0  0  0  2  0  0  0  0  0  0
  156.9570  212.8470  154.1930 C   0  0  0  0  0  0  0  0  0  0  0  0
  155.7520  213.5610  154.6740 C   0  0  0  0  0  3  0  0  0  0  0  0
  160.8250  211.2800  151.2280 N   0  0  0  0  0  2  0  0  0  0  0  0
  162.3080  211.0810  148.9950 S   0  0  0  0  0  0  0  0  0  0  0  0
  161.8270  210.5750  150.4790 C   0  0  0  0  0  0  0  0  0  0  0  0
  162.1720  209.1890  150.8910 C   0  0  0  0  0  2  0  0  0  0  0  0
  161.1320  208.3220  150.5440 O   0  0  0  0  0  0  0  0  0  0  0  0
  160.8080  206.3160  149.2740 C   0  0  0  0  0  1  0  0  0  0  0  0
  161.7660  207.1560  150.1030 C   0  0  2  0  0  3  0  0  0  0  0  0
  162.3380  206.3650  151.2820 C   0  0  0  0  0  2  0  0  0  0  0  0
  161.4060  205.2570  151.7720 C   0  0  0  0  0  2  0  0  0  0  0  0
  161.2020  205.3190  153.2790 C   0  0  0  0  0  2  0  0  0  0  0  0
  161.1410  206.7610  153.7480 C   0  0  0  0  0  1  0  0  0  0  0  0
  1  9  1  6  0  0  0
  2  3  1  1  0  0  0
  2  5  1  0  0  0  0
  3  7  1  0  0  0  0
  5 14  1  6  0  0  0
  6  1  1  0  0  0  0
  7  4  1  0  0  0  0
  8 13  1  0  0  0  0
  8 12  2  0  0  0  0
 10 19  1  0  0  0  0
 11  4  2  0  0  0  0
 13 18  1  6  0  0  0
 13  2  1  0  0  0  0
 14  1  1  0  0  0  0
 15 11  1  0  0  0  0
 16 12  1  6  0  0  0
 16  5  1  0  0  0  0
 16 17  1  0  0  0  0
 17  6  1  0  0  0  0
 18 10  1  0  0  0  0
 19 20  1  0  0  0  0
 19  3  2  0  0  0  0
 20 15  2  0  0  0  0
 21  8  1  0  0  0  0
 22 23  2  0  0  0  0
 23 24  1  0  0  0  0
 23 21  1  0  0  0  0
 25 24  1  0  0  0  0
 27 26  1  1  0  0  0
 27 25  1  0  0  0  0
 27 28  1  0  0  0  0
 28 29  1  0  0  0  0
 29 30  1  0  0  0  0
 30 31  1  0  0  0  0
M  END
>  <MODEL>
1

>  <REMARK>
 VINA RESULT:      -6.1      0.000      0.000
  Name = 
  8 active torsions:
  status: ('A' for Active; 'I' for Inactive)
    1  A    between atoms: C_1  and  C_11
    2  A    between atoms: C_3  and  C_9
    3  A    between atoms: C_3  and  O_22
    4  A    between atoms: C_9  and  N_23
    5  A    between atoms: C_11  and  C_24
    6  A    between atoms: C_15  and  N_23
    7  A    between atoms: C_19  and  O_22
    8  A    between atoms: C_19  and  C_24
                            x       y       z     vdW  Elec       q    Type
                         _______ _______ _______ _____ _____    ______ ____

>  <TORSDO>
F 8

$$$$
=
 OpenBabel11052422393D

 31 34  0  0  1  0  0  0  0  0999 V2000
  161.3730  202.3470  151.3140 C   0  0  2  0  0  3  0  0  0  0  0  0
  161.5460  204.7150  148.2360 C   0  0  2  0  0  3  0  0  0  0  0  0
  161.1950  203.8770  147.0180 C   0  0  0  0  0  0  0  0  0  0  0  0
  159.9520  201.7530  146.7800 C   0  0  0  0  0  3  0  0  0  0  0  0
  161.0020  204.1250  149.5590 C   0  0  1  0  0  3  0  0  0  0  0  0
  160.4520  203.2130  152.1860 C   0  0  0  0  0  2  0  0  0  0  0  0
  161.2550  202.3840  147.1360 C   0  0  0  0  0  2  0  0  0  0  0  0
  161.5840  206.9910  149.2420 C   0  0  0  0  0  0  0  0  0  0  0  0
  162.4840  201.7550  152.1590 C   0  0  0  0  0  1  0  0  0  0  0  0
  161.2390  205.8560  145.6760 O   0  0  0  0  0  0  0  0  0  0  0  0
  159.4330  201.8320  145.5590 C   0  0  0  0  0  3  0  0  0  0  0  0
  161.3640  206.4900  150.4610 C   0  0  0  0  0  3  0  0  0  0  0  0
  161.1350  206.1830  148.0530 C   0  0  1  0  0  3  0  0  0  0  0  0
  161.9830  203.0980  150.1240 C   0  0  0  0  0  2  0  0  0  0  0  0
  160.0200  202.6060  144.4510 C   0  0  0  0  0  3  0  0  0  0  0  0
  160.6280  205.1900  150.6350 C   0  0  2  0  0  3  0  0  0  0  0  0
  160.7930  204.6970  152.0760 C   0  0  0  0  0  2  0  0  0  0  0  0
  161.7140  206.6790  146.7380 C   0  0  0  0  0  2  0  0  0  0  0  0
  161.0650  204.4690  145.8060 C   0  0  0  0  0  0  0  0  0  0  0  0
  160.7310  203.7350  144.5640 C   0  0  0  0  0  3  0  0  0  0  0  0
  162.2870  208.2320  149.0560 N   0  0  0  0  0  2  0  0  0  0  0  0
  162.0100  210.8970  148.8550 S   0  0  0  0  0  0  0  0  0  0  0  0
  162.0340  209.4910  149.6970 C   0  0  0  0  0  0  0  0  0  0  0  0
  162.1500  209.5640  151.1780 C   0  0  0  0  0  2  0  0  0  0  0  0
  161.3100  210.5690  151.6670 O   0  0  0  0  0  0  0  0  0  0  0  0
  159.3640  210.8720  153.0320 C   0  0  0  0  0  1  0  0  0  0  0  0
  160.4470  209.9170  152.5530 C   0  0  2  0  0  3  0  0  0  0  0  0
  161.2220  209.3080  153.7250 C   0  0  0  0  0  2  0  0  0  0  0  0
  160.8530  207.8500  153.9980 C   0  0  0  0  0  2  0  0  0  0  0  0
  160.9990  207.5000  155.4720 C   0  0  0  0  0  2  0  0  0  0  0  0
  159.6370  207.2740  156.1020 C   0  0  0  0  0  1  0  0  0  0  0  0
  1  9  1  1  0  0  0
  1  6  1  0  0  0  0
  2  3  1  6  0  0  0
  2  5  1  0  0  0  0
  3  7  1  0  0  0  0
  4  7  1  0  0  0  0
  5 14  1  1  0  0  0
  5 16  1  0  0  0  0
  8 12  2  0  0  0  0
 10 19  1  0  0  0  0
 10 18  1  0  0  0  0
 11  4  2  0  0  0  0
 13 18  1  6  0  0  0
 13  2  1  0  0  0  0
 13  8  1  0  0  0  0
 14  1  1  0  0  0  0
 15 20  2  0  0  0  0
 15 11  1  0  0  0  0
 16 12  1  1  0  0  0
 16 17  1  0  0  0  0
 17  6  1  0  0  0  0
 19  3  2  0  0  0  0
 20 19  1  0  0  0  0
 21  8  1  0  0  0  0
 21 23  1  0  0  0  0
 22 23  2  0  0  0  0
 23 24  1  0  0  0  0
 24 25  1  0  0  0  0
 25 27  1  0  0  0  0
 27 26  1  1  0  0  0
 27 28  1  0  0  0  0
 28 29  1  0  0  0  0
 29 30  1  0  0  0  0
 30 31  1  0  0  0  0
M  END
>  <MODEL>
2

>  <REMARK>
 VINA RESULT:      -6.0      3.116      8.928
  Name = 
  8 active torsions:
  status: ('A' for Active; 'I' for Inactive)
    1  A    between atoms: C_1  and  C_11
    2  A    between atoms: C_3  and  C_9
    3  A    between atoms: C_3  and  O_22
    4  A    between atoms: C_9  and  N_23
    5  A    between atoms: C_11  and  C_24
    6  A    between atoms: C_15  and  N_23
    7  A    between atoms: C_19  and  O_22
    8  A    between atoms: C_19  and  C_24
                            x       y       z     vdW  Elec       q    Type
                         _______ _______ _______ _____ _____    ______ ____

>  <TORSDO>
F 8

$$$$
=
 OpenBabel11052422393D

 31 34  0  0  1  0  0  0  0  0999 V2000
  161.2690  203.5660  145.5560 C   0  0  2  0  0  3  0  0  0  0  0  0
  160.9830  205.4140  148.9650 C   0  0  2  0  0  3  0  0  0  0  0  0
  160.8370  204.3430  150.0330 C   0  0  0  0  0  0  0  0  0  0  0  0
  161.4420  201.9460  150.0590 C   0  0  0  0  0  3  0  0  0  0  0  0
  161.6530  204.8950  147.6690 C   0  0  1  0  0  3  0  0  0  0  0  0
  162.5440  204.2580  145.0550 C   0  0  0  0  0  2  0  0  0  0  0  0
  160.4460  202.9600  149.6100 C   0  0  0  0  0  2  0  0  0  0  0  0
  161.7260  207.7320  148.4440 C   0  0  0  0  0  0  0  0  0  0  0  0
  160.2680  203.4360  144.4250 C   0  0  0  0  0  1  0  0  0  0  0  0
  160.9720  206.0390  151.7130 O   0  0  0  0  0  0  0  0  0  0  0  0
  161.6750  201.6990  151.3440 C   0  0  0  0  0  3  0  0  0  0  0  0
  162.0880  207.3720  147.2090 C   0  0  0  0  0  3  0  0  0  0  0  0
  161.6850  206.6660  149.5080 C   0  0  1  0  0  3  0  0  0  0  0  0
  160.6060  204.2750  146.7440 C   0  0  0  0  0  2  0  0  0  0  0  0
  161.0580  202.4360  152.4620 C   0  0  0  0  0  3  0  0  0  0  0  0
  162.5070  205.9590  146.9130 C   0  0  2  0  0  3  0  0  0  0  0  0
  162.5560  205.7460  145.3960 C   0  0  0  0  0  2  0  0  0  0  0  0
  160.9620  207.1070  150.7710 C   0  0  0  0  0  2  0  0  0  0  0  0
  160.8290  204.6920  151.3420 C   0  0  0  0  0  0  0  0  0  0  0  0
  160.6860  203.7220  152.4520 C   0  0  0  0  0  3  0  0  0  0  0  0
  161.3210  209.0780  148.7460 N   0  0  0  0  0  2  0  0  0  0  0  0
  162.2930  210.2800  150.9450 S   0  0  0  0  0  0  0  0  0  0  0  0
  162.1140  210.1270  149.3220 C   0  0  0  0  0  0  0  0  0  0  0  0
  162.4820  211.2850  148.4640 C   0  0  0  0  0  2  0  0  0  0  0  0
  161.7240  212.4010  148.8310 O   0  0  0  0  0  0  0  0  0  0  0  0
  160.4040  212.2750  146.8340 C   0  0  0  0  0  1  0  0  0  0  0  0
  161.4410  213.0550  147.6270 C   0  0  2  0  0  3  0  0  0  0  0  0
  162.7190  213.2840  146.8150 C   0  0  0  0  0  2  0  0  0  0  0  0
  162.4660  213.9790  145.4780 C   0  0  0  0  0  2  0  0  0  0  0  0
  163.1720  213.2680  144.3320 C   0  0  0  0  0  2  0  0  0  0  0  0
  162.1590  212.6990  143.3550 C   0  0  0  0  0  1  0  0  0  0  0  0
  1  9  1  6  0  0  0
  1 14  1  0  0  0  0
  2 13  1  0  0  0  0
  2  3  1  1  0  0  0
  3 19  2  0  0  0  0
  4 11  2  0  0  0  0
  5 14  1  6  0  0  0
  5  2  1  0  0  0  0
  6 17  1  0  0  0  0
  6  1  1  0  0  0  0
  7  3  1  0  0  0  0
  7  4  1  0  0  0  0
  8 21  1  0  0  0  0
  8 13  1  0  0  0  0
 11 15  1  0  0  0  0
 12  8  2  0  0  0  0
 13 18  1  1  0  0  0
 16 17  1  6  0  0  0
 16 12  1  0  0  0  0
 16  5  1  0  0  0  0
 18 10  1  0  0  0  0
 19 10  1  0  0  0  0
 19 20  1  0  0  0  0
 20 15  2  0  0  0  0
 21 23  1  0  0  0  0
 23 22  2  0  0  0  0
 24 25  1  0  0  0  0
 24 23  1  0  0  0  0
 27 26  1  6  0  0  0
 27 25  1  0  0  0  0
 28 27  1  0  0  0  0
 29 28  1  0  0  0  0
 30 29  1  0  0  0  0
 31 30  1  0  0  0  0
M  END
>  <MODEL>
3

>  <REMARK>
 VINA RESULT:      -6.0      5.693      9.552
  Name = 
  8 active torsions:
  status: ('A' for Active; 'I' for Inactive)
    1  A    between atoms: C_1  and  C_11
    2  A    between atoms: C_3  and  C_9
    3  A    between atoms: C_3  and  O_22
    4  A    between atoms: C_9  and  N_23
    5  A    between atoms: C_11  and  C_24
    6  A    between atoms: C_15  and  N_23
    7  A    between atoms: C_19  and  O_22
    8  A    between atoms: C_19  and  C_24
                            x       y       z     vdW  Elec       q    Type
                         _______ _______ _______ _____ _____    ______ ____

>  <TORSDO>
F 8

$$$$
=
 OpenBabel11052422393D

 31 34  0  0  1  0  0  0  0  0999 V2000
  159.2450  212.1790  154.0810 C   0  0  2  0  0  3  0  0  0  0  0  0
  161.0040  210.5550  151.0190 C   0  0  2  0  0  3  0  0  0  0  0  0
  161.0140  211.5980  149.9140 C   0  0  0  0  0  0  0  0  0  0  0  0
  160.8250  214.0620  149.9710 C   0  0  0  0  0  3  0  0  0  0  0  0
  160.8700  211.1660  152.4340 C   0  0  1  0  0  3  0  0  0  0  0  0
  160.3280  211.8720  155.1250 C   0  0  0  0  0  2  0  0  0  0  0  0
  160.0860  212.7690  150.0290 C   0  0  0  0  0  2  0  0  0  0  0  0
  162.1110  208.5390  151.9740 C   0  0  0  0  0  0  0  0  0  0  0  0
  157.8700  211.9290  154.6680 C   0  0  0  0  0  1  0  0  0  0  0  0
  162.3520  210.1330  148.5790 O   0  0  0  0  0  0  0  0  0  0  0  0
  161.4970  214.4500  148.8920 C   0  0  0  0  0  3  0  0  0  0  0  0
  161.7860  208.9110  153.2150 C   0  0  0  0  0  3  0  0  0  0  0  0
  162.2100  209.6090  150.9180 C   0  0  1  0  0  3  0  0  0  0  0  0
  159.3960  211.3820  152.7790 C   0  0  0  0  0  2  0  0  0  0  0  0
  161.6660  213.6350  147.6760 C   0  0  0  0  0  3  0  0  0  0  0  0
  161.5950  210.3630  153.5570 C   0  0  2  0  0  3  0  0  0  0  0  0
  160.9290  210.4820  154.9310 C   0  0  0  0  0  2  0  0  0  0  0  0
  162.2610  209.0530  149.5040 C   0  0  0  0  0  2  0  0  0  0  0  0
  161.6690  211.3470  148.7540 C   0  0  0  0  0  0  0  0  0  0  0  0
  161.7290  212.2990  147.6210 C   0  0  0  0  0  3  0  0  0  0  0  0
  162.2960  207.1560  151.6270 N   0  0  0  0  0  2  0  0  0  0  0  0
  161.1190  205.2670  153.1330 S   0  0  0  0  0  0  0  0  0  0  0  0
  161.3420  206.0880  151.7320 C   0  0  0  0  0  0  0  0  0  0  0  0
  160.8130  205.4890  150.4780 C   0  0  0  0  0  2  0  0  0  0  0  0
  160.3960  204.1780  150.7220 O   0  0  0  0  0  0  0  0  0  0  0  0
  160.9320  202.1070  149.6400 C   0  0  0  0  0  1  0  0  0  0  0  0
  160.4580  203.5430  149.4770 C   0  0  2  0  0  3  0  0  0  0  0  0
  161.3470  204.3250  148.5060 C   0  0  0  0  0  2  0  0  0  0  0  0
  161.5700  203.6020  147.1780 C   0  0  0  0  0  2  0  0  0  0  0  0
  162.0200  204.5610  146.0850 C   0  0  0  0  0  2  0  0  0  0  0  0
  161.6450  205.9880  146.4420 C   0  0  0  0  0  1  0  0  0  0  0  0
  1  9  1  1  0  0  0
  1  6  1  0  0  0  0
  2  3  1  6  0  0  0
  2  5  1  0  0  0  0
  3  7  1  0  0  0  0
  4  7  1  0  0  0  0
  5 14  1  1  0  0  0
  5 16  1  0  0  0  0
  8 12  2  0  0  0  0
 10 19  1  0  0  0  0
 10 18  1  0  0  0  0
 11  4  2  0  0  0  0
 13 18  1  6  0  0  0
 13  2  1  0  0  0  0
 13  8  1  0  0  0  0
 14  1  1  0  0  0  0
 15 11  1  0  0  0  0
 16 12  1  6  0  0  0
 16 17  1  0  0  0  0
 17  6  1  0  0  0  0
 19  3  2  0  0  0  0
 20 15  2  0  0  0  0
 20 19  1  0  0  0  0
 21 23  1  0  0  0  0
 21  8  1  0  0  0  0
 23 22  2  0  0  0  0
 24 25  1  0  0  0  0
 24 23  1  0  0  0  0
 27 26  1  1  0  0  0
 27 25  1  0  0  0  0
 28 27  1  0  0  0  0
 29 28  1  0  0  0  0
 30 31  1  0  0  0  0
 30 29  1  0  0  0  0
M  END
>  <MODEL>
4

>  <REMARK>
 VINA RESULT:      -5.8      2.830      5.782
  Name = 
  8 active torsions:
  status: ('A' for Active; 'I' for Inactive)
    1  A    between atoms: C_1  and  C_11
    2  A    between atoms: C_3  and  C_9
    3  A    between atoms: C_3  and  O_22
    4  A    between atoms: C_9  and  N_23
    5  A    between atoms: C_11  and  C_24
    6  A    between atoms: C_15  and  N_23
    7  A    between atoms: C_19  and  O_22
    8  A    between atoms: C_19  and  C_24
                            x       y       z     vdW  Elec       q    Type
                         _______ _______ _______ _____ _____    ______ ____

>  <TORSDO>
F 8

$$$$
=
 OpenBabel11052422393D

 31 34  0  0  1  0  0  0  0  0999 V2000
  162.0940  210.6910  149.3820 C   0  0  2  0  0  3  0  0  0  0  0  0
  161.4280  208.2800  152.3570 C   0  0  2  0  0  3  0  0  0  0  0  0
  160.8500  209.1220  153.4830 C   0  0  0  0  0  0  0  0  0  0  0  0
  159.7000  211.3110  153.4820 C   0  0  0  0  0  3  0  0  0  0  0  0
  161.2350  208.9160  150.9600 C   0  0  1  0  0  3  0  0  0  0  0  0
  161.3550  209.8890  148.3010 C   0  0  0  0  0  2  0  0  0  0  0  0
  161.0150  210.6100  153.4190 C   0  0  0  0  0  2  0  0  0  0  0  0
  161.5760  206.0180  151.3300 C   0  0  0  0  0  0  0  0  0  0  0  0
  163.3990  211.2280  148.8290 C   0  0  0  0  0  1  0  0  0  0  0  0
  160.4790  207.1270  154.7490 O   0  0  0  0  0  0  0  0  0  0  0  0
  158.9100  211.2470  154.5490 C   0  0  0  0  0  3  0  0  0  0  0  0
  161.6690  206.5460  150.1060 C   0  0  0  0  0  3  0  0  0  0  0  0
  160.9090  206.8360  152.4040 C   0  0  1  0  0  3  0  0  0  0  0  0
  162.3730  209.8920  150.6610 C   0  0  0  0  0  2  0  0  0  0  0  0
  159.1850  210.4270  155.7430 C   0  0  0  0  0  3  0  0  0  0  0  0
  161.0630  207.8870  149.8000 C   0  0  2  0  0  3  0  0  0  0  0  0
  161.5820  208.3870  148.4480 C   0  0  0  0  0  2  0  0  0  0  0  0
  161.1420  206.2910  153.8050 C   0  0  0  0  0  2  0  0  0  0  0  0
  160.4130  208.5240  154.6180 C   0  0  0  0  0  0  0  0  0  0  0  0
  159.8410  209.2610  155.7680 C   0  0  0  0  0  3  0  0  0  0  0  0
  162.1500  204.7370  151.6420 N   0  0  0  0  0  2  0  0  0  0  0  0
  162.3260  202.0700  151.9250 S   0  0  0  0  0  0  0  0  0  0  0  0
  161.5790  203.4380  151.4170 C   0  0  0  0  0  0  0  0  0  0  0  0
  160.4900  203.3110  150.4130 C   0  0  0  0  0  2  0  0  0  0  0  0
  160.4650  202.0070  149.9090 O   0  0  0  0  0  0  0  0  0  0  0  0
  161.2280  200.9590  147.8930 C   0  0  0  0  0  1  0  0  0  0  0  0
  160.5310  202.1570  148.5200 C   0  0  2  0  0  3  0  0  0  0  0  0
  161.2180  203.4720  148.1420 C   0  0  0  0  0  2  0  0  0  0  0  0
  161.5830  203.5570  146.6610 C   0  0  0  0  0  2  0  0  0  0  0  0
  162.0190  204.9610  146.2690 C   0  0  0  0  0  2  0  0  0  0  0  0
  160.8190  205.7980  145.8650 C   0  0  0  0  0  1  0  0  0  0  0  0
  1  9  1  6  0  0  0
  1 14  1  0  0  0  0
  2 13  1  0  0  0  0
  2  3  1  1  0  0  0
  3 19  2  0  0  0  0
  4 11  2  0  0  0  0
  5 14  1  6  0  0  0
  5  2  1  0  0  0  0
  6 17  1  0  0  0  0
  6  1  1  0  0  0  0
  7  4  1  0  0  0  0
  7  3  1  0  0  0  0
  8 21  1  0  0  0  0
  8 13  1  0  0  0  0
 11 15  1  0  0  0  0
 12  8  2  0  0  0  0
 13 18  1  1  0  0  0
 15 20  2  0  0  0  0
 16 17  1  6  0  0  0
 16 12  1  0  0  0  0
 16  5  1  0  0  0  0
 18 10  1  0  0  0  0
 19 10  1  0  0  0  0
 19 20  1  0  0  0  0
 23 21  1  0  0  0  0
 23 22  2  0  0  0  0
 24 23  1  0  0  0  0
 25 24  1  0  0  0  0
 27 26  1  6  0  0  0
 27 25  1  0  0  0  0
 28 27  1  0  0  0  0
 29 28  1  0  0  0  0
 30 29  1  0  0  0  0
 31 30  1  0  0  0  0
M  END
>  <MODEL>
5

>  <REMARK>
 VINA RESULT:      -5.6      3.293      6.380
  Name = 
  8 active torsions:
  status: ('A' for Active; 'I' for Inactive)
    1  A    between atoms: C_1  and  C_11
    2  A    between atoms: C_3  and  C_9
    3  A    between atoms: C_3  and  O_22
    4  A    between atoms: C_9  and  N_23
    5  A    between atoms: C_11  and  C_24
    6  A    between atoms: C_15  and  N_23
    7  A    between atoms: C_19  and  O_22
    8  A    between atoms: C_19  and  C_24
                            x       y       z     vdW  Elec       q    Type
                         _______ _______ _______ _____ _____    ______ ____

>  <TORSDO>
F 8

$$$$
=
 OpenBabel11052422393D

 31 34  0  0  1  0  0  0  0  0999 V2000
  160.8120  201.2460  149.5810 C   0  0  2  0  0  3  0  0  0  0  0  0
  161.7090  204.8580  148.4570 C   0  0  2  0  0  3  0  0  0  0  0  0
  161.6720  204.8660  146.9390 C   0  0  0  0  0  0  0  0  0  0  0  0
  160.5440  203.3900  145.3080 C   0  0  0  0  0  3  0  0  0  0  0  0
  160.8640  203.7220  149.0820 C   0  0  1  0  0  3  0  0  0  0  0  0
  159.6990  201.6120  150.5740 C   0  0  0  0  0  2  0  0  0  0  0  0
  161.7150  203.5550  146.2150 C   0  0  0  0  0  2  0  0  0  0  0  0
  161.4790  206.2000  150.5420 C   0  0  0  0  0  0  0  0  0  0  0  0
  161.6880  200.1550  150.1620 C   0  0  0  0  0  1  0  0  0  0  0  0
  162.0240  207.2310  146.9690 O   0  0  0  0  0  0  0  0  0  0  0  0
  160.3370  204.1830  144.2610 C   0  0  0  0  0  3  0  0  0  0  0  0
  160.9740  205.1510  151.1980 C   0  0  0  0  0  3  0  0  0  0  0  0
  161.3420  206.2290  149.0420 C   0  0  1  0  0  3  0  0  0  0  0  0
  161.6870  202.4360  149.1670 C   0  0  0  0  0  2  0  0  0  0  0  0
  161.1700  205.3510  143.9220 C   0  0  0  0  0  3  0  0  0  0  0  0
  160.2290  204.0720  150.4630 C   0  0  2  0  0  3  0  0  0  0  0  0
  160.0430  202.8610  151.3820 C   0  0  0  0  0  2  0  0  0  0  0  0
  162.2190  207.2800  148.3800 C   0  0  0  0  0  2  0  0  0  0  0  0
  161.8360  206.0310  146.2650 C   0  0  0  0  0  0  0  0  0  0  0  0
  161.8220  206.1370  144.7880 C   0  0  0  0  0  3  0  0  0  0  0  0
  162.1960  207.2410  151.2270 N   0  0  0  0  0  2  0  0  0  0  0  0
  162.3130  209.9260  151.2270 S   0  0  0  0  0  0  0  0  0  0  0  0
  161.6810  208.4920  151.7100 C   0  0  0  0  0  0  0  0  0  0  0  0
  160.8140  208.4790  152.9180 C   0  0  0  0  0  2  0  0  0  0  0  0
  161.3280  207.5800  153.8560 O   0  0  0  0  0  0  0  0  0  0  0  0
  160.0130  207.2040  155.8240 C   0  0  0  0  0  1  0  0  0  0  0  0
  160.9850  208.1220  155.0990 C   0  0  2  0  0  3  0  0  0  0  0  0
  160.4190  209.5360  154.9430 C   0  0  0  0  0  2  0  0  0  0  0  0
  159.8610  210.1080  156.2460 C   0  0  0  0  0  2  0  0  0  0  0  0
  158.8930  211.2530  155.9880 C   0  0  0  0  0  2  0  0  0  0  0  0
  158.4870  211.2870  154.5260 C   0  0  0  0  0  1  0  0  0  0  0  0
  1  9  1  1  0  0  0
  1  6  1  0  0  0  0
  2  3  1  6  0  0  0
  2 13  1  0  0  0  0
  2  5  1  0  0  0  0
  4  7  1  0  0  0  0
  5 14  1  1  0  0  0
  5 16  1  0  0  0  0
  6 17  1  0  0  0  0
  7  3  1  0  0  0  0
  8 12  2  0  0  0  0
  8 21  1  0  0  0  0
 10 18  1  0  0  0  0
 11  4  2  0  0  0  0
 13 18  1  6  0  0  0
 13  8  1  0  0  0  0
 14  1  1  0  0  0  0
 15 11  1  0  0  0  0
 15 20  2  0  0  0  0
 16 12  1  1  0  0  0
 16 17  1  0  0  0  0
 19  3  2  0  0  0  0
 19 10  1  0  0  0  0
 20 19  1  0  0  0  0
 21 23  1  0  0  0  0
 22 23  2  0  0  0  0
 23 24  1  0  0  0  0
 24 25  1  0  0  0  0
 25 27  1  0  0  0  0
 27 26  1  6  0  0  0
 28 27  1  0  0  0  0
 28 29  1  0  0  0  0
 30 29  1  0  0  0  0
 31 30  1  0  0  0  0
M  END
>  <MODEL>
6

>  <REMARK>
 VINA RESULT:      -5.5      3.203      9.270
  Name = 
  8 active torsions:
  status: ('A' for Active; 'I' for Inactive)
    1  A    between atoms: C_1  and  C_11
    2  A    between atoms: C_3  and  C_9
    3  A    between atoms: C_3  and  O_22
    4  A    between atoms: C_9  and  N_23
    5  A    between atoms: C_11  and  C_24
    6  A    between atoms: C_15  and  N_23
    7  A    between atoms: C_19  and  O_22
    8  A    between atoms: C_19  and  C_24
                            x       y       z     vdW  Elec       q    Type
                         _______ _______ _______ _____ _____    ______ ____

>  <TORSDO>
F 8

$$$$
=
 OpenBabel11052422393D

 31 34  0  0  1  0  0  0  0  0999 V2000
  161.9560  210.4160  148.6260 C   0  0  2  0  0  3  0  0  0  0  0  0
  161.1550  206.9430  150.1770 C   0  0  2  0  0  3  0  0  0  0  0  0
  161.2520  205.9270  149.0520 C   0  0  0  0  0  0  0  0  0  0  0  0
  162.4240  205.9840  146.8750 C   0  0  0  0  0  3  0  0  0  0  0  0
  161.9580  208.2360  149.9020 C   0  0  1  0  0  3  0  0  0  0  0  0
  163.0340  210.8450  149.6320 C   0  0  0  0  0  2  0  0  0  0  0  0
  161.2200  206.4220  147.6380 C   0  0  0  0  0  2  0  0  0  0  0  0
  161.3200  207.3380  152.6290 C   0  0  0  0  0  0  0  0  0  0  0  0
  161.0420  211.5840  148.3140 C   0  0  0  0  0  1  0  0  0  0  0  0
  160.9320  204.1710  150.6430 O   0  0  0  0  0  0  0  0  0  0  0  0
  162.6830  204.7030  146.6280 C   0  0  0  0  0  3  0  0  0  0  0  0
  161.7840  208.5750  152.4300 C   0  0  0  0  0  3  0  0  0  0  0  0
  161.5170  206.3230  151.5340 C   0  0  1  0  0  3  0  0  0  0  0  0
  161.1150  209.2210  149.0930 C   0  0  0  0  0  2  0  0  0  0  0  0
  161.8810  203.5760  147.1370 C   0  0  0  0  0  3  0  0  0  0  0  0
  162.5420  208.9180  151.1780 C   0  0  2  0  0  3  0  0  0  0  0  0
  162.6750  210.4390  151.0600 C   0  0  0  0  0  2  0  0  0  0  0  0
  160.6820  205.0670  151.7230 C   0  0  0  0  0  2  0  0  0  0  0  0
  161.1310  204.6050  149.3230 C   0  0  0  0  0  0  0  0  0  0  0  0
  161.2060  203.5430  148.2930 C   0  0  0  0  0  3  0  0  0  0  0  0
  160.5910  206.9920  153.8200 N   0  0  0  0  0  2  0  0  0  0  0  0
  160.0810  206.9530  156.4580 S   0  0  0  0  0  0  0  0  0  0  0  0
  160.5810  207.6830  155.0780 C   0  0  0  0  0  0  0  0  0  0  0  0
  160.6860  209.1670  155.0680 C   0  0  0  0  0  2  0  0  0  0  0  0
  159.4130  209.7280  155.1990 O   0  0  0  0  0  0  0  0  0  0  0  0
  158.2880  211.8450  155.1870 C   0  0  0  0  0  1  0  0  0  0  0  0
  159.6150  211.1080  155.0910 C   0  0  2  0  0  3  0  0  0  0  0  0
  160.3610  211.4530  153.7980 C   0  0  0  0  0  2  0  0  0  0  0  0
  159.4590  211.4480  152.5640 C   0  0  0  0  0  2  0  0  0  0  0  0
  159.7060  212.6650  151.6830 C   0  0  0  0  0  2  0  0  0  0  0  0
  158.4750  213.5510  151.6430 C   0  0  0  0  0  1  0  0  0  0  0  0
  1  9  1  1  0  0  0
  1 14  1  0  0  0  0
  1  6  1  0  0  0  0
  2  3  1  6  0  0  0
  2 13  1  0  0  0  0
  3 19  2  0  0  0  0
  4  7  1  0  0  0  0
  5 14  1  1  0  0  0
  5  2  1  0  0  0  0
  5 16  1  0  0  0  0
  6 17  1  0  0  0  0
  7  3  1  0  0  0  0
  8 21  1  0  0  0  0
 10 18  1  0  0  0  0
 11  4  2  0  0  0  0
 11 15  1  0  0  0  0
 12  8  2  0  0  0  0
 13 18  1  1  0  0  0
 13  8  1  0  0  0  0
 15 20  2  0  0  0  0
 16 17  1  6  0  0  0
 16 12  1  0  0  0  0
 19 10  1  0  0  0  0
 20 19  1  0  0  0  0
 21 23  1  0  0  0  0
 23 22  2  0  0  0  0
 24 23  1  0  0  0  0
 24 25  1  0  0  0  0
 27 26  1  6  0  0  0
 27 25  1  0  0  0  0
 28 27  1  0  0  0  0
 29 28  1  0  0  0  0
 30 29  1  0  0  0  0
 31 30  1  0  0  0  0
M  END
>  <MODEL>
7

>  <REMARK>
 VINA RESULT:      -5.3      2.713      8.483
  Name = 
  8 active torsions:
  status: ('A' for Active; 'I' for Inactive)
    1  A    between atoms: C_1  and  C_11
    2  A    between atoms: C_3  and  C_9
    3  A    between atoms: C_3  and  O_22
    4  A    between atoms: C_9  and  N_23
    5  A    between atoms: C_11  and  C_24
    6  A    between atoms: C_15  and  N_23
    7  A    between atoms: C_19  and  O_22
    8  A    between atoms: C_19  and  C_24
                            x       y       z     vdW  Elec       q    Type
                         _______ _______ _______ _____ _____    ______ ____

>  <TORSDO>
F 8

$$$$
=
 OpenBabel11052422393D

 31 34  0  0  1  0  0  0  0  0999 V2000
  161.2590  202.0860  151.1750 C   0  0  2  0  0  3  0  0  0  0  0  0
  161.6310  204.6300  148.2600 C   0  0  2  0  0  3  0  0  0  0  0  0
  161.2600  203.8930  146.9840 C   0  0  0  0  0  0  0  0  0  0  0  0
  159.9060  201.8630  146.5870 C   0  0  0  0  0  3  0  0  0  0  0  0
  161.0270  203.9900  149.5320 C   0  0  1  0  0  3  0  0  0  0  0  0
  160.3690  202.9460  152.0840 C   0  0  0  0  0  2  0  0  0  0  0  0
  161.2340  202.3950  147.0070 C   0  0  0  0  0  2  0  0  0  0  0  0
  161.7740  206.8320  149.4120 C   0  0  0  0  0  0  0  0  0  0  0  0
  162.3160  201.3790  152.0000 C   0  0  0  0  0  1  0  0  0  0  0  0
  161.4440  205.9470  145.7740 O   0  0  0  0  0  0  0  0  0  0  0  0
  159.4190  202.0490  145.3640 C   0  0  0  0  0  3  0  0  0  0  0  0
  161.5000  206.2680  150.5910 C   0  0  0  0  0  3  0  0  0  0  0  0
  161.3070  206.1280  148.1650 C   0  0  1  0  0  3  0  0  0  0  0  0
  161.9360  202.8740  150.0470 C   0  0  0  0  0  2  0  0  0  0  0  0
  160.0720  202.8570  144.3190 C   0  0  0  0  0  3  0  0  0  0  0  0
  160.6890  205.0040  150.6680 C   0  0  2  0  0  3  0  0  0  0  0  0
  160.7950  204.4120  152.0770 C   0  0  0  0  0  2  0  0  0  0  0  0
  161.9420  206.6730  146.8950 C   0  0  0  0  0  2  0  0  0  0  0  0
  161.1900  204.5670  145.8110 C   0  0  0  0  0  0  0  0  0  0  0  0
  160.8430  203.9340  144.5180 C   0  0  0  0  0  3  0  0  0  0  0  0
  162.5490  208.0400  149.3180 N   0  0  0  0  0  2  0  0  0  0  0  0
  161.9630  209.7930  151.2690 S   0  0  0  0  0  0  0  0  0  0  0  0
  162.1580  209.3680  149.6970 C   0  0  0  0  0  0  0  0  0  0  0  0
  161.5830  210.2590  148.6540 C   0  0  0  0  0  2  0  0  0  0  0  0
  161.9310  211.5850  148.9240 O   0  0  0  0  0  0  0  0  0  0  0  0
  162.5710  213.5950  147.7860 C   0  0  0  0  0  1  0  0  0  0  0  0
  161.9360  212.2170  147.6770 C   0  0  2  0  0  3  0  0  0  0  0  0
  160.5210  212.2910  147.0940 C   0  0  0  0  0  2  0  0  0  0  0  0
  160.5010  212.6260  145.6030 C   0  0  0  0  0  2  0  0  0  0  0  0
  159.2520  213.4060  145.2200 C   0  0  0  0  0  2  0  0  0  0  0  0
  158.0060  212.6910  145.7100 C   0  0  0  0  0  1  0  0  0  0  0  0
  1  9  1  1  0  0  0
  1  6  1  0  0  0  0
  2  3  1  6  0  0  0
  2  5  1  0  0  0  0
  3  7  1  0  0  0  0
  4  7  1  0  0  0  0
  5 14  1  1  0  0  0
  5 16  1  0  0  0  0
  8 12  2  0  0  0  0
 10 19  1  0  0  0  0
 10 18  1  0  0  0  0
 11  4  2  0  0  0  0
 13 18  1  6  0  0  0
 13  2  1  0  0  0  0
 13  8  1  0  0  0  0
 14  1  1  0  0  0  0
 15 20  2  0  0  0  0
 15 11  1  0  0  0  0
 16 12  1  1  0  0  0
 16 17  1  0  0  0  0
 17  6  1  0  0  0  0
 19  3  2  0  0  0  0
 20 19  1  0  0  0  0
 21  8  1  0  0  0  0
 21 23  1  0  0  0  0
 23 22  2  0  0  0  0
 24 25  1  0  0  0  0
 24 23  1  0  0  0  0
 27 26  1  1  0  0  0
 27 25  1  0  0  0  0
 28 27  1  0  0  0  0
 29 28  1  0  0  0  0
 30 29  1  0  0  0  0
 30 31  1  0  0  0  0
M  END
>  <MODEL>
8

>  <REMARK>
 VINA RESULT:      -5.0      5.872      9.679
  Name = 
  8 active torsions:
  status: ('A' for Active; 'I' for Inactive)
    1  A    between atoms: C_1  and  C_11
    2  A    between atoms: C_3  and  C_9
    3  A    between atoms: C_3  and  O_22
    4  A    between atoms: C_9  and  N_23
    5  A    between atoms: C_11  and  C_24
    6  A    between atoms: C_15  and  N_23
    7  A    between atoms: C_19  and  O_22
    8  A    between atoms: C_19  and  C_24
                            x       y       z     vdW  Elec       q    Type
                         _______ _______ _______ _____ _____    ______ ____

>  <TORSDO>
F 8

$$$$
=
 OpenBabel11052422393D

 31 34  0  0  1  0  0  0  0  0999 V2000
  161.3570  205.7630  151.3240 C   0  0  2  0  0  3  0  0  0  0  0  0
  160.6920  209.3590  152.6440 C   0  0  2  0  0  3  0  0  0  0  0  0
  160.4490  209.2390  154.1390 C   0  0  0  0  0  0  0  0  0  0  0  0
  161.0800  207.4980  155.7780 C   0  0  0  0  0  3  0  0  0  0  0  0
  161.5000  208.1750  152.0610 C   0  0  1  0  0  3  0  0  0  0  0  0
  162.6680  206.0580  150.5820 C   0  0  0  0  0  2  0  0  0  0  0  0
  160.1220  207.8900  154.7040 C   0  0  0  0  0  2  0  0  0  0  0  0
  161.4540  210.8230  150.7810 C   0  0  0  0  0  0  0  0  0  0  0  0
  160.4820  204.8480  150.4910 C   0  0  0  0  0  1  0  0  0  0  0  0
  160.3840  211.6240  154.2930 O   0  0  0  0  0  0  0  0  0  0  0  0
  161.1800  208.1700  156.9210 C   0  0  0  0  0  3  0  0  0  0  0  0
  161.9480  209.7740  150.1170 C   0  0  0  0  0  3  0  0  0  0  0  0
  161.3160  210.7120  152.2770 C   0  0  1  0  0  3  0  0  0  0  0  0
  160.5640  207.0210  151.7020 C   0  0  0  0  0  2  0  0  0  0  0  0
  160.4400  209.4060  157.2310 C   0  0  0  0  0  3  0  0  0  0  0  0
  162.4140  208.5490  150.8540 C   0  0  2  0  0  3  0  0  0  0  0  0
  162.6250  207.4030  149.8600 C   0  0  0  0  0  2  0  0  0  0  0  0
  160.4590  211.8120  152.8830 C   0  0  0  0  0  2  0  0  0  0  0  0
  160.2990  210.3560  154.8910 C   0  0  0  0  0  0  0  0  0  0  0  0
  160.0540  210.3390  156.3510 C   0  0  0  0  0  3  0  0  0  0  0  0
  161.0020  212.0020  150.0940 N   0  0  0  0  0  2  0  0  0  0  0  0
  162.8710  212.5660  148.2470 S   0  0  0  0  0  0  0  0  0  0  0  0
  161.3200  212.4180  148.7570 C   0  0  0  0  0  0  0  0  0  0  0  0
  160.2520  213.0590  147.9440 C   0  0  0  0  0  2  0  0  0  0  0  0
  159.8600  212.1950  146.9180 O   0  0  0  0  0  0  0  0  0  0  0  0
  158.6520  212.6100  144.8900 C   0  0  0  0  0  1  0  0  0  0  0  0
  159.8340  212.9910  145.7680 C   0  0  2  0  0  3  0  0  0  0  0  0
  161.1580  212.8960  145.0060 C   0  0  0  0  0  2  0  0  0  0  0  0
  160.9760  212.6130  143.5150 C   0  0  0  0  0  2  0  0  0  0  0  0
  162.3090  212.5820  142.7820 C   0  0  0  0  0  2  0  0  0  0  0  0
  162.1740  211.8420  141.4640 C   0  0  0  0  0  1  0  0  0  0  0  0
  1  9  1  6  0  0  0
  1 14  1  0  0  0  0
  2  3  1  1  0  0  0
  3  7  1  0  0  0  0
  3 19  2  0  0  0  0
  4 11  2  0  0  0  0
  5 14  1  6  0  0  0
  5  2  1  0  0  0  0
  6  1  1  0  0  0  0
  7  4  1  0  0  0  0
  8 13  1  0  0  0  0
 10 19  1  0  0  0  0
 11 15  1  0  0  0  0
 12  8  2  0  0  0  0
 12 16  1  0  0  0  0
 13  2  1  0  0  0  0
 13 18  1  6  0  0  0
 16 17  1  6  0  0  0
 16  5  1  0  0  0  0
 17  6  1  0  0  0  0
 18 10  1  0  0  0  0
 19 20  1  0  0  0  0
 20 15  2  0  0  0  0
 21  8  1  0  0  0  0
 22 23  2  0  0  0  0
 23 21  1  0  0  0  0
 24 23  1  0  0  0  0
 25 24  1  0  0  0  0
 27 26  1  6  0  0  0
 27 25  1  0  0  0  0
 28 27  1  0  0  0  0
 29 28  1  0  0  0  0
 30 29  1  0  0  0  0
 31 30  1  0  0  0  0
M  END
>  <MODEL>
9

>  <REMARK>
 VINA RESULT:      -4.8      3.650      6.418
  Name = 
  8 active torsions:
  status: ('A' for Active; 'I' for Inactive)
    1  A    between atoms: C_1  and  C_11
    2  A    between atoms: C_3  and  C_9
    3  A    between atoms: C_3  and  O_22
    4  A    between atoms: C_9  and  N_23
    5  A    between atoms: C_11  and  C_24
    6  A    between atoms: C_15  and  N_23
    7  A    between atoms: C_19  and  O_22
    8  A    between atoms: C_19  and  C_24
                            x       y       z     vdW  Elec       q    Type
                         _______ _______ _______ _____ _____    ______ ____

>  <TORSDO>
F 8

$$$$
