=
 OpenBabel11062409333D

 34 38  0  0  1  0  0  0  0  0999 V2000
  161.0610  207.2480  150.1330 C   0  0  2  0  0  3  0  0  0  0  0  0
  161.2920  204.2150  147.6970 C   0  0  0  0  0  2  0  0  0  0  0  0
  161.0900  204.0180  150.3790 S   0  0  0  0  0  0  0  0  0  0  0  0
  160.6780  207.3320  152.5240 C   0  0  0  0  0  3  0  0  0  0  0  0
  161.1210  205.5630  154.1380 C   0  0  0  0  0  3  0  0  0  0  0  0
  160.8200  206.8370  153.9020 C   0  0  0  0  0  3  0  0  0  0  0  0
  161.6080  205.1960  151.6730 C   0  0  1  0  0  3  0  0  0  0  0  0
  160.9880  206.5700  151.4700 C   0  0  0  0  0  0  0  0  0  0  0  0
  161.2090  204.5680  153.0190 C   0  0  0  0  0  2  0  0  0  0  0  0
  161.4610  205.0450  146.4340 C   0  0  2  0  0  3  0  0  0  0  0  0
  160.4720  206.2010  146.4490 C   0  0  0  0  0  2  0  0  0  0  0  0
  161.5430  205.0510  148.9520 C   0  0  2  0  0  3  0  0  0  0  0  0
  160.7620  207.1010  147.6400 C   0  0  0  0  0  2  0  0  0  0  0  0
  160.6840  206.3270  148.9630 C   0  0  2  0  0  3  0  0  0  0  0  0
  161.3240  202.8100  145.3190 O   0  0  0  0  0  1  0  0  0  0  0  0
  160.9980  204.7350  144.1200 O   0  0  0  0  0  0  0  0  0  0  0  0
  161.2440  204.1950  145.2290 C   0  0  0  0  0  0  0  0  0  0  0  0
  162.4040  207.9730  149.9520 C   0  0  0  0  0  2  0  0  0  0  0  0
  162.2140  209.3400  149.7400 O   0  0  0  0  0  0  0  0  0  0  0  0
  162.5290  209.9400  150.9600 C   0  0  0  0  0  2  0  0  0  0  0  0
  159.5350  212.1550  151.8810 C   0  0  0  0  0  2  0  0  0  0  0  0
  161.5000  210.4020  153.1820 C   0  0  0  0  0  2  0  0  0  0  0  0
  158.3040  212.1550  155.5400 C   0  0  2  0  0  0  0  0  0  0  0  0
  157.5770  210.9610  155.5950 O   0  0  0  0  0  1  0  0  0  0  0  0
  158.4220  212.5950  154.0700 C   0  0  0  0  0  2  0  0  0  0  0  0
  159.7380  212.1930  153.3930 C   0  0  1  0  0  3  0  0  0  0  0  0
  160.5160  210.8830  155.4210 C   0  0  0  0  0  2  0  0  0  0  0  0
  160.2350  210.8360  153.9150 C   0  0  2  0  0  3  0  0  0  0  0  0
  159.6830  211.9310  156.1720 C   0  0  0  0  0  2  0  0  0  0  0  0
  161.2570  210.3570  151.6750 C   0  0  1  0  0  3  0  0  0  0  0  0
  160.8230  211.7330  151.1820 C   0  0  0  0  0  2  0  0  0  0  0  0
  157.5840  213.2260  156.3040 C   0  0  0  0  0  0  0  0  0  0  0  0
  156.6360  212.8800  157.2600 O   0  0  0  0  0  1  0  0  0  0  0  0
  157.8430  214.4440  156.1050 O   0  0  0  0  0  0  0  0  0  0  0  0
  1 18  1  6  0  0  0
  1  8  1  0  0  0  0
  3  7  1  0  0  0  0
  4  6  1  0  0  0  0
  6  5  2  0  0  0  0
  7  9  1  1  0  0  0
  8  7  1  0  0  0  0
  8  4  2  0  0  0  0
  9  5  1  0  0  0  0
 10 17  1  6  0  0  0
 10 11  1  0  0  0  0
 10  2  1  0  0  0  0
 11 13  1  0  0  0  0
 12  2  1  6  0  0  0
 12 14  1  0  0  0  0
 12  3  1  0  0  0  0
 14 13  1  6  0  0  0
 14  1  1  0  0  0  0
 16 17  2  0  0  0  0
 17 15  1  0  0  0  0
 19 18  1  0  0  0  0
 19 20  1  0  0  0  0
 23 24  1  1  0  0  0
 23 29  1  0  0  0  0
 23 32  1  0  0  0  0
 25 23  1  0  0  0  0
 26 21  1  6  0  0  0
 26 28  1  0  0  0  0
 26 25  1  0  0  0  0
 27 29  1  0  0  0  0
 28 22  1  6  0  0  0
 28 27  1  0  0  0  0
 30 20  1  6  0  0  0
 30 22  1  0  0  0  0
 31 30  1  0  0  0  0
 31 21  1  0  0  0  0
 32 33  1  0  0  0  0
 34 32  2  0  0  0  0
M  END
>  <MODEL>
1

>  <REMARK>
 VINA RESULT:      -8.0      0.000      0.000
  Name = 
  6 active torsions:
  status: ('A' for Active; 'I' for Inactive)
    1  A    between atoms: C_1  and  C_9
    2  A    between atoms: C_7  and  C_11
    3  A    between atoms: O_8  and  C_9
    4  A    between atoms: O_8  and  C_18
    5  A    between atoms: C_18  and  C_30
    6  A    between atoms: C_23  and  C_25
                            x       y       z     vdW  Elec       q    Type
                         _______ _______ _______ _____ _____    ______ ____

>  <TORSDO>
F 6

$$$$
=
 OpenBabel11062409333D

 34 38  0  0  1  0  0  0  0  0999 V2000
  161.1180  207.1270  149.9520 C   0  0  2  0  0  3  0  0  0  0  0  0
  161.2590  204.1710  147.4170 C   0  0  0  0  0  2  0  0  0  0  0  0
  161.0280  203.8920  150.0880 S   0  0  0  0  0  0  0  0  0  0  0  0
  160.7180  207.1440  152.3420 C   0  0  0  0  0  3  0  0  0  0  0  0
  161.0830  205.3060  153.8980 C   0  0  0  0  0  3  0  0  0  0  0  0
  160.8300  206.5980  153.7030 C   0  0  0  0  0  3  0  0  0  0  0  0
  161.5780  205.0060  151.4260 C   0  0  1  0  0  3  0  0  0  0  0  0
  161.0090  206.4070  151.2650 C   0  0  0  0  0  0  0  0  0  0  0  0
  161.1440  204.3480  152.7460 C   0  0  0  0  0  2  0  0  0  0  0  0
  161.4700  205.0370  146.1830 C   0  0  2  0  0  3  0  0  0  0  0  0
  160.5220  206.2270  146.2310 C   0  0  0  0  0  2  0  0  0  0  0  0
  161.5310  204.9550  148.7000 C   0  0  2  0  0  3  0  0  0  0  0  0
  160.8350  207.0750  147.4540 C   0  0  0  0  0  2  0  0  0  0  0  0
  160.7180  206.2600  148.7490 C   0  0  2  0  0  3  0  0  0  0  0  0
  160.8930  202.8910  145.0340 O   0  0  0  0  0  1  0  0  0  0  0  0
  161.3510  204.7790  143.8200 O   0  0  0  0  0  0  0  0  0  0  0  0
  161.2320  204.2360  144.9480 C   0  0  0  0  0  0  0  0  0  0  0  0
  162.4870  207.8080  149.8060 C   0  0  0  0  0  2  0  0  0  0  0  0
  162.7590  208.6350  150.8980 O   0  0  0  0  0  0  0  0  0  0  0  0
  162.3160  209.9000  150.5100 C   0  0  0  0  0  2  0  0  0  0  0  0
  161.7850  210.6990  154.2250 C   0  0  0  0  0  2  0  0  0  0  0  0
  160.3650  210.9350  151.6640 C   0  0  0  0  0  2  0  0  0  0  0  0
  158.5900  212.6040  155.2570 C   0  0  2  0  0  0  0  0  0  0  0  0
  158.9180  213.9190  154.9090 O   0  0  0  0  0  1  0  0  0  0  0  0
  159.8900  211.7960  155.4200 C   0  0  0  0  0  2  0  0  0  0  0  0
  160.2850  210.9790  154.1840 C   0  0  1  0  0  3  0  0  0  0  0  0
  158.3840  211.9310  152.8020 C   0  0  0  0  0  2  0  0  0  0  0  0
  159.8980  211.7120  152.8910 C   0  0  2  0  0  3  0  0  0  0  0  0
  157.6900  212.0080  154.1690 C   0  0  0  0  0  2  0  0  0  0  0  0
  161.8710  210.6880  151.7290 C   0  0  1  0  0  3  0  0  0  0  0  0
  162.2120  209.9080  152.9930 C   0  0  0  0  0  2  0  0  0  0  0  0
  157.8520  212.5920  156.5640 C   0  0  0  0  0  0  0  0  0  0  0  0
  157.2030  213.7390  157.0050 O   0  0  0  0  0  0  0  0  0  0  0  0
  157.7950  211.5430  157.2600 O   0  0  0  0  0  1  0  0  0  0  0  0
  1 18  1  6  0  0  0
  1  8  1  0  0  0  0
  3  7  1  0  0  0  0
  4  6  1  0  0  0  0
  6  5  2  0  0  0  0
  7  9  1  1  0  0  0
  8  7  1  0  0  0  0
  8  4  2  0  0  0  0
  9  5  1  0  0  0  0
 10 17  1  6  0  0  0
 10 11  1  0  0  0  0
 10  2  1  0  0  0  0
 11 13  1  0  0  0  0
 12  2  1  6  0  0  0
 12 14  1  0  0  0  0
 12  3  1  0  0  0  0
 14 13  1  6  0  0  0
 14  1  1  0  0  0  0
 16 17  2  0  0  0  0
 17 15  1  0  0  0  0
 18 19  1  0  0  0  0
 20 19  1  0  0  0  0
 22 30  1  0  0  0  0
 23 24  1  6  0  0  0
 23 25  1  0  0  0  0
 23 32  1  0  0  0  0
 26 21  1  6  0  0  0
 26 25  1  0  0  0  0
 27 28  1  0  0  0  0
 27 29  1  0  0  0  0
 28 22  1  6  0  0  0
 28 26  1  0  0  0  0
 29 23  1  0  0  0  0
 30 20  1  6  0  0  0
 30 31  1  0  0  0  0
 31 21  1  0  0  0  0
 32 33  2  0  0  0  0
 32 34  1  0  0  0  0
M  END
>  <MODEL>
2

>  <REMARK>
 VINA RESULT:      -8.0      0.765      1.552
  Name = 
  6 active torsions:
  status: ('A' for Active; 'I' for Inactive)
    1  A    between atoms: C_1  and  C_9
    2  A    between atoms: C_7  and  C_11
    3  A    between atoms: O_8  and  C_9
    4  A    between atoms: O_8  and  C_18
    5  A    between atoms: C_18  and  C_30
    6  A    between atoms: C_23  and  C_25
                            x       y       z     vdW  Elec       q    Type
                         _______ _______ _______ _____ _____    ______ ____

>  <TORSDO>
F 6

$$$$
=
 OpenBabel11062409333D

 34 38  0  0  1  0  0  0  0  0999 V2000
  161.2770  209.2820  153.6800 C   0  0  2  0  0  3  0  0  0  0  0  0
  160.7280  212.0410  150.9840 C   0  0  0  0  0  2  0  0  0  0  0  0
  159.9230  212.2220  153.5500 S   0  0  0  0  0  0  0  0  0  0  0  0
  160.8340  209.2870  156.0620 C   0  0  0  0  0  3  0  0  0  0  0  0
  159.2280  210.6830  157.2470 C   0  0  0  0  0  3  0  0  0  0  0  0
  160.0580  209.6430  157.2590 C   0  0  0  0  0  3  0  0  0  0  0  0
  159.4970  210.8970  154.7310 C   0  0  1  0  0  3  0  0  0  0  0  0
  160.6280  209.8930  154.8880 C   0  0  0  0  0  0  0  0  0  0  0  0
  159.1450  211.5920  156.0570 C   0  0  0  0  0  2  0  0  0  0  0  0
  161.3280  211.2500  149.8310 C   0  0  2  0  0  3  0  0  0  0  0  0
  162.6190  210.5860  150.2870 C   0  0  0  0  0  2  0  0  0  0  0  0
  160.4120  211.1370  152.1750 C   0  0  2  0  0  3  0  0  0  0  0  0
  162.3150  209.6100  151.4130 C   0  0  0  0  0  2  0  0  0  0  0  0
  161.6390  210.3110  152.5990 C   0  0  2  0  0  3  0  0  0  0  0  0
  160.6190  213.0470  148.2400 O   0  0  0  0  0  1  0  0  0  0  0  0
  162.6970  212.0950  148.0770 O   0  0  0  0  0  0  0  0  0  0  0  0
  161.5910  212.1520  148.6730 C   0  0  0  0  0  0  0  0  0  0  0  0
  160.4640  208.0870  153.1590 C   0  0  0  0  0  2  0  0  0  0  0  0
  160.7860  206.9180  153.8520 O   0  0  0  0  0  0  0  0  0  0  0  0
  161.7810  206.3090  153.0860 C   0  0  0  0  0  2  0  0  0  0  0  0
  160.7430  204.0380  150.1730 C   0  0  0  0  0  2  0  0  0  0  0  0
  162.0280  206.6400  150.6280 C   0  0  0  0  0  2  0  0  0  0  0  0
  161.1760  205.3550  146.5700 C   0  0  2  0  0  0  0  0  0  0  0  0
  160.0730  206.2050  146.4430 O   0  0  0  0  0  1  0  0  0  0  0  0
  160.9000  204.3500  147.7030 C   0  0  0  0  0  2  0  0  0  0  0  0
  161.5100  204.7390  149.0550 C   0  0  1  0  0  3  0  0  0  0  0  0
  162.3280  206.9730  148.1770 C   0  0  0  0  0  2  0  0  0  0  0  0
  161.4960  206.2620  149.2500 C   0  0  2  0  0  3  0  0  0  0  0  0
  162.4260  206.1950  146.8570 C   0  0  0  0  0  2  0  0  0  0  0  0
  161.2280  205.9360  151.7220 C   0  0  1  0  0  3  0  0  0  0  0  0
  161.3120  204.4260  151.5330 C   0  0  0  0  0  2  0  0  0  0  0  0
  161.3820  204.5930  145.2940 C   0  0  0  0  0  0  0  0  0  0  0  0
  161.4580  205.2720  144.0840 O   0  0  0  0  0  0  0  0  0  0  0  0
  161.5090  203.3380  145.3070 O   0  0  0  0  0  1  0  0  0  0  0  0
  1 18  1  6  0  0  0
  1  8  1  0  0  0  0
  3  7  1  0  0  0  0
  4  6  1  0  0  0  0
  5  6  2  0  0  0  0
  7  8  1  0  0  0  0
  7  9  1  1  0  0  0
  8  4  2  0  0  0  0
  9  5  1  0  0  0  0
 10 17  1  6  0  0  0
 10 11  1  0  0  0  0
 10  2  1  0  0  0  0
 11 13  1  0  0  0  0
 12  2  1  6  0  0  0
 12 14  1  0  0  0  0
 12  3  1  0  0  0  0
 14 13  1  6  0  0  0
 14  1  1  0  0  0  0
 15 17  1  0  0  0  0
 16 17  2  0  0  0  0
 18 19  1  0  0  0  0
 20 19  1  0  0  0  0
 21 31  1  0  0  0  0
 22 30  1  0  0  0  0
 23 24  1  6  0  0  0
 23 29  1  0  0  0  0
 23 25  1  0  0  0  0
 26 25  1  6  0  0  0
 26 28  1  0  0  0  0
 26 21  1  0  0  0  0
 28 27  1  6  0  0  0
 28 22  1  0  0  0  0
 29 27  1  0  0  0  0
 30 20  1  1  0  0  0
 31 30  1  0  0  0  0
 32 34  1  0  0  0  0
 32 23  1  0  0  0  0
 33 32  2  0  0  0  0
M  END
>  <MODEL>
3

>  <REMARK>
 VINA RESULT:      -7.9      2.936      8.488
  Name = 
  6 active torsions:
  status: ('A' for Active; 'I' for Inactive)
    1  A    between atoms: C_1  and  C_9
    2  A    between atoms: C_7  and  C_11
    3  A    between atoms: O_8  and  C_9
    4  A    between atoms: O_8  and  C_18
    5  A    between atoms: C_18  and  C_30
    6  A    between atoms: C_23  and  C_25
                            x       y       z     vdW  Elec       q    Type
                         _______ _______ _______ _____ _____    ______ ____

>  <TORSDO>
F 6

$$$$
=
 OpenBabel11062409333D

 34 38  0  0  1  0  0  0  0  0999 V2000
  159.4360  212.7510  152.9500 C   0  0  2  0  0  3  0  0  0  0  0  0
  157.8940  213.9660  149.5840 C   0  0  0  0  0  2  0  0  0  0  0  0
  156.7600  214.3140  152.0040 S   0  0  0  0  0  0  0  0  0  0  0  0
  158.7230  213.1130  155.2370 C   0  0  0  0  0  3  0  0  0  0  0  0
  156.4710  213.6380  156.0020 C   0  0  0  0  0  3  0  0  0  0  0  0
  157.7160  213.2710  156.2970 C   0  0  0  0  0  3  0  0  0  0  0  0
  156.9410  213.3230  153.5270 C   0  0  1  0  0  3  0  0  0  0  0  0
  158.3970  213.1850  153.9430 C   0  0  0  0  0  0  0  0  0  0  0  0
  156.0880  214.0160  154.6020 C   0  0  0  0  0  2  0  0  0  0  0  0
  158.9790  213.3760  148.6960 C   0  0  2  0  0  3  0  0  0  0  0  0
  160.3450  213.6730  149.2980 C   0  0  0  0  0  2  0  0  0  0  0  0
  157.9410  213.3730  150.9910 C   0  0  2  0  0  3  0  0  0  0  0  0
  160.4510  213.0130  150.6640 C   0  0  0  0  0  2  0  0  0  0  0  0
  159.3440  213.4980  151.6100 C   0  0  2  0  0  3  0  0  0  0  0  0
  159.9860  213.9340  146.4740 O   0  0  0  0  0  0  0  0  0  0  0  0
  157.8020  214.4530  146.9300 O   0  0  0  0  0  1  0  0  0  0  0  0
  158.8840  213.9470  147.3220 C   0  0  0  0  0  0  0  0  0  0  0  0
  159.4670  211.2220  152.8140 C   0  0  0  0  0  2  0  0  0  0  0  0
  160.2880  210.6460  153.7860 O   0  0  0  0  0  0  0  0  0  0  0  0
  161.4060  210.1890  153.0880 C   0  0  0  0  0  2  0  0  0  0  0  0
  160.9350  206.5650  151.9170 C   0  0  0  0  0  2  0  0  0  0  0  0
  161.7580  209.1710  150.8400 C   0  0  0  0  0  2  0  0  0  0  0  0
  161.3890  205.7710  148.1680 C   0  0  2  0  0  0  0  0  0  0  0  0
  160.1760  206.2160  147.6330 O   0  0  0  0  0  1  0  0  0  0  0  0
  161.2020  205.5110  149.6730 C   0  0  0  0  0  2  0  0  0  0  0  0
  161.6530  206.6660  150.5740 C   0  0  1  0  0  3  0  0  0  0  0  0
  162.1610  208.1680  148.5950 C   0  0  0  0  0  2  0  0  0  0  0  0
  161.3840  208.0240  149.9080 C   0  0  2  0  0  3  0  0  0  0  0  0
  162.4680  206.8290  147.9090 C   0  0  0  0  0  2  0  0  0  0  0  0
  161.0100  209.0500  152.1660 C   0  0  1  0  0  3  0  0  0  0  0  0
  161.3450  207.7190  152.8270 C   0  0  0  0  0  2  0  0  0  0  0  0
  161.7970  204.4860  147.5070 C   0  0  0  0  0  0  0  0  0  0  0  0
  162.5430  204.5150  146.3350 O   0  0  0  0  0  0  0  0  0  0  0  0
  161.4880  203.3750  148.0160 O   0  0  0  0  0  1  0  0  0  0  0  0
  1 18  1  6  0  0  0
  1  8  1  0  0  0  0
  3  7  1  0  0  0  0
  4  6  1  0  0  0  0
  5  6  2  0  0  0  0
  7  8  1  0  0  0  0
  7  9  1  1  0  0  0
  8  4  2  0  0  0  0
  9  5  1  0  0  0  0
 10 17  1  6  0  0  0
 10 11  1  0  0  0  0
 10  2  1  0  0  0  0
 11 13  1  0  0  0  0
 12  2  1  6  0  0  0
 12 14  1  0  0  0  0
 12  3  1  0  0  0  0
 14 13  1  6  0  0  0
 14  1  1  0  0  0  0
 15 17  2  0  0  0  0
 16 17  1  0  0  0  0
 18 19  1  0  0  0  0
 20 19  1  0  0  0  0
 21 31  1  0  0  0  0
 22 30  1  0  0  0  0
 23 24  1  6  0  0  0
 23 25  1  0  0  0  0
 26 25  1  6  0  0  0
 26 21  1  0  0  0  0
 28 27  1  6  0  0  0
 28 26  1  0  0  0  0
 28 22  1  0  0  0  0
 29 23  1  0  0  0  0
 29 27  1  0  0  0  0
 30 31  1  0  0  0  0
 30 20  1  1  0  0  0
 32 34  1  0  0  0  0
 32 23  1  0  0  0  0
 33 32  2  0  0  0  0
M  END
>  <MODEL>
4

>  <REMARK>
 VINA RESULT:      -7.8      3.193      8.795
  Name = 
  6 active torsions:
  status: ('A' for Active; 'I' for Inactive)
    1  A    between atoms: C_1  and  C_9
    2  A    between atoms: C_7  and  C_11
    3  A    between atoms: O_8  and  C_9
    4  A    between atoms: O_8  and  C_18
    5  A    between atoms: C_18  and  C_30
    6  A    between atoms: C_23  and  C_25
                            x       y       z     vdW  Elec       q    Type
                         _______ _______ _______ _____ _____    ______ ____

>  <TORSDO>
F 6

$$$$
=
 OpenBabel11062409333D

 34 38  0  0  1  0  0  0  0  0999 V2000
  159.5360  211.3720  152.8230 C   0  0  2  0  0  3  0  0  0  0  0  0
  156.8900  213.4630  154.7760 C   0  0  0  0  0  2  0  0  0  0  0  0
  158.0200  214.2100  152.4450 S   0  0  0  0  0  0  0  0  0  0  0  0
  160.5370  211.7250  150.6450 C   0  0  0  0  0  3  0  0  0  0  0  0
  160.7570  213.8430  149.4620 C   0  0  0  0  0  3  0  0  0  0  0  0
  161.0840  212.5570  149.5620 C   0  0  0  0  0  3  0  0  0  0  0  0
  159.6440  213.7610  151.7440 C   0  0  1  0  0  3  0  0  0  0  0  0
  159.8200  212.2540  151.6420 C   0  0  0  0  0  0  0  0  0  0  0  0
  159.7340  214.4530  150.3740 C   0  0  0  0  0  2  0  0  0  0  0  0
  156.7880  212.5140  155.9600 C   0  0  2  0  0  3  0  0  0  0  0  0
  156.7090  211.0800  155.4570 C   0  0  0  0  0  2  0  0  0  0  0  0
  158.1340  213.1760  153.9370 C   0  0  2  0  0  3  0  0  0  0  0  0
  157.9810  210.7390  154.6950 C   0  0  0  0  0  2  0  0  0  0  0  0
  158.2050  211.6970  153.5170 C   0  0  2  0  0  3  0  0  0  0  0  0
  154.7620  211.8310  157.2610 O   0  0  0  0  0  1  0  0  0  0  0  0
  155.3090  214.0440  157.0250 O   0  0  0  0  0  0  0  0  0  0  0  0
  155.5860  212.8420  156.7780 C   0  0  0  0  0  0  0  0  0  0  0  0
  160.7410  211.3160  153.7740 C   0  0  0  0  0  2  0  0  0  0  0  0
  161.6600  210.3460  153.3670 O   0  0  0  0  0  0  0  0  0  0  0  0
  161.1780  209.1490  153.8990 C   0  0  0  0  0  2  0  0  0  0  0  0
  160.9340  205.7910  152.0590 C   0  0  0  0  0  2  0  0  0  0  0  0
  161.5660  208.6040  151.4980 C   0  0  0  0  0  2  0  0  0  0  0  0
  161.3880  205.7580  148.2260 C   0  0  2  0  0  0  0  0  0  0  0  0
  160.1400  206.2130  147.7870 O   0  0  0  0  0  1  0  0  0  0  0  0
  161.2400  205.2040  149.6540 C   0  0  0  0  0  2  0  0  0  0  0  0
  161.6250  206.1940  150.7590 C   0  0  1  0  0  3  0  0  0  0  0  0
  162.0040  208.0760  149.1020 C   0  0  0  0  0  2  0  0  0  0  0  0
  161.2570  207.6330  150.3640 C   0  0  2  0  0  3  0  0  0  0  0  0
  162.3910  206.9170  148.1730 C   0  0  0  0  0  2  0  0  0  0  0  0
  160.8460  208.1820  152.7770 C   0  0  1  0  0  3  0  0  0  0  0  0
  161.2790  206.7750  153.1720 C   0  0  0  0  0  2  0  0  0  0  0  0
  161.8710  204.6530  147.3320 C   0  0  0  0  0  0  0  0  0  0  0  0
  162.4290  204.9550  146.0950 O   0  0  0  0  0  0  0  0  0  0  0  0
  161.7970  203.4490  147.6990 O   0  0  0  0  0  1  0  0  0  0  0  0
  1 14  1  0  0  0  0
  1 18  1  1  0  0  0
  2 10  1  0  0  0  0
  3 12  1  0  0  0  0
  4  8  2  0  0  0  0
  5  6  2  0  0  0  0
  5  9  1  0  0  0  0
  6  4  1  0  0  0  0
  7  9  1  6  0  0  0
  7  3  1  0  0  0  0
  8  7  1  0  0  0  0
  8  1  1  0  0  0  0
 10 17  1  6  0  0  0
 11 10  1  0  0  0  0
 12  2  1  1  0  0  0
 13 11  1  0  0  0  0
 14 12  1  0  0  0  0
 14 13  1  1  0  0  0
 17 16  2  0  0  0  0
 17 15  1  0  0  0  0
 19 18  1  0  0  0  0
 19 20  1  0  0  0  0
 21 31  1  0  0  0  0
 22 30  1  0  0  0  0
 23 24  1  6  0  0  0
 23 25  1  0  0  0  0
 26 25  1  6  0  0  0
 26 21  1  0  0  0  0
 28 27  1  6  0  0  0
 28 26  1  0  0  0  0
 28 22  1  0  0  0  0
 29 23  1  0  0  0  0
 29 27  1  0  0  0  0
 30 31  1  0  0  0  0
 30 20  1  1  0  0  0
 32 34  1  0  0  0  0
 32 23  1  0  0  0  0
 33 32  2  0  0  0  0
M  END
>  <MODEL>
5

>  <REMARK>
 VINA RESULT:      -7.7      2.563      9.735
  Name = 
  6 active torsions:
  status: ('A' for Active; 'I' for Inactive)
    1  A    between atoms: C_1  and  C_9
    2  A    between atoms: C_7  and  C_11
    3  A    between atoms: O_8  and  C_9
    4  A    between atoms: O_8  and  C_18
    5  A    between atoms: C_18  and  C_30
    6  A    between atoms: C_23  and  C_25
                            x       y       z     vdW  Elec       q    Type
                         _______ _______ _______ _____ _____    ______ ____

>  <TORSDO>
F 6

$$$$
=
 OpenBabel11062409333D

 34 38  0  0  1  0  0  0  0  0999 V2000
  161.1550  205.7330  150.8120 C   0  0  2  0  0  3  0  0  0  0  0  0
  161.9500  208.5000  148.1870 C   0  0  0  0  0  2  0  0  0  0  0  0
  161.4200  205.9250  147.5890 S   0  0  0  0  0  0  0  0  0  0  0  0
  160.4600  203.4300  150.5220 C   0  0  0  0  0  3  0  0  0  0  0  0
  160.8360  202.0240  148.5690 C   0  0  0  0  0  3  0  0  0  0  0  0
  160.4630  202.1260  149.8420 C   0  0  0  0  0  3  0  0  0  0  0  0
  161.6670  204.4230  148.5970 C   0  0  1  0  0  3  0  0  0  0  0  0
  160.9660  204.5240  149.9430 C   0  0  0  0  0  0  0  0  0  0  0  0
  161.1500  203.2450  147.7560 C   0  0  0  0  0  2  0  0  0  0  0  0
  162.2130  209.6030  149.2010 C   0  0  2  0  0  3  0  0  0  0  0  0
  161.1370  209.5700  150.2770 C   0  0  0  0  0  2  0  0  0  0  0  0
  161.9670  207.1210  148.8450 C   0  0  2  0  0  3  0  0  0  0  0  0
  161.1950  208.2390  151.0110 C   0  0  0  0  0  2  0  0  0  0  0  0
  161.0110  207.0580  150.0490 C   0  0  2  0  0  3  0  0  0  0  0  0
  163.2980  211.7990  148.6890 O   0  0  0  0  0  1  0  0  0  0  0  0
  161.2520  211.2730  147.8030 O   0  0  0  0  0  0  0  0  0  0  0  0
  162.2250  210.9310  148.5230 C   0  0  0  0  0  0  0  0  0  0  0  0
  162.4450  205.6240  151.6400 C   0  0  0  0  0  2  0  0  0  0  0  0
  162.4870  206.6000  152.6380 O   0  0  0  0  0  0  0  0  0  0  0  0
  161.6190  206.1370  153.6280 C   0  0  0  0  0  2  0  0  0  0  0  0
  159.7750  208.0430  156.4010 C   0  0  0  0  0  2  0  0  0  0  0  0
  161.2430  208.5840  153.9150 C   0  0  0  0  0  2  0  0  0  0  0  0
  159.8520  211.9020  156.3440 C   0  0  2  0  0  0  0  0  0  0  0  0
  161.1260  212.1690  156.8580 O   0  0  0  0  0  1  0  0  0  0  0  0
  159.4310  210.4860  156.7740 C   0  0  0  0  0  2  0  0  0  0  0  0
  159.6800  209.4040  155.7160 C   0  0  1  0  0  3  0  0  0  0  0  0
  160.8400  211.0320  154.1560 C   0  0  0  0  0  2  0  0  0  0  0  0
  160.9540  209.7030  154.9100 C   0  0  2  0  0  3  0  0  0  0  0  0
  159.8890  212.0390  154.8170 C   0  0  0  0  0  2  0  0  0  0  0  0
  161.3480  207.2410  154.6350 C   0  0  1  0  0  3  0  0  0  0  0  0
  160.0480  206.9490  155.3740 C   0  0  0  0  0  2  0  0  0  0  0  0
  158.8630  212.8840  156.8990 C   0  0  0  0  0  0  0  0  0  0  0  0
  157.5850  212.4610  157.2470 O   0  0  0  0  0  1  0  0  0  0  0  0
  159.1830  214.0910  157.0740 O   0  0  0  0  0  0  0  0  0  0  0  0
  1 18  1  6  0  0  0
  2 10  1  0  0  0  0
  3  7  1  0  0  0  0
  3 12  1  0  0  0  0
  5  6  2  0  0  0  0
  6  4  1  0  0  0  0
  7  9  1  6  0  0  0
  7  8  1  0  0  0  0
  8  4  2  0  0  0  0
  8  1  1  0  0  0  0
  9  5  1  0  0  0  0
 10 17  1  6  0  0  0
 10 11  1  0  0  0  0
 11 13  1  0  0  0  0
 12  2  1  6  0  0  0
 12 14  1  0  0  0  0
 14  1  1  0  0  0  0
 14 13  1  1  0  0  0
 16 17  2  0  0  0  0
 17 15  1  0  0  0  0
 18 19  1  0  0  0  0
 19 20  1  0  0  0  0
 22 30  1  0  0  0  0
 23 25  1  0  0  0  0
 23 24  1  1  0  0  0
 23 32  1  0  0  0  0
 26 21  1  1  0  0  0
 26 25  1  0  0  0  0
 27 29  1  0  0  0  0
 27 28  1  0  0  0  0
 28 22  1  6  0  0  0
 28 26  1  0  0  0  0
 29 23  1  0  0  0  0
 30 20  1  6  0  0  0
 30 31  1  0  0  0  0
 31 21  1  0  0  0  0
 32 34  2  0  0  0  0
 32 33  1  0  0  0  0
M  END
>  <MODEL>
6

>  <REMARK>
 VINA RESULT:      -7.3      2.584      4.439
  Name = 
  6 active torsions:
  status: ('A' for Active; 'I' for Inactive)
    1  A    between atoms: C_1  and  C_9
    2  A    between atoms: C_7  and  C_11
    3  A    between atoms: O_8  and  C_9
    4  A    between atoms: O_8  and  C_18
    5  A    between atoms: C_18  and  C_30
    6  A    between atoms: C_23  and  C_25
                            x       y       z     vdW  Elec       q    Type
                         _______ _______ _______ _____ _____    ______ ____

>  <TORSDO>
F 6

$$$$
=
 OpenBabel11062409333D

 34 38  0  0  1  0  0  0  0  0999 V2000
  161.3530  207.2560  152.0090 C   0  0  2  0  0  3  0  0  0  0  0  0
  161.2290  210.3910  154.3210 C   0  0  0  0  0  2  0  0  0  0  0  0
  161.3670  210.4740  151.6300 S   0  0  0  0  0  0  0  0  0  0  0  0
  161.2780  207.0680  149.5950 C   0  0  0  0  0  3  0  0  0  0  0  0
  161.8970  208.7780  147.9740 C   0  0  0  0  0  3  0  0  0  0  0  0
  161.5860  207.5080  148.2260 C   0  0  0  0  0  3  0  0  0  0  0  0
  162.0620  209.2540  150.4630 C   0  0  1  0  0  3  0  0  0  0  0  0
  161.4400  207.8780  150.6460 C   0  0  0  0  0  0  0  0  0  0  0  0
  161.8280  209.8180  149.0520 C   0  0  0  0  0  2  0  0  0  0  0  0
  161.2490  209.6160  155.6310 C   0  0  2  0  0  3  0  0  0  0  0  0
  160.2850  208.4420  155.5400 C   0  0  0  0  0  2  0  0  0  0  0  0
  161.6500  209.5100  153.1460 C   0  0  2  0  0  3  0  0  0  0  0  0
  160.7380  207.4990  154.4350 C   0  0  0  0  0  2  0  0  0  0  0  0
  160.8170  208.2170  153.0810 C   0  0  2  0  0  3  0  0  0  0  0  0
  159.5710  210.5070  157.2600 O   0  0  0  0  0  1  0  0  0  0  0  0
  161.7260  211.2840  157.2600 O   0  0  0  0  0  0  0  0  0  0  0  0
  160.8680  210.5110  156.7610 C   0  0  0  0  0  0  0  0  0  0  0  0
  162.6720  206.5660  152.3890 C   0  0  0  0  0  2  0  0  0  0  0  0
  162.5980  205.1880  152.1790 O   0  0  0  0  0  0  0  0  0  0  0  0
  161.2730  204.8520  152.4620 C   0  0  0  0  0  2  0  0  0  0  0  0
  160.5570  201.5350  150.6710 C   0  0  0  0  0  2  0  0  0  0  0  0
  161.3270  204.2960  150.0330 C   0  0  0  0  0  2  0  0  0  0  0  0
  160.5430  201.4940  146.8110 C   0  0  2  0  0  0  0  0  0  0  0  0
  159.2900  202.0450  146.5250 O   0  0  0  0  0  1  0  0  0  0  0  0
  160.5260  200.9430  148.2480 C   0  0  0  0  0  2  0  0  0  0  0  0
  161.1150  201.8940  149.2970 C   0  0  1  0  0  3  0  0  0  0  0  0
  161.4330  203.7540  147.6030 C   0  0  0  0  0  2  0  0  0  0  0  0
  160.8120  203.3590  148.9460 C   0  0  2  0  0  3  0  0  0  0  0  0
  161.6170  202.5750  146.6360 C   0  0  0  0  0  2  0  0  0  0  0  0
  160.7360  203.9200  151.3900 C   0  0  1  0  0  3  0  0  0  0  0  0
  161.1070  202.4820  151.7330 C   0  0  0  0  0  2  0  0  0  0  0  0
  160.8310  200.3630  145.8680 C   0  0  0  0  0  0  0  0  0  0  0  0
  160.1520  200.2790  144.6580 O   0  0  0  0  0  0  0  0  0  0  0  0
  161.7000  199.4950  146.1500 O   0  0  0  0  0  1  0  0  0  0  0  0
  1 18  1  1  0  0  0
  1 14  1  0  0  0  0
  2 10  1  0  0  0  0
  3 12  1  0  0  0  0
  4  8  2  0  0  0  0
  5  6  2  0  0  0  0
  5  9  1  0  0  0  0
  6  4  1  0  0  0  0
  7  9  1  6  0  0  0
  7  8  1  0  0  0  0
  7  3  1  0  0  0  0
  8  1  1  0  0  0  0
 10 17  1  1  0  0  0
 11 10  1  0  0  0  0
 12  2  1  1  0  0  0
 13 11  1  0  0  0  0
 14 12  1  0  0  0  0
 14 13  1  1  0  0  0
 17 16  2  0  0  0  0
 17 15  1  0  0  0  0
 19 18  1  0  0  0  0
 19 20  1  0  0  0  0
 21 31  1  0  0  0  0
 22 30  1  0  0  0  0
 23 24  1  6  0  0  0
 23 25  1  0  0  0  0
 26 25  1  6  0  0  0
 26 21  1  0  0  0  0
 28 27  1  6  0  0  0
 28 26  1  0  0  0  0
 28 22  1  0  0  0  0
 29 23  1  0  0  0  0
 29 27  1  0  0  0  0
 30 31  1  0  0  0  0
 30 20  1  1  0  0  0
 32 34  1  0  0  0  0
 32 23  1  0  0  0  0
 33 32  2  0  0  0  0
M  END
>  <MODEL>
7

>  <REMARK>
 VINA RESULT:      -7.2      2.641     10.166
  Name = 
  6 active torsions:
  status: ('A' for Active; 'I' for Inactive)
    1  A    between atoms: C_1  and  C_9
    2  A    between atoms: C_7  and  C_11
    3  A    between atoms: O_8  and  C_9
    4  A    between atoms: O_8  and  C_18
    5  A    between atoms: C_18  and  C_30
    6  A    between atoms: C_23  and  C_25
                            x       y       z     vdW  Elec       q    Type
                         _______ _______ _______ _____ _____    ______ ____

>  <TORSDO>
F 6

$$$$
=
 OpenBabel11062409333D

 34 38  0  0  1  0  0  0  0  0999 V2000
  160.4530  211.6190  153.9150 C   0  0  2  0  0  3  0  0  0  0  0  0
  156.7110  212.5330  154.5080 C   0  0  0  0  0  2  0  0  0  0  0  0
  158.2370  211.1200  156.2240 S   0  0  0  0  0  0  0  0  0  0  0  0
  162.0700  210.5510  155.3680 C   0  0  0  0  0  3  0  0  0  0  0  0
  161.5970  209.0740  157.2460 C   0  0  0  0  0  3  0  0  0  0  0  0
  162.4850  209.5860  156.3980 C   0  0  0  0  0  3  0  0  0  0  0  0
  159.6940  210.0720  155.8930 C   0  0  1  0  0  3  0  0  0  0  0  0
  160.7810  210.8330  155.1500 C   0  0  0  0  0  0  0  0  0  0  0  0
  160.1740  209.5500  157.2570 C   0  0  0  0  0  2  0  0  0  0  0  0
  156.5050  213.2150  153.1640 C   0  0  2  0  0  3  0  0  0  0  0  0
  157.6880  214.1250  152.8680 C   0  0  0  0  0  2  0  0  0  0  0  0
  157.9850  211.6880  154.5150 C   0  0  2  0  0  3  0  0  0  0  0  0
  158.9580  213.2920  152.7780 C   0  0  0  0  0  2  0  0  0  0  0  0
  159.2100  212.5080  154.0730 C   0  0  2  0  0  3  0  0  0  0  0  0
  154.5520  214.2550  151.9950 O   0  0  0  0  0  0  0  0  0  0  0  0
  154.7920  214.4470  154.2660 O   0  0  0  0  0  1  0  0  0  0  0  0
  155.2380  214.0010  153.1770 C   0  0  0  0  0  0  0  0  0  0  0  0
  160.4220  210.7150  152.6740 C   0  0  0  0  0  2  0  0  0  0  0  0
  161.7070  210.5130  152.1650 O   0  0  0  0  0  0  0  0  0  0  0  0
  162.0020  209.1800  152.4520 C   0  0  0  0  0  2  0  0  0  0  0  0
  160.6070  205.9600  150.9000 C   0  0  0  0  0  2  0  0  0  0  0  0
  162.3180  208.2330  150.1690 C   0  0  0  0  0  2  0  0  0  0  0  0
  161.2830  205.2780  147.1620 C   0  0  2  0  0  0  0  0  0  0  0  0
  160.3440  206.1110  146.5450 O   0  0  0  0  0  1  0  0  0  0  0  0
  160.8310  205.0050  148.6070 C   0  0  0  0  0  2  0  0  0  0  0  0
  161.4900  205.9070  149.6570 C   0  0  1  0  0  3  0  0  0  0  0  0
  162.6850  207.2840  147.8940 C   0  0  0  0  0  2  0  0  0  0  0  0
  161.7370  207.3160  149.0970 C   0  0  2  0  0  3  0  0  0  0  0  0
  162.6570  205.9570  147.1210 C   0  0  0  0  0  2  0  0  0  0  0  0
  161.4010  208.2770  151.3900 C   0  0  1  0  0  3  0  0  0  0  0  0
  161.2260  206.8730  151.9540 C   0  0  0  0  0  2  0  0  0  0  0  0
  161.3620  203.9710  146.4300 C   0  0  0  0  0  0  0  0  0  0  0  0
  161.2490  202.7750  147.1300 O   0  0  0  0  0  1  0  0  0  0  0  0
  161.5100  203.9420  145.1780 O   0  0  0  0  0  0  0  0  0  0  0  0
  1 18  1  6  0  0  0
  1 14  1  0  0  0  0
  1  8  1  0  0  0  0
  4  6  1  0  0  0  0
  5  9  1  0  0  0  0
  6  5  2  0  0  0  0
  7  3  1  0  0  0  0
  7  9  1  1  0  0  0
  8  4  2  0  0  0  0
  8  7  1  0  0  0  0
 10 17  1  1  0  0  0
 10  2  1  0  0  0  0
 11 10  1  0  0  0  0
 12  2  1  1  0  0  0
 12  3  1  0  0  0  0
 13 11  1  0  0  0  0
 14 13  1  6  0  0  0
 14 12  1  0  0  0  0
 15 17  2  0  0  0  0
 17 16  1  0  0  0  0
 19 20  1  0  0  0  0
 19 18  1  0  0  0  0
 21 31  1  0  0  0  0
 22 30  1  0  0  0  0
 23 24  1  6  0  0  0
 23 25  1  0  0  0  0
 26 25  1  6  0  0  0
 26 21  1  0  0  0  0
 28 27  1  6  0  0  0
 28 26  1  0  0  0  0
 28 22  1  0  0  0  0
 29 23  1  0  0  0  0
 29 27  1  0  0  0  0
 30 31  1  0  0  0  0
 30 20  1  1  0  0  0
 32 33  1  0  0  0  0
 32 23  1  0  0  0  0
 34 32  2  0  0  0  0
M  END
>  <MODEL>
8

>  <REMARK>
 VINA RESULT:      -7.2      2.583      9.352
  Name = 
  6 active torsions:
  status: ('A' for Active; 'I' for Inactive)
    1  A    between atoms: C_1  and  C_9
    2  A    between atoms: C_7  and  C_11
    3  A    between atoms: O_8  and  C_9
    4  A    between atoms: O_8  and  C_18
    5  A    between atoms: C_18  and  C_30
    6  A    between atoms: C_23  and  C_25
                            x       y       z     vdW  Elec       q    Type
                         _______ _______ _______ _____ _____    ______ ____

>  <TORSDO>
F 6

$$$$
=
 OpenBabel11062409333D

 34 38  0  0  1  0  0  0  0  0999 V2000
  161.2580  209.6460  153.8220 C   0  0  2  0  0  3  0  0  0  0  0  0
  160.6410  211.9720  150.7560 C   0  0  0  0  0  2  0  0  0  0  0  0
  159.6440  212.3910  153.2250 S   0  0  0  0  0  0  0  0  0  0  0  0
  160.6490  209.9060  156.1520 C   0  0  0  0  0  3  0  0  0  0  0  0
  158.8380  211.2670  157.0480 C   0  0  0  0  0  3  0  0  0  0  0  0
  159.7610  210.3280  157.2450 C   0  0  0  0  0  3  0  0  0  0  0  0
  159.2630  211.1890  154.5450 C   0  0  1  0  0  3  0  0  0  0  0  0
  160.4710  210.3350  154.8980 C   0  0  0  0  0  0  0  0  0  0  0  0
  158.7540  212.0050  155.7450 C   0  0  0  0  0  2  0  0  0  0  0  0
  161.3930  211.1080  149.7550 C   0  0  2  0  0  3  0  0  0  0  0  0
  162.7060  210.6440  150.3690 C   0  0  0  0  0  2  0  0  0  0  0  0
  160.3290  211.1980  152.0360 C   0  0  2  0  0  3  0  0  0  0  0  0
  162.4180  209.7920  151.5950 C   0  0  0  0  0  2  0  0  0  0  0  0
  161.5960  210.5630  152.6360 C   0  0  2  0  0  3  0  0  0  0  0  0
  160.6980  211.9220  147.4930 O   0  0  0  0  0  0  0  0  0  0  0  0
  162.7420  212.4870  148.3600 O   0  0  0  0  0  1  0  0  0  0  0  0
  161.6510  211.8790  148.5050 C   0  0  0  0  0  0  0  0  0  0  0  0
  160.6010  208.3180  153.4180 C   0  0  0  0  0  2  0  0  0  0  0  0
  161.5630  207.3460  153.1320 O   0  0  0  0  0  0  0  0  0  0  0  0
  160.8390  206.1670  152.9490 C   0  0  0  0  0  2  0  0  0  0  0  0
  161.5610  205.6670  149.2140 C   0  0  0  0  0  2  0  0  0  0  0  0
  160.5520  204.1480  151.5160 C   0  0  0  0  0  2  0  0  0  0  0  0
  161.1500  202.1320  147.7190 C   0  0  2  0  0  0  0  0  0  0  0  0
  162.3270  201.5050  148.1420 O   0  0  0  0  0  1  0  0  0  0  0  0
  161.3600  203.6560  147.7510 C   0  0  0  0  0  2  0  0  0  0  0  0
  160.8320  204.3400  149.0180 C   0  0  1  0  0  3  0  0  0  0  0  0
  160.2130  202.1290  150.0950 C   0  0  0  0  0  2  0  0  0  0  0  0
  161.0020  203.4340  150.2470 C   0  0  2  0  0  3  0  0  0  0  0  0
  159.9980  201.7030  148.6360 C   0  0  0  0  0  2  0  0  0  0  0  0
  161.3120  205.4620  151.6910 C   0  0  1  0  0  3  0  0  0  0  0  0
  161.0730  206.3590  150.4820 C   0  0  0  0  0  2  0  0  0  0  0  0
  160.8320  201.7220  146.3110 C   0  0  0  0  0  0  0  0  0  0  0  0
  160.8170  202.6740  145.2980 O   0  0  0  0  0  0  0  0  0  0  0  0
  160.5970  200.5160  146.0290 O   0  0  0  0  0  1  0  0  0  0  0  0
  1 18  1  6  0  0  0
  1  8  1  0  0  0  0
  3  7  1  0  0  0  0
  4  6  1  0  0  0  0
  5  6  2  0  0  0  0
  7  8  1  0  0  0  0
  7  9  1  1  0  0  0
  8  4  2  0  0  0  0
  9  5  1  0  0  0  0
 10 17  1  6  0  0  0
 10 11  1  0  0  0  0
 10  2  1  0  0  0  0
 11 13  1  0  0  0  0
 12  2  1  6  0  0  0
 12 14  1  0  0  0  0
 12  3  1  0  0  0  0
 14 13  1  6  0  0  0
 14  1  1  0  0  0  0
 15 17  2  0  0  0  0
 16 17  1  0  0  0  0
 19 18  1  0  0  0  0
 20 19  1  0  0  0  0
 21 31  1  0  0  0  0
 22 30  1  0  0  0  0
 23 25  1  0  0  0  0
 23 24  1  1  0  0  0
 23 29  1  0  0  0  0
 26 25  1  6  0  0  0
 26 21  1  0  0  0  0
 26 28  1  0  0  0  0
 28 27  1  6  0  0  0
 28 22  1  0  0  0  0
 29 27  1  0  0  0  0
 30 20  1  1  0  0  0
 31 30  1  0  0  0  0
 32 23  1  0  0  0  0
 33 32  2  0  0  0  0
 34 32  1  0  0  0  0
M  END
>  <MODEL>
9

>  <REMARK>
 VINA RESULT:      -6.7      3.136      8.967
  Name = 
  6 active torsions:
  status: ('A' for Active; 'I' for Inactive)
    1  A    between atoms: C_1  and  C_9
    2  A    between atoms: C_7  and  C_11
    3  A    between atoms: O_8  and  C_9
    4  A    between atoms: O_8  and  C_18
    5  A    between atoms: C_18  and  C_30
    6  A    between atoms: C_23  and  C_25
                            x       y       z     vdW  Elec       q    Type
                         _______ _______ _______ _____ _____    ______ ____

>  <TORSDO>
F 6

$$$$
