=
 OpenBabel11062409433D

 34 39  0  0  1  0  0  0  0  0999 V2000
  161.6420  204.6760  148.2640 C   0  0  0  0  0  0  0  0  0  0  0  0
  160.1780  203.7500  145.4360 C   0  0  0  0  0  2  0  0  0  0  0  0
  161.5830  202.2920  146.7710 O   0  0  0  0  0  0  0  0  0  0  0  0
  160.9020  204.6180  150.9810 C   0  0  0  0  0  3  0  0  0  0  0  0
  161.6740  205.8430  149.0440 C   0  0  0  0  0  3  0  0  0  0  0  0
  160.8890  203.4400  150.2340 C   0  0  0  0  0  0  0  0  0  0  0  0
  160.5550  201.0450  150.0970 C   0  0  0  0  0  3  0  0  0  0  0  0
  160.5390  202.2300  150.8390 C   0  0  0  0  0  3  0  0  0  0  0  0
  161.2900  205.8330  150.3950 C   0  0  0  0  0  0  0  0  0  0  0  0
  161.2490  202.2740  148.1270 C   0  0  0  0  0  0  0  0  0  0  0  0
  161.2540  203.4660  148.8690 C   0  0  0  0  0  0  0  0  0  0  0  0
  160.9120  201.0670  148.7460 C   0  0  0  0  0  3  0  0  0  0  0  0
  160.1040  204.8800  144.3960 C   0  0  0  0  0  2  0  0  0  0  0  0
  161.4600  205.2110  143.7690 C   0  0  2  0  0  3  0  0  0  0  0  0
  162.3480  206.0800  144.6790 C   0  0  0  0  0  2  0  0  0  0  0  0
  161.5800  203.5020  146.0140 C   0  0  2  0  0  3  0  0  0  0  0  0
  161.9590  206.0560  146.1620 C   0  0  0  0  0  2  0  0  0  0  0  0
  162.1480  204.6860  146.8350 C   0  0  1  0  0  3  0  0  0  0  0  0
  161.7060  209.4930  151.3460 C   0  0  0  0  0  3  0  0  0  0  0  0
  160.9550  207.0640  152.5570 C   0  0  0  0  0  3  0  0  0  0  0  0
  160.8400  209.9340  154.9540 C   0  0  2  0  0  3  0  0  0  0  0  0
  161.2960  210.5750  153.6330 C   0  0  0  0  0  2  0  0  0  0  0  0
  161.3500  209.4370  152.6920 C   0  0  0  0  0  0  0  0  0  0  0  0
  160.6370  208.4300  154.7110 C   0  0  1  0  0  3  0  0  0  0  0  0
  160.9870  208.2560  153.2840 C   0  0  0  0  0  0  0  0  0  0  0  0
  161.5270  207.7080  155.5070 O   0  0  0  0  0  1  0  0  0  0  0  0
  161.3120  207.0810  151.1930 C   0  0  0  0  0  0  0  0  0  0  0  0
  161.6870  208.3060  150.5980 C   0  0  0  0  0  3  0  0  0  0  0  0
  159.5710  210.5620  155.4270 C   0  0  0  0  0  0  0  0  0  0  0  0
  159.2870  210.5480  156.6520 O   0  0  0  0  0  1  0  0  0  0  0  0
  158.7000  211.1620  154.5240 O   0  0  0  0  0  0  0  0  0  0  0  0
  161.2450  205.9040  142.4360 C   0  0  0  0  0  2  0  0  0  0  0  0
  162.5770  206.2310  141.7870 C   0  0  0  0  0  2  0  0  0  0  0  0
  162.3450  206.6900  140.3630 C   0  0  0  0  0  1  0  0  0  0  0  0
  1 11  2  0  0  0  0
  1  5  1  0  0  0  0
  3 10  1  0  0  0  0
  5  9  2  0  0  0  0
  6  8  1  0  0  0  0
  6  4  2  0  0  0  0
  7  8  2  0  0  0  0
  9  4  1  0  0  0  0
  9 27  1  0  0  0  0
 10 12  2  0  0  0  0
 10 11  1  0  0  0  0
 11  6  1  0  0  0  0
 12  7  1  0  0  0  0
 13  2  1  0  0  0  0
 14 32  1  6  0  0  0
 14 13  1  0  0  0  0
 14 15  1  0  0  0  0
 15 17  1  0  0  0  0
 16  2  1  1  0  0  0
 16  3  1  0  0  0  0
 16 18  1  0  0  0  0
 18 17  1  6  0  0  0
 18  1  1  0  0  0  0
 19 23  1  0  0  0  0
 20 25  1  0  0  0  0
 21 29  1  6  0  0  0
 22 21  1  0  0  0  0
 23 25  2  0  0  0  0
 23 22  1  0  0  0  0
 24 21  1  0  0  0  0
 24 26  1  1  0  0  0
 25 24  1  0  0  0  0
 27 20  2  0  0  0  0
 28 27  1  0  0  0  0
 28 19  2  0  0  0  0
 29 30  1  0  0  0  0
 31 29  2  0  0  0  0
 33 32  1  0  0  0  0
 34 33  1  0  0  0  0
M  END
>  <MODEL>
1

>  <REMARK>
 VINA RESULT:      -8.2      0.000      0.000
  Name = 
  4 active torsions:
  status: ('A' for Active; 'I' for Inactive)
    1  A    between atoms: C_3  and  C_13
    2  A    between atoms: C_3  and  C_25
    3  A    between atoms: C_7  and  C_11
    4  A    between atoms: C_18  and  C_30
                            x       y       z     vdW  Elec       q    Type
                         _______ _______ _______ _____ _____    ______ ____

>  <TORSDO>
F 4

$$$$
=
 OpenBabel11062409433D

 34 39  0  0  1  0  0  0  0  0999 V2000
  162.0650  208.2180  149.9960 C   0  0  0  0  0  0  0  0  0  0  0  0
  160.4220  205.3690  150.4270 C   0  0  0  0  0  2  0  0  0  0  0  0
  161.9640  206.2990  152.0520 O   0  0  0  0  0  0  0  0  0  0  0  0
  161.5310  210.9160  150.6030 C   0  0  0  0  0  3  0  0  0  0  0  0
  162.1220  209.2050  148.9990 C   0  0  0  0  0  3  0  0  0  0  0  0
  161.4970  209.9580  151.6170 C   0  0  0  0  0  0  0  0  0  0  0  0
  161.2220  209.3830  153.9530 C   0  0  0  0  0  3  0  0  0  0  0  0
  161.2280  210.3400  152.9340 C   0  0  0  0  0  3  0  0  0  0  0  0
  161.8400  210.5510  149.2840 C   0  0  0  0  0  0  0  0  0  0  0  0
  161.7320  207.6460  152.3430 C   0  0  0  0  0  0  0  0  0  0  0  0
  161.7580  208.6020  151.3150 C   0  0  0  0  0  0  0  0  0  0  0  0
  161.4770  208.0400  153.6590 C   0  0  0  0  0  3  0  0  0  0  0  0
  160.2380  204.5750  149.1230 C   0  0  0  0  0  2  0  0  0  0  0  0
  161.5340  203.9340  148.6220 C   0  0  2  0  0  3  0  0  0  0  0  0
  162.4620  204.9330  147.9050 C   0  0  0  0  0  2  0  0  0  0  0  0
  161.8690  205.7920  150.7210 C   0  0  2  0  0  3  0  0  0  0  0  0
  162.1850  206.4050  148.2290 C   0  0  0  0  0  2  0  0  0  0  0  0
  162.4630  206.7870  149.6920 C   0  0  1  0  0  3  0  0  0  0  0  0
  163.1140  213.2870  146.9670 C   0  0  0  0  0  3  0  0  0  0  0  0
  160.7560  211.8090  147.4000 C   0  0  0  0  0  3  0  0  0  0  0  0
  160.3990  214.2460  144.5850 C   0  0  2  0  0  3  0  0  0  0  0  0
  161.8430  214.4520  145.0710 C   0  0  0  0  0  2  0  0  0  0  0  0
  161.9770  213.4950  146.1880 C   0  0  0  0  0  0  0  0  0  0  0  0
  159.7540  213.1530  145.4530 C   0  0  1  0  0  3  0  0  0  0  0  0
  160.8280  212.7790  146.3990 C   0  0  0  0  0  0  0  0  0  0  0  0
  158.6750  213.6930  146.1520 O   0  0  0  0  0  1  0  0  0  0  0  0
  161.8850  211.5720  148.2110 C   0  0  0  0  0  0  0  0  0  0  0  0
  163.0620  212.3210  147.9830 C   0  0  0  0  0  3  0  0  0  0  0  0
  160.3850  213.8470  143.1470 C   0  0  0  0  0  0  0  0  0  0  0  0
  161.2730  214.2820  142.3700 O   0  0  0  0  0  0  0  0  0  0  0  0
  159.3970  212.9980  142.6580 O   0  0  0  0  0  1  0  0  0  0  0  0
  161.2010  202.7770  147.6970 C   0  0  0  0  0  2  0  0  0  0  0  0
  160.3430  201.7540  148.4160 C   0  0  0  0  0  2  0  0  0  0  0  0
  161.2060  200.9480  149.3640 C   0  0  0  0  0  1  0  0  0  0  0  0
  1 11  1  0  0  0  0
  3 10  1  0  0  0  0
  4  6  1  0  0  0  0
  5  9  1  0  0  0  0
  5  1  2  0  0  0  0
  6  8  1  0  0  0  0
  8  7  2  0  0  0  0
  9  4  2  0  0  0  0
 10 12  2  0  0  0  0
 11  6  2  0  0  0  0
 11 10  1  0  0  0  0
 12  7  1  0  0  0  0
 13  2  1  0  0  0  0
 14 32  1  6  0  0  0
 14 13  1  0  0  0  0
 15 17  1  0  0  0  0
 15 14  1  0  0  0  0
 16  2  1  6  0  0  0
 16  3  1  0  0  0  0
 18 17  1  6  0  0  0
 18  1  1  0  0  0  0
 18 16  1  0  0  0  0
 19 28  1  0  0  0  0
 20 27  1  0  0  0  0
 21 29  1  6  0  0  0
 21 22  1  0  0  0  0
 21 24  1  0  0  0  0
 22 23  1  0  0  0  0
 23 25  1  0  0  0  0
 23 19  2  0  0  0  0
 24 26  1  1  0  0  0
 24 25  1  0  0  0  0
 25 20  2  0  0  0  0
 27  9  1  0  0  0  0
 28 27  2  0  0  0  0
 30 29  2  0  0  0  0
 31 29  1  0  0  0  0
 32 33  1  0  0  0  0
 33 34  1  0  0  0  0
M  END
>  <MODEL>
2

>  <REMARK>
 VINA RESULT:      -7.8      4.961      7.843
  Name = 
  4 active torsions:
  status: ('A' for Active; 'I' for Inactive)
    1  A    between atoms: C_3  and  C_13
    2  A    between atoms: C_3  and  C_25
    3  A    between atoms: C_7  and  C_11
    4  A    between atoms: C_18  and  C_30
                            x       y       z     vdW  Elec       q    Type
                         _______ _______ _______ _____ _____    ______ ____

>  <TORSDO>
F 4

$$$$
=
 OpenBabel11062409433D

 34 39  0  0  1  0  0  0  0  0999 V2000
  161.6620  208.6940  151.1460 C   0  0  0  0  0  0  0  0  0  0  0  0
  159.9470  210.7050  153.1510 C   0  0  0  0  0  2  0  0  0  0  0  0
  161.9470  211.3740  151.9540 O   0  0  0  0  0  0  0  0  0  0  0  0
  161.5550  208.0870  148.3980 C   0  0  0  0  0  3  0  0  0  0  0  0
  161.5350  207.3670  150.7070 C   0  0  0  0  0  3  0  0  0  0  0  0
  161.7100  209.4120  148.8100 C   0  0  0  0  0  0  0  0  0  0  0  0
  162.0260  211.7520  148.2760 C   0  0  0  0  0  3  0  0  0  0  0  0
  161.8420  210.4300  147.8620 C   0  0  0  0  0  3  0  0  0  0  0  0
  161.4630  207.0510  149.3400 C   0  0  0  0  0  0  0  0  0  0  0  0
  161.9250  211.0540  150.5940 C   0  0  0  0  0  0  0  0  0  0  0  0
  161.7580  209.7200  150.1880 C   0  0  0  0  0  0  0  0  0  0  0  0
  162.0700  212.0630  149.6380 C   0  0  0  0  0  3  0  0  0  0  0  0
  159.3480  209.9780  154.3660 C   0  0  0  0  0  2  0  0  0  0  0  0
  160.3980  209.5790  155.4060 C   0  0  2  0  0  3  0  0  0  0  0  0
  161.1830  208.3140  155.0130 C   0  0  0  0  0  2  0  0  0  0  0  0
  161.4520  210.4740  152.9450 C   0  0  2  0  0  3  0  0  0  0  0  0
  161.1370  207.9730  153.5190 C   0  0  0  0  0  2  0  0  0  0  0  0
  161.8330  209.0080  152.6200 C   0  0  1  0  0  3  0  0  0  0  0  0
  160.8210  203.3020  149.4200 C   0  0  0  0  0  3  0  0  0  0  0  0
  161.4890  205.2950  147.5460 C   0  0  0  0  0  3  0  0  0  0  0  0
  161.1910  201.9160  145.9700 C   0  0  2  0  0  3  0  0  0  0  0  0
  160.8820  201.6590  147.4540 C   0  0  0  0  0  2  0  0  0  0  0  0
  161.0100  202.9940  148.0740 C   0  0  0  0  0  0  0  0  0  0  0  0
  161.4790  203.4150  145.7940 C   0  0  1  0  0  3  0  0  0  0  0  0
  161.3390  203.9610  147.1620 C   0  0  0  0  0  0  0  0  0  0  0  0
  162.7900  203.5850  145.3490 O   0  0  0  0  0  1  0  0  0  0  0  0
  161.3080  205.6450  148.9000 C   0  0  0  0  0  0  0  0  0  0  0  0
  160.9730  204.6350  149.8300 C   0  0  0  0  0  3  0  0  0  0  0  0
  160.0360  201.5030  145.1190 C   0  0  0  0  0  0  0  0  0  0  0  0
  159.8050  200.2810  144.9320 O   0  0  0  0  0  1  0  0  0  0  0  0
  159.2140  202.4580  144.5300 O   0  0  0  0  0  0  0  0  0  0  0  0
  159.7250  209.3760  156.7510 C   0  0  0  0  0  2  0  0  0  0  0  0
  159.0870  210.6690  157.2250 C   0  0  0  0  0  2  0  0  0  0  0  0
  160.1320  211.7640  157.2610 C   0  0  0  0  0  1  0  0  0  0  0  0
  1 18  1  0  0  0  0
  2 13  1  0  0  0  0
  3 16  1  0  0  0  0
  4  6  2  0  0  0  0
  4  9  1  0  0  0  0
  5  1  1  0  0  0  0
  6 11  1  0  0  0  0
  7 12  1  0  0  0  0
  8  7  2  0  0  0  0
  8  6  1  0  0  0  0
  9  5  2  0  0  0  0
 10  3  1  0  0  0  0
 11 10  1  0  0  0  0
 11  1  2  0  0  0  0
 12 10  2  0  0  0  0
 13 14  1  0  0  0  0
 14 32  1  1  0  0  0
 15 14  1  0  0  0  0
 16  2  1  6  0  0  0
 17 15  1  0  0  0  0
 18 16  1  0  0  0  0
 18 17  1  1  0  0  0
 19 28  1  0  0  0  0
 20 27  1  0  0  0  0
 21 29  1  6  0  0  0
 21 22  1  0  0  0  0
 22 23  1  0  0  0  0
 23 19  2  0  0  0  0
 24 26  1  1  0  0  0
 24 21  1  0  0  0  0
 24 25  1  0  0  0  0
 25 20  2  0  0  0  0
 25 23  1  0  0  0  0
 27  9  1  0  0  0  0
 27 28  2  0  0  0  0
 30 29  1  0  0  0  0
 31 29  2  0  0  0  0
 32 33  1  0  0  0  0
 33 34  1  0  0  0  0
M  END
>  <MODEL>
3

>  <REMARK>
 VINA RESULT:      -7.3      2.510     10.103
  Name = 
  4 active torsions:
  status: ('A' for Active; 'I' for Inactive)
    1  A    between atoms: C_3  and  C_13
    2  A    between atoms: C_3  and  C_25
    3  A    between atoms: C_7  and  C_11
    4  A    between atoms: C_18  and  C_30
                            x       y       z     vdW  Elec       q    Type
                         _______ _______ _______ _____ _____    ______ ____

>  <TORSDO>
F 4

$$$$
=
 OpenBabel11062409433D

 34 39  0  0  1  0  0  0  0  0999 V2000
  160.7610  210.4840  151.8720 C   0  0  0  0  0  0  0  0  0  0  0  0
  158.3890  212.7570  152.3310 C   0  0  0  0  0  2  0  0  0  0  0  0
  160.6450  213.2830  151.6110 O   0  0  0  0  0  0  0  0  0  0  0  0
  161.6080  208.9290  149.6820 C   0  0  0  0  0  3  0  0  0  0  0  0
  160.8450  209.0860  151.9720 C   0  0  0  0  0  3  0  0  0  0  0  0
  161.5590  210.3190  149.5680 C   0  0  0  0  0  0  0  0  0  0  0  0
  161.9350  212.3330  148.2780 C   0  0  0  0  0  3  0  0  0  0  0  0
  161.9570  210.9400  148.3810 C   0  0  0  0  0  3  0  0  0  0  0  0
  161.2480  208.2970  150.8820 C   0  0  0  0  0  0  0  0  0  0  0  0
  161.0930  212.5000  150.5440 C   0  0  0  0  0  0  0  0  0  0  0  0
  161.1290  211.1020  150.6630 C   0  0  0  0  0  0  0  0  0  0  0  0
  161.5070  213.1120  149.3570 C   0  0  0  0  0  3  0  0  0  0  0  0
  157.4500  212.4210  153.5010 C   0  0  0  0  0  2  0  0  0  0  0  0
  158.1060  212.6010  154.8720 C   0  0  2  0  0  3  0  0  0  0  0  0
  159.0310  211.4300  155.2540 C   0  0  0  0  0  2  0  0  0  0  0  0
  159.8850  212.7250  152.6830 C   0  0  2  0  0  3  0  0  0  0  0  0
  159.5030  210.5770  154.0710 C   0  0  0  0  0  2  0  0  0  0  0  0
  160.4150  211.3260  153.0850 C   0  0  1  0  0  3  0  0  0  0  0  0
  161.6090  204.8180  152.3800 C   0  0  0  0  0  3  0  0  0  0  0  0
  161.1250  206.0020  149.8710 C   0  0  0  0  0  3  0  0  0  0  0  0
  161.1730  202.2660  149.6850 C   0  0  2  0  0  3  0  0  0  0  0  0
  161.4340  202.5650  151.1700 C   0  0  0  0  0  2  0  0  0  0  0  0
  161.4230  204.0410  151.2380 C   0  0  0  0  0  0  0  0  0  0  0  0
  161.0110  203.6060  148.9490 C   0  0  1  0  0  3  0  0  0  0  0  0
  161.1910  204.6150  150.0160 C   0  0  0  0  0  0  0  0  0  0  0  0
  162.0240  203.7370  147.9990 O   0  0  0  0  0  1  0  0  0  0  0  0
  161.3100  206.8210  151.0030 C   0  0  0  0  0  0  0  0  0  0  0  0
  161.5530  206.2140  152.2560 C   0  0  0  0  0  3  0  0  0  0  0  0
  159.9440  201.4330  149.5290 C   0  0  0  0  0  0  0  0  0  0  0  0
  159.3030  201.4650  148.4480 O   0  0  0  0  0  0  0  0  0  0  0  0
  159.5020  200.6240  150.5700 O   0  0  0  0  0  1  0  0  0  0  0  0
  157.0300  212.7810  155.9270 C   0  0  0  0  0  2  0  0  0  0  0  0
  155.9520  211.7260  155.7700 C   0  0  0  0  0  2  0  0  0  0  0  0
  155.2340  211.5380  157.0900 C   0  0  0  0  0  1  0  0  0  0  0  0
  1  5  1  0  0  0  0
  1 18  1  0  0  0  0
  2 13  1  0  0  0  0
  3 16  1  0  0  0  0
  4  9  1  0  0  0  0
  6  4  2  0  0  0  0
  6 11  1  0  0  0  0
  7  8  2  0  0  0  0
  7 12  1  0  0  0  0
  8  6  1  0  0  0  0
  9 27  1  0  0  0  0
  9  5  2  0  0  0  0
 10 11  1  0  0  0  0
 10  3  1  0  0  0  0
 11  1  2  0  0  0  0
 12 10  2  0  0  0  0
 13 14  1  0  0  0  0
 14 15  1  0  0  0  0
 14 32  1  1  0  0  0
 16  2  1  6  0  0  0
 16 18  1  0  0  0  0
 17 15  1  0  0  0  0
 18 17  1  6  0  0  0
 20 25  2  0  0  0  0
 20 27  1  0  0  0  0
 21 29  1  1  0  0  0
 21 22  1  0  0  0  0
 22 23  1  0  0  0  0
 23 19  2  0  0  0  0
 24 26  1  6  0  0  0
 24 21  1  0  0  0  0
 24 25  1  0  0  0  0
 25 23  1  0  0  0  0
 27 28  2  0  0  0  0
 28 19  1  0  0  0  0
 29 31  1  0  0  0  0
 30 29  2  0  0  0  0
 33 32  1  0  0  0  0
 33 34  1  0  0  0  0
M  END
>  <MODEL>
4

>  <REMARK>
 VINA RESULT:      -6.6      3.619      9.992
  Name = 
  4 active torsions:
  status: ('A' for Active; 'I' for Inactive)
    1  A    between atoms: C_3  and  C_13
    2  A    between atoms: C_3  and  C_25
    3  A    between atoms: C_7  and  C_11
    4  A    between atoms: C_18  and  C_30
                            x       y       z     vdW  Elec       q    Type
                         _______ _______ _______ _____ _____    ______ ____

>  <TORSDO>
F 4

$$$$
=
 OpenBabel11062409433D

 34 39  0  0  1  0  0  0  0  0999 V2000
  161.9000  207.8390  150.4530 C   0  0  0  0  0  0  0  0  0  0  0  0
  160.3300  209.3310  152.9640 C   0  0  0  0  0  2  0  0  0  0  0  0
  162.2980  210.2350  151.8730 O   0  0  0  0  0  0  0  0  0  0  0  0
  161.6630  207.9240  147.6470 C   0  0  0  0  0  3  0  0  0  0  0  0
  161.7170  206.6620  149.7100 C   0  0  0  0  0  3  0  0  0  0  0  0
  161.8730  209.1040  148.3610 C   0  0  0  0  0  0  0  0  0  0  0  0
  162.2350  211.4980  148.3970 C   0  0  0  0  0  3  0  0  0  0  0  0
  161.9950  210.3200  147.6840 C   0  0  0  0  0  3  0  0  0  0  0  0
  161.5790  206.6910  148.3130 C   0  0  0  0  0  0  0  0  0  0  0  0
  162.2090  210.2570  150.4790 C   0  0  0  0  0  0  0  0  0  0  0  0
  161.9870  209.0660  149.7690 C   0  0  0  0  0  0  0  0  0  0  0  0
  162.3450  211.4660  149.7910 C   0  0  0  0  0  3  0  0  0  0  0  0
  159.7600  208.3410  153.9940 C   0  0  0  0  0  2  0  0  0  0  0  0
  160.8400  207.6800  154.8550 C   0  0  2  0  0  3  0  0  0  0  0  0
  161.5710  206.5350  154.1290 C   0  0  0  0  0  2  0  0  0  0  0  0
  161.8170  209.1300  152.6370 C   0  0  2  0  0  3  0  0  0  0  0  0
  161.4530  206.5700  152.6010 C   0  0  0  0  0  2  0  0  0  0  0  0
  162.1410  207.7810  151.9490 C   0  0  1  0  0  3  0  0  0  0  0  0
  161.1970  204.2600  145.4110 C   0  0  0  0  0  3  0  0  0  0  0  0
  161.1300  204.2220  148.2260 C   0  0  0  0  0  3  0  0  0  0  0  0
  160.5570  200.8310  146.7520 C   0  0  2  0  0  3  0  0  0  0  0  0
  160.7490  201.7390  145.5260 C   0  0  0  0  0  2  0  0  0  0  0  0
  160.9650  203.0780  146.1120 C   0  0  0  0  0  0  0  0  0  0  0  0
  160.6820  201.7000  148.0140 C   0  0  1  0  0  3  0  0  0  0  0  0
  160.9290  203.0580  147.4810 C   0  0  0  0  0  0  0  0  0  0  0  0
  159.4750  201.6790  148.7130 O   0  0  0  0  0  1  0  0  0  0  0  0
  161.3640  205.4370  147.5520 C   0  0  0  0  0  0  0  0  0  0  0  0
  161.3950  205.4430  146.1390 C   0  0  0  0  0  3  0  0  0  0  0  0
  161.5810  199.7450  146.7620 C   0  0  0  0  0  0  0  0  0  0  0  0
  162.3110  199.5860  147.7740 O   0  0  0  0  0  1  0  0  0  0  0  0
  161.7360  198.9100  145.6610 O   0  0  0  0  0  0  0  0  0  0  0  0
  160.2180  207.1680  156.1400 C   0  0  0  0  0  2  0  0  0  0  0  0
  160.4130  208.1730  157.2610 C   0  0  0  0  0  2  0  0  0  0  0  0
  161.8160  208.7360  157.1950 C   0  0  0  0  0  1  0  0  0  0  0  0
  1 18  1  0  0  0  0
  2 13  1  0  0  0  0
  3 16  1  0  0  0  0
  4  9  2  0  0  0  0
  4  6  1  0  0  0  0
  5  1  2  0  0  0  0
  6 11  1  0  0  0  0
  7 12  2  0  0  0  0
  8  6  2  0  0  0  0
  8  7  1  0  0  0  0
  9  5  1  0  0  0  0
 10  3  1  0  0  0  0
 11  1  1  0  0  0  0
 11 10  2  0  0  0  0
 12 10  1  0  0  0  0
 13 14  1  0  0  0  0
 14 32  1  1  0  0  0
 15 14  1  0  0  0  0
 16  2  1  6  0  0  0
 17 15  1  0  0  0  0
 18 17  1  1  0  0  0
 18 16  1  0  0  0  0
 19 23  2  0  0  0  0
 19 28  1  0  0  0  0
 21 29  1  1  0  0  0
 21 24  1  0  0  0  0
 22 23  1  0  0  0  0
 22 21  1  0  0  0  0
 23 25  1  0  0  0  0
 24 26  1  6  0  0  0
 25 24  1  0  0  0  0
 25 20  2  0  0  0  0
 27 20  1  0  0  0  0
 27  9  1  0  0  0  0
 28 27  2  0  0  0  0
 29 30  1  0  0  0  0
 31 29  2  0  0  0  0
 32 33  1  0  0  0  0
 34 33  1  0  0  0  0
M  END
>  <MODEL>
5

>  <REMARK>
 VINA RESULT:      -6.6      2.482      9.791
  Name = 
  4 active torsions:
  status: ('A' for Active; 'I' for Inactive)
    1  A    between atoms: C_3  and  C_13
    2  A    between atoms: C_3  and  C_25
    3  A    between atoms: C_7  and  C_11
    4  A    between atoms: C_18  and  C_30
                            x       y       z     vdW  Elec       q    Type
                         _______ _______ _______ _____ _____    ______ ____

>  <TORSDO>
F 4

$$$$
=
 OpenBabel11062409433D

 34 39  0  0  1  0  0  0  0  0999 V2000
  161.1320  207.9180  151.0070 C   0  0  0  0  0  0  0  0  0  0  0  0
  163.0780  210.5970  151.2020 C   0  0  0  0  0  2  0  0  0  0  0  0
  161.1770  210.1990  152.6540 O   0  0  0  0  0  0  0  0  0  0  0  0
  161.1660  205.3630  152.1920 C   0  0  0  0  0  3  0  0  0  0  0  0
  161.0950  206.7580  150.2170 C   0  0  0  0  0  3  0  0  0  0  0  0
  161.1750  206.5010  152.9990 C   0  0  0  0  0  0  0  0  0  0  0  0
  161.1500  207.5140  155.1980 C   0  0  0  0  0  3  0  0  0  0  0  0
  161.1710  206.3740  154.3900 C   0  0  0  0  0  3  0  0  0  0  0  0
  161.1300  205.4780  150.7930 C   0  0  0  0  0  0  0  0  0  0  0  0
  161.1620  208.9250  153.2270 C   0  0  0  0  0  0  0  0  0  0  0  0
  161.1640  207.7850  152.4080 C   0  0  0  0  0  0  0  0  0  0  0  0
  161.1430  208.7870  154.6180 C   0  0  0  0  0  3  0  0  0  0  0  0
  163.5820  211.0780  149.8310 C   0  0  0  0  0  2  0  0  0  0  0  0
  162.4890  211.7400  148.9870 C   0  0  2  0  0  3  0  0  0  0  0  0
  161.5550  210.7210  148.3080 C   0  0  0  0  0  2  0  0  0  0  0  0
  161.5560  210.4050  151.2940 C   0  0  2  0  0  3  0  0  0  0  0  0
  161.5610  209.3260  148.9440 C   0  0  0  0  0  2  0  0  0  0  0  0
  160.9990  209.2900  150.3750 C   0  0  1  0  0  3  0  0  0  0  0  0
  160.9560  201.8340  149.7140 C   0  0  0  0  0  3  0  0  0  0  0  0
  161.2220  204.3790  148.5380 C   0  0  0  0  0  3  0  0  0  0  0  0
  161.2090  201.6390  145.9910 C   0  0  2  0  0  3  0  0  0  0  0  0
  161.0560  200.8990  147.3290 C   0  0  0  0  0  2  0  0  0  0  0  0
  161.0710  201.9830  148.3330 C   0  0  0  0  0  0  0  0  0  0  0  0
  161.2980  203.1450  146.2840 C   0  0  1  0  0  3  0  0  0  0  0  0
  161.2040  203.2200  147.7590 C   0  0  0  0  0  0  0  0  0  0  0  0
  162.5380  203.6260  145.8650 O   0  0  0  0  0  1  0  0  0  0  0  0
  161.1110  204.2680  149.9390 C   0  0  0  0  0  0  0  0  0  0  0  0
  160.9780  202.9850  150.5160 C   0  0  0  0  0  3  0  0  0  0  0  0
  160.0470  201.3490  145.0990 C   0  0  0  0  0  0  0  0  0  0  0  0
  159.7130  200.1560  144.8790 O   0  0  0  0  0  1  0  0  0  0  0  0
  159.3310  202.3860  144.5110 O   0  0  0  0  0  0  0  0  0  0  0  0
  163.1310  212.6350  147.9430 C   0  0  0  0  0  2  0  0  0  0  0  0
  162.1370  213.6690  147.4480 C   0  0  0  0  0  2  0  0  0  0  0  0
  161.5820  214.4400  148.6260 C   0  0  0  0  0  1  0  0  0  0  0  0
  1 11  1  0  0  0  0
  3 10  1  0  0  0  0
  4  6  1  0  0  0  0
  5  9  1  0  0  0  0
  5  1  2  0  0  0  0
  6  8  1  0  0  0  0
  8  7  2  0  0  0  0
  9  4  2  0  0  0  0
 10 12  2  0  0  0  0
 11  6  2  0  0  0  0
 11 10  1  0  0  0  0
 12  7  1  0  0  0  0
 13  2  1  0  0  0  0
 14 32  1  6  0  0  0
 14 13  1  0  0  0  0
 15 17  1  0  0  0  0
 15 14  1  0  0  0  0
 16  2  1  1  0  0  0
 16  3  1  0  0  0  0
 18 17  1  6  0  0  0
 18  1  1  0  0  0  0
 18 16  1  0  0  0  0
 19 28  1  0  0  0  0
 20 27  1  0  0  0  0
 21 29  1  6  0  0  0
 21 24  1  0  0  0  0
 21 22  1  0  0  0  0
 22 23  1  0  0  0  0
 23 19  2  0  0  0  0
 24 26  1  1  0  0  0
 24 25  1  0  0  0  0
 25 23  1  0  0  0  0
 25 20  2  0  0  0  0
 27 28  2  0  0  0  0
 27  9  1  0  0  0  0
 30 29  1  0  0  0  0
 31 29  2  0  0  0  0
 33 32  1  0  0  0  0
 33 34  1  0  0  0  0
M  END
>  <MODEL>
6

>  <REMARK>
 VINA RESULT:      -6.5      2.543      8.565
  Name = 
  4 active torsions:
  status: ('A' for Active; 'I' for Inactive)
    1  A    between atoms: C_3  and  C_13
    2  A    between atoms: C_3  and  C_25
    3  A    between atoms: C_7  and  C_11
    4  A    between atoms: C_18  and  C_30
                            x       y       z     vdW  Elec       q    Type
                         _______ _______ _______ _____ _____    ______ ____

>  <TORSDO>
F 4

$$$$
=
 OpenBabel11062409433D

 34 39  0  0  1  0  0  0  0  0999 V2000
  160.9760  210.3820  151.0850 C   0  0  0  0  0  0  0  0  0  0  0  0
  158.7100  212.3970  152.4300 C   0  0  0  0  0  2  0  0  0  0  0  0
  160.8590  213.1470  151.5910 O   0  0  0  0  0  0  0  0  0  0  0  0
  161.5130  209.4820  148.4700 C   0  0  0  0  0  3  0  0  0  0  0  0
  161.0570  209.0100  150.7980 C   0  0  0  0  0  3  0  0  0  0  0  0
  161.4660  210.8510  148.7360 C   0  0  0  0  0  0  0  0  0  0  0  0
  161.6950  213.1420  147.9880 C   0  0  0  0  0  3  0  0  0  0  0  0
  161.7140  211.7720  147.7150 C   0  0  0  0  0  3  0  0  0  0  0  0
  161.3060  208.5460  149.4960 C   0  0  0  0  0  0  0  0  0  0  0  0
  161.1560  212.6850  150.3070 C   0  0  0  0  0  0  0  0  0  0  0  0
  161.1910  211.3060  150.0450 C   0  0  0  0  0  0  0  0  0  0  0  0
  161.4190  213.5980  149.2810 C   0  0  0  0  0  3  0  0  0  0  0  0
  157.9270  211.7420  153.5790 C   0  0  0  0  0  2  0  0  0  0  0  0
  158.7580  211.5690  154.8520 C   0  0  2  0  0  3  0  0  0  0  0  0
  159.7110  210.3610  154.7890 C   0  0  0  0  0  2  0  0  0  0  0  0
  160.2390  212.3080  152.5650 C   0  0  2  0  0  3  0  0  0  0  0  0
  160.0150  209.8620  153.3720 C   0  0  0  0  0  2  0  0  0  0  0  0
  160.8000  210.8660  152.5110 C   0  0  1  0  0  3  0  0  0  0  0  0
  161.1590  204.7750  149.9750 C   0  0  0  0  0  3  0  0  0  0  0  0
  161.6790  206.6280  147.9190 C   0  0  0  0  0  3  0  0  0  0  0  0
  161.9300  203.0910  146.7290 C   0  0  2  0  0  3  0  0  0  0  0  0
  161.5630  202.9550  148.2160 C   0  0  0  0  0  2  0  0  0  0  0  0
  161.4740  204.3530  148.6840 C   0  0  0  0  0  0  0  0  0  0  0  0
  162.0300  204.5880  146.3960 C   0  0  1  0  0  3  0  0  0  0  0  0
  161.7310  205.2530  147.6840 C   0  0  0  0  0  0  0  0  0  0  0  0
  163.3340  204.8890  146.0010 O   0  0  0  0  0  1  0  0  0  0  0  0
  161.3660  207.0930  149.2130 C   0  0  0  0  0  0  0  0  0  0  0  0
  161.1070  206.1520  150.2350 C   0  0  0  0  0  3  0  0  0  0  0  0
  160.8970  202.4340  145.8750 C   0  0  0  0  0  0  0  0  0  0  0  0
  160.5000  201.2750  146.1570 O   0  0  0  0  0  1  0  0  0  0  0  0
  160.3720  203.0930  144.7690 O   0  0  0  0  0  0  0  0  0  0  0  0
  157.8300  211.4380  156.0470 C   0  0  0  0  0  2  0  0  0  0  0  0
  156.4450  211.0120  155.5980 C   0  0  0  0  0  2  0  0  0  0  0  0
  155.4300  211.4060  156.6500 C   0  0  0  0  0  1  0  0  0  0  0  0
  1 18  1  0  0  0  0
  2 13  1  0  0  0  0
  3 16  1  0  0  0  0
  4  6  2  0  0  0  0
  4  9  1  0  0  0  0
  5  1  1  0  0  0  0
  6 11  1  0  0  0  0
  7 12  1  0  0  0  0
  8  7  2  0  0  0  0
  8  6  1  0  0  0  0
  9  5  2  0  0  0  0
 10  3  1  0  0  0  0
 11 10  1  0  0  0  0
 11  1  2  0  0  0  0
 12 10  2  0  0  0  0
 13 14  1  0  0  0  0
 14 32  1  1  0  0  0
 15 14  1  0  0  0  0
 16  2  1  6  0  0  0
 17 15  1  0  0  0  0
 18 16  1  0  0  0  0
 18 17  1  1  0  0  0
 19 28  1  0  0  0  0
 20 27  1  0  0  0  0
 21 29  1  6  0  0  0
 21 22  1  0  0  0  0
 22 23  1  0  0  0  0
 23 19  2  0  0  0  0
 24 26  1  1  0  0  0
 24 21  1  0  0  0  0
 24 25  1  0  0  0  0
 25 20  2  0  0  0  0
 25 23  1  0  0  0  0
 27  9  1  0  0  0  0
 27 28  2  0  0  0  0
 29 30  1  0  0  0  0
 31 29  2  0  0  0  0
 33 32  1  0  0  0  0
 33 34  1  0  0  0  0
M  END
>  <MODEL>
7

>  <REMARK>
 VINA RESULT:      -5.7      2.764     10.243
  Name = 
  4 active torsions:
  status: ('A' for Active; 'I' for Inactive)
    1  A    between atoms: C_3  and  C_13
    2  A    between atoms: C_3  and  C_25
    3  A    between atoms: C_7  and  C_11
    4  A    between atoms: C_18  and  C_30
                            x       y       z     vdW  Elec       q    Type
                         _______ _______ _______ _____ _____    ______ ____

>  <TORSDO>
F 4

$$$$
