=
 OpenBabel11062409113D

 37 42  0  0  1  0  0  0  0  0999 V2000
  162.1020  208.6650  151.6960 C   0  0  2  0  0  3  0  0  0  0  0  0
  162.1700  210.6960  149.7800 C   0  0  0  0  0  2  0  0  0  0  0  0
  160.5750  210.2080  153.1670 C   0  0  1  0  0  3  0  0  0  0  0  0
  160.9120  211.3300  152.1290 C   0  0  1  0  0  3  0  0  0  0  0  0
  161.0850  210.6020  150.8180 C   0  0  2  0  0  3  0  0  0  0  0  0
  161.5120  208.9620  153.1010 C   0  0  0  0  0  2  0  0  0  0  0  0
  162.4820  210.0220  151.0920 C   0  0  1  0  0  3  0  0  0  0  0  0
  157.2830  211.8680  157.0960 O   0  0  0  0  0  0  0  0  0  0  0  0
  160.3990  210.6600  154.5670 N   0  0  1  0  0  0  0  0  0  0  0  0
  158.9430  210.2110  156.6390 C   0  0  1  0  0  3  0  0  0  0  0  0
  159.0780  210.2260  155.1010 C   0  0  1  0  0  3  0  0  0  0  0  0
  160.2080  209.6410  157.2530 C   0  0  0  0  0  2  0  0  0  0  0  0
  157.9640  210.7980  154.4350 O   0  0  0  0  0  0  0  0  0  0  0  0
  156.9900  212.9280  154.9670 C   0  0  0  0  0  2  0  0  0  0  0  0
  162.8420  210.7030  154.9040 C   0  0  0  0  0  1  0  0  0  0  0  0
  161.3550  210.3940  156.7770 N   0  0  0  0  0  2  0  0  0  0  0  0
  158.1440  212.1880  154.3140 C   0  0  0  0  0  2  0  0  0  0  0  0
  161.5180  210.1050  155.3570 C   0  0  1  0  0  3  0  0  0  0  0  0
  158.6390  211.5720  157.2520 C   0  0  0  0  0  2  0  0  0  0  0  0
  157.2580  213.1080  156.4550 C   0  0  0  0  0  2  0  0  0  0  0  0
  161.2210  207.7500  150.8170 C   0  0  2  0  0  3  0  0  0  0  0  0
  160.7540  206.5230  151.5900 C   0  0  0  0  0  2  0  0  0  0  0  0
  161.2960  204.1110  151.5180 C   0  0  0  0  0  1  0  0  0  0  0  0
  161.8720  205.5020  151.6720 C   0  0  0  0  0  2  0  0  0  0  0  0
  162.0110  207.2920  149.6010 C   0  0  0  0  0  2  0  0  0  0  0  0
  161.7960  206.5770  147.3810 C   0  0  0  0  0  2  0  0  0  0  0  0
  161.2160  207.4670  148.3980 N   0  0  0  0  0  0  0  0  0  0  0  0
  160.6060  206.1610  148.1100 C   0  0  0  0  0  2  0  0  0  0  0  0
  159.7620  212.3170  152.0100 C   0  0  0  0  0  2  0  0  0  0  0  0
  160.0730  213.3600  150.9510 C   0  0  0  0  0  2  0  0  0  0  0  0
  159.0810  213.5470  148.6620 C   0  0  0  0  0  3  0  0  0  0  0  0
  158.9000  213.5290  150.0500 C   0  0  0  0  0  0  0  0  0  0  0  0
  157.6220  213.7090  150.5900 C   0  0  0  0  0  3  0  0  0  0  0  0
  155.1670  214.0820  150.3180 C   0  0  0  0  0  1  0  0  0  0  0  0
  156.7050  213.9090  148.3570 C   0  0  0  0  0  3  0  0  0  0  0  0
  156.5240  213.8940  149.7440 C   0  0  0  0  0  0  0  0  0  0  0  0
  157.9830  213.7340  147.8170 C   0  0  0  0  0  3  0  0  0  0  0  0
  1 21  1  6  0  0  0
  1  6  1  0  0  0  0
  3  6  1  1  0  0  0
  4 29  1  6  0  0  0
  4  3  1  0  0  0  0
  5  2  1  6  0  0  0
  5  7  1  0  0  0  0
  5  4  1  0  0  0  0
  7  2  1  6  0  0  0
  7  1  1  0  0  0  0
  8 19  1  0  0  0  0
  9  3  1  6  0  0  0
  9 11  1  0  0  0  0
  9 18  1  0  0  0  0
 10 19  1  1  0  0  0
 10 12  1  0  0  0  0
 11 13  1  6  0  0  0
 11 10  1  0  0  0  0
 14 20  1  0  0  0  0
 16 12  1  0  0  0  0
 17 13  1  0  0  0  0
 17 14  1  0  0  0  0
 18 15  1  6  0  0  0
 18 16  1  0  0  0  0
 20  8  1  0  0  0  0
 21 25  1  6  0  0  0
 21 22  1  0  0  0  0
 22 24  1  0  0  0  0
 23 24  1  0  0  0  0
 26 28  1  0  0  0  0
 26 27  1  0  0  0  0
 27 25  1  0  0  0  0
 28 27  1  0  0  0  0
 30 29  1  0  0  0  0
 31 32  1  0  0  0  0
 32 33  2  0  0  0  0
 32 30  1  0  0  0  0
 35 36  2  0  0  0  0
 36 34  1  0  0  0  0
 36 33  1  0  0  0  0
 37 35  1  0  0  0  0
 37 31  2  0  0  0  0
M  END
>  <MODEL>
1

>  <REMARK>
 VINA RESULT:      -5.9      0.000      0.000
  Name = 
  9 active torsions:
  status: ('A' for Active; 'I' for Inactive)
    1  A    between atoms: C_1  and  C_33
    2  A    between atoms: N_4  and  C_10
    3  A    between atoms: C_5  and  C_23
    4  A    between atoms: C_5  and  C_33
    5  A    between atoms: C_6  and  C_31
    6  A    between atoms: C_14  and  C_37
    7  A    between atoms: C_17  and  N_26
    8  A    between atoms: C_17  and  C_33
    9  A    between atoms: C_31  and  C_37
                            x       y       z     vdW  Elec       q    Type
                         _______ _______ _______ _____ _____    ______ ____

>  <TORSDO>
F 9

$$$$
=
 OpenBabel11062409113D

 37 42  0  0  1  0  0  0  0  0999 V2000
  162.0450  208.6920  151.8640 C   0  0  2  0  0  3  0  0  0  0  0  0
  162.2410  210.6340  149.8660 C   0  0  0  0  0  2  0  0  0  0  0  0
  160.4790  210.3250  153.1910 C   0  0  1  0  0  3  0  0  0  0  0  0
  160.8840  211.3940  152.1210 C   0  0  1  0  0  3  0  0  0  0  0  0
  161.1060  210.6040  150.8540 C   0  0  2  0  0  3  0  0  0  0  0  0
  161.3950  209.0620  153.2250 C   0  0  0  0  0  2  0  0  0  0  0  0
  162.4780  210.0150  151.2200 C   0  0  1  0  0  3  0  0  0  0  0  0
  157.0630  212.3530  156.8310 O   0  0  0  0  0  0  0  0  0  0  0  0
  160.2450  210.8420  154.5590 N   0  0  1  0  0  0  0  0  0  0  0  0
  158.6310  210.5720  156.5440 C   0  0  1  0  0  3  0  0  0  0  0  0
  158.8650  210.5180  155.0180 C   0  0  1  0  0  3  0  0  0  0  0  0
  159.8120  209.9440  157.2610 C   0  0  0  0  0  2  0  0  0  0  0  0
  157.8380  211.1360  154.2610 O   0  0  0  0  0  0  0  0  0  0  0  0
  156.9820  213.3450  154.6520 C   0  0  0  0  0  2  0  0  0  0  0  0
  162.6580  210.7360  155.0570 C   0  0  0  0  0  1  0  0  0  0  0  0
  161.0370  210.6000  156.8360 N   0  0  0  0  0  2  0  0  0  0  0  0
  158.1210  212.5050  154.1030 C   0  0  0  0  0  2  0  0  0  0  0  0
  161.2700  210.2450  155.4410 C   0  0  1  0  0  3  0  0  0  0  0  0
  158.3830  211.9740  157.0880 C   0  0  0  0  0  2  0  0  0  0  0  0
  157.1650  213.5660  156.1470 C   0  0  0  0  0  2  0  0  0  0  0  0
  161.1910  207.7540  150.9860 C   0  0  2  0  0  3  0  0  0  0  0  0
  160.7580  206.5140  151.7590 C   0  0  0  0  0  2  0  0  0  0  0  0
  161.4020  204.1330  151.5730 C   0  0  0  0  0  1  0  0  0  0  0  0
  161.9090  205.5310  151.8550 C   0  0  0  0  0  2  0  0  0  0  0  0
  161.9940  207.3170  149.7700 C   0  0  0  0  0  2  0  0  0  0  0  0
  161.7310  206.5440  147.5750 C   0  0  0  0  0  2  0  0  0  0  0  0
  161.2050  207.4960  148.5630 N   0  0  0  0  0  0  0  0  0  0  0  0
  160.5230  206.2170  148.3190 C   0  0  0  0  0  2  0  0  0  0  0  0
  159.7600  212.3920  151.9030 C   0  0  0  0  0  2  0  0  0  0  0  0
  160.1480  213.3950  150.8310 C   0  0  0  0  0  2  0  0  0  0  0  0
  157.7550  213.4450  150.1030 C   0  0  0  0  0  3  0  0  0  0  0  0
  159.1120  213.4160  149.7620 C   0  0  0  0  0  0  0  0  0  0  0  0
  159.4930  213.3690  148.4160 C   0  0  0  0  0  3  0  0  0  0  0  0
  158.9250  213.3150  145.9850 C   0  0  0  0  0  1  0  0  0  0  0  0
  157.1630  213.3940  147.7550 C   0  0  0  0  0  3  0  0  0  0  0  0
  158.5190  213.3620  147.4130 C   0  0  0  0  0  0  0  0  0  0  0  0
  156.7820  213.4360  149.0990 C   0  0  0  0  0  3  0  0  0  0  0  0
  1 21  1  6  0  0  0
  1  6  1  0  0  0  0
  3  6  1  1  0  0  0
  4 29  1  6  0  0  0
  4  3  1  0  0  0  0
  5  2  1  6  0  0  0
  5  7  1  0  0  0  0
  5  4  1  0  0  0  0
  7  2  1  6  0  0  0
  7  1  1  0  0  0  0
  8 19  1  0  0  0  0
  9  3  1  6  0  0  0
  9 11  1  0  0  0  0
  9 18  1  0  0  0  0
 10 19  1  1  0  0  0
 10 12  1  0  0  0  0
 11 13  1  6  0  0  0
 11 10  1  0  0  0  0
 14 20  1  0  0  0  0
 16 12  1  0  0  0  0
 17 13  1  0  0  0  0
 17 14  1  0  0  0  0
 18 15  1  6  0  0  0
 18 16  1  0  0  0  0
 20  8  1  0  0  0  0
 21 25  1  6  0  0  0
 21 22  1  0  0  0  0
 22 24  1  0  0  0  0
 23 24  1  0  0  0  0
 26 28  1  0  0  0  0
 26 27  1  0  0  0  0
 27 25  1  0  0  0  0
 28 27  1  0  0  0  0
 30 29  1  0  0  0  0
 32 31  1  0  0  0  0
 32 30  1  0  0  0  0
 33 32  2  0  0  0  0
 34 36  1  0  0  0  0
 35 37  1  0  0  0  0
 36 35  2  0  0  0  0
 36 33  1  0  0  0  0
 37 31  2  0  0  0  0
M  END
>  <MODEL>
2

>  <REMARK>
 VINA RESULT:      -5.7      0.525      1.299
  Name = 
  9 active torsions:
  status: ('A' for Active; 'I' for Inactive)
    1  A    between atoms: C_1  and  C_33
    2  A    between atoms: N_4  and  C_10
    3  A    between atoms: C_5  and  C_23
    4  A    between atoms: C_5  and  C_33
    5  A    between atoms: C_6  and  C_31
    6  A    between atoms: C_14  and  C_37
    7  A    between atoms: C_17  and  N_26
    8  A    between atoms: C_17  and  C_33
    9  A    between atoms: C_31  and  C_37
                            x       y       z     vdW  Elec       q    Type
                         _______ _______ _______ _____ _____    ______ ____

>  <TORSDO>
F 9

$$$$
=
 OpenBabel11062409113D

 37 42  0  0  1  0  0  0  0  0999 V2000
  161.5360  207.1930  151.2790 C   0  0  2  0  0  3  0  0  0  0  0  0
  163.0370  208.1030  149.1060 C   0  0  0  0  0  2  0  0  0  0  0  0
  160.9010  209.6860  151.7870 C   0  0  1  0  0  3  0  0  0  0  0  0
  161.9700  210.0550  150.7050 C   0  0  1  0  0  3  0  0  0  0  0  0
  161.9260  208.9150  149.7170 C   0  0  2  0  0  3  0  0  0  0  0  0
  160.9860  208.2180  152.3070 C   0  0  0  0  0  2  0  0  0  0  0  0
  162.6990  207.8880  150.5590 C   0  0  1  0  0  3  0  0  0  0  0  0
  157.9290  213.3040  154.4530 O   0  0  0  0  0  0  0  0  0  0  0  0
  160.7730  210.6380  152.9150 N   0  0  1  0  0  0  0  0  0  0  0  0
  159.1540  211.2830  154.8070 C   0  0  1  0  0  3  0  0  0  0  0  0
  159.3620  210.7150  153.3860 C   0  0  1  0  0  3  0  0  0  0  0  0
  160.2110  210.7190  155.7380 C   0  0  0  0  0  2  0  0  0  0  0  0
  158.4550  211.2300  152.4260 O   0  0  0  0  0  0  0  0  0  0  0  0
  158.0060  213.5630  152.0730 C   0  0  0  0  0  2  0  0  0  0  0  0
  163.1340  210.2820  153.5350 C   0  0  0  0  0  1  0  0  0  0  0  0
  161.5290  210.9900  155.1900 N   0  0  0  0  0  2  0  0  0  0  0  0
  158.9740  212.4120  151.8660 C   0  0  0  0  0  2  0  0  0  0  0  0
  161.6840  210.1810  153.9860 C   0  0  1  0  0  3  0  0  0  0  0  0
  159.1630  212.8050  154.8770 C   0  0  0  0  0  2  0  0  0  0  0  0
  158.2390  214.2060  153.4330 C   0  0  0  0  0  2  0  0  0  0  0  0
  160.4580  206.5570  150.3760 C   0  0  2  0  0  3  0  0  0  0  0  0
  160.3190  205.0640  150.6470 C   0  0  0  0  0  2  0  0  0  0  0  0
  161.3910  203.0720  151.6470 C   0  0  0  0  0  1  0  0  0  0  0  0
  161.4920  204.5720  151.4710 C   0  0  0  0  0  2  0  0  0  0  0  0
  160.8300  206.7570  148.9140 C   0  0  0  0  0  2  0  0  0  0  0  0
  160.6720  205.8590  146.7570 C   0  0  0  0  0  2  0  0  0  0  0  0
  160.6650  205.5110  148.1850 N   0  0  0  0  0  0  0  0  0  0  0  0
  161.8820  205.3380  147.3780 C   0  0  0  0  0  2  0  0  0  0  0  0
  161.5990  211.3490  149.9990 C   0  0  0  0  0  2  0  0  0  0  0  0
  162.4070  211.5010  148.7230 C   0  0  0  0  0  2  0  0  0  0  0  0
  160.5410  213.0810  148.1920 C   0  0  0  0  0  3  0  0  0  0  0  0
  161.7860  212.5370  147.8530 C   0  0  0  0  0  0  0  0  0  0  0  0
  162.4280  212.9410  146.6770 C   0  0  0  0  0  3  0  0  0  0  0  0
  162.5140  214.3260  144.5990 C   0  0  0  0  0  1  0  0  0  0  0  0
  160.5890  214.4400  146.1870 C   0  0  0  0  0  3  0  0  0  0  0  0
  161.8310  213.8950  145.8460 C   0  0  0  0  0  0  0  0  0  0  0  0
  159.9450  214.0330  147.3600 C   0  0  0  0  0  3  0  0  0  0  0  0
  1 21  1  6  0  0  0
  1  6  1  0  0  0  0
  3  6  1  1  0  0  0
  4 29  1  6  0  0  0
  4  3  1  0  0  0  0
  5  2  1  6  0  0  0
  5  7  1  0  0  0  0
  5  4  1  0  0  0  0
  7  2  1  6  0  0  0
  7  1  1  0  0  0  0
  8 19  1  0  0  0  0
  9  3  1  6  0  0  0
  9 11  1  0  0  0  0
  9 18  1  0  0  0  0
 10 19  1  6  0  0  0
 10 12  1  0  0  0  0
 11 13  1  6  0  0  0
 11 10  1  0  0  0  0
 14 20  1  0  0  0  0
 16 12  1  0  0  0  0
 17 14  1  0  0  0  0
 17 13  1  0  0  0  0
 18 15  1  6  0  0  0
 18 16  1  0  0  0  0
 20  8  1  0  0  0  0
 21 25  1  6  0  0  0
 21 22  1  0  0  0  0
 22 24  1  0  0  0  0
 24 23  1  0  0  0  0
 26 28  1  0  0  0  0
 26 27  1  0  0  0  0
 27 25  1  0  0  0  0
 28 27  1  0  0  0  0
 30 29  1  0  0  0  0
 32 31  1  0  0  0  0
 32 30  1  0  0  0  0
 33 32  2  0  0  0  0
 34 36  1  0  0  0  0
 35 37  1  0  0  0  0
 36 35  2  0  0  0  0
 36 33  1  0  0  0  0
 37 31  2  0  0  0  0
M  END
>  <MODEL>
3

>  <REMARK>
 VINA RESULT:      -5.0      1.962      3.077
  Name = 
  9 active torsions:
  status: ('A' for Active; 'I' for Inactive)
    1  A    between atoms: C_1  and  C_33
    2  A    between atoms: N_4  and  C_10
    3  A    between atoms: C_5  and  C_23
    4  A    between atoms: C_5  and  C_33
    5  A    between atoms: C_6  and  C_31
    6  A    between atoms: C_14  and  C_37
    7  A    between atoms: C_17  and  N_26
    8  A    between atoms: C_17  and  C_33
    9  A    between atoms: C_31  and  C_37
                            x       y       z     vdW  Elec       q    Type
                         _______ _______ _______ _____ _____    ______ ____

>  <TORSDO>
F 9

$$$$
=
 OpenBabel11062409113D

 37 42  0  0  1  0  0  0  0  0999 V2000
  162.3220  207.4160  151.0920 C   0  0  2  0  0  3  0  0  0  0  0  0
  161.8960  209.6960  149.5370 C   0  0  0  0  0  2  0  0  0  0  0  0
  160.9710  208.5710  153.0200 C   0  0  1  0  0  3  0  0  0  0  0  0
  161.0320  209.8580  152.1310 C   0  0  1  0  0  3  0  0  0  0  0  0
  161.0230  209.3450  150.7120 C   0  0  2  0  0  3  0  0  0  0  0  0
  161.9710  207.4480  152.6050 C   0  0  0  0  0  2  0  0  0  0  0  0
  162.4860  208.8770  150.6570 C   0  0  1  0  0  3  0  0  0  0  0  0
  162.5260  211.6400  157.1670 O   0  0  0  0  0  0  0  0  0  0  0  0
  161.0130  208.7980  154.4830 N   0  0  1  0  0  0  0  0  0  0  0  0
  160.5710  210.6320  156.2310 C   0  0  1  0  0  3  0  0  0  0  0  0
  160.9920  210.2550  154.7940 C   0  0  1  0  0  3  0  0  0  0  0  0
  159.3960  209.7720  156.6570 C   0  0  0  0  0  2  0  0  0  0  0  0
  162.1250  210.9660  154.3250 O   0  0  0  0  0  0  0  0  0  0  0  0
  164.2000  211.1850  155.5150 C   0  0  0  0  0  2  0  0  0  0  0  0
  159.9930  206.5900  154.8960 C   0  0  0  0  0  1  0  0  0  0  0  0
  159.7450  208.3700  156.5030 N   0  0  0  0  0  2  0  0  0  0  0  0
  163.3000  210.2830  154.6880 C   0  0  0  0  0  2  0  0  0  0  0  0
  159.8550  208.0940  155.0750 C   0  0  1  0  0  3  0  0  0  0  0  0
  161.6910  210.5230  157.2590 C   0  0  0  0  0  2  0  0  0  0  0  0
  163.8070  211.1140  156.9830 C   0  0  0  0  0  2  0  0  0  0  0  0
  161.3700  206.5520  150.2370 C   0  0  2  0  0  3  0  0  0  0  0  0
  160.8280  205.3710  151.0330 C   0  0  0  0  0  2  0  0  0  0  0  0
  161.0770  202.9260  151.3100 C   0  0  0  0  0  1  0  0  0  0  0  0
  161.1510  204.0710  150.3230 C   0  0  0  0  0  2  0  0  0  0  0  0
  162.1130  206.0220  149.0200 C   0  0  0  0  0  2  0  0  0  0  0  0
  162.1980  206.0820  146.6800 C   0  0  0  0  0  2  0  0  0  0  0  0
  161.8530  206.8720  147.8710 N   0  0  0  0  0  0  0  0  0  0  0  0
  160.8050  206.2020  147.0870 C   0  0  0  0  0  2  0  0  0  0  0  0
  159.8090  210.7300  152.3600 C   0  0  0  0  0  2  0  0  0  0  0  0
  160.1850  212.1980  152.2650 C   0  0  0  0  0  2  0  0  0  0  0  0
  158.1640  212.9760  151.0120 C   0  0  0  0  0  3  0  0  0  0  0  0
  159.5530  212.8040  151.0620 C   0  0  0  0  0  0  0  0  0  0  0  0
  160.3410  213.1670  149.9640 C   0  0  0  0  0  3  0  0  0  0  0  0
  160.5810  214.0990  147.6590 C   0  0  0  0  0  1  0  0  0  0  0  0
  158.3560  213.8860  148.7760 C   0  0  0  0  0  3  0  0  0  0  0  0
  159.7430  213.7110  148.8230 C   0  0  0  0  0  0  0  0  0  0  0  0
  157.5680  213.5190  149.8710 C   0  0  0  0  0  3  0  0  0  0  0  0
  1 21  1  6  0  0  0
  1  6  1  0  0  0  0
  3  6  1  6  0  0  0
  4 29  1  6  0  0  0
  4  3  1  0  0  0  0
  5  2  1  6  0  0  0
  5  4  1  0  0  0  0
  7  2  1  6  0  0  0
  7  5  1  0  0  0  0
  7  1  1  0  0  0  0
  8 19  1  0  0  0  0
  9  3  1  6  0  0  0
  9 11  1  0  0  0  0
  9 18  1  0  0  0  0
 10 12  1  1  0  0  0
 10 19  1  0  0  0  0
 11 13  1  1  0  0  0
 11 10  1  0  0  0  0
 13 17  1  0  0  0  0
 14 20  1  0  0  0  0
 16 12  1  0  0  0  0
 17 14  1  0  0  0  0
 18 15  1  1  0  0  0
 18 16  1  0  0  0  0
 20  8  1  0  0  0  0
 21 25  1  6  0  0  0
 21 22  1  0  0  0  0
 24 22  1  0  0  0  0
 24 23  1  0  0  0  0
 26 28  1  0  0  0  0
 26 27  1  0  0  0  0
 27 25  1  0  0  0  0
 28 27  1  0  0  0  0
 30 29  1  0  0  0  0
 31 32  1  0  0  0  0
 32 30  1  0  0  0  0
 33 32  2  0  0  0  0
 34 36  1  0  0  0  0
 35 36  2  0  0  0  0
 35 37  1  0  0  0  0
 36 33  1  0  0  0  0
 37 31  2  0  0  0  0
M  END
>  <MODEL>
4

>  <REMARK>
 VINA RESULT:      -3.7      1.947      3.050
  Name = 
  9 active torsions:
  status: ('A' for Active; 'I' for Inactive)
    1  A    between atoms: C_1  and  C_33
    2  A    between atoms: N_4  and  C_10
    3  A    between atoms: C_5  and  C_23
    4  A    between atoms: C_5  and  C_33
    5  A    between atoms: C_6  and  C_31
    6  A    between atoms: C_14  and  C_37
    7  A    between atoms: C_17  and  N_26
    8  A    between atoms: C_17  and  C_33
    9  A    between atoms: C_31  and  C_37
                            x       y       z     vdW  Elec       q    Type
                         _______ _______ _______ _____ _____    ______ ____

>  <TORSDO>
F 9

$$$$
=
 OpenBabel11062409113D

 37 42  0  0  1  0  0  0  0  0999 V2000
  161.5020  206.4410  150.8510 C   0  0  2  0  0  3  0  0  0  0  0  0
  163.1380  207.8880  149.1090 C   0  0  0  0  0  2  0  0  0  0  0  0
  160.7210  208.7190  151.8890 C   0  0  1  0  0  3  0  0  0  0  0  0
  161.8590  209.3650  151.0300 C   0  0  1  0  0  3  0  0  0  0  0  0
  161.9460  208.5020  149.7950 C   0  0  2  0  0  3  0  0  0  0  0  0
  160.8250  207.1700  152.0430 C   0  0  0  0  0  2  0  0  0  0  0  0
  162.6900  207.3150  150.4300 C   0  0  1  0  0  3  0  0  0  0  0  0
  161.2240  208.6230  157.2530 O   0  0  0  0  0  0  0  0  0  0  0  0
  160.4600  209.3610  153.1980 N   0  0  1  0  0  0  0  0  0  0  0  0
  161.6680  210.0260  155.3700 C   0  0  1  0  0  3  0  0  0  0  0  0
  161.5640  209.0750  154.1570 C   0  0  1  0  0  3  0  0  0  0  0  0
  161.4420  211.4550  154.9130 C   0  0  0  0  0  2  0  0  0  0  0  0
  161.7020  207.7040  154.4930 O   0  0  0  0  0  0  0  0  0  0  0  0
  160.4830  206.5850  156.2340 C   0  0  0  0  0  2  0  0  0  0  0  0
  159.0660  211.0870  152.1200 C   0  0  0  0  0  1  0  0  0  0  0  0
  160.1710  211.5420  154.2140 N   0  0  0  0  0  2  0  0  0  0  0  0
  160.4470  207.1670  154.8310 C   0  0  0  0  0  2  0  0  0  0  0  0
  160.3050  210.8120  152.9580 C   0  0  1  0  0  3  0  0  0  0  0  0
  160.7140  209.6910  156.5100 C   0  0  0  0  0  2  0  0  0  0  0  0
  160.2010  207.6720  157.2600 C   0  0  0  0  0  2  0  0  0  0  0  0
  160.5310  206.0230  149.7260 C   0  0  2  0  0  3  0  0  0  0  0  0
  160.0670  204.5830  149.9010 C   0  0  0  0  0  2  0  0  0  0  0  0
  161.0570  202.4150  150.5640 C   0  0  0  0  0  1  0  0  0  0  0  0
  160.9300  203.8790  150.9300 C   0  0  0  0  0  2  0  0  0  0  0  0
  161.2210  206.1550  148.3770 C   0  0  0  0  0  2  0  0  0  0  0  0
  161.2760  204.9710  146.3570 C   0  0  0  0  0  2  0  0  0  0  0  0
  161.4580  204.8390  147.8100 N   0  0  0  0  0  0  0  0  0  0  0  0
  162.6200  204.9740  146.9190 C   0  0  0  0  0  2  0  0  0  0  0  0
  161.4930  210.7840  150.6290 C   0  0  0  0  0  2  0  0  0  0  0  0
  162.0810  211.1130  149.2680 C   0  0  0  0  0  2  0  0  0  0  0  0
  160.9210  213.3270  149.3820 C   0  0  0  0  0  3  0  0  0  0  0  0
  161.2980  212.2070  148.6310 C   0  0  0  0  0  0  0  0  0  0  0  0
  160.9040  212.0990  147.2930 C   0  0  0  0  0  3  0  0  0  0  0  0
  159.7310  213.0000  145.2800 C   0  0  0  0  0  1  0  0  0  0  0  0
  159.7720  214.2340  147.4520 C   0  0  0  0  0  3  0  0  0  0  0  0
  160.1450  213.1140  146.7020 C   0  0  0  0  0  0  0  0  0  0  0  0
  160.1600  214.3400  148.7910 C   0  0  0  0  0  3  0  0  0  0  0  0
  1 21  1  6  0  0  0
  1  6  1  0  0  0  0
  3  6  1  1  0  0  0
  4 29  1  6  0  0  0
  4  3  1  0  0  0  0
  5  2  1  6  0  0  0
  5  7  1  0  0  0  0
  5  4  1  0  0  0  0
  7  2  1  6  0  0  0
  7  1  1  0  0  0  0
  8 20  1  0  0  0  0
  9  3  1  6  0  0  0
  9 11  1  0  0  0  0
 10 12  1  6  0  0  0
 10 19  1  0  0  0  0
 11 13  1  1  0  0  0
 11 10  1  0  0  0  0
 13 17  1  0  0  0  0
 14 20  1  0  0  0  0
 16 12  1  0  0  0  0
 17 14  1  0  0  0  0
 18 15  1  6  0  0  0
 18  9  1  0  0  0  0
 18 16  1  0  0  0  0
 19  8  1  0  0  0  0
 21 25  1  6  0  0  0
 21 22  1  0  0  0  0
 22 24  1  0  0  0  0
 23 24  1  0  0  0  0
 26 28  1  0  0  0  0
 26 27  1  0  0  0  0
 27 25  1  0  0  0  0
 28 27  1  0  0  0  0
 30 29  1  0  0  0  0
 32 30  1  0  0  0  0
 32 31  2  0  0  0  0
 33 32  1  0  0  0  0
 34 36  1  0  0  0  0
 35 37  2  0  0  0  0
 36 33  2  0  0  0  0
 36 35  1  0  0  0  0
 37 31  1  0  0  0  0
M  END
>  <MODEL>
5

>  <REMARK>
 VINA RESULT:      -3.7      2.447      3.605
  Name = 
  9 active torsions:
  status: ('A' for Active; 'I' for Inactive)
    1  A    between atoms: C_1  and  C_33
    2  A    between atoms: N_4  and  C_10
    3  A    between atoms: C_5  and  C_23
    4  A    between atoms: C_5  and  C_33
    5  A    between atoms: C_6  and  C_31
    6  A    between atoms: C_14  and  C_37
    7  A    between atoms: C_17  and  N_26
    8  A    between atoms: C_17  and  C_33
    9  A    between atoms: C_31  and  C_37
                            x       y       z     vdW  Elec       q    Type
                         _______ _______ _______ _____ _____    ______ ____

>  <TORSDO>
F 9

$$$$
=
 OpenBabel11062409113D

 37 42  0  0  1  0  0  0  0  0999 V2000
  162.1390  206.9760  150.6960 C   0  0  2  0  0  3  0  0  0  0  0  0
  161.8080  209.4510  149.4440 C   0  0  0  0  0  2  0  0  0  0  0  0
  161.0090  207.9920  152.8330 C   0  0  1  0  0  3  0  0  0  0  0  0
  161.1210  209.3670  152.0950 C   0  0  1  0  0  3  0  0  0  0  0  0
  160.9830  209.0290  150.6300 C   0  0  2  0  0  3  0  0  0  0  0  0
  161.8860  206.8540  152.2240 C   0  0  0  0  0  2  0  0  0  0  0  0
  162.3960  208.4620  150.4190 C   0  0  1  0  0  3  0  0  0  0  0  0
  162.1610  210.8380  157.2610 O   0  0  0  0  0  0  0  0  0  0  0  0
  161.1590  208.0390  154.3060 N   0  0  1  0  0  0  0  0  0  0  0  0
  160.4510  209.4460  156.3400 C   0  0  1  0  0  3  0  0  0  0  0  0
  160.7870  209.3820  154.8340 C   0  0  1  0  0  3  0  0  0  0  0  0
  159.6060  208.2460  156.7220 C   0  0  0  0  0  2  0  0  0  0  0  0
  161.6270  210.4350  154.3900 O   0  0  0  0  0  0  0  0  0  0  0  0
  163.6920  211.0780  155.4340 C   0  0  0  0  0  2  0  0  0  0  0  0
  160.8210  205.6000  154.4600 C   0  0  0  0  0  1  0  0  0  0  0  0
  160.2960  207.0280  156.3310 N   0  0  0  0  0  2  0  0  0  0  0  0
  162.9750  210.0700  154.5530 C   0  0  0  0  0  2  0  0  0  0  0  0
  160.3080  206.9720  154.8740 C   0  0  1  0  0  3  0  0  0  0  0  0
  161.6710  209.5300  157.2490 C   0  0  0  0  0  2  0  0  0  0  0  0
  163.5060  210.7200  156.9010 C   0  0  0  0  0  2  0  0  0  0  0  0
  161.0690  206.2930  149.8180 C   0  0  2  0  0  3  0  0  0  0  0  0
  160.3540  205.1840  150.5790 C   0  0  0  0  0  2  0  0  0  0  0  0
  161.2850  203.0070  151.2930 C   0  0  0  0  0  1  0  0  0  0  0  0
  160.8390  203.8290  150.1030 C   0  0  0  0  0  2  0  0  0  0  0  0
  161.7240  205.6960  148.5820 C   0  0  0  0  0  2  0  0  0  0  0  0
  162.3200  206.0530  146.3450 C   0  0  0  0  0  2  0  0  0  0  0  0
  161.4270  206.5130  147.4180 N   0  0  0  0  0  0  0  0  0  0  0  0
  160.9380  205.5950  146.3800 C   0  0  0  0  0  2  0  0  0  0  0  0
  159.9900  210.2940  152.5070 C   0  0  0  0  0  2  0  0  0  0  0  0
  160.2410  211.6960  151.9790 C   0  0  0  0  0  2  0  0  0  0  0  0
  158.4830  213.2990  151.2070 C   0  0  0  0  0  3  0  0  0  0  0  0
  159.0550  212.5550  152.2450 C   0  0  0  0  0  0  0  0  0  0  0  0
  158.5350  212.6500  153.5410 C   0  0  0  0  0  3  0  0  0  0  0  0
  156.8850  213.5750  155.1710 C   0  0  0  0  0  1  0  0  0  0  0  0
  156.8640  214.2180  152.7570 C   0  0  0  0  0  3  0  0  0  0  0  0
  157.4380  213.4780  153.7960 C   0  0  0  0  0  0  0  0  0  0  0  0
  157.3860  214.1270  151.4630 C   0  0  0  0  0  3  0  0  0  0  0  0
  1 21  1  6  0  0  0
  1  6  1  0  0  0  0
  3  6  1  6  0  0  0
  4 29  1  1  0  0  0
  4  3  1  0  0  0  0
  5  2  1  6  0  0  0
  5  4  1  0  0  0  0
  7  2  1  6  0  0  0
  7  5  1  0  0  0  0
  7  1  1  0  0  0  0
  9  3  1  6  0  0  0
  9 11  1  0  0  0  0
  9 18  1  0  0  0  0
 10 12  1  1  0  0  0
 10 19  1  0  0  0  0
 11 13  1  1  0  0  0
 11 10  1  0  0  0  0
 13 17  1  0  0  0  0
 14 20  1  0  0  0  0
 16 12  1  0  0  0  0
 17 14  1  0  0  0  0
 18 15  1  1  0  0  0
 18 16  1  0  0  0  0
 19  8  1  0  0  0  0
 20  8  1  0  0  0  0
 21 25  1  6  0  0  0
 21 22  1  0  0  0  0
 24 22  1  0  0  0  0
 24 23  1  0  0  0  0
 26 28  1  0  0  0  0
 26 27  1  0  0  0  0
 27 25  1  0  0  0  0
 28 27  1  0  0  0  0
 30 32  1  0  0  0  0
 30 29  1  0  0  0  0
 31 37  2  0  0  0  0
 31 32  1  0  0  0  0
 32 33  2  0  0  0  0
 33 36  1  0  0  0  0
 35 36  2  0  0  0  0
 36 34  1  0  0  0  0
 37 35  1  0  0  0  0
M  END
>  <MODEL>
6

>  <REMARK>
 VINA RESULT:      -3.7      2.004      3.302
  Name = 
  9 active torsions:
  status: ('A' for Active; 'I' for Inactive)
    1  A    between atoms: C_1  and  C_33
    2  A    between atoms: N_4  and  C_10
    3  A    between atoms: C_5  and  C_23
    4  A    between atoms: C_5  and  C_33
    5  A    between atoms: C_6  and  C_31
    6  A    between atoms: C_14  and  C_37
    7  A    between atoms: C_17  and  N_26
    8  A    between atoms: C_17  and  C_33
    9  A    between atoms: C_31  and  C_37
                            x       y       z     vdW  Elec       q    Type
                         _______ _______ _______ _____ _____    ______ ____

>  <TORSDO>
F 9

$$$$
