=
 OpenBabel11052422253D

 31 35  0  0  1  0  0  0  0  0999 V2000
  162.4060  209.8900  149.7440 C   0  0  1  0  0  3  0  0  0  0  0  0
  160.7640  207.8960  151.6440 C   0  0  1  0  0  3  0  0  0  0  0  0
  160.9090  208.8930  152.8190 C   0  0  1  0  0  3  0  0  0  0  0  0
  160.8910  205.4280  149.7360 C   0  0  1  0  0  3  0  0  0  0  0  0
  159.5600  210.7180  154.0320 C   0  0  0  0  0  2  0  0  0  0  0  0
  162.0220  207.8430  150.7230 C   0  0  2  0  0  0  0  0  0  0  0  0
  161.4340  209.0730  148.9010 C   0  0  0  0  0  2  0  0  0  0  0  0
  159.8700  210.0170  152.7040 C   0  0  0  0  0  2  0  0  0  0  0  0
  161.4970  205.6240  151.1670 C   0  0  1  0  0  0  0  0  0  0  0  0
  161.7610  211.0180  150.2500 O   0  0  0  0  0  1  0  0  0  0  0  0
  161.5100  206.8850  154.2510 C   0  0  0  0  0  2  0  0  0  0  0  0
  160.7580  211.4390  154.6600 C   0  0  0  0  0  2  0  0  0  0  0  0
  162.7040  206.5600  151.1240 C   0  0  0  0  0  2  0  0  0  0  0  0
  160.4740  206.4120  151.9980 C   0  0  1  0  0  3  0  0  0  0  0  0
  161.8260  204.4000  151.7560 O   0  0  0  0  0  1  0  0  0  0  0  0
  162.8540  209.0340  150.8480 N   0  0  0  0  0  2  0  0  0  0  0  0
  162.0580  210.6280  154.7020 C   0  0  0  0  0  2  0  0  0  0  0  0
  160.5830  206.7890  149.0600 C   0  0  0  0  0  2  0  0  0  0  0  0
  161.6960  207.7120  149.3010 N   0  0  2  0  0  0  0  0  0  0  0  0
  160.4960  206.0580  153.4920 C   0  0  0  0  0  2  0  0  0  0  0  0
  161.0180  208.3140  154.2450 C   0  0  1  0  0  3  0  0  0  0  0  0
  161.8840  209.1780  155.1730 C   0  0  0  0  0  2  0  0  0  0  0  0
  161.6590  204.5090  148.7690 C   0  0  1  0  0  3  0  0  0  0  0  0
  161.2390  202.4910  147.5410 O   0  0  0  0  0  1  0  0  0  0  0  0
  160.1690  202.7620  149.5340 O   0  0  0  0  0  1  0  0  0  0  0  0
  161.3500  203.0090  148.8320 C   0  0  0  0  0  3  0  0  0  0  0  0
  161.8600  205.0840  147.3930 C   0  0  0  0  0  0  0  0  0  0  0  0
  163.0990  205.3200  146.9700 C   0  0  0  0  0  2  0  0  0  0  0  0
  160.7040  205.5330  146.5570 C   0  0  0  0  0  2  0  0  0  0  0  0
  161.1290  205.7840  145.2510 O   0  0  0  0  0  0  0  0  0  0  0  0
  160.6940  204.6770  144.5250 C   0  0  0  0  0  1  0  0  0  0  0  0
  1 10  1  1  0  0  0
  1 16  1  0  0  0  0
  2 14  1  0  0  0  0
  2  3  1  0  0  0  0
  3 21  1  0  0  0  0
  4  9  1  0  0  0  0
  5 12  1  0  0  0  0
  6 16  1  0  0  0  0
  6 13  1  0  0  0  0
  6  2  1  0  0  0  0
  7 19  1  0  0  0  0
  7  1  1  0  0  0  0
  8  3  1  0  0  0  0
  8  5  1  0  0  0  0
  9 15  1  0  0  0  0
  9 14  1  0  0  0  0
 12 17  1  0  0  0  0
 13  9  1  0  0  0  0
 14 20  1  0  0  0  0
 17 22  1  0  0  0  0
 18 19  1  0  0  0  0
 18  4  1  0  0  0  0
 19  6  1  0  0  0  0
 20 11  1  0  0  0  0
 21 11  1  0  0  0  0
 21 22  1  0  0  0  0
 23 26  1  0  0  0  0
 23  4  1  0  0  0  0
 24 26  1  0  0  0  0
 26 25  1  0  0  0  0
 27 23  1  0  0  0  0
 28 27  2  0  0  0  0
 29 27  1  0  0  0  0
 30 29  1  0  0  0  0
 31 30  1  0  0  0  0
M  END
>  <MODEL>
1

>  <REMARK>
 VINA RESULT:      -6.9      0.000      0.000
  Name = 
  5 active torsions:
  status: ('A' for Active; 'I' for Inactive)
    1  A    between atoms: O_1  and  C_8
    2  A    between atoms: C_7  and  C_22
    3  A    between atoms: C_8  and  C_19
    4  A    between atoms: C_9  and  C_22
    5  A    between atoms: C_19  and  C_22
                            x       y       z     vdW  Elec       q    Type
                         _______ _______ _______ _____ _____    ______ ____

>  <TORSDO>
F 5

$$$$
=
 OpenBabel11052422253D

 31 35  0  0  1  0  0  0  0  0999 V2000
  162.4010  209.1480  149.8090 C   0  0  1  0  0  3  0  0  0  0  0  0
  160.6850  207.5950  152.0290 C   0  0  1  0  0  3  0  0  0  0  0  0
  160.8720  208.7800  153.0050 C   0  0  1  0  0  3  0  0  0  0  0  0
  160.7090  204.8210  150.5960 C   0  0  1  0  0  3  0  0  0  0  0  0
  159.6000  210.8460  153.8640 C   0  0  0  0  0  2  0  0  0  0  0  0
  161.9370  207.3270  151.1380 C   0  0  2  0  0  0  0  0  0  0  0  0
  161.3950  208.2320  149.1220 C   0  0  0  0  0  2  0  0  0  0  0  0
  159.8790  209.9060  152.6850 C   0  0  0  0  0  2  0  0  0  0  0  0
  161.3240  205.2470  151.9710 C   0  0  1  0  0  0  0  0  0  0  0  0
  161.8030  210.3730  150.1010 O   0  0  0  0  0  1  0  0  0  0  0  0
  161.3950  207.0410  154.7780 C   0  0  0  0  0  2  0  0  0  0  0  0
  160.8270  211.6200  154.3580 C   0  0  0  0  0  2  0  0  0  0  0  0
  162.5690  206.1110  151.7670 C   0  0  0  0  0  2  0  0  0  0  0  0
  160.3360  206.2120  152.6420 C   0  0  1  0  0  3  0  0  0  0  0  0
  161.6050  204.1370  152.7720 O   0  0  0  0  0  1  0  0  0  0  0  0
  162.8170  208.4870  151.0510 N   0  0  0  0  0  2  0  0  0  0  0  0
  162.0940  210.7780  154.5520 C   0  0  0  0  0  2  0  0  0  0  0  0
  160.4540  206.0490  149.6850 C   0  0  0  0  0  2  0  0  0  0  0  0
  161.6040  206.9550  149.7620 N   0  0  2  0  0  0  0  0  0  0  0  0
  160.3470  206.1310  154.1750 C   0  0  0  0  0  2  0  0  0  0  0  0
  160.9610  208.4630  154.5130 C   0  0  1  0  0  3  0  0  0  0  0  0
  161.8630  209.4450  155.2750 C   0  0  0  0  0  2  0  0  0  0  0  0
  161.4370  203.7130  149.8140 C   0  0  1  0  0  3  0  0  0  0  0  0
  159.9740  202.0700  150.7730 O   0  0  0  0  0  1  0  0  0  0  0  0
  162.1770  201.9970  151.3530 O   0  0  0  0  0  1  0  0  0  0  0  0
  161.2780  202.2750  150.3210 C   0  0  0  0  0  3  0  0  0  0  0  0
  161.4160  203.8910  148.3200 C   0  0  0  0  0  0  0  0  0  0  0  0
  160.6930  203.0510  147.5840 C   0  0  0  0  0  2  0  0  0  0  0  0
  162.2990  204.8870  147.6380 C   0  0  0  0  0  2  0  0  0  0  0  0
  162.4990  204.5160  146.3080 O   0  0  0  0  0  0  0  0  0  0  0  0
  162.4090  205.7100  145.5960 C   0  0  0  0  0  1  0  0  0  0  0  0
  1 10  1  1  0  0  0
  1 16  1  0  0  0  0
  2 14  1  0  0  0  0
  2  3  1  0  0  0  0
  3 21  1  0  0  0  0
  4  9  1  0  0  0  0
  5 12  1  0  0  0  0
  6 13  1  0  0  0  0
  6  2  1  0  0  0  0
  7 19  1  0  0  0  0
  7  1  1  0  0  0  0
  8  3  1  0  0  0  0
  8  5  1  0  0  0  0
  9 14  1  0  0  0  0
  9 15  1  0  0  0  0
 12 17  1  0  0  0  0
 13  9  1  0  0  0  0
 14 20  1  0  0  0  0
 16  6  1  0  0  0  0
 17 22  1  0  0  0  0
 18 19  1  0  0  0  0
 18  4  1  0  0  0  0
 19  6  1  0  0  0  0
 20 11  1  0  0  0  0
 21 11  1  0  0  0  0
 21 22  1  0  0  0  0
 23 26  1  0  0  0  0
 23  4  1  0  0  0  0
 26 24  1  0  0  0  0
 26 25  1  0  0  0  0
 27 23  1  0  0  0  0
 28 27  2  0  0  0  0
 29 27  1  0  0  0  0
 30 29  1  0  0  0  0
 31 30  1  0  0  0  0
M  END
>  <MODEL>
2

>  <REMARK>
 VINA RESULT:      -5.4      1.071      1.419
  Name = 
  5 active torsions:
  status: ('A' for Active; 'I' for Inactive)
    1  A    between atoms: O_1  and  C_8
    2  A    between atoms: C_7  and  C_22
    3  A    between atoms: C_8  and  C_19
    4  A    between atoms: C_9  and  C_22
    5  A    between atoms: C_19  and  C_22
                            x       y       z     vdW  Elec       q    Type
                         _______ _______ _______ _____ _____    ______ ____

>  <TORSDO>
F 5

$$$$
=
 OpenBabel11052422253D

 31 35  0  0  1  0  0  0  0  0999 V2000
  161.9070  203.9980  151.9020 C   0  0  1  0  0  3  0  0  0  0  0  0
  161.1340  206.6350  150.2500 C   0  0  1  0  0  3  0  0  0  0  0  0
  161.5010  205.9180  148.9290 C   0  0  1  0  0  3  0  0  0  0  0  0
  160.9780  208.5450  152.7150 C   0  0  1  0  0  3  0  0  0  0  0  0
  160.3670  204.6940  146.9710 C   0  0  0  0  0  2  0  0  0  0  0  0
  162.0640  206.2470  151.4410 C   0  0  2  0  0  0  0  0  0  0  0  0
  160.8310  204.7690  152.6560 C   0  0  0  0  0  2  0  0  0  0  0  0
  160.3530  205.0080  148.4710 C   0  0  0  0  0  2  0  0  0  0  0  0
  161.9490  208.5670  151.4870 C   0  0  1  0  0  0  0  0  0  0  0  0
  161.3140  203.1510  150.9660 O   0  0  0  0  0  1  0  0  0  0  0  0
  162.7210  208.0500  148.2880 C   0  0  0  0  0  2  0  0  0  0  0  0
  161.6060  203.9230  146.4990 C   0  0  0  0  0  2  0  0  0  0  0  0
  162.9760  207.4390  151.5850 C   0  0  0  0  0  2  0  0  0  0  0  0
  161.1320  208.1880  150.2440 C   0  0  1  0  0  3  0  0  0  0  0  0
  162.5740  209.8090  151.3510 O   0  0  0  0  0  1  0  0  0  0  0  0
  162.7540  204.9820  151.2180 N   0  0  0  0  0  2  0  0  0  0  0  0
  162.9460  204.4690  147.0080 C   0  0  0  0  0  2  0  0  0  0  0  0
  160.3320  207.1480  152.9010 C   0  0  0  0  0  2  0  0  0  0  0  0
  161.3530  206.1140  152.7140 N   0  0  2  0  0  0  0  0  0  0  0  0
  161.6310  208.8580  148.9560 C   0  0  0  0  0  2  0  0  0  0  0  0
  162.0880  206.7720  147.7860 C   0  0  1  0  0  3  0  0  0  0  0  0
  163.0840  205.9940  146.9130 C   0  0  0  0  0  2  0  0  0  0  0  0
  161.5290  209.0650  154.0550 C   0  0  1  0  0  3  0  0  0  0  0  0
  162.5430  210.8070  155.3570 O   0  0  0  0  0  1  0  0  0  0  0  0
  161.0200  211.4150  153.7750 O   0  0  0  0  0  1  0  0  0  0  0  0
  162.0360  210.5120  154.0910 C   0  0  0  0  0  3  0  0  0  0  0  0
  160.7590  208.6060  155.2630 C   0  0  0  0  0  0  0  0  0  0  0  0
  161.2000  207.5500  155.9420 C   0  0  0  0  0  2  0  0  0  0  0  0
  159.4410  209.2110  155.6280 C   0  0  0  0  0  2  0  0  0  0  0  0
  159.5840  210.0300  156.7490 O   0  0  0  0  0  0  0  0  0  0  0  0
  158.7950  211.1440  156.4700 C   0  0  0  0  0  1  0  0  0  0  0  0
  1 10  1  6  0  0  0
  1  7  1  0  0  0  0
  2  6  1  0  0  0  0
  3  2  1  0  0  0  0
  4 18  1  0  0  0  0
  4 23  1  0  0  0  0
  5  8  1  0  0  0  0
  6 13  1  0  0  0  0
  6 19  1  0  0  0  0
  7 19  1  0  0  0  0
  8  3  1  0  0  0  0
  9 13  1  0  0  0  0
  9  4  1  0  0  0  0
 11 20  1  0  0  0  0
 12  5  1  0  0  0  0
 12 17  1  0  0  0  0
 14  2  1  0  0  0  0
 14  9  1  0  0  0  0
 15  9  1  0  0  0  0
 16  6  1  0  0  0  0
 16  1  1  0  0  0  0
 19 18  1  0  0  0  0
 20 14  1  0  0  0  0
 21 11  1  0  0  0  0
 21  3  1  0  0  0  0
 22 17  1  0  0  0  0
 22 21  1  0  0  0  0
 23 26  1  0  0  0  0
 23 27  1  0  0  0  0
 25 26  1  0  0  0  0
 26 24  1  0  0  0  0
 27 29  1  0  0  0  0
 27 28  2  0  0  0  0
 29 30  1  0  0  0  0
 31 30  1  0  0  0  0
M  END
>  <MODEL>
3

>  <REMARK>
 VINA RESULT:      -4.2      2.303      7.585
  Name = 
  5 active torsions:
  status: ('A' for Active; 'I' for Inactive)
    1  A    between atoms: O_1  and  C_8
    2  A    between atoms: C_7  and  C_22
    3  A    between atoms: C_8  and  C_19
    4  A    between atoms: C_9  and  C_22
    5  A    between atoms: C_19  and  C_22
                            x       y       z     vdW  Elec       q    Type
                         _______ _______ _______ _____ _____    ______ ____

>  <TORSDO>
F 5

$$$$
=
 OpenBabel11052422253D

 31 35  0  0  1  0  0  0  0  0999 V2000
  161.6910  204.7940  152.8970 C   0  0  1  0  0  3  0  0  0  0  0  0
  160.7510  205.4430  149.9010 C   0  0  1  0  0  3  0  0  0  0  0  0
  160.8290  203.9390  149.5490 C   0  0  1  0  0  3  0  0  0  0  0  0
  161.1540  208.5340  150.0820 C   0  0  1  0  0  3  0  0  0  0  0  0
  159.2890  201.8930  149.2940 C   0  0  0  0  0  2  0  0  0  0  0  0
  161.8680  205.9030  150.8890 C   0  0  2  0  0  0  0  0  0  0  0  0
  160.8140  206.0400  152.9010 C   0  0  0  0  0  2  0  0  0  0  0  0
  159.5720  203.2050  150.0360 C   0  0  0  0  0  2  0  0  0  0  0  0
  161.8770  207.4780  149.1820 C   0  0  1  0  0  0  0  0  0  0  0  0
  160.8920  203.6540  152.9770 O   0  0  0  0  0  1  0  0  0  0  0  0
  162.0080  204.6540  147.4180 C   0  0  0  0  0  2  0  0  0  0  0  0
  160.3780  200.8270  149.4590 C   0  0  0  0  0  2  0  0  0  0  0  0
  162.8480  206.6320  150.0050 C   0  0  0  0  0  2  0  0  0  0  0  0
  160.8230  206.4570  148.7280 C   0  0  1  0  0  3  0  0  0  0  0  0
  162.5250  208.0840  148.1020 O   0  0  0  0  0  1  0  0  0  0  0  0
  162.4410  204.7900  151.6370 N   0  0  0  0  0  2  0  0  0  0  0  0
  161.8140  201.3260  149.2630 C   0  0  0  0  0  2  0  0  0  0  0  0
  160.4860  207.8670  151.3130 C   0  0  0  0  0  2  0  0  0  0  0  0
  161.4030  206.8740  151.8810 N   0  0  2  0  0  0  0  0  0  0  0  0
  161.1040  205.8640  147.3400 C   0  0  0  0  0  2  0  0  0  0  0  0
  161.2310  203.5570  148.1090 C   0  0  1  0  0  3  0  0  0  0  0  0
  162.0060  202.2330  148.0390 C   0  0  0  0  0  2  0  0  0  0  0  0
  161.9710  209.7650  150.5160 C   0  0  1  0  0  3  0  0  0  0  0  0
  161.5880  212.0660  149.9560 O   0  0  0  0  0  1  0  0  0  0  0  0
  161.5780  210.5460  148.2580 O   0  0  0  0  0  1  0  0  0  0  0  0
  162.1560  210.8830  149.4840 C   0  0  0  0  0  3  0  0  0  0  0  0
  161.7220  210.2090  151.9310 C   0  0  0  0  0  0  0  0  0  0  0  0
  162.7060  210.1030  152.8200 C   0  0  0  0  0  2  0  0  0  0  0  0
  160.3610  210.6220  152.3940 C   0  0  0  0  0  2  0  0  0  0  0  0
  160.4510  211.7770  153.1720 O   0  0  0  0  0  0  0  0  0  0  0  0
  159.4970  212.6360  152.6300 C   0  0  0  0  0  1  0  0  0  0  0  0
  1  7  1  0  0  0  0
  1 10  1  6  0  0  0
  2  6  1  0  0  0  0
  3  2  1  0  0  0  0
  3  8  1  0  0  0  0
  4 23  1  0  0  0  0
  4 18  1  0  0  0  0
  5 12  1  0  0  0  0
  5  8  1  0  0  0  0
  6 16  1  0  0  0  0
  6 19  1  0  0  0  0
  9 13  1  0  0  0  0
  9  4  1  0  0  0  0
 11 21  1  0  0  0  0
 13  6  1  0  0  0  0
 14  9  1  0  0  0  0
 14  2  1  0  0  0  0
 15  9  1  0  0  0  0
 16  1  1  0  0  0  0
 17 12  1  0  0  0  0
 18 19  1  0  0  0  0
 19  7  1  0  0  0  0
 20 11  1  0  0  0  0
 20 14  1  0  0  0  0
 21  3  1  0  0  0  0
 22 21  1  0  0  0  0
 22 17  1  0  0  0  0
 23 27  1  0  0  0  0
 25 26  1  0  0  0  0
 26 24  1  0  0  0  0
 26 23  1  0  0  0  0
 27 29  1  0  0  0  0
 27 28  2  0  0  0  0
 29 30  1  0  0  0  0
 31 30  1  0  0  0  0
M  END
>  <MODEL>
4

>  <REMARK>
 VINA RESULT:      -4.0      2.095      7.119
  Name = 
  5 active torsions:
  status: ('A' for Active; 'I' for Inactive)
    1  A    between atoms: O_1  and  C_8
    2  A    between atoms: C_7  and  C_22
    3  A    between atoms: C_8  and  C_19
    4  A    between atoms: C_9  and  C_22
    5  A    between atoms: C_19  and  C_22
                            x       y       z     vdW  Elec       q    Type
                         _______ _______ _______ _____ _____    ______ ____

>  <TORSDO>
F 5

$$$$
