=
 OpenBabel11062410263D

 43 47  0  0  1  0  0  0  0  0999 V2000
  161.3750  204.4590  147.6510 C   0  0  0  0  0  0  0  0  0  0  0  0
  161.4950  208.3080  150.9460 C   0  0  0  0  0  0  0  0  0  0  0  0
  161.8950  209.4030  148.8080 C   0  0  0  0  0  3  0  0  0  0  0  0
  161.3110  205.8120  149.6600 C   0  0  0  0  0  0  0  0  0  0  0  0
  161.6200  205.6010  146.8850 C   0  0  0  0  0  3  0  0  0  0  0  0
  161.2820  203.1870  147.0220 N   0  0  0  0  0  1  0  0  0  0  0  0
  161.5590  206.9760  148.8920 C   0  0  0  0  0  0  0  0  0  0  0  0
  161.2210  204.5640  149.0350 C   0  0  0  0  0  3  0  0  0  0  0  0
  161.7110  206.8530  147.5000 C   0  0  0  0  0  3  0  0  0  0  0  0
  161.9820  210.6370  149.4530 C   0  0  0  0  0  0  0  0  0  0  0  0
  161.6500  208.2290  149.5370 C   0  0  0  0  0  0  0  0  0  0  0  0
  161.2480  207.1390  151.6800 C   0  0  0  0  0  3  0  0  0  0  0  0
  161.5970  209.5500  151.6020 C   0  0  0  0  0  0  0  0  0  0  0  0
  161.8350  210.7030  150.8430 C   0  0  0  0  0  3  0  0  0  0  0  0
  161.1560  205.9020  151.0420 C   0  0  0  0  0  3  0  0  0  0  0  0
  162.2770  211.8630  148.6520 C   0  0  1  0  0  3  0  0  0  0  0  0
  163.6140  211.7420  147.9420 C   0  0  0  0  0  1  0  0  0  0  0  0
  161.2130  212.0830  147.6750 N   0  0  0  0  0  2  0  0  0  0  0  0
  161.8380  214.2880  147.2080 O   0  0  0  0  0  1  0  0  0  0  0  0
  160.7900  213.4890  147.6760 C   0  0  0  0  0  0  0  0  0  0  0  0
  160.4560  213.8790  148.9770 O   0  0  0  0  0  1  0  0  0  0  0  0
  159.6140  213.6760  146.8040 N   0  0  0  0  0  0  0  0  0  0  0  0
  160.8720  212.7890  144.8430 N   0  0  0  0  0  2  0  0  0  0  0  0
  159.6980  213.4110  145.3900 C   0  0  0  0  0  0  0  0  0  0  0  0
  158.7280  213.7040  144.6380 O   0  0  0  0  0  0  0  0  0  0  0  0
  161.1610  212.5770  143.4540 C   0  0  0  0  0  0  0  0  0  0  0  0
  160.6450  211.4160  141.3860 C   0  0  0  0  0  3  0  0  0  0  0  0
  162.5060  212.9610  141.4670 C   0  0  0  0  0  3  0  0  0  0  0  0
  161.7110  212.0620  140.7520 C   0  0  0  0  0  3  0  0  0  0  0  0
  162.2330  213.2170  142.8150 C   0  0  0  0  0  3  0  0  0  0  0  0
  160.3760  211.6700  142.7340 C   0  0  0  0  0  3  0  0  0  0  0  0
  158.3420  214.1570  147.3490 C   0  0  0  0  0  2  0  0  0  0  0  0
  157.0180  213.0830  149.1720 C   0  0  0  0  0  1  0  0  0  0  0  0
  157.4380  212.9900  147.7190 C   0  0  0  0  0  2  0  0  0  0  0  0
  161.4150  209.6260  153.0270 N   0  0  0  0  0  2  0  0  0  0  0  0
  159.2340  211.1140  155.8600 C   0  0  0  0  0  2  0  0  0  0  0  0
  157.9430  211.1140  155.0530 C   0  0  2  0  0  3  0  0  0  0  0  0
  159.3980  210.8760  153.0200 C   0  0  0  0  0  3  0  0  0  0  0  0
  160.2160  210.1240  155.2420 C   0  0  0  0  0  2  0  0  0  0  0  0
  160.3540  210.2770  153.7400 C   0  0  0  0  0  0  0  0  0  0  0  0
  158.2370  211.6070  153.6360 C   0  0  0  0  0  2  0  0  0  0  0  0
  155.7280  211.8850  155.4140 O   0  0  0  0  0  0  0  0  0  0  0  0
  156.9110  211.9800  155.7070 C   0  0  0  0  0  3  0  0  0  0  0  0
  1  8  1  0  0  0  0
  2 13  1  0  0  0  0
  2 12  1  0  0  0  0
  3 10  2  0  0  0  0
  3 11  1  0  0  0  0
  4 15  1  0  0  0  0
  5  9  1  0  0  0  0
  5  1  2  0  0  0  0
  6  1  1  0  0  0  0
  7 11  1  0  0  0  0
  7  4  1  0  0  0  0
  8  4  2  0  0  0  0
  9  7  2  0  0  0  0
 10 14  1  0  0  0  0
 11  2  2  0  0  0  0
 13 35  1  0  0  0  0
 14 13  2  0  0  0  0
 15 12  2  0  0  0  0
 16 17  1  6  0  0  0
 16 10  1  0  0  0  0
 18 20  1  0  0  0  0
 18 16  1  0  0  0  0
 19 20  1  0  0  0  0
 20 21  1  0  0  0  0
 22 32  1  0  0  0  0
 22 20  1  0  0  0  0
 23 24  1  0  0  0  0
 24 22  1  0  0  0  0
 25 24  2  0  0  0  0
 26 23  1  0  0  0  0
 27 31  1  0  0  0  0
 28 30  2  0  0  0  0
 29 27  2  0  0  0  0
 29 28  1  0  0  0  0
 30 26  1  0  0  0  0
 31 26  2  0  0  0  0
 32 34  1  0  0  0  0
 34 33  1  0  0  0  0
 35 40  1  0  0  0  0
 37 43  1  1  0  0  0
 37 36  1  0  0  0  0
 38 41  1  0  0  0  0
 38 40  2  0  0  0  0
 39 36  1  0  0  0  0
 40 39  1  0  0  0  0
 41 37  1  0  0  0  0
 42 43  2  0  0  0  0
M  END
>  <MODEL>
1

>  <REMARK>
 VINA RESULT:      -8.7      0.000      0.000
  Name = 
  10 active torsions:
  status: ('A' for Active; 'I' for Inactive)
    1  A    between atoms: N_1  and  C_34
    2  A    between atoms: N_1  and  C_35
    3  A    between atoms: C_2  and  N_6
    4  A    between atoms: C_2  and  C_27
    5  A    between atoms: N_4  and  C_12
    6  A    between atoms: N_4  and  C_15
    7  A    between atoms: N_6  and  C_12
    8  A    between atoms: C_11  and  N_14
    9  A    between atoms: C_15  and  C_42
   10  A    between atoms: C_19  and  C_37
                            x       y       z     vdW  Elec       q    Type
                         _______ _______ _______ _____ _____    ______ ____

>  <TORSDO>
F 10

$$$$
=
 OpenBabel11062410263D

 43 47  0  0  1  0  0  0  0  0999 V2000
  161.2080  203.3860  147.9630 C   0  0  0  0  0  0  0  0  0  0  0  0
  161.8930  208.0590  149.8000 C   0  0  0  0  0  0  0  0  0  0  0  0
  161.0190  206.8390  151.7170 C   0  0  0  0  0  3  0  0  0  0  0  0
  161.7500  205.7330  148.2240 C   0  0  0  0  0  0  0  0  0  0  0  0
  160.8030  203.3270  149.2990 C   0  0  0  0  0  3  0  0  0  0  0  0
  161.1410  202.2230  147.1470 N   0  0  0  0  0  1  0  0  0  0  0  0
  161.3420  205.6830  149.5790 C   0  0  0  0  0  0  0  0  0  0  0  0
  161.6810  204.5860  147.4270 C   0  0  0  0  0  3  0  0  0  0  0  0
  160.8690  204.4680  150.1030 C   0  0  0  0  0  3  0  0  0  0  0  0
  161.0950  207.9960  152.4920 C   0  0  0  0  0  0  0  0  0  0  0  0
  161.4150  206.8500  150.3700 C   0  0  0  0  0  0  0  0  0  0  0  0
  162.2940  208.0760  148.4560 C   0  0  0  0  0  3  0  0  0  0  0  0
  161.9580  209.2320  150.5760 C   0  0  0  0  0  0  0  0  0  0  0  0
  161.5620  209.1830  151.9190 C   0  0  0  0  0  3  0  0  0  0  0  0
  162.2230  206.9230  147.6750 C   0  0  0  0  0  3  0  0  0  0  0  0
  160.6340  207.9570  153.9130 C   0  0  1  0  0  3  0  0  0  0  0  0
  160.9120  206.6020  154.5390 C   0  0  0  0  0  1  0  0  0  0  0  0
  161.3020  209.0060  154.6790 N   0  0  0  0  0  2  0  0  0  0  0  0
  160.9830  208.5300  156.9460 O   0  0  0  0  0  1  0  0  0  0  0  0
  160.5380  209.3320  155.8900 C   0  0  0  0  0  0  0  0  0  0  0  0
  159.1780  209.0900  155.6670 O   0  0  0  0  0  1  0  0  0  0  0  0
  160.7190  210.7510  156.2500 N   0  0  0  0  0  0  0  0  0  0  0  0
  158.8670  211.4220  154.7230 N   0  0  0  0  0  2  0  0  0  0  0  0
  159.9470  211.7790  155.5990 C   0  0  0  0  0  0  0  0  0  0  0  0
  160.2090  212.9940  155.8200 O   0  0  0  0  0  0  0  0  0  0  0  0
  158.0940  212.3140  153.9080 C   0  0  0  0  0  0  0  0  0  0  0  0
  157.9190  213.6370  151.8800 C   0  0  0  0  0  3  0  0  0  0  0  0
  156.1320  213.6910  153.5120 C   0  0  0  0  0  3  0  0  0  0  0  0
  156.6690  214.1100  152.2920 C   0  0  0  0  0  3  0  0  0  0  0  0
  156.8430  212.7970  154.3180 C   0  0  0  0  0  3  0  0  0  0  0  0
  158.6300  212.7460  152.6880 C   0  0  0  0  0  3  0  0  0  0  0  0
  161.7020  211.1510  157.2610 C   0  0  0  0  0  2  0  0  0  0  0  0
  164.1800  211.4420  157.1900 C   0  0  0  0  0  1  0  0  0  0  0  0
  163.0360  210.4620  157.0200 C   0  0  0  0  0  2  0  0  0  0  0  0
  162.4670  210.4480  149.9980 N   0  0  0  0  0  2  0  0  0  0  0  0
  160.5490  213.6880  149.0910 C   0  0  0  0  0  2  0  0  0  0  0  0
  159.8410  213.0930  147.8810 C   0  0  2  0  0  3  0  0  0  0  0  0
  161.5680  211.2710  147.9620 C   0  0  0  0  0  3  0  0  0  0  0  0
  161.0100  212.5610  150.0110 C   0  0  0  0  0  2  0  0  0  0  0  0
  161.7330  211.4490  149.2790 C   0  0  0  0  0  0  0  0  0  0  0  0
  160.8340  212.2470  147.0840 C   0  0  0  0  0  2  0  0  0  0  0  0
  159.1100  214.0140  145.8200 O   0  0  0  0  0  0  0  0  0  0  0  0
  159.2650  214.1760  147.0220 C   0  0  0  0  0  3  0  0  0  0  0  0
  1  5  1  0  0  0  0
  2 11  1  0  0  0  0
  2 13  2  0  0  0  0
  3 10  1  0  0  0  0
  4  7  2  0  0  0  0
  5  9  2  0  0  0  0
  6  1  1  0  0  0  0
  7  9  1  0  0  0  0
  7 11  1  0  0  0  0
  8  1  2  0  0  0  0
  8  4  1  0  0  0  0
 10 16  1  0  0  0  0
 11  3  2  0  0  0  0
 12  2  1  0  0  0  0
 13 14  1  0  0  0  0
 14 10  2  0  0  0  0
 15  4  1  0  0  0  0
 15 12  2  0  0  0  0
 16 17  1  1  0  0  0
 16 18  1  0  0  0  0
 18 20  1  0  0  0  0
 20 22  1  0  0  0  0
 20 19  1  0  0  0  0
 21 20  1  0  0  0  0
 22 32  1  0  0  0  0
 23 24  1  0  0  0  0
 24 25  2  0  0  0  0
 24 22  1  0  0  0  0
 26 30  1  0  0  0  0
 26 23  1  0  0  0  0
 27 29  2  0  0  0  0
 27 31  1  0  0  0  0
 28 30  2  0  0  0  0
 29 28  1  0  0  0  0
 31 26  2  0  0  0  0
 34 33  1  0  0  0  0
 34 32  1  0  0  0  0
 35 13  1  0  0  0  0
 36 39  1  0  0  0  0
 37 43  1  6  0  0  0
 37 36  1  0  0  0  0
 38 40  2  0  0  0  0
 40 35  1  0  0  0  0
 40 39  1  0  0  0  0
 41 37  1  0  0  0  0
 41 38  1  0  0  0  0
 42 43  2  0  0  0  0
M  END
>  <MODEL>
2

>  <REMARK>
 VINA RESULT:      -8.3      2.804      7.888
  Name = 
  10 active torsions:
  status: ('A' for Active; 'I' for Inactive)
    1  A    between atoms: N_1  and  C_34
    2  A    between atoms: N_1  and  C_35
    3  A    between atoms: C_2  and  N_6
    4  A    between atoms: C_2  and  C_27
    5  A    between atoms: N_4  and  C_12
    6  A    between atoms: N_4  and  C_15
    7  A    between atoms: N_6  and  C_12
    8  A    between atoms: C_11  and  N_14
    9  A    between atoms: C_15  and  C_42
   10  A    between atoms: C_19  and  C_37
                            x       y       z     vdW  Elec       q    Type
                         _______ _______ _______ _____ _____    ______ ____

>  <TORSDO>
F 10

$$$$
=
 OpenBabel11062410263D

 43 47  0  0  1  0  0  0  0  0999 V2000
  161.1360  204.1360  148.9020 C   0  0  0  0  0  0  0  0  0  0  0  0
  161.5750  208.3710  151.6490 C   0  0  0  0  0  0  0  0  0  0  0  0
  161.8210  209.1730  149.3630 C   0  0  0  0  0  3  0  0  0  0  0  0
  161.2520  205.7370  150.7160 C   0  0  0  0  0  0  0  0  0  0  0  0
  161.3370  205.1630  147.9770 C   0  0  0  0  0  3  0  0  0  0  0  0
  160.9740  202.7960  148.4520 N   0  0  0  0  0  1  0  0  0  0  0  0
  161.4560  206.7850  149.7870 C   0  0  0  0  0  0  0  0  0  0  0  0
  161.0930  204.4220  150.2680 C   0  0  0  0  0  3  0  0  0  0  0  0
  161.4960  206.4810  148.4150 C   0  0  0  0  0  3  0  0  0  0  0  0
  161.9790  210.4760  149.8340 C   0  0  0  0  0  0  0  0  0  0  0  0
  161.6170  208.1080  150.2550 C   0  0  0  0  0  0  0  0  0  0  0  0
  161.3680  207.3120  152.5450 C   0  0  0  0  0  3  0  0  0  0  0  0
  161.7480  209.6840  152.1280 C   0  0  0  0  0  0  0  0  0  0  0  0
  161.9420  210.7240  151.2100 C   0  0  0  0  0  3  0  0  0  0  0  0
  161.2080  206.0070  152.0830 C   0  0  0  0  0  3  0  0  0  0  0  0
  162.2280  211.5810  148.8590 C   0  0  1  0  0  3  0  0  0  0  0  0
  163.3410  211.2160  147.8940 C   0  0  0  0  0  1  0  0  0  0  0  0
  161.0030  211.8740  148.1190 N   0  0  0  0  0  2  0  0  0  0  0  0
  161.7200  214.0960  147.9920 O   0  0  0  0  0  1  0  0  0  0  0  0
  160.6210  213.2820  148.2840 C   0  0  0  0  0  0  0  0  0  0  0  0
  160.2160  213.5090  149.6030 O   0  0  0  0  0  1  0  0  0  0  0  0
  159.5110  213.6270  147.3760 N   0  0  0  0  0  0  0  0  0  0  0  0
  160.7480  212.6780  145.4310 N   0  0  0  0  0  2  0  0  0  0  0  0
  159.6250  213.4040  145.9560 C   0  0  0  0  0  0  0  0  0  0  0  0
  158.7240  213.8270  145.1810 O   0  0  0  0  0  0  0  0  0  0  0  0
  161.0710  212.4860  144.0470 C   0  0  0  0  0  0  0  0  0  0  0  0
  162.5870  212.9060  142.1970 C   0  0  0  0  0  3  0  0  0  0  0  0
  160.5500  211.6510  141.8250 C   0  0  0  0  0  3  0  0  0  0  0  0
  161.7350  212.2060  141.3360 C   0  0  0  0  0  3  0  0  0  0  0  0
  160.2190  211.7910  143.1760 C   0  0  0  0  0  3  0  0  0  0  0  0
  162.2520  213.0480  143.5460 C   0  0  0  0  0  3  0  0  0  0  0  0
  158.2750  214.2230  147.8900 C   0  0  0  0  0  2  0  0  0  0  0  0
  156.4170  213.4960  149.3900 C   0  0  0  0  0  1  0  0  0  0  0  0
  157.2290  213.1510  148.1580 C   0  0  0  0  0  2  0  0  0  0  0  0
  161.6800  209.9470  153.5410 N   0  0  0  0  0  2  0  0  0  0  0  0
  158.3340  211.5990  154.5810 C   0  0  0  0  0  2  0  0  0  0  0  0
  158.9780  212.6920  155.4240 C   0  0  2  0  0  3  0  0  0  0  0  0
  161.0470  211.2680  155.4080 C   0  0  0  0  0  3  0  0  0  0  0  0
  159.3620  211.0500  153.5950 C   0  0  0  0  0  2  0  0  0  0  0  0
  160.6910  210.7160  154.2420 C   0  0  0  0  0  0  0  0  0  0  0  0
  160.1080  212.0850  156.2540 C   0  0  0  0  0  2  0  0  0  0  0  0
  157.1340  212.6730  156.9160 O   0  0  0  0  0  0  0  0  0  0  0  0
  157.9610  213.3400  156.3130 C   0  0  0  0  0  3  0  0  0  0  0  0
  1  8  1  0  0  0  0
  2 13  1  0  0  0  0
  2 12  1  0  0  0  0
  3 10  2  0  0  0  0
  3 11  1  0  0  0  0
  4 15  1  0  0  0  0
  5  9  1  0  0  0  0
  5  1  2  0  0  0  0
  6  1  1  0  0  0  0
  7 11  1  0  0  0  0
  7  4  1  0  0  0  0
  8  4  2  0  0  0  0
  9  7  2  0  0  0  0
 10 14  1  0  0  0  0
 11  2  2  0  0  0  0
 13 35  1  0  0  0  0
 14 13  2  0  0  0  0
 15 12  2  0  0  0  0
 16 17  1  6  0  0  0
 16 10  1  0  0  0  0
 18 20  1  0  0  0  0
 18 16  1  0  0  0  0
 19 20  1  0  0  0  0
 20 21  1  0  0  0  0
 22 32  1  0  0  0  0
 22 20  1  0  0  0  0
 23 24  1  0  0  0  0
 24 22  1  0  0  0  0
 25 24  2  0  0  0  0
 26 23  1  0  0  0  0
 27 31  2  0  0  0  0
 28 30  1  0  0  0  0
 29 28  2  0  0  0  0
 29 27  1  0  0  0  0
 30 26  2  0  0  0  0
 31 26  1  0  0  0  0
 32 34  1  0  0  0  0
 34 33  1  0  0  0  0
 35 40  1  0  0  0  0
 36 37  1  0  0  0  0
 37 41  1  0  0  0  0
 37 43  1  1  0  0  0
 38 41  1  0  0  0  0
 39 40  1  0  0  0  0
 39 36  1  0  0  0  0
 40 38  2  0  0  0  0
 43 42  2  0  0  0  0
M  END
>  <MODEL>
3

>  <REMARK>
 VINA RESULT:      -8.2      0.891      1.391
  Name = 
  10 active torsions:
  status: ('A' for Active; 'I' for Inactive)
    1  A    between atoms: N_1  and  C_34
    2  A    between atoms: N_1  and  C_35
    3  A    between atoms: C_2  and  N_6
    4  A    between atoms: C_2  and  C_27
    5  A    between atoms: N_4  and  C_12
    6  A    between atoms: N_4  and  C_15
    7  A    between atoms: N_6  and  C_12
    8  A    between atoms: C_11  and  N_14
    9  A    between atoms: C_15  and  C_42
   10  A    between atoms: C_19  and  C_37
                            x       y       z     vdW  Elec       q    Type
                         _______ _______ _______ _____ _____    ______ ____

>  <TORSDO>
F 10

$$$$
=
 OpenBabel11062410263D

 43 47  0  0  1  0  0  0  0  0999 V2000
  160.4580  207.6270  154.9340 C   0  0  0  0  0  0  0  0  0  0  0  0
  162.0990  207.7100  150.1410 C   0  0  0  0  0  0  0  0  0  0  0  0
  161.6500  210.0570  150.6070 C   0  0  0  0  0  3  0  0  0  0  0  0
  161.2930  207.0130  152.7440 C   0  0  0  0  0  0  0  0  0  0  0  0
  160.4230  208.9700  154.5490 C   0  0  0  0  0  3  0  0  0  0  0  0
  160.0510  207.2530  156.2450 N   0  0  0  0  0  1  0  0  0  0  0  0
  161.2620  208.3710  152.3450 C   0  0  0  0  0  0  0  0  0  0  0  0
  160.8920  206.6510  154.0340 C   0  0  0  0  0  3  0  0  0  0  0  0
  160.8230  209.3410  153.2620 C   0  0  0  0  0  3  0  0  0  0  0  0
  162.0530  210.3940  149.3150 C   0  0  0  0  0  0  0  0  0  0  0  0
  161.6670  208.7210  151.0380 C   0  0  0  0  0  0  0  0  0  0  0  0
  162.1220  206.3740  150.5660 C   0  0  0  0  0  3  0  0  0  0  0  0
  162.4940  208.0450  148.8310 C   0  0  0  0  0  0  0  0  0  0  0  0
  162.4710  209.3890  148.4360 C   0  0  0  0  0  3  0  0  0  0  0  0
  161.7230  206.0290  151.8570 C   0  0  0  0  0  3  0  0  0  0  0  0
  161.9900  211.8210  148.8770 C   0  0  1  0  0  3  0  0  0  0  0  0
  163.2070  212.1910  148.0470 C   0  0  0  0  0  1  0  0  0  0  0  0
  160.7730  212.0480  148.1030 N   0  0  0  0  0  2  0  0  0  0  0  0
  161.3960  214.2990  147.9820 O   0  0  0  0  0  1  0  0  0  0  0  0
  160.3230  213.4400  148.2390 C   0  0  0  0  0  0  0  0  0  0  0  0
  159.8560  213.6580  149.5390 O   0  0  0  0  0  1  0  0  0  0  0  0
  159.2350  213.7280  147.2850 N   0  0  0  0  0  0  0  0  0  0  0  0
  160.5680  212.7710  145.4080 N   0  0  0  0  0  2  0  0  0  0  0  0
  159.4060  213.4740  145.8760 C   0  0  0  0  0  0  0  0  0  0  0  0
  158.5210  213.8500  145.0590 O   0  0  0  0  0  0  0  0  0  0  0  0
  160.9450  212.5550  144.0410 C   0  0  0  0  0  0  0  0  0  0  0  0
  162.4980  212.9960  142.2280 C   0  0  0  0  0  3  0  0  0  0  0  0
  160.5380  211.6320  141.8300 C   0  0  0  0  0  3  0  0  0  0  0  0
  161.7100  212.2310  141.3620 C   0  0  0  0  0  3  0  0  0  0  0  0
  160.1560  211.7950  143.1650 C   0  0  0  0  0  3  0  0  0  0  0  0
  162.1130  213.1600  143.5610 C   0  0  0  0  0  3  0  0  0  0  0  0
  157.9650  214.2970  147.7410 C   0  0  0  0  0  2  0  0  0  0  0  0
  156.2850  213.7000  149.4880 C   0  0  0  0  0  1  0  0  0  0  0  0
  157.0440  213.2090  148.2720 C   0  0  0  0  0  2  0  0  0  0  0  0
  162.9530  207.0180  147.9340 N   0  0  0  0  0  2  0  0  0  0  0  0
  161.4890  203.8690  146.2190 C   0  0  0  0  0  2  0  0  0  0  0  0
  160.8560  204.6260  145.0600 C   0  0  2  0  0  3  0  0  0  0  0  0
  161.1140  206.6880  146.4720 C   0  0  0  0  0  3  0  0  0  0  0  0
  162.5900  204.7240  146.8400 C   0  0  0  0  0  2  0  0  0  0  0  0
  162.1560  206.1490  147.1160 C   0  0  0  0  0  0  0  0  0  0  0  0
  160.1860  205.8920  145.5940 C   0  0  0  0  0  2  0  0  0  0  0  0
  159.8130  202.5590  144.5440 O   0  0  0  0  0  0  0  0  0  0  0  0
  159.8590  203.7640  144.3480 C   0  0  0  0  0  3  0  0  0  0  0  0
  1  6  1  0  0  0  0
  2 12  2  0  0  0  0
  2 11  1  0  0  0  0
  3 11  1  0  0  0  0
  4  8  1  0  0  0  0
  5  1  1  0  0  0  0
  7  4  1  0  0  0  0
  7  9  1  0  0  0  0
  8  1  2  0  0  0  0
  9  5  2  0  0  0  0
 10  3  2  0  0  0  0
 11  7  2  0  0  0  0
 12 15  1  0  0  0  0
 13  2  1  0  0  0  0
 14 13  2  0  0  0  0
 14 10  1  0  0  0  0
 15  4  2  0  0  0  0
 16 17  1  6  0  0  0
 16 10  1  0  0  0  0
 18 20  1  0  0  0  0
 18 16  1  0  0  0  0
 19 20  1  0  0  0  0
 20 21  1  0  0  0  0
 22 32  1  0  0  0  0
 22 20  1  0  0  0  0
 23 24  1  0  0  0  0
 24 22  1  0  0  0  0
 25 24  2  0  0  0  0
 26 23  1  0  0  0  0
 27 31  2  0  0  0  0
 28 30  1  0  0  0  0
 29 28  2  0  0  0  0
 29 27  1  0  0  0  0
 30 26  2  0  0  0  0
 31 26  1  0  0  0  0
 32 34  1  0  0  0  0
 34 33  1  0  0  0  0
 35 13  1  0  0  0  0
 36 39  1  0  0  0  0
 37 43  1  1  0  0  0
 37 41  1  0  0  0  0
 37 36  1  0  0  0  0
 38 40  2  0  0  0  0
 39 40  1  0  0  0  0
 40 35  1  0  0  0  0
 41 38  1  0  0  0  0
 43 42  2  0  0  0  0
M  END
>  <MODEL>
4

>  <REMARK>
 VINA RESULT:      -8.2      2.273      5.890
  Name = 
  10 active torsions:
  status: ('A' for Active; 'I' for Inactive)
    1  A    between atoms: N_1  and  C_34
    2  A    between atoms: N_1  and  C_35
    3  A    between atoms: C_2  and  N_6
    4  A    between atoms: C_2  and  C_27
    5  A    between atoms: N_4  and  C_12
    6  A    between atoms: N_4  and  C_15
    7  A    between atoms: N_6  and  C_12
    8  A    between atoms: C_11  and  N_14
    9  A    between atoms: C_15  and  C_42
   10  A    between atoms: C_19  and  C_37
                            x       y       z     vdW  Elec       q    Type
                         _______ _______ _______ _____ _____    ______ ____

>  <TORSDO>
F 10

$$$$
=
 OpenBabel11062410263D

 43 47  0  0  1  0  0  0  0  0999 V2000
  160.1880  210.3700  155.8170 C   0  0  0  0  0  0  0  0  0  0  0  0
  161.5610  208.5870  151.2770 C   0  0  0  0  0  0  0  0  0  0  0  0
  161.5350  210.9970  150.9340 C   0  0  0  0  0  3  0  0  0  0  0  0
  160.7910  208.9360  153.9600 C   0  0  0  0  0  0  0  0  0  0  0  0
  160.3570  211.4960  155.0070 C   0  0  0  0  0  3  0  0  0  0  0  0
  159.7950  210.5240  157.1750 N   0  0  0  0  0  1  0  0  0  0  0  0
  160.9650  210.0710  153.1310 C   0  0  0  0  0  0  0  0  0  0  0  0
  160.4050  209.0930  155.2950 C   0  0  0  0  0  3  0  0  0  0  0  0
  160.7430  211.3490  153.6720 C   0  0  0  0  0  3  0  0  0  0  0  0
  161.9190  210.8150  149.6050 C   0  0  0  0  0  0  0  0  0  0  0  0
  161.3530  209.8960  151.7840 C   0  0  0  0  0  0  0  0  0  0  0  0
  161.3850  207.4820  152.1220 C   0  0  0  0  0  3  0  0  0  0  0  0
  161.9360  208.3990  149.9320 C   0  0  0  0  0  0  0  0  0  0  0  0
  162.1160  209.5210  149.1120 C   0  0  0  0  0  3  0  0  0  0  0  0
  161.0030  207.6550  153.4520 C   0  0  0  0  0  3  0  0  0  0  0  0
  162.0710  212.0080  148.7170 C   0  0  1  0  0  3  0  0  0  0  0  0
  163.3580  211.9290  147.9150 C   0  0  0  0  0  1  0  0  0  0  0  0
  160.9270  212.1020  147.8150 N   0  0  0  0  0  2  0  0  0  0  0  0
  161.5460  214.2570  147.1520 O   0  0  0  0  0  1  0  0  0  0  0  0
  160.4920  213.4970  147.6700 C   0  0  0  0  0  0  0  0  0  0  0  0
  160.1250  214.0080  148.9200 O   0  0  0  0  0  1  0  0  0  0  0  0
  159.3370  213.5890  146.7580 N   0  0  0  0  0  0  0  0  0  0  0  0
  160.6890  212.6590  144.8810 N   0  0  0  0  0  2  0  0  0  0  0  0
  159.4750  213.2550  145.3620 C   0  0  0  0  0  0  0  0  0  0  0  0
  158.5150  213.4670  144.5700 O   0  0  0  0  0  0  0  0  0  0  0  0
  161.0290  212.3890  143.5140 C   0  0  0  0  0  0  0  0  0  0  0  0
  160.3430  211.5730  141.3330 C   0  0  0  0  0  3  0  0  0  0  0  0
  162.6310  212.2790  141.6900 C   0  0  0  0  0  3  0  0  0  0  0  0
  161.6380  211.7750  140.8460 C   0  0  0  0  0  3  0  0  0  0  0  0
  162.3270  212.5830  143.0210 C   0  0  0  0  0  3  0  0  0  0  0  0
  160.0430  211.8750  142.6640 C   0  0  0  0  0  3  0  0  0  0  0  0
  158.0300  214.0400  147.2410 C   0  0  0  0  0  2  0  0  0  0  0  0
  156.6490  213.5260  149.2560 C   0  0  0  0  0  1  0  0  0  0  0  0
  157.3410  212.9430  148.0400 C   0  0  0  0  0  2  0  0  0  0  0  0
  162.1690  207.0710  149.4300 N   0  0  0  0  0  2  0  0  0  0  0  0
  160.2640  206.2410  146.1610 C   0  0  0  0  0  2  0  0  0  0  0  0
  161.1160  205.0280  145.8110 C   0  0  2  0  0  3  0  0  0  0  0  0
  162.7960  205.9320  147.4450 C   0  0  0  0  0  3  0  0  0  0  0  0
  160.3950  206.5370  147.6530 C   0  0  0  0  0  2  0  0  0  0  0  0
  161.8320  206.5530  148.1350 C   0  0  0  0  0  0  0  0  0  0  0  0
  162.5860  205.3550  146.0710 C   0  0  0  0  0  2  0  0  0  0  0  0
  161.2670  205.3630  143.4680 O   0  0  0  0  0  0  0  0  0  0  0  0
  160.9090  204.6340  144.3810 C   0  0  0  0  0  3  0  0  0  0  0  0
  1  6  1  0  0  0  0
  2 11  1  0  0  0  0
  2 12  1  0  0  0  0
  3 11  2  0  0  0  0
  4  8  2  0  0  0  0
  5  1  2  0  0  0  0
  7  9  2  0  0  0  0
  7  4  1  0  0  0  0
  8  1  1  0  0  0  0
  9  5  1  0  0  0  0
 10  3  1  0  0  0  0
 11  7  1  0  0  0  0
 12 15  2  0  0  0  0
 13  2  2  0  0  0  0
 14 10  2  0  0  0  0
 14 13  1  0  0  0  0
 15  4  1  0  0  0  0
 16 17  1  6  0  0  0
 16 10  1  0  0  0  0
 18 16  1  0  0  0  0
 19 20  1  0  0  0  0
 20 18  1  0  0  0  0
 20 21  1  0  0  0  0
 22 32  1  0  0  0  0
 22 20  1  0  0  0  0
 23 24  1  0  0  0  0
 24 22  1  0  0  0  0
 25 24  2  0  0  0  0
 26 23  1  0  0  0  0
 27 31  1  0  0  0  0
 28 30  2  0  0  0  0
 29 27  2  0  0  0  0
 29 28  1  0  0  0  0
 30 26  1  0  0  0  0
 31 26  2  0  0  0  0
 32 34  1  0  0  0  0
 34 33  1  0  0  0  0
 35 13  1  0  0  0  0
 36 39  1  0  0  0  0
 37 43  1  6  0  0  0
 37 41  1  0  0  0  0
 37 36  1  0  0  0  0
 38 40  2  0  0  0  0
 39 40  1  0  0  0  0
 40 35  1  0  0  0  0
 41 38  1  0  0  0  0
 42 43  2  0  0  0  0
M  END
>  <MODEL>
5

>  <REMARK>
 VINA RESULT:      -8.1      1.934      6.028
  Name = 
  10 active torsions:
  status: ('A' for Active; 'I' for Inactive)
    1  A    between atoms: N_1  and  C_34
    2  A    between atoms: N_1  and  C_35
    3  A    between atoms: C_2  and  N_6
    4  A    between atoms: C_2  and  C_27
    5  A    between atoms: N_4  and  C_12
    6  A    between atoms: N_4  and  C_15
    7  A    between atoms: N_6  and  C_12
    8  A    between atoms: C_11  and  N_14
    9  A    between atoms: C_15  and  C_42
   10  A    between atoms: C_19  and  C_37
                            x       y       z     vdW  Elec       q    Type
                         _______ _______ _______ _____ _____    ______ ____

>  <TORSDO>
F 10

$$$$
=
 OpenBabel11062410263D

 43 47  0  0  1  0  0  0  0  0999 V2000
  161.4290  204.3850  147.1440 C   0  0  0  0  0  0  0  0  0  0  0  0
  161.5820  207.9880  150.7030 C   0  0  0  0  0  0  0  0  0  0  0  0
  161.9560  209.2350  148.6450 C   0  0  0  0  0  3  0  0  0  0  0  0
  161.3860  205.5910  149.2440 C   0  0  0  0  0  0  0  0  0  0  0  0
  161.6630  205.5800  146.4580 C   0  0  0  0  0  3  0  0  0  0  0  0
  161.3300  203.1610  146.4260 N   0  0  0  0  0  1  0  0  0  0  0  0
  161.6240  206.8070  148.5590 C   0  0  0  0  0  0  0  0  0  0  0  0
  161.2910  204.3910  148.5330 C   0  0  0  0  0  3  0  0  0  0  0  0
  161.7600  206.7840  147.1600 C   0  0  0  0  0  3  0  0  0  0  0  0
  162.0490  210.4190  149.3760 C   0  0  0  0  0  0  0  0  0  0  0  0
  161.7210  208.0110  149.2910 C   0  0  0  0  0  0  0  0  0  0  0  0
  161.3440  206.7690  151.3540 C   0  0  0  0  0  3  0  0  0  0  0  0
  161.6900  209.1810  151.4450 C   0  0  0  0  0  0  0  0  0  0  0  0
  161.9170  210.3860  150.7680 C   0  0  0  0  0  3  0  0  0  0  0  0
  161.2470  205.5810  150.6310 C   0  0  0  0  0  3  0  0  0  0  0  0
  162.3330  211.7000  148.6610 C   0  0  1  0  0  3  0  0  0  0  0  0
  163.7450  211.7110  148.1000 C   0  0  0  0  0  1  0  0  0  0  0  0
  161.3680  211.8890  147.5810 N   0  0  0  0  0  2  0  0  0  0  0  0
  162.3110  213.6730  146.3990 O   0  0  0  0  0  1  0  0  0  0  0  0
  161.2480  213.3110  147.2340 C   0  0  0  0  0  0  0  0  0  0  0  0
  161.2900  214.0850  148.3980 O   0  0  0  0  0  1  0  0  0  0  0  0
  159.9750  213.5670  146.5330 N   0  0  0  0  0  0  0  0  0  0  0  0
  158.7890  213.8690  148.7050 N   0  0  0  0  0  2  0  0  0  0  0  0
  158.7530  213.7520  147.2740 C   0  0  0  0  0  0  0  0  0  0  0  0
  157.6540  213.8350  146.6590 O   0  0  0  0  0  0  0  0  0  0  0  0
  157.6610  213.9260  149.5890 C   0  0  0  0  0  0  0  0  0  0  0  0
  155.2540  214.0710  149.8670 C   0  0  0  0  0  3  0  0  0  0  0  0
  156.6920  214.0590  151.8140 C   0  0  0  0  0  3  0  0  0  0  0  0
  155.4120  214.1080  151.2560 C   0  0  0  0  0  3  0  0  0  0  0  0
  157.8130  213.9700  150.9830 C   0  0  0  0  0  3  0  0  0  0  0  0
  156.3760  213.9860  149.0380 C   0  0  0  0  0  3  0  0  0  0  0  0
  159.9180  213.6180  145.0700 C   0  0  0  0  0  2  0  0  0  0  0  0
  160.0870  212.2070  143.0190 C   0  0  0  0  0  1  0  0  0  0  0  0
  159.7180  212.2270  144.4880 C   0  0  0  0  0  2  0  0  0  0  0  0
  161.5240  209.1550  152.8740 N   0  0  0  0  0  2  0  0  0  0  0  0
  159.2980  210.3140  155.8240 C   0  0  0  0  0  2  0  0  0  0  0  0
  158.1350  210.7630  154.9490 C   0  0  2  0  0  3  0  0  0  0  0  0
  159.7670  210.7410  153.0400 C   0  0  0  0  0  3  0  0  0  0  0  0
  160.1650  209.3280  155.0450 C   0  0  0  0  0  2  0  0  0  0  0  0
  160.5100  209.8090  153.6500 C   0  0  0  0  0  0  0  0  0  0  0  0
  158.6810  211.5150  153.7360 C   0  0  0  0  0  2  0  0  0  0  0  0
  156.1740  212.0710  155.2170 O   0  0  0  0  0  0  0  0  0  0  0  0
  157.1940  211.6300  155.7270 C   0  0  0  0  0  3  0  0  0  0  0  0
  1  8  1  0  0  0  0
  2 12  1  0  0  0  0
  2 13  1  0  0  0  0
  3 11  1  0  0  0  0
  3 10  2  0  0  0  0
  4 15  1  0  0  0  0
  5  1  2  0  0  0  0
  5  9  1  0  0  0  0
  6  1  1  0  0  0  0
  7  4  1  0  0  0  0
  7 11  1  0  0  0  0
  8  4  2  0  0  0  0
  9  7  2  0  0  0  0
 10 14  1  0  0  0  0
 11  2  2  0  0  0  0
 13 35  1  0  0  0  0
 14 13  2  0  0  0  0
 15 12  2  0  0  0  0
 16 17  1  6  0  0  0
 16 10  1  0  0  0  0
 18 16  1  0  0  0  0
 19 20  1  0  0  0  0
 20 18  1  0  0  0  0
 20 21  1  0  0  0  0
 22 20  1  0  0  0  0
 22 24  1  0  0  0  0
 23 26  1  0  0  0  0
 24 23  1  0  0  0  0
 25 24  2  0  0  0  0
 26 30  1  0  0  0  0
 27 29  2  0  0  0  0
 29 28  1  0  0  0  0
 30 28  2  0  0  0  0
 31 26  2  0  0  0  0
 31 27  1  0  0  0  0
 32 22  1  0  0  0  0
 33 34  1  0  0  0  0
 34 32  1  0  0  0  0
 35 40  1  0  0  0  0
 37 43  1  1  0  0  0
 37 36  1  0  0  0  0
 38 40  2  0  0  0  0
 38 41  1  0  0  0  0
 39 36  1  0  0  0  0
 40 39  1  0  0  0  0
 41 37  1  0  0  0  0
 42 43  2  0  0  0  0
M  END
>  <MODEL>
6

>  <REMARK>
 VINA RESULT:      -8.0      1.083      4.078
  Name = 
  10 active torsions:
  status: ('A' for Active; 'I' for Inactive)
    1  A    between atoms: N_1  and  C_34
    2  A    between atoms: N_1  and  C_35
    3  A    between atoms: C_2  and  N_6
    4  A    between atoms: C_2  and  C_27
    5  A    between atoms: N_4  and  C_12
    6  A    between atoms: N_4  and  C_15
    7  A    between atoms: N_6  and  C_12
    8  A    between atoms: C_11  and  N_14
    9  A    between atoms: C_15  and  C_42
   10  A    between atoms: C_19  and  C_37
                            x       y       z     vdW  Elec       q    Type
                         _______ _______ _______ _____ _____    ______ ____

>  <TORSDO>
F 10

$$$$
=
 OpenBabel11062410263D

 43 47  0  0  1  0  0  0  0  0999 V2000
  160.9970  202.2720  147.2710 C   0  0  0  0  0  0  0  0  0  0  0  0
  161.8420  207.0710  148.6620 C   0  0  0  0  0  0  0  0  0  0  0  0
  161.1390  206.0140  150.7400 C   0  0  0  0  0  3  0  0  0  0  0  0
  161.5600  204.6280  147.2950 C   0  0  0  0  0  0  0  0  0  0  0  0
  160.7110  202.3220  148.6370 C   0  0  0  0  0  3  0  0  0  0  0  0
  160.8580  201.0480  146.5600 N   0  0  0  0  0  1  0  0  0  0  0  0
  161.2720  204.6900  148.6800 C   0  0  0  0  0  0  0  0  0  0  0  0
  161.4210  203.4220  146.6010 C   0  0  0  0  0  3  0  0  0  0  0  0
  160.8480  203.5230  149.3390 C   0  0  0  0  0  3  0  0  0  0  0  0
  161.2830  207.2280  151.4100 C   0  0  0  0  0  0  0  0  0  0  0  0
  161.4150  205.9150  149.3670 C   0  0  0  0  0  0  0  0  0  0  0  0
  162.1220  206.9790  147.2910 C   0  0  0  0  0  3  0  0  0  0  0  0
  161.9750  208.3020  149.3330 C   0  0  0  0  0  0  0  0  0  0  0  0
  161.6980  208.3630  150.7050 C   0  0  0  0  0  3  0  0  0  0  0  0
  161.9830  205.7680  146.6140 C   0  0  0  0  0  3  0  0  0  0  0  0
  160.9490  207.3060  152.8640 C   0  0  1  0  0  3  0  0  0  0  0  0
  161.0970  205.9490  153.5310 C   0  0  0  0  0  1  0  0  0  0  0  0
  161.8170  208.2800  153.5210 N   0  0  0  0  0  2  0  0  0  0  0  0
  159.8180  209.4580  153.2250 O   0  0  0  0  0  1  0  0  0  0  0  0
  161.0740  209.5060  153.8400 C   0  0  0  0  0  0  0  0  0  0  0  0
  161.7780  210.6180  153.3680 O   0  0  0  0  0  1  0  0  0  0  0  0
  160.8930  209.6360  155.2980 N   0  0  0  0  0  0  0  0  0  0  0  0
  158.9090  211.1090  154.9650 N   0  0  0  0  0  2  0  0  0  0  0  0
  159.8750  210.5030  155.8380 C   0  0  0  0  0  0  0  0  0  0  0  0
  159.8220  210.7080  157.0820 O   0  0  0  0  0  0  0  0  0  0  0  0
  157.9240  212.0870  155.3240 C   0  0  0  0  0  0  0  0  0  0  0  0
  155.7510  212.5780  156.2890 C   0  0  0  0  0  3  0  0  0  0  0  0
  157.0890  214.3690  155.3630 C   0  0  0  0  0  3  0  0  0  0  0  0
  155.9220  213.9340  155.9960 C   0  0  0  0  0  3  0  0  0  0  0  0
  158.0860  213.4480  155.0270 C   0  0  0  0  0  3  0  0  0  0  0  0
  156.7460  211.6580  155.9490 C   0  0  0  0  0  3  0  0  0  0  0  0
  161.7550  208.9080  156.2320 C   0  0  0  0  0  2  0  0  0  0  0  0
  159.6730  207.5490  156.4590 C   0  0  0  0  0  1  0  0  0  0  0  0
  161.1870  207.5270  156.5260 C   0  0  0  0  0  2  0  0  0  0  0  0
  162.4310  209.4640  148.6180 N   0  0  0  0  0  2  0  0  0  0  0  0
  161.1790  213.0740  149.2520 C   0  0  0  0  0  2  0  0  0  0  0  0
  159.9660  212.9600  148.3380 C   0  0  2  0  0  3  0  0  0  0  0  0
  161.1040  210.9570  147.3370 C   0  0  0  0  0  3  0  0  0  0  0  0
  161.6410  211.6760  149.6540 C   0  0  0  0  0  2  0  0  0  0  0  0
  161.7620  210.7260  148.4800 C   0  0  0  0  0  0  0  0  0  0  0  0
  160.3720  212.2400  147.0520 C   0  0  0  0  0  2  0  0  0  0  0  0
  158.2560  214.4530  147.6470 O   0  0  0  0  0  0  0  0  0  0  0  0
  159.4090  214.3160  148.0290 C   0  0  0  0  0  3  0  0  0  0  0  0
  1  5  1  0  0  0  0
  2 13  2  0  0  0  0
  2 11  1  0  0  0  0
  3 10  1  0  0  0  0
  4  7  2  0  0  0  0
  5  9  2  0  0  0  0
  6  1  1  0  0  0  0
  7  9  1  0  0  0  0
  7 11  1  0  0  0  0
  8  1  2  0  0  0  0
  8  4  1  0  0  0  0
 10 16  1  0  0  0  0
 11  3  2  0  0  0  0
 12  2  1  0  0  0  0
 13 14  1  0  0  0  0
 14 10  2  0  0  0  0
 15 12  2  0  0  0  0
 15  4  1  0  0  0  0
 16 18  1  0  0  0  0
 16 17  1  1  0  0  0
 18 20  1  0  0  0  0
 19 20  1  0  0  0  0
 20 22  1  0  0  0  0
 21 20  1  0  0  0  0
 22 24  1  0  0  0  0
 22 32  1  0  0  0  0
 23 26  1  0  0  0  0
 23 24  1  0  0  0  0
 24 25  2  0  0  0  0
 26 31  1  0  0  0  0
 28 29  2  0  0  0  0
 29 27  1  0  0  0  0
 30 26  2  0  0  0  0
 30 28  1  0  0  0  0
 31 27  2  0  0  0  0
 32 34  1  0  0  0  0
 33 34  1  0  0  0  0
 35 13  1  0  0  0  0
 36 39  1  0  0  0  0
 37 43  1  6  0  0  0
 37 36  1  0  0  0  0
 38 40  2  0  0  0  0
 40 35  1  0  0  0  0
 40 39  1  0  0  0  0
 41 38  1  0  0  0  0
 41 37  1  0  0  0  0
 42 43  2  0  0  0  0
M  END
>  <MODEL>
7

>  <REMARK>
 VINA RESULT:      -7.7      2.806      8.272
  Name = 
  10 active torsions:
  status: ('A' for Active; 'I' for Inactive)
    1  A    between atoms: N_1  and  C_34
    2  A    between atoms: N_1  and  C_35
    3  A    between atoms: C_2  and  N_6
    4  A    between atoms: C_2  and  C_27
    5  A    between atoms: N_4  and  C_12
    6  A    between atoms: N_4  and  C_15
    7  A    between atoms: N_6  and  C_12
    8  A    between atoms: C_11  and  N_14
    9  A    between atoms: C_15  and  C_42
   10  A    between atoms: C_19  and  C_37
                            x       y       z     vdW  Elec       q    Type
                         _______ _______ _______ _____ _____    ______ ____

>  <TORSDO>
F 10

$$$$
=
 OpenBabel11062410263D

 43 47  0  0  1  0  0  0  0  0999 V2000
  161.0100  201.4040  147.6150 C   0  0  0  0  0  0  0  0  0  0  0  0
  161.1470  204.7120  151.4510 C   0  0  0  0  0  0  0  0  0  0  0  0
  161.5600  206.1140  149.5040 C   0  0  0  0  0  3  0  0  0  0  0  0
  160.9490  202.4400  149.8040 C   0  0  0  0  0  0  0  0  0  0  0  0
  161.2650  202.6470  147.0290 C   0  0  0  0  0  3  0  0  0  0  0  0
  160.9100  200.2420  146.8010 N   0  0  0  0  0  1  0  0  0  0  0  0
  161.2080  203.7040  149.2200 C   0  0  0  0  0  0  0  0  0  0  0  0
  160.8520  201.3010  148.9990 C   0  0  0  0  0  3  0  0  0  0  0  0
  161.3630  203.7910  147.8260 C   0  0  0  0  0  3  0  0  0  0  0  0
  161.6540  207.2350  150.3280 C   0  0  0  0  0  0  0  0  0  0  0  0
  161.3060  204.8450  150.0470 C   0  0  0  0  0  0  0  0  0  0  0  0
  160.8890  203.4470  152.0000 C   0  0  0  0  0  3  0  0  0  0  0  0
  161.2550  205.8410  152.2870 C   0  0  0  0  0  0  0  0  0  0  0  0
  161.5030  207.0930  151.7110 C   0  0  0  0  0  3  0  0  0  0  0  0
  160.7910  202.3210  151.1830 C   0  0  0  0  0  3  0  0  0  0  0  0
  161.9600  208.5660  149.7200 C   0  0  1  0  0  3  0  0  0  0  0  0
  161.8920  208.5020  148.2040 C   0  0  0  0  0  1  0  0  0  0  0  0
  161.0190  209.5650  150.2190 N   0  0  0  0  0  2  0  0  0  0  0  0
  162.8650  210.9760  149.9500 O   0  0  0  0  0  1  0  0  0  0  0  0
  161.7340  210.7380  150.7380 C   0  0  0  0  0  0  0  0  0  0  0  0
  162.1330  210.5000  152.0580 O   0  0  0  0  0  1  0  0  0  0  0  0
  160.8650  211.9300  150.7080 N   0  0  0  0  0  0  0  0  0  0  0  0
  161.1910  212.1610  148.2480 N   0  0  0  0  0  2  0  0  0  0  0  0
  160.6790  212.6730  149.4880 C   0  0  0  0  0  0  0  0  0  0  0  0
  160.0430  213.7640  149.5090 O   0  0  0  0  0  0  0  0  0  0  0  0
  161.2010  212.8340  146.9810 C   0  0  0  0  0  0  0  0  0  0  0  0
  162.3580  214.2880  145.4190 C   0  0  0  0  0  3  0  0  0  0  0  0
  160.1370  213.4820  144.8950 C   0  0  0  0  0  3  0  0  0  0  0  0
  161.2640  214.2320  144.5500 C   0  0  0  0  0  3  0  0  0  0  0  0
  160.1050  212.7870  146.1080 C   0  0  0  0  0  3  0  0  0  0  0  0
  162.3230  213.5950  146.6320 C   0  0  0  0  0  3  0  0  0  0  0  0
  160.1890  212.3990  151.9200 C   0  0  0  0  0  2  0  0  0  0  0  0
  158.8430  211.3310  153.7310 C   0  0  0  0  0  1  0  0  0  0  0  0
  158.9800  211.5290  152.2350 C   0  0  0  0  0  2  0  0  0  0  0  0
  161.0690  205.7020  153.7070 N   0  0  0  0  0  2  0  0  0  0  0  0
  159.9270  207.6650  156.8450 C   0  0  0  0  0  2  0  0  0  0  0  0
  160.0850  209.0400  156.2110 C   0  0  2  0  0  3  0  0  0  0  0  0
  161.5030  207.9050  154.4760 C   0  0  0  0  0  3  0  0  0  0  0  0
  159.8030  206.6130  155.7460 C   0  0  0  0  0  2  0  0  0  0  0  0
  160.8590  206.7470  154.6680 C   0  0  0  0  0  0  0  0  0  0  0  0
  161.3870  209.0780  155.4110 C   0  0  0  0  0  2  0  0  0  0  0  0
  160.4020  211.2570  156.9930 O   0  0  0  0  0  0  0  0  0  0  0  0
  160.0810  210.1090  157.2600 C   0  0  0  0  0  3  0  0  0  0  0  0
  1  8  1  0  0  0  0
  2 12  1  0  0  0  0
  2 13  1  0  0  0  0
  3 11  1  0  0  0  0
  3 10  2  0  0  0  0
  4 15  1  0  0  0  0
  5  1  2  0  0  0  0
  5  9  1  0  0  0  0
  6  1  1  0  0  0  0
  7  4  1  0  0  0  0
  7 11  1  0  0  0  0
  8  4  2  0  0  0  0
  9  7  2  0  0  0  0
 10 14  1  0  0  0  0
 11  2  2  0  0  0  0
 13 35  1  0  0  0  0
 14 13  2  0  0  0  0
 15 12  2  0  0  0  0
 16 17  1  6  0  0  0
 16 18  1  0  0  0  0
 16 10  1  0  0  0  0
 18 20  1  0  0  0  0
 19 20  1  0  0  0  0
 20 21  1  0  0  0  0
 22 20  1  0  0  0  0
 22 32  1  0  0  0  0
 23 24  1  0  0  0  0
 24 25  2  0  0  0  0
 24 22  1  0  0  0  0
 26 23  1  0  0  0  0
 27 31  2  0  0  0  0
 28 30  1  0  0  0  0
 29 28  2  0  0  0  0
 29 27  1  0  0  0  0
 30 26  2  0  0  0  0
 31 26  1  0  0  0  0
 32 34  1  0  0  0  0
 34 33  1  0  0  0  0
 35 40  1  0  0  0  0
 37 36  1  0  0  0  0
 37 43  1  1  0  0  0
 38 40  2  0  0  0  0
 38 41  1  0  0  0  0
 39 36  1  0  0  0  0
 40 39  1  0  0  0  0
 41 37  1  0  0  0  0
 42 43  2  0  0  0  0
M  END
>  <MODEL>
8

>  <REMARK>
 VINA RESULT:      -7.7      2.380      3.993
  Name = 
  10 active torsions:
  status: ('A' for Active; 'I' for Inactive)
    1  A    between atoms: N_1  and  C_34
    2  A    between atoms: N_1  and  C_35
    3  A    between atoms: C_2  and  N_6
    4  A    between atoms: C_2  and  C_27
    5  A    between atoms: N_4  and  C_12
    6  A    between atoms: N_4  and  C_15
    7  A    between atoms: N_6  and  C_12
    8  A    between atoms: C_11  and  N_14
    9  A    between atoms: C_15  and  C_42
   10  A    between atoms: C_19  and  C_37
                            x       y       z     vdW  Elec       q    Type
                         _______ _______ _______ _____ _____    ______ ____

>  <TORSDO>
F 10

$$$$
=
 OpenBabel11062410263D

 43 47  0  0  1  0  0  0  0  0999 V2000
  158.4700  211.5760  156.0470 C   0  0  0  0  0  0  0  0  0  0  0  0
  161.1870  208.8410  152.7590 C   0  0  0  0  0  0  0  0  0  0  0  0
  160.9700  210.9900  151.6360 C   0  0  0  0  0  3  0  0  0  0  0  0
  159.7040  209.8060  154.9460 C   0  0  0  0  0  0  0  0  0  0  0  0
  158.7130  212.4240  154.9650 C   0  0  0  0  0  3  0  0  0  0  0  0
  157.7190  212.0420  157.1620 N   0  0  0  0  0  1  0  0  0  0  0  0
  159.9550  210.6580  153.8430 C   0  0  0  0  0  0  0  0  0  0  0  0
  158.9650  210.2690  156.0380 C   0  0  0  0  0  3  0  0  0  0  0  0
  159.4510  211.9700  153.8680 C   0  0  0  0  0  3  0  0  0  0  0  0
  161.7080  210.5050  150.5570 C   0  0  0  0  0  0  0  0  0  0  0  0
  160.7010  210.1740  152.7460 C   0  0  0  0  0  0  0  0  0  0  0  0
  160.9250  208.0210  153.8660 C   0  0  0  0  0  3  0  0  0  0  0  0
  161.9210  208.3430  151.6640 C   0  0  0  0  0  0  0  0  0  0  0  0
  162.1780  209.1870  150.5760 C   0  0  0  0  0  3  0  0  0  0  0  0
  160.1900  208.4990  154.9500 C   0  0  0  0  0  3  0  0  0  0  0  0
  161.9480  211.3900  149.3760 C   0  0  1  0  0  3  0  0  0  0  0  0
  162.6460  210.6330  148.2600 C   0  0  0  0  0  1  0  0  0  0  0  0
  160.6780  211.9260  148.8950 N   0  0  0  0  0  2  0  0  0  0  0  0
  162.0280  213.7160  148.2300 O   0  0  0  0  0  1  0  0  0  0  0  0
  160.7620  213.3820  148.7210 C   0  0  0  0  0  0  0  0  0  0  0  0
  160.5620  214.0150  149.9520 O   0  0  0  0  0  1  0  0  0  0  0  0
  159.7360  213.8500  147.7700 N   0  0  0  0  0  0  0  0  0  0  0  0
  161.0800  213.0190  145.8420 N   0  0  0  0  0  2  0  0  0  0  0  0
  159.9490  213.7440  146.3480 C   0  0  0  0  0  0  0  0  0  0  0  0
  159.1250  214.2710  145.5500 O   0  0  0  0  0  0  0  0  0  0  0  0
  161.5000  212.9310  144.4730 C   0  0  0  0  0  0  0  0  0  0  0  0
  163.0600  213.6030  142.7390 C   0  0  0  0  0  3  0  0  0  0  0  0
  161.1990  212.1570  142.1900 C   0  0  0  0  0  3  0  0  0  0  0  0
  162.3400  212.8600  141.7980 C   0  0  0  0  0  3  0  0  0  0  0  0
  160.7790  212.1930  143.5230 C   0  0  0  0  0  3  0  0  0  0  0  0
  162.6370  213.6420  144.0700 C   0  0  0  0  0  3  0  0  0  0  0  0
  158.4880  214.4530  148.2440 C   0  0  0  0  0  2  0  0  0  0  0  0
  156.2700  213.8760  149.2330 C   0  0  0  0  0  1  0  0  0  0  0  0
  157.3760  213.4160  148.3040 C   0  0  0  0  0  2  0  0  0  0  0  0
  162.4320  206.9980  151.6940 N   0  0  0  0  0  2  0  0  0  0  0  0
  160.8220  203.4970  151.3100 C   0  0  0  0  0  2  0  0  0  0  0  0
  161.1390  203.3630  149.8270 C   0  0  2  0  0  3  0  0  0  0  0  0
  161.5000  205.8480  149.8390 C   0  0  0  0  0  3  0  0  0  0  0  0
  161.7520  204.5350  151.9330 C   0  0  0  0  0  2  0  0  0  0  0  0
  161.8310  205.8210  151.1360 C   0  0  0  0  0  0  0  0  0  0  0  0
  160.8500  204.6920  149.1300 C   0  0  0  0  0  2  0  0  0  0  0  0
  160.6980  201.0960  149.2820 O   0  0  0  0  0  0  0  0  0  0  0  0
  160.3320  202.2600  149.2130 C   0  0  0  0  0  3  0  0  0  0  0  0
  1  6  1  0  0  0  0
  2 12  1  0  0  0  0
  3 11  2  0  0  0  0
  4 15  1  0  0  0  0
  4  8  2  0  0  0  0
  5  1  2  0  0  0  0
  7  9  2  0  0  0  0
  7  4  1  0  0  0  0
  8  1  1  0  0  0  0
  9  5  1  0  0  0  0
 10 14  2  0  0  0  0
 10  3  1  0  0  0  0
 11  2  1  0  0  0  0
 11  7  1  0  0  0  0
 12 15  2  0  0  0  0
 13 35  1  0  0  0  0
 13  2  2  0  0  0  0
 14 13  1  0  0  0  0
 16 17  1  6  0  0  0
 16 10  1  0  0  0  0
 18 16  1  0  0  0  0
 19 20  1  0  0  0  0
 20 18  1  0  0  0  0
 20 21  1  0  0  0  0
 22 32  1  0  0  0  0
 22 20  1  0  0  0  0
 23 24  1  0  0  0  0
 24 22  1  0  0  0  0
 25 24  2  0  0  0  0
 26 23  1  0  0  0  0
 27 31  2  0  0  0  0
 28 30  1  0  0  0  0
 29 28  2  0  0  0  0
 29 27  1  0  0  0  0
 30 26  2  0  0  0  0
 31 26  1  0  0  0  0
 32 34  1  0  0  0  0
 34 33  1  0  0  0  0
 36 39  1  0  0  0  0
 37 43  1  6  0  0  0
 37 36  1  0  0  0  0
 38 40  2  0  0  0  0
 40 35  1  0  0  0  0
 40 39  1  0  0  0  0
 41 37  1  0  0  0  0
 41 38  1  0  0  0  0
 43 42  2  0  0  0  0
M  END
>  <MODEL>
9

>  <REMARK>
 VINA RESULT:      -7.7      2.504      5.918
  Name = 
  10 active torsions:
  status: ('A' for Active; 'I' for Inactive)
    1  A    between atoms: N_1  and  C_34
    2  A    between atoms: N_1  and  C_35
    3  A    between atoms: C_2  and  N_6
    4  A    between atoms: C_2  and  C_27
    5  A    between atoms: N_4  and  C_12
    6  A    between atoms: N_4  and  C_15
    7  A    between atoms: N_6  and  C_12
    8  A    between atoms: C_11  and  N_14
    9  A    between atoms: C_15  and  C_42
   10  A    between atoms: C_19  and  C_37
                            x       y       z     vdW  Elec       q    Type
                         _______ _______ _______ _____ _____    ______ ____

>  <TORSDO>
F 10

$$$$
