=
 OpenBabel11052422173D

 25 28  0  0  0  0  0  0  0  0999 V2000
  161.4280  204.9520  148.6550 N   0  0  0  0  0  0  0  0  0  0  0  0
  161.4820  206.1230  149.3530 C   0  0  0  0  0  0  0  0  0  0  0  0
  161.9640  206.0450  146.6130 C   0  0  0  0  0  3  0  0  0  0  0  0
  161.1640  203.6890  149.0370 C   0  0  0  0  0  0  0  0  0  0  0  0
  161.3090  207.3970  151.4130 C   0  0  0  0  0  0  0  0  0  0  0  0
  160.6920  200.9740  149.3300 C   0  0  0  0  0  3  0  0  0  0  0  0
  162.0240  207.2250  147.2910 N   0  0  0  0  0  0  0  0  0  0  0  0
  161.2320  202.8530  147.9450 C   0  0  0  0  0  0  0  0  0  0  0  0
  161.0010  201.4840  148.0560 C   0  0  0  0  0  3  0  0  0  0  0  0
  161.2440  206.1780  150.7290 C   0  0  0  0  0  3  0  0  0  0  0  0
  160.6230  201.8290  150.4500 C   0  0  0  0  0  3  0  0  0  0  0  0
  161.6570  204.8920  147.3250 C   0  0  0  0  0  0  0  0  0  0  0  0
  161.5490  203.5980  146.8190 C   0  0  0  0  0  3  0  0  0  0  0  0
  161.8610  208.5450  149.3280 C   0  0  0  0  0  0  0  0  0  0  0  0
  160.8600  203.2070  150.3120 C   0  0  0  0  0  3  0  0  0  0  0  0
  161.6170  208.5650  150.7060 C   0  0  0  0  0  3  0  0  0  0  0  0
  161.7940  207.3080  148.6380 C   0  0  0  0  0  0  0  0  0  0  0  0
  160.6230  208.9060  154.9070 C   0  0  0  0  0  0  0  0  0  0  0  0
  160.4650  210.1920  155.4040 O   0  0  0  0  0  0  0  0  0  0  0  0
  160.5430  207.9240  155.6910 O   0  0  0  0  0  1  0  0  0  0  0  0
  161.0560  207.4500  152.8640 C   0  0  0  0  0  0  0  0  0  0  0  0
  160.8750  208.7180  153.5100 N   0  0  0  0  0  2  0  0  0  0  0  0
  161.0010  206.3800  153.5310 O   0  0  0  0  0  0  0  0  0  0  0  0
  162.1600  209.7740  148.7200 O   0  0  0  0  0  0  0  0  0  0  0  0
  161.9920  211.0490  149.3220 C   0  0  0  0  0  1  0  0  0  0  0  0
  1  4  1  0  0  0  0
  1  2  1  0  0  0  0
  2 10  1  0  0  0  0
  3  7  2  0  0  0  0
  3 12  1  0  0  0  0
  4 15  1  0  0  0  0
  5 21  1  0  0  0  0
  6 11  1  0  0  0  0
  7 17  1  0  0  0  0
  8  9  1  0  0  0  0
  8  4  2  0  0  0  0
  9  6  2  0  0  0  0
 10  5  2  0  0  0  0
 12  1  1  0  0  0  0
 13 12  2  0  0  0  0
 13  8  1  0  0  0  0
 14 16  2  0  0  0  0
 15 11  2  0  0  0  0
 16  5  1  0  0  0  0
 17 14  1  0  0  0  0
 17  2  2  0  0  0  0
 18 19  2  0  0  0  0
 18 20  1  0  0  0  0
 21 22  1  0  0  0  0
 21 23  2  0  0  0  0
 22 18  1  0  0  0  0
 24 25  1  0  0  0  0
 24 14  1  0  0  0  0
M  END
>  <MODEL>
1

>  <REMARK>
 VINA RESULT:     -10.5      0.000      0.000
  Name = 
  2 active torsions:
  status: ('A' for Active; 'I' for Inactive)
    1  A    between atoms: C_6  and  C_15
    2  A    between atoms: O_13  and  C_20
                            x       y       z     vdW  Elec       q    Type
                         _______ _______ _______ _____ _____    ______ ____

>  <TORSDO>
F 2

$$$$
=
 OpenBabel11052422173D

 25 28  0  0  0  0  0  0  0  0999 V2000
  161.4200  205.5360  149.2080 N   0  0  0  0  0  0  0  0  0  0  0  0
  161.5350  206.8020  149.7050 C   0  0  0  0  0  0  0  0  0  0  0  0
  161.8100  206.2820  146.9840 C   0  0  0  0  0  3  0  0  0  0  0  0
  161.1770  204.3550  149.8040 C   0  0  0  0  0  0  0  0  0  0  0  0
  161.5250  208.3890  151.5430 C   0  0  0  0  0  0  0  0  0  0  0  0
  160.7090  201.7300  150.5600 C   0  0  0  0  0  3  0  0  0  0  0  0
  161.9290  207.5530  147.4610 N   0  0  0  0  0  0  0  0  0  0  0  0
  161.1570  203.3560  148.8570 C   0  0  0  0  0  0  0  0  0  0  0  0
  160.9250  202.0260  149.2020 C   0  0  0  0  0  3  0  0  0  0  0  0
  161.4010  207.0790  151.0690 C   0  0  0  0  0  3  0  0  0  0  0  0
  160.7300  202.7530  151.5310 C   0  0  0  0  0  3  0  0  0  0  0  0
  161.5490  205.2620  147.8920 C   0  0  0  0  0  0  0  0  0  0  0  0
  161.3950  203.9070  147.6070 C   0  0  0  0  0  3  0  0  0  0  0  0
  161.9280  209.1820  149.2680 C   0  0  0  0  0  0  0  0  0  0  0  0
  160.9650  204.0870  151.1580 C   0  0  0  0  0  3  0  0  0  0  0  0
  161.7870  209.4240  150.6380 C   0  0  0  0  0  3  0  0  0  0  0  0
  161.8010  207.8530  148.7890 C   0  0  0  0  0  0  0  0  0  0  0  0
  160.6980  207.8120  155.2760 C   0  0  0  0  0  0  0  0  0  0  0  0
  160.2080  206.7460  156.0170 O   0  0  0  0  0  1  0  0  0  0  0  0
  160.9740  208.8950  155.8560 O   0  0  0  0  0  0  0  0  0  0  0  0
  161.3820  208.6760  152.9820 C   0  0  0  0  0  0  0  0  0  0  0  0
  160.8840  207.6620  153.8650 N   0  0  0  0  0  2  0  0  0  0  0  0
  161.6970  209.8130  153.4290 O   0  0  0  0  0  0  0  0  0  0  0  0
  162.1900  210.2930  148.4510 O   0  0  0  0  0  0  0  0  0  0  0  0
  162.0170  211.6500  148.8340 C   0  0  0  0  0  1  0  0  0  0  0  0
  1  2  1  0  0  0  0
  1  4  1  0  0  0  0
  2 10  1  0  0  0  0
  3  7  2  0  0  0  0
  3 12  1  0  0  0  0
  4 15  1  0  0  0  0
  5 21  1  0  0  0  0
  6 11  1  0  0  0  0
  7 17  1  0  0  0  0
  8  9  1  0  0  0  0
  8  4  2  0  0  0  0
  9  6  2  0  0  0  0
 10  5  2  0  0  0  0
 12  1  1  0  0  0  0
 13 12  2  0  0  0  0
 13  8  1  0  0  0  0
 14 16  2  0  0  0  0
 15 11  2  0  0  0  0
 16  5  1  0  0  0  0
 17 14  1  0  0  0  0
 17  2  2  0  0  0  0
 18 20  2  0  0  0  0
 18 19  1  0  0  0  0
 21 23  2  0  0  0  0
 21 22  1  0  0  0  0
 22 18  1  0  0  0  0
 24 25  1  0  0  0  0
 24 14  1  0  0  0  0
M  END
>  <MODEL>
2

>  <REMARK>
 VINA RESULT:      -9.9      1.028      1.365
  Name = 
  2 active torsions:
  status: ('A' for Active; 'I' for Inactive)
    1  A    between atoms: C_6  and  C_15
    2  A    between atoms: O_13  and  C_20
                            x       y       z     vdW  Elec       q    Type
                         _______ _______ _______ _____ _____    ______ ____

>  <TORSDO>
F 2

$$$$
=
 OpenBabel11052422173D

 25 28  0  0  0  0  0  0  0  0999 V2000
  161.1520  204.1300  149.9220 N   0  0  0  0  0  0  0  0  0  0  0  0
  161.3330  205.3730  150.4540 C   0  0  0  0  0  0  0  0  0  0  0  0
  160.8040  203.1690  152.0690 C   0  0  0  0  0  3  0  0  0  0  0  0
  161.1740  203.6820  148.6540 C   0  0  0  0  0  0  0  0  0  0  0  0
  161.7790  207.7500  150.2350 C   0  0  0  0  0  0  0  0  0  0  0  0
  161.1200  202.3040  146.2490 C   0  0  0  0  0  3  0  0  0  0  0  0
  160.9820  204.4030  152.6200 N   0  0  0  0  0  0  0  0  0  0  0  0
  160.9300  202.3270  148.6380 C   0  0  0  0  0  0  0  0  0  0  0  0
  160.8960  201.6040  147.4480 C   0  0  0  0  0  3  0  0  0  0  0  0
  161.5980  206.4900  149.6560 C   0  0  0  0  0  3  0  0  0  0  0  0
  161.3690  203.6930  146.2640 C   0  0  0  0  0  3  0  0  0  0  0  0
  160.8950  203.0470  150.6880 C   0  0  0  0  0  0  0  0  0  0  0  0
  160.7450  201.8820  149.9380 C   0  0  0  0  0  3  0  0  0  0  0  0
  161.4260  206.7890  152.4530 C   0  0  0  0  0  0  0  0  0  0  0  0
  161.3990  204.4010  147.4780 C   0  0  0  0  0  3  0  0  0  0  0  0
  161.6900  207.8850  151.6250 C   0  0  0  0  0  3  0  0  0  0  0  0
  161.2440  205.5120  151.8630 C   0  0  0  0  0  0  0  0  0  0  0  0
  161.8900  211.4490  149.1130 C   0  0  0  0  0  0  0  0  0  0  0  0
  161.4700  212.6520  149.6630 O   0  0  0  0  0  1  0  0  0  0  0  0
  162.4540  211.4450  147.9870 O   0  0  0  0  0  0  0  0  0  0  0  0
  162.0590  208.9240  149.3890 C   0  0  0  0  0  0  0  0  0  0  0  0
  161.6760  210.2320  149.8360 N   0  0  0  0  0  2  0  0  0  0  0  0
  162.6340  208.7730  148.2760 O   0  0  0  0  0  0  0  0  0  0  0  0
  161.3590  207.0380  153.8330 O   0  0  0  0  0  0  0  0  0  0  0  0
  160.9400  208.2580  154.4260 C   0  0  0  0  0  1  0  0  0  0  0  0
  1  2  1  0  0  0  0
  1 12  1  0  0  0  0
  2 17  1  0  0  0  0
  3  7  2  0  0  0  0
  4  1  1  0  0  0  0
  5 16  2  0  0  0  0
  6 11  2  0  0  0  0
  6  9  1  0  0  0  0
  8  4  1  0  0  0  0
  8 13  1  0  0  0  0
  9  8  2  0  0  0  0
 10  5  1  0  0  0  0
 10  2  2  0  0  0  0
 11 15  1  0  0  0  0
 12  3  1  0  0  0  0
 13 12  2  0  0  0  0
 14 24  1  0  0  0  0
 15  4  2  0  0  0  0
 16 14  1  0  0  0  0
 17 14  2  0  0  0  0
 17  7  1  0  0  0  0
 18 19  1  0  0  0  0
 18 22  1  0  0  0  0
 20 18  2  0  0  0  0
 21 22  1  0  0  0  0
 21  5  1  0  0  0  0
 23 21  2  0  0  0  0
 24 25  1  0  0  0  0
M  END
>  <MODEL>
3

>  <REMARK>
 VINA RESULT:      -9.8      1.650      4.378
  Name = 
  2 active torsions:
  status: ('A' for Active; 'I' for Inactive)
    1  A    between atoms: C_6  and  C_15
    2  A    between atoms: O_13  and  C_20
                            x       y       z     vdW  Elec       q    Type
                         _______ _______ _______ _____ _____    ______ ____

>  <TORSDO>
F 2

$$$$
=
 OpenBabel11052422173D

 25 28  0  0  0  0  0  0  0  0999 V2000
  161.2730  204.5230  149.3250 N   0  0  0  0  0  0  0  0  0  0  0  0
  161.3650  205.5340  150.2370 C   0  0  0  0  0  0  0  0  0  0  0  0
  160.7960  202.9230  151.0180 C   0  0  0  0  0  3  0  0  0  0  0  0
  161.4100  204.5050  147.9870 C   0  0  0  0  0  0  0  0  0  0  0  0
  161.7360  207.8610  150.8230 C   0  0  0  0  0  0  0  0  0  0  0  0
  161.5970  203.9660  145.2740 C   0  0  0  0  0  3  0  0  0  0  0  0
  160.8830  203.9180  151.9450 N   0  0  0  0  0  0  0  0  0  0  0  0
  161.2210  203.2230  147.5210 C   0  0  0  0  0  0  0  0  0  0  0  0
  161.3070  202.9170  146.1650 C   0  0  0  0  0  3  0  0  0  0  0  0
  161.6490  206.8500  149.8610 C   0  0  0  0  0  3  0  0  0  0  0  0
  161.7910  205.2800  145.7500 C   0  0  0  0  0  3  0  0  0  0  0  0
  160.9980  203.2490  149.6820 C   0  0  0  0  0  0  0  0  0  0  0  0
  160.9520  202.3840  148.5920 C   0  0  0  0  0  3  0  0  0  0  0  0
  161.2470  206.2380  152.5830 C   0  0  0  0  0  0  0  0  0  0  0  0
  161.6990  205.5640  147.1240 C   0  0  0  0  0  3  0  0  0  0  0  0
  161.5330  207.5440  152.1710 C   0  0  0  0  0  3  0  0  0  0  0  0
  161.1610  205.2140  151.6050 C   0  0  0  0  0  0  0  0  0  0  0  0
  161.8530  211.0380  148.6220 C   0  0  0  0  0  0  0  0  0  0  0  0
  161.4010  211.3670  147.3520 O   0  0  0  0  0  0  0  0  0  0  0  0
  162.4580  211.9040  149.3080 O   0  0  0  0  0  1  0  0  0  0  0  0
  162.0360  209.2470  150.4210 C   0  0  0  0  0  0  0  0  0  0  0  0
  161.6250  209.7200  149.1310 N   0  0  0  0  0  2  0  0  0  0  0  0
  162.6530  210.0100  151.2140 O   0  0  0  0  0  0  0  0  0  0  0  0
  161.0640  206.0320  153.9590 O   0  0  0  0  0  0  0  0  0  0  0  0
  160.5980  207.0090  154.8790 C   0  0  0  0  0  1  0  0  0  0  0  0
  1 12  1  0  0  0  0
  1  2  1  0  0  0  0
  2 17  1  0  0  0  0
  3  7  2  0  0  0  0
  4  1  1  0  0  0  0
  5 16  2  0  0  0  0
  6 11  2  0  0  0  0
  6  9  1  0  0  0  0
  8  4  1  0  0  0  0
  8 13  1  0  0  0  0
  9  8  2  0  0  0  0
 10  2  2  0  0  0  0
 10  5  1  0  0  0  0
 11 15  1  0  0  0  0
 12  3  1  0  0  0  0
 13 12  2  0  0  0  0
 14 24  1  0  0  0  0
 15  4  2  0  0  0  0
 16 14  1  0  0  0  0
 17  7  1  0  0  0  0
 17 14  2  0  0  0  0
 18 22  1  0  0  0  0
 18 20  1  0  0  0  0
 19 18  2  0  0  0  0
 21  5  1  0  0  0  0
 21 23  2  0  0  0  0
 22 21  1  0  0  0  0
 24 25  1  0  0  0  0
M  END
>  <MODEL>
4

>  <REMARK>
 VINA RESULT:      -9.6      1.815      4.551
  Name = 
  2 active torsions:
  status: ('A' for Active; 'I' for Inactive)
    1  A    between atoms: C_6  and  C_15
    2  A    between atoms: O_13  and  C_20
                            x       y       z     vdW  Elec       q    Type
                         _______ _______ _______ _____ _____    ______ ____

>  <TORSDO>
F 2

$$$$
=
 OpenBabel11052422173D

 25 28  0  0  0  0  0  0  0  0999 V2000
  161.4420  208.0000  151.2190 N   0  0  0  0  0  0  0  0  0  0  0  0
  161.4540  207.0530  150.2370 C   0  0  0  0  0  0  0  0  0  0  0  0
  161.9830  209.7270  149.6770 C   0  0  0  0  0  3  0  0  0  0  0  0
  161.2060  207.9210  152.5400 C   0  0  0  0  0  0  0  0  0  0  0  0
  161.2110  204.7610  149.4700 C   0  0  0  0  0  0  0  0  0  0  0  0
  160.8020  208.2640  155.2610 C   0  0  0  0  0  3  0  0  0  0  0  0
  161.9990  208.7970  148.6820 N   0  0  0  0  0  0  0  0  0  0  0  0
  161.3140  209.1730  153.1040 C   0  0  0  0  0  0  0  0  0  0  0  0
  161.1170  209.3810  154.4670 C   0  0  0  0  0  3  0  0  0  0  0  0
  161.1900  205.7060  150.5020 C   0  0  0  0  0  3  0  0  0  0  0  0
  160.6910  206.9810  154.6850 C   0  0  0  0  0  3  0  0  0  0  0  0
  161.6960  209.3030  150.9690 C   0  0  0  0  0  0  0  0  0  0  0  0
  161.6300  210.0920  152.1150 C   0  0  0  0  0  3  0  0  0  0  0  0
  161.7670  206.5170  147.8650 C   0  0  0  0  0  0  0  0  0  0  0  0
  160.8940  206.7960  153.3070 C   0  0  0  0  0  3  0  0  0  0  0  0
  161.4980  205.1770  148.1650 C   0  0  0  0  0  3  0  0  0  0  0  0
  161.7460  207.4720  148.9130 C   0  0  0  0  0  0  0  0  0  0  0  0
  161.0320  200.9370  148.9290 C   0  0  0  0  0  0  0  0  0  0  0  0
  161.3900  200.0760  147.9010 O   0  0  0  0  0  0  0  0  0  0  0  0
  160.5210  200.4690  149.9800 O   0  0  0  0  0  1  0  0  0  0  0  0
  160.9320  203.3420  149.7550 C   0  0  0  0  0  0  0  0  0  0  0  0
  161.2510  202.3430  148.7770 N   0  0  0  0  0  2  0  0  0  0  0  0
  160.4130  203.0130  150.8570 O   0  0  0  0  0  0  0  0  0  0  0  0
  162.0430  206.8230  146.5230 O   0  0  0  0  0  0  0  0  0  0  0  0
  162.2600  205.8700  145.4930 C   0  0  0  0  0  1  0  0  0  0  0  0
  1  4  1  0  0  0  0
  2 10  1  0  0  0  0
  2  1  1  0  0  0  0
  3 12  1  0  0  0  0
  4  8  2  0  0  0  0
  4 15  1  0  0  0  0
  5 21  1  0  0  0  0
  5 10  2  0  0  0  0
  7 17  1  0  0  0  0
  7  3  2  0  0  0  0
  8  9  1  0  0  0  0
  9  6  2  0  0  0  0
 11  6  1  0  0  0  0
 12  1  1  0  0  0  0
 12 13  2  0  0  0  0
 13  8  1  0  0  0  0
 14 16  2  0  0  0  0
 14 17  1  0  0  0  0
 15 11  2  0  0  0  0
 16  5  1  0  0  0  0
 17  2  2  0  0  0  0
 18 20  1  0  0  0  0
 19 18  2  0  0  0  0
 21 23  2  0  0  0  0
 22 18  1  0  0  0  0
 22 21  1  0  0  0  0
 24 14  1  0  0  0  0
 25 24  1  0  0  0  0
M  END
>  <MODEL>
5

>  <REMARK>
 VINA RESULT:      -9.4      2.778      6.477
  Name = 
  2 active torsions:
  status: ('A' for Active; 'I' for Inactive)
    1  A    between atoms: C_6  and  C_15
    2  A    between atoms: O_13  and  C_20
                            x       y       z     vdW  Elec       q    Type
                         _______ _______ _______ _____ _____    ______ ____

>  <TORSDO>
F 2

$$$$
=
 OpenBabel11052422173D

 25 28  0  0  0  0  0  0  0  0999 V2000
  161.2600  205.8230  151.3480 N   0  0  0  0  0  0  0  0  0  0  0  0
  161.4260  207.1700  151.4910 C   0  0  0  0  0  0  0  0  0  0  0  0
  161.0810  205.5110  153.6990 C   0  0  0  0  0  3  0  0  0  0  0  0
  161.2210  205.0330  150.2610 C   0  0  0  0  0  0  0  0  0  0  0  0
  161.7670  209.3930  150.5750 C   0  0  0  0  0  0  0  0  0  0  0  0
  161.0730  203.0230  148.3570 C   0  0  0  0  0  3  0  0  0  0  0  0
  161.2450  206.8540  153.8620 N   0  0  0  0  0  0  0  0  0  0  0  0
  161.0290  203.7250  150.6480 C   0  0  0  0  0  0  0  0  0  0  0  0
  160.9500  202.6910  149.7180 C   0  0  0  0  0  3  0  0  0  0  0  0
  161.6000  208.0170  150.3920 C   0  0  0  0  0  3  0  0  0  0  0  0
  161.2700  204.3630  147.9590 C   0  0  0  0  0  3  0  0  0  0  0  0
  161.0910  205.0000  152.4060 C   0  0  0  0  0  0  0  0  0  0  0  0
  160.9400  203.6670  152.0310 C   0  0  0  0  0  3  0  0  0  0  0  0
  161.5870  209.1000  152.9940 C   0  0  0  0  0  0  0  0  0  0  0  0
  161.3470  205.3890  148.9170 C   0  0  0  0  0  3  0  0  0  0  0  0
  161.7590  209.9190  151.8730 C   0  0  0  0  0  3  0  0  0  0  0  0
  161.4180  207.7050  152.8050 C   0  0  0  0  0  0  0  0  0  0  0  0
  161.9110  212.6640  148.5170 C   0  0  0  0  0  0  0  0  0  0  0  0
  161.7020  214.0060  148.7970 O   0  0  0  0  0  1  0  0  0  0  0  0
  162.2280  212.3150  147.3490 O   0  0  0  0  0  0  0  0  0  0  0  0
  161.9510  210.2820  149.4130 C   0  0  0  0  0  0  0  0  0  0  0  0
  161.7640  211.6960  149.5620 N   0  0  0  0  0  2  0  0  0  0  0  0
  162.2700  209.7940  148.2940 O   0  0  0  0  0  0  0  0  0  0  0  0
  161.5950  209.7320  154.2470 O   0  0  0  0  0  0  0  0  0  0  0  0
  161.1070  211.0400  154.5090 C   0  0  0  0  0  1  0  0  0  0  0  0
  1  2  1  0  0  0  0
  1 12  1  0  0  0  0
  2 17  1  0  0  0  0
  3  7  2  0  0  0  0
  4  8  1  0  0  0  0
  4  1  1  0  0  0  0
  5 16  2  0  0  0  0
  6  9  1  0  0  0  0
  8 13  1  0  0  0  0
  9  8  2  0  0  0  0
 10  5  1  0  0  0  0
 10  2  2  0  0  0  0
 11  6  2  0  0  0  0
 11 15  1  0  0  0  0
 12  3  1  0  0  0  0
 13 12  2  0  0  0  0
 14 24  1  0  0  0  0
 15  4  2  0  0  0  0
 16 14  1  0  0  0  0
 17 14  2  0  0  0  0
 17  7  1  0  0  0  0
 18 19  1  0  0  0  0
 18 22  1  0  0  0  0
 20 18  2  0  0  0  0
 21 22  1  0  0  0  0
 21  5  1  0  0  0  0
 23 21  2  0  0  0  0
 24 25  1  0  0  0  0
M  END
>  <MODEL>
6

>  <REMARK>
 VINA RESULT:      -9.2      1.991      4.899
  Name = 
  2 active torsions:
  status: ('A' for Active; 'I' for Inactive)
    1  A    between atoms: C_6  and  C_15
    2  A    between atoms: O_13  and  C_20
                            x       y       z     vdW  Elec       q    Type
                         _______ _______ _______ _____ _____    ______ ____

>  <TORSDO>
F 2

$$$$
=
 OpenBabel11052422173D

 25 28  0  0  0  0  0  0  0  0999 V2000
  161.1280  205.4280  150.3460 N   0  0  0  0  0  0  0  0  0  0  0  0
  161.0360  206.3780  151.3210 C   0  0  0  0  0  0  0  0  0  0  0  0
  161.1370  203.6670  151.9440 C   0  0  0  0  0  3  0  0  0  0  0  0
  161.1880  205.5190  149.0050 C   0  0  0  0  0  0  0  0  0  0  0  0
  160.8880  208.6900  152.0490 C   0  0  0  0  0  0  0  0  0  0  0  0
  161.3360  205.1940  146.2560 C   0  0  0  0  0  3  0  0  0  0  0  0
  161.0440  204.6010  152.9330 N   0  0  0  0  0  0  0  0  0  0  0  0
  161.2750  204.2570  148.4610 C   0  0  0  0  0  0  0  0  0  0  0  0
  161.3510  204.0580  147.0850 C   0  0  0  0  0  3  0  0  0  0  0  0
  160.9830  207.7430  151.0240 C   0  0  0  0  0  3  0  0  0  0  0  0
  161.2460  206.4880  146.8130 C   0  0  0  0  0  3  0  0  0  0  0  0
  161.1790  204.1080  150.6260 C   0  0  0  0  0  0  0  0  0  0  0  0
  161.2720  203.3180  149.4820 C   0  0  0  0  0  3  0  0  0  0  0  0
  160.8950  206.9010  153.7120 C   0  0  0  0  0  0  0  0  0  0  0  0
  161.1710  206.6630  148.2050 C   0  0  0  0  0  3  0  0  0  0  0  0
  160.8440  208.2580  153.3800 C   0  0  0  0  0  3  0  0  0  0  0  0
  160.9920  205.9430  152.6710 C   0  0  0  0  0  0  0  0  0  0  0  0
  159.7120  212.3720  152.1630 C   0  0  0  0  0  0  0  0  0  0  0  0
  158.7350  213.0670  152.8630 O   0  0  0  0  0  1  0  0  0  0  0  0
  160.4470  212.9880  151.3470 O   0  0  0  0  0  0  0  0  0  0  0  0
  160.8330  210.1290  151.7310 C   0  0  0  0  0  0  0  0  0  0  0  0
  159.8680  210.9660  152.3820 N   0  0  0  0  0  2  0  0  0  0  0  0
  161.6350  210.6150  150.8870 O   0  0  0  0  0  0  0  0  0  0  0  0
  160.8450  206.5790  155.0780 O   0  0  0  0  0  0  0  0  0  0  0  0
  160.1280  207.3070  156.0650 C   0  0  0  0  0  1  0  0  0  0  0  0
  1 12  1  0  0  0  0
  1  2  1  0  0  0  0
  2 17  1  0  0  0  0
  3  7  2  0  0  0  0
  4  1  1  0  0  0  0
  5 16  2  0  0  0  0
  6 11  2  0  0  0  0
  6  9  1  0  0  0  0
  8  4  1  0  0  0  0
  8 13  1  0  0  0  0
  9  8  2  0  0  0  0
 10  2  2  0  0  0  0
 10  5  1  0  0  0  0
 11 15  1  0  0  0  0
 12  3  1  0  0  0  0
 13 12  2  0  0  0  0
 14 24  1  0  0  0  0
 15  4  2  0  0  0  0
 16 14  1  0  0  0  0
 17  7  1  0  0  0  0
 17 14  2  0  0  0  0
 18 22  1  0  0  0  0
 18 19  1  0  0  0  0
 20 18  2  0  0  0  0
 21  5  1  0  0  0  0
 21 22  1  0  0  0  0
 23 21  2  0  0  0  0
 24 25  1  0  0  0  0
M  END
>  <MODEL>
7

>  <REMARK>
 VINA RESULT:      -8.9      2.128      4.413
  Name = 
  2 active torsions:
  status: ('A' for Active; 'I' for Inactive)
    1  A    between atoms: C_6  and  C_15
    2  A    between atoms: O_13  and  C_20
                            x       y       z     vdW  Elec       q    Type
                         _______ _______ _______ _____ _____    ______ ____

>  <TORSDO>
F 2

$$$$
=
 OpenBabel11052422173D

 25 28  0  0  0  0  0  0  0  0999 V2000
  161.5390  206.6750  149.5860 N   0  0  0  0  0  0  0  0  0  0  0  0
  161.6770  207.9900  149.9220 C   0  0  0  0  0  0  0  0  0  0  0  0
  161.2150  206.0420  151.8550 C   0  0  0  0  0  3  0  0  0  0  0  0
  161.5800  206.0410  148.4010 C   0  0  0  0  0  0  0  0  0  0  0  0
  162.0440  210.3200  149.3430 C   0  0  0  0  0  0  0  0  0  0  0  0
  161.5810  204.3110  146.2350 C   0  0  0  0  0  3  0  0  0  0  0  0
  161.3490  207.3500  152.2110 N   0  0  0  0  0  0  0  0  0  0  0  0
  161.3820  204.6910  148.5930 C   0  0  0  0  0  0  0  0  0  0  0  0
  161.3760  203.7950  147.5270 C   0  0  0  0  0  3  0  0  0  0  0  0
  161.9080  208.9800  148.9630 C   0  0  0  0  0  3  0  0  0  0  0  0
  161.7840  205.6930  146.0370 C   0  0  0  0  0  3  0  0  0  0  0  0
  161.3150  205.7130  150.5090 C   0  0  0  0  0  0  0  0  0  0  0  0
  161.2060  204.4440  149.9460 C   0  0  0  0  0  3  0  0  0  0  0  0
  161.7150  209.6970  151.6820 C   0  0  0  0  0  0  0  0  0  0  0  0
  161.7860  206.5780  147.1290 C   0  0  0  0  0  3  0  0  0  0  0  0
  161.9460  210.6620  150.6960 C   0  0  0  0  0  3  0  0  0  0  0  0
  161.5770  208.3400  151.2940 C   0  0  0  0  0  0  0  0  0  0  0  0
  161.3100  212.8300  146.4950 C   0  0  0  0  0  0  0  0  0  0  0  0
  160.1790  213.1920  145.7760 O   0  0  0  0  0  0  0  0  0  0  0  0
  162.4100  213.3880  146.2420 O   0  0  0  0  0  1  0  0  0  0  0  0
  162.2890  211.3600  148.3270 C   0  0  0  0  0  0  0  0  0  0  0  0
  161.2060  211.8280  147.5120 N   0  0  0  0  0  2  0  0  0  0  0  0
  163.4490  211.8340  148.1810 O   0  0  0  0  0  0  0  0  0  0  0  0
  161.6350  210.1500  153.0080 O   0  0  0  0  0  0  0  0  0  0  0  0
  160.6820  211.0830  153.4980 C   0  0  0  0  0  1  0  0  0  0  0  0
  1  2  1  0  0  0  0
  1 12  1  0  0  0  0
  2 17  1  0  0  0  0
  3  7  2  0  0  0  0
  4  8  1  0  0  0  0
  4  1  1  0  0  0  0
  5 16  2  0  0  0  0
  6  9  1  0  0  0  0
  8 13  1  0  0  0  0
  9  8  2  0  0  0  0
 10  5  1  0  0  0  0
 10  2  2  0  0  0  0
 11  6  2  0  0  0  0
 11 15  1  0  0  0  0
 12  3  1  0  0  0  0
 13 12  2  0  0  0  0
 14 24  1  0  0  0  0
 15  4  2  0  0  0  0
 16 14  1  0  0  0  0
 17 14  2  0  0  0  0
 17  7  1  0  0  0  0
 18 22  1  0  0  0  0
 19 18  2  0  0  0  0
 20 18  1  0  0  0  0
 21  5  1  0  0  0  0
 22 21  1  0  0  0  0
 23 21  2  0  0  0  0
 24 25  1  0  0  0  0
M  END
>  <MODEL>
8

>  <REMARK>
 VINA RESULT:      -8.8      2.189      5.359
  Name = 
  2 active torsions:
  status: ('A' for Active; 'I' for Inactive)
    1  A    between atoms: C_6  and  C_15
    2  A    between atoms: O_13  and  C_20
                            x       y       z     vdW  Elec       q    Type
                         _______ _______ _______ _____ _____    ______ ____

>  <TORSDO>
F 2

$$$$
=
 OpenBabel11052422173D

 25 28  0  0  0  0  0  0  0  0999 V2000
  161.2610  208.3070  152.6320 N   0  0  0  0  0  0  0  0  0  0  0  0
  161.3380  207.4310  151.5880 C   0  0  0  0  0  0  0  0  0  0  0  0
  161.8470  210.1460  151.2430 C   0  0  0  0  0  3  0  0  0  0  0  0
  160.9610  208.1320  153.9310 C   0  0  0  0  0  0  0  0  0  0  0  0
  161.1730  205.1960  150.6530 C   0  0  0  0  0  0  0  0  0  0  0  0
  160.4180  208.2770  156.6460 C   0  0  0  0  0  3  0  0  0  0  0  0
  161.9290  209.2880  150.1880 N   0  0  0  0  0  0  0  0  0  0  0  0
  161.0190  209.3420  154.5850 C   0  0  0  0  0  0  0  0  0  0  0  0
  160.7520  209.4510  155.9480 C   0  0  0  0  0  3  0  0  0  0  0  0
  161.0850  206.0650  151.7450 C   0  0  0  0  0  3  0  0  0  0  0  0
  160.3570  207.0360  155.9770 C   0  0  0  0  0  3  0  0  0  0  0  0
  161.5040  209.6270  152.4870 C   0  0  0  0  0  0  0  0  0  0  0  0
  161.3680  210.3330  153.6800 C   0  0  0  0  0  3  0  0  0  0  0  0
  161.7770  207.0680  149.2040 C   0  0  0  0  0  0  0  0  0  0  0  0
  160.6320  206.9520  154.6010 C   0  0  0  0  0  3  0  0  0  0  0  0
  161.5180  205.7070  149.3960 C   0  0  0  0  0  3  0  0  0  0  0  0
  161.6880  207.9470  150.3130 C   0  0  0  0  0  0  0  0  0  0  0  0
  160.7510  201.4660  149.7240 C   0  0  0  0  0  0  0  0  0  0  0  0
  160.8650  200.7300  148.5530 O   0  0  0  0  0  0  0  0  0  0  0  0
  160.4440  200.8820  150.7970 O   0  0  0  0  0  1  0  0  0  0  0  0
  160.9050  203.7570  150.8230 C   0  0  0  0  0  0  0  0  0  0  0  0
  160.9870  202.8780  149.6930 N   0  0  0  0  0  2  0  0  0  0  0  0
  160.6060  203.3050  151.9630 O   0  0  0  0  0  0  0  0  0  0  0  0
  162.1140  207.4720  147.9020 O   0  0  0  0  0  0  0  0  0  0  0  0
  162.0400  206.6520  146.7450 C   0  0  0  0  0  1  0  0  0  0  0  0
  1  4  1  0  0  0  0
  2 10  1  0  0  0  0
  2  1  1  0  0  0  0
  3 12  1  0  0  0  0
  4  8  2  0  0  0  0
  4 15  1  0  0  0  0
  5 21  1  0  0  0  0
  5 10  2  0  0  0  0
  7 17  1  0  0  0  0
  7  3  2  0  0  0  0
  8  9  1  0  0  0  0
  9  6  2  0  0  0  0
 11  6  1  0  0  0  0
 12  1  1  0  0  0  0
 12 13  2  0  0  0  0
 13  8  1  0  0  0  0
 14 16  2  0  0  0  0
 14 17  1  0  0  0  0
 15 11  2  0  0  0  0
 16  5  1  0  0  0  0
 17  2  2  0  0  0  0
 18 20  1  0  0  0  0
 19 18  2  0  0  0  0
 21 23  2  0  0  0  0
 22 18  1  0  0  0  0
 22 21  1  0  0  0  0
 24 14  1  0  0  0  0
 25 24  1  0  0  0  0
M  END
>  <MODEL>
9

>  <REMARK>
 VINA RESULT:      -8.8      2.597      6.645
  Name = 
  2 active torsions:
  status: ('A' for Active; 'I' for Inactive)
    1  A    between atoms: C_6  and  C_15
    2  A    between atoms: O_13  and  C_20
                            x       y       z     vdW  Elec       q    Type
                         _______ _______ _______ _____ _____    ______ ____

>  <TORSDO>
F 2

$$$$
