=
 OpenBabel11062410483D

 32 36  0  0  1  0  0  0  0  0999 V2000
  161.0950  209.7640  154.9010 C   0  0  1  0  0  3  0  0  0  0  0  0
  161.1070  206.9890  150.5890 C   0  0  0  0  0  0  0  0  0  0  0  0
  160.9050  202.3930  152.1300 C   0  0  0  0  0  3  0  0  0  0  0  0
  160.8210  201.9620  150.8060 C   0  0  0  0  0  3  0  0  0  0  0  0
  161.2750  208.8050  152.1750 C   0  0  0  0  0  0  0  0  0  0  0  0
  161.1830  206.5350  152.9400 N   0  0  0  0  0  0  0  0  0  0  0  0
  161.4050  208.2830  154.6620 C   0  0  0  0  0  2  0  0  0  0  0  0
  161.0030  203.7570  152.4180 C   0  0  0  0  0  3  0  0  0  0  0  0
  161.1060  206.0740  151.6590 C   0  0  0  0  0  0  0  0  0  0  0  0
  161.0190  204.7020  151.3820 C   0  0  0  0  0  0  0  0  0  0  0  0
  160.9630  205.2220  148.9980 C   0  0  0  0  0  0  0  0  0  0  0  0
  161.7700  210.6300  153.8380 C   0  0  0  0  0  2  0  0  0  0  0  0
  161.2520  207.8630  153.2250 C   0  0  0  0  0  0  0  0  0  0  0  0
  161.2740  210.2830  152.4340 C   0  0  0  0  0  2  0  0  0  0  0  0
  160.8380  202.8920  149.7630 C   0  0  0  0  0  3  0  0  0  0  0  0
  160.9400  204.2660  150.0370 C   0  0  0  0  0  0  0  0  0  0  0  0
  161.1850  208.3540  150.8570 C   0  0  0  0  0  3  0  0  0  0  0  0
  161.0300  206.5460  149.3080 N   0  0  0  0  0  0  0  0  0  0  0  0
  161.8360  203.6960  147.2510 C   0  0  2  0  0  3  0  0  0  0  0  0
  160.8490  204.8110  147.5550 C   0  0  2  0  0  3  0  0  0  0  0  0
  162.1290  205.1290  146.7970 C   0  0  2  0  0  3  0  0  0  0  0  0
  161.2540  202.7830  146.1790 C   0  0  0  0  0  2  0  0  0  0  0  0
  160.9770  201.4180  146.7710 C   0  0  0  0  0  1  0  0  0  0  0  0
  162.9230  205.9900  144.7070 O   0  0  0  0  0  1  0  0  0  0  0  0
  161.8070  205.4300  145.3330 C   0  0  2  0  0  3  0  0  0  0  0  0
  160.6190  206.3770  145.2220 C   0  0  0  0  0  2  0  0  0  0  0  0
  159.4460  205.6690  144.9520 O   0  0  0  0  0  1  0  0  0  0  0  0
  159.1690  211.1810  155.2950 N   0  0  0  0  0  0  0  0  0  0  0  0
  159.6220  210.0170  154.9590 C   0  0  0  0  0  3  0  0  0  0  0  0
  157.7700  211.4630  155.3650 C   0  0  0  0  0  0  0  0  0  0  0  0
  157.1560  211.8020  156.6760 C   0  0  0  0  0  1  0  0  0  0  0  0
  157.0480  211.4270  154.3310 O   0  0  0  0  0  0  0  0  0  0  0  0
  1 29  1  6  0  0  0
  2 17  2  0  0  0  0
  2  9  1  0  0  0  0
  3  8  1  0  0  0  0
  4  3  2  0  0  0  0
  5 14  1  0  0  0  0
  5 13  2  0  0  0  0
  6 13  1  0  0  0  0
  7  1  1  0  0  0  0
  9  6  2  0  0  0  0
 10  9  1  0  0  0  0
 10  8  2  0  0  0  0
 11 18  2  0  0  0  0
 11 16  1  0  0  0  0
 12  1  1  0  0  0  0
 13  7  1  0  0  0  0
 14 12  1  0  0  0  0
 15 16  2  0  0  0  0
 15  4  1  0  0  0  0
 16 10  1  0  0  0  0
 17  5  1  0  0  0  0
 18  2  1  0  0  0  0
 19 22  1  6  0  0  0
 19 20  1  0  0  0  0
 20 11  1  1  0  0  0
 21 25  1  6  0  0  0
 21 19  1  0  0  0  0
 21 20  1  0  0  0  0
 22 23  1  0  0  0  0
 25 24  1  1  0  0  0
 26 25  1  0  0  0  0
 27 26  1  0  0  0  0
 28 30  1  0  0  0  0
 29 28  2  0  0  0  0
 30 31  1  0  0  0  0
 32 30  2  0  0  0  0
M  END
>  <MODEL>
1

>  <REMARK>
 VINA RESULT:      -8.8      0.000      0.000
  Name = 
  6 active torsions:
  status: ('A' for Active; 'I' for Inactive)
    1  A    between atoms: C_1  and  N_10
    2  A    between atoms: C_2  and  C_24
    3  A    between atoms: C_6  and  C_7
    4  A    between atoms: C_11  and  C_22
    5  A    between atoms: C_16  and  C_27
    6  A    between atoms: C_22  and  C_32
                            x       y       z     vdW  Elec       q    Type
                         _______ _______ _______ _____ _____    ______ ____

>  <TORSDO>
F 6

$$$$
=
 OpenBabel11062410483D

 32 36  0  0  1  0  0  0  0  0999 V2000
  161.1780  209.6790  153.7070 C   0  0  1  0  0  3  0  0  0  0  0  0
  161.7100  206.6590  149.5980 C   0  0  0  0  0  0  0  0  0  0  0  0
  160.4190  202.2580  151.1790 C   0  0  0  0  0  3  0  0  0  0  0  0
  160.5670  201.7580  149.8840 C   0  0  0  0  0  3  0  0  0  0  0  0
  161.8100  208.5280  151.1270 C   0  0  0  0  0  0  0  0  0  0  0  0
  161.1790  206.3530  151.9130 N   0  0  0  0  0  0  0  0  0  0  0  0
  161.2880  208.1560  153.5890 C   0  0  0  0  0  2  0  0  0  0  0  0
  160.6700  203.6060  151.4430 C   0  0  0  0  0  3  0  0  0  0  0  0
  161.3190  205.8260  150.6640 C   0  0  0  0  0  0  0  0  0  0  0  0
  161.0740  204.4680  150.4130 C   0  0  0  0  0  0  0  0  0  0  0  0
  161.6420  204.8340  148.0680 C   0  0  0  0  0  0  0  0  0  0  0  0
  162.2080  210.3610  152.8070 C   0  0  0  0  0  2  0  0  0  0  0  0
  161.3970  207.6710  152.1690 C   0  0  0  0  0  0  0  0  0  0  0  0
  161.9920  210.0020  151.3360 C   0  0  0  0  0  2  0  0  0  0  0  0
  160.9700  202.6050  148.8490 C   0  0  0  0  0  3  0  0  0  0  0  0
  161.2300  203.9630  149.0990 C   0  0  0  0  0  0  0  0  0  0  0  0
  161.9480  208.0110  149.8380 C   0  0  0  0  0  3  0  0  0  0  0  0
  161.8530  206.1500  148.3470 N   0  0  0  0  0  0  0  0  0  0  0  0
  161.3890  205.4520  145.6800 C   0  0  2  0  0  3  0  0  0  0  0  0
  161.7920  204.3520  146.6500 C   0  0  2  0  0  3  0  0  0  0  0  0
  160.4410  204.2810  145.9540 C   0  0  2  0  0  3  0  0  0  0  0  0
  162.2160  205.3310  144.4070 C   0  0  0  0  0  2  0  0  0  0  0  0
  161.4320  205.8910  143.2380 C   0  0  0  0  0  1  0  0  0  0  0  0
  159.2640  203.1940  144.1730 O   0  0  0  0  0  1  0  0  0  0  0  0
  160.4530  203.1690  144.9050 C   0  0  2  0  0  3  0  0  0  0  0  0
  160.6340  201.8060  145.5590 C   0  0  0  0  0  2  0  0  0  0  0  0
  159.9780  200.8150  144.8260 O   0  0  0  0  0  1  0  0  0  0  0  0
  159.3900  211.3090  153.8410 N   0  0  0  0  0  0  0  0  0  0  0  0
  159.7920  210.1560  153.4130 C   0  0  0  0  0  3  0  0  0  0  0  0
  158.0730  211.8000  153.5850 C   0  0  0  0  0  0  0  0  0  0  0  0
  156.9640  211.4370  154.5050 C   0  0  0  0  0  1  0  0  0  0  0  0
  157.8380  212.5370  152.5880 O   0  0  0  0  0  0  0  0  0  0  0  0
  1 29  1  6  0  0  0
  2 17  2  0  0  0  0
  2  9  1  0  0  0  0
  3  8  1  0  0  0  0
  4  3  2  0  0  0  0
  5 14  1  0  0  0  0
  5 13  2  0  0  0  0
  6 13  1  0  0  0  0
  7  1  1  0  0  0  0
  9  6  2  0  0  0  0
 10  9  1  0  0  0  0
 10  8  2  0  0  0  0
 11 18  2  0  0  0  0
 11 16  1  0  0  0  0
 12  1  1  0  0  0  0
 13  7  1  0  0  0  0
 14 12  1  0  0  0  0
 15 16  2  0  0  0  0
 15  4  1  0  0  0  0
 16 10  1  0  0  0  0
 17  5  1  0  0  0  0
 18  2  1  0  0  0  0
 19 22  1  6  0  0  0
 19 21  1  0  0  0  0
 19 20  1  0  0  0  0
 20 11  1  1  0  0  0
 21 25  1  6  0  0  0
 21 20  1  0  0  0  0
 23 22  1  0  0  0  0
 25 24  1  1  0  0  0
 25 26  1  0  0  0  0
 27 26  1  0  0  0  0
 29 28  2  0  0  0  0
 30 28  1  0  0  0  0
 30 31  1  0  0  0  0
 32 30  2  0  0  0  0
M  END
>  <MODEL>
2

>  <REMARK>
 VINA RESULT:      -8.5      1.556      2.303
  Name = 
  6 active torsions:
  status: ('A' for Active; 'I' for Inactive)
    1  A    between atoms: C_1  and  N_10
    2  A    between atoms: C_2  and  C_24
    3  A    between atoms: C_6  and  C_7
    4  A    between atoms: C_11  and  C_22
    5  A    between atoms: C_16  and  C_27
    6  A    between atoms: C_22  and  C_32
                            x       y       z     vdW  Elec       q    Type
                         _______ _______ _______ _____ _____    ______ ____

>  <TORSDO>
F 6

$$$$
=
 OpenBabel11062410483D

 32 36  0  0  1  0  0  0  0  0999 V2000
  160.2850  210.1900  155.7940 C   0  0  1  0  0  3  0  0  0  0  0  0
  161.2900  207.8180  151.3610 C   0  0  0  0  0  0  0  0  0  0  0  0
  160.8870  203.0990  152.4170 C   0  0  0  0  0  3  0  0  0  0  0  0
  161.0990  202.7890  151.0730 C   0  0  0  0  0  3  0  0  0  0  0  0
  161.0670  209.4830  153.0980 C   0  0  0  0  0  0  0  0  0  0  0  0
  160.8750  207.1530  153.6240 N   0  0  0  0  0  0  0  0  0  0  0  0
  160.6780  208.7400  155.5000 C   0  0  0  0  0  2  0  0  0  0  0  0
  160.8840  204.4320  152.8370 C   0  0  0  0  0  3  0  0  0  0  0  0
  161.0850  206.8090  152.3220 C   0  0  0  0  0  0  0  0  0  0  0  0
  161.0960  205.4670  151.9150 C   0  0  0  0  0  0  0  0  0  0  0  0
  161.5350  206.2000  149.6290 C   0  0  0  0  0  0  0  0  0  0  0  0
  161.1470  211.1540  154.9800 C   0  0  0  0  0  2  0  0  0  0  0  0
  160.8460  208.4500  154.0320 C   0  0  0  0  0  0  0  0  0  0  0  0
  160.9720  210.9320  153.4780 C   0  0  0  0  0  2  0  0  0  0  0  0
  161.3130  203.8100  150.1440 C   0  0  0  0  0  3  0  0  0  0  0  0
  161.3170  205.1540  150.5510 C   0  0  0  0  0  0  0  0  0  0  0  0
  161.2730  209.1530  151.7570 C   0  0  0  0  0  3  0  0  0  0  0  0
  161.4990  207.4920  150.0600 N   0  0  0  0  0  0  0  0  0  0  0  0
  160.4630  206.2030  147.3940 C   0  0  2  0  0  3  0  0  0  0  0  0
  161.7430  205.9220  148.1650 C   0  0  2  0  0  3  0  0  0  0  0  0
  160.8750  204.7610  147.7030 C   0  0  2  0  0  3  0  0  0  0  0  0
  160.8130  206.6890  145.9930 C   0  0  0  0  0  2  0  0  0  0  0  0
  159.9110  206.0140  144.9820 C   0  0  0  0  0  1  0  0  0  0  0  0
  161.1470  202.6840  146.5390 O   0  0  0  0  0  1  0  0  0  0  0  0
  161.5640  204.0170  146.5590 C   0  0  2  0  0  3  0  0  0  0  0  0
  163.0800  204.0850  146.7020 C   0  0  0  0  0  2  0  0  0  0  0  0
  163.6570  204.6610  145.5690 O   0  0  0  0  0  1  0  0  0  0  0  0
  158.3150  211.6000  155.7350 N   0  0  0  0  0  0  0  0  0  0  0  0
  158.8270  210.4260  155.5560 C   0  0  0  0  0  3  0  0  0  0  0  0
  156.9270  211.8660  155.5220 C   0  0  0  0  0  0  0  0  0  0  0  0
  155.9690  210.7330  155.4360 C   0  0  0  0  0  1  0  0  0  0  0  0
  156.5030  213.0490  155.4080 O   0  0  0  0  0  0  0  0  0  0  0  0
  1 29  1  6  0  0  0
  2 17  2  0  0  0  0
  2  9  1  0  0  0  0
  3  8  1  0  0  0  0
  4  3  2  0  0  0  0
  5 14  1  0  0  0  0
  5 13  2  0  0  0  0
  6 13  1  0  0  0  0
  7  1  1  0  0  0  0
  9  6  2  0  0  0  0
 10  9  1  0  0  0  0
 10  8  2  0  0  0  0
 11 18  2  0  0  0  0
 11 16  1  0  0  0  0
 12  1  1  0  0  0  0
 13  7  1  0  0  0  0
 14 12  1  0  0  0  0
 15 16  2  0  0  0  0
 15  4  1  0  0  0  0
 16 10  1  0  0  0  0
 17  5  1  0  0  0  0
 18  2  1  0  0  0  0
 19 22  1  6  0  0  0
 19 21  1  0  0  0  0
 19 20  1  0  0  0  0
 20 11  1  1  0  0  0
 21 25  1  6  0  0  0
 21 20  1  0  0  0  0
 23 22  1  0  0  0  0
 25 24  1  1  0  0  0
 25 26  1  0  0  0  0
 27 26  1  0  0  0  0
 29 28  2  0  0  0  0
 30 28  1  0  0  0  0
 31 30  1  0  0  0  0
 32 30  2  0  0  0  0
M  END
>  <MODEL>
3

>  <REMARK>
 VINA RESULT:      -7.6      1.341      2.104
  Name = 
  6 active torsions:
  status: ('A' for Active; 'I' for Inactive)
    1  A    between atoms: C_1  and  N_10
    2  A    between atoms: C_2  and  C_24
    3  A    between atoms: C_6  and  C_7
    4  A    between atoms: C_11  and  C_22
    5  A    between atoms: C_16  and  C_27
    6  A    between atoms: C_22  and  C_32
                            x       y       z     vdW  Elec       q    Type
                         _______ _______ _______ _____ _____    ______ ____

>  <TORSDO>
F 6

$$$$
=
 OpenBabel11062410483D

 32 36  0  0  1  0  0  0  0  0999 V2000
  160.5290  210.5450  156.4860 C   0  0  1  0  0  3  0  0  0  0  0  0
  161.0890  207.0820  152.7460 C   0  0  0  0  0  0  0  0  0  0  0  0
  161.9860  209.7400  148.7870 C   0  0  0  0  0  3  0  0  0  0  0  0
  162.1770  208.5680  148.0540 C   0  0  0  0  0  3  0  0  0  0  0  0
  160.5850  208.1550  154.8520 C   0  0  0  0  0  0  0  0  0  0  0  0
  161.0200  209.4720  152.8960 N   0  0  0  0  0  0  0  0  0  0  0  0
  160.4690  210.6950  154.9630 C   0  0  0  0  0  2  0  0  0  0  0  0
  161.6610  209.6730  150.1440 C   0  0  0  0  0  3  0  0  0  0  0  0
  161.2070  208.3500  152.1440 C   0  0  0  0  0  0  0  0  0  0  0  0
  161.5220  208.4300  150.7800 C   0  0  0  0  0  0  0  0  0  0  0  0
  161.5630  205.9920  150.6810 C   0  0  0  0  0  0  0  0  0  0  0  0
  159.7540  209.3050  156.9320 C   0  0  0  0  0  2  0  0  0  0  0  0
  160.7290  209.4110  154.2230 C   0  0  0  0  0  0  0  0  0  0  0  0
  160.3390  208.0290  156.3260 C   0  0  0  0  0  2  0  0  0  0  0  0
  162.0400  207.3230  148.6740 C   0  0  0  0  0  3  0  0  0  0  0  0
  161.7090  207.2390  150.0370 C   0  0  0  0  0  0  0  0  0  0  0  0
  160.7840  206.9950  154.1020 C   0  0  0  0  0  3  0  0  0  0  0  0
  161.2740  205.9550  152.0120 N   0  0  0  0  0  0  0  0  0  0  0  0
  160.9700  204.6880  148.6580 C   0  0  2  0  0  3  0  0  0  0  0  0
  161.7830  204.6990  149.9430 C   0  0  2  0  0  3  0  0  0  0  0  0
  160.4980  203.8870  149.8740 C   0  0  2  0  0  3  0  0  0  0  0  0
  161.7110  203.8810  147.5990 C   0  0  0  0  0  2  0  0  0  0  0  0
  162.2890  204.8190  146.5600 C   0  0  0  0  0  1  0  0  0  0  0  0
  159.7230  201.6740  149.3820 O   0  0  0  0  0  1  0  0  0  0  0  0
  160.8270  202.3940  149.8420 C   0  0  2  0  0  3  0  0  0  0  0  0
  161.2320  201.8970  151.2240 C   0  0  0  0  0  2  0  0  0  0  0  0
  160.7980  202.7810  152.2150 O   0  0  0  0  0  1  0  0  0  0  0  0
  162.7900  211.4100  156.5930 N   0  0  0  0  0  0  0  0  0  0  0  0
  161.9390  210.5160  156.9820 C   0  0  0  0  0  3  0  0  0  0  0  0
  164.1470  211.4160  157.0410 C   0  0  0  0  0  0  0  0  0  0  0  0
  164.8430  212.7110  157.2520 C   0  0  0  0  0  1  0  0  0  0  0  0
  164.7620  210.3360  157.2610 O   0  0  0  0  0  0  0  0  0  0  0  0
  1 12  1  0  0  0  0
  1 29  1  6  0  0  0
  2 17  1  0  0  0  0
  3  8  1  0  0  0  0
  4 15  1  0  0  0  0
  4  3  2  0  0  0  0
  5 14  1  0  0  0  0
  6 13  2  0  0  0  0
  7  1  1  0  0  0  0
  8 10  2  0  0  0  0
  9  2  2  0  0  0  0
  9  6  1  0  0  0  0
 10  9  1  0  0  0  0
 11 18  2  0  0  0  0
 13  5  1  0  0  0  0
 13  7  1  0  0  0  0
 14 12  1  0  0  0  0
 15 16  2  0  0  0  0
 16 11  1  0  0  0  0
 16 10  1  0  0  0  0
 17  5  2  0  0  0  0
 18  2  1  0  0  0  0
 19 22  1  6  0  0  0
 19 21  1  0  0  0  0
 19 20  1  0  0  0  0
 20 11  1  1  0  0  0
 21 25  1  6  0  0  0
 21 20  1  0  0  0  0
 23 22  1  0  0  0  0
 25 24  1  1  0  0  0
 25 26  1  0  0  0  0
 26 27  1  0  0  0  0
 28 29  2  0  0  0  0
 28 30  1  0  0  0  0
 30 31  1  0  0  0  0
 30 32  2  0  0  0  0
M  END
>  <MODEL>
4

>  <REMARK>
 VINA RESULT:      -6.1      2.984      4.829
  Name = 
  6 active torsions:
  status: ('A' for Active; 'I' for Inactive)
    1  A    between atoms: C_1  and  N_10
    2  A    between atoms: C_2  and  C_24
    3  A    between atoms: C_6  and  C_7
    4  A    between atoms: C_11  and  C_22
    5  A    between atoms: C_16  and  C_27
    6  A    between atoms: C_22  and  C_32
                            x       y       z     vdW  Elec       q    Type
                         _______ _______ _______ _____ _____    ______ ____

>  <TORSDO>
F 6

$$$$
=
 OpenBabel11062410483D

 32 36  0  0  1  0  0  0  0  0999 V2000
  161.9930  211.9960  150.2410 C   0  0  1  0  0  3  0  0  0  0  0  0
  161.3150  207.0470  149.0870 C   0  0  0  0  0  0  0  0  0  0  0  0
  161.1440  204.8310  153.4000 C   0  0  0  0  0  3  0  0  0  0  0  0
  160.8650  203.6230  152.7590 C   0  0  0  0  0  3  0  0  0  0  0  0
  161.7650  209.4170  148.9460 C   0  0  0  0  0  0  0  0  0  0  0  0
  161.6900  208.3240  151.0780 N   0  0  0  0  0  0  0  0  0  0  0  0
  162.2100  210.7330  151.0780 C   0  0  0  0  0  2  0  0  0  0  0  0
  161.3330  205.9950  152.6510 C   0  0  0  0  0  3  0  0  0  0  0  0
  161.4230  207.1240  150.4890 C   0  0  0  0  0  0  0  0  0  0  0  0
  161.2460  205.9600  151.2510 C   0  0  0  0  0  0  0  0  0  0  0  0
  160.8870  204.7050  149.1890 C   0  0  0  0  0  0  0  0  0  0  0  0
  162.5510  211.8060  148.8300 C   0  0  0  0  0  2  0  0  0  0  0  0
  161.8480  209.4640  150.3540 C   0  0  0  0  0  0  0  0  0  0  0  0
  161.8570  210.6550  148.1030 C   0  0  0  0  0  2  0  0  0  0  0  0
  160.7770  203.5740  151.3650 C   0  0  0  0  0  3  0  0  0  0  0  0
  160.9690  204.7350  150.5980 C   0  0  0  0  0  0  0  0  0  0  0  0
  161.4810  208.2000  148.3230 C   0  0  0  0  0  3  0  0  0  0  0  0
  161.0470  205.8600  148.4840 N   0  0  0  0  0  0  0  0  0  0  0  0
  161.7630  202.4990  148.4720 C   0  0  2  0  0  3  0  0  0  0  0  0
  160.5640  203.4350  148.4500 C   0  0  2  0  0  3  0  0  0  0  0  0
  161.4280  203.2940  147.2060 C   0  0  2  0  0  3  0  0  0  0  0  0
  161.2770  201.0560  148.4770 C   0  0  0  0  0  2  0  0  0  0  0  0
  160.0440  200.9390  149.3480 C   0  0  0  0  0  1  0  0  0  0  0  0
  161.3320  201.3240  145.8450 O   0  0  0  0  0  1  0  0  0  0  0  0
  160.6680  202.5190  146.1290 C   0  0  2  0  0  3  0  0  0  0  0  0
  160.5260  203.3500  144.8600 C   0  0  0  0  0  2  0  0  0  0  0  0
  160.8940  204.6770  145.0940 O   0  0  0  0  0  1  0  0  0  0  0  0
  160.2040  213.5580  149.7570 N   0  0  0  0  0  0  0  0  0  0  0  0
  160.5530  212.3970  150.2090 C   0  0  0  0  0  3  0  0  0  0  0  0
  158.8400  213.9800  149.7130 C   0  0  0  0  0  0  0  0  0  0  0  0
  158.0810  213.8760  148.4400 C   0  0  0  0  0  1  0  0  0  0  0  0
  158.2700  214.4390  150.7410 O   0  0  0  0  0  0  0  0  0  0  0  0
  1 29  1  6  0  0  0
  1  7  1  0  0  0  0
  2  9  1  0  0  0  0
  4  3  1  0  0  0  0
  5 13  1  0  0  0  0
  8  3  2  0  0  0  0
  9  6  1  0  0  0  0
  9 10  2  0  0  0  0
 10  8  1  0  0  0  0
 11 16  2  0  0  0  0
 12  1  1  0  0  0  0
 13  7  1  0  0  0  0
 13  6  2  0  0  0  0
 14 12  1  0  0  0  0
 14  5  1  0  0  0  0
 15  4  2  0  0  0  0
 16 10  1  0  0  0  0
 16 15  1  0  0  0  0
 17  5  2  0  0  0  0
 17  2  1  0  0  0  0
 18  2  2  0  0  0  0
 18 11  1  0  0  0  0
 19 22  1  6  0  0  0
 20 19  1  0  0  0  0
 20 11  1  1  0  0  0
 21 25  1  6  0  0  0
 21 20  1  0  0  0  0
 21 19  1  0  0  0  0
 22 23  1  0  0  0  0
 25 24  1  6  0  0  0
 26 27  1  0  0  0  0
 26 25  1  0  0  0  0
 28 29  2  0  0  0  0
 30 28  1  0  0  0  0
 30 32  2  0  0  0  0
 31 30  1  0  0  0  0
M  END
>  <MODEL>
5

>  <REMARK>
 VINA RESULT:      -5.9      2.873      3.693
  Name = 
  6 active torsions:
  status: ('A' for Active; 'I' for Inactive)
    1  A    between atoms: C_1  and  N_10
    2  A    between atoms: C_2  and  C_24
    3  A    between atoms: C_6  and  C_7
    4  A    between atoms: C_11  and  C_22
    5  A    between atoms: C_16  and  C_27
    6  A    between atoms: C_22  and  C_32
                            x       y       z     vdW  Elec       q    Type
                         _______ _______ _______ _____ _____    ______ ____

>  <TORSDO>
F 6

$$$$
