=
 OpenBabel11062410203D

 43 49  0  0  1  0  0  0  0  0999 V2000
  162.3320  208.9560  150.6950 C   0  0  2  0  0  3  0  0  0  0  0  0
  160.9620  202.1580  149.2830 C   0  0  0  0  0  0  0  0  0  0  0  0
  160.9490  207.1720  149.4650 C   0  0  2  0  0  3  0  0  0  0  0  0
  161.1880  204.4950  148.6710 C   0  0  0  0  0  0  0  0  0  0  0  0
  161.1560  202.4840  150.6280 C   0  0  0  0  0  3  0  0  0  0  0  0
  160.7370  200.7440  148.8870 C   0  0  0  0  0  1  0  0  0  0  0  0
  161.3530  204.8250  150.0390 C   0  0  0  0  0  0  0  0  0  0  0  0
  160.9760  203.1610  148.3090 C   0  0  0  0  0  3  0  0  0  0  0  0
  161.3620  203.8130  151.0060 C   0  0  0  0  0  3  0  0  0  0  0  0
  161.3520  206.7700  151.7630 C   0  0  0  0  0  2  0  0  0  0  0  0
  161.6860  206.2420  150.3880 C   0  0  2  0  0  3  0  0  0  0  0  0
  161.4960  206.9860  148.0640 C   0  0  0  0  0  2  0  0  0  0  0  0
  160.9880  208.5660  150.0800 C   0  0  1  0  0  3  0  0  0  0  0  0
  161.2510  208.2860  151.5550 C   0  0  2  0  0  0  0  0  0  0  0  0
  161.1450  205.5600  147.5860 C   0  0  0  0  0  2  0  0  0  0  0  0
  159.6520  209.9980  152.0410 O   0  0  0  0  0  0  0  0  0  0  0  0
  160.4020  209.0960  152.4990 C   0  0  0  0  0  0  0  0  0  0  0  0
  160.4010  208.8480  153.8760 O   0  0  0  0  0  0  0  0  0  0  0  0
  158.5140  211.0030  155.1950 O   0  0  0  0  0  1  0  0  0  0  0  0
  159.7420  211.0810  155.8590 C   0  0  2  0  0  0  0  0  0  0  0  0
  161.2740  209.5230  154.7820 C   0  0  1  0  0  3  0  0  0  0  0  0
  160.7550  207.5580  156.3290 C   0  0  0  0  0  1  0  0  0  0  0  0
  160.9000  210.9920  154.8690 C   0  0  1  0  0  3  0  0  0  0  0  0
  159.9060  209.8730  156.7760 C   0  0  0  0  0  2  0  0  0  0  0  0
  160.6310  211.6400  153.5150 C   0  0  0  0  0  1  0  0  0  0  0  0
  161.0490  209.0450  156.2120 C   0  0  2  0  0  3  0  0  0  0  0  0
  158.0770  213.6330  155.3680 N   0  0  0  0  0  0  0  0  0  0  0  0
  159.0380  213.5150  156.4280 C   0  0  0  0  0  0  0  0  0  0  0  0
  159.8360  212.3340  156.6050 N   0  0  0  0  0  2  0  0  0  0  0  0
  155.7390  213.8720  154.7090 C   0  0  0  0  0  2  0  0  0  0  0  0
  157.2740  212.9300  153.1720 C   0  0  0  0  0  2  0  0  0  0  0  0
  156.1750  213.8780  153.3130 N   0  0  0  0  0  2  0  0  0  0  0  0
  158.4770  213.4020  153.9850 C   0  0  0  0  0  2  0  0  0  0  0  0
  156.8560  214.4010  155.6030 C   0  0  0  0  0  2  0  0  0  0  0  0
  159.1600  214.4530  157.2610 O   0  0  0  0  0  0  0  0  0  0  0  0
  162.3760  210.4700  150.8510 C   0  0  0  0  0  2  0  0  0  0  0  0
  162.8910  212.1200  147.4140 C   0  0  0  0  0  2  0  0  0  0  0  0
  160.0680  212.6200  148.7220 C   0  0  0  0  0  2  0  0  0  0  0  0
  160.7390  212.6530  147.3480 C   0  0  0  0  0  2  0  0  0  0  0  0
  163.2140  211.6770  148.8400 C   0  0  0  0  0  2  0  0  0  0  0  0
  161.9700  211.1440  149.5550 C   0  0  2  0  0  3  0  0  0  0  0  0
  162.0180  213.2150  147.4250 O   0  0  0  0  0  0  0  0  0  0  0  0
  161.0260  212.2990  149.8750 C   0  0  0  0  0  2  0  0  0  0  0  0
  1 36  1  1  0  0  0
  1 14  1  0  0  0  0
  2  5  1  0  0  0  0
  3 12  1  6  0  0  0
  3 13  1  0  0  0  0
  3 11  1  0  0  0  0
  4  7  2  0  0  0  0
  5  9  2  0  0  0  0
  6  2  1  0  0  0  0
  7 11  1  0  0  0  0
  7  9  1  0  0  0  0
  8  4  1  0  0  0  0
  8  2  2  0  0  0  0
 11 10  1  1  0  0  0
 13  1  1  0  0  0  0
 13 14  1  0  0  0  0
 14 10  1  0  0  0  0
 14 17  1  0  0  0  0
 15 12  1  0  0  0  0
 15  4  1  0  0  0  0
 16 17  2  0  0  0  0
 17 18  1  0  0  0  0
 18 21  1  0  0  0  0
 19 20  1  0  0  0  0
 20 29  1  0  0  0  0
 20 24  1  0  0  0  0
 21 23  1  0  0  0  0
 21 26  1  0  0  0  0
 23 20  1  0  0  0  0
 25 23  1  0  0  0  0
 26 22  1  0  0  0  0
 26 24  1  0  0  0  0
 27 34  1  0  0  0  0
 27 28  1  0  0  0  0
 28 29  1  0  0  0  0
 28 35  2  0  0  0  0
 30 34  1  0  0  0  0
 31 32  1  0  0  0  0
 31 33  1  0  0  0  0
 32 30  1  0  0  0  0
 33 27  1  0  0  0  0
 37 42  1  0  0  0  0
 37 40  1  0  0  0  0
 38 43  1  0  0  0  0
 39 42  1  0  0  0  0
 39 38  1  0  0  0  0
 40 41  1  0  0  0  0
 41 43  1  0  0  0  0
 41 36  1  0  0  0  0
M  END
>  <MODEL>
1

>  <REMARK>
 VINA RESULT:      -8.0      0.000      0.000
  Name = 
  6 active torsions:
  status: ('A' for Active; 'I' for Inactive)
    1  A    between atoms: C_1  and  C_28
    2  A    between atoms: O_2  and  C_6
    3  A    between atoms: O_2  and  C_13
    4  A    between atoms: C_4  and  N_22
    5  A    between atoms: C_13  and  C_38
    6  A    between atoms: C_28  and  C_35
                            x       y       z     vdW  Elec       q    Type
                         _______ _______ _______ _____ _____    ______ ____

>  <TORSDO>
F 6

$$$$
=
 OpenBabel11062410203D

 43 49  0  0  1  0  0  0  0  0999 V2000
  160.4230  209.1080  152.5660 C   0  0  2  0  0  3  0  0  0  0  0  0
  161.1000  202.9660  149.1150 C   0  0  0  0  0  0  0  0  0  0  0  0
  161.7540  206.9640  152.0760 C   0  0  2  0  0  3  0  0  0  0  0  0
  161.3060  204.3860  151.0720 C   0  0  0  0  0  0  0  0  0  0  0  0
  160.7090  204.0680  148.3480 C   0  0  0  0  0  3  0  0  0  0  0  0
  161.2010  201.6230  148.4880 C   0  0  0  0  0  1  0  0  0  0  0  0
  160.9400  205.5050  150.2840 C   0  0  0  0  0  0  0  0  0  0  0  0
  161.3980  203.1260  150.4720 C   0  0  0  0  0  3  0  0  0  0  0  0
  160.6180  205.3330  148.9330 C   0  0  0  0  0  3  0  0  0  0  0  0
  160.8880  208.1030  150.1890 C   0  0  0  0  0  2  0  0  0  0  0  0
  160.7430  206.8190  150.9730 C   0  0  2  0  0  3  0  0  0  0  0  0
  161.4510  205.9270  153.1390 C   0  0  0  0  0  2  0  0  0  0  0  0
  161.7920  208.4320  152.4840 C   0  0  1  0  0  3  0  0  0  0  0  0
  161.2290  209.1450  151.2610 C   0  0  2  0  0  0  0  0  0  0  0  0
  161.6890  204.5240  152.5380 C   0  0  0  0  0  2  0  0  0  0  0  0
  163.2230  210.4580  151.1140 O   0  0  0  0  0  0  0  0  0  0  0  0
  161.9930  210.3790  150.8580 C   0  0  0  0  0  0  0  0  0  0  0  0
  161.3730  211.4320  150.1770 O   0  0  0  0  0  0  0  0  0  0  0  0
  160.3200  211.3870  147.2050 O   0  0  0  0  0  1  0  0  0  0  0  0
  161.1640  212.4960  147.3170 C   0  0  2  0  0  0  0  0  0  0  0  0
  162.1060  212.4930  149.5640 C   0  0  1  0  0  3  0  0  0  0  0  0
  160.2990  213.9780  150.5900 C   0  0  0  0  0  1  0  0  0  0  0  0
  162.4140  212.1450  148.1180 C   0  0  1  0  0  3  0  0  0  0  0  0
  160.4680  213.5910  148.1200 C   0  0  0  0  0  2  0  0  0  0  0  0
  162.9170  210.7190  147.9220 C   0  0  0  0  0  1  0  0  0  0  0  0
  161.2400  213.7400  149.4210 C   0  0  2  0  0  3  0  0  0  0  0  0
  159.2580  213.3050  145.0280 N   0  0  0  0  0  0  0  0  0  0  0  0
  160.6870  213.4020  144.9300 C   0  0  0  0  0  0  0  0  0  0  0  0
  161.5550  212.9730  145.9920 N   0  0  0  0  0  2  0  0  0  0  0  0
  157.1050  214.4510  145.1170 C   0  0  0  0  0  2  0  0  0  0  0  0
  157.2860  212.2760  146.0340 C   0  0  0  0  0  2  0  0  0  0  0  0
  156.4580  213.1430  145.2030 N   0  0  0  0  0  2  0  0  0  0  0  0
  158.6300  212.0300  145.3520 C   0  0  0  0  0  2  0  0  0  0  0  0
  158.4350  214.3240  144.3790 C   0  0  0  0  0  2  0  0  0  0  0  0
  161.2050  213.9220  143.9050 O   0  0  0  0  0  0  0  0  0  0  0  0
  160.5550  210.3780  153.3960 C   0  0  0  0  0  2  0  0  0  0  0  0
  157.7740  213.0330  153.3080 C   0  0  0  0  0  2  0  0  0  0  0  0
  157.3630  210.7440  155.4340 C   0  0  0  0  0  2  0  0  0  0  0  0
  156.5470  211.7930  154.6770 C   0  0  0  0  0  2  0  0  0  0  0  0
  159.1890  212.4570  153.3050 C   0  0  0  0  0  2  0  0  0  0  0  0
  159.1880  210.9710  153.6710 C   0  0  2  0  0  3  0  0  0  0  0  0
  157.2350  213.0080  154.6000 O   0  0  0  0  0  0  0  0  0  0  0  0
  158.8690  210.8060  155.1540 C   0  0  0  0  0  2  0  0  0  0  0  0
  1 36  1  1  0  0  0
  2  8  1  0  0  0  0
  3 13  1  0  0  0  0
  3 12  1  1  0  0  0
  4 15  1  0  0  0  0
  5  9  1  0  0  0  0
  5  2  2  0  0  0  0
  6  2  1  0  0  0  0
  7 11  1  0  0  0  0
  7  4  1  0  0  0  0
  8  4  2  0  0  0  0
  9  7  2  0  0  0  0
 10 14  1  0  0  0  0
 11 10  1  6  0  0  0
 11  3  1  0  0  0  0
 13  1  1  0  0  0  0
 14 13  1  0  0  0  0
 14  1  1  0  0  0  0
 15 12  1  0  0  0  0
 17 16  2  0  0  0  0
 17 14  1  0  0  0  0
 18 17  1  0  0  0  0
 19 20  1  0  0  0  0
 20 23  1  0  0  0  0
 20 24  1  0  0  0  0
 21 18  1  0  0  0  0
 23 21  1  0  0  0  0
 24 26  1  0  0  0  0
 25 23  1  0  0  0  0
 26 21  1  0  0  0  0
 26 22  1  0  0  0  0
 27 33  1  0  0  0  0
 28 27  1  0  0  0  0
 28 29  1  0  0  0  0
 29 20  1  0  0  0  0
 30 32  1  0  0  0  0
 32 31  1  0  0  0  0
 33 31  1  0  0  0  0
 34 27  1  0  0  0  0
 34 30  1  0  0  0  0
 35 28  2  0  0  0  0
 36 41  1  0  0  0  0
 37 42  1  0  0  0  0
 39 38  1  0  0  0  0
 40 37  1  0  0  0  0
 40 41  1  0  0  0  0
 41 43  1  0  0  0  0
 42 39  1  0  0  0  0
 43 38  1  0  0  0  0
M  END
>  <MODEL>
2

>  <REMARK>
 VINA RESULT:      -8.0      3.114      6.785
  Name = 
  6 active torsions:
  status: ('A' for Active; 'I' for Inactive)
    1  A    between atoms: C_1  and  C_28
    2  A    between atoms: O_2  and  C_6
    3  A    between atoms: O_2  and  C_13
    4  A    between atoms: C_4  and  N_22
    5  A    between atoms: C_13  and  C_38
    6  A    between atoms: C_28  and  C_35
                            x       y       z     vdW  Elec       q    Type
                         _______ _______ _______ _____ _____    ______ ____

>  <TORSDO>
F 6

$$$$
=
 OpenBabel11062410203D

 43 49  0  0  1  0  0  0  0  0999 V2000
  161.0510  210.9320  153.5990 C   0  0  2  0  0  3  0  0  0  0  0  0
  161.2880  213.7580  147.1150 C   0  0  0  0  0  0  0  0  0  0  0  0
  159.8620  211.6320  151.4290 C   0  0  2  0  0  3  0  0  0  0  0  0
  160.2570  213.3850  149.2790 C   0  0  0  0  0  0  0  0  0  0  0  0
  162.2880  212.8300  147.4230 C   0  0  0  0  0  3  0  0  0  0  0  0
  161.3000  214.4530  145.8010 C   0  0  0  0  0  1  0  0  0  0  0  0
  161.2530  212.4220  149.5750 C   0  0  0  0  0  0  0  0  0  0  0  0
  160.2760  214.0330  148.0390 C   0  0  0  0  0  3  0  0  0  0  0  0
  162.2780  212.1710  148.6540 C   0  0  0  0  0  3  0  0  0  0  0  0
  161.9090  210.4720  151.1630 C   0  0  0  0  0  2  0  0  0  0  0  0
  161.2720  211.8240  150.9470 C   0  0  2  0  0  3  0  0  0  0  0  0
  159.2320  212.9970  151.6170 C   0  0  0  0  0  2  0  0  0  0  0  0
  159.9030  210.6820  152.6200 C   0  0  1  0  0  3  0  0  0  0  0  0
  161.2260  209.9490  152.4330 C   0  0  2  0  0  0  0  0  0  0  0  0
  159.1100  213.6750  150.2350 C   0  0  0  0  0  2  0  0  0  0  0  0
  161.1550  208.0100  153.8320 O   0  0  0  0  0  0  0  0  0  0  0  0
  161.1460  208.4620  152.6570 C   0  0  0  0  0  0  0  0  0  0  0  0
  161.0300  207.5670  151.5880 O   0  0  0  0  0  0  0  0  0  0  0  0
  159.5570  205.2180  150.0860 O   0  0  0  0  0  1  0  0  0  0  0  0
  160.9290  205.0260  149.8890 C   0  0  2  0  0  0  0  0  0  0  0  0
  162.1110  206.7460  151.1460 C   0  0  1  0  0  3  0  0  0  0  0  0
  162.2420  208.4140  149.2170 C   0  0  0  0  0  1  0  0  0  0  0  0
  161.7010  205.2840  151.1800 C   0  0  1  0  0  3  0  0  0  0  0  0
  161.4540  206.0570  148.8960 C   0  0  0  0  0  2  0  0  0  0  0  0
  160.9660  204.8800  152.4540 C   0  0  0  0  0  1  0  0  0  0  0  0
  162.3950  206.9690  149.6650 C   0  0  2  0  0  3  0  0  0  0  0  0
  161.4530  204.1390  146.9800 N   0  0  0  0  0  0  0  0  0  0  0  0
  161.4860  203.2340  148.0940 C   0  0  0  0  0  0  0  0  0  0  0  0
  161.1900  203.6620  149.4330 N   0  0  0  0  0  2  0  0  0  0  0  0
  162.6710  205.2740  145.1950 C   0  0  0  0  0  2  0  0  0  0  0  0
  160.6510  206.2210  145.9880 C   0  0  0  0  0  2  0  0  0  0  0  0
  161.4130  205.8970  144.7870 N   0  0  0  0  0  2  0  0  0  0  0  0
  160.2610  204.9390  146.7200 C   0  0  0  0  0  2  0  0  0  0  0  0
  162.3910  203.9370  145.8770 C   0  0  0  0  0  2  0  0  0  0  0  0
  161.8300  202.0360  147.9090 O   0  0  0  0  0  0  0  0  0  0  0  0
  160.7230  210.2510  154.9200 C   0  0  0  0  0  2  0  0  0  0  0  0
  157.4230  211.4620  156.4820 C   0  0  0  0  0  2  0  0  0  0  0  0
  159.7760  213.5570  156.5510 C   0  0  0  0  0  2  0  0  0  0  0  0
  158.4530  213.2650  157.2610 C   0  0  0  0  0  2  0  0  0  0  0  0
  158.3570  210.7940  155.4740 C   0  0  0  0  0  2  0  0  0  0  0  0
  159.8210  211.1360  155.7590 C   0  0  2  0  0  3  0  0  0  0  0  0
  157.4720  212.8550  156.3510 O   0  0  0  0  0  0  0  0  0  0  0  0
  160.0900  212.5940  155.4000 C   0  0  0  0  0  2  0  0  0  0  0  0
  1 36  1  1  0  0  0
  2  5  2  0  0  0  0
  2  8  1  0  0  0  0
  3 12  1  1  0  0  0
  3 13  1  0  0  0  0
  4  7  1  0  0  0  0
  4 15  1  0  0  0  0
  5  9  1  0  0  0  0
  6  2  1  0  0  0  0
  7 11  1  0  0  0  0
  8  4  2  0  0  0  0
  9  7  2  0  0  0  0
 10 14  1  0  0  0  0
 11 10  1  6  0  0  0
 11  3  1  0  0  0  0
 13  1  1  0  0  0  0
 14 13  1  0  0  0  0
 14 17  1  0  0  0  0
 14  1  1  0  0  0  0
 15 12  1  0  0  0  0
 17 16  2  0  0  0  0
 18 17  1  0  0  0  0
 20 19  1  0  0  0  0
 20 23  1  0  0  0  0
 21 23  1  0  0  0  0
 21 18  1  0  0  0  0
 22 26  1  0  0  0  0
 23 25  1  0  0  0  0
 24 26  1  0  0  0  0
 24 20  1  0  0  0  0
 26 21  1  0  0  0  0
 27 28  1  0  0  0  0
 28 29  1  0  0  0  0
 29 20  1  0  0  0  0
 30 34  1  0  0  0  0
 31 33  1  0  0  0  0
 32 30  1  0  0  0  0
 32 31  1  0  0  0  0
 33 27  1  0  0  0  0
 34 27  1  0  0  0  0
 35 28  2  0  0  0  0
 36 41  1  0  0  0  0
 38 39  1  0  0  0  0
 40 41  1  0  0  0  0
 40 37  1  0  0  0  0
 42 37  1  0  0  0  0
 42 39  1  0  0  0  0
 43 41  1  0  0  0  0
 43 38  1  0  0  0  0
M  END
>  <MODEL>
3

>  <REMARK>
 VINA RESULT:      -7.0      3.918      9.135
  Name = 
  6 active torsions:
  status: ('A' for Active; 'I' for Inactive)
    1  A    between atoms: C_1  and  C_28
    2  A    between atoms: O_2  and  C_6
    3  A    between atoms: O_2  and  C_13
    4  A    between atoms: C_4  and  N_22
    5  A    between atoms: C_13  and  C_38
    6  A    between atoms: C_28  and  C_35
                            x       y       z     vdW  Elec       q    Type
                         _______ _______ _______ _____ _____    ______ ____

>  <TORSDO>
F 6

$$$$
=
 OpenBabel11062410203D

 43 49  0  0  1  0  0  0  0  0999 V2000
  160.3150  211.9770  151.0070 C   0  0  2  0  0  3  0  0  0  0  0  0
  155.5070  212.3000  156.1900 C   0  0  0  0  0  0  0  0  0  0  0  0
  159.6860  212.5740  153.4280 C   0  0  2  0  0  3  0  0  0  0  0  0
  157.3920  213.1590  154.9280 C   0  0  0  0  0  0  0  0  0  0  0  0
  155.5510  211.1090  155.4600 C   0  0  0  0  0  3  0  0  0  0  0  0
  154.4830  212.4830  157.2510 C   0  0  0  0  0  1  0  0  0  0  0  0
  157.4540  211.9380  154.2120 C   0  0  0  0  0  0  0  0  0  0  0  0
  156.4250  213.3200  155.9250 C   0  0  0  0  0  3  0  0  0  0  0  0
  156.5160  210.9310  154.4650 C   0  0  0  0  0  3  0  0  0  0  0  0
  158.9230  210.4740  152.6440 C   0  0  0  0  0  2  0  0  0  0  0  0
  158.4260  211.8330  153.0780 C   0  0  2  0  0  3  0  0  0  0  0  0
  159.3610  214.0510  153.5150 C   0  0  0  0  0  2  0  0  0  0  0  0
  160.7730  212.1260  152.4580 C   0  0  1  0  0  3  0  0  0  0  0  0
  160.2630  210.7780  151.9640 C   0  0  2  0  0  0  0  0  0  0  0  0
  158.4040  214.2730  154.7070 C   0  0  0  0  0  2  0  0  0  0  0  0
  162.2850  209.7410  152.7120 O   0  0  0  0  0  0  0  0  0  0  0  0
  161.3140  209.7000  151.9110 C   0  0  0  0  0  0  0  0  0  0  0  0
  161.2210  208.6330  151.0120 O   0  0  0  0  0  0  0  0  0  0  0  0
  159.7310  206.1740  149.7180 O   0  0  0  0  0  1  0  0  0  0  0  0
  161.0950  205.8680  149.7110 C   0  0  2  0  0  0  0  0  0  0  0  0
  162.2730  207.6870  150.8240 C   0  0  1  0  0  3  0  0  0  0  0  0
  162.7360  209.0200  148.6960 C   0  0  0  0  0  1  0  0  0  0  0  0
  161.7470  206.2770  151.0290 C   0  0  1  0  0  3  0  0  0  0  0  0
  161.8010  206.6960  148.6410 C   0  0  0  0  0  2  0  0  0  0  0  0
  160.8540  206.1240  152.2550 C   0  0  0  0  0  1  0  0  0  0  0  0
  162.7260  207.6570  149.3690 C   0  0  2  0  0  3  0  0  0  0  0  0
  161.3430  204.4460  146.9820 N   0  0  0  0  0  0  0  0  0  0  0  0
  161.4610  203.7600  148.2390 C   0  0  0  0  0  0  0  0  0  0  0  0
  161.2930  204.4360  149.4950 N   0  0  0  0  0  2  0  0  0  0  0  0
  162.4140  205.1940  144.9210 C   0  0  0  0  0  2  0  0  0  0  0  0
  160.4880  206.3340  145.6930 C   0  0  0  0  0  2  0  0  0  0  0  0
  161.1340  205.7710  144.5120 N   0  0  0  0  0  2  0  0  0  0  0  0
  160.1450  205.2220  146.6810 C   0  0  0  0  0  2  0  0  0  0  0  0
  162.1750  204.0150  145.8610 C   0  0  0  0  0  2  0  0  0  0  0  0
  161.7690  202.5380  148.2510 O   0  0  0  0  0  0  0  0  0  0  0  0
  161.5420  211.9790  150.1060 C   0  0  0  0  0  2  0  0  0  0  0  0
  159.6410  214.4520  147.8550 C   0  0  0  0  0  2  0  0  0  0  0  0
  162.2490  213.2270  146.5810 C   0  0  0  0  0  2  0  0  0  0  0  0
  161.3250  214.4340  146.4130 C   0  0  0  0  0  2  0  0  0  0  0  0
  159.8570  213.2990  148.8330 C   0  0  0  0  0  2  0  0  0  0  0  0
  161.3380  212.9280  148.9410 C   0  0  2  0  0  3  0  0  0  0  0  0
  159.9830  214.0650  146.5540 O   0  0  0  0  0  0  0  0  0  0  0  0
  161.7900  212.2370  147.6580 C   0  0  0  0  0  2  0  0  0  0  0  0
  1 36  1  6  0  0  0
  1 14  1  0  0  0  0
  1 13  1  0  0  0  0
  2  6  1  0  0  0  0
  3 12  1  6  0  0  0
  4  8  2  0  0  0  0
  5  2  2  0  0  0  0
  7  9  2  0  0  0  0
  7  4  1  0  0  0  0
  8  2  1  0  0  0  0
  9  5  1  0  0  0  0
 11 10  1  1  0  0  0
 11  3  1  0  0  0  0
 11  7  1  0  0  0  0
 12 15  1  0  0  0  0
 13  3  1  0  0  0  0
 14 13  1  0  0  0  0
 14 10  1  0  0  0  0
 15  4  1  0  0  0  0
 17 14  1  0  0  0  0
 17 16  2  0  0  0  0
 18 17  1  0  0  0  0
 20 19  1  0  0  0  0
 20 23  1  0  0  0  0
 21 18  1  0  0  0  0
 21 23  1  0  0  0  0
 22 26  1  0  0  0  0
 23 25  1  0  0  0  0
 24 26  1  0  0  0  0
 24 20  1  0  0  0  0
 26 21  1  0  0  0  0
 27 28  1  0  0  0  0
 28 35  2  0  0  0  0
 28 29  1  0  0  0  0
 29 20  1  0  0  0  0
 30 34  1  0  0  0  0
 31 33  1  0  0  0  0
 32 30  1  0  0  0  0
 32 31  1  0  0  0  0
 33 27  1  0  0  0  0
 34 27  1  0  0  0  0
 37 40  1  0  0  0  0
 38 43  1  0  0  0  0
 39 42  1  0  0  0  0
 39 38  1  0  0  0  0
 40 41  1  0  0  0  0
 41 36  1  0  0  0  0
 42 37  1  0  0  0  0
 43 41  1  0  0  0  0
M  END
>  <MODEL>
4

>  <REMARK>
 VINA RESULT:      -6.8      3.893      8.923
  Name = 
  6 active torsions:
  status: ('A' for Active; 'I' for Inactive)
    1  A    between atoms: C_1  and  C_28
    2  A    between atoms: O_2  and  C_6
    3  A    between atoms: O_2  and  C_13
    4  A    between atoms: C_4  and  N_22
    5  A    between atoms: C_13  and  C_38
    6  A    between atoms: C_28  and  C_35
                            x       y       z     vdW  Elec       q    Type
                         _______ _______ _______ _____ _____    ______ ____

>  <TORSDO>
F 6

$$$$
=
 OpenBabel11062410203D

 43 49  0  0  1  0  0  0  0  0999 V2000
  160.4180  211.4240  150.9650 C   0  0  2  0  0  3  0  0  0  0  0  0
  155.8310  212.6390  156.2160 C   0  0  0  0  0  0  0  0  0  0  0  0
  159.7950  212.6440  153.1410 C   0  0  2  0  0  3  0  0  0  0  0  0
  157.4980  213.3280  154.5930 C   0  0  0  0  0  0  0  0  0  0  0  0
  156.0420  211.3000  155.8760 C   0  0  0  0  0  3  0  0  0  0  0  0
  154.8340  212.9920  157.2600 C   0  0  0  0  0  1  0  0  0  0  0  0
  157.7320  211.9680  154.2730 C   0  0  0  0  0  0  0  0  0  0  0  0
  156.5570  213.6490  155.5770 C   0  0  0  0  0  3  0  0  0  0  0  0
  156.9820  210.9640  154.8990 C   0  0  0  0  0  3  0  0  0  0  0  0
  159.3580  210.3180  153.0940 C   0  0  0  0  0  2  0  0  0  0  0  0
  158.6620  211.6570  153.1420 C   0  0  2  0  0  3  0  0  0  0  0  0
  159.2350  214.0130  152.8100 C   0  0  0  0  0  2  0  0  0  0  0  0
  160.9020  212.0800  152.2580 C   0  0  1  0  0  3  0  0  0  0  0  0
  160.6020  210.5870  152.2380 C   0  0  2  0  0  0  0  0  0  0  0  0
  158.3020  214.4520  153.9590 C   0  0  0  0  0  2  0  0  0  0  0  0
  162.8560  210.1900  152.9340 O   0  0  0  0  0  0  0  0  0  0  0  0
  161.8130  209.7090  152.4190 C   0  0  0  0  0  0  0  0  0  0  0  0
  161.7970  208.3590  152.0550 O   0  0  0  0  0  0  0  0  0  0  0  0
  162.6300  205.6820  150.6110 O   0  0  0  0  0  1  0  0  0  0  0  0
  161.4220  205.4270  151.2680 C   0  0  2  0  0  0  0  0  0  0  0  0
  160.6730  207.5090  152.2880 C   0  0  1  0  0  3  0  0  0  0  0  0
  161.7900  207.0930  154.5460 C   0  0  0  0  0  1  0  0  0  0  0  0
  160.4560  206.5960  151.0940 C   0  0  1  0  0  3  0  0  0  0  0  0
  161.6650  205.3290  152.7700 C   0  0  0  0  0  2  0  0  0  0  0  0
  160.5520  207.3070  149.7480 C   0  0  0  0  0  1  0  0  0  0  0  0
  160.9640  206.5170  153.4080 C   0  0  2  0  0  3  0  0  0  0  0  0
  161.3960  204.5100  148.3200 N   0  0  0  0  0  0  0  0  0  0  0  0
  160.8270  203.7370  149.3880 C   0  0  0  0  0  0  0  0  0  0  0  0
  160.8080  204.2080  150.7450 N   0  0  0  0  0  2  0  0  0  0  0  0
  163.1170  204.7190  146.6030 C   0  0  0  0  0  2  0  0  0  0  0  0
  162.0760  206.6790  147.4290 C   0  0  0  0  0  2  0  0  0  0  0  0
  162.5210  205.9970  146.2180 N   0  0  0  0  0  2  0  0  0  0  0  0
  160.9560  205.8820  148.0930 C   0  0  0  0  0  2  0  0  0  0  0  0
  162.0510  203.8140  147.2160 C   0  0  0  0  0  2  0  0  0  0  0  0
  160.3690  202.5880  149.1450 O   0  0  0  0  0  0  0  0  0  0  0  0
  161.5910  211.3230  150.0000 C   0  0  0  0  0  2  0  0  0  0  0  0
  162.4290  213.1110  146.6990 C   0  0  0  0  0  2  0  0  0  0  0  0
  159.7250  214.0040  148.0470 C   0  0  0  0  0  2  0  0  0  0  0  0
  160.4070  214.0210  146.6780 C   0  0  0  0  0  2  0  0  0  0  0  0
  162.6520  212.5110  148.0860 C   0  0  0  0  0  2  0  0  0  0  0  0
  161.3250  212.1550  148.7600 C   0  0  2  0  0  3  0  0  0  0  0  0
  161.7640  214.3390  146.7950 O   0  0  0  0  0  0  0  0  0  0  0  0
  160.5970  213.4310  149.1700 C   0  0  0  0  0  2  0  0  0  0  0  0
  1 36  1  6  0  0  0
  1 14  1  0  0  0  0
  1 13  1  0  0  0  0
  2  6  1  0  0  0  0
  3 12  1  6  0  0  0
  3 11  1  0  0  0  0
  4  8  1  0  0  0  0
  5  2  1  0  0  0  0
  7  4  2  0  0  0  0
  7  9  1  0  0  0  0
  8  2  2  0  0  0  0
  9  5  2  0  0  0  0
 11 10  1  1  0  0  0
 11  7  1  0  0  0  0
 12 15  1  0  0  0  0
 13  3  1  0  0  0  0
 14 13  1  0  0  0  0
 14 17  1  0  0  0  0
 14 10  1  0  0  0  0
 15  4  1  0  0  0  0
 17 16  2  0  0  0  0
 18 21  1  0  0  0  0
 18 17  1  0  0  0  0
 19 20  1  0  0  0  0
 20 24  1  0  0  0  0
 21 26  1  0  0  0  0
 23 20  1  0  0  0  0
 23 21  1  0  0  0  0
 24 26  1  0  0  0  0
 25 23  1  0  0  0  0
 26 22  1  0  0  0  0
 27 28  1  0  0  0  0
 28 29  1  0  0  0  0
 29 20  1  0  0  0  0
 30 34  1  0  0  0  0
 31 33  1  0  0  0  0
 32 30  1  0  0  0  0
 32 31  1  0  0  0  0
 33 27  1  0  0  0  0
 34 27  1  0  0  0  0
 35 28  2  0  0  0  0
 37 42  1  0  0  0  0
 37 40  1  0  0  0  0
 38 43  1  0  0  0  0
 39 42  1  0  0  0  0
 39 38  1  0  0  0  0
 40 41  1  0  0  0  0
 41 43  1  0  0  0  0
 41 36  1  0  0  0  0
M  END
>  <MODEL>
5

>  <REMARK>
 VINA RESULT:      -6.5      3.664      8.419
  Name = 
  6 active torsions:
  status: ('A' for Active; 'I' for Inactive)
    1  A    between atoms: C_1  and  C_28
    2  A    between atoms: O_2  and  C_6
    3  A    between atoms: O_2  and  C_13
    4  A    between atoms: C_4  and  N_22
    5  A    between atoms: C_13  and  C_38
    6  A    between atoms: C_28  and  C_35
                            x       y       z     vdW  Elec       q    Type
                         _______ _______ _______ _____ _____    ______ ____

>  <TORSDO>
F 6

$$$$
=
 OpenBabel11062410203D

 43 49  0  0  1  0  0  0  0  0999 V2000
  160.5740  209.8700  152.6100 C   0  0  2  0  0  3  0  0  0  0  0  0
  160.9770  203.2420  150.1620 C   0  0  0  0  0  0  0  0  0  0  0  0
  161.6540  207.5380  152.6650 C   0  0  2  0  0  3  0  0  0  0  0  0
  161.0310  204.9070  151.9270 C   0  0  0  0  0  0  0  0  0  0  0  0
  160.8890  204.2530  149.2010 C   0  0  0  0  0  3  0  0  0  0  0  0
  160.9960  201.8170  149.7420 C   0  0  0  0  0  1  0  0  0  0  0  0
  160.9730  205.9300  150.9480 C   0  0  0  0  0  0  0  0  0  0  0  0
  161.0490  203.5690  151.5200 C   0  0  0  0  0  3  0  0  0  0  0  0
  160.8760  205.5940  149.5920 C   0  0  0  0  0  3  0  0  0  0  0  0
  161.3080  208.4710  150.5170 C   0  0  0  0  0  2  0  0  0  0  0  0
  160.8450  207.3470  151.4130 C   0  0  2  0  0  3  0  0  0  0  0  0
  161.0230  206.7150  153.7700 C   0  0  0  0  0  2  0  0  0  0  0  0
  161.8260  209.0360  152.8840 C   0  0  1  0  0  3  0  0  0  0  0  0
  161.5970  209.6170  151.4940 C   0  0  2  0  0  0  0  0  0  0  0  0
  161.1620  205.2200  153.4090 C   0  0  0  0  0  2  0  0  0  0  0  0
  163.7250  210.7000  151.6350 O   0  0  0  0  0  0  0  0  0  0  0  0
  162.5870  210.6800  151.0970 C   0  0  0  0  0  0  0  0  0  0  0  0
  162.2840  211.6320  150.1180 O   0  0  0  0  0  0  0  0  0  0  0  0
  160.8890  214.3810  149.4520 O   0  0  0  0  0  1  0  0  0  0  0  0
  160.5680  213.5030  148.4120 C   0  0  2  0  0  0  0  0  0  0  0  0
  161.5170  211.3250  148.9530 C   0  0  1  0  0  3  0  0  0  0  0  0
  163.7230  211.7050  147.7240 C   0  0  0  0  0  1  0  0  0  0  0  0
  160.2230  212.1200  148.9580 C   0  0  1  0  0  3  0  0  0  0  0  0
  161.7920  213.2890  147.5250 C   0  0  0  0  0  2  0  0  0  0  0  0
  159.5090  212.1280  150.3060 C   0  0  0  0  0  1  0  0  0  0  0  0
  162.2090  211.8380  147.6950 C   0  0  2  0  0  3  0  0  0  0  0  0
  160.4250  213.8080  145.3430 N   0  0  0  0  0  0  0  0  0  0  0  0
  159.3280  214.1210  146.2150 C   0  0  0  0  0  0  0  0  0  0  0  0
  159.4360  214.0180  147.6440 N   0  0  0  0  0  2  0  0  0  0  0  0
  161.3320  212.3780  143.5860 C   0  0  0  0  0  2  0  0  0  0  0  0
  162.8280  213.5440  145.0030 C   0  0  0  0  0  2  0  0  0  0  0  0
  162.5520  213.1820  143.6160 N   0  0  0  0  0  2  0  0  0  0  0  0
  161.7200  214.4500  145.5350 C   0  0  0  0  0  2  0  0  0  0  0  0
  160.1430  213.2230  144.0350 C   0  0  0  0  0  2  0  0  0  0  0  0
  158.2180  214.4530  145.7190 O   0  0  0  0  0  0  0  0  0  0  0  0
  160.7350  211.2270  153.2820 C   0  0  0  0  0  2  0  0  0  0  0  0
  157.5150  212.6340  154.8460 C   0  0  0  0  0  2  0  0  0  0  0  0
  159.5160  211.3060  156.8860 C   0  0  0  0  0  2  0  0  0  0  0  0
  158.0360  211.6790  156.7790 C   0  0  0  0  0  2  0  0  0  0  0  0
  158.7530  212.5760  153.9530 C   0  0  0  0  0  2  0  0  0  0  0  0
  159.6720  211.4170  154.3460 C   0  0  2  0  0  3  0  0  0  0  0  0
  157.8740  212.9270  156.1670 O   0  0  0  0  0  0  0  0  0  0  0  0
  160.3540  211.7290  155.6750 C   0  0  0  0  0  2  0  0  0  0  0  0
  1 13  1  0  0  0  0
  1 36  1  1  0  0  0
  2  8  1  0  0  0  0
  3 13  1  0  0  0  0
  3 12  1  1  0  0  0
  4 15  1  0  0  0  0
  5  9  1  0  0  0  0
  5  2  2  0  0  0  0
  6  2  1  0  0  0  0
  7 11  1  0  0  0  0
  7  4  1  0  0  0  0
  8  4  2  0  0  0  0
  9  7  2  0  0  0  0
 10 14  1  0  0  0  0
 11 10  1  6  0  0  0
 11  3  1  0  0  0  0
 14  1  1  0  0  0  0
 14 13  1  0  0  0  0
 15 12  1  0  0  0  0
 17 14  1  0  0  0  0
 17 16  2  0  0  0  0
 18 17  1  0  0  0  0
 20 23  1  0  0  0  0
 20 19  1  0  0  0  0
 21 23  1  0  0  0  0
 21 18  1  0  0  0  0
 23 25  1  0  0  0  0
 24 26  1  0  0  0  0
 24 20  1  0  0  0  0
 26 22  1  0  0  0  0
 26 21  1  0  0  0  0
 27 33  1  0  0  0  0
 27 28  1  0  0  0  0
 28 29  1  0  0  0  0
 29 20  1  0  0  0  0
 30 32  1  0  0  0  0
 30 34  1  0  0  0  0
 31 33  1  0  0  0  0
 32 31  1  0  0  0  0
 34 27  1  0  0  0  0
 35 28  2  0  0  0  0
 36 41  1  0  0  0  0
 37 42  1  0  0  0  0
 39 38  1  0  0  0  0
 40 41  1  0  0  0  0
 40 37  1  0  0  0  0
 41 43  1  0  0  0  0
 42 39  1  0  0  0  0
 43 38  1  0  0  0  0
M  END
>  <MODEL>
6

>  <REMARK>
 VINA RESULT:      -5.6      3.071      7.127
  Name = 
  6 active torsions:
  status: ('A' for Active; 'I' for Inactive)
    1  A    between atoms: C_1  and  C_28
    2  A    between atoms: O_2  and  C_6
    3  A    between atoms: O_2  and  C_13
    4  A    between atoms: C_4  and  N_22
    5  A    between atoms: C_13  and  C_38
    6  A    between atoms: C_28  and  C_35
                            x       y       z     vdW  Elec       q    Type
                         _______ _______ _______ _____ _____    ______ ____

>  <TORSDO>
F 6

$$$$
=
 OpenBabel11062410203D

 43 49  0  0  1  0  0  0  0  0999 V2000
  161.7910  209.7790  153.1050 C   0  0  2  0  0  3  0  0  0  0  0  0
  161.7370  213.5430  147.1120 C   0  0  0  0  0  0  0  0  0  0  0  0
  160.4900  210.9860  151.2450 C   0  0  2  0  0  3  0  0  0  0  0  0
  160.9180  212.9850  149.3270 C   0  0  0  0  0  0  0  0  0  0  0  0
  162.5950  212.4410  147.1430 C   0  0  0  0  0  3  0  0  0  0  0  0
  161.7100  214.4310  145.9210 C   0  0  0  0  0  1  0  0  0  0  0  0
  161.7660  211.8490  149.3410 C   0  0  0  0  0  0  0  0  0  0  0  0
  160.9010  213.8130  148.2000 C   0  0  0  0  0  3  0  0  0  0  0  0
  162.6190  211.6000  148.2590 C   0  0  0  0  0  3  0  0  0  0  0  0
  162.2670  209.5940  150.5320 C   0  0  0  0  0  2  0  0  0  0  0  0
  161.8460  211.0430  150.6000 C   0  0  2  0  0  3  0  0  0  0  0  0
  160.1250  212.3820  151.7090 C   0  0  0  0  0  2  0  0  0  0  0  0
  160.5110  209.8620  152.2730 C   0  0  1  0  0  3  0  0  0  0  0  0
  161.6600  208.9810  151.8000 C   0  0  2  0  0  0  0  0  0  0  0  0
  159.9570  213.2840  150.4670 C   0  0  0  0  0  2  0  0  0  0  0  0
  160.9230  206.9770  152.8790 O   0  0  0  0  0  0  0  0  0  0  0  0
  161.3580  207.5050  151.8230 C   0  0  0  0  0  0  0  0  0  0  0  0
  161.5210  206.7090  150.6840 O   0  0  0  0  0  0  0  0  0  0  0  0
  163.0050  205.8820  148.0280 O   0  0  0  0  0  1  0  0  0  0  0  0
  161.6440  205.6400  147.8210 C   0  0  2  0  0  0  0  0  0  0  0  0
  160.4430  206.3910  149.8030 C   0  0  1  0  0  3  0  0  0  0  0  0
  160.4890  204.1310  150.9900 C   0  0  0  0  0  1  0  0  0  0  0  0
  160.8010  206.7830  148.3810 C   0  0  1  0  0  3  0  0  0  0  0  0
  161.2160  204.4050  148.6080 C   0  0  0  0  0  2  0  0  0  0  0  0
  161.4400  208.1630  148.2640 C   0  0  0  0  0  1  0  0  0  0  0  0
  160.2600  204.8820  149.6890 C   0  0  2  0  0  3  0  0  0  0  0  0
  161.2050  202.9800  146.3180 N   0  0  0  0  0  0  0  0  0  0  0  0
  161.1100  204.2650  145.6840 C   0  0  0  0  0  0  0  0  0  0  0  0
  161.3670  205.4870  146.3940 N   0  0  0  0  0  2  0  0  0  0  0  0
  160.0810  200.9400  147.0460 C   0  0  0  0  0  2  0  0  0  0  0  0
  162.0930  201.5860  148.1150 C   0  0  0  0  0  2  0  0  0  0  0  0
  161.3680  200.4560  147.5430 N   0  0  0  0  0  2  0  0  0  0  0  0
  162.4240  202.5990  147.0220 C   0  0  0  0  0  2  0  0  0  0  0  0
  160.3040  201.9120  145.8910 C   0  0  0  0  0  2  0  0  0  0  0  0
  160.7440  204.3360  144.4800 O   0  0  0  0  0  0  0  0  0  0  0  0
  161.5110  208.9500  154.3510 C   0  0  0  0  0  2  0  0  0  0  0  0
  159.1510  209.9380  157.2240 C   0  0  0  0  0  2  0  0  0  0  0  0
  160.7950  212.3170  155.9740 C   0  0  0  0  0  2  0  0  0  0  0  0
  160.0440  211.9670  157.2590 C   0  0  0  0  0  2  0  0  0  0  0  0
  159.6200  209.2480  155.9440 C   0  0  0  0  0  2  0  0  0  0  0  0
  160.9480  209.8290  155.4510 C   0  0  2  0  0  3  0  0  0  0  0  0
  158.8560  211.2830  156.9780 O   0  0  0  0  0  0  0  0  0  0  0  0
  160.7220  211.2310  154.8950 C   0  0  0  0  0  2  0  0  0  0  0  0
  1 36  1  1  0  0  0
  2  5  2  0  0  0  0
  2  8  1  0  0  0  0
  3 12  1  1  0  0  0
  3 13  1  0  0  0  0
  4  7  1  0  0  0  0
  4 15  1  0  0  0  0
  5  9  1  0  0  0  0
  6  2  1  0  0  0  0
  7 11  1  0  0  0  0
  8  4  2  0  0  0  0
  9  7  2  0  0  0  0
 10 14  1  0  0  0  0
 11 10  1  6  0  0  0
 11  3  1  0  0  0  0
 13  1  1  0  0  0  0
 14 17  1  0  0  0  0
 14 13  1  0  0  0  0
 14  1  1  0  0  0  0
 15 12  1  0  0  0  0
 17 16  2  0  0  0  0
 18 17  1  0  0  0  0
 20 19  1  0  0  0  0
 20 23  1  0  0  0  0
 20 24  1  0  0  0  0
 21 18  1  0  0  0  0
 23 21  1  0  0  0  0
 24 26  1  0  0  0  0
 25 23  1  0  0  0  0
 26 21  1  0  0  0  0
 26 22  1  0  0  0  0
 27 33  1  0  0  0  0
 28 27  1  0  0  0  0
 28 29  1  0  0  0  0
 29 20  1  0  0  0  0
 30 32  1  0  0  0  0
 32 31  1  0  0  0  0
 33 31  1  0  0  0  0
 34 27  1  0  0  0  0
 34 30  1  0  0  0  0
 35 28  2  0  0  0  0
 36 41  1  0  0  0  0
 38 39  1  0  0  0  0
 40 37  1  0  0  0  0
 41 40  1  0  0  0  0
 42 37  1  0  0  0  0
 42 39  1  0  0  0  0
 43 41  1  0  0  0  0
 43 38  1  0  0  0  0
M  END
>  <MODEL>
7

>  <REMARK>
 VINA RESULT:      -5.1      4.282      9.585
  Name = 
  6 active torsions:
  status: ('A' for Active; 'I' for Inactive)
    1  A    between atoms: C_1  and  C_28
    2  A    between atoms: O_2  and  C_6
    3  A    between atoms: O_2  and  C_13
    4  A    between atoms: C_4  and  N_22
    5  A    between atoms: C_13  and  C_38
    6  A    between atoms: C_28  and  C_35
                            x       y       z     vdW  Elec       q    Type
                         _______ _______ _______ _____ _____    ______ ____

>  <TORSDO>
F 6

$$$$
