=
 OpenBabel11052422113D

 25 29  0  0  1  0  0  0  0  0999 V2000
  161.1860  204.5750  149.2010 C   0  0  0  0  0  0  0  0  0  0  0  0
  161.2280  205.4360  150.3010 C   0  0  0  0  0  0  0  0  0  0  0  0
  161.0550  202.6280  150.6330 C   0  0  0  0  0  3  0  0  0  0  0  0
  161.4470  204.8350  147.7650 C   0  0  1  0  0  3  0  0  0  0  0  0
  161.0540  204.5520  144.9200 C   0  0  0  0  0  2  0  0  0  0  0  0
  161.0500  203.4730  151.7540 C   0  0  0  0  0  3  0  0  0  0  0  0
  160.9340  203.5520  147.1460 C   0  0  1  0  0  3  0  0  0  0  0  0
  161.5680  203.3820  145.7830 C   0  0  0  0  0  2  0  0  0  0  0  0
  161.1520  205.7170  152.7210 C   0  0  0  0  0  0  0  0  0  0  0  0
  161.0610  205.2080  153.9750 F   0  0  0  0  0  0  0  0  0  0  0  0
  161.3550  206.8190  150.1470 C   0  0  0  0  0  3  0  0  0  0  0  0
  161.2600  205.9360  145.5870 C   0  0  0  0  0  2  0  0  0  0  0  0
  161.1300  203.2070  149.3670 C   0  0  0  0  0  0  0  0  0  0  0  0
  161.1590  202.5020  148.1310 N   0  0  0  0  0  2  0  0  0  0  0  0
  161.2700  207.1000  152.5500 C   0  0  0  0  0  3  0  0  0  0  0  0
  160.7630  205.9790  147.0460 C   0  0  0  0  0  2  0  0  0  0  0  0
  161.3760  207.6550  151.2700 C   0  0  0  0  0  0  0  0  0  0  0  0
  161.1340  204.8730  151.6010 C   0  0  0  0  0  0  0  0  0  0  0  0
  161.4910  209.0720  151.1300 N   0  0  0  0  0  2  0  0  0  0  0  0
  162.1790  210.1120  152.3870 S   0  0  0  0  0  0  0  0  0  0  0  0
  158.9060  212.1580  152.5380 N   0  0  0  0  0  0  0  0  0  0  0  0
  160.0620  211.8580  151.9680 N   0  0  0  0  0  0  0  0  0  0  0  0
  158.6980  211.4150  153.6150 N   0  0  0  0  0  2  0  0  0  0  0  0
  160.6010  210.8850  152.7180 C   0  0  0  0  0  0  0  0  0  0  0  0
  159.7560  210.5930  153.7630 C   0  0  0  0  0  3  0  0  0  0  0  0
  1 13  2  0  0  0  0
  1  2  1  0  0  0  0
  2 18  1  0  0  0  0
  3  6  2  0  0  0  0
  4 16  1  6  0  0  0
  4  1  1  0  0  0  0
  5 12  1  0  0  0  0
  5  8  1  0  0  0  0
  7  8  1  6  0  0  0
  7  4  1  0  0  0  0
  7 14  1  0  0  0  0
  9 10  1  0  0  0  0
 11  2  2  0  0  0  0
 11 17  1  0  0  0  0
 12 16  1  0  0  0  0
 13  3  1  0  0  0  0
 14 13  1  0  0  0  0
 15  9  1  0  0  0  0
 17 15  2  0  0  0  0
 18  6  1  0  0  0  0
 18  9  2  0  0  0  0
 19 17  1  0  0  0  0
 19 20  1  0  0  0  0
 20 24  1  0  0  0  0
 21 23  1  0  0  0  0
 22 21  2  0  0  0  0
 22 24  1  0  0  0  0
 23 25  1  0  0  0  0
 24 25  2  0  0  0  0
M  END
>  <MODEL>
1

>  <REMARK>
 VINA RESULT:      -9.7      0.000      0.000
  Name = 
  3 active torsions:
  status: ('A' for Active; 'I' for Inactive)
    1  A    between atoms: N_6  and  S_15
    2  A    between atoms: N_6  and  C_23
    3  A    between atoms: S_15  and  C_21
                            x       y       z     vdW  Elec       q    Type
                         _______ _______ _______ _____ _____    ______ ____

>  <TORSDO>
F 3

$$$$
=
 OpenBabel11052422113D

 25 29  0  0  1  0  0  0  0  0999 V2000
  161.2660  205.5150  149.7200 C   0  0  0  0  0  0  0  0  0  0  0  0
  161.3470  206.6020  150.5950 C   0  0  0  0  0  0  0  0  0  0  0  0
  161.5290  206.9520  147.7900 C   0  0  0  0  0  3  0  0  0  0  0  0
  160.8600  204.1110  149.9630 C   0  0  1  0  0  3  0  0  0  0  0  0
  160.9520  201.2440  149.6400 C   0  0  0  0  0  2  0  0  0  0  0  0
  161.6580  208.0560  148.6490 C   0  0  0  0  0  3  0  0  0  0  0  0
  161.2950  203.4600  148.6680 C   0  0  1  0  0  3  0  0  0  0  0  0
  160.5220  202.1730  148.4860 C   0  0  0  0  0  2  0  0  0  0  0  0
  161.6770  208.9970  150.9060 C   0  0  0  0  0  0  0  0  0  0  0  0
  161.8930  210.2410  150.4120 F   0  0  0  0  0  0  0  0  0  0  0  0
  161.2160  206.4430  151.9770 C   0  0  0  0  0  3  0  0  0  0  0  0
  160.8290  201.9100  151.0350 C   0  0  0  0  0  2  0  0  0  0  0  0
  161.3280  205.6930  148.3530 C   0  0  0  0  0  0  0  0  0  0  0  0
  161.1640  204.4770  147.6330 N   0  0  0  0  0  2  0  0  0  0  0  0
  161.5540  208.8200  152.2880 C   0  0  0  0  0  3  0  0  0  0  0  0
  161.4750  203.3090  151.0920 C   0  0  0  0  0  2  0  0  0  0  0  0
  161.3190  207.5500  152.8280 C   0  0  0  0  0  0  0  0  0  0  0  0
  161.5700  207.8930  150.0470 C   0  0  0  0  0  0  0  0  0  0  0  0
  161.2040  207.4040  154.2440 N   0  0  0  0  0  2  0  0  0  0  0  0
  160.1410  208.4160  155.2330 S   0  0  0  0  0  0  0  0  0  0  0  0
  163.1340  209.7750  157.2600 N   0  0  0  0  0  0  0  0  0  0  0  0
  162.2000  208.8640  157.0390 N   0  0  0  0  0  2  0  0  0  0  0  0
  163.0680  210.7530  156.3680 N   0  0  0  0  0  0  0  0  0  0  0  0
  161.5220  209.2860  155.9620 C   0  0  0  0  0  0  0  0  0  0  0  0
  162.0540  210.4780  155.5250 C   0  0  0  0  0  3  0  0  0  0  0  0
  1  4  1  0  0  0  0
  1  2  1  0  0  0  0
  2 11  1  0  0  0  0
  3 13  1  0  0  0  0
  3  6  2  0  0  0  0
  4 16  1  1  0  0  0
  5 12  1  0  0  0  0
  6 18  1  0  0  0  0
  7  8  1  6  0  0  0
  7  4  1  0  0  0  0
  8  5  1  0  0  0  0
  9 15  2  0  0  0  0
 10  9  1  0  0  0  0
 11 17  2  0  0  0  0
 12 16  1  0  0  0  0
 13  1  2  0  0  0  0
 14 13  1  0  0  0  0
 14  7  1  0  0  0  0
 15 17  1  0  0  0  0
 17 19  1  0  0  0  0
 18  2  2  0  0  0  0
 18  9  1  0  0  0  0
 19 20  1  0  0  0  0
 20 24  1  0  0  0  0
 22 21  1  0  0  0  0
 23 21  2  0  0  0  0
 24 22  1  0  0  0  0
 25 24  2  0  0  0  0
 25 23  1  0  0  0  0
M  END
>  <MODEL>
2

>  <REMARK>
 VINA RESULT:      -9.7      2.873      4.145
  Name = 
  3 active torsions:
  status: ('A' for Active; 'I' for Inactive)
    1  A    between atoms: N_6  and  S_15
    2  A    between atoms: N_6  and  C_23
    3  A    between atoms: S_15  and  C_21
                            x       y       z     vdW  Elec       q    Type
                         _______ _______ _______ _____ _____    ______ ____

>  <TORSDO>
F 3

$$$$
=
 OpenBabel11052422113D

 25 29  0  0  1  0  0  0  0  0999 V2000
  161.3860  205.0700  148.8460 C   0  0  0  0  0  0  0  0  0  0  0  0
  161.4360  206.3080  149.4950 C   0  0  0  0  0  0  0  0  0  0  0  0
  162.0130  206.0670  146.7320 C   0  0  0  0  0  3  0  0  0  0  0  0
  160.8430  203.7670  149.2980 C   0  0  1  0  0  3  0  0  0  0  0  0
  160.7530  200.8940  149.5590 C   0  0  0  0  0  2  0  0  0  0  0  0
  162.1130  207.3150  147.3680 C   0  0  0  0  0  3  0  0  0  0  0  0
  161.3930  202.8440  148.2320 C   0  0  1  0  0  3  0  0  0  0  0  0
  160.5520  201.5870  148.1960 C   0  0  0  0  0  2  0  0  0  0  0  0
  161.9070  208.6950  149.3760 C   0  0  0  0  0  0  0  0  0  0  0  0
  162.2830  209.8000  148.6850 F   0  0  0  0  0  0  0  0  0  0  0  0
  161.1110  206.4410  150.8470 C   0  0  0  0  0  3  0  0  0  0  0  0
  160.4990  201.8360  150.7640 C   0  0  0  0  0  2  0  0  0  0  0  0
  161.6410  204.9610  147.4950 C   0  0  0  0  0  0  0  0  0  0  0  0
  161.4790  203.6330  147.0110 N   0  0  0  0  0  2  0  0  0  0  0  0
  161.5890  208.8120  150.7330 C   0  0  0  0  0  3  0  0  0  0  0  0
  161.2390  203.1830  150.6390 C   0  0  0  0  0  2  0  0  0  0  0  0
  161.1870  207.6920  151.4710 C   0  0  0  0  0  0  0  0  0  0  0  0
  161.8290  207.4460  148.7430 C   0  0  0  0  0  0  0  0  0  0  0  0
  160.8750  207.8440  152.8560 N   0  0  0  0  0  2  0  0  0  0  0  0
  161.1660  206.5740  154.0540 S   0  0  0  0  0  0  0  0  0  0  0  0
  160.9960  209.3970  156.6850 N   0  0  0  0  0  0  0  0  0  0  0  0
  161.4670  208.8870  155.5580 N   0  0  0  0  0  0  0  0  0  0  0  0
  160.1370  208.5690  157.2610 N   0  0  0  0  0  2  0  0  0  0  0  0
  160.8780  207.6910  155.4200 C   0  0  0  0  0  0  0  0  0  0  0  0
  160.0350  207.4710  156.4860 C   0  0  0  0  0  3  0  0  0  0  0  0
  1  4  1  0  0  0  0
  1  2  1  0  0  0  0
  2 11  1  0  0  0  0
  3  6  2  0  0  0  0
  3 13  1  0  0  0  0
  4 16  1  1  0  0  0
  5 12  1  0  0  0  0
  6 18  1  0  0  0  0
  7  8  1  6  0  0  0
  7  4  1  0  0  0  0
  8  5  1  0  0  0  0
  9 15  2  0  0  0  0
 10  9  1  0  0  0  0
 11 17  2  0  0  0  0
 13  1  2  0  0  0  0
 14 13  1  0  0  0  0
 14  7  1  0  0  0  0
 15 17  1  0  0  0  0
 16 12  1  0  0  0  0
 17 19  1  0  0  0  0
 18  9  1  0  0  0  0
 18  2  2  0  0  0  0
 19 20  1  0  0  0  0
 20 24  1  0  0  0  0
 21 23  1  0  0  0  0
 22 21  2  0  0  0  0
 24 22  1  0  0  0  0
 24 25  2  0  0  0  0
 25 23  1  0  0  0  0
M  END
>  <MODEL>
3

>  <REMARK>
 VINA RESULT:      -9.5      2.743      4.081
  Name = 
  3 active torsions:
  status: ('A' for Active; 'I' for Inactive)
    1  A    between atoms: N_6  and  S_15
    2  A    between atoms: N_6  and  C_23
    3  A    between atoms: S_15  and  C_21
                            x       y       z     vdW  Elec       q    Type
                         _______ _______ _______ _____ _____    ______ ____

>  <TORSDO>
F 3

$$$$
=
 OpenBabel11052422113D

 25 29  0  0  1  0  0  0  0  0999 V2000
  161.2550  204.6360  149.1680 C   0  0  0  0  0  0  0  0  0  0  0  0
  161.4300  205.5420  150.2180 C   0  0  0  0  0  0  0  0  0  0  0  0
  160.7770  202.8290  150.7060 C   0  0  0  0  0  3  0  0  0  0  0  0
  161.5730  204.7600  147.7260 C   0  0  1  0  0  3  0  0  0  0  0  0
  161.1710  204.3770  144.8930 C   0  0  0  0  0  2  0  0  0  0  0  0
  160.9020  203.7290  151.7770 C   0  0  0  0  0  3  0  0  0  0  0  0
  160.8560  203.5480  147.1700 C   0  0  1  0  0  3  0  0  0  0  0  0
  161.4680  203.1910  145.8340 C   0  0  0  0  0  2  0  0  0  0  0  0
  161.3740  205.9770  152.6150 C   0  0  0  0  0  0  0  0  0  0  0  0
  161.1830  205.5680  153.8940 F   0  0  0  0  0  0  0  0  0  0  0  0
  161.7930  206.8720  149.9870 C   0  0  0  0  0  3  0  0  0  0  0  0
  161.6020  205.7440  145.4840 C   0  0  0  0  0  2  0  0  0  0  0  0
  160.9640  203.3100  149.4110 C   0  0  0  0  0  0  0  0  0  0  0  0
  160.8880  202.5370  148.2180 N   0  0  0  0  0  2  0  0  0  0  0  0
  161.7280  207.3080  152.3680 C   0  0  0  0  0  3  0  0  0  0  0  0
  161.1030  205.9590  146.9270 C   0  0  0  0  0  2  0  0  0  0  0  0
  161.9430  207.7590  151.0600 C   0  0  0  0  0  0  0  0  0  0  0  0
  161.2260  205.0820  151.5450 C   0  0  0  0  0  0  0  0  0  0  0  0
  162.2990  209.1250  150.8420 N   0  0  0  0  0  2  0  0  0  0  0  0
  161.3290  210.4790  151.4390 S   0  0  0  0  0  0  0  0  0  0  0  0
  161.3470  212.9200  148.4460 N   0  0  0  0  0  0  0  0  0  0  0  0
  160.9870  212.5960  149.6780 N   0  0  0  0  0  2  0  0  0  0  0  0
  162.0780  211.9610  147.8950 N   0  0  0  0  0  0  0  0  0  0  0  0
  161.5150  211.3860  149.9100 C   0  0  0  0  0  0  0  0  0  0  0  0
  162.2060  210.9670  148.7960 C   0  0  0  0  0  3  0  0  0  0  0  0
  1 13  2  0  0  0  0
  1  2  1  0  0  0  0
  2 18  1  0  0  0  0
  3  6  2  0  0  0  0
  4 16  1  6  0  0  0
  4  1  1  0  0  0  0
  5 12  1  0  0  0  0
  5  8  1  0  0  0  0
  7  8  1  6  0  0  0
  7  4  1  0  0  0  0
  7 14  1  0  0  0  0
  9 10  1  0  0  0  0
 11  2  2  0  0  0  0
 11 17  1  0  0  0  0
 12 16  1  0  0  0  0
 13  3  1  0  0  0  0
 14 13  1  0  0  0  0
 15  9  1  0  0  0  0
 17 15  2  0  0  0  0
 18  6  1  0  0  0  0
 18  9  2  0  0  0  0
 19 17  1  0  0  0  0
 19 20  1  0  0  0  0
 21 22  1  0  0  0  0
 22 24  1  0  0  0  0
 23 21  2  0  0  0  0
 23 25  1  0  0  0  0
 24 20  1  0  0  0  0
 25 24  2  0  0  0  0
M  END
>  <MODEL>
4

>  <REMARK>
 VINA RESULT:      -9.4      1.700      2.179
  Name = 
  3 active torsions:
  status: ('A' for Active; 'I' for Inactive)
    1  A    between atoms: N_6  and  S_15
    2  A    between atoms: N_6  and  C_23
    3  A    between atoms: S_15  and  C_21
                            x       y       z     vdW  Elec       q    Type
                         _______ _______ _______ _____ _____    ______ ____

>  <TORSDO>
F 3

$$$$
=
 OpenBabel11052422113D

 25 29  0  0  1  0  0  0  0  0999 V2000
  161.1630  203.7520  148.4740 C   0  0  0  0  0  0  0  0  0  0  0  0
  161.1990  204.1610  149.8110 C   0  0  0  0  0  0  0  0  0  0  0  0
  160.4880  201.5130  149.0980 C   0  0  0  0  0  3  0  0  0  0  0  0
  161.6670  204.4180  147.2500 C   0  0  1  0  0  3  0  0  0  0  0  0
  161.6390  205.2040  144.4720 C   0  0  0  0  0  2  0  0  0  0  0  0
  160.4730  201.9090  150.4450 C   0  0  0  0  0  3  0  0  0  0  0  0
  161.0290  203.5620  146.1770 C   0  0  1  0  0  3  0  0  0  0  0  0
  161.8090  203.7290  144.8920 C   0  0  0  0  0  2  0  0  0  0  0  0
  160.8310  203.6180  152.1580 C   0  0  0  0  0  0  0  0  0  0  0  0
  160.4750  202.7480  153.1350 F   0  0  0  0  0  0  0  0  0  0  0  0
  161.5900  205.4520  150.1720 C   0  0  0  0  0  3  0  0  0  0  0  0
  161.9890  206.2030  145.6050 C   0  0  0  0  0  2  0  0  0  0  0  0
  160.8430  202.4540  148.1330 C   0  0  0  0  0  0  0  0  0  0  0  0
  160.9230  202.2190  146.7320 N   0  0  0  0  0  2  0  0  0  0  0  0
  161.2150  204.9180  152.5040 C   0  0  0  0  0  3  0  0  0  0  0  0
  161.3050  205.8570  146.9440 C   0  0  0  0  0  2  0  0  0  0  0  0
  161.5990  205.8350  151.5200 C   0  0  0  0  0  0  0  0  0  0  0  0
  160.8240  203.2260  150.8110 C   0  0  0  0  0  0  0  0  0  0  0  0
  161.9800  207.1560  151.9070 N   0  0  0  0  0  2  0  0  0  0  0  0
  160.8310  208.4990  152.0110 S   0  0  0  0  0  0  0  0  0  0  0  0
  161.5220  208.4440  155.8110 N   0  0  0  0  0  0  0  0  0  0  0  0
  161.1950  207.8360  154.6810 N   0  0  0  0  0  0  0  0  0  0  0  0
  161.7350  209.7360  155.6120 N   0  0  0  0  0  2  0  0  0  0  0  0
  161.2060  208.7860  153.7350 C   0  0  0  0  0  0  0  0  0  0  0  0
  161.5430  209.9930  154.3040 C   0  0  0  0  0  3  0  0  0  0  0  0
  1  2  1  0  0  0  0
  2 11  2  0  0  0  0
  2 18  1  0  0  0  0
  3  6  2  0  0  0  0
  4 16  1  6  0  0  0
  4  1  1  0  0  0  0
  5  8  1  0  0  0  0
  5 12  1  0  0  0  0
  6 18  1  0  0  0  0
  7  8  1  6  0  0  0
  7 14  1  0  0  0  0
  7  4  1  0  0  0  0
  9 15  1  0  0  0  0
  9 10  1  0  0  0  0
 11 17  1  0  0  0  0
 12 16  1  0  0  0  0
 13  1  2  0  0  0  0
 13  3  1  0  0  0  0
 14 13  1  0  0  0  0
 17 19  1  0  0  0  0
 17 15  2  0  0  0  0
 18  9  2  0  0  0  0
 19 20  1  0  0  0  0
 20 24  1  0  0  0  0
 22 21  2  0  0  0  0
 23 21  1  0  0  0  0
 24 25  2  0  0  0  0
 24 22  1  0  0  0  0
 25 23  1  0  0  0  0
M  END
>  <MODEL>
5

>  <REMARK>
 VINA RESULT:      -9.3      2.021      2.336
  Name = 
  3 active torsions:
  status: ('A' for Active; 'I' for Inactive)
    1  A    between atoms: N_6  and  S_15
    2  A    between atoms: N_6  and  C_23
    3  A    between atoms: S_15  and  C_21
                            x       y       z     vdW  Elec       q    Type
                         _______ _______ _______ _____ _____    ______ ____

>  <TORSDO>
F 3

$$$$
=
 OpenBabel11052422113D

 25 29  0  0  1  0  0  0  0  0999 V2000
  161.3570  206.0380  149.8690 C   0  0  0  0  0  0  0  0  0  0  0  0
  161.4440  207.2540  150.5530 C   0  0  0  0  0  0  0  0  0  0  0  0
  161.7690  207.1170  147.7430 C   0  0  0  0  0  3  0  0  0  0  0  0
  160.8800  204.7100  150.3230 C   0  0  1  0  0  3  0  0  0  0  0  0
  160.8640  201.8280  150.4900 C   0  0  0  0  0  2  0  0  0  0  0  0
  161.9060  208.3450  148.4100 C   0  0  0  0  0  3  0  0  0  0  0  0
  161.3460  203.8340  149.1800 C   0  0  1  0  0  3  0  0  0  0  0  0
  160.5270  202.5620  149.1760 C   0  0  0  0  0  2  0  0  0  0  0  0
  161.8610  209.6540  150.4750 C   0  0  0  0  0  0  0  0  0  0  0  0
  162.1530  210.7890  149.7920 F   0  0  0  0  0  0  0  0  0  0  0  0
  161.2430  207.3350  151.9340 C   0  0  0  0  0  3  0  0  0  0  0  0
  160.7060  202.7250  151.7450 C   0  0  0  0  0  2  0  0  0  0  0  0
  161.4890  205.9790  148.4980 C   0  0  0  0  0  0  0  0  0  0  0  0
  161.3060  204.6650  147.9840 N   0  0  0  0  0  2  0  0  0  0  0  0
  161.6670  209.7180  151.8600 C   0  0  0  0  0  3  0  0  0  0  0  0
  161.4080  204.0900  151.6000 C   0  0  0  0  0  2  0  0  0  0  0  0
  161.3540  208.5670  152.5910 C   0  0  0  0  0  0  0  0  0  0  0  0
  161.7470  208.4250  149.8090 C   0  0  0  0  0  0  0  0  0  0  0  0
  161.1670  208.6670  154.0040 N   0  0  0  0  0  2  0  0  0  0  0  0
  161.5270  210.1370  154.9220 S   0  0  0  0  0  0  0  0  0  0  0  0
  157.7900  210.8720  155.5630 N   0  0  0  0  0  0  0  0  0  0  0  0
  158.9420  210.3250  155.9150 N   0  0  0  0  0  2  0  0  0  0  0  0
  157.8980  211.5110  154.4070 N   0  0  0  0  0  0  0  0  0  0  0  0
  159.8100  210.6350  154.9410 C   0  0  0  0  0  0  0  0  0  0  0  0
  159.1690  211.3820  153.9790 C   0  0  0  0  0  3  0  0  0  0  0  0
  1  4  1  0  0  0  0
  1  2  1  0  0  0  0
  2 11  1  0  0  0  0
  3  6  2  0  0  0  0
  3 13  1  0  0  0  0
  4 16  1  1  0  0  0
  5 12  1  0  0  0  0
  6 18  1  0  0  0  0
  7  8  1  6  0  0  0
  7  4  1  0  0  0  0
  8  5  1  0  0  0  0
  9 15  2  0  0  0  0
 10  9  1  0  0  0  0
 11 17  2  0  0  0  0
 13  1  2  0  0  0  0
 14 13  1  0  0  0  0
 14  7  1  0  0  0  0
 15 17  1  0  0  0  0
 16 12  1  0  0  0  0
 17 19  1  0  0  0  0
 18  9  1  0  0  0  0
 18  2  2  0  0  0  0
 19 20  1  0  0  0  0
 20 24  1  0  0  0  0
 21 22  1  0  0  0  0
 23 21  2  0  0  0  0
 24 22  1  0  0  0  0
 25 23  1  0  0  0  0
 25 24  2  0  0  0  0
M  END
>  <MODEL>
6

>  <REMARK>
 VINA RESULT:      -9.3      2.377      3.875
  Name = 
  3 active torsions:
  status: ('A' for Active; 'I' for Inactive)
    1  A    between atoms: N_6  and  S_15
    2  A    between atoms: N_6  and  C_23
    3  A    between atoms: S_15  and  C_21
                            x       y       z     vdW  Elec       q    Type
                         _______ _______ _______ _____ _____    ______ ____

>  <TORSDO>
F 3

$$$$
=
 OpenBabel11052422113D

 25 29  0  0  1  0  0  0  0  0999 V2000
  161.2580  205.3380  149.4640 C   0  0  0  0  0  0  0  0  0  0  0  0
  161.3620  206.4530  150.3010 C   0  0  0  0  0  0  0  0  0  0  0  0
  160.9190  203.8590  151.3500 C   0  0  0  0  0  3  0  0  0  0  0  0
  161.5670  205.1840  148.0230 C   0  0  1  0  0  3  0  0  0  0  0  0
  161.1980  204.1920  145.3370 C   0  0  0  0  0  2  0  0  0  0  0  0
  160.9750  204.9680  152.2100 C   0  0  0  0  0  3  0  0  0  0  0  0
  160.9460  203.8320  147.7410 C   0  0  1  0  0  3  0  0  0  0  0  0
  161.5830  203.2530  146.4990 C   0  0  0  0  0  2  0  0  0  0  0  0
  161.2710  207.3710  152.5570 C   0  0  0  0  0  0  0  0  0  0  0  0
  161.1120  207.2220  153.8950 F   0  0  0  0  0  0  0  0  0  0  0  0
  161.6220  207.7290  149.7940 C   0  0  0  0  0  3  0  0  0  0  0  0
  161.5210  205.6800  145.6260 C   0  0  0  0  0  2  0  0  0  0  0  0
  161.0700  204.0730  149.9810 C   0  0  0  0  0  0  0  0  0  0  0  0
  161.0540  203.0660  148.9760 N   0  0  0  0  0  2  0  0  0  0  0  0
  161.5230  208.6440  152.0340 C   0  0  0  0  0  3  0  0  0  0  0  0
  161.0060  206.1510  147.0010 C   0  0  0  0  0  2  0  0  0  0  0  0
  161.7030  208.8280  150.6580 C   0  0  0  0  0  0  0  0  0  0  0  0
  161.1940  206.2640  151.6980 C   0  0  0  0  0  0  0  0  0  0  0  0
  161.9530  210.1420  150.1560 N   0  0  0  0  0  2  0  0  0  0  0  0
  162.0440  210.5110  148.4280 S   0  0  0  0  0  0  0  0  0  0  0  0
  160.9380  214.0660  149.4540 N   0  0  0  0  0  0  0  0  0  0  0  0
  160.8220  212.7500  149.5230 N   0  0  0  0  0  2  0  0  0  0  0  0
  161.9140  214.4180  148.6290 N   0  0  0  0  0  0  0  0  0  0  0  0
  161.7650  212.2540  148.7080 C   0  0  0  0  0  0  0  0  0  0  0  0
  162.4630  213.2920  148.1330 C   0  0  0  0  0  3  0  0  0  0  0  0
  1 13  2  0  0  0  0
  1  2  1  0  0  0  0
  2 18  1  0  0  0  0
  3  6  2  0  0  0  0
  4 16  1  6  0  0  0
  4  1  1  0  0  0  0
  5 12  1  0  0  0  0
  5  8  1  0  0  0  0
  7  8  1  6  0  0  0
  7  4  1  0  0  0  0
  7 14  1  0  0  0  0
  9 10  1  0  0  0  0
 11  2  2  0  0  0  0
 11 17  1  0  0  0  0
 12 16  1  0  0  0  0
 13  3  1  0  0  0  0
 14 13  1  0  0  0  0
 15  9  1  0  0  0  0
 17 15  2  0  0  0  0
 18  6  1  0  0  0  0
 18  9  2  0  0  0  0
 19 17  1  0  0  0  0
 20 24  1  0  0  0  0
 20 19  1  0  0  0  0
 21 22  1  0  0  0  0
 23 21  2  0  0  0  0
 24 22  1  0  0  0  0
 25 23  1  0  0  0  0
 25 24  2  0  0  0  0
M  END
>  <MODEL>
7

>  <REMARK>
 VINA RESULT:      -9.2      2.221      2.662
  Name = 
  3 active torsions:
  status: ('A' for Active; 'I' for Inactive)
    1  A    between atoms: N_6  and  S_15
    2  A    between atoms: N_6  and  C_23
    3  A    between atoms: S_15  and  C_21
                            x       y       z     vdW  Elec       q    Type
                         _______ _______ _______ _____ _____    ______ ____

>  <TORSDO>
F 3

$$$$
=
 OpenBabel11052422113D

 25 29  0  0  1  0  0  0  0  0999 V2000
  161.2250  204.5910  149.4100 C   0  0  0  0  0  0  0  0  0  0  0  0
  161.3170  205.3740  150.5640 C   0  0  0  0  0  0  0  0  0  0  0  0
  160.8770  202.5800  150.7110 C   0  0  0  0  0  3  0  0  0  0  0  0
  161.5460  204.9130  147.9990 C   0  0  1  0  0  3  0  0  0  0  0  0
  161.2020  204.8440  145.1340 C   0  0  0  0  0  2  0  0  0  0  0  0
  160.9210  203.3500  151.8840 C   0  0  0  0  0  3  0  0  0  0  0  0
  160.9320  203.7250  147.2890 C   0  0  1  0  0  3  0  0  0  0  0  0
  161.5820  203.5800  145.9310 C   0  0  0  0  0  2  0  0  0  0  0  0
  161.2050  205.5100  152.9940 C   0  0  0  0  0  0  0  0  0  0  0  0
  161.0350  204.9360  154.2110 F   0  0  0  0  0  0  0  0  0  0  0  0
  161.5760  206.7460  150.5010 C   0  0  0  0  0  3  0  0  0  0  0  0
  161.5170  206.1600  145.8920 C   0  0  0  0  0  2  0  0  0  0  0  0
  161.0380  203.2260  149.4860 C   0  0  0  0  0  0  0  0  0  0  0  0
  161.0340  202.5990  148.2090 N   0  0  0  0  0  2  0  0  0  0  0  0
  161.4550  206.8850  152.9150 C   0  0  0  0  0  3  0  0  0  0  0  0
  160.9890  206.1590  147.3410 C   0  0  0  0  0  2  0  0  0  0  0  0
  161.6450  207.5050  151.6750 C   0  0  0  0  0  0  0  0  0  0  0  0
  161.1390  204.7420  151.8230 C   0  0  0  0  0  0  0  0  0  0  0  0
  161.8940  208.9110  151.6290 N   0  0  0  0  0  2  0  0  0  0  0  0
  160.6670  210.1200  152.0390 S   0  0  0  0  0  0  0  0  0  0  0  0
  162.3390  210.5440  155.4940 N   0  0  0  0  0  0  0  0  0  0  0  0
  162.3330  210.7030  154.1800 N   0  0  0  0  0  0  0  0  0  0  0  0
  161.2380  209.9320  155.9060 N   0  0  0  0  0  2  0  0  0  0  0  0
  161.1800  210.1710  153.7500 C   0  0  0  0  0  0  0  0  0  0  0  0
  160.4750  209.6770  154.8250 C   0  0  0  0  0  3  0  0  0  0  0  0
  1 13  2  0  0  0  0
  1  2  1  0  0  0  0
  2 18  1  0  0  0  0
  3  6  2  0  0  0  0
  4 16  1  6  0  0  0
  4  1  1  0  0  0  0
  5 12  1  0  0  0  0
  5  8  1  0  0  0  0
  7  8  1  6  0  0  0
  7  4  1  0  0  0  0
  7 14  1  0  0  0  0
  9 10  1  0  0  0  0
 11  2  2  0  0  0  0
 11 17  1  0  0  0  0
 12 16  1  0  0  0  0
 13  3  1  0  0  0  0
 14 13  1  0  0  0  0
 15  9  1  0  0  0  0
 17 15  2  0  0  0  0
 18  6  1  0  0  0  0
 18  9  2  0  0  0  0
 19 17  1  0  0  0  0
 19 20  1  0  0  0  0
 20 24  1  0  0  0  0
 21 23  1  0  0  0  0
 22 21  2  0  0  0  0
 24 22  1  0  0  0  0
 24 25  2  0  0  0  0
 25 23  1  0  0  0  0
M  END
>  <MODEL>
8

>  <REMARK>
 VINA RESULT:      -9.2      1.442      1.518
  Name = 
  3 active torsions:
  status: ('A' for Active; 'I' for Inactive)
    1  A    between atoms: N_6  and  S_15
    2  A    between atoms: N_6  and  C_23
    3  A    between atoms: S_15  and  C_21
                            x       y       z     vdW  Elec       q    Type
                         _______ _______ _______ _____ _____    ______ ____

>  <TORSDO>
F 3

$$$$
=
 OpenBabel11052422113D

 25 29  0  0  1  0  0  0  0  0999 V2000
  161.1600  203.6100  148.4670 C   0  0  0  0  0  0  0  0  0  0  0  0
  161.1990  203.9750  149.8160 C   0  0  0  0  0  0  0  0  0  0  0  0
  160.4790  201.3540  149.0170 C   0  0  0  0  0  3  0  0  0  0  0  0
  161.6650  204.3150  147.2650 C   0  0  1  0  0  3  0  0  0  0  0  0
  161.6360  205.1910  144.5150 C   0  0  0  0  0  2  0  0  0  0  0  0
  160.4660  201.7060  150.3770 C   0  0  0  0  0  3  0  0  0  0  0  0
  161.0230  203.4970  146.1640 C   0  0  1  0  0  3  0  0  0  0  0  0
  161.8030  203.7040  144.8850 C   0  0  0  0  0  2  0  0  0  0  0  0
  160.8310  203.3560  152.1440 C   0  0  0  0  0  0  0  0  0  0  0  0
  160.4730  202.4550  153.0930 F   0  0  0  0  0  0  0  0  0  0  0  0
  161.5930  205.2530  150.2200 C   0  0  0  0  0  3  0  0  0  0  0  0
  161.9900  206.1520  145.6790 C   0  0  0  0  0  2  0  0  0  0  0  0
  160.8360  202.3260  148.0830 C   0  0  0  0  0  0  0  0  0  0  0  0
  160.9140  202.1370  146.6750 N   0  0  0  0  0  2  0  0  0  0  0  0
  161.2190  204.6430  152.5330 C   0  0  0  0  0  3  0  0  0  0  0  0
  161.3070  205.7640  147.0060 C   0  0  0  0  0  2  0  0  0  0  0  0
  161.6050  205.5910  151.5790 C   0  0  0  0  0  0  0  0  0  0  0  0
  160.8220  203.0080  150.7850 C   0  0  0  0  0  0  0  0  0  0  0  0
  161.9910  206.8980  152.0090 N   0  0  0  0  0  2  0  0  0  0  0  0
  160.8380  208.2270  152.2010 S   0  0  0  0  0  0  0  0  0  0  0  0
  162.3310  210.6250  149.5670 N   0  0  0  0  0  0  0  0  0  0  0  0
  161.9500  210.3520  150.8050 N   0  0  0  0  0  2  0  0  0  0  0  0
  162.1230  209.5910  148.7650 N   0  0  0  0  0  0  0  0  0  0  0  0
  161.4850  209.0950  150.7790 C   0  0  0  0  0  0  0  0  0  0  0  0
  161.5850  208.5980  149.4990 C   0  0  0  0  0  3  0  0  0  0  0  0
  1  2  1  0  0  0  0
  2 11  2  0  0  0  0
  2 18  1  0  0  0  0
  3  6  2  0  0  0  0
  4 16  1  1  0  0  0
  4  1  1  0  0  0  0
  5  8  1  0  0  0  0
  5 12  1  0  0  0  0
  6 18  1  0  0  0  0
  7  8  1  6  0  0  0
  7 14  1  0  0  0  0
  7  4  1  0  0  0  0
  9 15  1  0  0  0  0
  9 10  1  0  0  0  0
 11 17  1  0  0  0  0
 12 16  1  0  0  0  0
 13  1  2  0  0  0  0
 13  3  1  0  0  0  0
 14 13  1  0  0  0  0
 17 19  1  0  0  0  0
 17 15  2  0  0  0  0
 18  9  2  0  0  0  0
 19 20  1  0  0  0  0
 21 22  1  0  0  0  0
 23 25  1  0  0  0  0
 23 21  2  0  0  0  0
 24 22  1  0  0  0  0
 24 20  1  0  0  0  0
 25 24  2  0  0  0  0
M  END
>  <MODEL>
9

>  <REMARK>
 VINA RESULT:      -9.2      1.986      2.592
  Name = 
  3 active torsions:
  status: ('A' for Active; 'I' for Inactive)
    1  A    between atoms: N_6  and  S_15
    2  A    between atoms: N_6  and  C_23
    3  A    between atoms: S_15  and  C_21
                            x       y       z     vdW  Elec       q    Type
                         _______ _______ _______ _____ _____    ______ ____

>  <TORSDO>
F 3

$$$$
