=
 OpenBabel11052423213D

 27 30  0  0  1  0  0  0  0  0999 V2000
  160.4140  205.8880  150.4590 C   0  0  2  0  0  3  0  0  0  0  0  0
  160.5900  205.4880  148.9840 C   0  0  1  0  0  3  0  0  0  0  0  0
  161.4720  204.7260  144.6700 S   0  0  0  0  0  0  0  0  0  0  0  0
  160.4220  202.2340  145.0730 C   0  0  0  0  0  1  0  0  0  0  0  0
  160.2640  206.6520  148.0570 C   0  0  0  0  0  2  0  0  0  0  0  0
  161.3870  203.3490  146.9470 O   0  0  0  0  0  0  0  0  0  0  0  0
  162.1070  204.5180  147.2070 C   0  0  1  0  0  3  0  0  0  0  0  0
  161.5310  203.1380  145.5680 C   0  0  2  0  0  3  0  0  0  0  0  0
  161.6490  205.5970  146.2350 C   0  0  2  0  0  3  0  0  0  0  0  0
  161.9840  204.9370  148.6710 C   0  0  0  0  0  2  0  0  0  0  0  0
  160.2790  206.1670  146.6150 C   0  0  0  0  0  2  0  0  0  0  0  0
  161.1520  208.1370  151.1900 N   0  0  0  0  0  0  0  0  0  0  0  0
  161.7190  207.3610  153.3970 C   0  0  1  0  0  3  0  0  0  0  0  0
  162.3060  208.9340  150.7790 C   0  0  0  0  0  1  0  0  0  0  0  0
  161.0240  206.9110  154.5180 O   0  0  0  0  0  1  0  0  0  0  0  0
  161.5550  206.7370  151.0570 C   0  0  1  0  0  3  0  0  0  0  0  0
  161.0680  209.6440  153.0370 O   0  0  0  0  0  1  0  0  0  0  0  0
  163.2920  205.8620  152.4490 O   0  0  0  0  0  1  0  0  0  0  0  0
  161.9450  206.2170  152.4410 C   0  0  1  0  0  3  0  0  0  0  0  0
  160.8630  208.3250  152.6160 C   0  0  1  0  0  3  0  0  0  0  0  0
  160.0410  204.6810  151.3320 C   0  0  0  0  0  2  0  0  0  0  0  0
  161.1350  200.8850  149.6450 C   0  0  0  0  0  3  0  0  0  0  0  0
  160.4230  203.3640  150.7330 C   0  0  0  0  0  0  0  0  0  0  0  0
  161.5580  202.6910  151.2020 C   0  0  0  0  0  3  0  0  0  0  0  0
  161.9130  201.4530  150.6580 C   0  0  0  0  0  3  0  0  0  0  0  0
  160.0020  201.5560  149.1740 C   0  0  0  0  0  3  0  0  0  0  0  0
  159.6460  202.7930  149.7170 C   0  0  0  0  0  3  0  0  0  0  0  0
  1 21  1  1  0  0  0
  2  1  1  1  0  0  0
  3  8  1  0  0  0  0
  3  9  1  0  0  0  0
  5  2  1  0  0  0  0
  6  7  1  0  0  0  0
  7 10  1  1  0  0  0
  8  4  1  6  0  0  0
  8  6  1  0  0  0  0
  9 11  1  1  0  0  0
  9  7  1  0  0  0  0
 10  2  1  0  0  0  0
 11  5  1  0  0  0  0
 12 20  1  0  0  0  0
 13 15  1  1  0  0  0
 14 12  1  0  0  0  0
 16  1  1  1  0  0  0
 16 12  1  0  0  0  0
 16 19  1  0  0  0  0
 19 18  1  6  0  0  0
 19 13  1  0  0  0  0
 20 17  1  1  0  0  0
 20 13  1  0  0  0  0
 22 25  1  0  0  0  0
 23 24  1  0  0  0  0
 23 21  1  0  0  0  0
 25 24  2  0  0  0  0
 26 22  2  0  0  0  0
 26 27  1  0  0  0  0
 27 23  2  0  0  0  0
M  END
>  <MODEL>
1

>  <REMARK>
 VINA RESULT:      -6.8      0.000      0.000
  Name = 
  4 active torsions:
  status: ('A' for Active; 'I' for Inactive)
    1  A    between atoms: C_1  and  C_2
    2  A    between atoms: C_1  and  C_15
    3  A    between atoms: C_1  and  C_18
    4  A    between atoms: C_9  and  C_15
                            x       y       z     vdW  Elec       q    Type
                         _______ _______ _______ _____ _____    ______ ____

>  <TORSDO>
F 4

$$$$
=
 OpenBabel11052423213D

 27 30  0  0  1  0  0  0  0  0999 V2000
  160.0260  210.1440  153.8170 C   0  0  2  0  0  3  0  0  0  0  0  0
  159.0610  211.1630  153.1880 C   0  0  1  0  0  3  0  0  0  0  0  0
  156.3860  214.4520  151.7730 S   0  0  0  0  0  0  0  0  0  0  0  0
  156.5040  213.2580  149.3160 C   0  0  0  0  0  1  0  0  0  0  0  0
  157.9380  211.5230  154.1520 C   0  0  0  0  0  2  0  0  0  0  0  0
  158.3440  212.9330  150.7980 O   0  0  0  0  0  0  0  0  0  0  0  0
  158.7740  213.4000  152.0420 C   0  0  1  0  0  3  0  0  0  0  0  0
  157.4000  213.8780  150.3680 C   0  0  2  0  0  3  0  0  0  0  0  0
  157.5520  213.6800  152.9060 C   0  0  2  0  0  3  0  0  0  0  0  0
  159.7610  212.4310  152.6930 C   0  0  0  0  0  2  0  0  0  0  0  0
  156.9150  212.3910  153.4320 C   0  0  0  0  0  2  0  0  0  0  0  0
  160.5980  208.9520  155.9120 N   0  0  0  0  0  0  0  0  0  0  0  0
  162.2980  210.5540  156.4960 C   0  0  1  0  0  3  0  0  0  0  0  0
  159.8280  208.7770  157.1420 C   0  0  0  0  0  1  0  0  0  0  0  0
  163.5580  210.9080  156.0170 O   0  0  0  0  0  1  0  0  0  0  0  0
  160.1820  210.2370  155.3490 C   0  0  1  0  0  3  0  0  0  0  0  0
  162.4510  208.2820  157.2570 O   0  0  0  0  0  1  0  0  0  0  0  0
  160.6550  212.2620  156.5310 O   0  0  0  0  0  1  0  0  0  0  0  0
  161.2310  211.2850  155.7210 C   0  0  1  0  0  3  0  0  0  0  0  0
  162.0280  209.1000  156.2030 C   0  0  1  0  0  3  0  0  0  0  0  0
  161.3710  210.1060  153.0770 C   0  0  0  0  0  2  0  0  0  0  0  0
  161.6130  206.9620  150.1600 C   0  0  0  0  0  3  0  0  0  0  0  0
  161.4680  209.0130  152.0600 C   0  0  0  0  0  0  0  0  0  0  0  0
  161.1160  207.7040  152.4110 C   0  0  0  0  0  3  0  0  0  0  0  0
  161.1890  206.6810  151.4620 C   0  0  0  0  0  3  0  0  0  0  0  0
  161.9660  208.2680  149.8070 C   0  0  0  0  0  3  0  0  0  0  0  0
  161.8930  209.2920  150.7550 C   0  0  0  0  0  3  0  0  0  0  0  0
  1 21  1  6  0  0  0
  2  1  1  1  0  0  0
  2  5  1  0  0  0  0
  3  9  1  0  0  0  0
  6  7  1  0  0  0  0
  7 10  1  1  0  0  0
  7  9  1  0  0  0  0
  8  4  1  6  0  0  0
  8  6  1  0  0  0  0
  8  3  1  0  0  0  0
  9 11  1  6  0  0  0
 10  2  1  0  0  0  0
 11  5  1  0  0  0  0
 12 20  1  0  0  0  0
 12 14  1  0  0  0  0
 13 15  1  6  0  0  0
 16  1  1  6  0  0  0
 16 19  1  0  0  0  0
 16 12  1  0  0  0  0
 19 13  1  0  0  0  0
 19 18  1  1  0  0  0
 20 13  1  0  0  0  0
 20 17  1  1  0  0  0
 22 25  1  0  0  0  0
 23 24  1  0  0  0  0
 23 21  1  0  0  0  0
 25 24  2  0  0  0  0
 26 22  2  0  0  0  0
 26 27  1  0  0  0  0
 27 23  2  0  0  0  0
M  END
>  <MODEL>
2

>  <REMARK>
 VINA RESULT:      -6.5      5.006      7.943
  Name = 
  4 active torsions:
  status: ('A' for Active; 'I' for Inactive)
    1  A    between atoms: C_1  and  C_2
    2  A    between atoms: C_1  and  C_15
    3  A    between atoms: C_1  and  C_18
    4  A    between atoms: C_9  and  C_15
                            x       y       z     vdW  Elec       q    Type
                         _______ _______ _______ _____ _____    ______ ____

>  <TORSDO>
F 4

$$$$
=
 OpenBabel11052423213D

 27 30  0  0  1  0  0  0  0  0999 V2000
  161.0210  210.1690  151.8830 C   0  0  2  0  0  3  0  0  0  0  0  0
  160.8760  211.1450  150.7030 C   0  0  1  0  0  3  0  0  0  0  0  0
  160.8530  214.2700  147.5080 S   0  0  0  0  0  0  0  0  0  0  0  0
  159.6360  212.3990  145.9280 C   0  0  0  0  0  1  0  0  0  0  0  0
  160.5090  212.5420  151.1870 C   0  0  0  0  0  2  0  0  0  0  0  0
  161.0460  211.6200  147.6850 O   0  0  0  0  0  0  0  0  0  0  0  0
  161.9220  212.1550  148.6320 C   0  0  1  0  0  3  0  0  0  0  0  0
  160.9080  212.6260  146.7170 C   0  0  2  0  0  3  0  0  0  0  0  0
  161.4100  213.5270  149.0490 C   0  0  2  0  0  3  0  0  0  0  0  0
  162.1200  211.2040  149.8130 C   0  0  0  0  0  2  0  0  0  0  0  0
  160.2040  213.4270  149.9880 C   0  0  0  0  0  2  0  0  0  0  0  0
  159.7550  210.8630  153.8960 N   0  0  0  0  0  0  0  0  0  0  0  0
  161.1720  209.5890  155.3680 C   0  0  1  0  0  3  0  0  0  0  0  0
  159.6450  212.1690  154.5420 C   0  0  0  0  0  1  0  0  0  0  0  0
  161.4030  208.2390  155.6280 O   0  0  0  0  0  1  0  0  0  0  0  0
  161.0810  210.8220  153.2800 C   0  0  1  0  0  3  0  0  0  0  0  0
  158.8870  210.0350  155.9590 O   0  0  0  0  0  1  0  0  0  0  0  0
  163.0350  210.8700  154.6580 O   0  0  0  0  0  1  0  0  0  0  0  0
  162.0150  210.0380  154.2010 C   0  0  1  0  0  3  0  0  0  0  0  0
  159.7550  209.7830  154.8900 C   0  0  1  0  0  3  0  0  0  0  0  0
  162.1490  209.1550  151.6440 C   0  0  0  0  0  2  0  0  0  0  0  0
  160.7780  205.2260  150.5760 C   0  0  0  0  0  3  0  0  0  0  0  0
  161.6620  207.7880  151.2800 C   0  0  0  0  0  0  0  0  0  0  0  0
  161.2320  207.5280  149.9740 C   0  0  0  0  0  3  0  0  0  0  0  0
  160.7900  206.2490  149.6230 C   0  0  0  0  0  3  0  0  0  0  0  0
  161.2060  205.4840  151.8820 C   0  0  0  0  0  3  0  0  0  0  0  0
  161.6480  206.7620  152.2340 C   0  0  0  0  0  3  0  0  0  0  0  0
  1 21  1  6  0  0  0
  2  5  1  0  0  0  0
  2  1  1  1  0  0  0
  3  9  1  0  0  0  0
  6  7  1  0  0  0  0
  7  9  1  0  0  0  0
  7 10  1  1  0  0  0
  8  4  1  1  0  0  0
  8  3  1  0  0  0  0
  8  6  1  0  0  0  0
  9 11  1  1  0  0  0
 10  2  1  0  0  0  0
 11  5  1  0  0  0  0
 12 14  1  0  0  0  0
 12 20  1  0  0  0  0
 13 15  1  6  0  0  0
 16  1  1  6  0  0  0
 16 12  1  0  0  0  0
 16 19  1  0  0  0  0
 19 18  1  1  0  0  0
 19 13  1  0  0  0  0
 20 13  1  0  0  0  0
 20 17  1  1  0  0  0
 22 26  1  0  0  0  0
 23 21  1  0  0  0  0
 23 27  1  0  0  0  0
 24 23  2  0  0  0  0
 25 24  1  0  0  0  0
 25 22  2  0  0  0  0
 26 27  2  0  0  0  0
M  END
>  <MODEL>
3

>  <REMARK>
 VINA RESULT:      -6.4      3.851      6.146
  Name = 
  4 active torsions:
  status: ('A' for Active; 'I' for Inactive)
    1  A    between atoms: C_1  and  C_2
    2  A    between atoms: C_1  and  C_15
    3  A    between atoms: C_1  and  C_18
    4  A    between atoms: C_9  and  C_15
                            x       y       z     vdW  Elec       q    Type
                         _______ _______ _______ _____ _____    ______ ____

>  <TORSDO>
F 4

$$$$
=
 OpenBabel11052423213D

 27 30  0  0  1  0  0  0  0  0999 V2000
  158.9580  211.7960  153.0240 C   0  0  2  0  0  3  0  0  0  0  0  0
  158.9820  212.3510  151.5900 C   0  0  1  0  0  3  0  0  0  0  0  0
  158.9280  214.4460  147.6420 S   0  0  0  0  0  0  0  0  0  0  0  0
  160.4340  212.3620  146.7100 C   0  0  0  0  0  1  0  0  0  0  0  0
  157.6350  212.9530  151.2120 C   0  0  0  0  0  2  0  0  0  0  0  0
  160.5760  212.8830  149.0330 O   0  0  0  0  0  0  0  0  0  0  0  0
  160.1130  213.8680  149.9100 C   0  0  1  0  0  3  0  0  0  0  0  0
  160.4570  213.4560  147.7570 C   0  0  2  0  0  3  0  0  0  0  0  0
  158.7490  214.3440  149.4300 C   0  0  2  0  0  3  0  0  0  0  0  0
  160.1010  213.3690  151.3550 C   0  0  0  0  0  2  0  0  0  0  0  0
  157.6460  213.3280  149.7370 C   0  0  0  0  0  2  0  0  0  0  0  0
  156.9350  212.0670  154.4260 N   0  0  0  0  0  0  0  0  0  0  0  0
  158.2220  212.2570  156.4520 C   0  0  1  0  0  3  0  0  0  0  0  0
  155.9760  213.1670  154.5020 C   0  0  0  0  0  1  0  0  0  0  0  0
  159.0000  211.4070  157.2360 O   0  0  0  0  0  1  0  0  0  0  0  0
  158.2170  212.6670  154.0600 C   0  0  1  0  0  3  0  0  0  0  0  0
  155.9780  211.4030  156.5090 O   0  0  0  0  0  1  0  0  0  0  0  0
  159.3000  214.1740  155.5690 O   0  0  0  0  0  1  0  0  0  0  0  0
  159.0540  212.8240  155.3290 C   0  0  1  0  0  3  0  0  0  0  0  0
  157.1510  211.4650  155.7460 C   0  0  1  0  0  3  0  0  0  0  0  0
  160.3590  211.3700  153.4890 C   0  0  0  0  0  2  0  0  0  0  0  0
  160.8660  207.1080  153.6730 C   0  0  0  0  0  3  0  0  0  0  0  0
  160.5470  209.8870  153.5490 C   0  0  0  0  0  0  0  0  0  0  0  0
  160.4690  209.2250  154.7790 C   0  0  0  0  0  3  0  0  0  0  0  0
  160.6270  207.8380  154.8410 C   0  0  0  0  0  3  0  0  0  0  0  0
  160.9460  207.7670  152.4420 C   0  0  0  0  0  3  0  0  0  0  0  0
  160.7870  209.1540  152.3790 C   0  0  0  0  0  3  0  0  0  0  0  0
  1 21  1  1  0  0  0
  2  1  1  1  0  0  0
  3  8  1  0  0  0  0
  3  9  1  0  0  0  0
  5  2  1  0  0  0  0
  6  7  1  0  0  0  0
  7 10  1  1  0  0  0
  8  4  1  6  0  0  0
  8  6  1  0  0  0  0
  9 11  1  6  0  0  0
  9  7  1  0  0  0  0
 10  2  1  0  0  0  0
 11  5  1  0  0  0  0
 12 14  1  0  0  0  0
 12 20  1  0  0  0  0
 13 15  1  1  0  0  0
 16  1  1  6  0  0  0
 16 12  1  0  0  0  0
 16 19  1  0  0  0  0
 19 18  1  1  0  0  0
 19 13  1  0  0  0  0
 20 13  1  0  0  0  0
 20 17  1  1  0  0  0
 21 23  1  0  0  0  0
 22 25  1  0  0  0  0
 23 24  1  0  0  0  0
 24 25  2  0  0  0  0
 26 22  2  0  0  0  0
 27 26  1  0  0  0  0
 27 23  2  0  0  0  0
M  END
>  <MODEL>
4

>  <REMARK>
 VINA RESULT:      -6.2      6.001      8.101
  Name = 
  4 active torsions:
  status: ('A' for Active; 'I' for Inactive)
    1  A    between atoms: C_1  and  C_2
    2  A    between atoms: C_1  and  C_15
    3  A    between atoms: C_1  and  C_18
    4  A    between atoms: C_9  and  C_15
                            x       y       z     vdW  Elec       q    Type
                         _______ _______ _______ _____ _____    ______ ____

>  <TORSDO>
F 4

$$$$
=
 OpenBabel11052423213D

 27 30  0  0  1  0  0  0  0  0999 V2000
  161.5880  205.2970  149.3530 C   0  0  2  0  0  3  0  0  0  0  0  0
  161.3810  206.3320  150.4730 C   0  0  1  0  0  3  0  0  0  0  0  0
  161.2300  209.1290  153.9550 S   0  0  0  0  0  0  0  0  0  0  0  0
  159.6580  210.7230  152.3860 C   0  0  0  0  0  1  0  0  0  0  0  0
  161.2060  205.6500  151.8240 C   0  0  0  0  0  2  0  0  0  0  0  0
  161.2050  209.2730  151.2960 O   0  0  0  0  0  0  0  0  0  0  0  0
  162.2400  208.4020  151.6450 C   0  0  1  0  0  3  0  0  0  0  0  0
  161.0360  210.0960  152.4190 C   0  0  2  0  0  3  0  0  0  0  0  0
  161.9110  207.7700  152.9910 C   0  0  2  0  0  3  0  0  0  0  0  0
  162.5010  207.3730  150.5460 C   0  0  0  0  0  2  0  0  0  0  0  0
  160.8310  206.6920  152.8680 C   0  0  0  0  0  2  0  0  0  0  0  0
  162.3740  204.7890  147.0600 N   0  0  0  0  0  0  0  0  0  0  0  0
  160.7210  206.2190  146.0510 C   0  0  1  0  0  3  0  0  0  0  0  0
  163.6210  205.1450  146.3860 C   0  0  0  0  0  1  0  0  0  0  0  0
  159.3370  206.2030  145.8870 O   0  0  0  0  0  1  0  0  0  0  0  0
  162.1030  205.8640  148.0140 C   0  0  1  0  0  3  0  0  0  0  0  0
  161.5900  204.3280  144.8540 O   0  0  0  0  0  1  0  0  0  0  0  0
  161.6330  208.0700  147.2180 O   0  0  0  0  0  1  0  0  0  0  0  0
  161.0720  206.8070  147.3950 C   0  0  1  0  0  3  0  0  0  0  0  0
  161.2450  204.8080  146.1230 C   0  0  1  0  0  3  0  0  0  0  0  0
  160.3600  204.3890  149.1880 C   0  0  0  0  0  2  0  0  0  0  0  0
  161.2970  200.2030  149.4340 C   0  0  0  0  0  3  0  0  0  0  0  0
  160.6760  202.9290  149.2800 C   0  0  0  0  0  0  0  0  0  0  0  0
  160.8310  202.1770  148.1100 C   0  0  0  0  0  3  0  0  0  0  0  0
  161.1410  200.8160  148.1870 C   0  0  0  0  0  3  0  0  0  0  0  0
  161.1410  200.9530  150.6040 C   0  0  0  0  0  3  0  0  0  0  0  0
  160.8310  202.3130  150.5280 C   0  0  0  0  0  3  0  0  0  0  0  0
  1 21  1  6  0  0  0
  2  1  1  6  0  0  0
  2 10  1  0  0  0  0
  2  5  1  0  0  0  0
  5 11  1  0  0  0  0
  6  7  1  0  0  0  0
  6  8  1  0  0  0  0
  7 10  1  6  0  0  0
  7  9  1  0  0  0  0
  8  4  1  6  0  0  0
  8  3  1  0  0  0  0
  9 11  1  6  0  0  0
  9  3  1  0  0  0  0
 12 16  1  0  0  0  0
 13 15  1  1  0  0  0
 13 20  1  0  0  0  0
 13 19  1  0  0  0  0
 14 12  1  0  0  0  0
 16  1  1  1  0  0  0
 19 18  1  6  0  0  0
 19 16  1  0  0  0  0
 20 17  1  6  0  0  0
 20 12  1  0  0  0  0
 21 23  1  0  0  0  0
 22 26  1  0  0  0  0
 23 27  1  0  0  0  0
 24 25  1  0  0  0  0
 24 23  2  0  0  0  0
 25 22  2  0  0  0  0
 27 26  2  0  0  0  0
M  END
>  <MODEL>
5

>  <REMARK>
 VINA RESULT:      -6.0      2.814      6.059
  Name = 
  4 active torsions:
  status: ('A' for Active; 'I' for Inactive)
    1  A    between atoms: C_1  and  C_2
    2  A    between atoms: C_1  and  C_15
    3  A    between atoms: C_1  and  C_18
    4  A    between atoms: C_9  and  C_15
                            x       y       z     vdW  Elec       q    Type
                         _______ _______ _______ _____ _____    ______ ____

>  <TORSDO>
F 4

$$$$
=
 OpenBabel11052423213D

 27 30  0  0  1  0  0  0  0  0999 V2000
  160.8430  209.4380  152.7220 C   0  0  2  0  0  3  0  0  0  0  0  0
  160.0540  210.7490  152.8780 C   0  0  1  0  0  3  0  0  0  0  0  0
  157.5540  214.4530  152.8390 S   0  0  0  0  0  0  0  0  0  0  0  0
  157.8170  214.4530  155.5600 C   0  0  0  0  0  1  0  0  0  0  0  0
  160.4000  211.7330  151.7680 C   0  0  0  0  0  2  0  0  0  0  0  0
  157.9650  212.3580  154.4300 O   0  0  0  0  0  0  0  0  0  0  0  0
  157.7950  211.8580  153.1370 C   0  0  1  0  0  3  0  0  0  0  0  0
  157.2980  213.5920  154.4270 C   0  0  2  0  0  3  0  0  0  0  0  0
  158.2140  212.9310  152.1410 C   0  0  2  0  0  3  0  0  0  0  0  0
  158.5390  210.5370  152.9440 C   0  0  0  0  0  2  0  0  0  0  0  0
  159.7360  213.0720  152.0570 C   0  0  0  0  0  2  0  0  0  0  0  0
  161.1570  209.7430  155.1590 N   0  0  0  0  0  0  0  0  0  0  0  0
  160.2100  207.5890  155.6680 C   0  0  1  0  0  3  0  0  0  0  0  0
  162.3810  209.7980  155.9570 C   0  0  0  0  0  1  0  0  0  0  0  0
  158.9460  207.0040  155.6150 O   0  0  0  0  0  1  0  0  0  0  0  0
  161.4500  208.8710  154.0220 C   0  0  1  0  0  3  0  0  0  0  0  0
  160.0870  209.3820  157.2610 O   0  0  0  0  0  1  0  0  0  0  0  0
  161.9160  206.5540  154.3880 O   0  0  0  0  0  1  0  0  0  0  0  0
  160.8810  207.4840  154.3220 C   0  0  1  0  0  3  0  0  0  0  0  0
  160.0790  209.0730  155.8950 C   0  0  1  0  0  3  0  0  0  0  0  0
  161.8570  209.5210  151.5710 C   0  0  0  0  0  2  0  0  0  0  0  0
  161.2840  206.4900  148.5800 C   0  0  0  0  0  3  0  0  0  0  0  0
  161.6700  208.4660  150.5260 C   0  0  0  0  0  0  0  0  0  0  0  0
  161.1990  207.2000  150.8940 C   0  0  0  0  0  3  0  0  0  0  0  0
  161.0060  206.2140  149.9230 C   0  0  0  0  0  3  0  0  0  0  0  0
  161.7560  207.7530  148.2110 C   0  0  0  0  0  3  0  0  0  0  0  0
  161.9490  208.7400  149.1820 C   0  0  0  0  0  3  0  0  0  0  0  0
  1 21  1  6  0  0  0
  2  1  1  6  0  0  0
  2 10  1  0  0  0  0
  3  8  1  0  0  0  0
  5 11  1  0  0  0  0
  5  2  1  0  0  0  0
  7 10  1  1  0  0  0
  7  6  1  0  0  0  0
  8  6  1  0  0  0  0
  8  4  1  1  0  0  0
  9 11  1  1  0  0  0
  9  3  1  0  0  0  0
  9  7  1  0  0  0  0
 12 20  1  0  0  0  0
 12 14  1  0  0  0  0
 13 15  1  6  0  0  0
 13 20  1  0  0  0  0
 16  1  1  6  0  0  0
 16 19  1  0  0  0  0
 16 12  1  0  0  0  0
 19 18  1  1  0  0  0
 19 13  1  0  0  0  0
 20 17  1  1  0  0  0
 22 25  1  0  0  0  0
 23 24  1  0  0  0  0
 23 21  1  0  0  0  0
 25 24  2  0  0  0  0
 26 22  2  0  0  0  0
 26 27  1  0  0  0  0
 27 23  2  0  0  0  0
M  END
>  <MODEL>
6

>  <REMARK>
 VINA RESULT:      -6.0      4.245      7.639
  Name = 
  4 active torsions:
  status: ('A' for Active; 'I' for Inactive)
    1  A    between atoms: C_1  and  C_2
    2  A    between atoms: C_1  and  C_15
    3  A    between atoms: C_1  and  C_18
    4  A    between atoms: C_9  and  C_15
                            x       y       z     vdW  Elec       q    Type
                         _______ _______ _______ _____ _____    ______ ____

>  <TORSDO>
F 4

$$$$
=
 OpenBabel11052423213D

 27 30  0  0  1  0  0  0  0  0999 V2000
  161.8000  209.2060  151.0990 C   0  0  2  0  0  3  0  0  0  0  0  0
  161.5610  209.3150  152.6150 C   0  0  1  0  0  3  0  0  0  0  0  0
  160.7330  210.1530  156.9260 S   0  0  0  0  0  0  0  0  0  0  0  0
  160.4560  207.4490  157.2200 C   0  0  0  0  0  1  0  0  0  0  0  0
  162.4610  210.3750  153.2370 C   0  0  0  0  0  2  0  0  0  0  0  0
  159.9990  208.3850  155.0750 O   0  0  0  0  0  0  0  0  0  0  0  0
  159.8970  209.6500  154.4910 C   0  0  1  0  0  3  0  0  0  0  0  0
  159.8710  208.6160  156.4530 C   0  0  2  0  0  3  0  0  0  0  0  0
  160.8760  210.5870  155.1850 C   0  0  2  0  0  3  0  0  0  0  0  0
  160.0980  209.5850  152.9770 C   0  0  0  0  0  2  0  0  0  0  0  0
  162.3220  210.3280  154.7520 C   0  0  0  0  0  2  0  0  0  0  0  0
  161.7900  206.7490  151.4160 N   0  0  0  0  0  0  0  0  0  0  0  0
  161.1120  206.3420  149.1430 C   0  0  1  0  0  3  0  0  0  0  0  0
  162.8960  205.8190  151.6360 C   0  0  0  0  0  1  0  0  0  0  0  0
  159.9590  206.5350  148.3840 O   0  0  0  0  0  1  0  0  0  0  0  0
  162.3310  207.8430  150.6090 C   0  0  1  0  0  3  0  0  0  0  0  0
  160.5530  204.7810  150.8800 O   0  0  0  0  0  1  0  0  0  0  0  0
  163.0810  207.4170  148.3780 O   0  0  0  0  0  1  0  0  0  0  0  0
  161.9370  207.6040  149.1510 C   0  0  1  0  0  3  0  0  0  0  0  0
  160.7440  206.1370  150.5900 C   0  0  1  0  0  3  0  0  0  0  0  0
  162.6120  210.3960  150.5660 C   0  0  0  0  0  2  0  0  0  0  0  0
  160.3470  213.1140  148.1300 C   0  0  0  0  0  3  0  0  0  0  0  0
  161.8180  211.3330  149.7120 C   0  0  0  0  0  0  0  0  0  0  0  0
  160.9410  212.2450  150.3110 C   0  0  0  0  0  3  0  0  0  0  0  0
  160.2070  213.1340  149.5210 C   0  0  0  0  0  3  0  0  0  0  0  0
  161.2220  212.2030  147.5300 C   0  0  0  0  0  3  0  0  0  0  0  0
  161.9560  211.3140  148.3190 C   0  0  0  0  0  3  0  0  0  0  0  0
  1 21  1  1  0  0  0
  2  1  1  6  0  0  0
  2 10  1  0  0  0  0
  2  5  1  0  0  0  0
  5 11  1  0  0  0  0
  6  8  1  0  0  0  0
  7 10  1  6  0  0  0
  7  6  1  0  0  0  0
  7  9  1  0  0  0  0
  8  3  1  0  0  0  0
  8  4  1  1  0  0  0
  9 11  1  6  0  0  0
  9  3  1  0  0  0  0
 12 14  1  0  0  0  0
 13 15  1  6  0  0  0
 13 19  1  0  0  0  0
 13 20  1  0  0  0  0
 16  1  1  1  0  0  0
 16 12  1  0  0  0  0
 19 18  1  6  0  0  0
 19 16  1  0  0  0  0
 20 17  1  1  0  0  0
 20 12  1  0  0  0  0
 22 25  1  0  0  0  0
 23 24  1  0  0  0  0
 23 21  1  0  0  0  0
 25 24  2  0  0  0  0
 26 22  2  0  0  0  0
 26 27  1  0  0  0  0
 27 23  2  0  0  0  0
M  END
>  <MODEL>
7

>  <REMARK>
 VINA RESULT:      -5.7      3.965      8.257
  Name = 
  4 active torsions:
  status: ('A' for Active; 'I' for Inactive)
    1  A    between atoms: C_1  and  C_2
    2  A    between atoms: C_1  and  C_15
    3  A    between atoms: C_1  and  C_18
    4  A    between atoms: C_9  and  C_15
                            x       y       z     vdW  Elec       q    Type
                         _______ _______ _______ _____ _____    ______ ____

>  <TORSDO>
F 4

$$$$
=
 OpenBabel11052423213D

 27 30  0  0  1  0  0  0  0  0999 V2000
  160.9130  207.2480  152.2280 C   0  0  2  0  0  3  0  0  0  0  0  0
  161.1800  206.2470  151.0910 C   0  0  1  0  0  3  0  0  0  0  0  0
  161.4620  203.1320  147.8990 S   0  0  0  0  0  0  0  0  0  0  0  0
  163.3760  204.7190  146.7600 C   0  0  0  0  0  1  0  0  0  0  0  0
  161.1410  204.8130  151.6020 C   0  0  0  0  0  2  0  0  0  0  0  0
  161.7230  205.7730  148.1180 O   0  0  0  0  0  0  0  0  0  0  0  0
  160.5450  205.4250  148.7840 C   0  0  1  0  0  3  0  0  0  0  0  0
  161.9220  204.7460  147.1830 C   0  0  2  0  0  3  0  0  0  0  0  0
  160.6670  203.9870  149.2690 C   0  0  2  0  0  3  0  0  0  0  0  0
  160.2250  206.4120  149.9060 C   0  0  0  0  0  2  0  0  0  0  0  0
  161.5810  203.8700  150.4920 C   0  0  0  0  0  2  0  0  0  0  0  0
  160.3290  209.5560  152.9120 N   0  0  0  0  0  0  0  0  0  0  0  0
  162.4460  210.4340  152.1770 C   0  0  1  0  0  3  0  0  0  0  0  0
  159.3420  210.4840  152.3640 C   0  0  0  0  0  1  0  0  0  0  0  0
  163.7740  210.3430  152.5900 O   0  0  0  0  0  1  0  0  0  0  0  0
  160.7700  208.7210  151.7940 C   0  0  1  0  0  3  0  0  0  0  0  0
  161.2330  211.5030  153.9520 O   0  0  0  0  0  1  0  0  0  0  0  0
  161.9650  209.7080  149.9730 O   0  0  0  0  0  1  0  0  0  0  0  0
  162.1050  209.2660  151.2870 C   0  0  1  0  0  3  0  0  0  0  0  0
  161.5290  210.2690  153.3620 C   0  0  1  0  0  3  0  0  0  0  0  0
  161.8970  207.0570  153.3930 C   0  0  0  0  0  2  0  0  0  0  0  0
  160.1430  207.7470  157.2530 C   0  0  0  0  0  3  0  0  0  0  0  0
  161.2870  207.2850  154.7400 C   0  0  0  0  0  0  0  0  0  0  0  0
  161.9530  208.0790  155.6800 C   0  0  0  0  0  3  0  0  0  0  0  0
  161.3820  208.3100  156.9340 C   0  0  0  0  0  3  0  0  0  0  0  0
  159.4750  206.9520  156.3160 C   0  0  0  0  0  3  0  0  0  0  0  0
  160.0460  206.7210  155.0610 C   0  0  0  0  0  3  0  0  0  0  0  0
  1 21  1  1  0  0  0
  2  5  1  0  0  0  0
  2  1  1  1  0  0  0
  3  9  1  0  0  0  0
  6  7  1  0  0  0  0
  7  9  1  0  0  0  0
  7 10  1  1  0  0  0
  8  4  1  1  0  0  0
  8  3  1  0  0  0  0
  8  6  1  0  0  0  0
  9 11  1  1  0  0  0
 10  2  1  0  0  0  0
 11  5  1  0  0  0  0
 12 20  1  0  0  0  0
 13 15  1  1  0  0  0
 13 20  1  0  0  0  0
 14 12  1  0  0  0  0
 16  1  1  1  0  0  0
 16 12  1  0  0  0  0
 19 18  1  6  0  0  0
 19 16  1  0  0  0  0
 19 13  1  0  0  0  0
 20 17  1  6  0  0  0
 21 23  1  0  0  0  0
 23 27  2  0  0  0  0
 23 24  1  0  0  0  0
 24 25  2  0  0  0  0
 25 22  1  0  0  0  0
 26 22  2  0  0  0  0
 27 26  1  0  0  0  0
M  END
>  <MODEL>
8

>  <REMARK>
 VINA RESULT:      -5.2      2.239      4.836
  Name = 
  4 active torsions:
  status: ('A' for Active; 'I' for Inactive)
    1  A    between atoms: C_1  and  C_2
    2  A    between atoms: C_1  and  C_15
    3  A    between atoms: C_1  and  C_18
    4  A    between atoms: C_9  and  C_15
                            x       y       z     vdW  Elec       q    Type
                         _______ _______ _______ _____ _____    ______ ____

>  <TORSDO>
F 4

$$$$
=
 OpenBabel11052423213D

 27 30  0  0  1  0  0  0  0  0999 V2000
  161.6240  209.8240  150.3520 C   0  0  2  0  0  3  0  0  0  0  0  0
  160.9930  210.1520  151.7160 C   0  0  1  0  0  3  0  0  0  0  0  0
  159.5620  211.4630  155.7420 S   0  0  0  0  0  0  0  0  0  0  0  0
  157.1310  210.4410  155.0200 C   0  0  0  0  0  1  0  0  0  0  0  0
  161.9720  209.8870  152.8520 C   0  0  0  0  0  2  0  0  0  0  0  0
  158.5790  211.1930  153.2820 O   0  0  0  0  0  0  0  0  0  0  0  0
  159.8030  211.8560  153.1590 C   0  0  1  0  0  3  0  0  0  0  0  0
  158.1490  211.4750  154.5870 C   0  0  2  0  0  3  0  0  0  0  0  0
  160.6870  211.4670  154.3360 C   0  0  2  0  0  3  0  0  0  0  0  0
  160.4550  211.5820  151.8030 C   0  0  0  0  0  2  0  0  0  0  0  0
  161.2560  210.0530  154.1840 C   0  0  0  0  0  2  0  0  0  0  0  0
  161.6120  207.4940  151.1920 N   0  0  0  0  0  0  0  0  0  0  0  0
  161.1530  206.5870  149.0100 C   0  0  1  0  0  3  0  0  0  0  0  0
  162.7020  206.6670  151.7060 C   0  0  0  0  0  1  0  0  0  0  0  0
  160.0740  206.5770  148.1270 O   0  0  0  0  0  1  0  0  0  0  0  0
  162.2140  208.4050  150.2180 C   0  0  1  0  0  3  0  0  0  0  0  0
  160.4520  205.4190  150.9880 O   0  0  0  0  0  1  0  0  0  0  0  0
  163.1730  207.5320  148.2090 O   0  0  0  0  0  1  0  0  0  0  0  0
  161.9600  207.8460  148.8180 C   0  0  1  0  0  3  0  0  0  0  0  0
  160.6540  206.6870  150.4290 C   0  0  1  0  0  3  0  0  0  0  0  0
  162.5950  210.9250  149.8980 C   0  0  0  0  0  2  0  0  0  0  0  0
  161.3830  212.9300  146.2980 C   0  0  0  0  0  3  0  0  0  0  0  0
  162.1650  211.6300  148.6510 C   0  0  0  0  0  0  0  0  0  0  0  0
  163.1000  212.3610  147.9080 C   0  0  0  0  0  3  0  0  0  0  0  0
  162.7090  213.0100  146.7340 C   0  0  0  0  0  3  0  0  0  0  0  0
  160.4470  212.2020  147.0390 C   0  0  0  0  0  3  0  0  0  0  0  0
  160.8370  211.5530  148.2140 C   0  0  0  0  0  3  0  0  0  0  0  0
  1 21  1  1  0  0  0
  2  1  1  6  0  0  0
  2 10  1  0  0  0  0
  2  5  1  0  0  0  0
  5 11  1  0  0  0  0
  6  8  1  0  0  0  0
  7 10  1  6  0  0  0
  7  6  1  0  0  0  0
  7  9  1  0  0  0  0
  8  4  1  1  0  0  0
  8  3  1  0  0  0  0
  9 11  1  6  0  0  0
  9  3  1  0  0  0  0
 12 14  1  0  0  0  0
 13 15  1  6  0  0  0
 13 20  1  0  0  0  0
 16  1  1  6  0  0  0
 16 12  1  0  0  0  0
 19 18  1  1  0  0  0
 19 13  1  0  0  0  0
 19 16  1  0  0  0  0
 20 17  1  1  0  0  0
 20 12  1  0  0  0  0
 22 25  2  0  0  0  0
 22 26  1  0  0  0  0
 23 21  1  0  0  0  0
 24 23  2  0  0  0  0
 25 24  1  0  0  0  0
 26 27  2  0  0  0  0
 27 23  1  0  0  0  0
M  END
>  <MODEL>
9

>  <REMARK>
 VINA RESULT:      -5.0      4.234      8.394
  Name = 
  4 active torsions:
  status: ('A' for Active; 'I' for Inactive)
    1  A    between atoms: C_1  and  C_2
    2  A    between atoms: C_1  and  C_15
    3  A    between atoms: C_1  and  C_18
    4  A    between atoms: C_9  and  C_15
                            x       y       z     vdW  Elec       q    Type
                         _______ _______ _______ _____ _____    ______ ____

>  <TORSDO>
F 4

$$$$
