=
 OpenBabel11052422033D

 30 35  0  0  1  0  0  0  0  0999 V2000
  159.3990  212.8310  137.4560 C   0  0  1  0  0  3  0  0  0  0  0  0
  156.2600  213.7680  137.0120 C   0  0  1  0  0  3  0  0  0  0  0  0
  156.0930  210.3940  139.1280 O   0  0  0  0  0  1  0  0  0  0  0  0
  160.5520  212.9610  138.4520 C   0  0  2  0  0  3  0  0  0  0  0  0
  158.4820  211.6810  137.8460 C   0  0  1  0  0  3  0  0  0  0  0  0
  160.8360  210.5020  138.6260 C   0  0  2  0  0  3  0  0  0  0  0  0
  161.2550  213.3320  140.8730 C   0  0  0  0  0  2  0  0  0  0  0  0
  158.5030  212.4570  141.6000 O   0  0  0  0  0  1  0  0  0  0  0  0
  159.3790  210.1310  137.5380 S   0  0  0  0  0  0  0  0  0  0  0  0
  161.4760  211.8070  138.3120 N   0  0  2  0  0  0  0  0  0  0  0  0
  154.9270  214.2570  137.5400 C   0  0  0  0  0  2  0  0  0  0  0  0
  162.3340  212.3400  140.5830 C   0  0  0  0  0  0  0  0  0  0  0  0
  157.3990  214.4450  137.7660 C   0  0  0  0  0  2  0  0  0  0  0  0
  158.0490  211.7910  139.3160 C   0  0  2  0  0  3  0  0  0  0  0  0
  155.3760  212.8490  137.8660 C   0  0  2  0  0  3  0  0  0  0  0  0
  158.7260  214.1600  137.0690 C   0  0  0  0  0  2  0  0  0  0  0  0
  159.3980  214.4450  139.9570 O   0  0  0  0  0  1  0  0  0  0  0  0
  159.1050  212.1100  140.3860 C   0  0  1  0  0  3  0  0  0  0  0  0
  160.0660  213.2190  139.9150 C   0  0  1  0  0  0  0  0  0  0  0  0
  163.1270  211.9790  141.5220 N   0  0  0  0  0  2  0  0  0  0  0  0
  156.5920  211.5650  139.7030 C   0  0  1  0  0  3  0  0  0  0  0  0
  155.7230  212.7740  139.3560 C   0  0  0  0  0  2  0  0  0  0  0  0
  162.6710  212.0080  139.1530 C   0  0  2  0  0  3  0  0  0  0  0  0
  161.8750  209.3500  138.7200 C   0  0  2  0  0  3  0  0  0  0  0  0
  161.2020  207.9930  138.7980 C   0  0  1  0  0  3  0  0  0  0  0  0
  162.1210  206.9580  138.1850 C   0  0  0  0  0  1  0  0  0  0  0  0
  161.8650  208.5860  140.0300 C   0  0  0  0  0  2  0  0  0  0  0  0
  164.9970  212.5380  138.8600 O   0  0  0  0  0  1  0  0  0  0  0  0
  163.5050  214.3970  138.8240 C   0  0  0  0  0  1  0  0  0  0  0  0
  163.7090  212.9270  138.4930 C   0  0  2  0  0  3  0  0  0  0  0  0
  1 16  1  1  0  0  0
  1  5  1  0  0  0  0
  1  4  1  0  0  0  0
  2 11  1  1  0  0  0
  2 13  1  0  0  0  0
  2 15  1  0  0  0  0
  3 21  1  0  0  0  0
  4 19  1  0  0  0  0
  5 14  1  0  0  0  0
  6 24  1  0  0  0  0
  9  5  1  0  0  0  0
  9  6  1  0  0  0  0
 10  4  1  0  0  0  0
 10  6  1  0  0  0  0
 10 23  1  0  0  0  0
 11 15  1  0  0  0  0
 12  7  1  0  0  0  0
 12 20  2  0  0  0  0
 14 21  1  0  0  0  0
 14 18  1  0  0  0  0
 15 22  1  0  0  0  0
 16 13  1  0  0  0  0
 18  8  1  0  0  0  0
 19 17  1  0  0  0  0
 19 18  1  0  0  0  0
 19  7  1  0  0  0  0
 22 21  1  0  0  0  0
 23 12  1  0  0  0  0
 24 25  1  0  0  0  0
 24 27  1  0  0  0  0
 25 27  1  0  0  0  0
 26 25  1  0  0  0  0
 30 29  1  0  0  0  0
 30 28  1  0  0  0  0
 30 23  1  0  0  0  0
M  END
>  <MODEL>
1

>  <REMARK>
 VINA RESULT:      -3.2      0.000      0.000
  Name = 
  2 active torsions:
  status: ('A' for Active; 'I' for Inactive)
    1  A    between atoms: C_6  and  C_8
    2  A    between atoms: C_27  and  C_30
                            x       y       z     vdW  Elec       q    Type
                         _______ _______ _______ _____ _____    ______ ____

>  <TORSDO>
F 2

$$$$
=
 OpenBabel11052422033D

 30 35  0  0  1  0  0  0  0  0999 V2000
  158.1360  210.3870  155.6230 C   0  0  1  0  0  3  0  0  0  0  0  0
  155.5700  212.2420  156.5710 C   0  0  1  0  0  3  0  0  0  0  0  0
  158.8130  214.4530  157.2590 O   0  0  0  0  0  1  0  0  0  0  0  0
  159.0300  210.1200  154.4120 C   0  0  2  0  0  3  0  0  0  0  0  0
  158.6550  211.5760  156.4190 C   0  0  1  0  0  3  0  0  0  0  0  0
  161.1060  210.5730  155.6940 C   0  0  2  0  0  3  0  0  0  0  0  0
  160.0290  211.0250  152.2490 C   0  0  0  0  0  2  0  0  0  0  0  0
  159.4750  213.7330  153.3580 O   0  0  0  0  0  1  0  0  0  0  0  0
  160.1950  211.0640  157.2350 S   0  0  0  0  0  0  0  0  0  0  0  0
  160.3490  209.6030  154.8590 N   0  0  2  0  0  0  0  0  0  0  0  0
  154.6760  213.4570  156.4260 C   0  0  0  0  0  2  0  0  0  0  0  0
  161.2530  210.2630  152.6390 C   0  0  0  0  0  0  0  0  0  0  0  0
  155.9530  211.7110  155.1950 C   0  0  0  0  0  2  0  0  0  0  0  0
  158.8850  212.7940  155.5110 C   0  0  2  0  0  3  0  0  0  0  0  0
  156.1040  213.6450  156.8930 C   0  0  2  0  0  3  0  0  0  0  0  0
  156.6260  210.3480  155.3330 C   0  0  0  0  0  2  0  0  0  0  0  0
  157.8460  211.5870  152.9140 O   0  0  0  0  0  1  0  0  0  0  0  0
  159.6110  212.6030  154.1710 C   0  0  1  0  0  3  0  0  0  0  0  0
  159.1170  211.3390  153.4390 C   0  0  1  0  0  0  0  0  0  0  0  0
  162.3030  210.3390  151.9090 N   0  0  0  0  0  2  0  0  0  0  0  0
  158.4130  214.1760  155.9500 C   0  0  1  0  0  3  0  0  0  0  0  0
  156.9010  214.3340  155.7820 C   0  0  0  0  0  2  0  0  0  0  0  0
  161.1550  209.1910  153.6940 C   0  0  2  0  0  3  0  0  0  0  0  0
  162.5720  210.1160  155.9350 C   0  0  2  0  0  3  0  0  0  0  0  0
  163.4490  211.2650  156.3940 C   0  0  1  0  0  3  0  0  0  0  0  0
  164.5600  210.7130  157.2610 C   0  0  0  0  0  1  0  0  0  0  0  0
  163.5920  210.7140  154.9860 C   0  0  0  0  0  2  0  0  0  0  0  0
  160.5950  206.9210  154.2500 O   0  0  0  0  0  1  0  0  0  0  0  0
  161.7960  207.2150  152.2120 C   0  0  0  0  0  1  0  0  0  0  0  0
  160.7750  207.7950  153.1790 C   0  0  2  0  0  3  0  0  0  0  0  0
  1 16  1  6  0  0  0
  1  5  1  0  0  0  0
  2 13  1  6  0  0  0
  2 15  1  0  0  0  0
  4 10  1  0  0  0  0
  4  1  1  0  0  0  0
  5  9  1  0  0  0  0
  6 24  1  0  0  0  0
  6  9  1  0  0  0  0
  7 12  1  0  0  0  0
  7 19  1  0  0  0  0
  8 18  1  0  0  0  0
 10  6  1  0  0  0  0
 11  2  1  0  0  0  0
 11 15  1  0  0  0  0
 12 23  1  0  0  0  0
 13 16  1  0  0  0  0
 14 21  1  0  0  0  0
 14  5  1  0  0  0  0
 17 19  1  0  0  0  0
 18 14  1  0  0  0  0
 19 18  1  0  0  0  0
 19  4  1  0  0  0  0
 20 12  2  0  0  0  0
 21  3  1  0  0  0  0
 22 21  1  0  0  0  0
 22 15  1  0  0  0  0
 23 10  1  0  0  0  0
 24 25  1  0  0  0  0
 25 26  1  0  0  0  0
 27 24  1  0  0  0  0
 27 25  1  0  0  0  0
 29 30  1  0  0  0  0
 30 23  1  0  0  0  0
 30 28  1  0  0  0  0
M  END
>  <MODEL>
2

>  <REMARK>
 VINA RESULT:      -1.9     14.652     16.504
  Name = 
  2 active torsions:
  status: ('A' for Active; 'I' for Inactive)
    1  A    between atoms: C_6  and  C_8
    2  A    between atoms: C_27  and  C_30
                            x       y       z     vdW  Elec       q    Type
                         _______ _______ _______ _____ _____    ______ ____

>  <TORSDO>
F 2

$$$$
=
 OpenBabel11052422033D

 30 35  0  0  1  0  0  0  0  0999 V2000
  159.5670  212.6980  154.2880 C   0  0  1  0  0  3  0  0  0  0  0  0
  156.6290  214.2030  154.4560 C   0  0  1  0  0  3  0  0  0  0  0  0
  155.8330  210.3470  153.8400 O   0  0  0  0  0  1  0  0  0  0  0  0
  160.5830  211.9650  155.1660 C   0  0  2  0  0  3  0  0  0  0  0  0
  158.4930  211.7380  153.7980 C   0  0  1  0  0  3  0  0  0  0  0  0
  160.5870  209.9650  153.6970 C   0  0  2  0  0  3  0  0  0  0  0  0
  160.9890  210.5740  157.2610 C   0  0  0  0  0  2  0  0  0  0  0  0
  158.0880  209.9070  157.1410 O   0  0  0  0  0  1  0  0  0  0  0  0
  159.2590  210.6270  152.5810 S   0  0  0  0  0  0  0  0  0  0  0  0
  161.3940  211.0380  154.3360 N   0  0  2  0  0  0  0  0  0  0  0  0
  155.2940  214.4520  155.1290 C   0  0  0  0  0  2  0  0  0  0  0  0
  161.9890  209.8380  156.4300 C   0  0  0  0  0  0  0  0  0  0  0  0
  157.7190  214.0380  155.5090 C   0  0  0  0  0  2  0  0  0  0  0  0
  157.8800  210.9480  154.9640 C   0  0  2  0  0  3  0  0  0  0  0  0
  155.5480  213.1130  154.4700 C   0  0  2  0  0  3  0  0  0  0  0  0
  159.0920  214.0530  154.8420 C   0  0  0  0  0  2  0  0  0  0  0  0
  159.3960  212.3020  157.2330 O   0  0  0  0  0  1  0  0  0  0  0  0
  158.8090  210.3260  156.0180 C   0  0  1  0  0  3  0  0  0  0  0  0
  159.9340  211.3000  156.4210 C   0  0  1  0  0  0  0  0  0  0  0  0
  162.6070  208.8340  156.9300 N   0  0  0  0  0  2  0  0  0  0  0  0
  156.3680  210.7720  155.0580 C   0  0  1  0  0  3  0  0  0  0  0  0
  155.6830  212.0440  155.5570 C   0  0  0  0  0  2  0  0  0  0  0  0
  162.4790  210.4510  155.1440 C   0  0  2  0  0  3  0  0  0  0  0  0
  161.4800  208.8700  153.0500 C   0  0  2  0  0  3  0  0  0  0  0  0
  160.8910  208.3620  151.7480 C   0  0  1  0  0  3  0  0  0  0  0  0
  162.0190  207.9070  150.8480 C   0  0  0  0  0  1  0  0  0  0  0  0
  160.8570  207.4890  152.9900 C   0  0  0  0  0  2  0  0  0  0  0  0
  164.6960  211.0100  154.4020 O   0  0  0  0  0  1  0  0  0  0  0  0
  164.2380  211.4530  156.6990 C   0  0  0  0  0  1  0  0  0  0  0  0
  163.6850  211.3920  155.2840 C   0  0  2  0  0  3  0  0  0  0  0  0
  1 16  1  1  0  0  0
  1  4  1  0  0  0  0
  2 15  1  0  0  0  0
  2 11  1  1  0  0  0
  2 13  1  0  0  0  0
  3 21  1  0  0  0  0
  4 19  1  0  0  0  0
  5  1  1  0  0  0  0
  5 14  1  0  0  0  0
  6 10  1  0  0  0  0
  9  6  1  0  0  0  0
  9  5  1  0  0  0  0
 10 23  1  0  0  0  0
 10  4  1  0  0  0  0
 12 20  2  0  0  0  0
 12  7  1  0  0  0  0
 14 21  1  0  0  0  0
 14 18  1  0  0  0  0
 15 11  1  0  0  0  0
 15 22  1  0  0  0  0
 16 13  1  0  0  0  0
 18 19  1  0  0  0  0
 18  8  1  0  0  0  0
 19 17  1  0  0  0  0
 19  7  1  0  0  0  0
 21 22  1  0  0  0  0
 23 30  1  0  0  0  0
 23 12  1  0  0  0  0
 24  6  1  0  0  0  0
 25 27  1  0  0  0  0
 25 24  1  0  0  0  0
 26 25  1  0  0  0  0
 27 24  1  0  0  0  0
 28 30  1  0  0  0  0
 30 29  1  0  0  0  0
M  END
>  <MODEL>
3

>  <REMARK>
 VINA RESULT:      -0.5     14.516     16.009
  Name = 
  2 active torsions:
  status: ('A' for Active; 'I' for Inactive)
    1  A    between atoms: C_6  and  C_8
    2  A    between atoms: C_27  and  C_30
                            x       y       z     vdW  Elec       q    Type
                         _______ _______ _______ _____ _____    ______ ____

>  <TORSDO>
F 2

$$$$
=
 OpenBabel11052422033D

 30 35  0  0  1  0  0  0  0  0999 V2000
  159.5110  208.9760  154.0180 C   0  0  1  0  0  3  0  0  0  0  0  0
  160.8690  206.4140  152.4320 C   0  0  1  0  0  3  0  0  0  0  0  0
  162.1140  209.6660  150.4950 O   0  0  0  0  0  1  0  0  0  0  0  0
  159.8080  209.9810  155.1330 C   0  0  2  0  0  3  0  0  0  0  0  0
  160.0820  209.4630  152.6940 C   0  0  1  0  0  3  0  0  0  0  0  0
  159.3540  211.9270  153.6620 C   0  0  2  0  0  3  0  0  0  0  0  0
  161.5790  211.2450  156.4580 C   0  0  0  0  0  2  0  0  0  0  0  0
  163.3990  210.7040  154.1620 O   0  0  0  0  0  1  0  0  0  0  0  0
  159.0850  210.8820  152.1520 S   0  0  0  0  0  0  0  0  0  0  0  0
  159.0140  211.2190  154.9240 N   0  0  2  0  0  0  0  0  0  0  0  0
  162.0700  205.5990  151.9970 C   0  0  0  0  0  2  0  0  0  0  0  0
  160.6120  212.3840  156.4290 C   0  0  0  0  0  0  0  0  0  0  0  0
  161.0690  206.9160  153.8580 C   0  0  0  0  0  2  0  0  0  0  0  0
  161.5630  209.8450  152.8350 C   0  0  2  0  0  3  0  0  0  0  0  0
  161.8610  206.9760  151.4050 C   0  0  2  0  0  3  0  0  0  0  0  0
  159.7660  207.5050  154.3890 C   0  0  0  0  0  2  0  0  0  0  0  0
  161.9340  209.0330  155.7480 O   0  0  0  0  0  1  0  0  0  0  0  0
  162.0060  210.7000  154.0330 C   0  0  1  0  0  3  0  0  0  0  0  0
  161.3360  210.2270  155.3390 C   0  0  1  0  0  0  0  0  0  0  0  0
  160.9460  213.5070  156.9460 N   0  0  0  0  0  2  0  0  0  0  0  0
  162.5730  209.3940  151.7860 C   0  0  1  0  0  3  0  0  0  0  0  0
  162.9370  207.9190  151.9510 C   0  0  0  0  0  2  0  0  0  0  0  0
  159.1700  212.1230  156.0780 C   0  0  2  0  0  3  0  0  0  0  0  0
  158.7020  213.3360  153.5900 C   0  0  2  0  0  3  0  0  0  0  0  0
  157.2720  213.2680  153.0900 C   0  0  1  0  0  3  0  0  0  0  0  0
  156.4920  214.4200  153.6850 C   0  0  0  0  0  1  0  0  0  0  0  0
  158.3670  213.8150  152.1910 C   0  0  0  0  0  2  0  0  0  0  0  0
  158.0450  210.3580  157.2610 O   0  0  0  0  0  1  0  0  0  0  0  0
  156.9340  212.4680  157.2600 C   0  0  0  0  0  1  0  0  0  0  0  0
  158.2670  211.7350  157.2590 C   0  0  2  0  0  3  0  0  0  0  0  0
  1 16  1  1  0  0  0
  1  4  1  0  0  0  0
  2 11  1  1  0  0  0
  2 13  1  0  0  0  0
  3 21  1  0  0  0  0
  4 19  1  0  0  0  0
  5 14  1  0  0  0  0
  5  1  1  0  0  0  0
  6 10  1  0  0  0  0
  9  5  1  0  0  0  0
  9  6  1  0  0  0  0
 10  4  1  0  0  0  0
 10 23  1  0  0  0  0
 12  7  1  0  0  0  0
 12 20  2  0  0  0  0
 13 16  1  0  0  0  0
 14 18  1  0  0  0  0
 15 22  1  0  0  0  0
 15 11  1  0  0  0  0
 15  2  1  0  0  0  0
 18  8  1  0  0  0  0
 18 19  1  0  0  0  0
 19 17  1  0  0  0  0
 19  7  1  0  0  0  0
 21 22  1  0  0  0  0
 21 14  1  0  0  0  0
 23 12  1  0  0  0  0
 23 30  1  0  0  0  0
 24  6  1  0  0  0  0
 25 24  1  0  0  0  0
 25 26  1  0  0  0  0
 27 25  1  0  0  0  0
 27 24  1  0  0  0  0
 30 29  1  0  0  0  0
 30 28  1  0  0  0  0
M  END
>  <MODEL>
4

>  <REMARK>
 VINA RESULT:      -0.3     13.890     16.362
  Name = 
  2 active torsions:
  status: ('A' for Active; 'I' for Inactive)
    1  A    between atoms: C_6  and  C_8
    2  A    between atoms: C_27  and  C_30
                            x       y       z     vdW  Elec       q    Type
                         _______ _______ _______ _____ _____    ______ ____

>  <TORSDO>
F 2

$$$$
