=
 OpenBabel11062408293D

 32 37  0  0  1  0  0  0  0  0999 V2000
  161.4880  207.1470  150.2150 C   0  0  0  0  0  0  0  0  0  0  0  0
  160.9520  208.5980  152.1920 C   0  0  2  0  0  3  0  0  0  0  0  0
  161.8420  207.0190  148.9040 N   0  0  0  0  0  0  0  0  0  0  0  0
  161.4500  208.4310  150.7900 C   0  0  0  0  0  0  0  0  0  0  0  0
  161.3670  209.9190  152.8000 C   0  0  0  0  0  0  0  0  0  0  0  0
  159.8250  207.1030  156.6190 C   0  0  0  0  0  2  0  0  0  0  0  0
  161.3430  207.3990  153.0390 C   0  0  2  0  0  3  0  0  0  0  0  0
  160.7680  209.3890  156.3230 C   0  0  0  0  0  2  0  0  0  0  0  0
  161.4800  208.9690  155.0400 C   0  0  2  0  0  3  0  0  0  0  0  0
  161.8040  209.5500  150.0210 C   0  0  0  0  0  0  0  0  0  0  0  0
  161.4970  210.0650  154.0800 N   0  0  0  0  0  0  0  0  0  0  0  0
  161.8220  210.8350  150.5830 O   0  0  0  0  0  0  0  0  0  0  0  0
  162.1700  209.3760  148.6860 C   0  0  0  0  0  3  0  0  0  0  0  0
  160.7140  206.1530  152.4100 C   0  0  0  0  0  2  0  0  0  0  0  0
  161.1830  205.9820  151.0260 N   0  0  0  0  0  0  0  0  0  0  0  0
  160.9320  207.6830  154.4530 C   0  0  0  0  0  0  0  0  0  0  0  0
  161.3720  211.1350  151.9120 C   0  0  1  0  0  3  0  0  0  0  0  0
  162.1760  208.0910  148.1380 C   0  0  0  0  0  3  0  0  0  0  0  0
  160.6820  208.1920  157.2610 C   0  0  0  0  0  2  0  0  0  0  0  0
  160.2610  206.7930  155.2090 C   0  0  0  0  0  3  0  0  0  0  0  0
  162.1410  202.2630  150.9600 C   0  0  1  0  0  3  0  0  0  0  0  0
  159.8860  201.0680  148.0840 C   0  0  0  0  0  1  0  0  0  0  0  0
  162.7870  201.4910  152.0950 C   0  0  0  0  0  1  0  0  0  0  0  0
  161.1790  203.1570  148.4240 C   0  0  0  0  0  2  0  0  0  0  0  0
  161.2420  204.6410  150.5030 C   0  0  0  0  0  0  0  0  0  0  0  0
  161.2430  201.3280  150.1420 C   0  0  0  0  0  2  0  0  0  0  0  0
  161.1010  204.4540  149.1760 C   0  0  0  0  0  3  0  0  0  0  0  0
  161.4210  203.5070  151.4960 C   0  0  1  0  0  3  0  0  0  0  0  0
  160.1150  203.1920  152.2160 C   0  0  0  0  0  1  0  0  0  0  0  0
  160.3840  202.0600  149.1140 C   0  0  2  0  0  3  0  0  0  0  0  0
  160.0040  211.8050  151.8770 C   0  0  0  0  0  2  0  0  0  0  0  0
  160.0070  212.8950  151.0030 O   0  0  0  0  0  1  0  0  0  0  0  0
  1  4  1  0  0  0  0
  1 15  1  0  0  0  0
  2  4  1  6  0  0  0
  2  5  1  0  0  0  0
  2  7  1  0  0  0  0
  3  1  2  0  0  0  0
  5 11  2  0  0  0  0
  6 19  1  0  0  0  0
  7 14  1  6  0  0  0
  7 16  1  0  0  0  0
  8 19  1  0  0  0  0
  9  8  1  1  0  0  0
 10 12  1  0  0  0  0
 10  4  2  0  0  0  0
 11  9  1  0  0  0  0
 12 17  1  0  0  0  0
 13 10  1  0  0  0  0
 15 14  1  0  0  0  0
 16  9  1  0  0  0  0
 16 20  2  0  0  0  0
 17 31  1  6  0  0  0
 17  5  1  0  0  0  0
 18 13  2  0  0  0  0
 18  3  1  0  0  0  0
 20  6  1  0  0  0  0
 21 28  1  0  0  0  0
 21 23  1  1  0  0  0
 24 30  1  0  0  0  0
 24 27  1  0  0  0  0
 25 15  1  0  0  0  0
 25 28  1  0  0  0  0
 26 21  1  0  0  0  0
 27 25  2  0  0  0  0
 28 29  1  6  0  0  0
 30 22  1  6  0  0  0
 30 26  1  0  0  0  0
 32 31  1  0  0  0  0
M  END
>  <MODEL>
1

>  <REMARK>
 VINA RESULT:      -8.0      0.000      0.000
  Name = 
  2 active torsions:
  status: ('A' for Active; 'I' for Inactive)
    1  A    between atoms: C_13  and  C_29
    2  A    between atoms: C_16  and  N_27
                            x       y       z     vdW  Elec       q    Type
                         _______ _______ _______ _____ _____    ______ ____

>  <TORSDO>
F 2

$$$$
=
 OpenBabel11062408293D

 32 37  0  0  1  0  0  0  0  0999 V2000
  161.5830  208.0720  150.6270 C   0  0  0  0  0  0  0  0  0  0  0  0
  161.7530  205.8560  149.4590 C   0  0  2  0  0  3  0  0  0  0  0  0
  161.6290  209.4340  150.5900 N   0  0  0  0  0  0  0  0  0  0  0  0
  161.6840  207.3510  149.4220 C   0  0  0  0  0  0  0  0  0  0  0  0
  161.4290  205.2280  148.1230 C   0  0  0  0  0  0  0  0  0  0  0  0
  161.1750  201.5190  151.4500 C   0  0  0  0  0  2  0  0  0  0  0  0
  160.9050  205.3150  150.5980 C   0  0  2  0  0  3  0  0  0  0  0  0
  160.8140  201.7780  148.9990 C   0  0  0  0  0  2  0  0  0  0  0  0
  160.4620  203.2530  149.1700 C   0  0  2  0  0  3  0  0  0  0  0  0
  161.7990  208.0400  148.2050 C   0  0  0  0  0  0  0  0  0  0  0  0
  160.9440  204.0310  148.0360 N   0  0  0  0  0  0  0  0  0  0  0  0
  161.8520  207.3480  146.9870 O   0  0  0  0  0  0  0  0  0  0  0  0
  161.8310  209.4340  148.2090 C   0  0  0  0  0  3  0  0  0  0  0  0
  161.4500  205.8930  151.9070 C   0  0  0  0  0  2  0  0  0  0  0  0
  161.4020  207.3620  151.8810 N   0  0  0  0  0  0  0  0  0  0  0  0
  160.9110  203.8190  150.5030 C   0  0  0  0  0  0  0  0  0  0  0  0
  161.9230  205.9190  146.8790 C   0  0  1  0  0  3  0  0  0  0  0  0
  161.7520  210.1200  149.4220 C   0  0  0  0  0  3  0  0  0  0  0  0
  160.3840  201.0150  150.2450 C   0  0  0  0  0  2  0  0  0  0  0  0
  161.1400  203.0220  151.5650 C   0  0  0  0  0  3  0  0  0  0  0  0
  159.9920  208.0180  155.3930 C   0  0  1  0  0  3  0  0  0  0  0  0
  162.5080  210.6560  156.6150 C   0  0  0  0  0  1  0  0  0  0  0  0
  159.0760  207.0920  156.1710 C   0  0  0  0  0  1  0  0  0  0  0  0
  161.4610  210.2580  154.4030 C   0  0  0  0  0  2  0  0  0  0  0  0
  161.2550  208.0470  153.1400 C   0  0  0  0  0  0  0  0  0  0  0  0
  160.8820  208.8020  156.3640 C   0  0  0  0  0  2  0  0  0  0  0  0
  161.5840  209.3520  153.2130 C   0  0  0  0  0  3  0  0  0  0  0  0
  160.7710  207.2350  154.3280 C   0  0  1  0  0  3  0  0  0  0  0  0
  161.8900  206.3750  154.9020 C   0  0  0  0  0  1  0  0  0  0  0  0
  161.9840  209.5970  155.6680 C   0  0  2  0  0  3  0  0  0  0  0  0
  163.3370  205.4770  146.5210 C   0  0  0  0  0  2  0  0  0  0  0  0
  163.3120  204.4300  145.5980 O   0  0  0  0  0  1  0  0  0  0  0  0
  1 15  1  0  0  0  0
  2  5  1  6  0  0  0
  2  7  1  0  0  0  0
  3  1  1  0  0  0  0
  4  2  1  0  0  0  0
  4  1  2  0  0  0  0
  6 20  1  0  0  0  0
  7 14  1  1  0  0  0
  8 19  1  0  0  0  0
  9  8  1  6  0  0  0
  9 16  1  0  0  0  0
 10 13  2  0  0  0  0
 10  4  1  0  0  0  0
 11  5  2  0  0  0  0
 11  9  1  0  0  0  0
 12 10  1  0  0  0  0
 13 18  1  0  0  0  0
 15 14  1  0  0  0  0
 15 25  1  0  0  0  0
 16  7  1  0  0  0  0
 16 20  2  0  0  0  0
 17 31  1  1  0  0  0
 17 12  1  0  0  0  0
 17  5  1  0  0  0  0
 18  3  2  0  0  0  0
 19  6  1  0  0  0  0
 21 23  1  1  0  0  0
 21 26  1  0  0  0  0
 24 30  1  0  0  0  0
 25 27  2  0  0  0  0
 25 28  1  0  0  0  0
 27 24  1  0  0  0  0
 28 29  1  1  0  0  0
 28 21  1  0  0  0  0
 30 26  1  0  0  0  0
 30 22  1  1  0  0  0
 32 31  1  0  0  0  0
M  END
>  <MODEL>
2

>  <REMARK>
 VINA RESULT:      -7.7      2.233      6.883
  Name = 
  2 active torsions:
  status: ('A' for Active; 'I' for Inactive)
    1  A    between atoms: C_13  and  C_29
    2  A    between atoms: C_16  and  N_27
                            x       y       z     vdW  Elec       q    Type
                         _______ _______ _______ _____ _____    ______ ____

>  <TORSDO>
F 2

$$$$
=
 OpenBabel11062408293D

 32 37  0  0  1  0  0  0  0  0999 V2000
  159.9950  209.5570  154.1630 C   0  0  0  0  0  0  0  0  0  0  0  0
  160.7210  209.5550  151.7600 C   0  0  2  0  0  3  0  0  0  0  0  0
  159.8570  208.9120  155.3570 N   0  0  0  0  0  0  0  0  0  0  0  0
  160.6650  208.9080  153.1090 C   0  0  0  0  0  0  0  0  0  0  0  0
  161.8050  208.9720  150.8830 C   0  0  0  0  0  0  0  0  0  0  0  0
  160.4460  213.2390  148.6840 C   0  0  0  0  0  2  0  0  0  0  0  0
  160.8120  211.0650  151.9010 C   0  0  2  0  0  3  0  0  0  0  0  0
  162.1160  211.4390  148.2630 C   0  0  0  0  0  2  0  0  0  0  0  0
  162.1750  211.0950  149.7490 C   0  0  2  0  0  3  0  0  0  0  0  0
  161.2040  207.6280  153.3090 C   0  0  0  0  0  0  0  0  0  0  0  0
  162.3580  209.6620  149.9380 N   0  0  0  0  0  0  0  0  0  0  0  0
  161.9180  206.9790  152.2900 O   0  0  0  0  0  0  0  0  0  0  0  0
  161.0500  207.0060  154.5480 C   0  0  0  0  0  3  0  0  0  0  0  0
  159.5690  211.5440  152.6550 C   0  0  0  0  0  2  0  0  0  0  0  0
  159.4910  210.9070  153.9780 N   0  0  0  0  0  0  0  0  0  0  0  0
  160.9960  211.6440  150.5300 C   0  0  0  0  0  0  0  0  0  0  0  0
  162.0490  207.4870  150.9550 C   0  0  1  0  0  3  0  0  0  0  0  0
  160.3610  207.6670  155.5670 C   0  0  0  0  0  3  0  0  0  0  0  0
  161.8250  212.9260  148.1070 C   0  0  0  0  0  2  0  0  0  0  0  0
  160.2750  212.6870  150.0770 C   0  0  0  0  0  3  0  0  0  0  0  0
  159.1740  213.4360  156.8500 C   0  0  1  0  0  3  0  0  0  0  0  0
  155.3490  213.4900  157.2420 C   0  0  0  0  0  1  0  0  0  0  0  0
  160.2220  214.4530  157.2600 C   0  0  0  0  0  1  0  0  0  0  0  0
  156.9430  211.6550  156.7530 C   0  0  0  0  0  2  0  0  0  0  0  0
  158.8310  211.6350  155.0320 C   0  0  0  0  0  0  0  0  0  0  0  0
  157.7740  213.9930  157.1350 C   0  0  0  0  0  2  0  0  0  0  0  0
  157.7430  211.0930  155.6140 C   0  0  0  0  0  3  0  0  0  0  0  0
  159.3860  213.0000  155.3950 C   0  0  1  0  0  3  0  0  0  0  0  0
  158.9690  214.0540  154.3760 C   0  0  0  0  0  1  0  0  0  0  0  0
  156.6510  213.1340  156.5570 C   0  0  2  0  0  3  0  0  0  0  0  0
  161.1390  206.7250  150.0000 C   0  0  0  0  0  2  0  0  0  0  0  0
  160.8350  205.4600  150.5060 O   0  0  0  0  0  1  0  0  0  0  0  0
  1  3  1  0  0  0  0
  2  5  1  1  0  0  0
  2  7  1  0  0  0  0
  2  4  1  0  0  0  0
  3 18  2  0  0  0  0
  4 10  1  0  0  0  0
  4  1  2  0  0  0  0
  5 17  1  0  0  0  0
  6 20  1  0  0  0  0
  7 14  1  6  0  0  0
  9  8  1  6  0  0  0
  9 11  1  0  0  0  0
  9 16  1  0  0  0  0
 10 13  2  0  0  0  0
 11  5  2  0  0  0  0
 12 10  1  0  0  0  0
 13 18  1  0  0  0  0
 14 15  1  0  0  0  0
 15  1  1  0  0  0  0
 15 25  1  0  0  0  0
 16  7  1  0  0  0  0
 17 31  1  6  0  0  0
 17 12  1  0  0  0  0
 19  8  1  0  0  0  0
 19  6  1  0  0  0  0
 20 16  2  0  0  0  0
 21 26  1  0  0  0  0
 21 23  1  6  0  0  0
 25 28  1  0  0  0  0
 25 27  2  0  0  0  0
 27 24  1  0  0  0  0
 28 29  1  6  0  0  0
 28 21  1  0  0  0  0
 30 24  1  0  0  0  0
 30 26  1  0  0  0  0
 30 22  1  1  0  0  0
 31 32  1  0  0  0  0
M  END
>  <MODEL>
3

>  <REMARK>
 VINA RESULT:      -6.6      3.258      8.713
  Name = 
  2 active torsions:
  status: ('A' for Active; 'I' for Inactive)
    1  A    between atoms: C_13  and  C_29
    2  A    between atoms: C_16  and  N_27
                            x       y       z     vdW  Elec       q    Type
                         _______ _______ _______ _____ _____    ______ ____

>  <TORSDO>
F 2

$$$$
=
 OpenBabel11062408293D

 32 37  0  0  1  0  0  0  0  0999 V2000
  160.5160  208.1380  154.4880 C   0  0  0  0  0  0  0  0  0  0  0  0
  160.4060  210.6450  154.4060 C   0  0  2  0  0  3  0  0  0  0  0  0
  160.5630  206.9800  155.2060 N   0  0  0  0  0  0  0  0  0  0  0  0
  160.3430  209.3590  155.1690 C   0  0  0  0  0  0  0  0  0  0  0  0
  159.7900  211.7980  155.1640 C   0  0  0  0  0  0  0  0  0  0  0  0
  160.2440  213.3750  150.4530 C   0  0  0  0  0  2  0  0  0  0  0  0
  159.8250  210.4640  153.0140 C   0  0  2  0  0  3  0  0  0  0  0  0
  159.3540  214.2950  152.5900 C   0  0  0  0  0  2  0  0  0  0  0  0
  159.0600  212.8920  153.1140 C   0  0  2  0  0  3  0  0  0  0  0  0
  160.1920  209.3630  156.5630 C   0  0  0  0  0  0  0  0  0  0  0  0
  159.2870  212.8220  154.5510 N   0  0  0  0  0  0  0  0  0  0  0  0
  159.9700  210.5600  157.2610 O   0  0  0  0  0  0  0  0  0  0  0  0
  160.2370  208.1560  157.2610 C   0  0  0  0  0  3  0  0  0  0  0  0
  160.6490  209.3930  152.2940 C   0  0  0  0  0  2  0  0  0  0  0  0
  160.6090  208.1260  153.0390 N   0  0  0  0  0  0  0  0  0  0  0  0
  159.7970  211.8090  152.3500 C   0  0  0  0  0  0  0  0  0  0  0  0
  160.0040  211.8590  156.6540 C   0  0  1  0  0  3  0  0  0  0  0  0
  160.4320  206.9640  156.5600 C   0  0  0  0  0  3  0  0  0  0  0  0
  159.2020  214.3030  151.0740 C   0  0  0  0  0  2  0  0  0  0  0  0
  160.2470  212.0120  151.0970 C   0  0  0  0  0  3  0  0  0  0  0  0
  160.6450  205.9000  149.9090 C   0  0  1  0  0  3  0  0  0  0  0  0
  162.2340  202.7280  151.3930 C   0  0  0  0  0  1  0  0  0  0  0  0
  160.5600  206.3820  148.4730 C   0  0  0  0  0  1  0  0  0  0  0  0
  160.6020  204.3540  152.3100 C   0  0  0  0  0  2  0  0  0  0  0  0
  160.7480  206.9050  152.2850 C   0  0  0  0  0  0  0  0  0  0  0  0
  161.4860  204.6200  149.9760 C   0  0  0  0  0  2  0  0  0  0  0  0
  160.5550  205.7280  152.9140 C   0  0  0  0  0  3  0  0  0  0  0  0
  161.1470  207.0230  150.8260 C   0  0  1  0  0  3  0  0  0  0  0  0
  162.6370  207.3070  150.6820 C   0  0  0  0  0  1  0  0  0  0  0  0
  161.8090  204.1810  151.4020 C   0  0  2  0  0  3  0  0  0  0  0  0
  161.3010  212.5800  157.0010 C   0  0  0  0  0  2  0  0  0  0  0  0
  162.3300  211.6660  157.2360 O   0  0  0  0  0  1  0  0  0  0  0  0
  1  4  2  0  0  0  0
  1  3  1  0  0  0  0
  2  5  1  1  0  0  0
  2  4  1  0  0  0  0
  3 18  2  0  0  0  0
  4 10  1  0  0  0  0
  5 17  1  0  0  0  0
  6 19  1  0  0  0  0
  6 20  1  0  0  0  0
  7 14  1  6  0  0  0
  7  2  1  0  0  0  0
  9  8  1  6  0  0  0
  9 11  1  0  0  0  0
 10 13  2  0  0  0  0
 10 12  1  0  0  0  0
 11  5  2  0  0  0  0
 14 15  1  0  0  0  0
 15  1  1  0  0  0  0
 16  7  1  0  0  0  0
 16  9  1  0  0  0  0
 17 31  1  6  0  0  0
 17 12  1  0  0  0  0
 18 13  1  0  0  0  0
 19  8  1  0  0  0  0
 20 16  2  0  0  0  0
 21 23  1  6  0  0  0
 21 26  1  0  0  0  0
 21 28  1  0  0  0  0
 24 27  1  0  0  0  0
 25 27  2  0  0  0  0
 25 15  1  0  0  0  0
 26 30  1  0  0  0  0
 28 29  1  1  0  0  0
 28 25  1  0  0  0  0
 30 22  1  6  0  0  0
 30 24  1  0  0  0  0
 31 32  1  0  0  0  0
M  END
>  <MODEL>
4

>  <REMARK>
 VINA RESULT:      -6.6      2.505      5.483
  Name = 
  2 active torsions:
  status: ('A' for Active; 'I' for Inactive)
    1  A    between atoms: C_13  and  C_29
    2  A    between atoms: C_16  and  N_27
                            x       y       z     vdW  Elec       q    Type
                         _______ _______ _______ _____ _____    ______ ____

>  <TORSDO>
F 2

$$$$
=
 OpenBabel11062408293D

 32 37  0  0  1  0  0  0  0  0999 V2000
  160.9160  208.6030  152.2570 C   0  0  0  0  0  0  0  0  0  0  0  0
  161.3700  209.4200  149.9270 C   0  0  2  0  0  3  0  0  0  0  0  0
  160.8660  207.5860  153.1650 N   0  0  0  0  0  0  0  0  0  0  0  0
  161.4180  208.3450  150.9680 C   0  0  0  0  0  0  0  0  0  0  0  0
  162.3070  209.1490  148.7720 C   0  0  0  0  0  0  0  0  0  0  0  0
  161.0150  213.9500  148.3610 C   0  0  0  0  0  2  0  0  0  0  0  0
  161.5820  210.7830  150.5640 C   0  0  2  0  0  3  0  0  0  0  0  0
  162.4980  212.3660  147.1390 C   0  0  0  0  0  2  0  0  0  0  0  0
  162.6960  211.5240  148.3970 C   0  0  2  0  0  3  0  0  0  0  0  0
  161.8850  207.0610  150.6460 C   0  0  0  0  0  0  0  0  0  0  0  0
  162.7990  210.1110  148.0580 N   0  0  0  0  0  0  0  0  0  0  0  0
  162.4350  206.7890  149.3850 O   0  0  0  0  0  0  0  0  0  0  0  0
  161.8270  206.0510  151.6060 C   0  0  0  0  0  3  0  0  0  0  0  0
  160.4660  211.0020  151.5890 C   0  0  0  0  0  2  0  0  0  0  0  0
  160.4900  209.9460  152.6110 N   0  0  0  0  0  0  0  0  0  0  0  0
  161.6520  211.7980  149.4620 C   0  0  0  0  0  0  0  0  0  0  0  0
  162.4530  207.7270  148.2990 C   0  0  1  0  0  3  0  0  0  0  0  0
  161.3020  206.3330  152.8690 C   0  0  0  0  0  3  0  0  0  0  0  0
  162.2960  213.8220  147.5410 C   0  0  0  0  0  2  0  0  0  0  0  0
  160.9600  212.9520  149.4900 C   0  0  0  0  0  3  0  0  0  0  0  0
  159.9420  209.4940  156.3860 C   0  0  1  0  0  3  0  0  0  0  0  0
  158.5770  212.9800  157.2610 C   0  0  0  0  0  1  0  0  0  0  0  0
  160.6000  208.4430  157.2610 C   0  0  0  0  0  1  0  0  0  0  0  0
  158.2310  211.5050  155.2990 C   0  0  0  0  0  2  0  0  0  0  0  0
  160.0040  210.2780  153.9260 C   0  0  0  0  0  0  0  0  0  0  0  0
  159.6820  210.7610  157.2070 C   0  0  0  0  0  2  0  0  0  0  0  0
  158.9250  211.0790  154.0370 C   0  0  0  0  0  3  0  0  0  0  0  0
  160.7710  209.7340  155.1170 C   0  0  1  0  0  3  0  0  0  0  0  0
  162.0460  210.5290  155.3640 C   0  0  0  0  0  1  0  0  0  0  0  0
  159.2240  211.9470  156.3620 C   0  0  2  0  0  3  0  0  0  0  0  0
  161.3920  207.3710  147.2650 C   0  0  0  0  0  2  0  0  0  0  0  0
  160.7270  206.1960  147.6200 O   0  0  0  0  0  1  0  0  0  0  0  0
  1 15  1  0  0  0  0
  1  3  1  0  0  0  0
  2  5  1  6  0  0  0
  2  7  1  0  0  0  0
  2  4  1  0  0  0  0
  4  1  2  0  0  0  0
  6 20  1  0  0  0  0
  7 14  1  1  0  0  0
  8 19  1  0  0  0  0
  9  8  1  6  0  0  0
  9 16  1  0  0  0  0
 10  4  1  0  0  0  0
 10 13  2  0  0  0  0
 11  9  1  0  0  0  0
 11  5  2  0  0  0  0
 12 10  1  0  0  0  0
 13 18  1  0  0  0  0
 14 15  1  0  0  0  0
 15 25  1  0  0  0  0
 16 20  2  0  0  0  0
 16  7  1  0  0  0  0
 17 31  1  6  0  0  0
 17  5  1  0  0  0  0
 17 12  1  0  0  0  0
 18  3  2  0  0  0  0
 19  6  1  0  0  0  0
 21 26  1  0  0  0  0
 21 23  1  1  0  0  0
 24 30  1  0  0  0  0
 25 27  2  0  0  0  0
 25 28  1  0  0  0  0
 27 24  1  0  0  0  0
 28 29  1  1  0  0  0
 28 21  1  0  0  0  0
 30 26  1  0  0  0  0
 30 22  1  1  0  0  0
 31 32  1  0  0  0  0
M  END
>  <MODEL>
5

>  <REMARK>
 VINA RESULT:      -6.4      2.983      7.708
  Name = 
  2 active torsions:
  status: ('A' for Active; 'I' for Inactive)
    1  A    between atoms: C_13  and  C_29
    2  A    between atoms: C_16  and  N_27
                            x       y       z     vdW  Elec       q    Type
                         _______ _______ _______ _____ _____    ______ ____

>  <TORSDO>
F 2

$$$$
=
 OpenBabel11062408293D

 32 37  0  0  1  0  0  0  0  0999 V2000
  161.2770  207.6450  152.3790 C   0  0  0  0  0  0  0  0  0  0  0  0
  160.9670  210.0460  153.0430 C   0  0  2  0  0  3  0  0  0  0  0  0
  161.3900  206.3290  152.7210 N   0  0  0  0  0  0  0  0  0  0  0  0
  160.9780  208.5880  153.3810 C   0  0  0  0  0  0  0  0  0  0  0  0
  160.2290  210.8730  154.0710 C   0  0  0  0  0  0  0  0  0  0  0  0
  160.7410  213.8270  150.0830 C   0  0  0  0  0  2  0  0  0  0  0  0
  160.4580  210.2570  151.6260 C   0  0  2  0  0  3  0  0  0  0  0  0
  159.6950  213.9970  152.3370 C   0  0  0  0  0  2  0  0  0  0  0  0
  159.4950  212.4850  152.3990 C   0  0  2  0  0  3  0  0  0  0  0  0
  160.7730  208.1610  154.7010 C   0  0  0  0  0  0  0  0  0  0  0  0
  159.6700  211.9990  153.7610 N   0  0  0  0  0  0  0  0  0  0  0  0
  160.4260  209.0730  155.7090 O   0  0  0  0  0  0  0  0  0  0  0  0
  160.8870  206.8050  155.0080 C   0  0  0  0  0  3  0  0  0  0  0  0
  161.3950  209.5110  150.6730 C   0  0  0  0  0  2  0  0  0  0  0  0
  161.4290  208.0770  151.0010 N   0  0  0  0  0  0  0  0  0  0  0  0
  160.3480  211.7340  151.3940 C   0  0  0  0  0  0  0  0  0  0  0  0
  160.3780  210.4940  155.5210 C   0  0  1  0  0  3  0  0  0  0  0  0
  161.2070  205.8970  153.9970 C   0  0  0  0  0  3  0  0  0  0  0  0
  159.6030  214.4530  150.8870 C   0  0  0  0  0  2  0  0  0  0  0  0
  160.8290  212.3360  150.2900 C   0  0  0  0  0  3  0  0  0  0  0  0
  161.5820  204.6660  149.2420 C   0  0  1  0  0  3  0  0  0  0  0  0
  162.2800  205.8280  145.6440 C   0  0  0  0  0  1  0  0  0  0  0  0
  160.9940  203.3690  149.7640 C   0  0  0  0  0  1  0  0  0  0  0  0
  163.0820  206.6520  147.8410 C   0  0  0  0  0  2  0  0  0  0  0  0
  161.6970  207.1530  149.9280 C   0  0  0  0  0  0  0  0  0  0  0  0
  161.5450  204.6720  147.7100 C   0  0  0  0  0  2  0  0  0  0  0  0
  162.6190  207.4830  149.0020 C   0  0  0  0  0  3  0  0  0  0  0  0
  160.8850  205.8720  149.8870 C   0  0  1  0  0  3  0  0  0  0  0  0
  159.4820  206.1240  149.3480 C   0  0  0  0  0  1  0  0  0  0  0  0
  161.9130  206.0230  147.1000 C   0  0  2  0  0  3  0  0  0  0  0  0
  161.5970  211.1600  156.1480 C   0  0  0  0  0  2  0  0  0  0  0  0
  162.7040  210.3110  156.1050 O   0  0  0  0  0  1  0  0  0  0  0  0
  1  3  2  0  0  0  0
  1  4  1  0  0  0  0
  2  4  1  1  0  0  0
  2  5  1  0  0  0  0
  3 18  1  0  0  0  0
  4 10  2  0  0  0  0
  5 17  1  0  0  0  0
  6 20  1  0  0  0  0
  6 19  1  0  0  0  0
  7 14  1  6  0  0  0
  7  2  1  0  0  0  0
  9  8  1  1  0  0  0
  9 11  1  0  0  0  0
 10 13  1  0  0  0  0
 10 12  1  0  0  0  0
 11  5  2  0  0  0  0
 14 15  1  0  0  0  0
 15  1  1  0  0  0  0
 16  7  1  0  0  0  0
 16  9  1  0  0  0  0
 17 12  1  0  0  0  0
 17 31  1  6  0  0  0
 18 13  2  0  0  0  0
 19  8  1  0  0  0  0
 20 16  2  0  0  0  0
 21 23  1  1  0  0  0
 21 28  1  0  0  0  0
 24 27  1  0  0  0  0
 25 15  1  0  0  0  0
 26 21  1  0  0  0  0
 27 25  2  0  0  0  0
 28 29  1  6  0  0  0
 28 25  1  0  0  0  0
 30 22  1  6  0  0  0
 30 26  1  0  0  0  0
 30 24  1  0  0  0  0
 32 31  1  0  0  0  0
M  END
>  <MODEL>
6

>  <REMARK>
 VINA RESULT:      -6.4      2.224      4.870
  Name = 
  2 active torsions:
  status: ('A' for Active; 'I' for Inactive)
    1  A    between atoms: C_13  and  C_29
    2  A    between atoms: C_16  and  N_27
                            x       y       z     vdW  Elec       q    Type
                         _______ _______ _______ _____ _____    ______ ____

>  <TORSDO>
F 2

$$$$
=
 OpenBabel11062408293D

 32 37  0  0  1  0  0  0  0  0999 V2000
  161.4770  209.1480  151.0160 C   0  0  0  0  0  0  0  0  0  0  0  0
  161.7440  206.8330  150.0820 C   0  0  2  0  0  3  0  0  0  0  0  0
  161.5440  210.5020  150.8590 N   0  0  0  0  0  0  0  0  0  0  0  0
  161.6990  208.3190  149.9010 C   0  0  0  0  0  0  0  0  0  0  0  0
  161.5590  206.0860  148.7810 C   0  0  0  0  0  0  0  0  0  0  0  0
  160.8920  202.7020  152.3860 C   0  0  0  0  0  2  0  0  0  0  0  0
  160.7680  206.4030  151.1650 C   0  0  2  0  0  3  0  0  0  0  0  0
  160.8060  202.7340  149.8970 C   0  0  0  0  0  2  0  0  0  0  0  0
  160.4560  204.2190  149.8910 C   0  0  2  0  0  3  0  0  0  0  0  0
  161.9560  208.8920  148.6460 C   0  0  0  0  0  0  0  0  0  0  0  0
  161.0710  204.8870  148.7520 N   0  0  0  0  0  0  0  0  0  0  0  0
  162.1340  208.0890  147.5090 O   0  0  0  0  0  0  0  0  0  0  0  0
  162.0070  210.2800  148.5250 C   0  0  0  0  0  3  0  0  0  0  0  0
  161.1740  207.0980  152.4670 C   0  0  0  0  0  2  0  0  0  0  0  0
  161.1490  208.5590  152.3020 N   0  0  0  0  0  0  0  0  0  0  0  0
  160.7640  204.9040  151.2090 C   0  0  0  0  0  0  0  0  0  0  0  0
  162.1970  206.6560  147.5420 C   0  0  1  0  0  3  0  0  0  0  0  0
  161.8040  211.0760  149.6540 C   0  0  0  0  0  3  0  0  0  0  0  0
  160.2300  202.0910  151.1520 C   0  0  0  0  0  2  0  0  0  0  0  0
  160.8640  204.2090  152.3580 C   0  0  0  0  0  3  0  0  0  0  0  0
  161.4150  209.6370  155.9790 C   0  0  1  0  0  3  0  0  0  0  0  0
  159.6770  213.0610  155.7730 C   0  0  0  0  0  1  0  0  0  0  0  0
  162.3930  209.0860  156.9990 C   0  0  0  0  0  1  0  0  0  0  0  0
  159.2150  210.8940  154.6600 C   0  0  0  0  0  2  0  0  0  0  0  0
  160.8730  209.3580  153.4690 C   0  0  0  0  0  0  0  0  0  0  0  0
  161.1060  211.1040  156.2970 C   0  0  0  0  0  2  0  0  0  0  0  0
  159.7170  210.0480  153.5260 C   0  0  0  0  0  3  0  0  0  0  0  0
  161.9340  209.4040  154.5530 C   0  0  1  0  0  3  0  0  0  0  0  0
  163.0810  210.3280  154.1650 C   0  0  0  0  0  1  0  0  0  0  0  0
  160.3040  211.8050  155.2040 C   0  0  2  0  0  3  0  0  0  0  0  0
  163.6350  206.1790  147.3850 C   0  0  0  0  0  2  0  0  0  0  0  0
  163.6950  205.0400  146.5790 O   0  0  0  0  0  1  0  0  0  0  0  0
  1 15  1  0  0  0  0
  2  5  1  6  0  0  0
  2  7  1  0  0  0  0
  3  1  1  0  0  0  0
  4  2  1  0  0  0  0
  4  1  2  0  0  0  0
  7 16  1  0  0  0  0
  7 14  1  1  0  0  0
  8 19  1  0  0  0  0
  9  8  1  1  0  0  0
  9 16  1  0  0  0  0
 10  4  1  0  0  0  0
 11  5  2  0  0  0  0
 11  9  1  0  0  0  0
 12 17  1  0  0  0  0
 12 10  1  0  0  0  0
 13 10  2  0  0  0  0
 13 18  1  0  0  0  0
 15 14  1  0  0  0  0
 15 25  1  0  0  0  0
 16 20  2  0  0  0  0
 17 31  1  1  0  0  0
 17  5  1  0  0  0  0
 18  3  2  0  0  0  0
 19  6  1  0  0  0  0
 20  6  1  0  0  0  0
 21 26  1  0  0  0  0
 21 23  1  1  0  0  0
 24 30  1  0  0  0  0
 25 27  2  0  0  0  0
 25 28  1  0  0  0  0
 27 24  1  0  0  0  0
 28 29  1  6  0  0  0
 28 21  1  0  0  0  0
 30 22  1  1  0  0  0
 30 26  1  0  0  0  0
 32 31  1  0  0  0  0
M  END
>  <MODEL>
7

>  <REMARK>
 VINA RESULT:      -6.0      2.269      7.000
  Name = 
  2 active torsions:
  status: ('A' for Active; 'I' for Inactive)
    1  A    between atoms: C_13  and  C_29
    2  A    between atoms: C_16  and  N_27
                            x       y       z     vdW  Elec       q    Type
                         _______ _______ _______ _____ _____    ______ ____

>  <TORSDO>
F 2

$$$$
=
 OpenBabel11062408293D

 32 37  0  0  1  0  0  0  0  0999 V2000
  161.6130  207.2300  151.5120 C   0  0  0  0  0  0  0  0  0  0  0  0
  161.5150  209.6710  152.0910 C   0  0  2  0  0  3  0  0  0  0  0  0
  161.6190  205.9220  151.8990 N   0  0  0  0  0  0  0  0  0  0  0  0
  161.4080  208.2290  152.4820 C   0  0  0  0  0  0  0  0  0  0  0  0
  160.8630  210.5920  153.0960 C   0  0  0  0  0  0  0  0  0  0  0  0
  161.5710  213.3510  149.0000 C   0  0  0  0  0  2  0  0  0  0  0  0
  161.0080  209.8740  150.6740 C   0  0  2  0  0  3  0  0  0  0  0  0
  160.5720  213.6870  151.2570 C   0  0  0  0  0  2  0  0  0  0  0  0
  160.2470  212.2010  151.3750 C   0  0  2  0  0  3  0  0  0  0  0  0
  161.1840  207.8680  153.8190 C   0  0  0  0  0  0  0  0  0  0  0  0
  160.3970  211.7500  152.7520 N   0  0  0  0  0  0  0  0  0  0  0  0
  160.9290  208.8410  154.7960 O   0  0  0  0  0  0  0  0  0  0  0  0
  161.1870  206.5180  154.1730 C   0  0  0  0  0  3  0  0  0  0  0  0
  161.8660  209.0180  149.7390 C   0  0  0  0  0  2  0  0  0  0  0  0
  161.7830  207.5990  150.1180 N   0  0  0  0  0  0  0  0  0  0  0  0
  161.0200  211.3460  150.3890 C   0  0  0  0  0  0  0  0  0  0  0  0
  160.9980  210.2540  154.5570 C   0  0  1  0  0  3  0  0  0  0  0  0
  161.4160  205.5510  153.1920 C   0  0  0  0  0  3  0  0  0  0  0  0
  160.5010  214.0990  149.7910 C   0  0  0  0  0  2  0  0  0  0  0  0
  161.5360  211.8660  149.2600 C   0  0  0  0  0  3  0  0  0  0  0  0
  161.5700  204.1410  148.4600 C   0  0  1  0  0  3  0  0  0  0  0  0
  162.4430  205.1070  144.8420 C   0  0  0  0  0  1  0  0  0  0  0  0
  160.8310  202.9360  149.0090 C   0  0  0  0  0  1  0  0  0  0  0  0
  163.3050  205.9000  147.0270 C   0  0  0  0  0  2  0  0  0  0  0  0
  161.9580  206.6190  149.0760 C   0  0  0  0  0  0  0  0  0  0  0  0
  161.5540  204.1050  146.9270 C   0  0  0  0  0  2  0  0  0  0  0  0
  162.9240  206.8130  148.1560 C   0  0  0  0  0  3  0  0  0  0  0  0
  161.0060  205.4370  149.0570 C   0  0  1  0  0  3  0  0  0  0  0  0
  159.6490  205.8300  148.4890 C   0  0  0  0  0  1  0  0  0  0  0  0
  162.0820  205.3860  146.2850 C   0  0  2  0  0  3  0  0  0  0  0  0
  162.2770  210.8350  155.1490 C   0  0  0  0  0  2  0  0  0  0  0  0
  162.7060  210.0810  156.2420 O   0  0  0  0  0  1  0  0  0  0  0  0
  1  3  2  0  0  0  0
  1  4  1  0  0  0  0
  2  4  1  1  0  0  0
  2  5  1  0  0  0  0
  3 18  1  0  0  0  0
  4 10  2  0  0  0  0
  5 17  1  0  0  0  0
  6 20  1  0  0  0  0
  6 19  1  0  0  0  0
  7 14  1  6  0  0  0
  7  2  1  0  0  0  0
  9  8  1  1  0  0  0
  9 11  1  0  0  0  0
 10 13  1  0  0  0  0
 10 12  1  0  0  0  0
 11  5  2  0  0  0  0
 14 15  1  0  0  0  0
 15  1  1  0  0  0  0
 16  7  1  0  0  0  0
 16  9  1  0  0  0  0
 17 12  1  0  0  0  0
 17 31  1  6  0  0  0
 18 13  2  0  0  0  0
 19  8  1  0  0  0  0
 20 16  2  0  0  0  0
 21 23  1  1  0  0  0
 21 28  1  0  0  0  0
 24 27  1  0  0  0  0
 25 15  1  0  0  0  0
 26 21  1  0  0  0  0
 27 25  2  0  0  0  0
 28 29  1  6  0  0  0
 28 25  1  0  0  0  0
 30 22  1  6  0  0  0
 30 26  1  0  0  0  0
 30 24  1  0  0  0  0
 31 32  1  0  0  0  0
M  END
>  <MODEL>
8

>  <REMARK>
 VINA RESULT:      -5.9      2.272      4.835
  Name = 
  2 active torsions:
  status: ('A' for Active; 'I' for Inactive)
    1  A    between atoms: C_13  and  C_29
    2  A    between atoms: C_16  and  N_27
                            x       y       z     vdW  Elec       q    Type
                         _______ _______ _______ _____ _____    ______ ____

>  <TORSDO>
F 2

$$$$
=
 OpenBabel11062408293D

 32 37  0  0  1  0  0  0  0  0999 V2000
  161.4250  207.4850  150.9090 C   0  0  0  0  0  0  0  0  0  0  0  0
  161.1060  205.5070  149.3970 C   0  0  2  0  0  3  0  0  0  0  0  0
  161.5510  208.0070  152.1630 N   0  0  0  0  0  0  0  0  0  0  0  0
  161.3620  206.0880  150.7530 C   0  0  0  0  0  0  0  0  0  0  0  0
  161.4880  204.0470  149.3110 C   0  0  0  0  0  0  0  0  0  0  0  0
  160.9390  205.5740  144.5940 C   0  0  0  0  0  2  0  0  0  0  0  0
  161.7590  206.3620  148.3240 C   0  0  2  0  0  3  0  0  0  0  0  0
  161.5800  203.4620  145.7480 C   0  0  0  0  0  2  0  0  0  0  0  0
  162.0920  204.2370  146.9590 C   0  0  2  0  0  3  0  0  0  0  0  0
  161.4590  205.2560  151.8780 C   0  0  0  0  0  0  0  0  0  0  0  0
  161.8290  203.5000  148.1880 N   0  0  0  0  0  0  0  0  0  0  0  0
  161.4480  203.8590  151.7450 O   0  0  0  0  0  0  0  0  0  0  0  0
  161.5980  205.8280  153.1430 C   0  0  0  0  0  3  0  0  0  0  0  0
  161.1570  207.7670  148.4090 C   0  0  0  0  0  2  0  0  0  0  0  0
  161.3870  208.3460  149.7400 N   0  0  0  0  0  0  0  0  0  0  0  0
  161.5800  205.6630  147.0090 C   0  0  0  0  0  0  0  0  0  0  0  0
  161.2130  203.1740  150.5070 C   0  0  1  0  0  3  0  0  0  0  0  0
  161.6350  207.2180  153.2680 C   0  0  0  0  0  3  0  0  0  0  0  0
  161.7830  204.3050  144.4950 C   0  0  0  0  0  2  0  0  0  0  0  0
  161.1470  206.2950  145.9020 C   0  0  0  0  0  3  0  0  0  0  0  0
  162.6900  211.8550  148.8760 C   0  0  1  0  0  3  0  0  0  0  0  0
  160.0850  213.9850  150.7360 C   0  0  0  0  0  1  0  0  0  0  0  0
  163.6050  212.2030  147.7170 C   0  0  0  0  0  1  0  0  0  0  0  0
  161.1990  211.8460  151.3120 C   0  0  0  0  0  2  0  0  0  0  0  0
  161.4870  209.7810  149.8360 C   0  0  0  0  0  0  0  0  0  0  0  0
  161.7580  213.0350  149.1730 C   0  0  0  0  0  2  0  0  0  0  0  0
  161.1270  210.3820  150.9870 C   0  0  0  0  0  3  0  0  0  0  0  0
  161.9560  210.5350  148.6050 C   0  0  1  0  0  3  0  0  0  0  0  0
  160.8410  210.6590  147.5740 C   0  0  0  0  0  1  0  0  0  0  0  0
  160.6570  212.7000  150.1770 C   0  0  2  0  0  3  0  0  0  0  0  0
  159.8010  202.6040  150.4690 C   0  0  0  0  0  2  0  0  0  0  0  0
  159.7670  201.4080  149.7490 O   0  0  0  0  0  1  0  0  0  0  0  0
  1  3  1  0  0  0  0
  2  5  1  1  0  0  0
  2  4  1  0  0  0  0
  3 18  2  0  0  0  0
  4  1  2  0  0  0  0
  4 10  1  0  0  0  0
  5 17  1  0  0  0  0
  6 20  1  0  0  0  0
  7 14  1  6  0  0  0
  7  2  1  0  0  0  0
  9  8  1  6  0  0  0
  9 16  1  0  0  0  0
  9 11  1  0  0  0  0
 10 13  2  0  0  0  0
 11  5  2  0  0  0  0
 12 10  1  0  0  0  0
 13 18  1  0  0  0  0
 14 15  1  0  0  0  0
 15 25  1  0  0  0  0
 15  1  1  0  0  0  0
 16  7  1  0  0  0  0
 17 31  1  1  0  0  0
 17 12  1  0  0  0  0
 19  6  1  0  0  0  0
 19  8  1  0  0  0  0
 20 16  2  0  0  0  0
 21 23  1  6  0  0  0
 21 26  1  0  0  0  0
 25 27  2  0  0  0  0
 26 30  1  0  0  0  0
 27 24  1  0  0  0  0
 28 29  1  6  0  0  0
 28 21  1  0  0  0  0
 28 25  1  0  0  0  0
 30 22  1  1  0  0  0
 30 24  1  0  0  0  0
 32 31  1  0  0  0  0
M  END
>  <MODEL>
9

>  <REMARK>
 VINA RESULT:      -5.7      3.021      8.443
  Name = 
  2 active torsions:
  status: ('A' for Active; 'I' for Inactive)
    1  A    between atoms: C_13  and  C_29
    2  A    between atoms: C_16  and  N_27
                            x       y       z     vdW  Elec       q    Type
                         _______ _______ _______ _____ _____    ______ ____

>  <TORSDO>
F 2

$$$$
