=
 OpenBabel11052422233D

 31 34  0  0  1  0  0  0  0  0999 V2000
  160.8480  207.2330  154.1960 C   0  0  0  0  0  0  0  0  0  0  0  0
  161.3700  206.8700  150.4790 C   0  0  0  0  0  0  0  0  0  0  0  0
  161.1730  205.4800  150.1770 C   0  0  0  0  0  0  0  0  0  0  0  0
  160.6620  203.1780  150.8350 C   0  0  0  0  0  3  0  0  0  0  0  0
  161.2600  207.4250  151.7920 C   0  0  0  0  0  0  0  0  0  0  0  0
  161.0650  208.6000  154.3560 C   0  0  0  0  0  3  0  0  0  0  0  0
  160.8470  204.5240  151.1570 C   0  0  0  0  0  3  0  0  0  0  0  0
  161.8990  209.1400  149.6590 C   0  0  0  0  0  0  0  0  0  0  0  0
  160.5430  206.4640  155.2680 F   0  0  0  0  0  0  0  0  0  0  0  0
  161.6250  205.9080  147.8210 C   0  0  0  0  0  3  0  0  0  0  0  0
  160.7990  202.7540  149.5150 C   0  0  0  0  0  0  0  0  0  0  0  0
  161.7830  209.6030  150.9250 N   0  0  0  0  0  0  0  0  0  0  0  0
  161.6960  207.7570  149.4040 C   0  0  0  0  0  0  0  0  0  0  0  0
  160.9450  206.6560  152.9280 C   0  0  0  0  0  3  0  0  0  0  0  0
  160.6100  201.3830  149.1840 N   0  0  0  0  0  1  0  0  0  0  0  0
  161.4770  208.8110  151.9770 C   0  0  0  0  0  0  0  0  0  0  0  0
  161.3790  209.3860  153.2480 C   0  0  0  0  0  3  0  0  0  0  0  0
  161.8160  207.2520  148.1030 C   0  0  0  0  0  3  0  0  0  0  0  0
  161.3060  205.0230  148.8390 C   0  0  0  0  0  0  0  0  0  0  0  0
  161.1190  203.6750  148.5200 C   0  0  0  0  0  3  0  0  0  0  0  0
  162.1230  211.4730  148.7720 C   0  0  0  0  0  3  0  0  0  0  0  0
  162.2400  210.1560  148.6350 C   0  0  0  0  0  3  0  0  0  0  0  0
  162.4940  212.3980  147.6630 C   0  0  0  0  0  2  0  0  0  0  0  0
  160.3950  213.3740  148.4460 N   0  0  0  0  0  1  0  0  0  0  0  0
  161.3700  213.3800  147.3660 C   0  0  2  0  0  3  0  0  0  0  0  0
  159.8150  212.1310  146.0510 O   0  0  0  0  0  0  0  0  0  0  0  0
  160.7020  213.0260  146.0720 C   0  0  0  0  0  0  0  0  0  0  0  0
  161.0520  213.6630  144.8780 O   0  0  0  0  0  0  0  0  0  0  0  0
  161.8320  213.0340  143.8700 C   0  0  2  0  0  3  0  0  0  0  0  0
  163.2990  213.3080  144.1250 C   0  0  0  0  0  1  0  0  0  0  0  0
  161.4810  213.5360  142.6160 O   0  0  0  0  0  1  0  0  0  0  0  0
  1  6  1  0  0  0  0
  1  9  1  0  0  0  0
  2  5  1  0  0  0  0
  3  2  1  0  0  0  0
  3  7  2  0  0  0  0
  4  7  1  0  0  0  0
  5 16  2  0  0  0  0
  5 14  1  0  0  0  0
  8 12  2  0  0  0  0
 10 18  2  0  0  0  0
 10 19  1  0  0  0  0
 11  4  2  0  0  0  0
 12 16  1  0  0  0  0
 13  8  1  0  0  0  0
 13  2  2  0  0  0  0
 14  1  2  0  0  0  0
 15 11  1  0  0  0  0
 16 17  1  0  0  0  0
 17  6  2  0  0  0  0
 18 13  1  0  0  0  0
 19  3  1  0  0  0  0
 20 19  2  0  0  0  0
 20 11  1  0  0  0  0
 22 21  2  0  0  0  0
 22  8  1  0  0  0  0
 23 21  1  0  0  0  0
 25 23  1  0  0  0  0
 25 24  1  1  0  0  0
 26 27  2  0  0  0  0
 27 25  1  0  0  0  0
 28 27  1  0  0  0  0
 29 30  1  1  0  0  0
 29 28  1  0  0  0  0
 31 29  1  0  0  0  0
M  END
>  <MODEL>
1

>  <REMARK>
 VINA RESULT:     -10.0      0.000      0.000
  Name = 
  6 active torsions:
  status: ('A' for Active; 'I' for Inactive)
    1  A    between atoms: C_1  and  O_24
    2  A    between atoms: C_3  and  C_9
    3  A    between atoms: C_3  and  C_22
    4  A    between atoms: C_15  and  C_23
    5  A    between atoms: C_19  and  C_22
    6  A    between atoms: C_19  and  O_24
                            x       y       z     vdW  Elec       q    Type
                         _______ _______ _______ _____ _____    ______ ____

>  <TORSDO>
F 6

$$$$
=
 OpenBabel11052422233D

 31 34  0  0  1  0  0  0  0  0999 V2000
  160.8270  207.2430  154.2890 C   0  0  0  0  0  0  0  0  0  0  0  0
  161.3510  206.9130  150.5690 C   0  0  0  0  0  0  0  0  0  0  0  0
  161.1520  205.5260  150.2540 C   0  0  0  0  0  0  0  0  0  0  0  0
  160.6370  203.2180  150.8920 C   0  0  0  0  0  3  0  0  0  0  0  0
  161.2410  207.4560  151.8870 C   0  0  0  0  0  0  0  0  0  0  0  0
  161.0450  208.6080  154.4610 C   0  0  0  0  0  3  0  0  0  0  0  0
  160.8240  204.5610  151.2260 C   0  0  0  0  0  3  0  0  0  0  0  0
  161.8830  209.1890  149.7700 C   0  0  0  0  0  0  0  0  0  0  0  0
  160.5200  206.4650  155.3540 F   0  0  0  0  0  0  0  0  0  0  0  0
  161.6060  205.9750  147.9030 C   0  0  0  0  0  3  0  0  0  0  0  0
  160.7740  202.8060  149.5670 C   0  0  0  0  0  0  0  0  0  0  0  0
  161.7670  209.6410  151.0410 N   0  0  0  0  0  0  0  0  0  0  0  0
  161.6780  207.8090  149.5030 C   0  0  0  0  0  0  0  0  0  0  0  0
  160.9240  206.6770  153.0160 C   0  0  0  0  0  3  0  0  0  0  0  0
  160.5840  201.4390  149.2240 N   0  0  0  0  0  1  0  0  0  0  0  0
  161.4590  208.8400  152.0840 C   0  0  0  0  0  0  0  0  0  0  0  0
  161.3610  209.4030  153.3610 C   0  0  0  0  0  3  0  0  0  0  0  0
  161.7990  207.3150  148.1970 C   0  0  0  0  0  3  0  0  0  0  0  0
  161.2850  205.0810  148.9130 C   0  0  0  0  0  0  0  0  0  0  0  0
  161.0970  203.7360  148.5810 C   0  0  0  0  0  3  0  0  0  0  0  0
  162.0870  211.5290  148.8950 C   0  0  0  0  0  3  0  0  0  0  0  0
  162.2270  210.2140  148.7550 C   0  0  0  0  0  3  0  0  0  0  0  0
  162.4640  212.4630  147.7960 C   0  0  0  0  0  2  0  0  0  0  0  0
  160.9940  213.9330  149.0810 N   0  0  0  0  0  1  0  0  0  0  0  0
  161.5360  213.6690  147.7580 C   0  0  2  0  0  3  0  0  0  0  0  0
  160.6760  212.9710  145.6410 O   0  0  0  0  0  0  0  0  0  0  0  0
  160.4200  213.4320  146.7860 C   0  0  0  0  0  0  0  0  0  0  0  0
  159.0940  213.7230  147.1190 O   0  0  0  0  0  0  0  0  0  0  0  0
  158.1290  212.7160  147.3920 C   0  0  2  0  0  3  0  0  0  0  0  0
  157.2430  212.5270  146.1790 C   0  0  0  0  0  1  0  0  0  0  0  0
  157.3440  213.0940  148.4820 O   0  0  0  0  0  1  0  0  0  0  0  0
  1  6  1  0  0  0  0
  1  9  1  0  0  0  0
  2  5  1  0  0  0  0
  3  2  1  0  0  0  0
  3  7  2  0  0  0  0
  4  7  1  0  0  0  0
  5 16  2  0  0  0  0
  5 14  1  0  0  0  0
  8 12  2  0  0  0  0
 10 18  2  0  0  0  0
 10 19  1  0  0  0  0
 11  4  2  0  0  0  0
 12 16  1  0  0  0  0
 13  8  1  0  0  0  0
 13  2  2  0  0  0  0
 14  1  2  0  0  0  0
 15 11  1  0  0  0  0
 16 17  1  0  0  0  0
 17  6  2  0  0  0  0
 18 13  1  0  0  0  0
 19  3  1  0  0  0  0
 20 19  2  0  0  0  0
 20 11  1  0  0  0  0
 22 21  2  0  0  0  0
 22  8  1  0  0  0  0
 23 21  1  0  0  0  0
 25 23  1  0  0  0  0
 25 24  1  1  0  0  0
 26 27  2  0  0  0  0
 27 28  1  0  0  0  0
 27 25  1  0  0  0  0
 28 29  1  0  0  0  0
 29 30  1  6  0  0  0
 29 31  1  0  0  0  0
M  END
>  <MODEL>
2

>  <REMARK>
 VINA RESULT:      -9.9      1.155      2.066
  Name = 
  6 active torsions:
  status: ('A' for Active; 'I' for Inactive)
    1  A    between atoms: C_1  and  O_24
    2  A    between atoms: C_3  and  C_9
    3  A    between atoms: C_3  and  C_22
    4  A    between atoms: C_15  and  C_23
    5  A    between atoms: C_19  and  C_22
    6  A    between atoms: C_19  and  O_24
                            x       y       z     vdW  Elec       q    Type
                         _______ _______ _______ _____ _____    ______ ____

>  <TORSDO>
F 6

$$$$
=
 OpenBabel11052422233D

 31 34  0  0  1  0  0  0  0  0999 V2000
  161.9740  210.7080  149.6580 C   0  0  0  0  0  0  0  0  0  0  0  0
  161.2770  208.2890  152.4660 C   0  0  0  0  0  0  0  0  0  0  0  0
  161.1250  209.0810  153.6540 C   0  0  0  0  0  0  0  0  0  0  0  0
  161.0800  211.2310  154.8260 C   0  0  0  0  0  3  0  0  0  0  0  0
  161.5530  208.8340  151.1740 C   0  0  0  0  0  0  0  0  0  0  0  0
  162.1000  209.8290  148.5850 C   0  0  0  0  0  3  0  0  0  0  0  0
  161.2320  210.4850  153.6550 C   0  0  0  0  0  3  0  0  0  0  0  0
  161.2880  206.0470  151.4290 C   0  0  0  0  0  0  0  0  0  0  0  0
  162.1130  212.0400  149.4640 F   0  0  0  0  0  0  0  0  0  0  0  0
  160.7340  207.0690  154.9700 C   0  0  0  0  0  3  0  0  0  0  0  0
  160.8150  210.5860  156.0320 C   0  0  0  0  0  0  0  0  0  0  0  0
  161.5510  206.6240  150.2320 N   0  0  0  0  0  0  0  0  0  0  0  0
  161.1450  206.8690  152.5790 C   0  0  0  0  0  0  0  0  0  0  0  0
  161.7030  210.2130  150.9360 C   0  0  0  0  0  3  0  0  0  0  0  0
  160.6600  211.3430  157.2250 N   0  0  0  0  0  1  0  0  0  0  0  0
  161.6850  207.9590  150.0690 C   0  0  0  0  0  0  0  0  0  0  0  0
  161.9560  208.4580  148.7910 C   0  0  0  0  0  3  0  0  0  0  0  0
  160.8780  206.2960  153.8290 C   0  0  0  0  0  3  0  0  0  0  0  0
  160.8530  208.4480  154.8950 C   0  0  0  0  0  0  0  0  0  0  0  0
  160.7020  209.1970  156.0650 C   0  0  0  0  0  3  0  0  0  0  0  0
  161.0840  203.8030  150.3330 C   0  0  0  0  0  3  0  0  0  0  0  0
  161.1750  204.5690  151.4150 C   0  0  0  0  0  3  0  0  0  0  0  0
  160.9690  202.3200  150.4470 C   0  0  0  0  0  2  0  0  0  0  0  0
  159.2500  200.6550  149.9560 N   0  0  0  0  0  1  0  0  0  0  0  0
  160.0150  201.7610  149.4020 C   0  0  2  0  0  3  0  0  0  0  0  0
  161.7870  200.5610  148.3410 O   0  0  0  0  0  0  0  0  0  0  0  0
  160.7780  201.3030  148.1960 C   0  0  0  0  0  0  0  0  0  0  0  0
  160.4000  201.6920  146.9080 O   0  0  0  0  0  0  0  0  0  0  0  0
  161.2140  202.5130  146.0810 C   0  0  2  0  0  3  0  0  0  0  0  0
  161.5940  203.7680  146.8380 C   0  0  0  0  0  1  0  0  0  0  0  0
  160.5140  202.8650  144.9270 O   0  0  0  0  0  1  0  0  0  0  0  0
  1 14  1  0  0  0  0
  2 13  2  0  0  0  0
  2  3  1  0  0  0  0
  3  7  2  0  0  0  0
  3 19  1  0  0  0  0
  4 11  2  0  0  0  0
  5  2  1  0  0  0  0
  6 17  1  0  0  0  0
  6  1  2  0  0  0  0
  7  4  1  0  0  0  0
  8 13  1  0  0  0  0
  9  1  1  0  0  0  0
 11 20  1  0  0  0  0
 11 15  1  0  0  0  0
 12  8  2  0  0  0  0
 13 18  1  0  0  0  0
 14  5  2  0  0  0  0
 16 12  1  0  0  0  0
 16  5  1  0  0  0  0
 17 16  2  0  0  0  0
 18 10  2  0  0  0  0
 19 10  1  0  0  0  0
 19 20  2  0  0  0  0
 21 23  1  0  0  0  0
 21 22  2  0  0  0  0
 22  8  1  0  0  0  0
 25 24  1  1  0  0  0
 25 23  1  0  0  0  0
 27 26  2  0  0  0  0
 27 25  1  0  0  0  0
 28 27  1  0  0  0  0
 29 30  1  1  0  0  0
 29 28  1  0  0  0  0
 31 29  1  0  0  0  0
M  END
>  <MODEL>
3

>  <REMARK>
 VINA RESULT:      -9.1      4.343      8.332
  Name = 
  6 active torsions:
  status: ('A' for Active; 'I' for Inactive)
    1  A    between atoms: C_1  and  O_24
    2  A    between atoms: C_3  and  C_9
    3  A    between atoms: C_3  and  C_22
    4  A    between atoms: C_15  and  C_23
    5  A    between atoms: C_19  and  C_22
    6  A    between atoms: C_19  and  O_24
                            x       y       z     vdW  Elec       q    Type
                         _______ _______ _______ _____ _____    ______ ____

>  <TORSDO>
F 6

$$$$
=
 OpenBabel11052422233D

 31 34  0  0  1  0  0  0  0  0999 V2000
  161.0690  208.9710  154.8200 C   0  0  0  0  0  0  0  0  0  0  0  0
  161.3630  207.8510  151.2300 C   0  0  0  0  0  0  0  0  0  0  0  0
  161.6420  209.0310  150.4600 C   0  0  0  0  0  0  0  0  0  0  0  0
  162.0350  211.4400  150.2640 C   0  0  0  0  0  3  0  0  0  0  0  0
  161.1790  207.8490  152.6480 C   0  0  0  0  0  0  0  0  0  0  0  0
  160.8020  207.7580  155.4490 C   0  0  0  0  0  3  0  0  0  0  0  0
  161.7640  210.3090  151.0370 C   0  0  0  0  0  3  0  0  0  0  0  0
  160.9870  205.4100  151.2650 C   0  0  0  0  0  0  0  0  0  0  0  0
  161.1480  210.1100  155.5480 F   0  0  0  0  0  0  0  0  0  0  0  0
  161.6990  207.7060  148.4160 C   0  0  0  0  0  3  0  0  0  0  0  0
  162.1910  211.3170  148.8850 C   0  0  0  0  0  0  0  0  0  0  0  0
  160.8210  205.4740  152.6070 N   0  0  0  0  0  0  0  0  0  0  0  0
  161.2610  206.6020  150.5410 C   0  0  0  0  0  0  0  0  0  0  0  0
  161.2560  209.0130  153.4360 C   0  0  0  0  0  3  0  0  0  0  0  0
  162.4680  212.4670  148.0950 N   0  0  0  0  0  1  0  0  0  0  0  0
  160.9070  206.6270  153.3070 C   0  0  0  0  0  0  0  0  0  0  0  0
  160.7210  206.5890  154.6930 C   0  0  0  0  0  3  0  0  0  0  0  0
  161.4310  206.5620  149.1510 C   0  0  0  0  0  3  0  0  0  0  0  0
  161.8060  208.9320  149.0540 C   0  0  0  0  0  0  0  0  0  0  0  0
  162.0770  210.0660  148.2820 C   0  0  0  0  0  3  0  0  0  0  0  0
  161.1740  202.9110  151.2600 C   0  0  0  0  0  3  0  0  0  0  0  0
  160.8580  204.0590  150.6690 C   0  0  0  0  0  3  0  0  0  0  0  0
  161.0040  201.6090  150.5520 C   0  0  0  0  0  2  0  0  0  0  0  0
  158.8740  201.0050  149.5170 N   0  0  0  0  0  1  0  0  0  0  0  0
  160.1040  201.7600  149.3340 C   0  0  2  0  0  3  0  0  0  0  0  0
  161.7670  200.4660  148.2080 O   0  0  0  0  0  0  0  0  0  0  0  0
  160.8160  201.2870  148.1030 C   0  0  0  0  0  0  0  0  0  0  0  0
  160.4550  201.7490  146.8340 O   0  0  0  0  0  0  0  0  0  0  0  0
  161.2910  202.5950  146.0560 C   0  0  2  0  0  3  0  0  0  0  0  0
  161.6750  203.8110  146.8720 C   0  0  0  0  0  1  0  0  0  0  0  0
  160.6120  203.0070  144.9080 O   0  0  0  0  0  1  0  0  0  0  0  0
  1  6  1  0  0  0  0
  1  9  1  0  0  0  0
  2  5  1  0  0  0  0
  3  7  2  0  0  0  0
  3  2  1  0  0  0  0
  4  7  1  0  0  0  0
  5 16  2  0  0  0  0
  5 14  1  0  0  0  0
  8 12  2  0  0  0  0
 10 19  1  0  0  0  0
 10 18  2  0  0  0  0
 11  4  2  0  0  0  0
 12 16  1  0  0  0  0
 13  2  2  0  0  0  0
 13  8  1  0  0  0  0
 14  1  2  0  0  0  0
 15 11  1  0  0  0  0
 16 17  1  0  0  0  0
 17  6  2  0  0  0  0
 18 13  1  0  0  0  0
 19  3  1  0  0  0  0
 20 11  1  0  0  0  0
 20 19  2  0  0  0  0
 22 21  2  0  0  0  0
 22  8  1  0  0  0  0
 23 21  1  0  0  0  0
 25 24  1  1  0  0  0
 25 23  1  0  0  0  0
 27 26  2  0  0  0  0
 27 25  1  0  0  0  0
 28 27  1  0  0  0  0
 29 28  1  0  0  0  0
 29 30  1  1  0  0  0
 31 29  1  0  0  0  0
M  END
>  <MODEL>
4

>  <REMARK>
 VINA RESULT:      -8.9      3.813      7.579
  Name = 
  6 active torsions:
  status: ('A' for Active; 'I' for Inactive)
    1  A    between atoms: C_1  and  O_24
    2  A    between atoms: C_3  and  C_9
    3  A    between atoms: C_3  and  C_22
    4  A    between atoms: C_15  and  C_23
    5  A    between atoms: C_19  and  C_22
    6  A    between atoms: C_19  and  O_24
                            x       y       z     vdW  Elec       q    Type
                         _______ _______ _______ _____ _____    ______ ____

>  <TORSDO>
F 6

$$$$
=
 OpenBabel11052422233D

 31 34  0  0  1  0  0  0  0  0999 V2000
  161.9130  207.9890  148.2540 C   0  0  0  0  0  0  0  0  0  0  0  0
  161.2480  205.2330  150.7410 C   0  0  0  0  0  0  0  0  0  0  0  0
  161.1680  204.0160  149.9840 C   0  0  0  0  0  0  0  0  0  0  0  0
  161.2410  202.7750  147.8740 C   0  0  0  0  0  3  0  0  0  0  0  0
  161.4920  206.5180  150.1630 C   0  0  0  0  0  0  0  0  0  0  0  0
  161.9670  209.0940  149.1000 C   0  0  0  0  0  3  0  0  0  0  0  0
  161.3250  203.9740  148.5850 C   0  0  0  0  0  3  0  0  0  0  0  0
  161.1480  206.3410  152.9470 C   0  0  0  0  0  0  0  0  0  0  0  0
  162.0880  208.1460  146.9210 F   0  0  0  0  0  0  0  0  0  0  0  0
  160.7540  202.7510  152.0240 C   0  0  0  0  0  3  0  0  0  0  0  0
  160.9960  201.5820  148.5490 C   0  0  0  0  0  0  0  0  0  0  0  0
  161.3790  207.5280  152.3400 N   0  0  0  0  0  0  0  0  0  0  0  0
  161.0760  205.1600  152.1600 C   0  0  0  0  0  0  0  0  0  0  0  0
  161.6790  206.7170  148.7830 C   0  0  0  0  0  3  0  0  0  0  0  0
  160.9100  200.3600  147.8270 N   0  0  0  0  0  1  0  0  0  0  0  0
  161.5510  207.6540  151.0050 C   0  0  0  0  0  0  0  0  0  0  0  0
  161.7850  208.9260  150.4720 C   0  0  0  0  0  3  0  0  0  0  0  0
  160.8320  203.9200  152.7640 C   0  0  0  0  0  3  0  0  0  0  0  0
  160.9200  202.7860  150.6490 C   0  0  0  0  0  0  0  0  0  0  0  0
  160.8360  201.5880  149.9340 C   0  0  0  0  0  3  0  0  0  0  0  0
  160.1780  207.2150  155.0860 C   0  0  0  0  0  3  0  0  0  0  0  0
  160.9860  206.3970  154.4200 C   0  0  0  0  0  3  0  0  0  0  0  0
  160.1060  207.1810  156.5750 C   0  0  0  0  0  2  0  0  0  0  0  0
  159.1470  209.4240  156.4250 N   0  0  0  0  0  1  0  0  0  0  0  0
  160.0850  208.5880  157.1560 C   0  0  2  0  0  3  0  0  0  0  0  0
  162.4680  208.4550  157.2610 O   0  0  0  0  0  0  0  0  0  0  0  0
  161.4570  209.1900  157.1020 C   0  0  0  0  0  0  0  0  0  0  0  0
  161.6390  210.5600  156.8890 O   0  0  0  0  0  0  0  0  0  0  0  0
  162.3270  211.0780  155.7580 C   0  0  2  0  0  3  0  0  0  0  0  0
  161.8860  210.3340  154.5160 C   0  0  0  0  0  1  0  0  0  0  0  0
  163.7030  210.9180  155.9270 O   0  0  0  0  0  1  0  0  0  0  0  0
  1 14  2  0  0  0  0
  1  6  1  0  0  0  0
  2 13  1  0  0  0  0
  3 19  1  0  0  0  0
  3  2  1  0  0  0  0
  4 11  2  0  0  0  0
  4  7  1  0  0  0  0
  5  2  2  0  0  0  0
  5 16  1  0  0  0  0
  6 17  2  0  0  0  0
  7  3  2  0  0  0  0
  8 22  1  0  0  0  0
  9  1  1  0  0  0  0
 10 18  2  0  0  0  0
 11 20  1  0  0  0  0
 12  8  1  0  0  0  0
 13 18  1  0  0  0  0
 13  8  2  0  0  0  0
 14  5  1  0  0  0  0
 15 11  1  0  0  0  0
 16 12  2  0  0  0  0
 17 16  1  0  0  0  0
 19 10  1  0  0  0  0
 20 19  2  0  0  0  0
 21 23  1  0  0  0  0
 22 21  2  0  0  0  0
 23 25  1  0  0  0  0
 25 24  1  6  0  0  0
 27 25  1  0  0  0  0
 27 26  2  0  0  0  0
 28 27  1  0  0  0  0
 29 30  1  6  0  0  0
 29 31  1  0  0  0  0
 29 28  1  0  0  0  0
M  END
>  <MODEL>
5

>  <REMARK>
 VINA RESULT:      -8.7      4.913      7.254
  Name = 
  6 active torsions:
  status: ('A' for Active; 'I' for Inactive)
    1  A    between atoms: C_1  and  O_24
    2  A    between atoms: C_3  and  C_9
    3  A    between atoms: C_3  and  C_22
    4  A    between atoms: C_15  and  C_23
    5  A    between atoms: C_19  and  C_22
    6  A    between atoms: C_19  and  O_24
                            x       y       z     vdW  Elec       q    Type
                         _______ _______ _______ _____ _____    ______ ____

>  <TORSDO>
F 6

$$$$
=
 OpenBabel11052422233D

 31 34  0  0  1  0  0  0  0  0999 V2000
  161.2270  211.9560  150.3550 C   0  0  0  0  0  0  0  0  0  0  0  0
  161.5590  208.2520  150.9860 C   0  0  0  0  0  0  0  0  0  0  0  0
  161.1880  208.0410  152.3570 C   0  0  0  0  0  0  0  0  0  0  0  0
  160.4360  208.8530  154.5420 C   0  0  0  0  0  3  0  0  0  0  0  0
  161.5660  209.5320  150.3490 C   0  0  0  0  0  0  0  0  0  0  0  0
  161.6090  212.0260  149.0180 C   0  0  0  0  0  3  0  0  0  0  0  0
  160.7910  209.0870  153.2110 C   0  0  0  0  0  3  0  0  0  0  0  0
  162.3180  207.2810  148.8450 C   0  0  0  0  0  0  0  0  0  0  0  0
  160.8760  213.0810  151.0210 F   0  0  0  0  0  0  0  0  0  0  0  0
  161.5960  205.6510  152.1190 C   0  0  0  0  0  3  0  0  0  0  0  0
  160.4710  207.5570  155.0520 C   0  0  0  0  0  0  0  0  0  0  0  0
  162.3060  208.5200  148.3010 N   0  0  0  0  0  0  0  0  0  0  0  0
  161.9440  207.1170  150.2060 C   0  0  0  0  0  0  0  0  0  0  0  0
  161.2060  210.7220  151.0100 C   0  0  0  0  0  3  0  0  0  0  0  0
  160.1100  207.3150  156.4060 N   0  0  0  0  0  1  0  0  0  0  0  0
  161.9500  209.6260  148.9910 C   0  0  0  0  0  0  0  0  0  0  0  0
  161.9700  210.8640  148.3380 C   0  0  0  0  0  3  0  0  0  0  0  0
  161.9540  205.8450  150.7940 C   0  0  0  0  0  3  0  0  0  0  0  0
  161.2150  206.7300  152.9010 C   0  0  0  0  0  0  0  0  0  0  0  0
  160.8590  206.4980  154.2330 C   0  0  0  0  0  3  0  0  0  0  0  0
  162.2550  205.9560  146.7190 C   0  0  0  0  0  3  0  0  0  0  0  0
  162.7370  206.1870  147.9360 C   0  0  0  0  0  3  0  0  0  0  0  0
  162.7540  204.8160  145.8980 C   0  0  0  0  0  2  0  0  0  0  0  0
  160.4940  205.0540  144.9980 N   0  0  0  0  0  1  0  0  0  0  0  0
  161.6150  204.1400  145.1470 C   0  0  2  0  0  3  0  0  0  0  0  0
  160.4090  202.0840  145.3050 O   0  0  0  0  0  0  0  0  0  0  0  0
  161.1760  202.9060  145.8750 C   0  0  0  0  0  0  0  0  0  0  0  0
  161.5910  202.6510  147.1860 O   0  0  0  0  0  0  0  0  0  0  0  0
  160.8150  201.8960  148.1060 C   0  0  2  0  0  3  0  0  0  0  0  0
  160.7890  202.6060  149.4430 C   0  0  0  0  0  1  0  0  0  0  0  0
  161.3740  200.6280  148.2690 O   0  0  0  0  0  1  0  0  0  0  0  0
  1 14  1  0  0  0  0
  1  9  1  0  0  0  0
  2  3  1  0  0  0  0
  3 19  2  0  0  0  0
  3  7  1  0  0  0  0
  4 11  1  0  0  0  0
  5  2  1  0  0  0  0
  5 14  2  0  0  0  0
  6  1  2  0  0  0  0
  7  4  2  0  0  0  0
  8 13  1  0  0  0  0
 10 19  1  0  0  0  0
 11 15  1  0  0  0  0
 12  8  2  0  0  0  0
 12 16  1  0  0  0  0
 13 18  1  0  0  0  0
 13  2  2  0  0  0  0
 16  5  1  0  0  0  0
 17 16  2  0  0  0  0
 17  6  1  0  0  0  0
 18 10  2  0  0  0  0
 19 20  1  0  0  0  0
 20 11  2  0  0  0  0
 21 22  2  0  0  0  0
 22  8  1  0  0  0  0
 23 21  1  0  0  0  0
 25 24  1  1  0  0  0
 25 27  1  0  0  0  0
 25 23  1  0  0  0  0
 26 27  2  0  0  0  0
 27 28  1  0  0  0  0
 28 29  1  0  0  0  0
 29 31  1  0  0  0  0
 29 30  1  1  0  0  0
M  END
>  <MODEL>
6

>  <REMARK>
 VINA RESULT:      -8.5      4.318      7.265
  Name = 
  6 active torsions:
  status: ('A' for Active; 'I' for Inactive)
    1  A    between atoms: C_1  and  O_24
    2  A    between atoms: C_3  and  C_9
    3  A    between atoms: C_3  and  C_22
    4  A    between atoms: C_15  and  C_23
    5  A    between atoms: C_19  and  C_22
    6  A    between atoms: C_19  and  O_24
                            x       y       z     vdW  Elec       q    Type
                         _______ _______ _______ _____ _____    ______ ____

>  <TORSDO>
F 6

$$$$
=
 OpenBabel11052422233D

 31 34  0  0  1  0  0  0  0  0999 V2000
  161.9300  210.6610  149.8460 C   0  0  0  0  0  0  0  0  0  0  0  0
  161.3550  207.5100  151.8370 C   0  0  0  0  0  0  0  0  0  0  0  0
  161.1580  207.9220  153.1980 C   0  0  0  0  0  0  0  0  0  0  0  0
  160.9980  209.6440  154.9330 C   0  0  0  0  0  3  0  0  0  0  0  0
  161.6050  208.4140  150.7580 C   0  0  0  0  0  0  0  0  0  0  0  0
  162.1050  210.1330  148.5700 C   0  0  0  0  0  3  0  0  0  0  0  0
  161.1920  209.2710  153.6010 C   0  0  0  0  0  3  0  0  0  0  0  0
  161.4870  205.6610  150.2040 C   0  0  0  0  0  0  0  0  0  0  0  0
  161.9990  211.9990  150.0420 F   0  0  0  0  0  0  0  0  0  0  0  0
  160.8720  205.6010  153.8800 C   0  0  0  0  0  3  0  0  0  0  0  0
  160.7640  208.6690  155.9000 C   0  0  0  0  0  0  0  0  0  0  0  0
  161.7220  206.5670  149.2270 N   0  0  0  0  0  0  0  0  0  0  0  0
  161.2980  206.1120  151.5380 C   0  0  0  0  0  0  0  0  0  0  0  0
  161.6820  209.8090  150.9250 C   0  0  0  0  0  3  0  0  0  0  0  0
  160.5660  209.0450  157.2570 N   0  0  0  0  0  1  0  0  0  0  0  0
  161.7850  207.8980  149.4530 C   0  0  0  0  0  0  0  0  0  0  0  0
  162.0330  208.7540  148.3740 C   0  0  0  0  0  3  0  0  0  0  0  0
  161.0590  205.1940  152.5690 C   0  0  0  0  0  3  0  0  0  0  0  0
  160.9180  206.9480  154.2030 C   0  0  0  0  0  0  0  0  0  0  0  0
  160.7240  207.3240  155.5350 C   0  0  0  0  0  3  0  0  0  0  0  0
  160.7550  203.7590  148.7470 C   0  0  0  0  0  3  0  0  0  0  0  0
  161.4520  204.2450  149.7680 C   0  0  0  0  0  3  0  0  0  0  0  0
  160.7960  202.3070  148.4080 C   0  0  0  0  0  2  0  0  0  0  0  0
  161.1980  200.7660  146.5540 N   0  0  0  0  0  1  0  0  0  0  0  0
  160.7110  202.0920  146.9030 C   0  0  2  0  0  3  0  0  0  0  0  0
  162.7190  203.3210  146.4950 O   0  0  0  0  0  0  0  0  0  0  0  0
  161.5110  203.1360  146.1850 C   0  0  0  0  0  0  0  0  0  0  0  0
  160.9400  203.9220  145.1800 O   0  0  0  0  0  0  0  0  0  0  0  0
  161.3400  205.2630  144.9310 C   0  0  2  0  0  3  0  0  0  0  0  0
  160.4570  206.2070  145.7190 C   0  0  0  0  0  1  0  0  0  0  0  0
  161.2190  205.5480  143.5700 O   0  0  0  0  0  1  0  0  0  0  0  0
  1  9  1  0  0  0  0
  1 14  1  0  0  0  0
  2  3  1  0  0  0  0
  3  7  2  0  0  0  0
  3 19  1  0  0  0  0
  4 11  2  0  0  0  0
  5 14  2  0  0  0  0
  5  2  1  0  0  0  0
  6  1  2  0  0  0  0
  7  4  1  0  0  0  0
  8 13  1  0  0  0  0
 10 19  1  0  0  0  0
 11 15  1  0  0  0  0
 12 16  1  0  0  0  0
 12  8  2  0  0  0  0
 13  2  2  0  0  0  0
 13 18  1  0  0  0  0
 16  5  1  0  0  0  0
 17  6  1  0  0  0  0
 17 16  2  0  0  0  0
 18 10  2  0  0  0  0
 19 20  2  0  0  0  0
 20 11  1  0  0  0  0
 21 22  2  0  0  0  0
 22  8  1  0  0  0  0
 23 21  1  0  0  0  0
 25 24  1  1  0  0  0
 25 23  1  0  0  0  0
 27 26  2  0  0  0  0
 27 25  1  0  0  0  0
 28 27  1  0  0  0  0
 29 28  1  0  0  0  0
 29 30  1  1  0  0  0
 31 29  1  0  0  0  0
M  END
>  <MODEL>
7

>  <REMARK>
 VINA RESULT:      -8.4      3.749      7.259
  Name = 
  6 active torsions:
  status: ('A' for Active; 'I' for Inactive)
    1  A    between atoms: C_1  and  O_24
    2  A    between atoms: C_3  and  C_9
    3  A    between atoms: C_3  and  C_22
    4  A    between atoms: C_15  and  C_23
    5  A    between atoms: C_19  and  C_22
    6  A    between atoms: C_19  and  O_24
                            x       y       z     vdW  Elec       q    Type
                         _______ _______ _______ _____ _____    ______ ____

>  <TORSDO>
F 6

$$$$
=
 OpenBabel11052422233D

 31 34  0  0  1  0  0  0  0  0999 V2000
  161.2080  206.8940  146.8270 C   0  0  0  0  0  0  0  0  0  0  0  0
  161.2080  204.3090  149.5730 C   0  0  0  0  0  0  0  0  0  0  0  0
  161.2080  203.0290  148.9230 C   0  0  0  0  0  0  0  0  0  0  0  0
  161.2100  201.6240  146.9170 C   0  0  0  0  0  3  0  0  0  0  0  0
  161.2080  205.5580  148.8770 C   0  0  0  0  0  0  0  0  0  0  0  0
  161.2070  208.0680  147.5760 C   0  0  0  0  0  3  0  0  0  0  0  0
  161.2100  202.8820  147.5230 C   0  0  0  0  0  3  0  0  0  0  0  0
  161.2080  205.5880  151.6870 C   0  0  0  0  0  0  0  0  0  0  0  0
  161.2080  206.9520  145.4740 F   0  0  0  0  0  0  0  0  0  0  0  0
  161.2030  201.9090  151.0860 C   0  0  0  0  0  3  0  0  0  0  0  0
  161.2060  200.4740  147.7040 C   0  0  0  0  0  0  0  0  0  0  0  0
  161.2060  206.7360  150.9700 N   0  0  0  0  0  0  0  0  0  0  0  0
  161.2080  204.3420  151.0030 C   0  0  0  0  0  0  0  0  0  0  0  0
  161.2090  205.6550  147.4720 C   0  0  0  0  0  3  0  0  0  0  0  0
  161.2050  199.1920  147.0890 N   0  0  0  0  0  1  0  0  0  0  0  0
  161.2070  206.7630  149.6190 C   0  0  0  0  0  0  0  0  0  0  0  0
  161.2060  208.0020  148.9690 C   0  0  0  0  0  3  0  0  0  0  0  0
  161.2040  203.1400  151.7230 C   0  0  0  0  0  3  0  0  0  0  0  0
  161.2050  201.8420  149.7020 C   0  0  0  0  0  0  0  0  0  0  0  0
  161.2050  200.5840  149.0930 C   0  0  0  0  0  3  0  0  0  0  0  0
  160.9900  206.8880  153.8180 C   0  0  0  0  0  3  0  0  0  0  0  0
  161.2080  205.7540  153.1600 C   0  0  0  0  0  3  0  0  0  0  0  0
  161.0210  206.9310  155.3080 C   0  0  0  0  0  2  0  0  0  0  0  0
  161.6050  208.2830  157.2580 N   0  0  0  0  0  1  0  0  0  0  0  0
  161.4900  208.2900  155.8090 C   0  0  2  0  0  3  0  0  0  0  0  0
  159.3330  209.3160  155.7620 O   0  0  0  0  0  0  0  0  0  0  0  0
  160.5320  209.3590  155.3770 C   0  0  0  0  0  0  0  0  0  0  0  0
  160.9400  210.4040  154.5430 O   0  0  0  0  0  0  0  0  0  0  0  0
  160.2770  210.7220  153.3270 C   0  0  2  0  0  3  0  0  0  0  0  0
  161.0410  210.1210  152.1660 C   0  0  0  0  0  1  0  0  0  0  0  0
  160.2160  212.1070  153.1690 O   0  0  0  0  0  1  0  0  0  0  0  0
  1 14  2  0  0  0  0
  1  6  1  0  0  0  0
  2 13  1  0  0  0  0
  3  2  2  0  0  0  0
  3 19  1  0  0  0  0
  4  7  2  0  0  0  0
  4 11  1  0  0  0  0
  5  2  1  0  0  0  0
  5 16  2  0  0  0  0
  6 17  2  0  0  0  0
  7  3  1  0  0  0  0
  8 22  1  0  0  0  0
  9  1  1  0  0  0  0
 10 18  1  0  0  0  0
 11 20  2  0  0  0  0
 12  8  2  0  0  0  0
 13  8  1  0  0  0  0
 13 18  2  0  0  0  0
 14  5  1  0  0  0  0
 15 11  1  0  0  0  0
 16 12  1  0  0  0  0
 17 16  1  0  0  0  0
 19 10  2  0  0  0  0
 20 19  1  0  0  0  0
 21 23  1  0  0  0  0
 22 21  2  0  0  0  0
 23 25  1  0  0  0  0
 25 24  1  1  0  0  0
 27 26  2  0  0  0  0
 27 25  1  0  0  0  0
 28 27  1  0  0  0  0
 29 30  1  6  0  0  0
 29 28  1  0  0  0  0
 31 29  1  0  0  0  0
M  END
>  <MODEL>
8

>  <REMARK>
 VINA RESULT:      -7.9      4.401      6.806
  Name = 
  6 active torsions:
  status: ('A' for Active; 'I' for Inactive)
    1  A    between atoms: C_1  and  O_24
    2  A    between atoms: C_3  and  C_9
    3  A    between atoms: C_3  and  C_22
    4  A    between atoms: C_15  and  C_23
    5  A    between atoms: C_19  and  C_22
    6  A    between atoms: C_19  and  O_24
                            x       y       z     vdW  Elec       q    Type
                         _______ _______ _______ _____ _____    ______ ____

>  <TORSDO>
F 6

$$$$
=
 OpenBabel11052422233D

 31 34  0  0  1  0  0  0  0  0999 V2000
  160.9760  206.0680  145.4470 C   0  0  0  0  0  0  0  0  0  0  0  0
  161.0980  203.5160  148.2210 C   0  0  0  0  0  0  0  0  0  0  0  0
  161.1350  202.2290  147.5850 C   0  0  0  0  0  0  0  0  0  0  0  0
  161.1610  200.8020  145.5950 C   0  0  0  0  0  3  0  0  0  0  0  0
  161.0470  204.7550  147.5110 C   0  0  0  0  0  0  0  0  0  0  0  0
  160.9440  207.2490  146.1840 C   0  0  0  0  0  3  0  0  0  0  0  0
  161.1250  202.0670  146.1870 C   0  0  0  0  0  3  0  0  0  0  0  0
  161.0800  204.8170  150.3210 C   0  0  0  0  0  0  0  0  0  0  0  0
  160.9580  206.1110  144.0940 F   0  0  0  0  0  0  0  0  0  0  0  0
  161.1940  201.1340  149.7610 C   0  0  0  0  0  3  0  0  0  0  0  0
  161.2060  199.6620  146.3940 C   0  0  0  0  0  0  0  0  0  0  0  0
  161.0300  205.9560  149.5910 N   0  0  0  0  0  0  0  0  0  0  0  0
  161.1140  203.5640  149.6510 C   0  0  0  0  0  0  0  0  0  0  0  0
  161.0280  204.8370  146.1060 C   0  0  0  0  0  3  0  0  0  0  0  0
  161.2420  198.3730  145.7930 N   0  0  0  0  0  1  0  0  0  0  0  0
  161.0140  205.9680  148.2400 C   0  0  0  0  0  0  0  0  0  0  0  0
  160.9620  207.1990  147.5770 C   0  0  0  0  0  3  0  0  0  0  0  0
  161.1610  202.3710  150.3840 C   0  0  0  0  0  3  0  0  0  0  0  0
  161.1830  201.0510  148.3770 C   0  0  0  0  0  0  0  0  0  0  0  0
  161.2180  199.7870  147.7820 C   0  0  0  0  0  3  0  0  0  0  0  0
  161.6280  206.0240  152.4480 C   0  0  0  0  0  3  0  0  0  0  0  0
  161.0910  205.0000  151.7920 C   0  0  0  0  0  3  0  0  0  0  0  0
  161.5810  206.0940  153.9360 C   0  0  0  0  0  2  0  0  0  0  0  0
  160.8310  208.4120  153.7440 N   0  0  0  0  0  1  0  0  0  0  0  0
  160.5810  207.1410  154.4060 C   0  0  2  0  0  3  0  0  0  0  0  0
  159.7070  206.9520  156.6210 O   0  0  0  0  0  0  0  0  0  0  0  0
  160.6700  207.3120  155.8920 C   0  0  0  0  0  0  0  0  0  0  0  0
  161.8010  207.8760  156.4900 O   0  0  0  0  0  0  0  0  0  0  0  0
  161.7820  209.1460  157.1290 C   0  0  2  0  0  3  0  0  0  0  0  0
  160.3990  209.7490  157.0070 C   0  0  0  0  0  1  0  0  0  0  0  0
  162.7100  209.9950  156.5240 O   0  0  0  0  0  1  0  0  0  0  0  0
  1 14  2  0  0  0  0
  1  6  1  0  0  0  0
  2 13  1  0  0  0  0
  3  2  2  0  0  0  0
  3 19  1  0  0  0  0
  4  7  2  0  0  0  0
  4 11  1  0  0  0  0
  5  2  1  0  0  0  0
  5 16  2  0  0  0  0
  6 17  2  0  0  0  0
  7  3  1  0  0  0  0
  8 22  1  0  0  0  0
  9  1  1  0  0  0  0
 10 18  1  0  0  0  0
 11 20  2  0  0  0  0
 12  8  2  0  0  0  0
 13  8  1  0  0  0  0
 13 18  2  0  0  0  0
 14  5  1  0  0  0  0
 15 11  1  0  0  0  0
 16 12  1  0  0  0  0
 17 16  1  0  0  0  0
 19 10  2  0  0  0  0
 20 19  1  0  0  0  0
 21 23  1  0  0  0  0
 22 21  2  0  0  0  0
 23 25  1  0  0  0  0
 25 24  1  6  0  0  0
 25 27  1  0  0  0  0
 27 28  1  0  0  0  0
 27 26  2  0  0  0  0
 28 29  1  0  0  0  0
 29 30  1  6  0  0  0
 31 29  1  0  0  0  0
M  END
>  <MODEL>
9

>  <REMARK>
 VINA RESULT:      -7.3      5.553      8.055
  Name = 
  6 active torsions:
  status: ('A' for Active; 'I' for Inactive)
    1  A    between atoms: C_1  and  O_24
    2  A    between atoms: C_3  and  C_9
    3  A    between atoms: C_3  and  C_22
    4  A    between atoms: C_15  and  C_23
    5  A    between atoms: C_19  and  C_22
    6  A    between atoms: C_19  and  O_24
                            x       y       z     vdW  Elec       q    Type
                         _______ _______ _______ _____ _____    ______ ____

>  <TORSDO>
F 6

$$$$
