=
 OpenBabel11052422493D

 28 31  0  0  1  0  0  0  0  0999 V2000
  159.9810  210.3220  154.1820 C   0  0  0  0  0  0  0  0  0  0  0  0
  161.2990  207.0370  157.0920 Cl  0  0  0  0  0  0  0  0  0  0  0  0
  160.9590  207.6310  151.7650 C   0  0  0  0  0  0  0  0  0  0  0  0
  160.8400  208.0540  154.5540 C   0  0  0  0  0  0  0  0  0  0  0  0
  160.5090  208.8530  152.2820 C   0  0  0  0  0  3  0  0  0  0  0  0
  160.3740  209.5030  156.4390 C   0  0  0  0  0  3  0  0  0  0  0  0
  161.2940  206.8340  154.0380 C   0  0  0  0  0  3  0  0  0  0  0  0
  160.8030  208.2730  155.9420 C   0  0  0  0  0  0  0  0  0  0  0  0
  161.3530  206.6240  152.6600 C   0  0  0  0  0  3  0  0  0  0  0  0
  159.9710  210.5150  155.5710 C   0  0  0  0  0  3  0  0  0  0  0  0
  160.4300  209.0810  153.6650 C   0  0  0  0  0  0  0  0  0  0  0  0
  160.3200  206.4370  149.7510 C   0  0  0  0  0  3  0  0  0  0  0  0
  162.6950  207.8520  148.4480 C   0  0  0  0  0  3  0  0  0  0  0  0
  161.6610  205.6710  147.8490 C   0  0  0  0  0  0  0  0  0  0  0  0
  161.0510  207.4220  150.2950 C   0  0  0  0  0  0  0  0  0  0  0  0
  162.0600  209.7400  149.8020 C   0  0  0  0  0  1  0  0  0  0  0  0
  162.7150  206.4850  147.8920 C   0  0  0  0  0  3  0  0  0  0  0  0
  161.9380  208.2930  149.4640 C   0  0  0  0  0  0  0  0  0  0  0  0
  161.8150  204.3870  147.3410 O   0  0  0  0  0  1  0  0  0  0  0  0
  160.3080  206.1170  148.2950 C   0  0  0  0  0  2  0  0  0  0  0  0
  159.5180  211.4350  153.3140 C   0  0  0  0  0  0  0  0  0  0  0  0
  160.3970  212.0010  152.4760 C   0  0  0  0  0  3  0  0  0  0  0  0
  157.7690  213.0500  152.3750 C   0  0  1  0  0  3  0  0  0  0  0  0
  160.0020  213.1190  151.5580 C   0  0  0  0  0  2  0  0  0  0  0  0
  157.4970  212.0560  154.6780 C   0  0  0  0  0  1  0  0  0  0  0  0
  158.0550  211.8370  153.2790 C   0  0  2  0  0  3  0  0  0  0  0  0
  157.9690  214.2510  153.0430 F   0  0  0  0  0  0  0  0  0  0  0  0
  158.5970  212.9960  151.1680 N   0  0  0  0  0  2  0  0  0  0  0  0
  1 10  1  0  0  0  0
  3  5  2  0  0  0  0
  3  9  1  0  0  0  0
  4  8  2  0  0  0  0
  5 11  1  0  0  0  0
  7  4  1  0  0  0  0
  8  6  1  0  0  0  0
  8  2  1  0  0  0  0
  9  7  2  0  0  0  0
 10  6  2  0  0  0  0
 11  1  2  0  0  0  0
 11  4  1  0  0  0  0
 12 15  2  0  0  0  0
 13 18  2  0  0  0  0
 14 17  2  0  0  0  0
 14 20  1  0  0  0  0
 15  3  1  0  0  0  0
 17 13  1  0  0  0  0
 18 16  1  0  0  0  0
 18 15  1  0  0  0  0
 19 14  1  0  0  0  0
 20 12  1  0  0  0  0
 21  1  1  0  0  0  0
 22 21  2  0  0  0  0
 23 27  1  1  0  0  0
 23 26  1  0  0  0  0
 24 22  1  0  0  0  0
 26 21  1  0  0  0  0
 26 25  1  1  0  0  0
 28 24  1  0  0  0  0
 28 23  1  0  0  0  0
M  END
>  <MODEL>
1

>  <REMARK>
 VINA RESULT:      -8.1      0.000      0.000
  Name = 
  2 active torsions:
  status: ('A' for Active; 'I' for Inactive)
    1  A    between atoms: C_1  and  C_2
    2  A    between atoms: C_10  and  C_13
                            x       y       z     vdW  Elec       q    Type
                         _______ _______ _______ _____ _____    ______ ____

>  <TORSDO>
F 2

$$$$
=
 OpenBabel11052422493D

 28 31  0  0  1  0  0  0  0  0999 V2000
  161.0520  203.5390  148.4040 C   0  0  0  0  0  0  0  0  0  0  0  0
  160.4960  199.9850  151.2420 Cl  0  0  0  0  0  0  0  0  0  0  0  0
  161.2930  205.2740  151.7160 C   0  0  0  0  0  0  0  0  0  0  0  0
  160.9210  202.6690  150.6940 C   0  0  0  0  0  0  0  0  0  0  0  0
  161.2620  205.0490  150.3340 C   0  0  0  0  0  3  0  0  0  0  0  0
  160.6610  201.1720  148.8080 C   0  0  0  0  0  3  0  0  0  0  0  0
  160.9480  202.8940  152.0760 C   0  0  0  0  0  3  0  0  0  0  0  0
  160.7120  201.3750  150.1860 C   0  0  0  0  0  0  0  0  0  0  0  0
  161.1310  204.1820  152.5820 C   0  0  0  0  0  3  0  0  0  0  0  0
  160.8270  202.2400  147.9280 C   0  0  0  0  0  3  0  0  0  0  0  0
  161.0910  203.7610  149.8040 C   0  0  0  0  0  0  0  0  0  0  0  0
  161.2740  206.8450  153.5670 C   0  0  0  0  0  3  0  0  0  0  0  0
  161.2930  209.0120  151.4120 C   0  0  0  0  0  3  0  0  0  0  0  0
  160.3870  209.1240  153.7250 C   0  0  0  0  0  0  0  0  0  0  0  0
  161.4580  206.6530  152.2520 C   0  0  0  0  0  0  0  0  0  0  0  0
  162.7650  207.5290  150.2120 C   0  0  0  0  0  1  0  0  0  0  0  0
  160.3790  209.5190  152.4530 C   0  0  0  0  0  3  0  0  0  0  0  0
  161.8170  207.7790  151.3350 C   0  0  0  0  0  0  0  0  0  0  0  0
  159.4450  209.6420  154.6030 O   0  0  0  0  0  1  0  0  0  0  0  0
  161.4110  208.1680  154.2410 C   0  0  0  0  0  2  0  0  0  0  0  0
  161.2420  204.6280  147.4120 C   0  0  0  0  0  0  0  0  0  0  0  0
  160.9710  205.8860  147.7830 C   0  0  0  0  0  3  0  0  0  0  0  0
  161.9120  205.5760  145.1320 C   0  0  1  0  0  3  0  0  0  0  0  0
  161.1510  207.0410  146.8440 C   0  0  0  0  0  2  0  0  0  0  0  0
  161.1630  203.1770  145.3580 C   0  0  0  0  0  1  0  0  0  0  0  0
  161.8520  204.3440  146.0510 C   0  0  2  0  0  3  0  0  0  0  0  0
  160.7230  205.7610  144.4370 F   0  0  0  0  0  0  0  0  0  0  0  0
  162.2400  206.7770  145.9030 N   0  0  0  0  0  2  0  0  0  0  0  0
  1 11  1  0  0  0  0
  3 15  1  0  0  0  0
  3  9  1  0  0  0  0
  4  7  1  0  0  0  0
  5  3  2  0  0  0  0
  6  8  2  0  0  0  0
  7  9  2  0  0  0  0
  8  4  1  0  0  0  0
  8  2  1  0  0  0  0
 10  1  2  0  0  0  0
 10  6  1  0  0  0  0
 11  5  1  0  0  0  0
 11  4  2  0  0  0  0
 12 20  1  0  0  0  0
 13 17  1  0  0  0  0
 14 20  1  0  0  0  0
 14 19  1  0  0  0  0
 15 12  2  0  0  0  0
 16 18  1  0  0  0  0
 17 14  2  0  0  0  0
 18 13  2  0  0  0  0
 18 15  1  0  0  0  0
 21 22  2  0  0  0  0
 21  1  1  0  0  0  0
 23 27  1  1  0  0  0
 23 28  1  0  0  0  0
 23 26  1  0  0  0  0
 24 22  1  0  0  0  0
 26 25  1  6  0  0  0
 26 21  1  0  0  0  0
 28 24  1  0  0  0  0
M  END
>  <MODEL>
2

>  <REMARK>
 VINA RESULT:      -7.7      4.448      7.919
  Name = 
  2 active torsions:
  status: ('A' for Active; 'I' for Inactive)
    1  A    between atoms: C_1  and  C_2
    2  A    between atoms: C_10  and  C_13
                            x       y       z     vdW  Elec       q    Type
                         _______ _______ _______ _____ _____    ______ ____

>  <TORSDO>
F 2

$$$$
=
 OpenBabel11052422493D

 28 31  0  0  1  0  0  0  0  0999 V2000
  160.7490  210.8100  152.4350 C   0  0  0  0  0  0  0  0  0  0  0  0
  160.2100  208.6880  156.4600 Cl  0  0  0  0  0  0  0  0  0  0  0  0
  161.2770  207.2480  151.3970 C   0  0  0  0  0  0  0  0  0  0  0  0
  160.6920  208.7270  153.7300 C   0  0  0  0  0  0  0  0  0  0  0  0
  161.1600  208.6440  151.3460 C   0  0  0  0  0  3  0  0  0  0  0  0
  160.3340  210.8550  154.8320 C   0  0  0  0  0  3  0  0  0  0  0  0
  160.8130  207.3330  153.7830 C   0  0  0  0  0  3  0  0  0  0  0  0
  160.4250  209.4650  154.8960 C   0  0  0  0  0  0  0  0  0  0  0  0
  161.1020  206.6020  152.6300 C   0  0  0  0  0  3  0  0  0  0  0  0
  160.4960  211.5190  153.6180 C   0  0  0  0  0  3  0  0  0  0  0  0
  160.8580  209.3980  152.4910 C   0  0  0  0  0  0  0  0  0  0  0  0
  162.0710  207.1500  149.1060 C   0  0  0  0  0  3  0  0  0  0  0  0
  160.9680  204.3000  149.1010 C   0  0  0  0  0  3  0  0  0  0  0  0
  161.2680  205.8580  147.1860 C   0  0  0  0  0  0  0  0  0  0  0  0
  161.6160  206.4750  150.1720 C   0  0  0  0  0  0  0  0  0  0  0  0
  161.7550  204.2010  151.3750 C   0  0  0  0  0  1  0  0  0  0  0  0
  160.6370  204.8380  147.7670 C   0  0  0  0  0  3  0  0  0  0  0  0
  161.4450  204.9890  150.1480 C   0  0  0  0  0  0  0  0  0  0  0  0
  160.8340  206.3040  145.9440 O   0  0  0  0  0  1  0  0  0  0  0  0
  162.4540  206.5070  147.8160 C   0  0  0  0  0  2  0  0  0  0  0  0
  160.8900  211.5780  151.1720 C   0  0  0  0  0  0  0  0  0  0  0  0
  161.8560  211.2270  150.3130 C   0  0  0  0  0  3  0  0  0  0  0  0
  160.2230  213.3870  149.4880 C   0  0  1  0  0  3  0  0  0  0  0  0
  162.0520  211.9440  149.0110 C   0  0  0  0  0  2  0  0  0  0  0  0
  159.6610  213.6370  151.9360 C   0  0  0  0  0  1  0  0  0  0  0  0
  159.8830  212.6520  150.7970 C   0  0  2  0  0  3  0  0  0  0  0  0
  161.1020  214.4410  149.7010 F   0  0  0  0  0  0  0  0  0  0  0  0
  160.7780  212.4550  148.5050 N   0  0  0  0  0  2  0  0  0  0  0  0
  1 11  2  0  0  0  0
  1 10  1  0  0  0  0
  3  9  1  0  0  0  0
  4  7  1  0  0  0  0
  4  8  2  0  0  0  0
  5  3  2  0  0  0  0
  5 11  1  0  0  0  0
  6  8  1  0  0  0  0
  8  2  1  0  0  0  0
  9  7  2  0  0  0  0
 10  6  2  0  0  0  0
 11  4  1  0  0  0  0
 12 15  2  0  0  0  0
 13 18  2  0  0  0  0
 14 17  2  0  0  0  0
 14 20  1  0  0  0  0
 15  3  1  0  0  0  0
 17 13  1  0  0  0  0
 18 15  1  0  0  0  0
 18 16  1  0  0  0  0
 19 14  1  0  0  0  0
 20 12  1  0  0  0  0
 21  1  1  0  0  0  0
 22 21  2  0  0  0  0
 23 27  1  1  0  0  0
 23 26  1  0  0  0  0
 24 22  1  0  0  0  0
 26 21  1  0  0  0  0
 26 25  1  1  0  0  0
 28 24  1  0  0  0  0
 28 23  1  0  0  0  0
M  END
>  <MODEL>
3

>  <REMARK>
 VINA RESULT:      -7.3      1.770      2.734
  Name = 
  2 active torsions:
  status: ('A' for Active; 'I' for Inactive)
    1  A    between atoms: C_1  and  C_2
    2  A    between atoms: C_10  and  C_13
                            x       y       z     vdW  Elec       q    Type
                         _______ _______ _______ _____ _____    ______ ____

>  <TORSDO>
F 2

$$$$
=
 OpenBabel11052422493D

 28 31  0  0  1  0  0  0  0  0999 V2000
  159.3100  213.2940  151.9570 C   0  0  0  0  0  0  0  0  0  0  0  0
  158.6490  213.1130  156.4870 Cl  0  0  0  0  0  0  0  0  0  0  0  0
  160.5870  209.8490  152.6890 C   0  0  0  0  0  0  0  0  0  0  0  0
  159.4590  212.0430  154.0610 C   0  0  0  0  0  0  0  0  0  0  0  0
  160.2320  211.0160  151.9980 C   0  0  0  0  0  3  0  0  0  0  0  0
  158.5930  214.3060  154.0500 C   0  0  0  0  0  3  0  0  0  0  0  0
  159.8160  210.8780  154.7520 C   0  0  0  0  0  3  0  0  0  0  0  0
  158.9190  213.1440  154.7480 C   0  0  0  0  0  0  0  0  0  0  0  0
  160.3740  209.7940  154.0740 C   0  0  0  0  0  3  0  0  0  0  0  0
  158.7880  214.3810  152.6720 C   0  0  0  0  0  3  0  0  0  0  0  0
  159.6590  212.1130  152.6580 C   0  0  0  0  0  0  0  0  0  0  0  0
  161.8750  208.9640  150.8320 C   0  0  0  0  0  3  0  0  0  0  0  0
  160.8720  206.2280  151.7530 C   0  0  0  0  0  3  0  0  0  0  0  0
  161.5520  206.9510  149.4730 C   0  0  0  0  0  0  0  0  0  0  0  0
  161.2100  208.7060  151.9680 C   0  0  0  0  0  0  0  0  0  0  0  0
  161.1340  207.1030  153.9830 C   0  0  0  0  0  1  0  0  0  0  0  0
  160.8340  206.1700  150.2790 C   0  0  0  0  0  3  0  0  0  0  0  0
  161.0860  207.3160  152.5080 C   0  0  0  0  0  0  0  0  0  0  0  0
  161.3960  206.8320  148.0980 O   0  0  0  0  0  1  0  0  0  0  0  0
  162.5520  207.9210  150.0090 C   0  0  0  0  0  2  0  0  0  0  0  0
  159.4720  213.4340  150.4870 C   0  0  0  0  0  0  0  0  0  0  0  0
  160.6220  213.9320  150.0140 C   0  0  0  0  0  3  0  0  0  0  0  0
  158.7190  213.1940  148.0520 C   0  0  1  0  0  3  0  0  0  0  0  0
  160.8670  214.0900  148.5420 C   0  0  0  0  0  2  0  0  0  0  0  0
  157.0230  213.3880  149.9110 C   0  0  0  0  0  1  0  0  0  0  0  0
  158.4160  212.9040  149.5330 C   0  0  2  0  0  3  0  0  0  0  0  0
  158.2740  214.4530  147.6710 F   0  0  0  0  0  0  0  0  0  0  0  0
  160.1530  213.0610  147.7870 N   0  0  0  0  0  2  0  0  0  0  0  0
  1 11  2  0  0  0  0
  1 10  1  0  0  0  0
  3  9  1  0  0  0  0
  4  8  2  0  0  0  0
  4  7  1  0  0  0  0
  5 11  1  0  0  0  0
  5  3  2  0  0  0  0
  6  8  1  0  0  0  0
  8  2  1  0  0  0  0
  9  7  2  0  0  0  0
 10  6  2  0  0  0  0
 11  4  1  0  0  0  0
 12 15  2  0  0  0  0
 13 18  2  0  0  0  0
 14 20  1  0  0  0  0
 14 17  2  0  0  0  0
 15 18  1  0  0  0  0
 15  3  1  0  0  0  0
 17 13  1  0  0  0  0
 18 16  1  0  0  0  0
 19 14  1  0  0  0  0
 20 12  1  0  0  0  0
 21  1  1  0  0  0  0
 22 21  2  0  0  0  0
 23 27  1  1  0  0  0
 23 26  1  0  0  0  0
 24 22  1  0  0  0  0
 26 25  1  1  0  0  0
 26 21  1  0  0  0  0
 28 23  1  0  0  0  0
 28 24  1  0  0  0  0
M  END
>  <MODEL>
4

>  <REMARK>
 VINA RESULT:      -7.1      2.395      4.008
  Name = 
  2 active torsions:
  status: ('A' for Active; 'I' for Inactive)
    1  A    between atoms: C_1  and  C_2
    2  A    between atoms: C_10  and  C_13
                            x       y       z     vdW  Elec       q    Type
                         _______ _______ _______ _____ _____    ______ ____

>  <TORSDO>
F 2

$$$$
=
 OpenBabel11052422493D

 28 31  0  0  1  0  0  0  0  0999 V2000
  161.2120  207.6800  152.2610 C   0  0  0  0  0  0  0  0  0  0  0  0
  160.5940  207.1670  156.7720 Cl  0  0  0  0  0  0  0  0  0  0  0  0
  159.6940  210.9980  153.1170 C   0  0  0  0  0  0  0  0  0  0  0  0
  160.4560  208.6040  154.4040 C   0  0  0  0  0  0  0  0  0  0  0  0
  160.2550  209.9420  152.3860 C   0  0  0  0  0  3  0  0  0  0  0  0
  161.3490  206.3540  154.2960 C   0  0  0  0  0  3  0  0  0  0  0  0
  159.8920  209.6570  155.1360 C   0  0  0  0  0  3  0  0  0  0  0  0
  160.8140  207.4030  155.0420 C   0  0  0  0  0  0  0  0  0  0  0  0
  159.5150  210.8400  154.4990 C   0  0  0  0  0  3  0  0  0  0  0  0
  161.5440  206.4900  152.9230 C   0  0  0  0  0  3  0  0  0  0  0  0
  160.6520  208.7480  153.0070 C   0  0  0  0  0  0  0  0  0  0  0  0
  158.4010  213.0510  153.0670 C   0  0  0  0  0  3  0  0  0  0  0  0
  159.0520  213.1050  150.0820 C   0  0  0  0  0  3  0  0  0  0  0  0
  157.0950  214.0790  151.2680 C   0  0  0  0  0  0  0  0  0  0  0  0
  159.2650  212.2460  152.4300 C   0  0  0  0  0  0  0  0  0  0  0  0
  161.2060  212.2490  150.7370 C   0  0  0  0  0  1  0  0  0  0  0  0
  157.6510  213.5590  150.1740 C   0  0  0  0  0  3  0  0  0  0  0  0
  159.7900  212.5770  151.0700 C   0  0  0  0  0  0  0  0  0  0  0  0
  155.7510  214.4290  151.2440 O   0  0  0  0  0  1  0  0  0  0  0  0
  157.8900  214.3340  152.5050 C   0  0  0  0  0  2  0  0  0  0  0  0
  161.4650  207.7660  150.8000 C   0  0  0  0  0  0  0  0  0  0  0  0
  161.6790  208.9720  150.2570 C   0  0  0  0  0  3  0  0  0  0  0  0
  161.8020  206.7890  148.4590 C   0  0  1  0  0  3  0  0  0  0  0  0
  161.9560  209.1390  148.7920 C   0  0  0  0  0  2  0  0  0  0  0  0
  160.4560  205.5430  150.1920 C   0  0  0  0  0  1  0  0  0  0  0  0
  161.6080  206.5100  149.9600 C   0  0  2  0  0  3  0  0  0  0  0  0
  160.5880  206.9560  147.8040 F   0  0  0  0  0  0  0  0  0  0  0  0
  162.6510  207.9660  148.2610 N   0  0  0  0  0  2  0  0  0  0  0  0
  1 10  2  0  0  0  0
  1 11  1  0  0  0  0
  3  9  1  0  0  0  0
  4  8  1  0  0  0  0
  4  7  1  0  0  0  0
  5 11  1  0  0  0  0
  5  3  2  0  0  0  0
  6  8  2  0  0  0  0
  8  2  1  0  0  0  0
  9  7  2  0  0  0  0
 10  6  1  0  0  0  0
 11  4  2  0  0  0  0
 13 17  1  0  0  0  0
 13 18  2  0  0  0  0
 14 20  1  0  0  0  0
 15 12  2  0  0  0  0
 15  3  1  0  0  0  0
 16 18  1  0  0  0  0
 17 14  2  0  0  0  0
 18 15  1  0  0  0  0
 19 14  1  0  0  0  0
 20 12  1  0  0  0  0
 21  1  1  0  0  0  0
 22 21  2  0  0  0  0
 23 27  1  1  0  0  0
 23 26  1  0  0  0  0
 24 22  1  0  0  0  0
 26 25  1  6  0  0  0
 26 21  1  0  0  0  0
 28 23  1  0  0  0  0
 28 24  1  0  0  0  0
M  END
>  <MODEL>
5

>  <REMARK>
 VINA RESULT:      -6.9      3.386      6.271
  Name = 
  2 active torsions:
  status: ('A' for Active; 'I' for Inactive)
    1  A    between atoms: C_1  and  C_2
    2  A    between atoms: C_10  and  C_13
                            x       y       z     vdW  Elec       q    Type
                         _______ _______ _______ _____ _____    ______ ____

>  <TORSDO>
F 2

$$$$
=
 OpenBabel11052422493D

 28 31  0  0  1  0  0  0  0  0999 V2000
  157.4790  213.4850  152.1480 C   0  0  0  0  0  0  0  0  0  0  0  0
  156.4540  213.4040  156.6130 Cl  0  0  0  0  0  0  0  0  0  0  0  0
  159.6310  210.6350  153.2830 C   0  0  0  0  0  0  0  0  0  0  0  0
  157.7790  212.4730  154.3620 C   0  0  0  0  0  0  0  0  0  0  0  0
  159.0200  211.5960  152.4650 C   0  0  0  0  0  3  0  0  0  0  0  0
  156.2940  214.3660  154.0810 C   0  0  0  0  0  3  0  0  0  0  0  0
  158.3920  211.5160  155.1810 C   0  0  0  0  0  3  0  0  0  0  0  0
  156.8740  213.4030  154.9040 C   0  0  0  0  0  0  0  0  0  0  0  0
  159.3070  210.6080  154.6480 C   0  0  0  0  0  3  0  0  0  0  0  0
  156.5930  214.4090  152.7210 C   0  0  0  0  0  3  0  0  0  0  0  0
  158.0880  212.5110  152.9780 C   0  0  0  0  0  0  0  0  0  0  0  0
  161.2990  210.0620  151.6160 C   0  0  0  0  0  3  0  0  0  0  0  0
  161.0550  207.2150  152.7020 C   0  0  0  0  0  3  0  0  0  0  0  0
  161.7170  207.9620  150.4240 C   0  0  0  0  0  0  0  0  0  0  0  0
  160.6300  209.6890  152.7170 C   0  0  0  0  0  0  0  0  0  0  0  0
  160.8270  208.2680  154.8570 C   0  0  0  0  0  1  0  0  0  0  0  0
  161.1830  207.0550  151.2410 C   0  0  0  0  0  3  0  0  0  0  0  0
  160.8660  208.3630  153.3700 C   0  0  0  0  0  0  0  0  0  0  0  0
  161.7400  207.7150  149.0580 O   0  0  0  0  0  1  0  0  0  0  0  0
  162.3310  209.2190  150.9450 C   0  0  0  0  0  2  0  0  0  0  0  0
  157.7380  213.5730  150.6880 C   0  0  0  0  0  0  0  0  0  0  0  0
  156.8970  212.9520  149.8500 C   0  0  0  0  0  3  0  0  0  0  0  0
  159.0150  214.3700  148.6180 C   0  0  1  0  0  3  0  0  0  0  0  0
  157.0830  213.0060  148.3620 C   0  0  0  0  0  2  0  0  0  0  0  0
  160.1720  214.1870  150.8530 C   0  0  0  0  0  1  0  0  0  0  0  0
  158.8510  214.4520  150.1460 C   0  0  2  0  0  3  0  0  0  0  0  0
  159.8230  213.3050  148.2420 F   0  0  0  0  0  0  0  0  0  0  0  0
  157.7080  214.2690  147.9660 N   0  0  0  0  0  2  0  0  0  0  0  0
  1 10  2  0  0  0  0
  1 11  1  0  0  0  0
  3  9  1  0  0  0  0
  4  8  1  0  0  0  0
  4  7  1  0  0  0  0
  5 11  1  0  0  0  0
  5  3  2  0  0  0  0
  6  8  2  0  0  0  0
  8  2  1  0  0  0  0
  9  7  2  0  0  0  0
 10  6  1  0  0  0  0
 11  4  2  0  0  0  0
 12 15  2  0  0  0  0
 13 18  2  0  0  0  0
 14 20  1  0  0  0  0
 14 17  2  0  0  0  0
 15  3  1  0  0  0  0
 15 18  1  0  0  0  0
 17 13  1  0  0  0  0
 18 16  1  0  0  0  0
 19 14  1  0  0  0  0
 20 12  1  0  0  0  0
 21  1  1  0  0  0  0
 22 21  2  0  0  0  0
 23 27  1  1  0  0  0
 23 26  1  0  0  0  0
 24 22  1  0  0  0  0
 26 21  1  0  0  0  0
 26 25  1  1  0  0  0
 28 24  1  0  0  0  0
 28 23  1  0  0  0  0
M  END
>  <MODEL>
6

>  <REMARK>
 VINA RESULT:      -6.9      2.594      4.795
  Name = 
  2 active torsions:
  status: ('A' for Active; 'I' for Inactive)
    1  A    between atoms: C_1  and  C_2
    2  A    between atoms: C_10  and  C_13
                            x       y       z     vdW  Elec       q    Type
                         _______ _______ _______ _____ _____    ______ ____

>  <TORSDO>
F 2

$$$$
=
 OpenBabel11052422493D

 28 31  0  0  1  0  0  0  0  0999 V2000
  161.1890  209.3960  152.0370 C   0  0  0  0  0  0  0  0  0  0  0  0
  162.0940  211.4620  148.0490 Cl  0  0  0  0  0  0  0  0  0  0  0  0
  161.6600  206.4110  149.8210 C   0  0  0  0  0  0  0  0  0  0  0  0
  161.7350  209.2280  149.6510 C   0  0  0  0  0  0  0  0  0  0  0  0
  161.4080  207.2000  150.9510 C   0  0  0  0  0  3  0  0  0  0  0  0
  161.4740  211.4010  150.6890 C   0  0  0  0  0  3  0  0  0  0  0  0
  161.9830  208.4400  148.5200 C   0  0  0  0  0  3  0  0  0  0  0  0
  161.7490  210.6310  149.5610 C   0  0  0  0  0  0  0  0  0  0  0  0
  161.9460  207.0470  148.6040 C   0  0  0  0  0  3  0  0  0  0  0  0
  161.1950  210.7920  151.9110 C   0  0  0  0  0  3  0  0  0  0  0  0
  161.4520  208.6020  150.8930 C   0  0  0  0  0  0  0  0  0  0  0  0
  161.3620  204.2400  148.7770 C   0  0  0  0  0  3  0  0  0  0  0  0
  161.0450  203.1820  151.6260 C   0  0  0  0  0  3  0  0  0  0  0  0
  160.1080  202.2680  149.5120 C   0  0  0  0  0  0  0  0  0  0  0  0
  161.5890  204.9270  149.9060 C   0  0  0  0  0  0  0  0  0  0  0  0
  162.7550  204.7800  152.1990 C   0  0  0  0  0  1  0  0  0  0  0  0
  160.0480  202.4390  150.8320 C   0  0  0  0  0  3  0  0  0  0  0  0
  161.7660  204.2390  151.2230 C   0  0  0  0  0  0  0  0  0  0  0  0
  159.0840  201.5860  148.8680 O   0  0  0  0  0  1  0  0  0  0  0  0
  161.2710  202.7530  148.7110 C   0  0  0  0  0  2  0  0  0  0  0  0
  160.9040  208.8120  153.3720 C   0  0  0  0  0  0  0  0  0  0  0  0
  160.9920  207.4830  153.5220 C   0  0  0  0  0  3  0  0  0  0  0  0
  160.3090  208.9270  155.8590 C   0  0  1  0  0  3  0  0  0  0  0  0
  160.7350  206.8200  154.8430 C   0  0  0  0  0  2  0  0  0  0  0  0
  159.5930  210.7590  154.2770 C   0  0  0  0  0  1  0  0  0  0  0  0
  160.6490  209.7040  154.5740 C   0  0  2  0  0  3  0  0  0  0  0  0
  158.9560  208.6240  155.9360 F   0  0  0  0  0  0  0  0  0  0  0  0
  161.1090  207.7040  155.9470 N   0  0  0  0  0  2  0  0  0  0  0  0
  1 21  1  0  0  0  0
  2  8  1  0  0  0  0
  3 15  1  0  0  0  0
  3  5  2  0  0  0  0
  4 11  1  0  0  0  0
  6 10  2  0  0  0  0
  7  9  2  0  0  0  0
  7  4  1  0  0  0  0
  8  4  2  0  0  0  0
  8  6  1  0  0  0  0
  9  3  1  0  0  0  0
 10  1  1  0  0  0  0
 11  5  1  0  0  0  0
 11  1  2  0  0  0  0
 12 15  2  0  0  0  0
 14 17  2  0  0  0  0
 15 18  1  0  0  0  0
 17 13  1  0  0  0  0
 18 13  2  0  0  0  0
 18 16  1  0  0  0  0
 19 14  1  0  0  0  0
 20 12  1  0  0  0  0
 20 14  1  0  0  0  0
 21 22  2  0  0  0  0
 21 26  1  0  0  0  0
 22 24  1  0  0  0  0
 23 27  1  6  0  0  0
 23 28  1  0  0  0  0
 24 28  1  0  0  0  0
 26 25  1  6  0  0  0
 26 23  1  0  0  0  0
M  END
>  <MODEL>
7

>  <REMARK>
 VINA RESULT:      -6.9      3.343      5.063
  Name = 
  2 active torsions:
  status: ('A' for Active; 'I' for Inactive)
    1  A    between atoms: C_1  and  C_2
    2  A    between atoms: C_10  and  C_13
                            x       y       z     vdW  Elec       q    Type
                         _______ _______ _______ _____ _____    ______ ____

>  <TORSDO>
F 2

$$$$
=
 OpenBabel11052422493D

 28 31  0  0  1  0  0  0  0  0999 V2000
  161.1390  207.0370  152.4220 C   0  0  0  0  0  0  0  0  0  0  0  0
  161.2310  208.6020  156.7270 Cl  0  0  0  0  0  0  0  0  0  0  0  0
  160.8860  210.7240  151.8060 C   0  0  0  0  0  0  0  0  0  0  0  0
  161.1060  208.9330  153.9770 C   0  0  0  0  0  0  0  0  0  0  0  0
  160.9550  209.3420  151.5860 C   0  0  0  0  0  3  0  0  0  0  0  0
  161.2370  206.6670  154.8240 C   0  0  0  0  0  3  0  0  0  0  0  0
  161.0330  210.3140  154.1980 C   0  0  0  0  0  3  0  0  0  0  0  0
  161.1920  208.0400  155.0600 C   0  0  0  0  0  0  0  0  0  0  0  0
  160.9230  211.2000  153.1250 C   0  0  0  0  0  3  0  0  0  0  0  0
  161.2090  206.1710  153.5220 C   0  0  0  0  0  3  0  0  0  0  0  0
  161.0770  208.4340  152.6490 C   0  0  0  0  0  0  0  0  0  0  0  0
  161.4520  211.4220  149.5510 C   0  0  0  0  0  3  0  0  0  0  0  0
  160.0950  214.0600  150.2860 C   0  0  0  0  0  3  0  0  0  0  0  0
  161.9020  213.6460  148.6280 C   0  0  0  0  0  0  0  0  0  0  0  0
  160.7380  211.6630  150.6610 C   0  0  0  0  0  0  0  0  0  0  0  0
  158.5280  212.6890  151.4970 C   0  0  0  0  0  1  0  0  0  0  0  0
  161.2730  214.4480  149.4860 C   0  0  0  0  0  3  0  0  0  0  0  0
  159.8170  212.8380  150.7640 C   0  0  0  0  0  0  0  0  0  0  0  0
  163.0300  214.1130  147.9650 O   0  0  0  0  0  1  0  0  0  0  0  0
  161.4010  212.2730  148.3270 C   0  0  0  0  0  2  0  0  0  0  0  0
  161.1350  206.4430  151.0600 C   0  0  0  0  0  0  0  0  0  0  0  0
  160.8310  207.2300  150.0190 C   0  0  0  0  0  3  0  0  0  0  0  0
  161.4550  204.5460  149.3720 C   0  0  1  0  0  3  0  0  0  0  0  0
  160.8200  206.7080  148.6130 C   0  0  0  0  0  2  0  0  0  0  0  0
  160.8960  204.0440  151.7820 C   0  0  0  0  0  1  0  0  0  0  0  0
  161.5890  205.0120  150.8330 C   0  0  2  0  0  3  0  0  0  0  0  0
  160.1810  204.0670  149.0980 F   0  0  0  0  0  0  0  0  0  0  0  0
  161.7990  205.6320  148.4530 N   0  0  0  0  0  2  0  0  0  0  0  0
  1 11  2  0  0  0  0
  1 10  1  0  0  0  0
  3  9  1  0  0  0  0
  4  7  1  0  0  0  0
  4  8  2  0  0  0  0
  5  3  2  0  0  0  0
  5 11  1  0  0  0  0
  6  8  1  0  0  0  0
  8  2  1  0  0  0  0
  9  7  2  0  0  0  0
 10  6  2  0  0  0  0
 11  4  1  0  0  0  0
 12 15  2  0  0  0  0
 13 18  2  0  0  0  0
 14 17  2  0  0  0  0
 15 18  1  0  0  0  0
 15  3  1  0  0  0  0
 17 13  1  0  0  0  0
 18 16  1  0  0  0  0
 19 14  1  0  0  0  0
 20 14  1  0  0  0  0
 20 12  1  0  0  0  0
 21  1  1  0  0  0  0
 22 21  2  0  0  0  0
 23 27  1  6  0  0  0
 23 26  1  0  0  0  0
 24 22  1  0  0  0  0
 26 21  1  0  0  0  0
 26 25  1  1  0  0  0
 28 24  1  0  0  0  0
 28 23  1  0  0  0  0
M  END
>  <MODEL>
8

>  <REMARK>
 VINA RESULT:      -6.8      3.601      6.170
  Name = 
  2 active torsions:
  status: ('A' for Active; 'I' for Inactive)
    1  A    between atoms: C_1  and  C_2
    2  A    between atoms: C_10  and  C_13
                            x       y       z     vdW  Elec       q    Type
                         _______ _______ _______ _____ _____    ______ ____

>  <TORSDO>
F 2

$$$$
=
 OpenBabel11052422493D

 28 31  0  0  1  0  0  0  0  0999 V2000
  161.7290  207.5510  150.1880 C   0  0  0  0  0  0  0  0  0  0  0  0
  162.5800  211.5100  148.0440 Cl  0  0  0  0  0  0  0  0  0  0  0  0
  160.4880  209.9880  152.7500 C   0  0  0  0  0  0  0  0  0  0  0  0
  161.6420  210.0020  150.1730 C   0  0  0  0  0  0  0  0  0  0  0  0
  160.8220  208.7860  152.1110 C   0  0  0  0  0  3  0  0  0  0  0  0
  162.5860  208.8080  148.2890 C   0  0  0  0  0  3  0  0  0  0  0  0
  161.3120  211.2040  150.8120 C   0  0  0  0  0  3  0  0  0  0  0  0
  162.2390  210.0110  148.9000 C   0  0  0  0  0  0  0  0  0  0  0  0
  160.7420  211.1970  152.0860 C   0  0  0  0  0  3  0  0  0  0  0  0
  162.3360  207.5930  148.9250 C   0  0  0  0  0  3  0  0  0  0  0  0
  161.3850  208.7690  150.8260 C   0  0  0  0  0  0  0  0  0  0  0  0
  158.7920  210.6890  154.3390 C   0  0  0  0  0  3  0  0  0  0  0  0
  160.6970  209.6190  156.4760 C   0  0  0  0  0  3  0  0  0  0  0  0
  158.9840  211.4120  156.6720 C   0  0  0  0  0  0  0  0  0  0  0  0
  159.9080  209.9780  154.1200 C   0  0  0  0  0  0  0  0  0  0  0  0
  161.1850  207.8760  154.8870 C   0  0  0  0  0  1  0  0  0  0  0  0
  160.1320  210.8550  157.0530 C   0  0  0  0  0  3  0  0  0  0  0  0
  160.5660  209.1930  155.2110 C   0  0  0  0  0  0  0  0  0  0  0  0
  158.5790  212.6030  157.2610 O   0  0  0  0  0  1  0  0  0  0  0  0
  158.1000  210.7670  155.6570 C   0  0  0  0  0  2  0  0  0  0  0  0
  161.4720  206.2220  150.8000 C   0  0  0  0  0  0  0  0  0  0  0  0
  161.9880  205.9640  152.0090 C   0  0  0  0  0  3  0  0  0  0  0  0
  160.4430  203.8800  150.8760 C   0  0  1  0  0  3  0  0  0  0  0  0
  161.7600  204.6520  152.6990 C   0  0  0  0  0  2  0  0  0  0  0  0
  160.8890  205.0190  148.6690 C   0  0  0  0  0  1  0  0  0  0  0  0
  160.5380  205.2260  150.1350 C   0  0  2  0  0  3  0  0  0  0  0  0
  161.4590  203.0110  150.5010 F   0  0  0  0  0  0  0  0  0  0  0  0
  160.4620  204.0890  152.3250 N   0  0  0  0  0  2  0  0  0  0  0  0
  1 21  1  0  0  0  0
  1 11  1  0  0  0  0
  2  8  1  0  0  0  0
  3 15  1  0  0  0  0
  4  7  2  0  0  0  0
  4 11  1  0  0  0  0
  5  3  1  0  0  0  0
  6  8  2  0  0  0  0
  6 10  1  0  0  0  0
  7  9  1  0  0  0  0
  8  4  1  0  0  0  0
  9  3  2  0  0  0  0
 10  1  2  0  0  0  0
 11  5  2  0  0  0  0
 12 20  1  0  0  0  0
 13 17  1  0  0  0  0
 14 17  2  0  0  0  0
 14 19  1  0  0  0  0
 15 12  2  0  0  0  0
 15 18  1  0  0  0  0
 16 18  1  0  0  0  0
 18 13  2  0  0  0  0
 20 14  1  0  0  0  0
 21 22  2  0  0  0  0
 22 24  1  0  0  0  0
 23 27  1  6  0  0  0
 23 28  1  0  0  0  0
 26 25  1  6  0  0  0
 26 21  1  0  0  0  0
 26 23  1  0  0  0  0
 28 24  1  0  0  0  0
M  END
>  <MODEL>
9

>  <REMARK>
 VINA RESULT:      -6.8      4.443      7.846
  Name = 
  2 active torsions:
  status: ('A' for Active; 'I' for Inactive)
    1  A    between atoms: C_1  and  C_2
    2  A    between atoms: C_10  and  C_13
                            x       y       z     vdW  Elec       q    Type
                         _______ _______ _______ _____ _____    ______ ____

>  <TORSDO>
F 2

$$$$
