=
 OpenBabel11062409493D

 34 39  0  0  1  0  0  0  0  0999 V2000
  160.6320  209.8760  153.0360 C   0  0  2  0  0  3  0  0  0  0  0  0
  158.0550  211.2660  155.2940 C   0  0  0  0  0  3  0  0  0  0  0  0
  159.6830  209.5860  155.8100 C   0  0  0  0  0  2  0  0  0  0  0  0
  161.4440  208.4430  151.1160 C   0  0  0  0  0  0  0  0  0  0  0  0
  161.2770  209.8660  151.6800 C   0  0  0  0  0  2  0  0  0  0  0  0
  161.3420  207.5670  153.3410 C   0  0  0  0  0  0  0  0  0  0  0  0
  161.0130  206.5650  154.2400 C   0  0  0  0  0  3  0  0  0  0  0  0
  161.4780  207.4120  151.9240 N   0  0  0  0  0  0  0  0  0  0  0  0
  160.4360  208.5580  155.1000 N   0  0  0  0  0  0  0  0  0  0  0  0
  160.9630  208.7480  153.8870 C   0  0  0  0  0  0  0  0  0  0  0  0
  160.4450  207.2280  155.3340 C   0  0  0  0  0  3  0  0  0  0  0  0
  157.2390  212.3170  154.6860 C   0  0  0  0  0  3  0  0  0  0  0  0
  157.4260  213.0290  153.5690 C   0  0  0  0  0  0  0  0  0  0  0  0
  158.5880  212.9160  152.6660 C   0  0  0  0  0  3  0  0  0  0  0  0
  159.1060  210.6000  154.8240 C   0  0  1  0  0  3  0  0  0  0  0  0
  159.5220  211.9760  152.6120 C   0  0  0  0  0  3  0  0  0  0  0  0
  159.7190  210.7820  153.4500 C   0  0  0  0  0  0  0  0  0  0  0  0
  156.3840  214.0140  153.2230 C   0  0  0  0  0  0  0  0  0  0  0  0
  155.4730  214.4530  154.1800 O   0  0  0  0  0  1  0  0  0  0  0  0
  156.2940  214.4530  152.0400 O   0  0  0  0  0  0  0  0  0  0  0  0
  161.5430  208.2050  149.7380 O   0  0  0  0  0  0  0  0  0  0  0  0
  162.0990  205.6290  147.1520 C   0  0  0  0  0  3  0  0  0  0  0  0
  161.0500  205.7940  149.7340 C   0  0  0  0  0  3  0  0  0  0  0  0
  160.6180  202.3110  147.2120 N   0  0  0  0  0  0  0  0  0  0  0  0
  160.4320  201.9140  148.9200 P   0  0  2  0  0  0  0  0  0  0  0  0
  161.7940  203.1630  147.0840 C   0  0  0  0  0  2  0  0  0  0  0  0
  159.0740  201.2920  149.1640 O   0  0  0  0  0  0  0  0  0  0  0  0
  161.5840  204.4850  147.7680 C   0  0  0  0  0  0  0  0  0  0  0  0
  160.8550  201.0760  146.4980 C   0  0  0  0  0  1  0  0  0  0  0  0
  160.4710  203.4450  149.7050 O   0  0  0  0  0  0  0  0  0  0  0  0
  161.0290  204.5660  149.0660 C   0  0  0  0  0  0  0  0  0  0  0  0
  161.6760  200.9290  149.5080 O   0  0  0  0  0  1  0  0  0  0  0  0
  161.5500  206.9480  149.1140 C   0  0  0  0  0  0  0  0  0  0  0  0
  162.0550  206.8610  147.8170 C   0  0  0  0  0  3  0  0  0  0  0  0
  1  5  1  6  0  0  0
  1 17  1  0  0  0  0
  1 10  1  0  0  0  0
  4  5  1  0  0  0  0
  4  8  2  0  0  0  0
  6 10  2  0  0  0  0
  6  7  1  0  0  0  0
  7 11  2  0  0  0  0
  8  6  1  0  0  0  0
  9 11  1  0  0  0  0
  9  3  1  0  0  0  0
 10  9  1  0  0  0  0
 12  2  2  0  0  0  0
 13 12  1  0  0  0  0
 14 13  2  0  0  0  0
 15  2  1  6  0  0  0
 15  3  1  0  0  0  0
 16 14  1  0  0  0  0
 16 17  2  0  0  0  0
 17 15  1  0  0  0  0
 18 13  1  0  0  0  0
 18 19  1  0  0  0  0
 20 18  2  0  0  0  0
 21  4  1  0  0  0  0
 22 28  2  0  0  0  0
 22 34  1  0  0  0  0
 24 25  1  0  0  0  0
 25 27  2  1  0  0  0
 25 32  1  0  0  0  0
 25 30  1  0  0  0  0
 26 24  1  0  0  0  0
 26 28  1  0  0  0  0
 28 31  1  0  0  0  0
 29 24  1  0  0  0  0
 31 30  1  0  0  0  0
 31 23  2  0  0  0  0
 33 23  1  0  0  0  0
 33 21  1  0  0  0  0
 34 33  2  0  0  0  0
M  END
>  <MODEL>
1

>  <REMARK>
 VINA RESULT:     -10.0      0.000      0.000
  Name = 
  3 active torsions:
  status: ('A' for Active; 'I' for Inactive)
    1  A    between atoms: C_3  and  C_25
    2  A    between atoms: C_8  and  O_18
    3  A    between atoms: O_18  and  C_30
                            x       y       z     vdW  Elec       q    Type
                         _______ _______ _______ _____ _____    ______ ____

>  <TORSDO>
F 3

$$$$
=
 OpenBabel11062409493D

 34 39  0  0  1  0  0  0  0  0999 V2000
  161.2350  211.5070  150.9510 C   0  0  2  0  0  3  0  0  0  0  0  0
  159.9230  213.9040  148.4610 C   0  0  0  0  0  3  0  0  0  0  0  0
  159.4230  213.8240  150.8030 C   0  0  0  0  0  2  0  0  0  0  0  0
  161.3870  209.2450  152.0760 C   0  0  0  0  0  0  0  0  0  0  0  0
  162.1140  210.3260  151.2560 C   0  0  0  0  0  2  0  0  0  0  0  0
  159.8380  210.8980  152.8500 C   0  0  0  0  0  0  0  0  0  0  0  0
  158.5760  211.2750  153.2820 C   0  0  0  0  0  3  0  0  0  0  0  0
  160.3450  209.5590  152.8060 N   0  0  0  0  0  0  0  0  0  0  0  0
  159.3730  212.8230  151.8630 N   0  0  0  0  0  0  0  0  0  0  0  0
  160.2740  211.8460  151.9840 C   0  0  0  0  0  0  0  0  0  0  0  0
  158.3180  212.4920  152.6390 C   0  0  0  0  0  3  0  0  0  0  0  0
  160.4600  213.7120  147.1140 C   0  0  0  0  0  3  0  0  0  0  0  0
  161.5130  213.0060  146.6880 C   0  0  0  0  0  0  0  0  0  0  0  0
  162.4360  212.2400  147.5480 C   0  0  0  0  0  3  0  0  0  0  0  0
  160.2130  213.2940  149.6070 C   0  0  2  0  0  3  0  0  0  0  0  0
  162.3000  211.8850  148.8200 C   0  0  0  0  0  3  0  0  0  0  0  0
  161.2200  212.1750  149.7770 C   0  0  0  0  0  0  0  0  0  0  0  0
  161.7730  213.0050  145.2350 C   0  0  0  0  0  0  0  0  0  0  0  0
  163.0200  213.3730  144.7360 O   0  0  0  0  0  1  0  0  0  0  0  0
  160.8530  212.6910  144.4260 O   0  0  0  0  0  0  0  0  0  0  0  0
  161.7970  207.9050  152.0540 O   0  0  0  0  0  0  0  0  0  0  0  0
  161.0500  204.7330  150.3210 C   0  0  0  0  0  3  0  0  0  0  0  0
  161.7340  207.3560  149.6560 C   0  0  0  0  0  3  0  0  0  0  0  0
  161.7300  204.1080  146.8060 N   0  0  0  0  0  0  0  0  0  0  0  0
  161.5800  205.6760  146.0160 P   0  0  2  0  0  0  0  0  0  0  0  0
  160.8030  204.0910  147.9320 C   0  0  0  0  0  2  0  0  0  0  0  0
  162.7160  205.8760  145.0370 O   0  0  0  0  0  0  0  0  0  0  0  0
  161.2040  205.0920  148.9790 C   0  0  0  0  0  0  0  0  0  0  0  0
  161.3260  203.0960  145.8540 C   0  0  0  0  0  1  0  0  0  0  0  0
  161.7730  206.8050  147.3010 O   0  0  0  0  0  0  0  0  0  0  0  0
  161.5750  206.4130  148.6360 C   0  0  0  0  0  0  0  0  0  0  0  0
  160.0770  205.8990  145.2700 O   0  0  0  0  0  1  0  0  0  0  0  0
  161.5970  206.9960  151.0050 C   0  0  0  0  0  0  0  0  0  0  0  0
  161.2740  205.6790  151.3290 C   0  0  0  0  0  3  0  0  0  0  0  0
  1  5  1  6  0  0  0
  1 10  1  0  0  0  0
  3  9  1  0  0  0  0
  4  8  2  0  0  0  0
  5  4  1  0  0  0  0
  6  7  1  0  0  0  0
  8  6  1  0  0  0  0
  9 10  1  0  0  0  0
  9 11  1  0  0  0  0
 10  6  2  0  0  0  0
 11  7  2  0  0  0  0
 12  2  2  0  0  0  0
 13 12  1  0  0  0  0
 13 14  2  0  0  0  0
 14 16  1  0  0  0  0
 15  2  1  1  0  0  0
 15 17  1  0  0  0  0
 15  3  1  0  0  0  0
 16 17  2  0  0  0  0
 17  1  1  0  0  0  0
 18 13  1  0  0  0  0
 19 18  1  0  0  0  0
 20 18  2  0  0  0  0
 21  4  1  0  0  0  0
 22 34  1  0  0  0  0
 23 33  1  0  0  0  0
 24 26  1  0  0  0  0
 25 27  2  6  0  0  0
 25 24  1  0  0  0  0
 25 30  1  0  0  0  0
 26 28  1  0  0  0  0
 28 22  2  0  0  0  0
 29 24  1  0  0  0  0
 30 31  1  0  0  0  0
 31 28  1  0  0  0  0
 31 23  2  0  0  0  0
 32 25  1  0  0  0  0
 33 34  2  0  0  0  0
 33 21  1  0  0  0  0
M  END
>  <MODEL>
2

>  <REMARK>
 VINA RESULT:      -9.8      3.638      5.455
  Name = 
  3 active torsions:
  status: ('A' for Active; 'I' for Inactive)
    1  A    between atoms: C_3  and  C_25
    2  A    between atoms: C_8  and  O_18
    3  A    between atoms: O_18  and  C_30
                            x       y       z     vdW  Elec       q    Type
                         _______ _______ _______ _____ _____    ______ ____

>  <TORSDO>
F 3

$$$$
=
 OpenBabel11062409493D

 34 39  0  0  1  0  0  0  0  0999 V2000
  161.4490  209.2260  153.0240 C   0  0  2  0  0  3  0  0  0  0  0  0
  160.3710  212.4260  151.5180 C   0  0  0  0  0  3  0  0  0  0  0  0
  160.3330  211.8280  153.8370 C   0  0  0  0  0  2  0  0  0  0  0  0
  161.2030  206.7670  153.5680 C   0  0  0  0  0  0  0  0  0  0  0  0
  162.0200  207.8490  152.8380 C   0  0  0  0  0  2  0  0  0  0  0  0
  160.3360  208.4410  155.0430 C   0  0  0  0  0  0  0  0  0  0  0  0
  159.3310  208.9480  155.8510 C   0  0  0  0  0  3  0  0  0  0  0  0
  160.4460  207.0880  154.5890 N   0  0  0  0  0  0  0  0  0  0  0  0
  160.2220  210.6140  154.6380 N   0  0  0  0  0  0  0  0  0  0  0  0
  160.8340  209.4710  154.3160 C   0  0  0  0  0  0  0  0  0  0  0  0
  159.2890  210.3180  155.5680 C   0  0  0  0  0  3  0  0  0  0  0  0
  160.5640  212.4930  150.0690 C   0  0  0  0  0  3  0  0  0  0  0  0
  161.2860  211.7200  149.2490 C   0  0  0  0  0  0  0  0  0  0  0  0
  162.1180  210.5740  149.6640 C   0  0  0  0  0  3  0  0  0  0  0  0
  160.7040  211.4840  152.3960 C   0  0  1  0  0  3  0  0  0  0  0  0
  162.1410  209.9280  150.8230 C   0  0  0  0  0  3  0  0  0  0  0  0
  161.3860  210.1730  152.0620 C   0  0  0  0  0  0  0  0  0  0  0  0
  161.2490  212.0540  147.8120 C   0  0  0  0  0  0  0  0  0  0  0  0
  162.3700  212.5810  147.1750 O   0  0  0  0  0  1  0  0  0  0  0  0
  160.1850  211.8860  147.1490 O   0  0  0  0  0  0  0  0  0  0  0  0
  161.2250  205.4270  153.1590 O   0  0  0  0  0  0  0  0  0  0  0  0
  160.8290  203.0940  150.3250 C   0  0  0  0  0  3  0  0  0  0  0  0
  161.3450  205.8070  150.7300 C   0  0  0  0  0  3  0  0  0  0  0  0
  161.7580  203.8560  146.8960 N   0  0  0  0  0  0  0  0  0  0  0  0
  161.5330  205.5960  146.7280 P   0  0  2  0  0  0  0  0  0  0  0  0
  160.7720  203.3760  147.8560 C   0  0  0  0  0  2  0  0  0  0  0  0
  162.7060  206.2030  145.9880 O   0  0  0  0  0  0  0  0  0  0  0  0
  161.0330  203.9340  149.2270 C   0  0  0  0  0  0  0  0  0  0  0  0
  161.4900  203.2530  145.6080 C   0  0  0  0  0  1  0  0  0  0  0  0
  161.5630  206.1740  148.3480 O   0  0  0  0  0  0  0  0  0  0  0  0
  161.3190  205.3040  149.4250 C   0  0  0  0  0  0  0  0  0  0  0  0
  160.0640  206.0050  145.9940 O   0  0  0  0  0  1  0  0  0  0  0  0
  161.1580  204.9640  151.8350 C   0  0  0  0  0  0  0  0  0  0  0  0
  160.9190  203.6070  151.6250 C   0  0  0  0  0  3  0  0  0  0  0  0
  1  5  1  6  0  0  0
  1 10  1  0  0  0  0
  3  9  1  0  0  0  0
  4  8  2  0  0  0  0
  5  4  1  0  0  0  0
  6  7  1  0  0  0  0
  8  6  1  0  0  0  0
  9 11  1  0  0  0  0
 10  9  1  0  0  0  0
 10  6  2  0  0  0  0
 11  7  2  0  0  0  0
 12  2  2  0  0  0  0
 13 14  2  0  0  0  0
 13 12  1  0  0  0  0
 14 16  1  0  0  0  0
 15  2  1  6  0  0  0
 15  3  1  0  0  0  0
 16 17  2  0  0  0  0
 17 15  1  0  0  0  0
 17  1  1  0  0  0  0
 18 13  1  0  0  0  0
 19 18  1  0  0  0  0
 20 18  2  0  0  0  0
 21  4  1  0  0  0  0
 22 34  1  0  0  0  0
 23 33  1  0  0  0  0
 24 26  1  0  0  0  0
 25 27  2  6  0  0  0
 25 24  1  0  0  0  0
 25 30  1  0  0  0  0
 26 28  1  0  0  0  0
 28 31  1  0  0  0  0
 28 22  2  0  0  0  0
 29 24  1  0  0  0  0
 30 31  1  0  0  0  0
 31 23  2  0  0  0  0
 32 25  1  0  0  0  0
 33 21  1  0  0  0  0
 34 33  2  0  0  0  0
M  END
>  <MODEL>
3

>  <REMARK>
 VINA RESULT:      -9.7      3.057      4.277
  Name = 
  3 active torsions:
  status: ('A' for Active; 'I' for Inactive)
    1  A    between atoms: C_3  and  C_25
    2  A    between atoms: C_8  and  O_18
    3  A    between atoms: O_18  and  C_30
                            x       y       z     vdW  Elec       q    Type
                         _______ _______ _______ _____ _____    ______ ____

>  <TORSDO>
F 3

$$$$
=
 OpenBabel11062409493D

 34 39  0  0  1  0  0  0  0  0999 V2000
  161.1200  208.9840  153.7300 C   0  0  2  0  0  3  0  0  0  0  0  0
  159.5710  212.2890  154.3150 C   0  0  0  0  0  3  0  0  0  0  0  0
  160.3880  210.7560  155.9660 C   0  0  0  0  0  2  0  0  0  0  0  0
  161.0840  206.5270  153.1260 C   0  0  0  0  0  0  0  0  0  0  0  0
  161.5790  207.9360  152.7550 C   0  0  0  0  0  2  0  0  0  0  0  0
  160.8250  207.2340  155.3980 C   0  0  0  0  0  0  0  0  0  0  0  0
  160.1880  207.1680  156.6280 C   0  0  0  0  0  3  0  0  0  0  0  0
  160.7570  206.2460  154.3640 N   0  0  0  0  0  0  0  0  0  0  0  0
  160.5760  209.3170  156.1030 N   0  0  0  0  0  0  0  0  0  0  0  0
  161.0230  208.5430  155.1100 C   0  0  0  0  0  0  0  0  0  0  0  0
  160.0490  208.4990  157.0390 C   0  0  0  0  0  3  0  0  0  0  0  0
  159.2190  213.0040  153.0880 C   0  0  0  0  0  3  0  0  0  0  0  0
  159.5860  212.7910  151.8200 C   0  0  0  0  0  0  0  0  0  0  0  0
  160.5090  211.7340  151.3610 C   0  0  0  0  0  3  0  0  0  0  0  0
  160.2010  211.1320  154.4970 C   0  0  2  0  0  3  0  0  0  0  0  0
  160.9560  210.6680  152.0110 C   0  0  0  0  0  3  0  0  0  0  0  0
  160.7100  210.2260  153.3940 C   0  0  0  0  0  0  0  0  0  0  0  0
  159.0250  213.6980  150.8000 C   0  0  0  0  0  0  0  0  0  0  0  0
  157.6640  213.9930  150.7820 O   0  0  0  0  0  1  0  0  0  0  0  0
  159.7760  214.2000  149.9150 O   0  0  0  0  0  0  0  0  0  0  0  0
  160.9520  205.5170  152.1640 O   0  0  0  0  0  0  0  0  0  0  0  0
  160.9220  207.1770  148.8660 C   0  0  0  0  0  3  0  0  0  0  0  0
  161.3260  204.6170  149.9040 C   0  0  0  0  0  3  0  0  0  0  0  0
  160.8250  205.4190  145.6870 N   0  0  0  0  0  0  0  0  0  0  0  0
  161.6620  203.8940  145.9710 P   0  0  2  0  0  0  0  0  0  0  0  0
  161.4330  206.4230  146.5530 C   0  0  0  0  0  2  0  0  0  0  0  0
  160.8940  202.7540  145.3390 O   0  0  0  0  0  0  0  0  0  0  0  0
  161.1850  206.1100  148.0020 C   0  0  0  0  0  0  0  0  0  0  0  0
  161.0520  205.7930  144.3080 C   0  0  0  0  0  1  0  0  0  0  0  0
  161.5990  203.7020  147.6800 O   0  0  0  0  0  0  0  0  0  0  0  0
  161.3660  204.8070  148.5190 C   0  0  0  0  0  0  0  0  0  0  0  0
  163.2720  203.9160  145.4500 O   0  0  0  0  0  1  0  0  0  0  0  0
  161.0460  205.6810  150.7730 C   0  0  0  0  0  0  0  0  0  0  0  0
  160.8270  206.9530  150.2450 C   0  0  0  0  0  3  0  0  0  0  0  0
  1  5  1  6  0  0  0
  1 10  1  0  0  0  0
  3  9  1  0  0  0  0
  4  8  2  0  0  0  0
  5  4  1  0  0  0  0
  6  7  1  0  0  0  0
  7 11  2  0  0  0  0
  8  6  1  0  0  0  0
  9 11  1  0  0  0  0
 10  6  2  0  0  0  0
 10  9  1  0  0  0  0
 12  2  2  0  0  0  0
 13 12  1  0  0  0  0
 14 13  2  0  0  0  0
 14 16  1  0  0  0  0
 15  2  1  1  0  0  0
 15  3  1  0  0  0  0
 16 17  2  0  0  0  0
 17  1  1  0  0  0  0
 17 15  1  0  0  0  0
 18 13  1  0  0  0  0
 19 18  1  0  0  0  0
 20 18  2  0  0  0  0
 21  4  1  0  0  0  0
 22 34  1  0  0  0  0
 23 33  1  0  0  0  0
 24 25  1  0  0  0  0
 24 26  1  0  0  0  0
 25 27  2  6  0  0  0
 25 30  1  0  0  0  0
 26 28  1  0  0  0  0
 28 31  1  0  0  0  0
 28 22  2  0  0  0  0
 29 24  1  0  0  0  0
 30 31  1  0  0  0  0
 31 23  2  0  0  0  0
 32 25  1  0  0  0  0
 33 21  1  0  0  0  0
 34 33  2  0  0  0  0
M  END
>  <MODEL>
4

>  <REMARK>
 VINA RESULT:      -9.6      2.197      2.854
  Name = 
  3 active torsions:
  status: ('A' for Active; 'I' for Inactive)
    1  A    between atoms: C_3  and  C_25
    2  A    between atoms: C_8  and  O_18
    3  A    between atoms: O_18  and  C_30
                            x       y       z     vdW  Elec       q    Type
                         _______ _______ _______ _____ _____    ______ ____

>  <TORSDO>
F 3

$$$$
=
 OpenBabel11062409493D

 34 39  0  0  1  0  0  0  0  0999 V2000
  162.0900  206.8300  151.2330 C   0  0  2  0  0  3  0  0  0  0  0  0
  161.4240  205.1130  148.0270 C   0  0  0  0  0  3  0  0  0  0  0  0
  162.3860  207.2850  148.3380 C   0  0  0  0  0  2  0  0  0  0  0  0
  161.4230  208.0870  153.3250 C   0  0  0  0  0  0  0  0  0  0  0  0
  162.0410  206.8070  152.7350 C   0  0  0  0  0  2  0  0  0  0  0  0
  161.9740  209.2610  151.3130 C   0  0  0  0  0  0  0  0  0  0  0  0
  161.7230  210.2480  150.3730 C   0  0  0  0  0  3  0  0  0  0  0  0
  161.4240  209.2010  152.6340 N   0  0  0  0  0  0  0  0  0  0  0  0
  162.3340  208.3580  149.3250 N   0  0  0  0  0  0  0  0  0  0  0  0
  162.3200  208.1350  150.6420 C   0  0  0  0  0  0  0  0  0  0  0  0
  161.9610  209.6410  149.1340 C   0  0  0  0  0  3  0  0  0  0  0  0
  160.8680  203.7680  148.1800 C   0  0  0  0  0  3  0  0  0  0  0  0
  160.8030  202.9690  149.2500 C   0  0  0  0  0  0  0  0  0  0  0  0
  161.3380  203.2840  150.5890 C   0  0  0  0  0  3  0  0  0  0  0  0
  161.8520  205.9850  148.9360 C   0  0  2  0  0  3  0  0  0  0  0  0
  161.7490  204.4470  151.0780 C   0  0  0  0  0  3  0  0  0  0  0  0
  161.8390  205.7690  150.4360 C   0  0  0  0  0  0  0  0  0  0  0  0
  160.1480  201.6590  149.0660 C   0  0  0  0  0  0  0  0  0  0  0  0
  160.8410  200.5890  148.5060 O   0  0  0  0  0  0  0  0  0  0  0  0
  158.9370  201.5040  149.3960 O   0  0  0  0  0  1  0  0  0  0  0  0
  160.8290  208.1000  154.5940 O   0  0  0  0  0  0  0  0  0  0  0  0
  159.4450  210.4150  157.1150 C   0  0  0  0  0  3  0  0  0  0  0  0
  159.2170  209.9460  154.3730 C   0  0  0  0  0  3  0  0  0  0  0  0
  156.5670  212.5630  156.5640 N   0  0  0  0  0  0  0  0  0  0  0  0
  156.5900  212.9420  154.8430 P   0  0  2  0  0  0  0  0  0  0  0  0
  157.9500  212.3970  156.9970 C   0  0  0  0  0  2  0  0  0  0  0  0
  155.1950  212.8290  154.2660 O   0  0  0  0  0  0  0  0  0  0  0  0
  158.5810  211.1990  156.3460 C   0  0  0  0  0  0  0  0  0  0  0  0
  155.9950  213.6990  157.2550 C   0  0  0  0  0  1  0  0  0  0  0  0
  157.5570  211.6930  154.1600 O   0  0  0  0  0  0  0  0  0  0  0  0
  158.4420  210.9500  154.9610 C   0  0  0  0  0  0  0  0  0  0  0  0
  157.2740  214.4530  154.5080 O   0  0  0  0  0  1  0  0  0  0  0  0
  160.0730  209.1460  155.1440 C   0  0  0  0  0  0  0  0  0  0  0  0
  160.1680  209.3750  156.5160 C   0  0  0  0  0  3  0  0  0  0  0  0
  1  5  1  1  0  0  0
  2 12  2  0  0  0  0
  3 15  1  0  0  0  0
  3  9  1  0  0  0  0
  4 21  1  0  0  0  0
  5  4  1  0  0  0  0
  6  8  1  0  0  0  0
  7  6  1  0  0  0  0
  8  4  2  0  0  0  0
  9 10  1  0  0  0  0
 10  1  1  0  0  0  0
 10  6  2  0  0  0  0
 11  9  1  0  0  0  0
 11  7  2  0  0  0  0
 12 13  1  0  0  0  0
 13 14  2  0  0  0  0
 14 16  1  0  0  0  0
 15  2  1  6  0  0  0
 15 17  1  0  0  0  0
 17 16  2  0  0  0  0
 17  1  1  0  0  0  0
 18 13  1  0  0  0  0
 18 20  1  0  0  0  0
 19 18  2  0  0  0  0
 21 33  1  0  0  0  0
 23 31  2  0  0  0  0
 23 33  1  0  0  0  0
 24 26  1  0  0  0  0
 24 29  1  0  0  0  0
 25 27  2  6  0  0  0
 25 24  1  0  0  0  0
 28 26  1  0  0  0  0
 28 22  2  0  0  0  0
 30 25  1  0  0  0  0
 30 31  1  0  0  0  0
 31 28  1  0  0  0  0
 32 25  1  0  0  0  0
 33 34  2  0  0  0  0
 34 22  1  0  0  0  0
M  END
>  <MODEL>
5

>  <REMARK>
 VINA RESULT:      -8.9      3.190      9.995
  Name = 
  3 active torsions:
  status: ('A' for Active; 'I' for Inactive)
    1  A    between atoms: C_3  and  C_25
    2  A    between atoms: C_8  and  O_18
    3  A    between atoms: O_18  and  C_30
                            x       y       z     vdW  Elec       q    Type
                         _______ _______ _______ _____ _____    ______ ____

>  <TORSDO>
F 3

$$$$
=
 OpenBabel11062409493D

 34 39  0  0  1  0  0  0  0  0999 V2000
  159.6830  212.0000  153.1080 C   0  0  2  0  0  3  0  0  0  0  0  0
  157.6420  213.9500  150.7200 C   0  0  0  0  0  3  0  0  0  0  0  0
  157.3140  213.7500  153.0850 C   0  0  0  0  0  2  0  0  0  0  0  0
  160.4950  209.8660  154.1990 C   0  0  0  0  0  0  0  0  0  0  0  0
  160.8600  211.0980  153.3520 C   0  0  0  0  0  2  0  0  0  0  0  0
  158.6070  211.0500  155.0750 C   0  0  0  0  0  0  0  0  0  0  0  0
  157.3170  211.0780  155.5790 C   0  0  0  0  0  3  0  0  0  0  0  0
  159.4490  209.8940  154.9890 N   0  0  0  0  0  0  0  0  0  0  0  0
  157.5910  212.7760  154.1350 N   0  0  0  0  0  0  0  0  0  0  0  0
  158.7260  212.0750  154.1970 C   0  0  0  0  0  0  0  0  0  0  0  0
  156.7080  212.1790  154.9640 C   0  0  0  0  0  3  0  0  0  0  0  0
  158.1340  213.9020  149.3430 C   0  0  0  0  0  3  0  0  0  0  0  0
  159.3120  213.5000  148.8530 C   0  0  0  0  0  0  0  0  0  0  0  0
  160.4530  213.0120  149.6530 C   0  0  0  0  0  3  0  0  0  0  0  0
  158.1480  213.4450  151.8420 C   0  0  1  0  0  3  0  0  0  0  0  0
  160.4880  212.6400  150.9260 C   0  0  0  0  0  3  0  0  0  0  0  0
  159.4250  212.6350  151.9440 C   0  0  0  0  0  0  0  0  0  0  0  0
  159.4820  213.5630  147.3880 C   0  0  0  0  0  0  0  0  0  0  0  0
  158.6820  214.3990  146.6140 O   0  0  0  0  0  0  0  0  0  0  0  0
  160.3450  212.8350  146.8180 O   0  0  0  0  0  1  0  0  0  0  0  0
  161.2450  208.6840  154.1410 O   0  0  0  0  0  0  0  0  0  0  0  0
  161.1210  205.3860  152.4880 C   0  0  0  0  0  3  0  0  0  0  0  0
  161.2180  208.0770  151.7560 C   0  0  0  0  0  3  0  0  0  0  0  0
  161.7970  204.8330  148.9600 N   0  0  0  0  0  0  0  0  0  0  0  0
  161.2950  206.3160  148.1510 P   0  0  2  0  0  0  0  0  0  0  0  0
  160.9330  204.6500  150.1210 C   0  0  0  0  0  2  0  0  0  0  0  0
  162.3310  206.7260  147.1260 O   0  0  0  0  0  0  0  0  0  0  0  0
  161.1510  205.7370  151.1360 C   0  0  0  0  0  0  0  0  0  0  0  0
  161.5810  203.7370  148.0400 C   0  0  0  0  0  1  0  0  0  0  0  0
  161.2910  207.4900  149.4090 O   0  0  0  0  0  0  0  0  0  0  0  0
  161.2250  207.0980  150.7580 C   0  0  0  0  0  0  0  0  0  0  0  0
  159.7550  206.2030  147.4600 O   0  0  0  0  0  1  0  0  0  0  0  0
  161.2050  207.7290  153.1140 C   0  0  0  0  0  0  0  0  0  0  0  0
  161.1750  206.3810  153.4710 C   0  0  0  0  0  3  0  0  0  0  0  0
  1  5  1  6  0  0  0
  1 10  1  0  0  0  0
  3  9  1  0  0  0  0
  4  8  2  0  0  0  0
  5  4  1  0  0  0  0
  6  7  1  0  0  0  0
  8  6  1  0  0  0  0
  9 10  1  0  0  0  0
  9 11  1  0  0  0  0
 10  6  2  0  0  0  0
 11  7  2  0  0  0  0
 12  2  2  0  0  0  0
 13 12  1  0  0  0  0
 13 14  2  0  0  0  0
 14 16  1  0  0  0  0
 15  2  1  6  0  0  0
 15 17  1  0  0  0  0
 15  3  1  0  0  0  0
 16 17  2  0  0  0  0
 17  1  1  0  0  0  0
 18 13  1  0  0  0  0
 19 18  2  0  0  0  0
 20 18  1  0  0  0  0
 21  4  1  0  0  0  0
 22 34  1  0  0  0  0
 23 33  1  0  0  0  0
 24 26  1  0  0  0  0
 25 27  2  6  0  0  0
 25 24  1  0  0  0  0
 25 30  1  0  0  0  0
 26 28  1  0  0  0  0
 28 22  2  0  0  0  0
 29 24  1  0  0  0  0
 30 31  1  0  0  0  0
 31 28  1  0  0  0  0
 31 23  2  0  0  0  0
 32 25  1  0  0  0  0
 33 34  2  0  0  0  0
 33 21  1  0  0  0  0
M  END
>  <MODEL>
6

>  <REMARK>
 VINA RESULT:      -8.9      2.877      4.784
  Name = 
  3 active torsions:
  status: ('A' for Active; 'I' for Inactive)
    1  A    between atoms: C_3  and  C_25
    2  A    between atoms: C_8  and  O_18
    3  A    between atoms: O_18  and  C_30
                            x       y       z     vdW  Elec       q    Type
                         _______ _______ _______ _____ _____    ______ ____

>  <TORSDO>
F 3

$$$$
=
 OpenBabel11062409493D

 34 39  0  0  1  0  0  0  0  0999 V2000
  160.6490  205.7940  150.2160 C   0  0  2  0  0  3  0  0  0  0  0  0
  161.2070  203.3210  147.5250 C   0  0  0  0  0  3  0  0  0  0  0  0
  160.5160  202.8840  149.7770 C   0  0  0  0  0  2  0  0  0  0  0  0
  161.3950  207.4450  151.9820 C   0  0  0  0  0  0  0  0  0  0  0  0
  160.6420  207.2300  150.6570 C   0  0  0  0  0  2  0  0  0  0  0  0
  161.0680  205.1370  152.5240 C   0  0  0  0  0  0  0  0  0  0  0  0
  161.4740  203.9610  153.1360 C   0  0  0  0  0  3  0  0  0  0  0  0
  161.5590  206.4490  152.8190 N   0  0  0  0  0  0  0  0  0  0  0  0
  160.6680  203.4980  151.0910 N   0  0  0  0  0  0  0  0  0  0  0  0
  160.6070  204.8170  151.2900 C   0  0  0  0  0  0  0  0  0  0  0  0
  161.2060  202.9520  152.2030 C   0  0  0  0  0  3  0  0  0  0  0  0
  161.5830  203.9160  146.2420 C   0  0  0  0  0  3  0  0  0  0  0  0
  161.5090  205.1810  145.8140 C   0  0  0  0  0  0  0  0  0  0  0  0
  160.9710  206.3180  146.5860 C   0  0  0  0  0  3  0  0  0  0  0  0
  160.8600  203.8870  148.6770 C   0  0  1  0  0  3  0  0  0  0  0  0
  160.6930  206.3970  147.8810 C   0  0  0  0  0  3  0  0  0  0  0  0
  160.7930  205.3780  148.9390 C   0  0  0  0  0  0  0  0  0  0  0  0
  162.0000  205.4540  144.4490 C   0  0  0  0  0  0  0  0  0  0  0  0
  161.1700  205.2780  143.3450 O   0  0  0  0  0  0  0  0  0  0  0  0
  163.1950  205.8290  144.2680 O   0  0  0  0  0  1  0  0  0  0  0  0
  161.9400  208.6900  152.3250 O   0  0  0  0  0  0  0  0  0  0  0  0
  161.3700  211.0780  155.0820 C   0  0  0  0  0  3  0  0  0  0  0  0
  160.0900  210.2590  152.7410 C   0  0  0  0  0  3  0  0  0  0  0  0
  158.2020  212.7310  155.7390 N   0  0  0  0  0  0  0  0  0  0  0  0
  157.4290  212.9020  154.1640 P   0  0  2  0  0  0  0  0  0  0  0  0
  159.6430  212.8080  155.5330 C   0  0  0  0  0  2  0  0  0  0  0  0
  155.9650  212.5310  154.2600 O   0  0  0  0  0  1  0  0  0  0  0  0
  160.1390  211.6390  154.7300 C   0  0  0  0  0  0  0  0  0  0  0  0
  157.7860  213.8520  156.5550 C   0  0  0  0  0  1  0  0  0  0  0  0
  158.2180  211.7250  153.1890 O   0  0  0  0  0  0  0  0  0  0  0  0
  159.4740  211.2100  153.5580 C   0  0  0  0  0  0  0  0  0  0  0  0
  157.6320  214.4420  153.4920 O   0  0  0  0  0  0  0  0  0  0  0  0
  161.3170  209.6810  153.0980 C   0  0  0  0  0  0  0  0  0  0  0  0
  161.9410  210.0830  154.2790 C   0  0  0  0  0  3  0  0  0  0  0  0
  1  5  1  1  0  0  0
  1 10  1  0  0  0  0
  3  9  1  0  0  0  0
  4 21  1  0  0  0  0
  4  8  2  0  0  0  0
  5  4  1  0  0  0  0
  6  8  1  0  0  0  0
  6  7  1  0  0  0  0
  9 10  1  0  0  0  0
  9 11  1  0  0  0  0
 10  6  2  0  0  0  0
 11  7  2  0  0  0  0
 12  2  2  0  0  0  0
 13 12  1  0  0  0  0
 13 14  2  0  0  0  0
 14 16  1  0  0  0  0
 15  2  1  1  0  0  0
 15 17  1  0  0  0  0
 15  3  1  0  0  0  0
 16 17  2  0  0  0  0
 17  1  1  0  0  0  0
 18 13  1  0  0  0  0
 19 18  2  0  0  0  0
 20 18  1  0  0  0  0
 21 33  1  0  0  0  0
 23 33  2  0  0  0  0
 23 31  1  0  0  0  0
 24 29  1  0  0  0  0
 25 32  2  6  0  0  0
 25 27  1  0  0  0  0
 25 24  1  0  0  0  0
 26 24  1  0  0  0  0
 28 22  1  0  0  0  0
 28 26  1  0  0  0  0
 30 31  1  0  0  0  0
 30 25  1  0  0  0  0
 31 28  2  0  0  0  0
 33 34  1  0  0  0  0
 34 22  2  0  0  0  0
M  END
>  <MODEL>
7

>  <REMARK>
 VINA RESULT:      -8.5      3.563      9.638
  Name = 
  3 active torsions:
  status: ('A' for Active; 'I' for Inactive)
    1  A    between atoms: C_3  and  C_25
    2  A    between atoms: C_8  and  O_18
    3  A    between atoms: O_18  and  C_30
                            x       y       z     vdW  Elec       q    Type
                         _______ _______ _______ _____ _____    ______ ____

>  <TORSDO>
F 3

$$$$
=
 OpenBabel11062409493D

 34 39  0  0  1  0  0  0  0  0999 V2000
  160.7350  205.0570  149.8240 C   0  0  2  0  0  3  0  0  0  0  0  0
  161.1970  203.0450  146.7570 C   0  0  0  0  0  3  0  0  0  0  0  0
  160.5410  202.2590  148.9230 C   0  0  0  0  0  2  0  0  0  0  0  0
  161.5450  206.3890  151.8170 C   0  0  0  0  0  0  0  0  0  0  0  0
  160.7630  206.4030  150.4920 C   0  0  0  0  0  2  0  0  0  0  0  0
  161.1860  204.0280  151.9850 C   0  0  0  0  0  0  0  0  0  0  0  0
  161.5820  202.7640  152.3900 C   0  0  0  0  0  3  0  0  0  0  0  0
  161.7060  205.2680  152.4780 N   0  0  0  0  0  0  0  0  0  0  0  0
  160.7290  202.6500  150.3160 N   0  0  0  0  0  0  0  0  0  0  0  0
  160.6950  203.9200  150.7260 C   0  0  0  0  0  0  0  0  0  0  0  0
  161.2780  201.9230  151.3130 C   0  0  0  0  0  3  0  0  0  0  0  0
  161.5590  203.8350  145.5800 C   0  0  0  0  0  3  0  0  0  0  0  0
  161.5000  205.1530  145.3630 C   0  0  0  0  0  0  0  0  0  0  0  0
  160.9970  206.1580  146.3210 C   0  0  0  0  0  3  0  0  0  0  0  0
  160.8820  203.4220  147.9930 C   0  0  1  0  0  3  0  0  0  0  0  0
  160.7460  206.0300  147.6170 C   0  0  0  0  0  3  0  0  0  0  0  0
  160.8470  204.8520  148.4940 C   0  0  0  0  0  0  0  0  0  0  0  0
  161.9700  205.6360  144.0500 C   0  0  0  0  0  0  0  0  0  0  0  0
  161.1970  205.4520  142.9060 O   0  0  0  0  0  0  0  0  0  0  0  0
  163.0960  206.2030  143.9490 O   0  0  0  0  0  1  0  0  0  0  0  0
  162.1190  207.5540  152.3450 O   0  0  0  0  0  0  0  0  0  0  0  0
  160.8980  211.0290  152.0920 C   0  0  0  0  0  3  0  0  0  0  0  0
  160.6610  208.8620  153.8350 C   0  0  0  0  0  3  0  0  0  0  0  0
  159.3340  212.8550  154.8170 N   0  0  0  0  0  0  0  0  0  0  0  0
  158.5160  211.6330  155.7890 P   0  0  2  0  0  0  0  0  0  0  0  0
  159.3160  212.4000  153.4310 C   0  0  0  0  0  2  0  0  0  0  0  0
  158.7630  211.8880  157.2600 O   0  0  0  0  0  1  0  0  0  0  0  0
  160.1380  211.1550  153.2590 C   0  0  0  0  0  0  0  0  0  0  0  0
  158.5690  214.0790  154.9170 C   0  0  0  0  0  1  0  0  0  0  0  0
  159.3080  210.1670  155.3580 O   0  0  0  0  0  0  0  0  0  0  0  0
  160.0340  210.0690  154.1580 C   0  0  0  0  0  0  0  0  0  0  0  0
  156.8620  211.5190  155.4520 O   0  0  0  0  0  0  0  0  0  0  0  0
  161.4380  208.7360  152.6750 C   0  0  0  0  0  0  0  0  0  0  0  0
  161.5670  209.8290  151.8190 C   0  0  0  0  0  3  0  0  0  0  0  0
  1  5  1  1  0  0  0
  1 10  1  0  0  0  0
  3  9  1  0  0  0  0
  4 21  1  0  0  0  0
  4  8  2  0  0  0  0
  5  4  1  0  0  0  0
  6  7  1  0  0  0  0
  6  8  1  0  0  0  0
  9 10  1  0  0  0  0
  9 11  1  0  0  0  0
 10  6  2  0  0  0  0
 11  7  2  0  0  0  0
 12  2  2  0  0  0  0
 13 12  1  0  0  0  0
 13 14  2  0  0  0  0
 14 16  1  0  0  0  0
 15  2  1  1  0  0  0
 15 17  1  0  0  0  0
 15  3  1  0  0  0  0
 16 17  2  0  0  0  0
 17  1  1  0  0  0  0
 18 13  1  0  0  0  0
 19 18  2  0  0  0  0
 20 18  1  0  0  0  0
 21 33  1  0  0  0  0
 22 28  1  0  0  0  0
 23 31  1  0  0  0  0
 24 29  1  0  0  0  0
 24 25  1  0  0  0  0
 25 32  2  6  0  0  0
 25 27  1  0  0  0  0
 26 24  1  0  0  0  0
 28 26  1  0  0  0  0
 28 31  2  0  0  0  0
 30 25  1  0  0  0  0
 31 30  1  0  0  0  0
 33 23  2  0  0  0  0
 34 22  2  0  0  0  0
 34 33  1  0  0  0  0
M  END
>  <MODEL>
8

>  <REMARK>
 VINA RESULT:      -8.2      3.573      9.554
  Name = 
  3 active torsions:
  status: ('A' for Active; 'I' for Inactive)
    1  A    between atoms: C_3  and  C_25
    2  A    between atoms: C_8  and  O_18
    3  A    between atoms: O_18  and  C_30
                            x       y       z     vdW  Elec       q    Type
                         _______ _______ _______ _____ _____    ______ ____

>  <TORSDO>
F 3

$$$$
=
 OpenBabel11062409493D

 34 39  0  0  1  0  0  0  0  0999 V2000
  162.1890  209.2280  151.0010 C   0  0  2  0  0  3  0  0  0  0  0  0
  161.0680  207.1660  153.8580 C   0  0  0  0  0  3  0  0  0  0  0  0
  161.8930  206.3930  151.7450 C   0  0  0  0  0  2  0  0  0  0  0  0
  161.8320  210.7460  149.0090 C   0  0  0  0  0  0  0  0  0  0  0  0
  162.4280  210.5930  150.4200 C   0  0  0  0  0  2  0  0  0  0  0  0
  161.8950  208.3680  148.7420 C   0  0  0  0  0  0  0  0  0  0  0  0
  161.3930  207.1900  148.2140 C   0  0  0  0  0  3  0  0  0  0  0  0
  161.6120  209.6890  148.2660 N   0  0  0  0  0  0  0  0  0  0  0  0
  161.9430  206.8680  150.3670 N   0  0  0  0  0  0  0  0  0  0  0  0
  162.1970  208.1380  150.0430 C   0  0  0  0  0  0  0  0  0  0  0  0
  161.4390  206.2690  149.2670 C   0  0  0  0  0  3  0  0  0  0  0  0
  160.6610  207.9450  155.0270 C   0  0  0  0  0  2  0  0  0  0  0  0
  160.8650  209.2320  155.3300 C   0  0  0  0  0  0  0  0  0  0  0  0
  161.6170  210.1980  154.5060 C   0  0  0  0  0  3  0  0  0  0  0  0
  161.5890  207.5500  152.6960 C   0  0  0  0  0  0  0  0  0  0  0  0
  162.0180  210.0950  153.2460 C   0  0  0  0  0  3  0  0  0  0  0  0
  161.8780  208.9820  152.2920 C   0  0  0  0  0  0  0  0  0  0  0  0
  160.2940  209.7170  156.6020 C   0  0  0  0  0  0  0  0  0  0  0  0
  160.7060  210.9290  157.1510 O   0  0  0  0  0  0  0  0  0  0  0  0
  159.4390  209.0190  157.2200 O   0  0  0  0  0  1  0  0  0  0  0  0
  161.4910  212.0010  148.4870 O   0  0  0  0  0  0  0  0  0  0  0  0
  162.8750  213.3860  145.3570 C   0  0  0  0  0  3  0  0  0  0  0  0
  160.5070  212.2030  146.2400 C   0  0  0  0  0  3  0  0  0  0  0  0
  160.9000  214.1570  142.4060 N   0  0  0  0  0  0  0  0  0  0  0  0
  159.5670  213.0030  142.4230 P   0  0  2  0  0  0  0  0  0  0  0  0
  162.0540  213.5040  143.0140 C   0  0  0  0  0  2  0  0  0  0  0  0
  158.2680  213.7050  142.0900 O   0  0  0  0  0  1  0  0  0  0  0  0
  161.8100  213.2160  144.4690 C   0  0  0  0  0  0  0  0  0  0  0  0
  161.2060  214.4530  141.0230 C   0  0  0  0  0  1  0  0  0  0  0  0
  159.4930  212.4840  144.0620 O   0  0  0  0  0  0  0  0  0  0  0  0
  160.5980  212.6400  144.9160 C   0  0  0  0  0  0  0  0  0  0  0  0
  159.8290  211.6760  141.4060 O   0  0  0  0  0  0  0  0  0  0  0  0
  161.5670  212.3860  147.1400 C   0  0  0  0  0  0  0  0  0  0  0  0
  162.7400  212.9940  146.6950 C   0  0  0  0  0  3  0  0  0  0  0  0
  1  5  1  6  0  0  0
  1 17  1  0  0  0  0
  2 12  1  0  0  0  0
  3 15  1  0  0  0  0
  4  5  1  0  0  0  0
  6 10  2  0  0  0  0
  7  6  1  0  0  0  0
  7 11  2  0  0  0  0
  8  6  1  0  0  0  0
  8  4  2  0  0  0  0
  9  3  1  0  0  0  0
 10  9  1  0  0  0  0
 10  1  1  0  0  0  0
 11  9  1  0  0  0  0
 12 13  1  0  0  0  0
 13 18  1  0  0  0  0
 14 13  2  0  0  0  0
 15  2  2  0  0  0  0
 16 14  1  0  0  0  0
 17 15  1  0  0  0  0
 17 16  2  0  0  0  0
 18 19  2  0  0  0  0
 18 20  1  0  0  0  0
 21  4  1  0  0  0  0
 22 34  1  0  0  0  0
 23 33  1  0  0  0  0
 24 25  1  0  0  0  0
 24 26  1  0  0  0  0
 25 32  2  6  0  0  0
 25 30  1  0  0  0  0
 26 28  1  0  0  0  0
 27 25  1  0  0  0  0
 28 31  1  0  0  0  0
 28 22  2  0  0  0  0
 29 24  1  0  0  0  0
 30 31  1  0  0  0  0
 31 23  2  0  0  0  0
 33 21  1  0  0  0  0
 34 33  2  0  0  0  0
M  END
>  <MODEL>
9

>  <REMARK>
 VINA RESULT:      -8.2      5.762      7.788
  Name = 
  3 active torsions:
  status: ('A' for Active; 'I' for Inactive)
    1  A    between atoms: C_3  and  C_25
    2  A    between atoms: C_8  and  O_18
    3  A    between atoms: O_18  and  C_30
                            x       y       z     vdW  Elec       q    Type
                         _______ _______ _______ _____ _____    ______ ____

>  <TORSDO>
F 3

$$$$
