=
 OpenBabel11062408153D

 32 36  0  0  1  0  0  0  0  0999 V2000
  161.6330  210.7630  151.2350 C   0  0  0  0  0  0  0  0  0  0  0  0
  160.6860  211.3800  153.4770 C   0  0  1  0  0  3  0  0  0  0  0  0
  162.1440  211.2020  150.1690 O   0  0  0  0  0  0  0  0  0  0  0  0
  160.7290  211.5730  152.0190 N   0  0  0  0  0  0  0  0  0  0  0  0
  159.2220  211.1910  153.9250 C   0  0  1  0  0  3  0  0  0  0  0  0
  161.3660  208.1480  157.2200 C   0  0  0  0  0  2  0  0  0  0  0  0
  161.5630  210.1920  153.9330 C   0  0  2  0  0  3  0  0  0  0  0  0
  159.3980  209.2440  156.9690 C   0  0  0  0  0  2  0  0  0  0  0  0
  159.6970  209.7100  155.5460 C   0  0  1  0  0  3  0  0  0  0  0  0
  159.9070  212.6760  151.4740 C   0  0  2  0  0  3  0  0  0  0  0  0
  159.1320  210.9750  155.3120 O   0  0  0  0  0  0  0  0  0  0  0  0
  158.4600  212.5850  151.9870 C   0  0  0  0  0  2  0  0  0  0  0  0
  161.3850  209.0730  153.0100 N   0  0  0  0  0  2  0  0  0  0  0  0
  162.0500  209.4060  151.7470 C   0  0  1  0  0  3  0  0  0  0  0  0
  161.2170  209.7960  155.3720 C   0  0  1  0  0  3  0  0  0  0  0  0
  158.3800  212.3970  153.5040 C   0  0  2  0  0  3  0  0  0  0  0  0
  159.9690  207.9730  157.1800 O   0  0  0  0  0  0  0  0  0  0  0  0
  161.8950  208.5060  155.8290 C   0  0  0  0  0  2  0  0  0  0  0  0
  161.2580  206.0360  150.1080 C   0  0  0  0  0  0  0  0  0  0  0  0
  160.9000  204.3420  150.5920 S   0  0  0  0  0  1  0  0  0  0  0  0
  161.5680  207.7290  148.3950 C   0  0  0  0  0  3  0  0  0  0  0  0
  161.7860  208.3340  150.7300 C   0  0  0  0  0  0  0  0  0  0  0  0
  161.2970  206.4040  148.7500 C   0  0  0  0  0  0  0  0  0  0  0  0
  161.8120  208.6860  149.3790 C   0  0  0  0  0  3  0  0  0  0  0  0
  161.5070  207.0020  151.0990 C   0  0  0  0  0  0  0  0  0  0  0  0
  161.4750  206.6400  152.4430 O   0  0  0  0  0  1  0  0  0  0  0  0
  160.6720  206.0940  146.4920 O   0  0  0  0  0  1  0  0  0  0  0  0
  161.0180  205.4190  147.6630 C   0  0  0  0  0  2  0  0  0  0  0  0
  158.7910  213.6700  154.2420 C   0  0  0  0  0  2  0  0  0  0  0  0
  157.7690  214.0740  155.1000 O   0  0  0  0  0  1  0  0  0  0  0  0
  159.8860  212.7580  149.9470 C   0  0  0  0  0  2  0  0  0  0  0  0
  160.4270  213.9680  149.5050 O   0  0  0  0  0  1  0  0  0  0  0  0
  1 14  1  0  0  0  0
  1  4  1  0  0  0  0
  2  4  1  6  0  0  0
  2  5  1  0  0  0  0
  2  7  1  0  0  0  0
  3  1  2  0  0  0  0
  5 11  1  1  0  0  0
  7 13  1  6  0  0  0
  7 15  1  0  0  0  0
  8 17  1  0  0  0  0
  9  8  1  1  0  0  0
 10 31  1  6  0  0  0
 10 12  1  0  0  0  0
 10  4  1  0  0  0  0
 11  9  1  0  0  0  0
 12 16  1  0  0  0  0
 14 22  1  6  0  0  0
 14 13  1  0  0  0  0
 15  9  1  0  0  0  0
 15 18  1  6  0  0  0
 16  5  1  0  0  0  0
 16 29  1  1  0  0  0
 17  6  1  0  0  0  0
 18  6  1  0  0  0  0
 19 20  1  0  0  0  0
 19 25  1  0  0  0  0
 21 23  1  0  0  0  0
 21 24  2  0  0  0  0
 22 25  2  0  0  0  0
 23 19  2  0  0  0  0
 24 22  1  0  0  0  0
 25 26  1  0  0  0  0
 27 28  1  0  0  0  0
 28 23  1  0  0  0  0
 29 30  1  0  0  0  0
 32 31  1  0  0  0  0
M  END
>  <MODEL>
1

>  <REMARK>
 VINA RESULT:      -6.4      0.000      0.000
  Name = 
  4 active torsions:
  status: ('A' for Active; 'I' for Inactive)
    1  A    between atoms: C_13  and  C_29
    2  A    between atoms: CA_14  and  C_21
    3  A    between atoms: C_16  and  CA_27
    4  A    between atoms: C_19  and  C_26
                            x       y       z     vdW  Elec       q    Type
                         _______ _______ _______ _____ _____    ______ ____

>  <TORSDO>
F 4

$$$$
=
 OpenBabel11062408153D

 32 36  0  0  1  0  0  0  0  0999 V2000
  161.0270  209.8500  154.9110 C   0  0  0  0  0  0  0  0  0  0  0  0
  161.9360  208.5690  152.9520 C   0  0  1  0  0  3  0  0  0  0  0  0
  161.0580  209.9870  156.1640 O   0  0  0  0  0  0  0  0  0  0  0  0
  161.3260  208.5800  154.2910 N   0  0  0  0  0  0  0  0  0  0  0  0
  161.1290  207.6320  152.0300 C   0  0  1  0  0  3  0  0  0  0  0  0
  162.4210  211.0240  148.6330 C   0  0  0  0  0  2  0  0  0  0  0  0
  162.0390  209.9870  152.3480 C   0  0  2  0  0  3  0  0  0  0  0  0
  161.6780  208.8840  148.6800 C   0  0  0  0  0  2  0  0  0  0  0  0
  161.4060  208.8800  150.1820 C   0  0  1  0  0  3  0  0  0  0  0  0
  161.1620  207.2670  154.9530 C   0  0  2  0  0  3  0  0  0  0  0  0
  161.6600  207.6100  150.7270 O   0  0  0  0  0  0  0  0  0  0  0  0
  160.4570  206.2670  154.0210 C   0  0  0  0  0  2  0  0  0  0  0  0
  160.8040  210.7220  152.6180 N   0  0  0  0  0  2  0  0  0  0  0  0
  160.7700  211.0580  154.0430 C   0  0  1  0  0  3  0  0  0  0  0  0
  162.3300  209.9070  150.8460 C   0  0  1  0  0  3  0  0  0  0  0  0
  161.0770  206.2220  152.6220 C   0  0  2  0  0  3  0  0  0  0  0  0
  161.4130  210.1630  148.1550 O   0  0  0  0  0  0  0  0  0  0  0  0
  162.2480  211.2570  150.1360 C   0  0  0  0  0  2  0  0  0  0  0  0
  158.0940  213.2410  155.7000 C   0  0  0  0  0  0  0  0  0  0  0  0
  157.9580  214.4530  157.0210 S   0  0  0  0  0  1  0  0  0  0  0  0
  157.0960  211.9340  153.9140 C   0  0  0  0  0  3  0  0  0  0  0  0
  159.4610  211.7070  154.3860 C   0  0  0  0  0  0  0  0  0  0  0  0
  156.9660  212.8700  154.9430 C   0  0  0  0  0  0  0  0  0  0  0  0
  158.3340  211.3550  153.6390 C   0  0  0  0  0  3  0  0  0  0  0  0
  159.3410  212.6550  155.4230 C   0  0  0  0  0  0  0  0  0  0  0  0
  160.4580  213.0160  156.1720 O   0  0  0  0  0  1  0  0  0  0  0  0
  155.2410  214.2310  154.0740 O   0  0  0  0  0  1  0  0  0  0  0  0
  155.6250  213.4810  155.1860 C   0  0  0  0  0  2  0  0  0  0  0  0
  162.4520  205.5580  152.6470 C   0  0  0  0  0  2  0  0  0  0  0  0
  162.5150  204.5570  151.6790 O   0  0  0  0  0  1  0  0  0  0  0  0
  160.4120  207.3150  156.2850 C   0  0  0  0  0  2  0  0  0  0  0  0
  159.0730  206.9550  156.1170 O   0  0  0  0  0  1  0  0  0  0  0  0
  1  3  2  0  0  0  0
  2  4  1  1  0  0  0
  4  1  1  0  0  0  0
  4 10  1  0  0  0  0
  5 11  1  6  0  0  0
  5 16  1  0  0  0  0
  5  2  1  0  0  0  0
  6 18  1  0  0  0  0
  7 13  1  6  0  0  0
  7  2  1  0  0  0  0
  9  8  1  6  0  0  0
  9 11  1  0  0  0  0
  9 15  1  0  0  0  0
 10 31  1  1  0  0  0
 12 10  1  0  0  0  0
 13 14  1  0  0  0  0
 14 22  1  1  0  0  0
 14  1  1  0  0  0  0
 15 18  1  6  0  0  0
 15  7  1  0  0  0  0
 16 29  1  1  0  0  0
 16 12  1  0  0  0  0
 17  6  1  0  0  0  0
 17  8  1  0  0  0  0
 19 20  1  0  0  0  0
 21 23  1  0  0  0  0
 22 25  2  0  0  0  0
 23 28  1  0  0  0  0
 23 19  2  0  0  0  0
 24 21  2  0  0  0  0
 24 22  1  0  0  0  0
 25 19  1  0  0  0  0
 25 26  1  0  0  0  0
 27 28  1  0  0  0  0
 30 29  1  0  0  0  0
 32 31  1  0  0  0  0
M  END
>  <MODEL>
2

>  <REMARK>
 VINA RESULT:      -6.1      3.011      7.695
  Name = 
  4 active torsions:
  status: ('A' for Active; 'I' for Inactive)
    1  A    between atoms: C_13  and  C_29
    2  A    between atoms: CA_14  and  C_21
    3  A    between atoms: C_16  and  CA_27
    4  A    between atoms: C_19  and  C_26
                            x       y       z     vdW  Elec       q    Type
                         _______ _______ _______ _____ _____    ______ ____

>  <TORSDO>
F 4

$$$$
=
 OpenBabel11062408153D

 32 36  0  0  1  0  0  0  0  0999 V2000
  162.2220  209.3280  152.2930 C   0  0  0  0  0  0  0  0  0  0  0  0
  162.1020  206.9810  151.4070 C   0  0  1  0  0  3  0  0  0  0  0  0
  162.6520  210.0630  153.2220 O   0  0  0  0  0  0  0  0  0  0  0  0
  161.9360  207.9290  152.5190 N   0  0  0  0  0  0  0  0  0  0  0  0
  160.8220  206.1320  151.2630 C   0  0  1  0  0  3  0  0  0  0  0  0
  162.0340  206.4040  146.4490 C   0  0  0  0  0  2  0  0  0  0  0  0
  162.4450  207.6950  150.0810 C   0  0  2  0  0  3  0  0  0  0  0  0
  160.7310  205.1220  147.7900 C   0  0  0  0  0  2  0  0  0  0  0  0
  160.9150  206.0050  149.0220 C   0  0  1  0  0  3  0  0  0  0  0  0
  161.5850  207.3500  153.8350 C   0  0  2  0  0  3  0  0  0  0  0  0
  160.9230  205.2260  150.1910 O   0  0  0  0  0  0  0  0  0  0  0  0
  160.3760  206.4070  153.7130 C   0  0  0  0  0  2  0  0  0  0  0  0
  161.6200  208.8930  149.9440 N   0  0  0  0  0  2  0  0  0  0  0  0
  162.1000  209.8950  150.9000 C   0  0  1  0  0  3  0  0  0  0  0  0
  162.2540  206.7410  148.8970 C   0  0  1  0  0  3  0  0  0  0  0  0
  160.5230  205.3980  152.5720 C   0  0  2  0  0  3  0  0  0  0  0  0
  160.7220  205.9230  146.6310 O   0  0  0  0  0  0  0  0  0  0  0  0
  162.3790  207.4240  147.5370 C   0  0  0  0  0  2  0  0  0  0  0  0
  160.3720  213.1490  149.8550 C   0  0  0  0  0  0  0  0  0  0  0  0
  160.4290  214.3470  148.5150 S   0  0  0  0  0  1  0  0  0  0  0  0
  159.4350  212.3600  151.9510 C   0  0  0  0  0  3  0  0  0  0  0  0
  161.2010  211.0970  150.8780 C   0  0  0  0  0  0  0  0  0  0  0  0
  159.4700  213.3080  150.9250 C   0  0  0  0  0  0  0  0  0  0  0  0
  160.2950  211.2630  151.9290 C   0  0  0  0  0  3  0  0  0  0  0  0
  161.2400  212.0450  149.8340 C   0  0  0  0  0  0  0  0  0  0  0  0
  162.1370  211.8880  148.7810 O   0  0  0  0  0  1  0  0  0  0  0  0
  157.2410  213.9880  151.3120 O   0  0  0  0  0  1  0  0  0  0  0  0
  158.5140  214.4530  150.9800 C   0  0  0  0  0  2  0  0  0  0  0  0
  161.5830  204.3470  152.8950 C   0  0  0  0  0  2  0  0  0  0  0  0
  161.1670  203.0960  152.4420 O   0  0  0  0  0  1  0  0  0  0  0  0
  161.3000  208.3810  154.9280 C   0  0  0  0  0  2  0  0  0  0  0  0
  160.0340  208.1830  155.4840 O   0  0  0  0  0  1  0  0  0  0  0  0
  1  4  1  0  0  0  0
  1  3  2  0  0  0  0
  2  4  1  1  0  0  0
  4 10  1  0  0  0  0
  5 11  1  6  0  0  0
  5  2  1  0  0  0  0
  5 16  1  0  0  0  0
  6 17  1  0  0  0  0
  6 18  1  0  0  0  0
  7 13  1  6  0  0  0
  7  2  1  0  0  0  0
  9  8  1  6  0  0  0
  9 11  1  0  0  0  0
 10 31  1  1  0  0  0
 12 10  1  0  0  0  0
 13 14  1  0  0  0  0
 14 22  1  1  0  0  0
 14  1  1  0  0  0  0
 15 18  1  6  0  0  0
 15  9  1  0  0  0  0
 15  7  1  0  0  0  0
 16 29  1  1  0  0  0
 16 12  1  0  0  0  0
 17  8  1  0  0  0  0
 19 23  1  0  0  0  0
 20 19  1  0  0  0  0
 22 24  2  0  0  0  0
 23 28  1  0  0  0  0
 23 21  2  0  0  0  0
 24 21  1  0  0  0  0
 25 19  2  0  0  0  0
 25 22  1  0  0  0  0
 26 25  1  0  0  0  0
 28 27  1  0  0  0  0
 30 29  1  0  0  0  0
 31 32  1  0  0  0  0
M  END
>  <MODEL>
3

>  <REMARK>
 VINA RESULT:      -5.6      2.616      7.352
  Name = 
  4 active torsions:
  status: ('A' for Active; 'I' for Inactive)
    1  A    between atoms: C_13  and  C_29
    2  A    between atoms: CA_14  and  C_21
    3  A    between atoms: C_16  and  CA_27
    4  A    between atoms: C_19  and  C_26
                            x       y       z     vdW  Elec       q    Type
                         _______ _______ _______ _____ _____    ______ ____

>  <TORSDO>
F 4

$$$$
=
 OpenBabel11062408153D

 32 36  0  0  1  0  0  0  0  0999 V2000
  161.5820  209.4280  152.6580 C   0  0  0  0  0  0  0  0  0  0  0  0
  162.1730  209.4280  150.2170 C   0  0  1  0  0  3  0  0  0  0  0  0
  161.8110  208.9010  153.7800 O   0  0  0  0  0  0  0  0  0  0  0  0
  161.7850  208.6920  151.4310 N   0  0  0  0  0  0  0  0  0  0  0  0
  161.2350  209.0340  149.0590 C   0  0  1  0  0  3  0  0  0  0  0  0
  161.9490  213.7920  147.8040 C   0  0  0  0  0  2  0  0  0  0  0  0
  162.1700  210.9570  150.4380 C   0  0  2  0  0  3  0  0  0  0  0  0
  161.2350  211.8780  146.8210 C   0  0  0  0  0  2  0  0  0  0  0  0
  161.2060  211.0750  148.1200 C   0  0  1  0  0  3  0  0  0  0  0  0
  161.7360  207.2180  151.3220 C   0  0  2  0  0  3  0  0  0  0  0  0
  161.5510  209.7350  147.8790 O   0  0  0  0  0  0  0  0  0  0  0  0
  160.8970  206.7850  150.1090 C   0  0  0  0  0  2  0  0  0  0  0  0
  160.9910  211.3350  151.2140 N   0  0  0  0  0  2  0  0  0  0  0  0
  161.1820  210.8830  152.5940 C   0  0  1  0  0  3  0  0  0  0  0  0
  162.2190  211.6900  149.0930 C   0  0  1  0  0  3  0  0  0  0  0  0
  161.2860  207.5230  148.8260 C   0  0  2  0  0  3  0  0  0  0  0  0
  160.8820  213.2160  147.0850 O   0  0  0  0  0  0  0  0  0  0  0  0
  162.0170  213.1990  149.2140 C   0  0  0  0  0  2  0  0  0  0  0  0
  158.7940  211.6650  155.4840 C   0  0  0  0  0  0  0  0  0  0  0  0
  158.8650  212.0220  157.2450 S   0  0  0  0  0  1  0  0  0  0  0  0
  157.5290  211.3560  153.4360 C   0  0  0  0  0  3  0  0  0  0  0  0
  159.9410  211.1430  153.3970 C   0  0  0  0  0  0  0  0  0  0  0  0
  157.5610  211.6250  154.8070 C   0  0  0  0  0  0  0  0  0  0  0  0
  158.7100  211.1150  152.7360 C   0  0  0  0  0  3  0  0  0  0  0  0
  159.9850  211.4200  154.7790 C   0  0  0  0  0  0  0  0  0  0  0  0
  161.2060  211.4530  155.4470 O   0  0  0  0  0  1  0  0  0  0  0  0
  155.4320  210.7920  155.4040 O   0  0  0  0  0  1  0  0  0  0  0  0
  156.2720  211.9000  155.5090 C   0  0  0  0  0  2  0  0  0  0  0  0
  162.6500  207.0660  148.3160 C   0  0  0  0  0  2  0  0  0  0  0  0
  162.4900  206.1970  147.2370 O   0  0  0  0  0  1  0  0  0  0  0  0
  161.2080  206.5060  152.5690 C   0  0  0  0  0  2  0  0  0  0  0  0
  161.4140  205.1260  152.4810 O   0  0  0  0  0  1  0  0  0  0  0  0
  1  3  2  0  0  0  0
  2  7  1  0  0  0  0
  2  4  1  1  0  0  0
  4  1  1  0  0  0  0
  5 11  1  6  0  0  0
  5  2  1  0  0  0  0
  6 18  1  0  0  0  0
  7 13  1  6  0  0  0
  8 17  1  0  0  0  0
  9  8  1  6  0  0  0
  9 15  1  0  0  0  0
 10  4  1  0  0  0  0
 10 31  1  1  0  0  0
 11  9  1  0  0  0  0
 12 10  1  0  0  0  0
 13 14  1  0  0  0  0
 14  1  1  0  0  0  0
 14 22  1  1  0  0  0
 15 18  1  1  0  0  0
 15  7  1  0  0  0  0
 16 29  1  1  0  0  0
 16  5  1  0  0  0  0
 16 12  1  0  0  0  0
 17  6  1  0  0  0  0
 19 20  1  0  0  0  0
 21 23  2  0  0  0  0
 22 25  1  0  0  0  0
 23 19  1  0  0  0  0
 23 28  1  0  0  0  0
 24 22  2  0  0  0  0
 24 21  1  0  0  0  0
 25 26  1  0  0  0  0
 25 19  2  0  0  0  0
 27 28  1  0  0  0  0
 30 29  1  0  0  0  0
 32 31  1  0  0  0  0
M  END
>  <MODEL>
4

>  <REMARK>
 VINA RESULT:      -5.0      2.802      7.671
  Name = 
  4 active torsions:
  status: ('A' for Active; 'I' for Inactive)
    1  A    between atoms: C_13  and  C_29
    2  A    between atoms: CA_14  and  C_21
    3  A    between atoms: C_16  and  CA_27
    4  A    between atoms: C_19  and  C_26
                            x       y       z     vdW  Elec       q    Type
                         _______ _______ _______ _____ _____    ______ ____

>  <TORSDO>
F 4

$$$$
=
 OpenBabel11062408153D

 32 36  0  0  1  0  0  0  0  0999 V2000
  162.0280  210.0160  150.6830 C   0  0  0  0  0  0  0  0  0  0  0  0
  160.5910  211.7320  151.8220 C   0  0  1  0  0  3  0  0  0  0  0  0
  163.0470  209.8310  149.9640 O   0  0  0  0  0  0  0  0  0  0  0  0
  161.2810  211.2520  150.6150 N   0  0  0  0  0  0  0  0  0  0  0  0
  159.1230  212.0560  151.4770 C   0  0  1  0  0  3  0  0  0  0  0  0
  158.4110  210.4100  156.1140 C   0  0  0  0  0  2  0  0  0  0  0  0
  160.6760  210.7160  152.9830 C   0  0  2  0  0  3  0  0  0  0  0  0
  157.3020  211.6530  154.5780 C   0  0  0  0  0  2  0  0  0  0  0  0
  158.2970  211.3770  153.4530 C   0  0  1  0  0  3  0  0  0  0  0  0
  161.2430  212.1420  149.4340 C   0  0  2  0  0  3  0  0  0  0  0  0
  158.4130  212.4950  152.6110 O   0  0  0  0  0  0  0  0  0  0  0  0
  159.8020  212.5790  149.1230 C   0  0  0  0  0  2  0  0  0  0  0  0
  160.4580  209.3660  152.4670 N   0  0  0  0  0  2  0  0  0  0  0  0
  161.6420  208.9700  151.6990 C   0  0  1  0  0  3  0  0  0  0  0  0
  159.6630  211.0710  154.0770 C   0  0  1  0  0  3  0  0  0  0  0  0
  159.0600  213.0970  150.3570 C   0  0  2  0  0  3  0  0  0  0  0  0
  157.1980  210.5190  155.4060 O   0  0  0  0  0  0  0  0  0  0  0  0
  159.5430  210.0060  155.1650 C   0  0  0  0  0  2  0  0  0  0  0  0
  161.1430  205.2150  151.1340 C   0  0  0  0  0  0  0  0  0  0  0  0
  161.0950  203.6930  152.0900 S   0  0  0  0  0  1  0  0  0  0  0  0
  160.9890  206.3910  149.0160 C   0  0  0  0  0  3  0  0  0  0  0  0
  161.4090  207.6370  151.0490 C   0  0  0  0  0  0  0  0  0  0  0  0
  160.9580  205.1950  149.7380 C   0  0  0  0  0  0  0  0  0  0  0  0
  161.2150  207.6030  149.6660 C   0  0  0  0  0  3  0  0  0  0  0  0
  161.3730  206.4370  151.7890 C   0  0  0  0  0  0  0  0  0  0  0  0
  161.5630  206.4600  153.1680 O   0  0  0  0  0  1  0  0  0  0  0  0
  161.5620  203.8130  147.9190 O   0  0  0  0  0  1  0  0  0  0  0  0
  160.6890  203.9250  149.0020 C   0  0  0  0  0  2  0  0  0  0  0  0
  159.6030  214.4530  150.8010 C   0  0  0  0  0  2  0  0  0  0  0  0
  160.9970  214.4300  150.8040 O   0  0  0  0  0  1  0  0  0  0  0  0
  161.8640  211.5480  148.1690 C   0  0  0  0  0  2  0  0  0  0  0  0
  162.9420  212.3210  147.7310 O   0  0  0  0  0  1  0  0  0  0  0  0
  1 14  1  0  0  0  0
  2  4  1  6  0  0  0
  2  7  1  0  0  0  0
  3  1  2  0  0  0  0
  4  1  1  0  0  0  0
  5  2  1  0  0  0  0
  5 11  1  1  0  0  0
  7 13  1  6  0  0  0
  7 15  1  0  0  0  0
  8 17  1  0  0  0  0
  9 15  1  0  0  0  0
  9  8  1  1  0  0  0
 10 31  1  6  0  0  0
 10  4  1  0  0  0  0
 11  9  1  0  0  0  0
 12 10  1  0  0  0  0
 12 16  1  0  0  0  0
 14 22  1  6  0  0  0
 14 13  1  0  0  0  0
 15 18  1  1  0  0  0
 16 29  1  1  0  0  0
 16  5  1  0  0  0  0
 17  6  1  0  0  0  0
 18  6  1  0  0  0  0
 19 25  1  0  0  0  0
 19 20  1  0  0  0  0
 21 24  2  0  0  0  0
 21 23  1  0  0  0  0
 22 25  2  0  0  0  0
 23 19  2  0  0  0  0
 24 22  1  0  0  0  0
 25 26  1  0  0  0  0
 27 28  1  0  0  0  0
 28 23  1  0  0  0  0
 29 30  1  0  0  0  0
 32 31  1  0  0  0  0
M  END
>  <MODEL>
5

>  <REMARK>
 VINA RESULT:      -4.9      1.752      2.599
  Name = 
  4 active torsions:
  status: ('A' for Active; 'I' for Inactive)
    1  A    between atoms: C_13  and  C_29
    2  A    between atoms: CA_14  and  C_21
    3  A    between atoms: C_16  and  CA_27
    4  A    between atoms: C_19  and  C_26
                            x       y       z     vdW  Elec       q    Type
                         _______ _______ _______ _____ _____    ______ ____

>  <TORSDO>
F 4

$$$$
=
 OpenBabel11062408153D

 32 36  0  0  1  0  0  0  0  0999 V2000
  161.6160  210.4490  150.9100 C   0  0  0  0  0  0  0  0  0  0  0  0
  160.7570  211.4510  153.0460 C   0  0  1  0  0  3  0  0  0  0  0  0
  162.1140  210.6930  149.7780 O   0  0  0  0  0  0  0  0  0  0  0  0
  160.7660  211.4100  151.5760 N   0  0  0  0  0  0  0  0  0  0  0  0
  159.3000  211.3960  153.5500 C   0  0  1  0  0  3  0  0  0  0  0  0
  161.4190  208.8250  157.2390 C   0  0  0  0  0  2  0  0  0  0  0  0
  161.6000  210.3150  153.6660 C   0  0  2  0  0  3  0  0  0  0  0  0
  159.4870  209.9480  156.8600 C   0  0  0  0  0  2  0  0  0  0  0  0
  159.7630  210.1710  155.3750 C   0  0  1  0  0  3  0  0  0  0  0  0
  159.9710  212.4450  150.8800 C   0  0  2  0  0  3  0  0  0  0  0  0
  159.2400  211.4060  154.9560 O   0  0  0  0  0  0  0  0  0  0  0  0
  158.5370  212.4980  151.4320 C   0  0  0  0  0  2  0  0  0  0  0  0
  161.3540  209.0720  152.9360 N   0  0  0  0  0  2  0  0  0  0  0  0
  161.9960  209.1730  151.6230 C   0  0  1  0  0  3  0  0  0  0  0  0
  161.2800  210.1650  155.1570 C   0  0  1  0  0  3  0  0  0  0  0  0
  158.4920  212.5550  152.9610 C   0  0  2  0  0  3  0  0  0  0  0  0
  160.0150  208.7050  157.2580 O   0  0  0  0  0  0  0  0  0  0  0  0
  161.9220  208.9370  155.7980 C   0  0  0  0  0  2  0  0  0  0  0  0
  161.6080  206.7520  148.6810 C   0  0  0  0  0  0  0  0  0  0  0  0
  161.9590  206.6900  146.9190 S   0  0  0  0  0  1  0  0  0  0  0  0
  160.7570  205.7220  150.7090 C   0  0  0  0  0  3  0  0  0  0  0  0
  161.6640  207.9670  150.7950 C   0  0  0  0  0  0  0  0  0  0  0  0
  161.0120  205.6570  149.3360 C   0  0  0  0  0  0  0  0  0  0  0  0
  161.0790  206.8690  151.4320 C   0  0  0  0  0  3  0  0  0  0  0  0
  161.9300  207.9090  149.4110 C   0  0  0  0  0  0  0  0  0  0  0  0
  162.5150  208.9950  148.7660 O   0  0  0  0  0  1  0  0  0  0  0  0
  160.9700  203.2960  149.4070 O   0  0  0  0  0  1  0  0  0  0  0  0
  160.6720  204.3990  148.6070 C   0  0  0  0  0  2  0  0  0  0  0  0
  158.9710  213.9100  153.4790 C   0  0  0  0  0  2  0  0  0  0  0  0
  158.0220  214.4520  154.3440 O   0  0  0  0  0  1  0  0  0  0  0  0
  159.9110  212.2870  149.3600 C   0  0  0  0  0  2  0  0  0  0  0  0
  160.4620  213.3990  148.7190 O   0  0  0  0  0  1  0  0  0  0  0  0
  1  4  1  0  0  0  0
  1 14  1  0  0  0  0
  2  4  1  6  0  0  0
  2  5  1  0  0  0  0
  2  7  1  0  0  0  0
  3  1  2  0  0  0  0
  5 11  1  1  0  0  0
  6 17  1  0  0  0  0
  7 13  1  6  0  0  0
  7 15  1  0  0  0  0
  8 17  1  0  0  0  0
  9  8  1  1  0  0  0
 10 31  1  6  0  0  0
 10 12  1  0  0  0  0
 10  4  1  0  0  0  0
 11  9  1  0  0  0  0
 12 16  1  0  0  0  0
 14 22  1  6  0  0  0
 14 13  1  0  0  0  0
 15  9  1  0  0  0  0
 15 18  1  6  0  0  0
 16 29  1  1  0  0  0
 16  5  1  0  0  0  0
 18  6  1  0  0  0  0
 19 23  2  0  0  0  0
 19 25  1  0  0  0  0
 20 19  1  0  0  0  0
 21 24  2  0  0  0  0
 22 24  1  0  0  0  0
 23 21  1  0  0  0  0
 25 22  2  0  0  0  0
 26 25  1  0  0  0  0
 28 23  1  0  0  0  0
 28 27  1  0  0  0  0
 29 30  1  0  0  0  0
 32 31  1  0  0  0  0
M  END
>  <MODEL>
6

>  <REMARK>
 VINA RESULT:      -4.6      1.476      1.699
  Name = 
  4 active torsions:
  status: ('A' for Active; 'I' for Inactive)
    1  A    between atoms: C_13  and  C_29
    2  A    between atoms: CA_14  and  C_21
    3  A    between atoms: C_16  and  CA_27
    4  A    between atoms: C_19  and  C_26
                            x       y       z     vdW  Elec       q    Type
                         _______ _______ _______ _____ _____    ______ ____

>  <TORSDO>
F 4

$$$$
=
 OpenBabel11062408153D

 32 36  0  0  1  0  0  0  0  0999 V2000
  161.8100  209.5350  153.1760 C   0  0  0  0  0  0  0  0  0  0  0  0
  161.9840  207.3220  152.0010 C   0  0  1  0  0  3  0  0  0  0  0  0
  162.1680  210.2050  154.1820 O   0  0  0  0  0  0  0  0  0  0  0  0
  161.7300  208.0930  153.2280 N   0  0  0  0  0  0  0  0  0  0  0  0
  160.8310  206.3230  151.7770 C   0  0  1  0  0  3  0  0  0  0  0  0
  161.8070  207.3560  147.0130 C   0  0  0  0  0  2  0  0  0  0  0  0
  162.1740  208.2360  150.7700 C   0  0  2  0  0  3  0  0  0  0  0  0
  160.7490  205.7460  148.2050 C   0  0  0  0  0  2  0  0  0  0  0  0
  160.8550  206.4880  149.5360 C   0  0  1  0  0  3  0  0  0  0  0  0
  161.5140  207.3120  154.4660 C   0  0  2  0  0  3  0  0  0  0  0  0
  161.0160  205.5800  150.5960 O   0  0  0  0  0  0  0  0  0  0  0  0
  160.4450  206.2270  154.2500 C   0  0  0  0  0  2  0  0  0  0  0  0
  161.1840  209.3110  150.8040 N   0  0  0  0  0  2  0  0  0  0  0  0
  161.5560  210.2460  151.8690 C   0  0  1  0  0  3  0  0  0  0  0  0
  162.0720  207.4180  149.4780 C   0  0  1  0  0  3  0  0  0  0  0  0
  160.6890  205.3980  152.9870 C   0  0  2  0  0  3  0  0  0  0  0  0
  160.5830  206.6740  147.1590 O   0  0  0  0  0  0  0  0  0  0  0  0
  162.0480  208.2740  148.2140 C   0  0  0  0  0  2  0  0  0  0  0  0
  158.4690  212.1870  153.0390 C   0  0  0  0  0  0  0  0  0  0  0  0
  157.1150  212.0080  154.2090 S   0  0  0  0  0  1  0  0  0  0  0  0
  159.6390  213.4590  151.3340 C   0  0  0  0  0  3  0  0  0  0  0  0
  160.4980  211.3000  152.0190 C   0  0  0  0  0  0  0  0  0  0  0  0
  158.5740  213.3350  152.2300 C   0  0  0  0  0  0  0  0  0  0  0  0
  160.5930  212.4480  151.2280 C   0  0  0  0  0  3  0  0  0  0  0  0
  159.4300  211.1680  152.9300 C   0  0  0  0  0  0  0  0  0  0  0  0
  159.3260  210.0300  153.7250 O   0  0  0  0  0  1  0  0  0  0  0  0
  156.4370  214.1300  151.6090 O   0  0  0  0  0  1  0  0  0  0  0  0
  157.5900  214.4530  152.3250 C   0  0  0  0  0  2  0  0  0  0  0  0
  161.8960  204.4780  153.1530 C   0  0  0  0  0  2  0  0  0  0  0  0
  161.7290  203.3290  152.3810 O   0  0  0  0  0  1  0  0  0  0  0  0
  161.1310  208.1490  155.6880 C   0  0  0  0  0  2  0  0  0  0  0  0
  160.1900  207.4810  156.4750 O   0  0  0  0  0  1  0  0  0  0  0  0
  1  4  1  0  0  0  0
  1  3  2  0  0  0  0
  2  4  1  1  0  0  0
  4 10  1  0  0  0  0
  5 11  1  6  0  0  0
  5  2  1  0  0  0  0
  5 16  1  0  0  0  0
  6 17  1  0  0  0  0
  6 18  1  0  0  0  0
  7 13  1  6  0  0  0
  7  2  1  0  0  0  0
  9  8  1  6  0  0  0
  9 11  1  0  0  0  0
 10 31  1  1  0  0  0
 12 10  1  0  0  0  0
 13 14  1  0  0  0  0
 14 22  1  1  0  0  0
 14  1  1  0  0  0  0
 15 18  1  6  0  0  0
 15  9  1  0  0  0  0
 15  7  1  0  0  0  0
 16 29  1  1  0  0  0
 16 12  1  0  0  0  0
 17  8  1  0  0  0  0
 19 20  1  0  0  0  0
 21 23  1  0  0  0  0
 22 25  2  0  0  0  0
 23 28  1  0  0  0  0
 23 19  2  0  0  0  0
 24 21  2  0  0  0  0
 24 22  1  0  0  0  0
 25 19  1  0  0  0  0
 25 26  1  0  0  0  0
 27 28  1  0  0  0  0
 30 29  1  0  0  0  0
 31 32  1  0  0  0  0
M  END
>  <MODEL>
7

>  <REMARK>
 VINA RESULT:      -3.8      2.438      7.255
  Name = 
  4 active torsions:
  status: ('A' for Active; 'I' for Inactive)
    1  A    between atoms: C_13  and  C_29
    2  A    between atoms: CA_14  and  C_21
    3  A    between atoms: C_16  and  CA_27
    4  A    between atoms: C_19  and  C_26
                            x       y       z     vdW  Elec       q    Type
                         _______ _______ _______ _____ _____    ______ ____

>  <TORSDO>
F 4

$$$$
=
 OpenBabel11062408153D

 32 36  0  0  1  0  0  0  0  0999 V2000
  159.8050  212.6880  154.0190 C   0  0  0  0  0  0  0  0  0  0  0  0
  160.8590  210.4380  154.3860 C   0  0  1  0  0  3  0  0  0  0  0  0
  159.6570  213.8500  154.4840 O   0  0  0  0  0  0  0  0  0  0  0  0
  160.0540  211.5610  154.8900 N   0  0  0  0  0  0  0  0  0  0  0  0
  160.1060  209.1160  154.6370 C   0  0  1  0  0  3  0  0  0  0  0  0
  162.2750  207.8840  150.3380 C   0  0  0  0  0  2  0  0  0  0  0  0
  161.2100  210.5990  152.8900 C   0  0  2  0  0  3  0  0  0  0  0  0
  161.3020  206.8360  152.0950 C   0  0  0  0  0  2  0  0  0  0  0  0
  160.8020  208.1230  152.7460 C   0  0  1  0  0  3  0  0  0  0  0  0
  159.6460  211.4960  156.3100 C   0  0  2  0  0  3  0  0  0  0  0  0
  160.8260  208.0110  154.1460 O   0  0  0  0  0  0  0  0  0  0  0  0
  158.9870  210.1440  156.6300 C   0  0  0  0  0  2  0  0  0  0  0  0
  160.0380  211.0840  152.1630 N   0  0  0  0  0  2  0  0  0  0  0  0
  159.8210  212.4880  152.5230 C   0  0  1  0  0  3  0  0  0  0  0  0
  161.7200  209.2730  152.3160 C   0  0  1  0  0  3  0  0  0  0  0  0
  159.8070  208.9520  156.1290 C   0  0  2  0  0  3  0  0  0  0  0  0
  161.2650  206.9690  150.6940 O   0  0  0  0  0  0  0  0  0  0  0  0
  161.8990  209.2940  150.8000 C   0  0  0  0  0  2  0  0  0  0  0  0
  156.2450  213.7610  152.0170 C   0  0  0  0  0  0  0  0  0  0  0  0
  154.7870  214.1400  152.9990 S   0  0  0  0  0  1  0  0  0  0  0  0
  157.3820  213.6390  149.8760 C   0  0  0  0  0  3  0  0  0  0  0  0
  158.5540  212.9890  151.8930 C   0  0  0  0  0  0  0  0  0  0  0  0
  156.2350  213.9300  150.6190 C   0  0  0  0  0  0  0  0  0  0  0  0
  158.5330  213.1700  150.5080 C   0  0  0  0  0  3  0  0  0  0  0  0
  157.4040  213.2860  152.6530 C   0  0  0  0  0  0  0  0  0  0  0  0
  157.4150  213.1120  154.0350 O   0  0  0  0  0  1  0  0  0  0  0  0
  155.2530  214.4080  148.5240 O   0  0  0  0  0  1  0  0  0  0  0  0
  155.0350  214.4520  149.9010 C   0  0  0  0  0  2  0  0  0  0  0  0
  161.0800  208.7710  156.9530 C   0  0  0  0  0  2  0  0  0  0  0  0
  161.9320  207.8660  156.3220 O   0  0  0  0  0  1  0  0  0  0  0  0
  158.7090  212.6200  156.7550 C   0  0  0  0  0  2  0  0  0  0  0  0
  157.4310  212.1260  157.0310 O   0  0  0  0  0  1  0  0  0  0  0  0
  1  3  2  0  0  0  0
  1  4  1  0  0  0  0
  2  5  1  0  0  0  0
  2  4  1  6  0  0  0
  4 10  1  0  0  0  0
  5 11  1  1  0  0  0
  5 16  1  0  0  0  0
  6 17  1  0  0  0  0
  6 18  1  0  0  0  0
  7 13  1  6  0  0  0
  7  2  1  0  0  0  0
  9  8  1  6  0  0  0
  9 11  1  0  0  0  0
 10 12  1  0  0  0  0
 10 31  1  6  0  0  0
 13 14  1  0  0  0  0
 14 22  1  1  0  0  0
 14  1  1  0  0  0  0
 15 18  1  6  0  0  0
 15  9  1  0  0  0  0
 15  7  1  0  0  0  0
 16 12  1  0  0  0  0
 16 29  1  1  0  0  0
 17  8  1  0  0  0  0
 19 25  1  0  0  0  0
 19 20  1  0  0  0  0
 21 24  2  0  0  0  0
 21 23  1  0  0  0  0
 22 25  2  0  0  0  0
 23 19  2  0  0  0  0
 24 22  1  0  0  0  0
 25 26  1  0  0  0  0
 27 28  1  0  0  0  0
 28 23  1  0  0  0  0
 30 29  1  0  0  0  0
 31 32  1  0  0  0  0
M  END
>  <MODEL>
8

>  <REMARK>
 VINA RESULT:      -3.6      2.963      6.458
  Name = 
  4 active torsions:
  status: ('A' for Active; 'I' for Inactive)
    1  A    between atoms: C_13  and  C_29
    2  A    between atoms: CA_14  and  C_21
    3  A    between atoms: C_16  and  CA_27
    4  A    between atoms: C_19  and  C_26
                            x       y       z     vdW  Elec       q    Type
                         _______ _______ _______ _____ _____    ______ ____

>  <TORSDO>
F 4

$$$$
