=
 OpenBabel11062408423D

 55 61  0  0  1  0  0  0  0  0999 V2000
  161.0150  206.1900  149.6940 C   0  0  0  0  0  2  0  0  0  0  0  0
  162.6870  211.9700  148.0450 C   0  0  0  0  0  2  0  0  0  0  0  0
  160.8420  214.3610  150.3500 C   0  0  0  0  0  2  0  0  0  0  0  0
  158.9760  214.4510  152.8120 C   0  0  0  0  0  3  0  0  0  0  0  0
  158.6770  214.2820  154.1640 C   0  0  0  0  0  3  0  0  0  0  0  0
  159.2720  212.0560  152.5650 C   0  0  0  0  0  0  0  0  0  0  0  0
  158.9730  211.8950  153.9250 C   0  0  0  0  0  3  0  0  0  0  0  0
  158.5090  214.1010  149.8920 O   0  0  0  0  0  1  0  0  0  0  0  0
  158.6780  213.0030  154.7200 C   0  0  0  0  0  3  0  0  0  0  0  0
  159.2780  213.3440  152.0080 C   0  0  0  0  0  0  0  0  0  0  0  0
  162.3990  207.2710  148.2430 C   0  0  1  0  0  0  0  0  0  0  0  0
  159.6070  207.3540  151.2850 O   0  0  0  0  0  0  0  0  0  0  0  0
  163.4900  207.6910  149.2180 C   0  0  0  0  0  2  0  0  0  0  0  0
  159.7250  208.7090  150.9580 C   0  0  0  0  0  2  0  0  0  0  0  0
  162.5350  210.1470  150.0660 O   0  0  0  0  0  1  0  0  0  0  0  0
  159.5670  210.9580  151.7480 O   0  0  0  0  0  0  0  0  0  0  0  0
  162.4650  212.7970  149.3170 C   0  0  0  0  0  2  0  0  0  0  0  0
  161.5190  213.9570  149.0530 C   0  0  0  0  0  2  0  0  0  0  0  0
  161.7590  210.8280  147.9110 N   0  0  0  0  0  0  0  0  0  0  0  0
  160.8900  206.8210  151.0820 C   0  0  0  0  0  2  0  0  0  0  0  0
  159.5900  213.5250  150.5560 C   0  0  2  0  0  3  0  0  0  0  0  0
  161.0710  207.1990  148.7160 O   0  0  0  0  0  0  0  0  0  0  0  0
  162.0390  209.7130  148.8340 C   0  0  1  0  0  3  0  0  0  0  0  0
  159.5950  209.6010  152.1850 C   0  0  2  0  0  3  0  0  0  0  0  0
  162.9750  208.6960  148.1840 C   0  0  2  0  0  3  0  0  0  0  0  0
  160.7530  209.3780  153.1090 C   0  0  0  0  0  0  0  0  0  0  0  0
  161.9320  209.1890  154.8180 C   0  0  0  0  0  0  0  0  0  0  0  0
  162.0050  209.1650  152.6860 N   0  0  0  0  0  0  0  0  0  0  0  0
  162.7500  209.0370  153.7670 N   0  0  0  0  0  0  0  0  0  0  0  0
  160.6570  209.3980  154.4490 N   0  0  0  0  0  2  0  0  0  0  0  0
  162.3740  209.0540  156.2370 C   0  0  0  0  0  3  0  0  0  0  0  0
  161.4460  208.1220  156.9920 C   0  0  0  0  0  2  0  0  0  0  0  0
  161.3180  209.6180  157.1680 C   0  0  0  0  0  2  0  0  0  0  0  0
  160.3620  211.2340  148.0700 C   0  0  0  0  0  2  0  0  0  0  0  0
  159.7420  211.5160  146.7100 C   0  0  0  0  0  2  0  0  0  0  0  0
  161.1810  212.1610  142.7060 S   0  0  0  0  0  0  0  0  0  0  0  0
  158.6880  213.3360  145.3390 C   0  0  0  0  0  2  0  0  0  0  0  0
  161.2850  213.9670  144.5650 C   0  0  2  0  0  3  0  0  0  0  0  0
  159.7430  213.0150  146.4050 C   0  0  2  0  0  3  0  0  0  0  0  0
  161.1650  213.4950  146.0160 C   0  0  0  0  0  2  0  0  0  0  0  0
  160.5140  213.0560  143.6160 C   0  0  0  0  0  0  0  0  0  0  0  0
  159.0750  212.7570  143.9680 C   0  0  2  0  0  3  0  0  0  0  0  0
  163.1000  213.9940  142.8010 C   0  0  0  0  0  1  0  0  0  0  0  0
  163.7540  213.9210  145.2130 C   0  0  0  0  0  1  0  0  0  0  0  0
  162.7170  214.3970  144.2130 C   0  0  0  0  0  3  0  0  0  0  0  0
  158.1320  213.2810  142.8930 C   0  0  0  0  0  2  0  0  0  0  0  0
  158.9290  213.9640  141.7910 C   0  0  1  0  0  3  0  0  0  0  0  0
  158.8030  213.3280  140.4430 C   0  0  2  0  0  3  0  0  0  0  0  0
  158.0430  214.4530  140.8150 O   0  0  0  0  0  0  0  0  0  0  0  0
  157.9900  212.1920  140.4480 O   0  0  0  0  0  0  0  0  0  0  0  0
  157.3120  211.0260  138.4900 C   0  0  0  0  0  1  0  0  0  0  0  0
  158.4600  211.4270  139.3910 C   0  0  0  0  0  2  0  0  0  0  0  0
  162.7700  206.4280  147.0210 C   0  0  0  0  0  2  0  0  0  0  0  0
  160.7530  206.0720  145.6970 N   0  0  0  0  0  1  0  0  0  0  0  0
  161.6520  205.4540  146.6590 C   0  0  0  0  0  2  0  0  0  0  0  0
  1 20  1  0  0  0  0
  2 17  1  0  0  0  0
  3 21  1  0  0  0  0
  4  5  1  0  0  0  0
  5  9  2  0  0  0  0
  6  7  2  0  0  0  0
  7  9  1  0  0  0  0
 10  6  1  0  0  0  0
 10  4  2  0  0  0  0
 11 53  1  6  0  0  0
 11 22  1  0  0  0  0
 11 13  1  0  0  0  0
 14 12  1  0  0  0  0
 14 24  1  0  0  0  0
 16 24  1  0  0  0  0
 16  6  1  0  0  0  0
 18 17  1  0  0  0  0
 18  3  1  0  0  0  0
 19  2  1  0  0  0  0
 19 34  1  0  0  0  0
 19 23  1  0  0  0  0
 20 12  1  0  0  0  0
 21  8  1  6  0  0  0
 21 10  1  0  0  0  0
 22  1  1  0  0  0  0
 23 15  1  1  0  0  0
 24 26  1  1  0  0  0
 25 11  1  0  0  0  0
 25 23  1  0  0  0  0
 25 13  1  1  0  0  0
 26 30  1  0  0  0  0
 27 31  1  0  0  0  0
 28 26  2  0  0  0  0
 28 29  1  0  0  0  0
 29 27  2  0  0  0  0
 30 27  1  0  0  0  0
 31 32  1  0  0  0  0
 31 33  1  0  0  0  0
 32 33  1  0  0  0  0
 35 34  1  0  0  0  0
 36 41  2  0  0  0  0
 37 39  1  0  0  0  0
 38 45  1  6  0  0  0
 38 40  1  0  0  0  0
 39 35  1  6  0  0  0
 40 39  1  0  0  0  0
 41 42  1  0  0  0  0
 41 38  1  0  0  0  0
 42 46  1  6  0  0  0
 42 37  1  0  0  0  0
 43 45  1  0  0  0  0
 45 44  1  0  0  0  0
 47 46  1  1  0  0  0
 48 50  1  1  0  0  0
 48 49  1  0  0  0  0
 48 47  1  0  0  0  0
 49 47  1  0  0  0  0
 51 52  1  0  0  0  0
 52 50  1  0  0  0  0
 54 55  1  0  0  0  0
 55 53  1  0  0  0  0
M  END
>  <MODEL>
1

>  <REMARK>
 VINA RESULT:       6.8      0.000      0.000
  Name = 
  12 active torsions:
  status: ('A' for Active; 'I' for Inactive)
    1  A    between atoms: C_3  and  C_21
    2  A    between atoms: C_6  and  O_25
    3  A    between atoms: C_8  and  C_20
    4  A    between atoms: C_8  and  C_22
    5  A    between atoms: C_10  and  C_32
    6  A    between atoms: C_12  and  C_50
    7  A    between atoms: C_13  and  C_52
    8  A    between atoms: C_21  and  C_53
    9  A    between atoms: C_22  and  N_43
   10  A    between atoms: O_25  and  C_38
   11  A    between atoms: C_27  and  C_55
   12  A    between atoms: C_41  and  C_55
                            x       y       z     vdW  Elec       q    Type
                         _______ _______ _______ _____ _____    ______ ____

>  <TORSDO>
F 12

$$$$
=
 OpenBabel11062408423D

 55 61  0  0  1  0  0  0  0  0999 V2000
  160.4230  205.5160  153.4730 C   0  0  0  0  0  2  0  0  0  0  0  0
  163.7020  207.6100  148.5960 C   0  0  0  0  0  2  0  0  0  0  0  0
  162.6340  211.2070  148.0010 C   0  0  0  0  0  2  0  0  0  0  0  0
  160.8780  213.4720  149.1570 C   0  0  0  0  0  3  0  0  0  0  0  0
  160.5440  214.4370  150.1080 C   0  0  0  0  0  3  0  0  0  0  0  0
  160.4640  211.7150  150.7790 C   0  0  0  0  0  0  0  0  0  0  0  0
  160.1330  212.6910  151.7290 C   0  0  0  0  0  3  0  0  0  0  0  0
  160.3270  211.1490  147.3780 O   0  0  0  0  0  1  0  0  0  0  0  0
  160.1740  214.0450  151.3940 C   0  0  0  0  0  3  0  0  0  0  0  0
  160.8440  212.1110  149.4870 C   0  0  0  0  0  0  0  0  0  0  0  0
  162.0610  204.8430  152.0390 C   0  0  1  0  0  0  0  0  0  0  0  0
  159.4160  207.7170  153.3830 O   0  0  0  0  0  0  0  0  0  0  0  0
  163.2270  205.6310  152.6200 C   0  0  0  0  0  2  0  0  0  0  0  0
  159.9230  208.3060  152.2200 C   0  0  0  0  0  2  0  0  0  0  0  0
  163.0290  208.0030  151.2080 O   0  0  0  0  0  1  0  0  0  0  0  0
  160.4270  210.3510  151.0910 O   0  0  0  0  0  0  0  0  0  0  0  0
  163.7320  209.1300  148.7950 C   0  0  0  0  0  2  0  0  0  0  0  0
  163.1640  209.8480  147.5820 C   0  0  0  0  0  2  0  0  0  0  0  0
  162.4830  206.9660  149.1260 N   0  0  0  0  0  0  0  0  0  0  0  0
  160.4880  206.9810  153.9110 C   0  0  0  0  0  2  0  0  0  0  0  0
  161.1940  211.0740  148.4650 C   0  0  2  0  0  3  0  0  0  0  0  0
  160.7690  205.4100  152.1150 O   0  0  0  0  0  0  0  0  0  0  0  0
  162.4270  206.9010  150.5980 C   0  0  1  0  0  3  0  0  0  0  0  0
  160.0590  209.8160  152.3610 C   0  0  2  0  0  3  0  0  0  0  0  0
  163.0260  205.5890  151.1020 C   0  0  2  0  0  3  0  0  0  0  0  0
  161.1030  210.1450  153.3850 C   0  0  0  0  0  0  0  0  0  0  0  0
  162.0750  210.5270  155.1890 C   0  0  0  0  0  0  0  0  0  0  0  0
  162.3550  210.5040  153.0730 N   0  0  0  0  0  0  0  0  0  0  0  0
  162.9730  210.7380  154.2150 N   0  0  0  0  0  0  0  0  0  0  0  0
  160.8810  210.1420  154.7100 N   0  0  0  0  0  2  0  0  0  0  0  0
  162.3940  210.6260  156.6430 C   0  0  0  0  0  3  0  0  0  0  0  0
  162.6830  212.0660  157.0210 C   0  0  0  0  0  2  0  0  0  0  0  0
  163.8240  211.0940  156.8310 C   0  0  0  0  0  2  0  0  0  0  0  0
  161.2640  207.6120  148.6360 C   0  0  0  0  0  2  0  0  0  0  0  0
  160.8760  207.0350  147.2830 C   0  0  0  0  0  2  0  0  0  0  0  0
  158.8600  204.3510  144.5890 S   0  0  0  0  0  0  0  0  0  0  0  0
  162.1800  206.0500  145.3770 C   0  0  0  0  0  2  0  0  0  0  0  0
  160.9090  203.6590  146.0200 C   0  0  2  0  0  3  0  0  0  0  0  0
  161.8340  205.9170  146.8650 C   0  0  2  0  0  3  0  0  0  0  0  0
  161.2510  204.5290  147.2330 C   0  0  0  0  0  2  0  0  0  0  0  0
  160.2580  204.4790  144.9110 C   0  0  0  0  0  0  0  0  0  0  0  0
  160.9650  205.7430  144.4850 C   0  0  2  0  0  3  0  0  0  0  0  0
  161.0580  201.6700  147.5780 C   0  0  0  0  0  1  0  0  0  0  0  0
  160.1510  201.3400  145.2710 C   0  0  0  0  0  1  0  0  0  0  0  0
  160.3010  202.3100  146.4290 C   0  0  0  0  0  3  0  0  0  0  0  0
  161.3940  205.6610  143.0260 C   0  0  0  0  0  2  0  0  0  0  0  0
  161.9290  207.0090  142.5650 C   0  0  1  0  0  3  0  0  0  0  0  0
  162.3330  207.0610  141.1260 C   0  0  2  0  0  3  0  0  0  0  0  0
  161.0810  207.5270  141.5710 O   0  0  0  0  0  0  0  0  0  0  0  0
  162.1720  205.8400  140.4680 O   0  0  0  0  0  0  0  0  0  0  0  0
  161.8340  207.3250  138.6410 C   0  0  0  0  0  1  0  0  0  0  0  0
  162.5550  206.0990  139.1600 C   0  0  0  0  0  2  0  0  0  0  0  0
  162.1700  203.3220  151.9180 C   0  0  0  0  0  2  0  0  0  0  0  0
  161.2630  201.3300  150.8410 N   0  0  0  0  0  1  0  0  0  0  0  0
  161.0510  202.7540  151.0490 C   0  0  0  0  0  2  0  0  0  0  0  0
  1 20  1  0  0  0  0
  2 17  1  0  0  0  0
  2 19  1  0  0  0  0
  3 21  1  0  0  0  0
  4 10  2  0  0  0  0
  4  5  1  0  0  0  0
  5  9  2  0  0  0  0
  6 16  1  0  0  0  0
  6  7  2  0  0  0  0
  9  7  1  0  0  0  0
 10  6  1  0  0  0  0
 11 53  1  1  0  0  0
 11 22  1  0  0  0  0
 11 13  1  0  0  0  0
 12 20  1  0  0  0  0
 14 24  1  0  0  0  0
 14 12  1  0  0  0  0
 16 24  1  0  0  0  0
 18  3  1  0  0  0  0
 18 17  1  0  0  0  0
 19 23  1  0  0  0  0
 21  8  1  6  0  0  0
 21 10  1  0  0  0  0
 22  1  1  0  0  0  0
 23 25  1  0  0  0  0
 23 15  1  1  0  0  0
 24 26  1  1  0  0  0
 25 11  1  0  0  0  0
 25 13  1  1  0  0  0
 26 30  1  0  0  0  0
 27 31  1  0  0  0  0
 28 26  2  0  0  0  0
 28 29  1  0  0  0  0
 29 27  2  0  0  0  0
 30 27  1  0  0  0  0
 31 33  1  0  0  0  0
 31 32  1  0  0  0  0
 33 32  1  0  0  0  0
 34 19  1  0  0  0  0
 35 34  1  0  0  0  0
 36 41  2  0  0  0  0
 37 39  1  0  0  0  0
 38 45  1  1  0  0  0
 38 40  1  0  0  0  0
 39 40  1  0  0  0  0
 39 35  1  6  0  0  0
 41 38  1  0  0  0  0
 42 46  1  6  0  0  0
 42 41  1  0  0  0  0
 42 37  1  0  0  0  0
 44 45  1  0  0  0  0
 45 43  1  0  0  0  0
 47 46  1  6  0  0  0
 48 50  1  6  0  0  0
 48 49  1  0  0  0  0
 48 47  1  0  0  0  0
 49 47  1  0  0  0  0
 51 52  1  0  0  0  0
 52 50  1  0  0  0  0
 54 55  1  0  0  0  0
 55 53  1  0  0  0  0
M  END
>  <MODEL>
2

>  <REMARK>
 VINA RESULT:       9.1      3.620      5.861
  Name = 
  12 active torsions:
  status: ('A' for Active; 'I' for Inactive)
    1  A    between atoms: C_3  and  C_21
    2  A    between atoms: C_6  and  O_25
    3  A    between atoms: C_8  and  C_20
    4  A    between atoms: C_8  and  C_22
    5  A    between atoms: C_10  and  C_32
    6  A    between atoms: C_12  and  C_50
    7  A    between atoms: C_13  and  C_52
    8  A    between atoms: C_21  and  C_53
    9  A    between atoms: C_22  and  N_43
   10  A    between atoms: O_25  and  C_38
   11  A    between atoms: C_27  and  C_55
   12  A    between atoms: C_41  and  C_55
                            x       y       z     vdW  Elec       q    Type
                         _______ _______ _______ _____ _____    ______ ____

>  <TORSDO>
F 12

$$$$
