=
 OpenBabel11052422233D

 31 35  0  0  1  0  0  0  0  0999 V2000
  160.7180  207.8740  154.7790 C   0  0  0  0  0  0  0  0  0  0  0  0
  161.3420  207.3920  151.0350 C   0  0  0  0  0  0  0  0  0  0  0  0
  161.2150  205.9910  150.7830 C   0  0  0  0  0  0  0  0  0  0  0  0
  161.0770  203.6940  152.0630 C   0  0  0  0  0  3  0  0  0  0  0  0
  161.3190  207.9780  152.4180 C   0  0  0  0  0  0  0  0  0  0  0  0
  161.2150  209.1630  154.9730 C   0  0  0  0  0  3  0  0  0  0  0  0
  161.1930  205.1080  151.9120 N   0  0  0  0  0  2  0  0  0  0  0  0
  161.6410  209.7750  150.1920 C   0  0  2  0  0  3  0  0  0  0  0  0
  160.0360  206.9870  156.1240 Cl  0  0  0  0  0  0  0  0  0  0  0  0
  161.2480  206.4560  148.3980 C   0  0  0  0  0  3  0  0  0  0  0  0
  160.9550  202.7970  151.0960 C   0  0  0  0  0  3  0  0  0  0  0  0
  162.3820  210.0700  151.4950 C   0  0  0  0  0  2  0  0  0  0  0  0
  161.4980  208.2870  149.9480 C   0  0  0  0  0  0  0  0  0  0  0  0
  160.7650  207.2910  153.5110 C   0  0  0  0  0  3  0  0  0  0  0  0
  160.9130  203.0130  149.6560 C   0  0  0  0  0  3  0  0  0  0  0  0
  161.7880  209.2940  152.6230 C   0  0  0  0  0  0  0  0  0  0  0  0
  161.7490  209.8720  153.8960 C   0  0  0  0  0  3  0  0  0  0  0  0
  161.4130  207.8090  148.6420 C   0  0  0  0  0  3  0  0  0  0  0  0
  161.1600  205.5350  149.4410 C   0  0  0  0  0  0  0  0  0  0  0  0
  161.0000  204.1510  148.9800 C   0  0  0  0  0  3  0  0  0  0  0  0
  161.2580  212.5440  149.3910 O   0  0  0  0  0  0  0  0  0  0  0  0
  162.0570  211.8340  148.7240 C   0  0  0  0  0  0  0  0  0  0  0  0
  162.2920  210.4660  149.0780 N   0  0  0  0  0  2  0  0  0  0  0  0
  162.7440  212.4150  147.5370 C   0  0  0  0  0  2  0  0  0  0  0  0
  161.3760  213.4180  144.0910 C   0  0  1  0  0  3  0  0  0  0  0  0
  159.5160  212.6900  145.3910 C   0  0  0  0  0  2  0  0  0  0  0  0
  161.8550  214.4530  143.0960 C   0  0  0  0  0  1  0  0  0  0  0  0
  162.4010  213.2780  145.2220 C   0  0  0  0  0  2  0  0  0  0  0  0
  160.5060  212.1360  146.4310 C   0  0  0  0  0  2  0  0  0  0  0  0
  161.7380  213.0320  146.5800 C   0  0  1  0  0  3  0  0  0  0  0  0
  160.0680  213.8060  144.6150 N   0  0  0  0  0  2  0  0  0  0  0  0
  1  6  1  0  0  0  0
  1  9  1  0  0  0  0
  2  5  1  0  0  0  0
  3  2  1  0  0  0  0
  3  7  1  0  0  0  0
  5 16  2  0  0  0  0
  5 14  1  0  0  0  0
  7  4  1  0  0  0  0
  8 23  1  6  0  0  0
  8 12  1  0  0  0  0
 10 18  2  0  0  0  0
 10 19  1  0  0  0  0
 11  4  2  0  0  0  0
 12 16  1  0  0  0  0
 13  8  1  0  0  0  0
 13  2  2  0  0  0  0
 14  1  2  0  0  0  0
 15 11  1  0  0  0  0
 16 17  1  0  0  0  0
 17  6  2  0  0  0  0
 18 13  1  0  0  0  0
 19  3  2  0  0  0  0
 20 19  1  0  0  0  0
 20 15  2  0  0  0  0
 22 23  1  0  0  0  0
 22 21  2  0  0  0  0
 24 22  1  0  0  0  0
 25 27  1  6  0  0  0
 25 31  1  0  0  0  0
 25 28  1  0  0  0  0
 26 29  1  0  0  0  0
 28 30  1  0  0  0  0
 29 30  1  0  0  0  0
 30 24  1  1  0  0  0
 31 26  1  0  0  0  0
M  END
>  <MODEL>
1

>  <REMARK>
 VINA RESULT:     -10.3      0.000      0.000
  Name = 
  3 active torsions:
  status: ('A' for Active; 'I' for Inactive)
    1  A    between atoms: C_3  and  C_9
    2  A    between atoms: C_3  and  C_22
    3  A    between atoms: C_15  and  N_23
                            x       y       z     vdW  Elec       q    Type
                         _______ _______ _______ _____ _____    ______ ____

>  <TORSDO>
F 3

$$$$
=
 OpenBabel11052422233D

 31 35  0  0  1  0  0  0  0  0999 V2000
  160.4650  212.5900  150.9680 C   0  0  0  0  0  0  0  0  0  0  0  0
  161.2230  208.8540  151.2920 C   0  0  0  0  0  0  0  0  0  0  0  0
  161.0430  208.5250  152.6710 C   0  0  0  0  0  0  0  0  0  0  0  0
  160.7430  209.6770  155.0200 C   0  0  0  0  0  3  0  0  0  0  0  0
  161.1700  210.2640  150.7750 C   0  0  0  0  0  0  0  0  0  0  0  0
  161.0130  212.8710  149.7160 C   0  0  0  0  0  3  0  0  0  0  0  0
  160.9310  209.6050  153.6070 N   0  0  0  0  0  2  0  0  0  0  0  0
  161.6690  208.1490  148.8870 C   0  0  2  0  0  3  0  0  0  0  0  0
  159.6860  213.8590  151.8870 Cl  0  0  0  0  0  0  0  0  0  0  0  0
  161.1980  206.1700  152.0890 C   0  0  0  0  0  3  0  0  0  0  0  0
  160.6200  208.6610  155.8600 C   0  0  0  0  0  3  0  0  0  0  0  0
  162.3680  209.4930  148.6940 C   0  0  0  0  0  2  0  0  0  0  0  0
  161.4670  207.8230  150.3530 C   0  0  0  0  0  0  0  0  0  0  0  0
  160.5390  211.2970  151.4880 C   0  0  0  0  0  3  0  0  0  0  0  0
  160.6490  207.2330  155.5700 C   0  0  0  0  0  3  0  0  0  0  0  0
  161.6900  210.5560  149.4960 C   0  0  0  0  0  0  0  0  0  0  0  0
  161.6250  211.8540  148.9810 C   0  0  0  0  0  3  0  0  0  0  0  0
  161.4160  206.4910  150.7600 C   0  0  0  0  0  3  0  0  0  0  0  0
  161.0220  207.1600  153.0560 C   0  0  0  0  0  0  0  0  0  0  0  0
  160.8180  206.6210  154.4050 C   0  0  0  0  0  3  0  0  0  0  0  0
  160.7020  206.5610  146.6510 O   0  0  0  0  0  0  0  0  0  0  0  0
  161.8660  206.3420  147.0810 C   0  0  0  0  0  0  0  0  0  0  0  0
  162.3980  207.0990  148.1740 N   0  0  0  0  0  2  0  0  0  0  0  0
  162.6880  205.2630  146.4640 C   0  0  0  0  0  2  0  0  0  0  0  0
  160.6310  202.8390  148.6190 C   0  0  1  0  0  3  0  0  0  0  0  0
  160.8120  201.8590  146.4540 C   0  0  0  0  0  2  0  0  0  0  0  0
  160.6660  202.5590  150.1060 C   0  0  0  0  0  1  0  0  0  0  0  0
  161.5200  204.0470  148.3010 C   0  0  0  0  0  2  0  0  0  0  0  0
  161.3540  203.2010  145.9310 C   0  0  0  0  0  2  0  0  0  0  0  0
  162.2460  203.8970  146.9620 C   0  0  1  0  0  3  0  0  0  0  0  0
  161.0730  201.6560  147.8830 N   0  0  0  0  0  2  0  0  0  0  0  0
  1 14  1  0  0  0  0
  1  9  1  0  0  0  0
  2  3  1  0  0  0  0
  3 19  2  0  0  0  0
  3  7  1  0  0  0  0
  4 11  2  0  0  0  0
  5  2  1  0  0  0  0
  5 14  2  0  0  0  0
  6  1  2  0  0  0  0
  7  4  1  0  0  0  0
  8 23  1  1  0  0  0
  8 13  1  0  0  0  0
 10 19  1  0  0  0  0
 12  8  1  0  0  0  0
 12 16  1  0  0  0  0
 13 18  1  0  0  0  0
 13  2  2  0  0  0  0
 15 11  1  0  0  0  0
 16  5  1  0  0  0  0
 17 16  2  0  0  0  0
 17  6  1  0  0  0  0
 18 10  2  0  0  0  0
 19 20  1  0  0  0  0
 20 15  2  0  0  0  0
 21 22  2  0  0  0  0
 22 23  1  0  0  0  0
 24 22  1  0  0  0  0
 25 27  1  1  0  0  0
 26 31  1  0  0  0  0
 28 25  1  0  0  0  0
 29 26  1  0  0  0  0
 29 30  1  0  0  0  0
 30 24  1  6  0  0  0
 30 28  1  0  0  0  0
 31 25  1  0  0  0  0
M  END
>  <MODEL>
2

>  <REMARK>
 VINA RESULT:      -9.7      3.349      6.935
  Name = 
  3 active torsions:
  status: ('A' for Active; 'I' for Inactive)
    1  A    between atoms: C_3  and  C_9
    2  A    between atoms: C_3  and  C_22
    3  A    between atoms: C_15  and  N_23
                            x       y       z     vdW  Elec       q    Type
                         _______ _______ _______ _____ _____    ______ ____

>  <TORSDO>
F 3

$$$$
=
 OpenBabel11052422233D

 31 35  0  0  1  0  0  0  0  0999 V2000
  160.6610  209.3720  155.4310 C   0  0  0  0  0  0  0  0  0  0  0  0
  161.5300  208.3470  151.8480 C   0  0  0  0  0  0  0  0  0  0  0  0
  161.4750  209.5400  151.0630 C   0  0  0  0  0  0  0  0  0  0  0  0
  160.6370  212.0330  151.1990 C   0  0  0  0  0  3  0  0  0  0  0  0
  161.1020  208.2950  153.2870 C   0  0  0  0  0  0  0  0  0  0  0  0
  160.3870  208.1330  156.0080 C   0  0  0  0  0  3  0  0  0  0  0  0
  160.8670  210.6990  151.6490 N   0  0  0  0  0  0  0  0  0  0  0  0
  162.0630  205.8680  152.0740 C   0  0  2  0  0  3  0  0  0  0  0  0
  160.5550  210.8300  156.3930 Cl  0  0  0  0  0  0  0  0  0  0  0  0
  162.5020  208.3310  149.2230 C   0  0  0  0  0  3  0  0  0  0  0  0
  160.9650  212.5450  150.0230 C   0  0  0  0  0  3  0  0  0  0  0  0
  160.9290  205.7870  153.0950 C   0  0  0  0  0  2  0  0  0  0  0  0
  162.0030  207.1470  151.2640 C   0  0  2  0  0  3  0  0  0  0  0  0
  161.0210  209.4500  154.0830 C   0  0  0  0  0  3  0  0  0  0  0  0
  161.6290  211.8920  148.9010 C   0  0  0  0  0  3  0  0  0  0  0  0
  160.8530  207.0460  153.8950 C   0  0  0  0  0  0  0  0  0  0  0  0
  160.4830  206.9710  155.2410 C   0  0  0  0  0  3  0  0  0  0  0  0
  162.5160  207.1640  149.9690 C   0  0  0  0  0  3  0  0  0  0  0  0
  161.9810  209.5170  149.7380 C   0  0  0  0  0  0  0  0  0  0  0  0
  162.0440  210.6370  148.7920 C   0  0  0  0  0  3  0  0  0  0  0  0
  159.9230  204.9520  150.3330 O   0  0  0  0  0  0  0  0  0  0  0  0
  160.9760  204.2630  150.3990 C   0  0  0  0  0  0  0  0  0  0  0  0
  162.0660  204.6700  151.2330 N   0  0  0  0  0  2  0  0  0  0  0  0
  161.0770  202.9950  149.6230 C   0  0  0  0  0  2  0  0  0  0  0  0
  162.1630  204.2140  146.1460 C   0  0  1  0  0  3  0  0  0  0  0  0
  160.9140  202.2100  145.8200 C   0  0  0  0  0  2  0  0  0  0  0  0
  162.4140  205.6100  145.6170 C   0  0  0  0  0  1  0  0  0  0  0  0
  161.9470  204.2690  147.6630 C   0  0  0  0  0  2  0  0  0  0  0  0
  160.9930  201.9580  147.3360 C   0  0  0  0  0  2  0  0  0  0  0  0
  160.8990  203.2580  148.1370 C   0  0  1  0  0  3  0  0  0  0  0  0
  161.0030  203.6320  145.4730 N   0  0  0  0  0  2  0  0  0  0  0  0
  1  6  1  0  0  0  0
  1  9  1  0  0  0  0
  2  5  1  0  0  0  0
  3  7  1  0  0  0  0
  3  2  2  0  0  0  0
  4  7  2  0  0  0  0
  5 16  2  0  0  0  0
  5 14  1  0  0  0  0
  8 23  1  6  0  0  0
  8 12  1  0  0  0  0
 10 19  1  0  0  0  0
 10 18  2  0  0  0  0
 11  4  1  0  0  0  0
 12 16  1  0  0  0  0
 13 18  1  1  0  0  0
 13  2  1  0  0  0  0
 13  8  1  0  0  0  0
 14  1  2  0  0  0  0
 15 11  2  0  0  0  0
 16 17  1  0  0  0  0
 17  6  2  0  0  0  0
 19  3  1  0  0  0  0
 20 15  1  0  0  0  0
 20 19  2  0  0  0  0
 21 22  2  0  0  0  0
 22 23  1  0  0  0  0
 24 22  1  0  0  0  0
 25 27  1  6  0  0  0
 25 28  1  0  0  0  0
 26 29  1  0  0  0  0
 28 30  1  0  0  0  0
 29 30  1  0  0  0  0
 30 24  1  1  0  0  0
 31 26  1  0  0  0  0
 31 25  1  0  0  0  0
M  END
>  <MODEL>
3

>  <REMARK>
 VINA RESULT:      -9.5      3.052      6.697
  Name = 
  3 active torsions:
  status: ('A' for Active; 'I' for Inactive)
    1  A    between atoms: C_3  and  C_9
    2  A    between atoms: C_3  and  C_22
    3  A    between atoms: C_15  and  N_23
                            x       y       z     vdW  Elec       q    Type
                         _______ _______ _______ _____ _____    ______ ____

>  <TORSDO>
F 3

$$$$
=
 OpenBabel11052422233D

 31 35  0  0  1  0  0  0  0  0999 V2000
  160.8310  204.0330  152.1770 C   0  0  0  0  0  0  0  0  0  0  0  0
  161.2710  205.6090  148.7190 C   0  0  0  0  0  0  0  0  0  0  0  0
  161.1510  204.5450  147.7720 C   0  0  0  0  0  0  0  0  0  0  0  0
  161.1080  201.9150  147.6590 C   0  0  0  0  0  3  0  0  0  0  0  0
  161.3110  205.3830  150.2030 C   0  0  0  0  0  0  0  0  0  0  0  0
  161.3200  205.0470  153.0010 C   0  0  0  0  0  3  0  0  0  0  0  0
  161.1970  203.2010  148.2690 N   0  0  0  0  0  0  0  0  0  0  0  0
  161.4960  208.0910  149.2440 C   0  0  2  0  0  3  0  0  0  0  0  0
  160.2300  202.5470  152.8790 Cl  0  0  0  0  0  0  0  0  0  0  0  0
  161.0570  206.1920  145.9890 C   0  0  0  0  0  3  0  0  0  0  0  0
  160.9490  201.6540  146.3700 C   0  0  0  0  0  3  0  0  0  0  0  0
  162.2980  207.6870  150.4790 C   0  0  0  0  0  2  0  0  0  0  0  0
  161.3610  206.9470  148.2600 C   0  0  2  0  0  3  0  0  0  0  0  0
  160.8220  204.2040  150.7910 C   0  0  0  0  0  3  0  0  0  0  0  0
  160.8310  202.5920  145.2610 C   0  0  0  0  0  3  0  0  0  0  0  0
  161.7720  206.4120  151.0530 C   0  0  0  0  0  0  0  0  0  0  0  0
  161.7900  206.2340  152.4390 C   0  0  0  0  0  3  0  0  0  0  0  0
  161.2160  207.2220  146.9010 C   0  0  0  0  0  3  0  0  0  0  0  0
  161.0330  204.8590  146.3940 C   0  0  0  0  0  0  0  0  0  0  0  0
  160.8690  203.9180  145.2810 C   0  0  0  0  0  3  0  0  0  0  0  0
  161.6620  210.7440  150.4220 O   0  0  0  0  0  0  0  0  0  0  0  0
  162.1260  210.5740  149.2630 C   0  0  0  0  0  0  0  0  0  0  0  0
  162.0800  209.2870  148.6360 N   0  0  0  0  0  2  0  0  0  0  0  0
  162.7060  211.7320  148.5250 C   0  0  0  0  0  2  0  0  0  0  0  0
  159.8420  213.9550  147.2570 C   0  0  1  0  0  3  0  0  0  0  0  0
  161.4330  213.7990  145.4890 C   0  0  0  0  0  2  0  0  0  0  0  0
  158.3650  213.9580  147.5900 C   0  0  0  0  0  1  0  0  0  0  0  0
  160.5800  212.9940  148.1960 C   0  0  0  0  0  2  0  0  0  0  0  0
  162.4250  213.1740  146.4870 C   0  0  0  0  0  2  0  0  0  0  0  0
  161.7230  212.2580  147.4920 C   0  0  1  0  0  3  0  0  0  0  0  0
  160.0320  213.5710  145.8600 N   0  0  0  0  0  2  0  0  0  0  0  0
  1  9  1  0  0  0  0
  1  6  1  0  0  0  0
  2  5  1  0  0  0  0
  3  7  1  0  0  0  0
  3  2  2  0  0  0  0
  4  7  2  0  0  0  0
  5 14  1  0  0  0  0
  5 16  2  0  0  0  0
  8 23  1  6  0  0  0
  8 12  1  0  0  0  0
 10 19  1  0  0  0  0
 10 18  2  0  0  0  0
 11  4  1  0  0  0  0
 12 16  1  0  0  0  0
 13 18  1  1  0  0  0
 13  2  1  0  0  0  0
 13  8  1  0  0  0  0
 14  1  2  0  0  0  0
 15 20  1  0  0  0  0
 15 11  2  0  0  0  0
 16 17  1  0  0  0  0
 17  6  2  0  0  0  0
 19  3  1  0  0  0  0
 20 19  2  0  0  0  0
 22 21  2  0  0  0  0
 23 22  1  0  0  0  0
 24 22  1  0  0  0  0
 25 27  1  1  0  0  0
 25 28  1  0  0  0  0
 26 31  1  0  0  0  0
 26 29  1  0  0  0  0
 29 30  1  0  0  0  0
 30 28  1  0  0  0  0
 30 24  1  1  0  0  0
 31 25  1  0  0  0  0
M  END
>  <MODEL>
4

>  <REMARK>
 VINA RESULT:      -9.4      2.219      3.395
  Name = 
  3 active torsions:
  status: ('A' for Active; 'I' for Inactive)
    1  A    between atoms: C_3  and  C_9
    2  A    between atoms: C_3  and  C_22
    3  A    between atoms: C_15  and  N_23
                            x       y       z     vdW  Elec       q    Type
                         _______ _______ _______ _____ _____    ______ ____

>  <TORSDO>
F 3

$$$$
=
 OpenBabel11052422233D

 31 35  0  0  1  0  0  0  0  0999 V2000
  160.9180  208.7820  154.9320 C   0  0  0  0  0  0  0  0  0  0  0  0
  161.4230  209.2960  151.1740 C   0  0  0  0  0  0  0  0  0  0  0  0
  161.1000  210.6620  150.9070 C   0  0  0  0  0  0  0  0  0  0  0  0
  159.9570  212.7450  152.0410 C   0  0  0  0  0  3  0  0  0  0  0  0
  161.2060  208.6510  152.5140 C   0  0  0  0  0  0  0  0  0  0  0  0
  160.8970  207.3900  155.0150 C   0  0  0  0  0  3  0  0  0  0  0  0
  160.4250  211.4020  151.9330 N   0  0  0  0  0  2  0  0  0  0  0  0
  162.3150  207.0390  150.4020 C   0  0  2  0  0  3  0  0  0  0  0  0
  160.7450  209.7490  156.3800 Cl  0  0  0  0  0  0  0  0  0  0  0  0
  162.0230  210.4040  148.6740 C   0  0  0  0  0  3  0  0  0  0  0  0
  160.0500  213.6980  151.1260 C   0  0  0  0  0  3  0  0  0  0  0  0
  161.3520  206.3950  151.3970 C   0  0  0  0  0  2  0  0  0  0  0  0
  161.9720  208.4920  150.1440 C   0  0  0  0  0  0  0  0  0  0  0  0
  161.0780  209.4050  153.6920 C   0  0  0  0  0  3  0  0  0  0  0  0
  160.6370  213.6240  149.7940 C   0  0  0  0  0  3  0  0  0  0  0  0
  161.2150  207.2430  152.6190 C   0  0  0  0  0  0  0  0  0  0  0  0
  161.0440  206.6220  153.8590 C   0  0  0  0  0  3  0  0  0  0  0  0
  162.2970  209.0680  148.9180 C   0  0  0  0  0  3  0  0  0  0  0  0
  161.4200  211.2100  149.6380 C   0  0  0  0  0  0  0  0  0  0  0  0
  161.2010  212.5890  149.1860 C   0  0  0  0  0  3  0  0  0  0  0  0
  160.0870  206.3840  148.6520 O   0  0  0  0  0  0  0  0  0  0  0  0
  161.2320  205.9500  148.3520 C   0  0  0  0  0  0  0  0  0  0  0  0
  162.3670  206.2480  149.1720 N   0  0  0  0  0  2  0  0  0  0  0  0
  161.4010  205.0920  147.1450 C   0  0  0  0  0  2  0  0  0  0  0  0
  160.5400  201.8650  149.0410 C   0  0  1  0  0  3  0  0  0  0  0  0
  161.1850  201.2240  146.8370 C   0  0  0  0  0  2  0  0  0  0  0  0
  160.6540  201.5160  150.5090 C   0  0  0  0  0  1  0  0  0  0  0  0
  160.8260  203.3580  148.8420 C   0  0  0  0  0  2  0  0  0  0  0  0
  161.1050  202.7040  146.4230 C   0  0  0  0  0  2  0  0  0  0  0  0
  161.5810  203.6360  147.5390 C   0  0  1  0  0  3  0  0  0  0  0  0
  161.4700  201.0460  148.2650 N   0  0  0  0  0  2  0  0  0  0  0  0
  1  6  1  0  0  0  0
  1  9  1  0  0  0  0
  2  5  1  0  0  0  0
  3  2  1  0  0  0  0
  3  7  1  0  0  0  0
  5 16  2  0  0  0  0
  5 14  1  0  0  0  0
  7  4  1  0  0  0  0
  8 23  1  6  0  0  0
  8 12  1  0  0  0  0
 10 18  2  0  0  0  0
 10 19  1  0  0  0  0
 11  4  2  0  0  0  0
 12 16  1  0  0  0  0
 13  8  1  0  0  0  0
 13  2  2  0  0  0  0
 14  1  2  0  0  0  0
 15 11  1  0  0  0  0
 16 17  1  0  0  0  0
 17  6  2  0  0  0  0
 18 13  1  0  0  0  0
 19  3  2  0  0  0  0
 20 19  1  0  0  0  0
 20 15  2  0  0  0  0
 22 21  2  0  0  0  0
 22 23  1  0  0  0  0
 24 22  1  0  0  0  0
 25 27  1  1  0  0  0
 26 31  1  0  0  0  0
 28 25  1  0  0  0  0
 29 26  1  0  0  0  0
 29 30  1  0  0  0  0
 30 24  1  6  0  0  0
 30 28  1  0  0  0  0
 31 25  1  0  0  0  0
M  END
>  <MODEL>
5

>  <REMARK>
 VINA RESULT:      -8.8      2.994      7.400
  Name = 
  3 active torsions:
  status: ('A' for Active; 'I' for Inactive)
    1  A    between atoms: C_3  and  C_9
    2  A    between atoms: C_3  and  C_22
    3  A    between atoms: C_15  and  N_23
                            x       y       z     vdW  Elec       q    Type
                         _______ _______ _______ _____ _____    ______ ____

>  <TORSDO>
F 3

$$$$
=
 OpenBabel11052422233D

 31 35  0  0  1  0  0  0  0  0999 V2000
  160.8450  201.8240  150.6270 C   0  0  0  0  0  0  0  0  0  0  0  0
  161.1710  205.3370  149.1450 C   0  0  0  0  0  0  0  0  0  0  0  0
  161.2390  205.1710  147.7270 C   0  0  0  0  0  0  0  0  0  0  0  0
  161.5810  203.2980  145.9080 C   0  0  0  0  0  3  0  0  0  0  0  0
  161.1920  204.1810  150.1050 C   0  0  0  0  0  0  0  0  0  0  0  0
  161.1530  202.0660  151.9660 C   0  0  0  0  0  3  0  0  0  0  0  0
  161.4620  203.8490  147.2180 N   0  0  0  0  0  0  0  0  0  0  0  0
  161.0160  206.8410  151.1940 C   0  0  2  0  0  3  0  0  0  0  0  0
  160.4420  200.2060  150.0990 Cl  0  0  0  0  0  0  0  0  0  0  0  0
  160.9680  207.5720  147.4710 C   0  0  0  0  0  3  0  0  0  0  0  0
  161.5060  203.9520  144.7590 C   0  0  0  0  0  3  0  0  0  0  0  0
  161.8250  205.7850  151.9450 C   0  0  0  0  0  2  0  0  0  0  0  0
  161.0820  206.6400  149.6930 C   0  0  2  0  0  3  0  0  0  0  0  0
  160.8590  202.8750  149.7070 C   0  0  0  0  0  3  0  0  0  0  0  0
  161.2920  205.3770  144.5360 C   0  0  0  0  0  3  0  0  0  0  0  0
  161.4690  204.4150  151.4690 C   0  0  0  0  0  0  0  0  0  0  0  0
  161.4660  203.3590  152.3860 C   0  0  0  0  0  3  0  0  0  0  0  0
  160.9460  207.7380  148.8460 C   0  0  0  0  0  3  0  0  0  0  0  0
  161.1250  206.3130  146.8940 C   0  0  0  0  0  0  0  0  0  0  0  0
  161.1370  206.3470  145.4270 C   0  0  0  0  0  3  0  0  0  0  0  0
  160.4610  208.1560  153.7270 O   0  0  0  0  0  0  0  0  0  0  0  0
  161.1300  208.7820  152.8620 C   0  0  0  0  0  0  0  0  0  0  0  0
  161.4420  208.1810  151.6000 N   0  0  0  0  0  2  0  0  0  0  0  0
  161.5800  210.1740  153.1440 C   0  0  0  0  0  2  0  0  0  0  0  0
  160.0810  212.6250  155.6930 C   0  0  1  0  0  3  0  0  0  0  0  0
  159.0230  213.0660  153.6030 C   0  0  0  0  0  2  0  0  0  0  0  0
  159.8570  212.4920  157.1850 C   0  0  0  0  0  1  0  0  0  0  0  0
  160.9010  211.4320  155.1870 C   0  0  0  0  0  2  0  0  0  0  0  0
  160.0810  212.1790  152.9230 C   0  0  0  0  0  2  0  0  0  0  0  0
  160.4650  210.9790  153.7920 C   0  0  1  0  0  3  0  0  0  0  0  0
  158.7930  212.7040  155.0060 N   0  0  0  0  0  2  0  0  0  0  0  0
  1  6  1  0  0  0  0
  2 13  1  0  0  0  0
  2  5  1  0  0  0  0
  3  2  2  0  0  0  0
  4  7  2  0  0  0  0
  5 16  2  0  0  0  0
  6 17  2  0  0  0  0
  7  3  1  0  0  0  0
  8 23  1  6  0  0  0
  8 12  1  0  0  0  0
  9  1  1  0  0  0  0
 10 18  2  0  0  0  0
 11  4  1  0  0  0  0
 13 18  1  6  0  0  0
 13  8  1  0  0  0  0
 14  5  1  0  0  0  0
 14  1  2  0  0  0  0
 15 11  2  0  0  0  0
 15 20  1  0  0  0  0
 16 12  1  0  0  0  0
 16 17  1  0  0  0  0
 19 10  1  0  0  0  0
 19  3  1  0  0  0  0
 20 19  2  0  0  0  0
 22 24  1  0  0  0  0
 22 21  2  0  0  0  0
 23 22  1  0  0  0  0
 25 27  1  1  0  0  0
 26 31  1  0  0  0  0
 28 25  1  0  0  0  0
 29 26  1  0  0  0  0
 29 30  1  0  0  0  0
 30 24  1  6  0  0  0
 30 28  1  0  0  0  0
 31 25  1  0  0  0  0
M  END
>  <MODEL>
6

>  <REMARK>
 VINA RESULT:      -8.3      4.177      6.660
  Name = 
  3 active torsions:
  status: ('A' for Active; 'I' for Inactive)
    1  A    between atoms: C_3  and  C_9
    2  A    between atoms: C_3  and  C_22
    3  A    between atoms: C_15  and  N_23
                            x       y       z     vdW  Elec       q    Type
                         _______ _______ _______ _____ _____    ______ ____

>  <TORSDO>
F 3

$$$$
=
 OpenBabel11052422233D

 31 35  0  0  1  0  0  0  0  0999 V2000
  161.1990  204.4950  151.5030 C   0  0  0  0  0  0  0  0  0  0  0  0
  161.3190  208.1510  152.6250 C   0  0  0  0  0  0  0  0  0  0  0  0
  161.0110  208.1550  154.0210 C   0  0  0  0  0  0  0  0  0  0  0  0
  160.0560  206.5770  155.9010 C   0  0  0  0  0  3  0  0  0  0  0  0
  161.2260  206.9190  151.7700 C   0  0  0  0  0  0  0  0  0  0  0  0
  161.1450  204.6390  150.1170 C   0  0  0  0  0  3  0  0  0  0  0  0
  160.4710  206.9540  154.5890 N   0  0  0  0  0  0  0  0  0  0  0  0
  162.0570  209.3740  150.5170 C   0  0  2  0  0  3  0  0  0  0  0  0
  161.2090  202.8980  152.2190 Cl  0  0  0  0  0  0  0  0  0  0  0  0
  161.6850  210.4870  154.1250 C   0  0  0  0  0  3  0  0  0  0  0  0
  160.0800  207.3300  156.9910 C   0  0  0  0  0  3  0  0  0  0  0  0
  161.1860  208.3980  149.7280 C   0  0  0  0  0  2  0  0  0  0  0  0
  161.7320  209.3520  151.9970 C   0  0  0  0  0  0  0  0  0  0  0  0
  161.2450  205.6260  152.3210 C   0  0  0  0  0  3  0  0  0  0  0  0
  160.5220  208.7120  157.1310 C   0  0  0  0  0  3  0  0  0  0  0  0
  161.2040  207.0470  150.3650 C   0  0  0  0  0  0  0  0  0  0  0  0
  161.1460  205.9130  149.5490 C   0  0  0  0  0  3  0  0  0  0  0  0
  161.9430  210.4960  152.7640 C   0  0  0  0  0  3  0  0  0  0  0  0
  161.2110  209.3440  154.7670 C   0  0  2  0  0  3  0  0  0  0  0  0
  160.9870  209.5380  156.2040 C   0  0  0  0  0  3  0  0  0  0  0  0
  163.0220  210.2310  147.9120 O   0  0  0  0  0  0  0  0  0  0  0  0
  162.4580  211.0830  148.6510 C   0  0  0  0  0  0  0  0  0  0  0  0
  161.9550  210.7150  149.9400 N   0  0  0  0  0  2  0  0  0  0  0  0
  162.3380  212.4940  148.1890 C   0  0  0  0  0  2  0  0  0  0  0  0
  159.1510  213.2600  146.1870 C   0  0  1  0  0  3  0  0  0  0  0  0
  160.9960  213.9350  144.8380 C   0  0  0  0  0  2  0  0  0  0  0  0
  157.7990  212.5790  146.1750 C   0  0  0  0  0  1  0  0  0  0  0  0
  160.0090  212.6820  147.3190 C   0  0  0  0  0  2  0  0  0  0  0  0
  161.9080  213.7680  146.0660 C   0  0  0  0  0  2  0  0  0  0  0  0
  161.4870  212.5800  146.9330 C   0  0  1  0  0  3  0  0  0  0  0  0
  159.8050  213.0810  144.8920 N   0  0  0  0  0  2  0  0  0  0  0  0
  1  9  1  0  0  0  0
  1 14  1  0  0  0  0
  2  3  1  0  0  0  0
  3  7  2  0  0  0  0
  3 19  1  0  0  0  0
  4 11  2  0  0  0  0
  5 14  2  0  0  0  0
  5  2  1  0  0  0  0
  6  1  2  0  0  0  0
  7  4  1  0  0  0  0
  8 23  1  6  0  0  0
  8 13  1  0  0  0  0
 11 15  1  0  0  0  0
 12 16  1  0  0  0  0
 12  8  1  0  0  0  0
 13  2  2  0  0  0  0
 13 18  1  0  0  0  0
 16  5  1  0  0  0  0
 17  6  1  0  0  0  0
 17 16  2  0  0  0  0
 18 10  2  0  0  0  0
 19 10  1  1  0  0  0
 19 20  1  0  0  0  0
 20 15  2  0  0  0  0
 21 22  2  0  0  0  0
 22 23  1  0  0  0  0
 24 22  1  0  0  0  0
 25 27  1  6  0  0  0
 25 28  1  0  0  0  0
 26 31  1  0  0  0  0
 26 29  1  0  0  0  0
 29 30  1  0  0  0  0
 30 28  1  0  0  0  0
 30 24  1  1  0  0  0
 31 25  1  0  0  0  0
M  END
>  <MODEL>
7

>  <REMARK>
 VINA RESULT:      -8.0      1.725      4.516
  Name = 
  3 active torsions:
  status: ('A' for Active; 'I' for Inactive)
    1  A    between atoms: C_3  and  C_9
    2  A    between atoms: C_3  and  C_22
    3  A    between atoms: C_15  and  N_23
                            x       y       z     vdW  Elec       q    Type
                         _______ _______ _______ _____ _____    ______ ____

>  <TORSDO>
F 3

$$$$
=
 OpenBabel11052422233D

 31 35  0  0  1  0  0  0  0  0999 V2000
  160.4540  212.6690  151.4240 C   0  0  0  0  0  0  0  0  0  0  0  0
  161.0040  208.9900  152.3210 C   0  0  0  0  0  0  0  0  0  0  0  0
  160.9070  208.9030  153.7440 C   0  0  0  0  0  0  0  0  0  0  0  0
  160.8530  210.4420  155.8810 C   0  0  0  0  0  3  0  0  0  0  0  0
  160.9990  210.2970  151.5800 C   0  0  0  0  0  0  0  0  0  0  0  0
  160.9230  212.7010  150.1120 C   0  0  0  0  0  3  0  0  0  0  0  0
  160.9310  210.1270  154.4920 N   0  0  0  0  0  2  0  0  0  0  0  0
  161.2270  207.8720  150.0440 C   0  0  2  0  0  3  0  0  0  0  0  0
  159.8240  214.1240  152.1660 Cl  0  0  0  0  0  0  0  0  0  0  0  0
  160.8740  206.4810  153.5560 C   0  0  0  0  0  3  0  0  0  0  0  0
  160.7310  209.5870  156.8860 C   0  0  0  0  0  3  0  0  0  0  0  0
  161.9900  209.1140  149.5860 C   0  0  0  0  0  2  0  0  0  0  0  0
  161.1140  207.8050  151.5540 C   0  0  0  0  0  0  0  0  0  0  0  0
  160.4870  211.4750  152.1490 C   0  0  0  0  0  3  0  0  0  0  0  0
  160.6510  208.1330  156.8370 C   0  0  0  0  0  3  0  0  0  0  0  0
  161.4400  210.3390  150.2390 C   0  0  0  0  0  0  0  0  0  0  0  0
  161.4160  211.5370  149.5200 C   0  0  0  0  0  3  0  0  0  0  0  0
  161.0120  206.5640  152.1810 C   0  0  0  0  0  3  0  0  0  0  0  0
  160.8320  207.6250  154.3530 C   0  0  0  0  0  0  0  0  0  0  0  0
  160.6950  207.3290  155.7840 C   0  0  0  0  0  3  0  0  0  0  0  0
  160.4740  206.5420  147.5710 O   0  0  0  0  0  0  0  0  0  0  0  0
  161.4160  206.0530  148.2510 C   0  0  0  0  0  0  0  0  0  0  0  0
  161.8350  206.6700  149.4730 N   0  0  0  0  0  2  0  0  0  0  0  0
  162.0820  204.8010  147.7920 C   0  0  0  0  0  2  0  0  0  0  0  0
  161.2270  201.0570  147.8420 C   0  0  1  0  0  3  0  0  0  0  0  0
  160.4010  201.9840  149.8760 C   0  0  0  0  0  2  0  0  0  0  0  0
  160.9260  200.0930  146.7140 C   0  0  0  0  0  1  0  0  0  0  0  0
  161.7050  202.3940  147.2620 C   0  0  0  0  0  2  0  0  0  0  0  0
  161.1970  203.2660  149.5730 C   0  0  0  0  0  2  0  0  0  0  0  0
  161.2090  203.5900  148.0780 C   0  0  1  0  0  3  0  0  0  0  0  0
  160.0340  201.2410  148.6660 N   0  0  0  0  0  2  0  0  0  0  0  0
  1 14  1  0  0  0  0
  1  9  1  0  0  0  0
  2  3  1  0  0  0  0
  3 19  2  0  0  0  0
  3  7  1  0  0  0  0
  4 11  2  0  0  0  0
  5 14  2  0  0  0  0
  5  2  1  0  0  0  0
  6  1  2  0  0  0  0
  7  4  1  0  0  0  0
  8 23  1  1  0  0  0
  8 13  1  0  0  0  0
 10 19  1  0  0  0  0
 12  8  1  0  0  0  0
 12 16  1  0  0  0  0
 13 18  1  0  0  0  0
 13  2  2  0  0  0  0
 15 11  1  0  0  0  0
 16  5  1  0  0  0  0
 17  6  1  0  0  0  0
 17 16  2  0  0  0  0
 18 10  2  0  0  0  0
 19 20  1  0  0  0  0
 20 15  2  0  0  0  0
 21 22  2  0  0  0  0
 22 23  1  0  0  0  0
 24 22  1  0  0  0  0
 25 27  1  6  0  0  0
 25 31  1  0  0  0  0
 28 25  1  0  0  0  0
 28 30  1  0  0  0  0
 29 26  1  0  0  0  0
 30 24  1  1  0  0  0
 30 29  1  0  0  0  0
 31 26  1  0  0  0  0
M  END
>  <MODEL>
8

>  <REMARK>
 VINA RESULT:      -7.7      3.547      7.510
  Name = 
  3 active torsions:
  status: ('A' for Active; 'I' for Inactive)
    1  A    between atoms: C_3  and  C_9
    2  A    between atoms: C_3  and  C_22
    3  A    between atoms: C_15  and  N_23
                            x       y       z     vdW  Elec       q    Type
                         _______ _______ _______ _____ _____    ______ ____

>  <TORSDO>
F 3

$$$$
=
 OpenBabel11052422233D

 31 35  0  0  1  0  0  0  0  0999 V2000
  162.1640  206.6310  147.0070 C   0  0  0  0  0  0  0  0  0  0  0  0
  161.2930  204.9020  150.3070 C   0  0  0  0  0  0  0  0  0  0  0  0
  161.1160  203.5170  150.0020 C   0  0  0  0  0  0  0  0  0  0  0  0
  160.8330  201.9050  147.9400 C   0  0  0  0  0  3  0  0  0  0  0  0
  161.4960  205.9520  149.2520 C   0  0  0  0  0  0  0  0  0  0  0  0
  161.9530  207.9690  147.3390 C   0  0  0  0  0  3  0  0  0  0  0  0
  161.0050  203.1460  148.6220 N   0  0  0  0  0  0  0  0  0  0  0  0
  161.4560  206.7920  152.0060 C   0  0  2  0  0  3  0  0  0  0  0  0
  162.7060  206.2010  145.4000 Cl  0  0  0  0  0  0  0  0  0  0  0  0
  161.0770  203.0360  152.3840 C   0  0  0  0  0  3  0  0  0  0  0  0
  160.7250  200.7030  148.4860 C   0  0  0  0  0  3  0  0  0  0  0  0
  160.8480  207.7070  150.9440 C   0  0  0  0  0  2  0  0  0  0  0  0
  161.2780  205.3280  151.6580 C   0  0  2  0  0  3  0  0  0  0  0  0
  161.9430  205.6330  147.9590 C   0  0  0  0  0  3  0  0  0  0  0  0
  160.7490  200.3420  149.8990 C   0  0  0  0  0  3  0  0  0  0  0  0
  161.3190  207.3130  149.5820 C   0  0  0  0  0  0  0  0  0  0  0  0
  161.5300  208.3100  148.6240 C   0  0  0  0  0  3  0  0  0  0  0  0
  161.2050  204.3830  152.6800 C   0  0  0  0  0  3  0  0  0  0  0  0
  161.0190  202.5840  151.0660 C   0  0  0  0  0  0  0  0  0  0  0  0
  160.8690  201.1290  150.9590 C   0  0  0  0  0  3  0  0  0  0  0  0
  161.7300  209.3190  153.4170 O   0  0  0  0  0  0  0  0  0  0  0  0
  161.0890  208.3890  153.9750 C   0  0  0  0  0  0  0  0  0  0  0  0
  160.9140  207.1260  153.3240 N   0  0  0  0  0  2  0  0  0  0  0  0
  160.5290  208.5970  155.3410 C   0  0  0  0  0  2  0  0  0  0  0  0
  158.5630  211.6830  156.5080 C   0  0  1  0  0  3  0  0  0  0  0  0
  160.8130  211.9760  157.2400 C   0  0  0  0  0  2  0  0  0  0  0  0
  157.3620  212.3800  155.9060 C   0  0  0  0  0  1  0  0  0  0  0  0
  158.8300  210.3740  155.7540 C   0  0  0  0  0  2  0  0  0  0  0  0
  161.0830  210.5040  156.8790 C   0  0  0  0  0  2  0  0  0  0  0  0
  160.3260  210.0760  155.6200 C   0  0  1  0  0  3  0  0  0  0  0  0
  159.7270  212.5660  156.4500 N   0  0  0  0  0  2  0  0  0  0  0  0
  1  6  2  0  0  0  0
  1 14  1  0  0  0  0
  2 13  1  0  0  0  0
  3  2  2  0  0  0  0
  3 19  1  0  0  0  0
  4 11  1  0  0  0  0
  4  7  2  0  0  0  0
  5 16  1  0  0  0  0
  5  2  1  0  0  0  0
  6 17  1  0  0  0  0
  7  3  1  0  0  0  0
  8 23  1  1  0  0  0
  9  1  1  0  0  0  0
 10 18  2  0  0  0  0
 11 15  2  0  0  0  0
 12  8  1  0  0  0  0
 13  8  1  0  0  0  0
 13 18  1  1  0  0  0
 14  5  2  0  0  0  0
 15 20  1  0  0  0  0
 16 12  1  0  0  0  0
 17 16  2  0  0  0  0
 19 10  1  0  0  0  0
 20 19  2  0  0  0  0
 21 22  2  0  0  0  0
 22 24  1  0  0  0  0
 23 22  1  0  0  0  0
 25 27  1  6  0  0  0
 28 25  1  0  0  0  0
 29 26  1  0  0  0  0
 30 24  1  1  0  0  0
 30 28  1  0  0  0  0
 30 29  1  0  0  0  0
 31 25  1  0  0  0  0
 31 26  1  0  0  0  0
M  END
>  <MODEL>
9

>  <REMARK>
 VINA RESULT:      -7.7      4.335      7.345
  Name = 
  3 active torsions:
  status: ('A' for Active; 'I' for Inactive)
    1  A    between atoms: C_3  and  C_9
    2  A    between atoms: C_3  and  C_22
    3  A    between atoms: C_15  and  N_23
                            x       y       z     vdW  Elec       q    Type
                         _______ _______ _______ _____ _____    ______ ____

>  <TORSDO>
F 3

$$$$
