=
 OpenBabel11052422083D

 25 28  0  0  1  0  0  0  0  0999 V2000
  161.4350  206.2420  149.8390 C   0  0  0  0  0  0  0  0  0  0  0  0
  161.6230  207.5710  150.2150 C   0  0  0  0  0  0  0  0  0  0  0  0
  161.6160  206.8050  147.5070 C   0  0  0  0  0  3  0  0  0  0  0  0
  161.2280  205.0870  150.5530 C   0  0  0  0  0  0  0  0  0  0  0  0
  160.7920  202.4830  151.3790 C   0  0  0  0  0  3  0  0  0  0  0  0
  161.7990  208.1110  147.8650 N   0  0  0  0  0  0  0  0  0  0  0  0
  161.1110  204.0790  149.6180 C   0  0  0  0  0  0  0  0  0  0  0  0
  160.8910  202.7580  150.0030 C   0  0  0  0  0  3  0  0  0  0  0  0
  161.9940  209.8630  149.5140 C   0  0  0  0  0  0  0  0  0  0  0  0
  162.1760  210.8470  148.5010 N   0  0  0  0  0  1  0  0  0  0  0  0
  161.6320  207.9880  151.5470 C   0  0  0  0  0  3  0  0  0  0  0  0
  160.9110  203.5180  152.3310 C   0  0  0  0  0  3  0  0  0  0  0  0
  161.4310  205.8620  148.5150 C   0  0  0  0  0  0  0  0  0  0  0  0
  161.2340  204.5340  148.3500 N   0  0  0  0  0  0  0  0  0  0  0  0
  161.9960  210.2380  150.8230 N   0  0  0  0  0  0  0  0  0  0  0  0
  161.1330  204.8460  151.9230 C   0  0  0  0  0  3  0  0  0  0  0  0
  161.8290  209.3410  151.8330 C   0  0  0  0  0  0  0  0  0  0  0  0
  161.8070  208.5160  149.1760 C   0  0  1  0  0  3  0  0  0  0  0  0
  161.8110  209.8070  153.2470 C   0  0  0  0  0  2  0  0  0  0  0  0
  160.5210  209.4900  153.8590 N   0  0  0  0  0  0  0  0  0  0  0  0
  159.7970  210.7490  154.0070 C   0  0  0  0  0  1  0  0  0  0  0  0
  159.6460  209.3450  156.1510 C   0  0  0  0  0  1  0  0  0  0  0  0
  160.6940  208.8340  155.1740 C   0  0  0  0  0  0  0  0  0  0  0  0
  161.9490  209.1560  155.6970 O   0  0  0  0  0  1  0  0  0  0  0  0
  160.5780  207.3120  155.0900 C   0  0  0  0  0  1  0  0  0  0  0  0
  1  2  2  0  0  0  0
  1  4  1  0  0  0  0
  2 11  1  0  0  0  0
  3  6  2  0  0  0  0
  3 13  1  0  0  0  0
  4 16  1  0  0  0  0
  5 12  1  0  0  0  0
  7  8  1  0  0  0  0
  7  4  2  0  0  0  0
  8  5  2  0  0  0  0
  9 15  2  0  0  0  0
 10  9  1  0  0  0  0
 11 17  2  0  0  0  0
 13  1  1  0  0  0  0
 14 13  2  0  0  0  0
 14  7  1  0  0  0  0
 15 17  1  0  0  0  0
 16 12  2  0  0  0  0
 17 19  1  0  0  0  0
 18  6  1  6  0  0  0
 18  9  1  0  0  0  0
 18  2  1  0  0  0  0
 19 20  1  0  0  0  0
 20 21  1  0  0  0  0
 20 23  1  0  0  0  0
 23 24  1  0  0  0  0
 23 22  1  0  0  0  0
 25 23  1  0  0  0  0
M  END
>  <MODEL>
1

>  <REMARK>
 VINA RESULT:      -9.0      0.000      0.000
  Name = 
  3 active torsions:
  status: ('A' for Active; 'I' for Inactive)
    1  A    between atoms: C_6  and  N_15
    2  A    between atoms: C_6  and  C_23
    3  A    between atoms: C_7  and  N_15
                            x       y       z     vdW  Elec       q    Type
                         _______ _______ _______ _____ _____    ______ ____

>  <TORSDO>
F 3

$$$$
=
 OpenBabel11052422083D

 25 28  0  0  1  0  0  0  0  0999 V2000
  161.3190  205.7350  149.6900 C   0  0  0  0  0  0  0  0  0  0  0  0
  161.4040  206.8220  150.5600 C   0  0  2  0  0  3  0  0  0  0  0  0
  161.6630  207.1540  147.7780 C   0  0  0  0  0  3  0  0  0  0  0  0
  161.1150  204.3920  149.8870 C   0  0  0  0  0  0  0  0  0  0  0  0
  160.7500  201.6630  149.6120 C   0  0  0  0  0  3  0  0  0  0  0  0
  161.7450  208.2250  148.6220 N   0  0  0  0  0  0  0  0  0  0  0  0
  161.1300  203.8180  148.6310 C   0  0  0  0  0  0  0  0  0  0  0  0
  160.9490  202.4470  148.4610 C   0  0  0  0  0  3  0  0  0  0  0  0
  161.7080  209.2130  150.8240 C   0  0  0  0  0  0  0  0  0  0  0  0
  161.9220  210.5140  150.2840 N   0  0  0  0  0  1  0  0  0  0  0  0
  161.2790  206.6950  151.9440 C   0  0  0  0  0  3  0  0  0  0  0  0
  160.7340  202.2550  150.8930 C   0  0  0  0  0  3  0  0  0  0  0  0
  161.4450  205.8940  148.3270 C   0  0  0  0  0  0  0  0  0  0  0  0
  161.3340  204.7270  147.6500 N   0  0  0  0  0  0  0  0  0  0  0  0
  161.5810  209.0560  152.1710 N   0  0  0  0  0  0  0  0  0  0  0  0
  160.9180  203.6410  151.0450 C   0  0  0  0  0  3  0  0  0  0  0  0
  161.3790  207.8370  152.7420 C   0  0  0  0  0  0  0  0  0  0  0  0
  161.6230  208.0960  149.9820 C   0  0  0  0  0  0  0  0  0  0  0  0
  161.2170  207.7250  154.2180 C   0  0  0  0  0  2  0  0  0  0  0  0
  160.8410  209.0220  154.7770 N   0  0  0  0  0  0  0  0  0  0  0  0
  162.0780  209.6950  155.1640 C   0  0  0  0  0  1  0  0  0  0  0  0
  159.4690  207.4270  156.0480 C   0  0  0  0  0  1  0  0  0  0  0  0
  159.9480  208.8680  155.9460 C   0  0  0  0  0  0  0  0  0  0  0  0
  158.8200  209.6750  155.7840 O   0  0  0  0  0  1  0  0  0  0  0  0
  160.6320  209.2450  157.2610 C   0  0  0  0  0  1  0  0  0  0  0  0
  1  4  2  0  0  0  0
  1  2  1  0  0  0  0
  2 11  1  6  0  0  0
  3 13  2  0  0  0  0
  3  6  1  0  0  0  0
  4 16  1  0  0  0  0
  5 12  1  0  0  0  0
  6 18  2  0  0  0  0
  7  4  1  0  0  0  0
  8  7  1  0  0  0  0
  8  5  2  0  0  0  0
  9 15  2  0  0  0  0
 10  9  1  0  0  0  0
 11 17  2  0  0  0  0
 12 16  2  0  0  0  0
 13  1  1  0  0  0  0
 14 13  1  0  0  0  0
 14  7  2  0  0  0  0
 15 17  1  0  0  0  0
 17 19  1  0  0  0  0
 18  2  1  0  0  0  0
 18  9  1  0  0  0  0
 19 20  1  0  0  0  0
 20 21  1  0  0  0  0
 20 23  1  0  0  0  0
 23 22  1  0  0  0  0
 23 25  1  0  0  0  0
 24 23  1  0  0  0  0
M  END
>  <MODEL>
2

>  <REMARK>
 VINA RESULT:      -8.8      1.311      1.667
  Name = 
  3 active torsions:
  status: ('A' for Active; 'I' for Inactive)
    1  A    between atoms: C_6  and  N_15
    2  A    between atoms: C_6  and  C_23
    3  A    between atoms: C_7  and  N_15
                            x       y       z     vdW  Elec       q    Type
                         _______ _______ _______ _____ _____    ______ ____

>  <TORSDO>
F 3

$$$$
=
 OpenBabel11052422083D

 25 28  0  0  0  0  0  0  0  0999 V2000
  161.3140  205.3890  150.5440 C   0  0  0  0  0  0  0  0  0  0  0  0
  161.2510  204.2560  149.7340 C   0  0  0  0  0  0  0  0  0  0  0  0
  160.8230  204.0920  152.5100 C   0  0  0  0  0  3  0  0  0  0  0  0
  161.5600  206.7150  150.2830 C   0  0  0  0  0  0  0  0  0  0  0  0
  161.9680  209.4470  150.4220 C   0  0  0  0  0  3  0  0  0  0  0  0
  160.7570  202.9760  151.7240 N   0  0  0  0  0  0  0  0  0  0  0  0
  161.4850  207.3610  151.5010 C   0  0  0  0  0  0  0  0  0  0  0  0
  161.6860  208.7360  151.6020 C   0  0  0  0  0  3  0  0  0  0  0  0
  160.8850  201.8640  149.5860 C   0  0  0  0  0  0  0  0  0  0  0  0
  160.5900  200.6040  150.1830 N   0  0  0  0  0  1  0  0  0  0  0  0
  161.4570  204.2990  148.3540 C   0  0  0  0  0  2  0  0  0  0  0  0
  162.0420  208.7810  149.1800 C   0  0  0  0  0  3  0  0  0  0  0  0
  161.1050  205.3130  151.9040 C   0  0  0  0  0  0  0  0  0  0  0  0
  161.2050  206.5150  152.5190 N   0  0  0  0  0  0  0  0  0  0  0  0
  161.0890  201.9400  148.2420 N   0  0  0  0  0  0  0  0  0  0  0  0
  161.8360  207.3930  149.0970 C   0  0  0  0  0  3  0  0  0  0  0  0
  161.3770  203.1150  147.6190 C   0  0  0  0  0  0  0  0  0  0  0  0
  160.9610  203.0240  150.3690 C   0  0  0  0  0  0  0  0  0  0  0  0
  161.5630  203.1470  146.1420 C   0  0  0  0  0  2  0  0  0  0  0  0
  160.5570  204.0150  145.5330 N   0  0  0  0  0  0  0  0  0  0  0  0
  159.9150  203.2460  144.4710 C   0  0  0  0  0  1  0  0  0  0  0  0
  160.3480  206.4610  145.3990 C   0  0  0  0  0  1  0  0  0  0  0  0
  161.1670  205.2470  144.9840 C   0  0  0  0  0  0  0  0  0  0  0  0
  161.1590  205.1910  143.5880 O   0  0  0  0  0  1  0  0  0  0  0  0
  162.6070  205.4490  145.4560 C   0  0  0  0  0  1  0  0  0  0  0  0
  1 13  1  0  0  0  0
  2 18  1  0  0  0  0
  2  1  2  0  0  0  0
  4  1  1  0  0  0  0
  4  7  1  0  0  0  0
  5  8  1  0  0  0  0
  6  3  2  0  0  0  0
  7  8  2  0  0  0  0
  7 14  1  0  0  0  0
  9 10  1  0  0  0  0
  9 18  2  0  0  0  0
 11  2  1  0  0  0  0
 12  5  2  0  0  0  0
 13  3  1  0  0  0  0
 13 14  2  0  0  0  0
 15  9  1  0  0  0  0
 16 12  1  0  0  0  0
 16  4  2  0  0  0  0
 17 15  2  0  0  0  0
 17 11  1  0  0  0  0
 18  6  1  0  0  0  0
 19 17  1  0  0  0  0
 20 19  1  0  0  0  0
 21 20  1  0  0  0  0
 23 22  1  0  0  0  0
 23 25  1  0  0  0  0
 23 20  1  0  0  0  0
 24 23  1  0  0  0  0
M  END
>  <MODEL>
3

>  <REMARK>
 VINA RESULT:      -8.5      3.680      7.728
  Name = 
  3 active torsions:
  status: ('A' for Active; 'I' for Inactive)
    1  A    between atoms: C_6  and  N_15
    2  A    between atoms: C_6  and  C_23
    3  A    between atoms: C_7  and  N_15
                            x       y       z     vdW  Elec       q    Type
                         _______ _______ _______ _____ _____    ______ ____

>  <TORSDO>
F 3

$$$$
=
 OpenBabel11052422083D

 25 28  0  0  0  0  0  0  0  0999 V2000
  161.1840  206.4350  151.9330 C   0  0  0  0  0  0  0  0  0  0  0  0
  161.2030  205.6390  150.7890 C   0  0  0  0  0  0  0  0  0  0  0  0
  160.8310  204.5190  153.3440 C   0  0  0  0  0  3  0  0  0  0  0  0
  161.3160  207.7880  152.1360 C   0  0  0  0  0  0  0  0  0  0  0  0
  161.4990  210.3390  153.1890 C   0  0  0  0  0  3  0  0  0  0  0  0
  160.8460  203.7300  152.2280 N   0  0  0  0  0  0  0  0  0  0  0  0
  161.2070  207.9790  153.4980 C   0  0  0  0  0  0  0  0  0  0  0  0
  161.2950  209.2520  154.0580 C   0  0  0  0  0  3  0  0  0  0  0  0
  161.0330  203.4130  149.8430 C   0  0  0  0  0  0  0  0  0  0  0  0
  160.8510  202.0070  149.9780 N   0  0  0  0  0  1  0  0  0  0  0  0
  161.3840  206.1590  149.5070 C   0  0  0  0  0  2  0  0  0  0  0  0
  161.6100  210.1370  151.7960 C   0  0  0  0  0  3  0  0  0  0  0  0
  161.0020  205.8910  153.1860 C   0  0  0  0  0  0  0  0  0  0  0  0
  161.0120  206.8210  154.1690 N   0  0  0  0  0  0  0  0  0  0  0  0
  161.2100  203.9520  148.6050 N   0  0  0  0  0  0  0  0  0  0  0  0
  161.5170  208.8450  151.2500 C   0  0  0  0  0  3  0  0  0  0  0  0
  161.3910  205.2880  148.4160 C   0  0  0  0  0  0  0  0  0  0  0  0
  161.0250  204.2460  150.9700 C   0  0  0  0  0  0  0  0  0  0  0  0
  161.5520  205.8290  147.0380 C   0  0  0  0  0  2  0  0  0  0  0  0
  161.6750  204.7290  146.0830 N   0  0  0  0  0  0  0  0  0  0  0  0
  163.0660  204.7030  145.6380 C   0  0  0  0  0  1  0  0  0  0  0  0
  161.5420  205.4530  143.7370 C   0  0  0  0  0  1  0  0  0  0  0  0
  160.7660  204.9120  144.9290 C   0  0  0  0  0  0  0  0  0  0  0  0
  159.7820  205.8490  145.2520 O   0  0  0  0  0  1  0  0  0  0  0  0
  160.0810  203.6100  144.5110 C   0  0  0  0  0  1  0  0  0  0  0  0
  1  4  1  0  0  0  0
  1 13  1  0  0  0  0
  2 18  1  0  0  0  0
  2  1  2  0  0  0  0
  4  7  1  0  0  0  0
  5  8  1  0  0  0  0
  6  3  2  0  0  0  0
  7  8  2  0  0  0  0
  7 14  1  0  0  0  0
  9 10  1  0  0  0  0
  9 18  2  0  0  0  0
 11  2  1  0  0  0  0
 12  5  2  0  0  0  0
 13  3  1  0  0  0  0
 13 14  2  0  0  0  0
 15  9  1  0  0  0  0
 16 12  1  0  0  0  0
 16  4  2  0  0  0  0
 17 15  2  0  0  0  0
 17 11  1  0  0  0  0
 18  6  1  0  0  0  0
 19 17  1  0  0  0  0
 20 19  1  0  0  0  0
 21 20  1  0  0  0  0
 22 23  1  0  0  0  0
 23 24  1  0  0  0  0
 23 20  1  0  0  0  0
 25 23  1  0  0  0  0
M  END
>  <MODEL>
4

>  <REMARK>
 VINA RESULT:      -8.2      3.181      7.489
  Name = 
  3 active torsions:
  status: ('A' for Active; 'I' for Inactive)
    1  A    between atoms: C_6  and  N_15
    2  A    between atoms: C_6  and  C_23
    3  A    between atoms: C_7  and  N_15
                            x       y       z     vdW  Elec       q    Type
                         _______ _______ _______ _____ _____    ______ ____

>  <TORSDO>
F 3

$$$$
=
 OpenBabel11052422083D

 25 28  0  0  1  0  0  0  0  0999 V2000
  161.5460  206.5950  149.4810 C   0  0  0  0  0  0  0  0  0  0  0  0
  161.6860  207.9420  149.8110 C   0  0  2  0  0  3  0  0  0  0  0  0
  161.2000  205.9970  151.7850 C   0  0  0  0  0  3  0  0  0  0  0  0
  161.5960  205.9120  148.2900 C   0  0  0  0  0  0  0  0  0  0  0  0
  161.5810  204.0040  146.2860 C   0  0  0  0  0  3  0  0  0  0  0  0
  161.3380  207.3140  152.1190 N   0  0  0  0  0  0  0  0  0  0  0  0
  161.3840  204.5850  148.6050 C   0  0  0  0  0  0  0  0  0  0  0  0
  161.3720  203.6020  147.6180 C   0  0  0  0  0  3  0  0  0  0  0  0
  161.7160  209.6300  151.5510 C   0  0  0  0  0  0  0  0  0  0  0  0
  161.6170  210.0190  152.9180 N   0  0  0  0  0  1  0  0  0  0  0  0
  161.9290  208.9340  148.8590 C   0  0  0  0  0  3  0  0  0  0  0  0
  161.7980  205.3630  145.9700 C   0  0  0  0  0  3  0  0  0  0  0  0
  161.3080  205.6390  150.4440 C   0  0  0  0  0  0  0  0  0  0  0  0
  161.2030  204.3910  149.9310 N   0  0  0  0  0  0  0  0  0  0  0  0
  161.9540  210.5730  150.5990 N   0  0  0  0  0  0  0  0  0  0  0  0
  161.8080  206.3410  146.9810 C   0  0  0  0  0  3  0  0  0  0  0  0
  162.0540  210.2600  149.2780 C   0  0  0  0  0  0  0  0  0  0  0  0
  161.5750  208.2860  151.1800 C   0  0  0  0  0  0  0  0  0  0  0  0
  162.3440  211.3270  148.2810 C   0  0  0  0  0  2  0  0  0  0  0  0
  161.2110  212.2460  148.1930 N   0  0  0  0  0  0  0  0  0  0  0  0
  160.4930  211.9230  146.9630 C   0  0  0  0  0  1  0  0  0  0  0  0
  161.1790  214.3380  146.9020 C   0  0  0  0  0  1  0  0  0  0  0  0
  161.6600  213.6560  148.1740 C   0  0  0  0  0  0  0  0  0  0  0  0
  163.0560  213.7030  148.1750 O   0  0  0  0  0  1  0  0  0  0  0  0
  161.1460  214.4520  149.3740 C   0  0  0  0  0  1  0  0  0  0  0  0
  1  2  1  0  0  0  0
  1 13  1  0  0  0  0
  2 11  1  1  0  0  0
  2 18  1  0  0  0  0
  3  6  1  0  0  0  0
  4  7  1  0  0  0  0
  4  1  2  0  0  0  0
  5  8  2  0  0  0  0
  7 14  2  0  0  0  0
  8  7  1  0  0  0  0
  9 10  1  0  0  0  0
 11 17  2  0  0  0  0
 12  5  1  0  0  0  0
 12 16  2  0  0  0  0
 13  3  2  0  0  0  0
 14 13  1  0  0  0  0
 15  9  2  0  0  0  0
 16  4  1  0  0  0  0
 17 15  1  0  0  0  0
 18  9  1  0  0  0  0
 18  6  2  0  0  0  0
 19 17  1  0  0  0  0
 20 19  1  0  0  0  0
 21 20  1  0  0  0  0
 22 23  1  0  0  0  0
 23 24  1  0  0  0  0
 23 20  1  0  0  0  0
 23 25  1  0  0  0  0
M  END
>  <MODEL>
5

>  <REMARK>
 VINA RESULT:      -8.1      2.826      5.183
  Name = 
  3 active torsions:
  status: ('A' for Active; 'I' for Inactive)
    1  A    between atoms: C_6  and  N_15
    2  A    between atoms: C_6  and  C_23
    3  A    between atoms: C_7  and  N_15
                            x       y       z     vdW  Elec       q    Type
                         _______ _______ _______ _____ _____    ______ ____

>  <TORSDO>
F 3

$$$$
=
 OpenBabel11052422083D

 25 28  0  0  1  0  0  0  0  0999 V2000
  161.4040  204.6990  149.2120 C   0  0  0  0  0  0  0  0  0  0  0  0
  161.5140  205.5380  150.3200 C   0  0  2  0  0  3  0  0  0  0  0  0
  160.7010  202.8580  150.5930 C   0  0  0  0  0  3  0  0  0  0  0  0
  161.6230  204.8860  147.8690 C   0  0  0  0  0  0  0  0  0  0  0  0
  161.8830  204.6160  145.1290 C   0  0  0  0  0  3  0  0  0  0  0  0
  160.8080  203.6730  151.6850 N   0  0  0  0  0  0  0  0  0  0  0  0
  161.3450  203.6760  147.2670 C   0  0  0  0  0  0  0  0  0  0  0  0
  161.4670  203.5090  145.8900 C   0  0  0  0  0  3  0  0  0  0  0  0
  161.3050  205.7940  152.7220 C   0  0  0  0  0  0  0  0  0  0  0  0
  161.0060  205.2750  154.0140 N   0  0  0  0  0  1  0  0  0  0  0  0
  161.9150  206.8720  150.2230 C   0  0  0  0  0  3  0  0  0  0  0  0
  162.1680  205.8520  145.7500 C   0  0  0  0  0  3  0  0  0  0  0  0
  161.0060  203.3860  149.3410 C   0  0  0  0  0  0  0  0  0  0  0  0
  160.9600  202.7320  148.1580 N   0  0  0  0  0  0  0  0  0  0  0  0
  161.7010  207.0910  152.5940 N   0  0  0  0  0  0  0  0  0  0  0  0
  162.0400  206.0000  147.1420 C   0  0  0  0  0  3  0  0  0  0  0  0
  161.9960  207.6420  151.3850 C   0  0  0  0  0  0  0  0  0  0  0  0
  161.2010  204.9830  151.5850 C   0  0  0  0  0  0  0  0  0  0  0  0
  162.4520  209.0570  151.3040 C   0  0  0  0  0  2  0  0  0  0  0  0
  161.3180  209.9290  151.0020 N   0  0  0  0  0  0  0  0  0  0  0  0
  161.7960  210.9440  150.0670 C   0  0  0  0  0  1  0  0  0  0  0  0
  161.8410  210.5470  153.3240 C   0  0  0  0  0  1  0  0  0  0  0  0
  160.7850  210.5640  152.2280 C   0  0  0  0  0  0  0  0  0  0  0  0
  159.6850  209.8380  152.6920 O   0  0  0  0  0  1  0  0  0  0  0  0
  160.3500  212.0110  151.9970 C   0  0  0  0  0  1  0  0  0  0  0  0
  1 13  1  0  0  0  0
  1  2  1  0  0  0  0
  2 11  1  1  0  0  0
  2 18  1  0  0  0  0
  3  6  1  0  0  0  0
  4  1  2  0  0  0  0
  5 12  1  0  0  0  0
  5  8  2  0  0  0  0
  7  4  1  0  0  0  0
  7 14  2  0  0  0  0
  8  7  1  0  0  0  0
  9 10  1  0  0  0  0
 11 17  2  0  0  0  0
 12 16  2  0  0  0  0
 13  3  2  0  0  0  0
 14 13  1  0  0  0  0
 15  9  2  0  0  0  0
 16  4  1  0  0  0  0
 17 15  1  0  0  0  0
 18  6  2  0  0  0  0
 18  9  1  0  0  0  0
 19 17  1  0  0  0  0
 20 19  1  0  0  0  0
 20 23  1  0  0  0  0
 21 20  1  0  0  0  0
 23 24  1  0  0  0  0
 23 22  1  0  0  0  0
 25 23  1  0  0  0  0
M  END
>  <MODEL>
6

>  <REMARK>
 VINA RESULT:      -7.9      2.085      4.305
  Name = 
  3 active torsions:
  status: ('A' for Active; 'I' for Inactive)
    1  A    between atoms: C_6  and  N_15
    2  A    between atoms: C_6  and  C_23
    3  A    between atoms: C_7  and  N_15
                            x       y       z     vdW  Elec       q    Type
                         _______ _______ _______ _____ _____    ______ ____

>  <TORSDO>
F 3

$$$$
=
 OpenBabel11052422083D

 25 28  0  0  1  0  0  0  0  0999 V2000
  161.1310  205.9910  150.8500 C   0  0  0  0  0  0  0  0  0  0  0  0
  161.0270  206.9320  151.8730 C   0  0  2  0  0  3  0  0  0  0  0  0
  161.1280  204.1750  152.4280 C   0  0  0  0  0  3  0  0  0  0  0  0
  161.2060  206.0990  149.4830 C   0  0  0  0  0  0  0  0  0  0  0  0
  161.3900  205.6440  146.7600 C   0  0  0  0  0  3  0  0  0  0  0  0
  161.0280  205.0900  153.4380 N   0  0  0  0  0  0  0  0  0  0  0  0
  161.2970  204.8070  149.0050 C   0  0  0  0  0  0  0  0  0  0  0  0
  161.3900  204.5470  147.6400 C   0  0  0  0  0  3  0  0  0  0  0  0
  160.8780  207.3560  154.2560 C   0  0  0  0  0  0  0  0  0  0  0  0
  160.8310  206.9040  155.6070 N   0  0  0  0  0  1  0  0  0  0  0  0
  160.9760  208.3070  151.6370 C   0  0  0  0  0  3  0  0  0  0  0  0
  161.2980  206.9640  147.2540 C   0  0  0  0  0  3  0  0  0  0  0  0
  161.1810  204.6400  151.1170 C   0  0  0  0  0  0  0  0  0  0  0  0
  161.2820  203.8870  149.9970 N   0  0  0  0  0  0  0  0  0  0  0  0
  160.8320  208.6910  153.9920 N   0  0  0  0  0  0  0  0  0  0  0  0
  161.2050  207.2060  148.6360 C   0  0  0  0  0  3  0  0  0  0  0  0
  160.8690  209.1790  152.7220 C   0  0  0  0  0  0  0  0  0  0  0  0
  160.9770  206.4400  153.2010 C   0  0  0  0  0  0  0  0  0  0  0  0
  160.8450  210.6490  152.4900 C   0  0  0  0  0  2  0  0  0  0  0  0
  159.5070  211.1730  152.7590 N   0  0  0  0  0  0  0  0  0  0  0  0
  159.2130  212.1530  151.7170 C   0  0  0  0  0  1  0  0  0  0  0  0
  158.9560  213.2420  153.9680 C   0  0  0  0  0  1  0  0  0  0  0  0
  159.4320  211.8020  154.0970 C   0  0  0  0  0  0  0  0  0  0  0  0
  160.7050  211.8300  154.6730 O   0  0  0  0  0  1  0  0  0  0  0  0
  158.4860  211.0620  155.0420 C   0  0  0  0  0  1  0  0  0  0  0  0
  1 13  1  0  0  0  0
  1  2  1  0  0  0  0
  2 11  1  1  0  0  0
  2 18  1  0  0  0  0
  3  6  1  0  0  0  0
  4  1  2  0  0  0  0
  5 12  1  0  0  0  0
  5  8  2  0  0  0  0
  7  4  1  0  0  0  0
  7 14  2  0  0  0  0
  8  7  1  0  0  0  0
  9 10  1  0  0  0  0
 11 17  2  0  0  0  0
 12 16  2  0  0  0  0
 13  3  2  0  0  0  0
 14 13  1  0  0  0  0
 15  9  2  0  0  0  0
 16  4  1  0  0  0  0
 17 15  1  0  0  0  0
 18  6  2  0  0  0  0
 18  9  1  0  0  0  0
 19 17  1  0  0  0  0
 19 20  1  0  0  0  0
 20 23  1  0  0  0  0
 21 20  1  0  0  0  0
 22 23  1  0  0  0  0
 23 24  1  0  0  0  0
 23 25  1  0  0  0  0
M  END
>  <MODEL>
7

>  <REMARK>
 VINA RESULT:      -7.8      2.127      3.982
  Name = 
  3 active torsions:
  status: ('A' for Active; 'I' for Inactive)
    1  A    between atoms: C_6  and  N_15
    2  A    between atoms: C_6  and  C_23
    3  A    between atoms: C_7  and  N_15
                            x       y       z     vdW  Elec       q    Type
                         _______ _______ _______ _____ _____    ______ ____

>  <TORSDO>
F 3

$$$$
=
 OpenBabel11052422083D

 25 28  0  0  1  0  0  0  0  0999 V2000
  161.2740  207.6750  152.3980 C   0  0  0  0  0  0  0  0  0  0  0  0
  161.5640  208.2360  151.1550 C   0  0  0  0  0  0  0  0  0  0  0  0
  161.4380  205.4470  151.5080 C   0  0  0  0  0  3  0  0  0  0  0  0
  161.0030  208.2190  153.6300 C   0  0  0  0  0  0  0  0  0  0  0  0
  160.4030  208.6680  156.2930 C   0  0  0  0  0  3  0  0  0  0  0  0
  161.7210  205.9860  150.2840 N   0  0  0  0  0  0  0  0  0  0  0  0
  160.7930  207.1500  154.4780 C   0  0  0  0  0  0  0  0  0  0  0  0
  160.4890  207.3450  155.8240 C   0  0  0  0  0  3  0  0  0  0  0  0
  162.0780  207.8660  148.8140 C   0  0  0  0  0  0  0  0  0  0  0  0
  162.3060  207.0030  147.7050 N   0  0  0  0  0  1  0  0  0  0  0  0
  161.6340  209.6130  150.9420 C   0  0  0  0  0  3  0  0  0  0  0  0
  160.6180  209.7570  155.4210 C   0  0  0  0  0  3  0  0  0  0  0  0
  161.2110  206.3100  152.5760 C   0  0  0  0  0  0  0  0  0  0  0  0
  160.9170  205.9590  153.8490 N   0  0  0  0  0  0  0  0  0  0  0  0
  162.1380  209.2160  148.6390 N   0  0  0  0  0  0  0  0  0  0  0  0
  160.9230  209.5410  154.0660 C   0  0  0  0  0  3  0  0  0  0  0  0
  161.9330  210.0880  149.6640 C   0  0  0  0  0  0  0  0  0  0  0  0
  161.7900  207.3400  150.0810 C   0  0  1  0  0  3  0  0  0  0  0  0
  161.9810  211.5550  149.4120 C   0  0  0  0  0  2  0  0  0  0  0  0
  162.1840  211.8080  147.9870 N   0  0  0  0  0  0  0  0  0  0  0  0
  163.4880  212.4520  147.8490 C   0  0  0  0  0  1  0  0  0  0  0  0
  160.4150  213.4160  148.5630 C   0  0  0  0  0  1  0  0  0  0  0  0
  161.1190  212.6750  147.4350 C   0  0  0  0  0  0  0  0  0  0  0  0
  160.1630  211.8880  146.7870 O   0  0  0  0  0  1  0  0  0  0  0  0
  161.6560  213.7040  146.4410 C   0  0  0  0  0  1  0  0  0  0  0  0
  1 13  1  0  0  0  0
  1  4  1  0  0  0  0
  2  1  2  0  0  0  0
  3 13  1  0  0  0  0
  4 16  2  0  0  0  0
  4  7  1  0  0  0  0
  6  3  2  0  0  0  0
  7  8  2  0  0  0  0
  8  5  1  0  0  0  0
 10  9  1  0  0  0  0
 11  2  1  0  0  0  0
 12  5  2  0  0  0  0
 13 14  2  0  0  0  0
 14  7  1  0  0  0  0
 15  9  2  0  0  0  0
 15 17  1  0  0  0  0
 16 12  1  0  0  0  0
 17 11  2  0  0  0  0
 18  9  1  6  0  0  0
 18  6  1  0  0  0  0
 18  2  1  0  0  0  0
 19 17  1  0  0  0  0
 20 19  1  0  0  0  0
 21 20  1  0  0  0  0
 23 20  1  0  0  0  0
 23 22  1  0  0  0  0
 24 23  1  0  0  0  0
 25 23  1  0  0  0  0
M  END
>  <MODEL>
8

>  <REMARK>
 VINA RESULT:      -7.4      2.791      5.797
  Name = 
  3 active torsions:
  status: ('A' for Active; 'I' for Inactive)
    1  A    between atoms: C_6  and  N_15
    2  A    between atoms: C_6  and  C_23
    3  A    between atoms: C_7  and  N_15
                            x       y       z     vdW  Elec       q    Type
                         _______ _______ _______ _____ _____    ______ ____

>  <TORSDO>
F 3

$$$$
=
 OpenBabel11052422083D

 25 28  0  0  1  0  0  0  0  0999 V2000
  161.5050  207.2790  151.1020 C   0  0  0  0  0  0  0  0  0  0  0  0
  161.3540  205.9490  150.7120 C   0  0  2  0  0  3  0  0  0  0  0  0
  161.3250  206.6880  153.4270 C   0  0  0  0  0  3  0  0  0  0  0  0
  161.6830  208.4460  150.4010 C   0  0  0  0  0  0  0  0  0  0  0  0
  162.0460  211.0710  149.6040 C   0  0  0  0  0  3  0  0  0  0  0  0
  161.1740  205.3810  153.0550 N   0  0  0  0  0  0  0  0  0  0  0  0
  161.7670  209.4480  151.3470 C   0  0  0  0  0  0  0  0  0  0  0  0
  161.9490  210.7780  150.9760 C   0  0  0  0  0  3  0  0  0  0  0  0
  161.0230  203.6440  151.3860 C   0  0  0  0  0  0  0  0  0  0  0  0
  160.8430  202.6470  152.3880 N   0  0  0  0  0  1  0  0  0  0  0  0
  161.3630  205.5460  149.3760 C   0  0  0  0  0  3  0  0  0  0  0  0
  161.9600  210.0420  148.6400 C   0  0  0  0  0  3  0  0  0  0  0  0
  161.4910  207.6450  152.4300 C   0  0  0  0  0  0  0  0  0  0  0  0
  161.6510  208.9770  152.6100 N   0  0  0  0  0  0  0  0  0  0  0  0
  161.0350  203.2830  150.0730 N   0  0  0  0  0  0  0  0  0  0  0  0
  161.7740  208.7050  149.0340 C   0  0  0  0  0  3  0  0  0  0  0  0
  161.2070  204.1910  149.0740 C   0  0  0  0  0  0  0  0  0  0  0  0
  161.1840  204.9900  151.7400 C   0  0  0  0  0  0  0  0  0  0  0  0
  161.1820  203.7480  147.6530 C   0  0  0  0  0  2  0  0  0  0  0  0
  161.5610  204.8560  146.7800 N   0  0  0  0  0  0  0  0  0  0  0  0
  160.4710  205.8280  146.8250 C   0  0  0  0  0  1  0  0  0  0  0  0
  160.9370  203.1670  145.1060 C   0  0  0  0  0  1  0  0  0  0  0  0
  161.7870  204.3970  145.3910 C   0  0  0  0  0  0  0  0  0  0  0  0
  163.1260  204.0300  145.2320 O   0  0  0  0  0  1  0  0  0  0  0  0
  161.4500  205.4700  144.3560 C   0  0  0  0  0  1  0  0  0  0  0  0
  1 13  1  0  0  0  0
  2 11  1  6  0  0  0
  2  1  1  0  0  0  0
  2 18  1  0  0  0  0
  4  1  2  0  0  0  0
  4  7  1  0  0  0  0
  5  8  2  0  0  0  0
  6  3  1  0  0  0  0
  7 14  2  0  0  0  0
  8  7  1  0  0  0  0
  9 18  1  0  0  0  0
  9 10  1  0  0  0  0
 12 16  2  0  0  0  0
 12  5  1  0  0  0  0
 13 14  1  0  0  0  0
 13  3  2  0  0  0  0
 15  9  2  0  0  0  0
 16  4  1  0  0  0  0
 17 11  2  0  0  0  0
 17 15  1  0  0  0  0
 18  6  2  0  0  0  0
 19 17  1  0  0  0  0
 20 21  1  0  0  0  0
 20 19  1  0  0  0  0
 22 23  1  0  0  0  0
 23 20  1  0  0  0  0
 24 23  1  0  0  0  0
 25 23  1  0  0  0  0
M  END
>  <MODEL>
9

>  <REMARK>
 VINA RESULT:      -7.3      3.148      7.472
  Name = 
  3 active torsions:
  status: ('A' for Active; 'I' for Inactive)
    1  A    between atoms: C_6  and  N_15
    2  A    between atoms: C_6  and  C_23
    3  A    between atoms: C_7  and  N_15
                            x       y       z     vdW  Elec       q    Type
                         _______ _______ _______ _____ _____    ______ ____

>  <TORSDO>
F 3

$$$$
