=
 OpenBabel11062408273D

 32 36  0  0  0  0  0  0  0  0999 V2000
  161.2370  205.2540  150.5020 C   0  0  0  0  0  0  0  0  0  0  0  0
  161.5880  207.9900  149.9280 C   0  0  0  0  0  0  0  0  0  0  0  0
  161.0340  203.8920  150.7660 C   0  0  0  0  0  3  0  0  0  0  0  0
  161.3180  206.1840  151.5830 C   0  0  0  0  0  0  0  0  0  0  0  0
  161.5910  208.5450  152.2910 C   0  0  0  0  0  3  0  0  0  0  0  0
  162.5380  211.1920  148.2390 N   0  0  0  0  0  2  0  0  0  0  0  0
  161.4990  207.5670  151.2820 C   0  0  0  0  0  0  0  0  0  0  0  0
  161.9990  211.6340  150.3000 O   0  0  0  0  0  0  0  0  0  0  0  0
  161.8310  210.2940  150.6530 C   0  0  0  0  0  0  0  0  0  0  0  0
  161.2060  205.6860  152.9170 C   0  0  0  0  0  0  0  0  0  0  0  0
  161.7570  209.8960  151.9840 C   0  0  0  0  0  3  0  0  0  0  0  0
  161.0120  204.3120  153.1320 C   0  0  0  0  0  3  0  0  0  0  0  0
  161.5100  207.0530  148.8990 C   0  0  0  0  0  3  0  0  0  0  0  0
  161.3460  205.6980  149.1670 C   0  0  0  0  0  0  0  0  0  0  0  0
  161.7650  209.3540  149.6270 C   0  0  0  0  0  0  0  0  0  0  0  0
  160.9240  203.4230  152.0680 C   0  0  0  0  0  3  0  0  0  0  0  0
  161.7970  212.0290  149.0230 O   0  0  0  0  0  0  0  0  0  0  0  0
  161.8800  209.8800  148.2230 C   0  0  0  0  0  2  0  0  0  0  0  0
  161.1510  204.3140  145.6340 C   0  0  0  0  0  0  0  0  0  0  0  0
  161.0840  204.7510  144.3180 O   0  0  0  0  0  1  0  0  0  0  0  0
  161.2800  204.7700  148.0200 C   0  0  0  0  0  0  0  0  0  0  0  0
  161.1540  202.9430  145.9000 C   0  0  0  0  0  3  0  0  0  0  0  0
  161.2730  203.3920  148.2700 C   0  0  0  0  0  3  0  0  0  0  0  0
  161.2090  205.2370  146.6900 C   0  0  0  0  0  0  0  0  0  0  0  0
  161.1530  206.9620  146.3330 Cl  0  0  0  0  0  0  0  0  0  0  0  0
  161.2130  202.4730  147.2200 C   0  0  0  0  0  0  0  0  0  0  0  0
  161.2710  200.6090  148.8430 C   0  0  0  0  0  1  0  0  0  0  0  0
  161.2130  201.1080  147.5140 O   0  0  0  0  0  0  0  0  0  0  0  0
  161.2870  206.5470  154.0200 O   0  0  0  0  0  0  0  0  0  0  0  0
  160.2530  206.6720  154.9870 C   0  0  0  0  0  2  0  0  0  0  0  0
  160.5700  207.8040  155.9030 C   0  0  0  0  0  3  0  0  0  0  0  0
  161.6870  208.2920  155.9040 O   0  0  0  0  0  0  0  0  0  0  0  0
  1  3  2  0  0  0  0
  1  4  1  0  0  0  0
  2  7  1  0  0  0  0
  3 16  1  0  0  0  0
  4 10  2  0  0  0  0
  6 17  1  0  0  0  0
  7  4  1  0  0  0  0
  7  5  2  0  0  0  0
  8  9  1  0  0  0  0
  9 11  2  0  0  0  0
 10 12  1  0  0  0  0
 10 29  1  0  0  0  0
 11  5  1  0  0  0  0
 13 14  2  0  0  0  0
 13  2  1  0  0  0  0
 14  1  1  0  0  0  0
 15  2  2  0  0  0  0
 15  9  1  0  0  0  0
 16 12  2  0  0  0  0
 17  8  1  0  0  0  0
 18  6  1  0  0  0  0
 18 15  1  0  0  0  0
 19 22  2  0  0  0  0
 19 24  1  0  0  0  0
 20 19  1  0  0  0  0
 21 23  1  0  0  0  0
 21 14  1  0  0  0  0
 22 26  1  0  0  0  0
 24 21  2  0  0  0  0
 25 24  1  0  0  0  0
 26 28  1  0  0  0  0
 26 23  2  0  0  0  0
 28 27  1  0  0  0  0
 29 30  1  0  0  0  0
 30 31  1  0  0  0  0
 31 32  2  0  0  0  0
M  END
>  <MODEL>
1

>  <REMARK>
 VINA RESULT:      -9.4      0.000      0.000
  Name = 
  5 active torsions:
  status: ('A' for Active; 'I' for Inactive)
    1  A    between atoms: C_13  and  C_18
    2  A    between atoms: C_14  and  O_29
    3  A    between atoms: O_15  and  C_26
    4  A    between atoms: C_16  and  C_27
    5  A    between atoms: C_18  and  O_29
                            x       y       z     vdW  Elec       q    Type
                         _______ _______ _______ _____ _____    ______ ____

>  <TORSDO>
F 5

$$$$
=
 OpenBabel11062408273D

 32 36  0  0  0  0  0  0  0  0999 V2000
  161.5460  206.9430  149.7160 C   0  0  0  0  0  0  0  0  0  0  0  0
  161.1160  207.3320  152.4730 C   0  0  0  0  0  0  0  0  0  0  0  0
  161.7840  206.7250  148.3520 C   0  0  0  0  0  3  0  0  0  0  0  0
  161.6440  208.2630  150.2530 C   0  0  0  0  0  0  0  0  0  0  0  0
  161.4960  209.7200  152.2550 C   0  0  0  0  0  3  0  0  0  0  0  0
  159.9170  206.9200  155.9940 N   0  0  0  0  0  2  0  0  0  0  0  0
  161.4210  208.4500  151.6500 C   0  0  0  0  0  0  0  0  0  0  0  0
  160.7830  208.9060  155.7900 O   0  0  0  0  0  0  0  0  0  0  0  0
  161.0010  208.7830  154.4170 C   0  0  0  0  0  0  0  0  0  0  0  0
  161.9670  209.3340  149.3660 C   0  0  0  0  0  0  0  0  0  0  0  0
  161.2880  209.8900  153.6240 C   0  0  0  0  0  3  0  0  0  0  0  0
  162.1890  209.0670  148.0050 C   0  0  0  0  0  3  0  0  0  0  0  0
  161.0240  206.0590  151.9130 C   0  0  0  0  0  3  0  0  0  0  0  0
  161.2250  205.8530  150.5520 C   0  0  0  0  0  0  0  0  0  0  0  0
  160.8970  207.5130  153.8530 C   0  0  0  0  0  0  0  0  0  0  0  0
  162.1010  207.7760  147.5030 C   0  0  0  0  0  3  0  0  0  0  0  0
  160.7770  207.8060  156.5770 O   0  0  0  0  0  0  0  0  0  0  0  0
  160.5590  206.3850  154.7890 C   0  0  0  0  0  2  0  0  0  0  0  0
  160.7740  202.0850  150.3590 C   0  0  0  0  0  0  0  0  0  0  0  0
  160.5600  200.9910  151.1870 O   0  0  0  0  0  1  0  0  0  0  0  0
  161.1020  204.4730  150.0370 C   0  0  0  0  0  0  0  0  0  0  0  0
  160.8820  201.8880  148.9810 C   0  0  0  0  0  3  0  0  0  0  0  0
  161.2160  204.2590  148.6580 C   0  0  0  0  0  3  0  0  0  0  0  0
  160.8870  203.3760  150.8980 C   0  0  0  0  0  0  0  0  0  0  0  0
  160.7970  203.5930  152.6460 Cl  0  0  0  0  0  0  0  0  0  0  0  0
  161.1060  202.9740  148.1220 C   0  0  0  0  0  0  0  0  0  0  0  0
  161.6240  203.8550  145.8700 C   0  0  0  0  0  1  0  0  0  0  0  0
  161.2230  202.8050  146.7400 O   0  0  0  0  0  0  0  0  0  0  0  0
  162.0680  210.6520  149.8300 O   0  0  0  0  0  0  0  0  0  0  0  0
  162.3770  211.7540  148.9870 C   0  0  0  0  0  2  0  0  0  0  0  0
  161.2000  212.6630  148.9110 C   0  0  0  0  0  3  0  0  0  0  0  0
  160.4800  212.6460  147.9270 O   0  0  0  0  0  0  0  0  0  0  0  0
  1  4  2  0  0  0  0
  1 14  1  0  0  0  0
  2 15  1  0  0  0  0
  3  1  1  0  0  0  0
  4  7  1  0  0  0  0
  5 11  2  0  0  0  0
  6 17  1  0  0  0  0
  7  5  1  0  0  0  0
  7  2  2  0  0  0  0
  8 17  1  0  0  0  0
  9  8  1  0  0  0  0
 10 29  1  0  0  0  0
 10  4  1  0  0  0  0
 11  9  1  0  0  0  0
 12 10  2  0  0  0  0
 13  2  1  0  0  0  0
 14 13  2  0  0  0  0
 15  9  2  0  0  0  0
 15 18  1  0  0  0  0
 16 12  1  0  0  0  0
 16  3  2  0  0  0  0
 18  6  1  0  0  0  0
 19 24  1  0  0  0  0
 19 20  1  0  0  0  0
 21 14  1  0  0  0  0
 21 24  2  0  0  0  0
 22 19  2  0  0  0  0
 23 21  1  0  0  0  0
 24 25  1  0  0  0  0
 26 23  2  0  0  0  0
 26 22  1  0  0  0  0
 27 28  1  0  0  0  0
 28 26  1  0  0  0  0
 30 29  1  0  0  0  0
 31 30  1  0  0  0  0
 32 31  2  0  0  0  0
M  END
>  <MODEL>
2

>  <REMARK>
 VINA RESULT:      -8.9      2.493      5.371
  Name = 
  5 active torsions:
  status: ('A' for Active; 'I' for Inactive)
    1  A    between atoms: C_13  and  C_18
    2  A    between atoms: C_14  and  O_29
    3  A    between atoms: O_15  and  C_26
    4  A    between atoms: C_16  and  C_27
    5  A    between atoms: C_18  and  O_29
                            x       y       z     vdW  Elec       q    Type
                         _______ _______ _______ _____ _____    ______ ____

>  <TORSDO>
F 5

$$$$
=
 OpenBabel11062408273D

 32 36  0  0  0  0  0  0  0  0999 V2000
  161.2300  205.2030  150.7510 C   0  0  0  0  0  0  0  0  0  0  0  0
  161.2670  205.2000  147.9340 C   0  0  0  0  0  0  0  0  0  0  0  0
  161.2410  205.2250  152.1530 C   0  0  0  0  0  3  0  0  0  0  0  0
  161.1850  203.9550  150.0590 C   0  0  0  0  0  0  0  0  0  0  0  0
  161.1570  202.7760  147.8770 C   0  0  0  0  0  3  0  0  0  0  0  0
  160.8540  206.2140  144.3550 N   0  0  0  0  0  2  0  0  0  0  0  0
  161.2020  203.9640  148.6320 C   0  0  0  0  0  0  0  0  0  0  0  0
  161.2880  204.0830  144.4220 O   0  0  0  0  0  0  0  0  0  0  0  0
  161.2600  204.0150  145.8150 C   0  0  0  0  0  0  0  0  0  0  0  0
  161.1330  202.7540  150.8290 C   0  0  0  0  0  0  0  0  0  0  0  0
  161.1840  202.7960  146.4820 C   0  0  0  0  0  3  0  0  0  0  0  0
  161.1380  202.8260  152.2310 C   0  0  0  0  0  3  0  0  0  0  0  0
  161.3050  206.3990  148.6430 C   0  0  0  0  0  3  0  0  0  0  0  0
  161.2780  206.4170  150.0340 C   0  0  0  0  0  0  0  0  0  0  0  0
  161.2850  205.2130  146.5260 C   0  0  0  0  0  0  0  0  0  0  0  0
  161.1930  204.0480  152.8880 C   0  0  0  0  0  3  0  0  0  0  0  0
  161.6330  205.2360  143.8050 O   0  0  0  0  0  0  0  0  0  0  0  0
  161.3420  206.4770  145.7140 C   0  0  0  0  0  2  0  0  0  0  0  0
  161.7820  210.1180  150.7330 C   0  0  0  0  0  0  0  0  0  0  0  0
  162.2260  211.2730  150.1030 O   0  0  0  0  0  1  0  0  0  0  0  0
  161.3140  207.7310  150.7080 C   0  0  0  0  0  0  0  0  0  0  0  0
  161.3520  210.1850  152.0600 C   0  0  0  0  0  3  0  0  0  0  0  0
  160.8930  207.8130  152.0420 C   0  0  0  0  0  3  0  0  0  0  0  0
  161.7710  208.8920  150.0490 C   0  0  0  0  0  0  0  0  0  0  0  0
  162.3670  208.8230  148.3910 Cl  0  0  0  0  0  0  0  0  0  0  0  0
  160.9060  209.0320  152.7230 C   0  0  0  0  0  0  0  0  0  0  0  0
  160.8340  208.0780  155.0040 C   0  0  0  0  0  1  0  0  0  0  0  0
  160.4740  209.0700  154.0510 O   0  0  0  0  0  0  0  0  0  0  0  0
  161.0780  201.4980  150.2090 O   0  0  0  0  0  0  0  0  0  0  0  0
  159.9080  200.6910  150.1870 C   0  0  0  0  0  2  0  0  0  0  0  0
  158.8670  201.3540  149.3530 C   0  0  0  0  0  3  0  0  0  0  0  0
  157.8000  200.7970  149.1560 O   0  0  0  0  0  0  0  0  0  0  0  0
  1  3  2  0  0  0  0
  2  7  1  0  0  0  0
  2 13  1  0  0  0  0
  3 16  1  0  0  0  0
  4  1  1  0  0  0  0
  4 10  2  0  0  0  0
  5  7  2  0  0  0  0
  6 18  1  0  0  0  0
  7  4  1  0  0  0  0
  8  9  1  0  0  0  0
  9 11  2  0  0  0  0
  9 15  1  0  0  0  0
 10 12  1  0  0  0  0
 11  5  1  0  0  0  0
 12 16  2  0  0  0  0
 13 14  2  0  0  0  0
 14 21  1  0  0  0  0
 14  1  1  0  0  0  0
 15  2  2  0  0  0  0
 17  6  1  0  0  0  0
 17  8  1  0  0  0  0
 18 15  1  0  0  0  0
 19 22  1  0  0  0  0
 20 19  1  0  0  0  0
 21 23  2  0  0  0  0
 22 26  2  0  0  0  0
 23 26  1  0  0  0  0
 24 21  1  0  0  0  0
 24 19  2  0  0  0  0
 25 24  1  0  0  0  0
 26 28  1  0  0  0  0
 28 27  1  0  0  0  0
 29 10  1  0  0  0  0
 30 29  1  0  0  0  0
 31 30  1  0  0  0  0
 32 31  2  0  0  0  0
M  END
>  <MODEL>
3

>  <REMARK>
 VINA RESULT:      -8.2      1.805      6.618
  Name = 
  5 active torsions:
  status: ('A' for Active; 'I' for Inactive)
    1  A    between atoms: C_13  and  C_18
    2  A    between atoms: C_14  and  O_29
    3  A    between atoms: O_15  and  C_26
    4  A    between atoms: C_16  and  C_27
    5  A    between atoms: C_18  and  O_29
                            x       y       z     vdW  Elec       q    Type
                         _______ _______ _______ _____ _____    ______ ____

>  <TORSDO>
F 5

$$$$
=
 OpenBabel11062408273D

 32 36  0  0  0  0  0  0  0  0999 V2000
  161.5250  208.4990  149.9980 C   0  0  0  0  0  0  0  0  0  0  0  0
  161.2790  208.5050  152.8040 C   0  0  0  0  0  0  0  0  0  0  0  0
  161.6190  208.5170  148.5990 C   0  0  0  0  0  3  0  0  0  0  0  0
  161.4930  207.2520  150.6930 C   0  0  0  0  0  0  0  0  0  0  0  0
  161.3350  206.0790  152.8720 C   0  0  0  0  0  3  0  0  0  0  0  0
  161.4460  209.5210  156.4020 N   0  0  0  0  0  2  0  0  0  0  0  0
  161.3710  207.2650  152.1140 C   0  0  0  0  0  0  0  0  0  0  0  0
  160.9740  207.3990  156.3070 O   0  0  0  0  0  0  0  0  0  0  0  0
  161.1040  207.3260  154.9190 C   0  0  0  0  0  0  0  0  0  0  0  0
  161.5780  206.0480  149.9300 C   0  0  0  0  0  0  0  0  0  0  0  0
  161.2050  206.1040  154.2610 C   0  0  0  0  0  3  0  0  0  0  0  0
  161.6790  206.1160  148.5320 C   0  0  0  0  0  3  0  0  0  0  0  0
  161.3180  209.7030  152.0930 C   0  0  0  0  0  3  0  0  0  0  0  0
  161.4490  209.7160  150.7080 C   0  0  0  0  0  0  0  0  0  0  0  0
  161.1570  208.5220  154.2070 C   0  0  0  0  0  0  0  0  0  0  0  0
  161.6970  207.3370  147.8710 C   0  0  0  0  0  3  0  0  0  0  0  0
  160.6080  208.5610  156.8940 O   0  0  0  0  0  0  0  0  0  0  0  0
  161.0650  209.7900  155.0110 C   0  0  0  0  0  2  0  0  0  0  0  0
  160.8170  213.3560  149.8200 C   0  0  0  0  0  0  0  0  0  0  0  0
  160.0900  214.4530  150.2640 O   0  0  0  0  0  1  0  0  0  0  0  0
  161.4900  211.0280  150.0300 C   0  0  0  0  0  0  0  0  0  0  0  0
  161.6220  213.4830  148.6870 C   0  0  0  0  0  3  0  0  0  0  0  0
  162.2870  211.1690  148.8870 C   0  0  0  0  0  3  0  0  0  0  0  0
  160.7410  212.1290  150.4970 C   0  0  0  0  0  0  0  0  0  0  0  0
  159.6780  211.9790  151.8960 Cl  0  0  0  0  0  0  0  0  0  0  0  0
  162.3610  212.3890  148.2120 C   0  0  0  0  0  0  0  0  0  0  0  0
  162.8430  213.3150  145.9700 C   0  0  0  0  0  1  0  0  0  0  0  0
  163.1710  212.4880  147.0780 O   0  0  0  0  0  0  0  0  0  0  0  0
  161.5610  204.7930  150.5550 O   0  0  0  0  0  0  0  0  0  0  0  0
  161.1590  203.6000  149.8950 C   0  0  0  0  0  2  0  0  0  0  0  0
  160.8330  202.5610  150.9120 C   0  0  0  0  0  3  0  0  0  0  0  0
  160.8310  202.8480  152.0970 O   0  0  0  0  0  0  0  0  0  0  0  0
  1  4  2  0  0  0  0
  1 14  1  0  0  0  0
  2 15  1  0  0  0  0
  3  1  1  0  0  0  0
  4  7  1  0  0  0  0
  5 11  2  0  0  0  0
  6 17  1  0  0  0  0
  7  2  2  0  0  0  0
  7  5  1  0  0  0  0
  8 17  1  0  0  0  0
  9  8  1  0  0  0  0
 10 29  1  0  0  0  0
 10  4  1  0  0  0  0
 11  9  1  0  0  0  0
 12 10  2  0  0  0  0
 13  2  1  0  0  0  0
 14 13  2  0  0  0  0
 15  9  2  0  0  0  0
 15 18  1  0  0  0  0
 16 12  1  0  0  0  0
 16  3  2  0  0  0  0
 18  6  1  0  0  0  0
 19 20  1  0  0  0  0
 19 24  1  0  0  0  0
 21 24  2  0  0  0  0
 21 14  1  0  0  0  0
 22 19  2  0  0  0  0
 23 21  1  0  0  0  0
 24 25  1  0  0  0  0
 26 22  1  0  0  0  0
 26 23  2  0  0  0  0
 27 28  1  0  0  0  0
 28 26  1  0  0  0  0
 30 29  1  0  0  0  0
 30 31  1  0  0  0  0
 31 32  2  0  0  0  0
M  END
>  <MODEL>
4

>  <REMARK>
 VINA RESULT:      -7.8      3.002      7.083
  Name = 
  5 active torsions:
  status: ('A' for Active; 'I' for Inactive)
    1  A    between atoms: C_13  and  C_18
    2  A    between atoms: C_14  and  O_29
    3  A    between atoms: O_15  and  C_26
    4  A    between atoms: C_16  and  C_27
    5  A    between atoms: C_18  and  O_29
                            x       y       z     vdW  Elec       q    Type
                         _______ _______ _______ _____ _____    ______ ____

>  <TORSDO>
F 5

$$$$
=
 OpenBabel11062408273D

 32 36  0  0  0  0  0  0  0  0999 V2000
  161.4750  207.3620  150.0220 C   0  0  0  0  0  0  0  0  0  0  0  0
  161.0460  204.5810  150.1400 C   0  0  0  0  0  0  0  0  0  0  0  0
  161.6580  208.7520  149.9790 C   0  0  0  0  0  3  0  0  0  0  0  0
  161.5690  206.5950  148.8210 C   0  0  0  0  0  0  0  0  0  0  0  0
  161.4310  204.3610  147.7530 C   0  0  0  0  0  3  0  0  0  0  0  0
  160.8340  201.0480  151.3570 N   0  0  0  0  0  2  0  0  0  0  0  0
  161.3530  205.1870  148.8920 C   0  0  0  0  0  0  0  0  0  0  0  0
  160.6660  201.0400  149.1880 O   0  0  0  0  0  0  0  0  0  0  0  0
  160.8960  202.4110  149.0610 C   0  0  0  0  0  0  0  0  0  0  0  0
  161.8690  207.2770  147.6020 C   0  0  0  0  0  0  0  0  0  0  0  0
  161.2070  202.9860  147.8330 C   0  0  0  0  0  3  0  0  0  0  0  0
  162.0520  208.6680  147.6100 C   0  0  0  0  0  3  0  0  0  0  0  0
  160.9670  205.3610  151.2920 C   0  0  0  0  0  3  0  0  0  0  0  0
  161.1860  206.7340  151.2510 C   0  0  0  0  0  0  0  0  0  0  0  0
  160.8300  203.1910  150.2140 C   0  0  0  0  0  0  0  0  0  0  0  0
  161.9450  209.4000  148.7860 C   0  0  0  0  0  3  0  0  0  0  0  0
  160.1060  200.5470  150.3160 O   0  0  0  0  0  0  0  0  0  0  0  0
  160.5120  202.4730  151.4960 C   0  0  0  0  0  2  0  0  0  0  0  0
  161.0210  207.5980  154.9480 C   0  0  0  0  0  0  0  0  0  0  0  0
  161.0400  206.9800  156.1910 O   0  0  0  0  0  1  0  0  0  0  0  0
  161.0910  207.4870  152.5190 C   0  0  0  0  0  0  0  0  0  0  0  0
  160.9040  208.9880  154.8770 C   0  0  0  0  0  3  0  0  0  0  0  0
  160.9660  208.8800  152.4640 C   0  0  0  0  0  3  0  0  0  0  0  0
  161.1100  206.8370  153.7710 C   0  0  0  0  0  0  0  0  0  0  0  0
  161.2060  205.0800  153.8850 Cl  0  0  0  0  0  0  0  0  0  0  0  0
  160.8740  209.6380  153.6340 C   0  0  0  0  0  0  0  0  0  0  0  0
  160.0810  211.6620  152.4560 C   0  0  0  0  0  1  0  0  0  0  0  0
  160.7530  211.0260  153.5350 O   0  0  0  0  0  0  0  0  0  0  0  0
  161.9830  206.5780  146.3920 O   0  0  0  0  0  0  0  0  0  0  0  0
  160.9080  206.4270  145.4750 C   0  0  0  0  0  2  0  0  0  0  0  0
  161.2540  205.3750  144.4780 C   0  0  0  0  0  3  0  0  0  0  0  0
  160.6280  204.3300  144.4550 O   0  0  0  0  0  0  0  0  0  0  0  0
  1 14  1  0  0  0  0
  2 15  1  0  0  0  0
  2 13  1  0  0  0  0
  3  1  1  0  0  0  0
  4  7  1  0  0  0  0
  4  1  2  0  0  0  0
  5 11  2  0  0  0  0
  5  7  1  0  0  0  0
  6 18  1  0  0  0  0
  7  2  2  0  0  0  0
  8 17  1  0  0  0  0
  9  8  1  0  0  0  0
  9 15  2  0  0  0  0
 10 12  2  0  0  0  0
 10  4  1  0  0  0  0
 11  9  1  0  0  0  0
 12 16  1  0  0  0  0
 14 13  2  0  0  0  0
 14 21  1  0  0  0  0
 15 18  1  0  0  0  0
 16  3  2  0  0  0  0
 17  6  1  0  0  0  0
 19 20  1  0  0  0  0
 21 24  1  0  0  0  0
 22 19  1  0  0  0  0
 23 21  2  0  0  0  0
 23 26  1  0  0  0  0
 24 25  1  0  0  0  0
 24 19  2  0  0  0  0
 26 22  2  0  0  0  0
 27 28  1  0  0  0  0
 28 26  1  0  0  0  0
 29 10  1  0  0  0  0
 30 29  1  0  0  0  0
 31 30  1  0  0  0  0
 32 31  2  0  0  0  0
M  END
>  <MODEL>
5

>  <REMARK>
 VINA RESULT:      -7.7      2.823      8.282
  Name = 
  5 active torsions:
  status: ('A' for Active; 'I' for Inactive)
    1  A    between atoms: C_13  and  C_18
    2  A    between atoms: C_14  and  O_29
    3  A    between atoms: O_15  and  C_26
    4  A    between atoms: C_16  and  C_27
    5  A    between atoms: C_18  and  O_29
                            x       y       z     vdW  Elec       q    Type
                         _______ _______ _______ _____ _____    ______ ____

>  <TORSDO>
F 5

$$$$
=
 OpenBabel11062408273D

 32 36  0  0  0  0  0  0  0  0999 V2000
  160.1010  212.0440  151.5840 C   0  0  0  0  0  0  0  0  0  0  0  0
  160.8630  209.3580  151.9600 C   0  0  0  0  0  0  0  0  0  0  0  0
  159.6890  213.3710  151.4020 C   0  0  0  0  0  3  0  0  0  0  0  0
  160.9440  211.4210  150.6140 C   0  0  0  0  0  0  0  0  0  0  0  0
  162.1570  209.3770  149.9060 C   0  0  0  0  0  3  0  0  0  0  0  0
  161.7120  206.0730  153.5390 N   0  0  0  0  0  2  0  0  0  0  0  0
  161.3270  210.0610  150.8150 C   0  0  0  0  0  0  0  0  0  0  0  0
  162.3790  206.0340  151.4690 O   0  0  0  0  0  0  0  0  0  0  0  0
  162.0440  207.3670  151.2270 C   0  0  0  0  0  0  0  0  0  0  0  0
  161.3590  212.1880  149.4840 C   0  0  0  0  0  0  0  0  0  0  0  0
  162.5160  208.0430  150.1070 C   0  0  0  0  0  3  0  0  0  0  0  0
  160.9270  213.5160  149.3480 C   0  0  0  0  0  3  0  0  0  0  0  0
  160.0450  210.0000  152.8880 C   0  0  0  0  0  3  0  0  0  0  0  0
  159.6690  211.3280  152.7210 C   0  0  0  0  0  0  0  0  0  0  0  0
  161.2370  208.0150  152.1600 C   0  0  0  0  0  0  0  0  0  0  0  0
  160.0980  214.1030  150.2950 C   0  0  0  0  0  3  0  0  0  0  0  0
  161.7020  205.3220  152.3990 O   0  0  0  0  0  0  0  0  0  0  0  0
  160.7980  207.2050  153.3490 C   0  0  0  0  0  2  0  0  0  0  0  0
  158.4360  212.8260  155.9880 C   0  0  0  0  0  0  0  0  0  0  0  0
  158.8960  213.1390  157.2610 O   0  0  0  0  0  1  0  0  0  0  0  0
  158.8060  211.9370  153.7550 C   0  0  0  0  0  0  0  0  0  0  0  0
  157.1050  213.0880  155.6590 C   0  0  0  0  0  3  0  0  0  0  0  0
  157.4670  212.1980  153.4430 C   0  0  0  0  0  3  0  0  0  0  0  0
  159.2950  212.2450  155.0420 C   0  0  0  0  0  0  0  0  0  0  0  0
  160.9580  211.8770  155.4970 Cl  0  0  0  0  0  0  0  0  0  0  0  0
  156.6110  212.7730  154.3850 C   0  0  0  0  0  0  0  0  0  0  0  0
  154.8430  214.2750  153.5270 C   0  0  0  0  0  1  0  0  0  0  0  0
  155.2820  213.0210  154.0310 O   0  0  0  0  0  0  0  0  0  0  0  0
  162.1940  211.6360  148.5020 O   0  0  0  0  0  0  0  0  0  0  0  0
  163.2360  212.3640  147.8660 C   0  0  0  0  0  2  0  0  0  0  0  0
  162.7610  212.8470  146.5390 C   0  0  0  0  0  3  0  0  0  0  0  0
  162.4320  214.0130  146.3980 O   0  0  0  0  0  0  0  0  0  0  0  0
  1 14  1  0  0  0  0
  2 15  1  0  0  0  0
  2 13  1  0  0  0  0
  3  1  1  0  0  0  0
  4  7  1  0  0  0  0
  4  1  2  0  0  0  0
  5 11  2  0  0  0  0
  5  7  1  0  0  0  0
  7  2  2  0  0  0  0
  8 17  1  0  0  0  0
  9  8  1  0  0  0  0
  9 15  2  0  0  0  0
 10  4  1  0  0  0  0
 11  9  1  0  0  0  0
 12 10  2  0  0  0  0
 12 16  1  0  0  0  0
 14 13  2  0  0  0  0
 14 21  1  0  0  0  0
 15 18  1  0  0  0  0
 16  3  2  0  0  0  0
 17  6  1  0  0  0  0
 18  6  1  0  0  0  0
 19 20  1  0  0  0  0
 21 24  1  0  0  0  0
 22 19  1  0  0  0  0
 23 21  2  0  0  0  0
 23 26  1  0  0  0  0
 24 25  1  0  0  0  0
 24 19  2  0  0  0  0
 26 22  2  0  0  0  0
 27 28  1  0  0  0  0
 28 26  1  0  0  0  0
 29 10  1  0  0  0  0
 30 29  1  0  0  0  0
 31 30  1  0  0  0  0
 32 31  2  0  0  0  0
M  END
>  <MODEL>
6

>  <REMARK>
 VINA RESULT:      -6.9      4.403      9.455
  Name = 
  5 active torsions:
  status: ('A' for Active; 'I' for Inactive)
    1  A    between atoms: C_13  and  C_18
    2  A    between atoms: C_14  and  O_29
    3  A    between atoms: O_15  and  C_26
    4  A    between atoms: C_16  and  C_27
    5  A    between atoms: C_18  and  O_29
                            x       y       z     vdW  Elec       q    Type
                         _______ _______ _______ _____ _____    ______ ____

>  <TORSDO>
F 5

$$$$
