=
 OpenBabel11052422443D

 31 34  0  0  1  0  0  0  0  0999 V2000
  160.7400  206.2390  149.8190 C   0  0  0  0  0  2  0  0  0  0  0  0
  161.8130  207.3230  149.8940 C   0  0  1  0  0  3  0  0  0  0  0  0
  162.0930  209.2110  148.3650 N   0  0  0  0  0  2  0  0  0  0  0  0
  161.2740  208.6840  149.4680 C   0  0  2  0  0  3  0  0  0  0  0  0
  162.2650  209.7230  149.7310 C   0  0  0  0  0  2  0  0  0  0  0  0
  162.4710  207.3850  151.2770 C   0  0  0  0  0  2  0  0  0  0  0  0
  161.5010  207.6040  152.4620 C   0  0  1  0  0  3  0  0  0  0  0  0
  161.6830  206.6450  153.6530 C   0  0  1  0  0  3  0  0  0  0  0  0
  160.4490  206.3570  154.2670 O   0  0  0  0  0  0  0  0  0  0  0  0
  161.0050  205.3400  153.4660 C   0  0  0  0  0  2  0  0  0  0  0  0
  160.0350  209.6730  152.6660 C   0  0  0  0  0  1  0  0  0  0  0  0
  161.3940  209.0520  152.9580 C   0  0  1  0  0  3  0  0  0  0  0  0
  161.6800  209.1380  154.3220 O   0  0  0  0  0  0  0  0  0  0  0  0
  161.8510  210.5000  154.5730 C   0  0  0  0  0  2  0  0  0  0  0  0
  162.5120  209.4700  156.6090 O   0  0  0  0  0  1  0  0  0  0  0  0
  162.5180  210.6810  155.9200 C   0  0  0  0  0  2  0  0  0  0  0  0
  160.9900  205.2780  148.6580 C   0  0  1  0  0  3  0  0  0  0  0  0
  161.0690  205.2430  143.6410 C   0  0  0  0  0  1  0  0  0  0  0  0
  161.8160  205.9220  147.5370 C   0  0  2  0  0  3  0  0  0  0  0  0
  163.0700  204.8970  145.7460 O   0  0  0  0  0  0  0  0  0  0  0  0
  160.7660  206.4270  146.1190 S   0  0  0  0  0  0  0  0  0  0  0  0
  160.9660  204.8960  145.1140 C   0  0  2  0  0  3  0  0  0  0  0  0
  162.0510  204.0880  145.5130 O   0  0  0  0  0  0  0  0  0  0  0  0
  163.0530  205.1130  147.1310 C   0  0  0  0  0  2  0  0  0  0  0  0
  161.5020  203.9060  149.1160 C   0  0  1  0  0  3  0  0  0  0  0  0
  160.9450  202.4120  151.0470 C   0  0  0  0  0  3  0  0  0  0  0  0
  161.2560  203.6330  150.5850 C   0  0  0  0  0  3  0  0  0  0  0  0
  160.7120  201.2380  150.1310 C   0  0  0  0  0  2  0  0  0  0  0  0
  160.9320  200.4390  147.8940 O   0  0  0  0  0  1  0  0  0  0  0  0
  160.9550  202.8020  148.2100 C   0  0  0  0  0  2  0  0  0  0  0  0
  161.3590  201.4410  148.7630 C   0  0  1  0  0  3  0  0  0  0  0  0
  2  1  1  1  0  0  0
  2  6  1  0  0  0  0
  3  4  1  0  0  0  0
  3  5  1  0  0  0  0
  4  5  1  0  0  0  0
  4  2  1  1  0  0  0
  7  6  1  6  0  0  0
  7 12  1  0  0  0  0
  8  7  1  6  0  0  0
  8  9  1  0  0  0  0
 10  8  1  0  0  0  0
 10  9  1  0  0  0  0
 12 11  1  1  0  0  0
 12 13  1  0  0  0  0
 13 14  1  0  0  0  0
 14 16  1  0  0  0  0
 16 15  1  0  0  0  0
 17  1  1  1  0  0  0
 19 17  1  1  0  0  0
 20 24  1  0  0  0  0
 21 19  1  0  0  0  0
 22 18  1  6  0  0  0
 22 23  1  0  0  0  0
 22 21  1  0  0  0  0
 23 20  1  0  0  0  0
 24 19  1  0  0  0  0
 25 17  1  6  0  0  0
 25 27  1  0  0  0  0
 27 26  2  0  0  0  0
 28 26  1  0  0  0  0
 30 31  1  0  0  0  0
 30 25  1  0  0  0  0
 31 29  1  6  0  0  0
 31 28  1  0  0  0  0
M  END
>  <MODEL>
1

>  <REMARK>
 VINA RESULT:      -6.8      0.000      0.000
  Name = 
  12 active torsions:
  status: ('A' for Active; 'I' for Inactive)
    1  A    between atoms: C_1  and  C_24
    2  A    between atoms: C_3  and  C_15
    3  A    between atoms: C_3  and  C_24
    4  A    between atoms: C_4  and  C_27
    5  A    between atoms: C_5  and  C_27
    6  A    between atoms: C_9  and  C_23
    7  A    between atoms: C_15  and  C_20
    8  A    between atoms: C_15  and  C_21
    9  A    between atoms: C_19  and  O_22
   10  A    between atoms: C_19  and  C_24
   11  A    between atoms: C_20  and  C_27
   12  A    between atoms: O_22  and  C_23
                            x       y       z     vdW  Elec       q    Type
                         _______ _______ _______ _____ _____    ______ ____

>  <TORSDO>
F 12

$$$$
=
 OpenBabel11052422443D

 31 34  0  0  1  0  0  0  0  0999 V2000
  161.7980  207.0860  151.8290 C   0  0  0  0  0  2  0  0  0  0  0  0
  160.9020  207.7380  152.8800 C   0  0  1  0  0  3  0  0  0  0  0  0
  160.6620  205.9630  154.5440 N   0  0  0  0  0  2  0  0  0  0  0  0
  161.2600  207.2830  154.2900 C   0  0  2  0  0  3  0  0  0  0  0  0
  160.0540  207.1770  155.1050 C   0  0  0  0  0  2  0  0  0  0  0  0
  160.9010  209.2670  152.7640 C   0  0  0  0  0  2  0  0  0  0  0  0
  160.6980  210.0310  154.0940 C   0  0  1  0  0  3  0  0  0  0  0  0
  161.9700  210.6450  154.7070 C   0  0  1  0  0  3  0  0  0  0  0  0
  161.6700  211.3770  155.8710 O   0  0  0  0  0  0  0  0  0  0  0  0
  162.2820  210.1220  156.0580 C   0  0  0  0  0  2  0  0  0  0  0  0
  158.9420  211.2390  152.7050 C   0  0  0  0  0  1  0  0  0  0  0  0
  159.5610  211.0630  154.0840 C   0  0  1  0  0  3  0  0  0  0  0  0
  158.5760  210.7320  155.0160 O   0  0  0  0  0  0  0  0  0  0  0  0
  157.4250  211.3880  154.5780 C   0  0  0  0  0  2  0  0  0  0  0  0
  155.2570  210.4260  154.6970 O   0  0  0  0  0  1  0  0  0  0  0  0
  156.2610  211.0070  155.4680 C   0  0  0  0  0  2  0  0  0  0  0  0
  160.9780  206.3830  150.7470 C   0  0  1  0  0  3  0  0  0  0  0  0
  162.2350  205.9930  145.9060 C   0  0  0  0  0  1  0  0  0  0  0  0
  160.8470  207.2310  149.4750 C   0  0  2  0  0  3  0  0  0  0  0  0
  162.5490  208.0440  147.9670 O   0  0  0  0  0  0  0  0  0  0  0  0
  160.4540  206.2010  148.0070 S   0  0  0  0  0  0  0  0  0  0  0  0
  162.1810  205.9480  147.4200 C   0  0  2  0  0  3  0  0  0  0  0  0
  163.1130  206.8480  147.9790 O   0  0  0  0  0  0  0  0  0  0  0  0
  162.0100  208.2030  149.2510 C   0  0  0  0  0  2  0  0  0  0  0  0
  161.4250  204.9360  150.5030 C   0  0  1  0  0  3  0  0  0  0  0  0
  161.7390  202.9510  151.9970 C   0  0  0  0  0  3  0  0  0  0  0  0
  161.9520  204.2520  151.7470 C   0  0  0  0  0  3  0  0  0  0  0  0
  160.8710  202.0920  151.1150 C   0  0  0  0  0  2  0  0  0  0  0  0
  159.7430  201.9700  149.0160 O   0  0  0  0  0  1  0  0  0  0  0  0
  160.3120  204.1420  149.8190 C   0  0  0  0  0  2  0  0  0  0  0  0
  160.7200  202.6780  149.7130 C   0  0  1  0  0  3  0  0  0  0  0  0
  2  1  1  6  0  0  0
  3  5  1  0  0  0  0
  4  2  1  6  0  0  0
  4  3  1  0  0  0  0
  4  5  1  0  0  0  0
  6  2  1  0  0  0  0
  7  6  1  6  0  0  0
  8  7  1  1  0  0  0
  8  9  1  0  0  0  0
  8 10  1  0  0  0  0
  9 10  1  0  0  0  0
 12 11  1  6  0  0  0
 12  7  1  0  0  0  0
 12 13  1  0  0  0  0
 14 13  1  0  0  0  0
 14 16  1  0  0  0  0
 15 16  1  0  0  0  0
 17  1  1  1  0  0  0
 19 17  1  1  0  0  0
 20 23  1  0  0  0  0
 20 24  1  0  0  0  0
 21 19  1  0  0  0  0
 22 18  1  6  0  0  0
 22 23  1  0  0  0  0
 22 21  1  0  0  0  0
 24 19  1  0  0  0  0
 25 17  1  1  0  0  0
 25 27  1  0  0  0  0
 27 26  2  0  0  0  0
 28 26  1  0  0  0  0
 30 25  1  0  0  0  0
 31 29  1  6  0  0  0
 31 30  1  0  0  0  0
 31 28  1  0  0  0  0
M  END
>  <MODEL>
2

>  <REMARK>
 VINA RESULT:      -5.9      2.630      3.878
  Name = 
  12 active torsions:
  status: ('A' for Active; 'I' for Inactive)
    1  A    between atoms: C_1  and  C_24
    2  A    between atoms: C_3  and  C_15
    3  A    between atoms: C_3  and  C_24
    4  A    between atoms: C_4  and  C_27
    5  A    between atoms: C_5  and  C_27
    6  A    between atoms: C_9  and  C_23
    7  A    between atoms: C_15  and  C_20
    8  A    between atoms: C_15  and  C_21
    9  A    between atoms: C_19  and  O_22
   10  A    between atoms: C_19  and  C_24
   11  A    between atoms: C_20  and  C_27
   12  A    between atoms: O_22  and  C_23
                            x       y       z     vdW  Elec       q    Type
                         _______ _______ _______ _____ _____    ______ ____

>  <TORSDO>
F 12

$$$$
=
 OpenBabel11052422443D

 31 34  0  0  1  0  0  0  0  0999 V2000
  159.7900  209.8970  152.7840 C   0  0  0  0  0  2  0  0  0  0  0  0
  160.7810  209.3940  151.7370 C   0  0  1  0  0  3  0  0  0  0  0  0
  161.3840  211.3620  150.4170 N   0  0  0  0  0  2  0  0  0  0  0  0
  161.8660  210.4240  151.4430 C   0  0  2  0  0  3  0  0  0  0  0  0
  162.3260  210.2910  150.0640 C   0  0  0  0  0  2  0  0  0  0  0  0
  161.3820  208.0360  152.1210 C   0  0  0  0  0  2  0  0  0  0  0  0
  161.1740  206.9040  151.0860 C   0  0  1  0  0  3  0  0  0  0  0  0
  161.9460  207.0660  149.7640 C   0  0  1  0  0  3  0  0  0  0  0  0
  161.6540  206.0150  148.8740 O   0  0  0  0  0  0  0  0  0  0  0  0
  161.0650  207.2620  148.5880 C   0  0  0  0  0  2  0  0  0  0  0  0
  161.3590  205.4370  153.1550 C   0  0  0  0  0  1  0  0  0  0  0  0
  161.3500  205.4820  151.6340 C   0  0  1  0  0  3  0  0  0  0  0  0
  160.3660  204.6270  151.1330 O   0  0  0  0  0  0  0  0  0  0  0  0
  160.9220  203.3490  151.2060 C   0  0  0  0  0  2  0  0  0  0  0  0
  160.2970  201.3550  150.0780 O   0  0  0  0  0  1  0  0  0  0  0  0
  160.7580  202.6530  149.8710 C   0  0  0  0  0  2  0  0  0  0  0  0
  160.4090  210.9730  153.6740 C   0  0  1  0  0  3  0  0  0  0  0  0
  156.7080  213.3960  156.0420 C   0  0  0  0  0  1  0  0  0  0  0  0
  159.6810  212.3190  153.5530 C   0  0  2  0  0  3  0  0  0  0  0  0
  157.3320  212.7920  153.2490 O   0  0  0  0  0  0  0  0  0  0  0  0
  159.3150  213.0470  155.1970 S   0  0  0  0  0  0  0  0  0  0  0  0
  157.6120  212.3700  155.3880 C   0  0  2  0  0  3  0  0  0  0  0  0
  157.0450  211.9020  154.1840 O   0  0  0  0  0  0  0  0  0  0  0  0
  158.4740  212.2910  152.6090 C   0  0  0  0  0  2  0  0  0  0  0  0
  160.6330  210.5010  155.1170 C   0  0  1  0  0  3  0  0  0  0  0  0
  160.6840  208.2470  156.2060 C   0  0  0  0  0  3  0  0  0  0  0  0
  160.0750  209.1200  155.3890 C   0  0  0  0  0  3  0  0  0  0  0  0
  162.0240  208.5300  156.8340 C   0  0  0  0  0  2  0  0  0  0  0  0
  163.6590  210.2140  157.2610 O   0  0  0  0  0  1  0  0  0  0  0  0
  162.1080  210.6270  155.4970 C   0  0  0  0  0  2  0  0  0  0  0  0
  162.3330  210.0250  156.8790 C   0  0  1  0  0  3  0  0  0  0  0  0
  2  6  1  1  0  0  0
  2  1  1  0  0  0  0
  3  4  1  0  0  0  0
  4  2  1  6  0  0  0
  5  3  1  0  0  0  0
  5  4  1  0  0  0  0
  7 12  1  0  0  0  0
  7  6  1  1  0  0  0
  8  7  1  1  0  0  0
  9  8  1  0  0  0  0
 10  9  1  0  0  0  0
 10  8  1  0  0  0  0
 12 11  1  1  0  0  0
 13 14  1  0  0  0  0
 13 12  1  0  0  0  0
 16 15  1  0  0  0  0
 16 14  1  0  0  0  0
 17  1  1  6  0  0  0
 19 17  1  1  0  0  0
 19 21  1  0  0  0  0
 20 23  1  0  0  0  0
 21 22  1  0  0  0  0
 22 18  1  6  0  0  0
 23 22  1  0  0  0  0
 24 20  1  0  0  0  0
 24 19  1  0  0  0  0
 25 17  1  6  0  0  0
 25 27  1  0  0  0  0
 25 30  1  0  0  0  0
 26 28  1  0  0  0  0
 27 26  2  0  0  0  0
 28 31  1  0  0  0  0
 30 31  1  0  0  0  0
 31 29  1  6  0  0  0
M  END
>  <MODEL>
3

>  <REMARK>
 VINA RESULT:      -5.8      3.367      8.636
  Name = 
  12 active torsions:
  status: ('A' for Active; 'I' for Inactive)
    1  A    between atoms: C_1  and  C_24
    2  A    between atoms: C_3  and  C_15
    3  A    between atoms: C_3  and  C_24
    4  A    between atoms: C_4  and  C_27
    5  A    between atoms: C_5  and  C_27
    6  A    between atoms: C_9  and  C_23
    7  A    between atoms: C_15  and  C_20
    8  A    between atoms: C_15  and  C_21
    9  A    between atoms: C_19  and  O_22
   10  A    between atoms: C_19  and  C_24
   11  A    between atoms: C_20  and  C_27
   12  A    between atoms: O_22  and  C_23
                            x       y       z     vdW  Elec       q    Type
                         _______ _______ _______ _____ _____    ______ ____

>  <TORSDO>
F 12

$$$$
=
 OpenBabel11052422443D

 31 34  0  0  1  0  0  0  0  0999 V2000
  160.0860  209.9570  152.4490 C   0  0  0  0  0  2  0  0  0  0  0  0
  161.1230  209.7410  151.3480 C   0  0  1  0  0  3  0  0  0  0  0  0
  161.0850  211.7110  149.9000 N   0  0  0  0  0  2  0  0  0  0  0  0
  161.8310  211.0390  150.9750 C   0  0  2  0  0  3  0  0  0  0  0  0
  162.3170  210.9700  149.6000 C   0  0  0  0  0  2  0  0  0  0  0  0
  162.1220  208.6370  151.7100 C   0  0  0  0  0  2  0  0  0  0  0  0
  161.8650  207.2660  151.0380 C   0  0  1  0  0  3  0  0  0  0  0  0
  161.0230  206.2740  151.8600 C   0  0  1  0  0  3  0  0  0  0  0  0
  161.6870  205.0410  152.0020 O   0  0  0  0  0  0  0  0  0  0  0  0
  161.6630  205.8760  153.1370 C   0  0  0  0  0  2  0  0  0  0  0  0
  162.4650  207.5270  148.5800 C   0  0  0  0  0  1  0  0  0  0  0  0
  161.3470  207.3360  149.5950 C   0  0  1  0  0  3  0  0  0  0  0  0
  160.5970  206.2030  149.2770 O   0  0  0  0  0  0  0  0  0  0  0  0
  160.9210  205.9110  147.9510 C   0  0  0  0  0  2  0  0  0  0  0  0
  161.0890  203.8130  149.0500 O   0  0  0  0  0  1  0  0  0  0  0  0
  161.3530  204.4640  147.8470 C   0  0  0  0  0  2  0  0  0  0  0  0
  160.5450  211.0110  153.4560 C   0  0  1  0  0  3  0  0  0  0  0  0
  156.7370  213.2260  155.8570 C   0  0  0  0  0  1  0  0  0  0  0  0
  159.7420  212.3140  153.3410 C   0  0  2  0  0  3  0  0  0  0  0  0
  157.3690  212.6560  153.0590 O   0  0  0  0  0  0  0  0  0  0  0  0
  159.3510  213.0220  154.9880 S   0  0  0  0  0  0  0  0  0  0  0  0
  157.6910  212.2520  155.1940 C   0  0  2  0  0  3  0  0  0  0  0  0
  157.1400  211.7520  153.9960 O   0  0  0  0  0  0  0  0  0  0  0  0
  158.5300  212.2180  152.4080 C   0  0  0  0  0  2  0  0  0  0  0  0
  160.6650  210.4630  154.8840 C   0  0  1  0  0  3  0  0  0  0  0  0
  160.7080  208.1520  155.8470 C   0  0  0  0  0  3  0  0  0  0  0  0
  160.1370  209.0520  155.0310 C   0  0  0  0  0  3  0  0  0  0  0  0
  161.9790  208.4410  156.6030 C   0  0  0  0  0  2  0  0  0  0  0  0
  163.5090  210.1500  157.2610 O   0  0  0  0  0  1  0  0  0  0  0  0
  162.0970  210.6150  155.3960 C   0  0  0  0  0  2  0  0  0  0  0  0
  162.2270  209.9400  156.7560 C   0  0  1  0  0  3  0  0  0  0  0  0
  2  6  1  1  0  0  0
  2  1  1  0  0  0  0
  3  4  1  0  0  0  0
  4  2  1  6  0  0  0
  5  3  1  0  0  0  0
  5  4  1  0  0  0  0
  7  6  1  1  0  0  0
  8  7  1  6  0  0  0
  8  9  1  0  0  0  0
  8 10  1  0  0  0  0
  9 10  1  0  0  0  0
 12 11  1  6  0  0  0
 12  7  1  0  0  0  0
 13 12  1  0  0  0  0
 14 13  1  0  0  0  0
 16 14  1  0  0  0  0
 16 15  1  0  0  0  0
 17  1  1  6  0  0  0
 19 17  1  1  0  0  0
 19 21  1  0  0  0  0
 20 23  1  0  0  0  0
 21 22  1  0  0  0  0
 22 18  1  6  0  0  0
 23 22  1  0  0  0  0
 24 20  1  0  0  0  0
 24 19  1  0  0  0  0
 25 17  1  6  0  0  0
 25 27  1  0  0  0  0
 25 30  1  0  0  0  0
 26 28  1  0  0  0  0
 27 26  2  0  0  0  0
 28 31  1  0  0  0  0
 30 31  1  0  0  0  0
 31 29  1  6  0  0  0
M  END
>  <MODEL>
4

>  <REMARK>
 VINA RESULT:      -5.4      3.356      8.386
  Name = 
  12 active torsions:
  status: ('A' for Active; 'I' for Inactive)
    1  A    between atoms: C_1  and  C_24
    2  A    between atoms: C_3  and  C_15
    3  A    between atoms: C_3  and  C_24
    4  A    between atoms: C_4  and  C_27
    5  A    between atoms: C_5  and  C_27
    6  A    between atoms: C_9  and  C_23
    7  A    between atoms: C_15  and  C_20
    8  A    between atoms: C_15  and  C_21
    9  A    between atoms: C_19  and  O_22
   10  A    between atoms: C_19  and  C_24
   11  A    between atoms: C_20  and  C_27
   12  A    between atoms: O_22  and  C_23
                            x       y       z     vdW  Elec       q    Type
                         _______ _______ _______ _____ _____    ______ ____

>  <TORSDO>
F 12

$$$$
=
 OpenBabel11052422443D

 31 34  0  0  1  0  0  0  0  0999 V2000
  161.9330  207.0020  151.7420 C   0  0  0  0  0  2  0  0  0  0  0  0
  161.1220  207.8190  152.7450 C   0  0  1  0  0  3  0  0  0  0  0  0
  160.7780  206.0310  154.3760 N   0  0  0  0  0  2  0  0  0  0  0  0
  161.3680  207.3640  154.1780 C   0  0  2  0  0  3  0  0  0  0  0  0
  160.1000  207.2280  154.8880 C   0  0  0  0  0  2  0  0  0  0  0  0
  161.3590  209.3250  152.5830 C   0  0  0  0  0  2  0  0  0  0  0  0
  160.5050  210.2320  153.5020 C   0  0  1  0  0  3  0  0  0  0  0  0
  161.2980  211.1070  154.4900 C   0  0  1  0  0  3  0  0  0  0  0  0
  160.4680  211.5910  155.5180 O   0  0  0  0  0  0  0  0  0  0  0  0
  161.3490  210.5470  155.8610 C   0  0  0  0  0  2  0  0  0  0  0  0
  158.2190  211.3370  153.6470 C   0  0  0  0  0  1  0  0  0  0  0  0
  159.4430  211.0720  152.7810 C   0  0  1  0  0  3  0  0  0  0  0  0
  159.9810  212.2780  152.3260 O   0  0  0  0  0  0  0  0  0  0  0  0
  158.9110  213.1740  152.3150 C   0  0  0  0  0  2  0  0  0  0  0  0
  160.1130  213.6770  150.3300 O   0  0  0  0  0  1  0  0  0  0  0  0
  158.9830  214.0270  151.0670 C   0  0  0  0  0  2  0  0  0  0  0  0
  161.0320  206.2980  150.7280 C   0  0  1  0  0  3  0  0  0  0  0  0
  162.2020  205.9750  145.8600 C   0  0  0  0  0  1  0  0  0  0  0  0
  160.8220  207.1340  149.4580 C   0  0  2  0  0  3  0  0  0  0  0  0
  162.4400  208.0440  147.9130 O   0  0  0  0  0  0  0  0  0  0  0  0
  160.4590  206.0800  148.0000 S   0  0  0  0  0  0  0  0  0  0  0  0
  162.1850  205.9290  147.3750 C   0  0  2  0  0  3  0  0  0  0  0  0
  163.0730  206.8840  147.9130 O   0  0  0  0  0  0  0  0  0  0  0  0
  161.9200  208.1740  149.2080 C   0  0  0  0  0  2  0  0  0  0  0  0
  161.4440  204.8430  150.4690 C   0  0  1  0  0  3  0  0  0  0  0  0
  161.7520  202.8480  151.9500 C   0  0  0  0  0  3  0  0  0  0  0  0
  161.9850  204.1450  151.6990 C   0  0  0  0  0  3  0  0  0  0  0  0
  160.8470  202.0090  151.0860 C   0  0  0  0  0  2  0  0  0  0  0  0
  159.6680  201.9160  149.0140 O   0  0  0  0  0  1  0  0  0  0  0  0
  160.2990  204.0740  149.8090 C   0  0  0  0  0  2  0  0  0  0  0  0
  160.6750  202.6020  149.6890 C   0  0  1  0  0  3  0  0  0  0  0  0
  2  1  1  6  0  0  0
  3  5  1  0  0  0  0
  4  2  1  6  0  0  0
  4  3  1  0  0  0  0
  4  5  1  0  0  0  0
  6  2  1  0  0  0  0
  7  6  1  6  0  0  0
  8  7  1  6  0  0  0
  8  9  1  0  0  0  0
  8 10  1  0  0  0  0
  9 10  1  0  0  0  0
 12  7  1  0  0  0  0
 12 11  1  1  0  0  0
 13 12  1  0  0  0  0
 14 13  1  0  0  0  0
 15 16  1  0  0  0  0
 16 14  1  0  0  0  0
 17  1  1  1  0  0  0
 19 17  1  1  0  0  0
 20 24  1  0  0  0  0
 21 19  1  0  0  0  0
 22 18  1  6  0  0  0
 22 23  1  0  0  0  0
 22 21  1  0  0  0  0
 23 20  1  0  0  0  0
 24 19  1  0  0  0  0
 25 17  1  1  0  0  0
 25 27  1  0  0  0  0
 27 26  2  0  0  0  0
 28 26  1  0  0  0  0
 30 25  1  0  0  0  0
 31 29  1  1  0  0  0
 31 30  1  0  0  0  0
 31 28  1  0  0  0  0
M  END
>  <MODEL>
5

>  <REMARK>
 VINA RESULT:      -5.4      2.634      3.933
  Name = 
  12 active torsions:
  status: ('A' for Active; 'I' for Inactive)
    1  A    between atoms: C_1  and  C_24
    2  A    between atoms: C_3  and  C_15
    3  A    between atoms: C_3  and  C_24
    4  A    between atoms: C_4  and  C_27
    5  A    between atoms: C_5  and  C_27
    6  A    between atoms: C_9  and  C_23
    7  A    between atoms: C_15  and  C_20
    8  A    between atoms: C_15  and  C_21
    9  A    between atoms: C_19  and  O_22
   10  A    between atoms: C_19  and  C_24
   11  A    between atoms: C_20  and  C_27
   12  A    between atoms: O_22  and  C_23
                            x       y       z     vdW  Elec       q    Type
                         _______ _______ _______ _____ _____    ______ ____

>  <TORSDO>
F 12

$$$$
=
 OpenBabel11052422443D

 31 34  0  0  1  0  0  0  0  0999 V2000
  160.7100  211.7320  152.8780 C   0  0  0  0  0  2  0  0  0  0  0  0
  160.6290  210.2970  152.3610 C   0  0  1  0  0  3  0  0  0  0  0  0
  162.1010  210.1320  150.4160 N   0  0  0  0  0  2  0  0  0  0  0  0
  161.9760  209.8040  151.8450 C   0  0  2  0  0  3  0  0  0  0  0  0
  161.7800  208.7630  150.8400 C   0  0  0  0  0  2  0  0  0  0  0  0
  160.0430  209.3420  153.4070 C   0  0  0  0  0  2  0  0  0  0  0  0
  161.0320  208.8670  154.4980 C   0  0  1  0  0  3  0  0  0  0  0  0
  161.0950  209.7420  155.7630 C   0  0  1  0  0  3  0  0  0  0  0  0
  162.2440  209.4550  156.5230 O   0  0  0  0  0  0  0  0  0  0  0  0
  162.2610  210.6570  155.7880 C   0  0  0  0  0  2  0  0  0  0  0  0
  160.0180  207.1630  156.0910 C   0  0  0  0  0  1  0  0  0  0  0  0
  160.9150  207.3860  154.8820 C   0  0  1  0  0  3  0  0  0  0  0  0
  160.4670  206.6220  153.8020 O   0  0  0  0  0  0  0  0  0  0  0  0
  161.6040  205.9690  153.3210 C   0  0  0  0  0  2  0  0  0  0  0  0
  162.0360  204.1110  151.9080 O   0  0  0  0  0  1  0  0  0  0  0  0
  161.2670  205.2670  152.0230 C   0  0  0  0  0  2  0  0  0  0  0  0
  159.3220  212.3460  153.0560 C   0  0  1  0  0  3  0  0  0  0  0  0
  155.5570  212.3660  156.3720 C   0  0  0  0  0  1  0  0  0  0  0  0
  159.0830  212.8370  154.4910 C   0  0  2  0  0  3  0  0  0  0  0  0
  157.4280  214.3690  155.3520 O   0  0  0  0  0  0  0  0  0  0  0  0
  158.0640  211.6540  155.4550 S   0  0  0  0  0  0  0  0  0  0  0  0
  156.4240  212.4280  155.1300 C   0  0  2  0  0  3  0  0  0  0  0  0
  156.5020  213.7480  154.6410 O   0  0  0  0  0  0  0  0  0  0  0  0
  158.5940  214.2870  154.5790 C   0  0  0  0  0  2  0  0  0  0  0  0
  158.9780  213.3720  151.9690 C   0  0  1  0  0  3  0  0  0  0  0  0
  159.8510  213.8000  149.6610 C   0  0  0  0  0  3  0  0  0  0  0  0
  160.0910  213.5770  150.9630 C   0  0  0  0  0  3  0  0  0  0  0  0
  158.4620  213.7610  149.0790 C   0  0  0  0  0  2  0  0  0  0  0  0
  156.1330  213.7080  149.5960 O   0  0  0  0  0  1  0  0  0  0  0  0
  157.6430  213.0250  151.3110 C   0  0  0  0  0  2  0  0  0  0  0  0
  157.3870  213.9710  150.1440 C   0  0  1  0  0  3  0  0  0  0  0  0
  2  1  1  1  0  0  0
  2  6  1  0  0  0  0
  3  5  1  0  0  0  0
  3  4  1  0  0  0  0
  4  2  1  6  0  0  0
  5  4  1  0  0  0  0
  7  6  1  6  0  0  0
  7 12  1  0  0  0  0
  8  7  1  6  0  0  0
  8 10  1  0  0  0  0
  8  9  1  0  0  0  0
 10  9  1  0  0  0  0
 12 11  1  1  0  0  0
 13 12  1  0  0  0  0
 14 13  1  0  0  0  0
 15 16  1  0  0  0  0
 16 14  1  0  0  0  0
 17  1  1  1  0  0  0
 19 17  1  6  0  0  0
 19 24  1  0  0  0  0
 19 21  1  0  0  0  0
 22 21  1  0  0  0  0
 22 18  1  1  0  0  0
 23 22  1  0  0  0  0
 23 20  1  0  0  0  0
 24 20  1  0  0  0  0
 25 17  1  1  0  0  0
 26 27  2  0  0  0  0
 27 25  1  0  0  0  0
 28 26  1  0  0  0  0
 28 31  1  0  0  0  0
 30 25  1  0  0  0  0
 31 29  1  6  0  0  0
 31 30  1  0  0  0  0
M  END
>  <MODEL>
6

>  <REMARK>
 VINA RESULT:      -5.1      4.364      9.179
  Name = 
  12 active torsions:
  status: ('A' for Active; 'I' for Inactive)
    1  A    between atoms: C_1  and  C_24
    2  A    between atoms: C_3  and  C_15
    3  A    between atoms: C_3  and  C_24
    4  A    between atoms: C_4  and  C_27
    5  A    between atoms: C_5  and  C_27
    6  A    between atoms: C_9  and  C_23
    7  A    between atoms: C_15  and  C_20
    8  A    between atoms: C_15  and  C_21
    9  A    between atoms: C_19  and  O_22
   10  A    between atoms: C_19  and  C_24
   11  A    between atoms: C_20  and  C_27
   12  A    between atoms: O_22  and  C_23
                            x       y       z     vdW  Elec       q    Type
                         _______ _______ _______ _____ _____    ______ ____

>  <TORSDO>
F 12

$$$$
=
 OpenBabel11052422443D

 31 34  0  0  1  0  0  0  0  0999 V2000
  160.5580  208.9860  151.9940 C   0  0  0  0  0  2  0  0  0  0  0  0
  161.5960  207.8690  152.0730 C   0  0  1  0  0  3  0  0  0  0  0  0
  161.5560  205.8410  153.4390 N   0  0  0  0  0  2  0  0  0  0  0  0
  160.9450  206.5050  152.2770 C   0  0  2  0  0  3  0  0  0  0  0  0
  161.9270  205.4440  152.0740 C   0  0  0  0  0  2  0  0  0  0  0  0
  162.5340  207.8710  150.8610 C   0  0  0  0  0  2  0  0  0  0  0  0
  161.8440  208.0720  149.4900 C   0  0  1  0  0  3  0  0  0  0  0  0
  162.4030  209.2190  148.6290 C   0  0  1  0  0  3  0  0  0  0  0  0
  161.3670  209.9380  148.0050 O   0  0  0  0  0  0  0  0  0  0  0  0
  161.9920  210.5630  149.1010 C   0  0  0  0  0  2  0  0  0  0  0  0
  160.2690  206.2540  148.6630 C   0  0  0  0  0  1  0  0  0  0  0  0
  161.6900  206.8000  148.6460 C   0  0  1  0  0  3  0  0  0  0  0  0
  162.1060  207.0170  147.3310 O   0  0  0  0  0  0  0  0  0  0  0  0
  161.1970  206.3140  146.5400 C   0  0  0  0  0  2  0  0  0  0  0  0
  162.2820  204.2020  146.5250 O   0  0  0  0  0  1  0  0  0  0  0  0
  161.9400  205.2840  145.7160 C   0  0  0  0  0  2  0  0  0  0  0  0
  160.6460  209.9230  153.1990 C   0  0  1  0  0  3  0  0  0  0  0  0
  158.2640  214.3180  153.6280 C   0  0  0  0  0  1  0  0  0  0  0  0
  159.2660  210.4210  153.6510 C   0  0  2  0  0  3  0  0  0  0  0  0
  158.6750  212.0070  155.3730 O   0  0  0  0  0  0  0  0  0  0  0  0
  158.6530  211.7870  152.5910 S   0  0  0  0  0  0  0  0  0  0  0  0
  159.2720  213.1850  153.6170 C   0  0  2  0  0  3  0  0  0  0  0  0
  159.6220  212.8170  154.9330 O   0  0  0  0  0  0  0  0  0  0  0  0
  159.1710  210.7150  155.1520 C   0  0  0  0  0  2  0  0  0  0  0  0
  161.5200  209.3640  154.3290 C   0  0  1  0  0  3  0  0  0  0  0  0
  162.5180  210.3690  156.3950 C   0  0  0  0  0  3  0  0  0  0  0  0
  162.2920  210.4330  155.0730 C   0  0  0  0  0  3  0  0  0  0  0  0
  161.9320  209.2830  157.2610 C   0  0  0  0  0  2  0  0  0  0  0  0
  160.8100  207.1780  157.2530 O   0  0  0  0  0  1  0  0  0  0  0  0
  160.6900  208.4800  155.2590 C   0  0  0  0  0  2  0  0  0  0  0  0
  161.5400  208.0510  156.4490 C   0  0  1  0  0  3  0  0  0  0  0  0
  1  2  1  0  0  0  0
  2  6  1  6  0  0  0
  4  2  1  1  0  0  0
  4  3  1  0  0  0  0
  5  4  1  0  0  0  0
  5  3  1  0  0  0  0
  7  6  1  1  0  0  0
  8 10  1  0  0  0  0
  8  7  1  1  0  0  0
  9  8  1  0  0  0  0
  9 10  1  0  0  0  0
 12 11  1  6  0  0  0
 12  7  1  0  0  0  0
 13 12  1  0  0  0  0
 14 13  1  0  0  0  0
 16 15  1  0  0  0  0
 16 14  1  0  0  0  0
 17  1  1  6  0  0  0
 19 17  1  6  0  0  0
 19 24  1  0  0  0  0
 21 22  1  0  0  0  0
 21 19  1  0  0  0  0
 22 18  1  1  0  0  0
 22 23  1  0  0  0  0
 23 20  1  0  0  0  0
 24 20  1  0  0  0  0
 25 17  1  6  0  0  0
 25 27  1  0  0  0  0
 25 30  1  0  0  0  0
 26 28  1  0  0  0  0
 27 26  2  0  0  0  0
 30 31  1  0  0  0  0
 31 29  1  1  0  0  0
 31 28  1  0  0  0  0
M  END
>  <MODEL>
7

>  <REMARK>
 VINA RESULT:      -5.1      3.038      8.609
  Name = 
  12 active torsions:
  status: ('A' for Active; 'I' for Inactive)
    1  A    between atoms: C_1  and  C_24
    2  A    between atoms: C_3  and  C_15
    3  A    between atoms: C_3  and  C_24
    4  A    between atoms: C_4  and  C_27
    5  A    between atoms: C_5  and  C_27
    6  A    between atoms: C_9  and  C_23
    7  A    between atoms: C_15  and  C_20
    8  A    between atoms: C_15  and  C_21
    9  A    between atoms: C_19  and  O_22
   10  A    between atoms: C_19  and  C_24
   11  A    between atoms: C_20  and  C_27
   12  A    between atoms: O_22  and  C_23
                            x       y       z     vdW  Elec       q    Type
                         _______ _______ _______ _____ _____    ______ ____

>  <TORSDO>
F 12

$$$$
=
 OpenBabel11052422443D

 31 34  0  0  1  0  0  0  0  0999 V2000
  160.2370  210.0570  152.5940 C   0  0  0  0  0  2  0  0  0  0  0  0
  161.3480  209.0090  152.5790 C   0  0  1  0  0  3  0  0  0  0  0  0
  161.1880  206.8220  153.6590 N   0  0  0  0  0  2  0  0  0  0  0  0
  160.7910  207.5940  152.4720 C   0  0  2  0  0  3  0  0  0  0  0  0
  161.8820  206.6290  152.3790 C   0  0  0  0  0  2  0  0  0  0  0  0
  162.3860  209.2900  151.4860 C   0  0  0  0  0  2  0  0  0  0  0  0
  161.8050  209.6850  150.1070 C   0  0  1  0  0  3  0  0  0  0  0  0
  162.3370  211.0040  149.5180 C   0  0  1  0  0  3  0  0  0  0  0  0
  161.9840  211.1320  148.1610 O   0  0  0  0  0  0  0  0  0  0  0  0
  161.2620  211.9250  149.0750 C   0  0  0  0  0  2  0  0  0  0  0  0
  163.1610  207.8230  149.0270 C   0  0  0  0  0  1  0  0  0  0  0  0
  161.8380  208.5770  149.0460 C   0  0  1  0  0  3  0  0  0  0  0  0
  160.7780  207.6860  149.2180 O   0  0  0  0  0  0  0  0  0  0  0  0
  160.8700  206.7970  148.1460 C   0  0  0  0  0  2  0  0  0  0  0  0
  161.5650  204.6950  149.0050 O   0  0  0  0  0  1  0  0  0  0  0  0
  160.4440  205.4170  148.5990 C   0  0  0  0  0  2  0  0  0  0  0  0
  160.5790  211.2270  153.5150 C   0  0  1  0  0  3  0  0  0  0  0  0
  156.7580  213.6330  155.7020 C   0  0  0  0  0  1  0  0  0  0  0  0
  159.7120  212.4620  153.2340 C   0  0  2  0  0  3  0  0  0  0  0  0
  157.3160  212.6570  153.0020 O   0  0  0  0  0  0  0  0  0  0  0  0
  159.3460  213.4030  154.7660 S   0  0  0  0  0  0  0  0  0  0  0  0
  157.7330  212.6070  155.1590 C   0  0  2  0  0  3  0  0  0  0  0  0
  157.1640  211.9030  154.0770 O   0  0  0  0  0  0  0  0  0  0  0  0
  158.4740  212.1710  152.3790 C   0  0  0  0  0  2  0  0  0  0  0  0
  160.6490  210.8250  154.9950 C   0  0  1  0  0  3  0  0  0  0  0  0
  160.0940  208.7240  156.2390 C   0  0  0  0  0  3  0  0  0  0  0  0
  159.7460  209.6600  155.3420 C   0  0  0  0  0  3  0  0  0  0  0  0
  161.4510  208.6990  156.8930 C   0  0  0  0  0  2  0  0  0  0  0  0
  163.4610  209.9310  157.2590 O   0  0  0  0  0  1  0  0  0  0  0  0
  162.1000  210.5950  155.4170 C   0  0  0  0  0  2  0  0  0  0  0  0
  162.1370  210.0620  156.8450 C   0  0  1  0  0  3  0  0  0  0  0  0
  2  6  1  6  0  0  0
  2  1  1  0  0  0  0
  4  2  1  1  0  0  0
  4  3  1  0  0  0  0
  5  4  1  0  0  0  0
  5  3  1  0  0  0  0
  7  6  1  1  0  0  0
  8  7  1  1  0  0  0
  9 10  1  0  0  0  0
  9  8  1  0  0  0  0
 10  8  1  0  0  0  0
 12 11  1  1  0  0  0
 12 13  1  0  0  0  0
 12  7  1  0  0  0  0
 14 16  1  0  0  0  0
 14 13  1  0  0  0  0
 16 15  1  0  0  0  0
 17  1  1  6  0  0  0
 19 17  1  1  0  0  0
 19 21  1  0  0  0  0
 20 23  1  0  0  0  0
 21 22  1  0  0  0  0
 22 18  1  6  0  0  0
 23 22  1  0  0  0  0
 24 20  1  0  0  0  0
 24 19  1  0  0  0  0
 25 17  1  6  0  0  0
 25 27  1  0  0  0  0
 25 30  1  0  0  0  0
 26 28  1  0  0  0  0
 27 26  2  0  0  0  0
 30 31  1  0  0  0  0
 31 28  1  0  0  0  0
 31 29  1  6  0  0  0
M  END
>  <MODEL>
8

>  <REMARK>
 VINA RESULT:      -5.0      3.690      8.778
  Name = 
  12 active torsions:
  status: ('A' for Active; 'I' for Inactive)
    1  A    between atoms: C_1  and  C_24
    2  A    between atoms: C_3  and  C_15
    3  A    between atoms: C_3  and  C_24
    4  A    between atoms: C_4  and  C_27
    5  A    between atoms: C_5  and  C_27
    6  A    between atoms: C_9  and  C_23
    7  A    between atoms: C_15  and  C_20
    8  A    between atoms: C_15  and  C_21
    9  A    between atoms: C_19  and  O_22
   10  A    between atoms: C_19  and  C_24
   11  A    between atoms: C_20  and  C_27
   12  A    between atoms: O_22  and  C_23
                            x       y       z     vdW  Elec       q    Type
                         _______ _______ _______ _____ _____    ______ ____

>  <TORSDO>
F 12

$$$$
=
 OpenBabel11052422443D

 31 34  0  0  1  0  0  0  0  0999 V2000
  160.5960  206.2950  150.5720 C   0  0  0  0  0  2  0  0  0  0  0  0
  160.9070  204.8160  150.3560 C   0  0  1  0  0  3  0  0  0  0  0  0
  161.2050  203.9960  152.6410 N   0  0  0  0  0  2  0  0  0  0  0  0
  160.3230  203.9470  151.4650 C   0  0  2  0  0  3  0  0  0  0  0  0
  161.2150  202.8280  151.7510 C   0  0  0  0  0  2  0  0  0  0  0  0
  160.4660  204.3320  148.9700 C   0  0  0  0  0  2  0  0  0  0  0  0
  161.3520  203.2290  148.3420 C   0  0  1  0  0  3  0  0  0  0  0  0
  160.6580  201.8740  148.1120 C   0  0  1  0  0  3  0  0  0  0  0  0
  161.5880  200.8180  148.1330 O   0  0  0  0  0  0  0  0  0  0  0  0
  160.7660  200.9540  149.2700 C   0  0  0  0  0  2  0  0  0  0  0  0
  161.4310  203.2200  145.8000 C   0  0  0  0  0  1  0  0  0  0  0  0
  162.1230  203.6510  147.0840 C   0  0  1  0  0  3  0  0  0  0  0  0
  162.3460  205.0290  147.0720 O   0  0  0  0  0  0  0  0  0  0  0  0
  161.9080  205.4580  145.8190 C   0  0  0  0  0  2  0  0  0  0  0  0
  159.7060  206.1530  145.2640 O   0  0  0  0  0  1  0  0  0  0  0  0
  160.8360  206.5130  145.9960 C   0  0  0  0  0  2  0  0  0  0  0  0
  161.5560  206.9330  151.5750 C   0  0  1  0  0  3  0  0  0  0  0  0
  161.9410  210.8670  148.4850 C   0  0  0  0  0  1  0  0  0  0  0  0
  162.6770  207.7220  150.8850 C   0  0  2  0  0  3  0  0  0  0  0  0
  163.0520  208.1620  148.5410 O   0  0  0  0  0  0  0  0  0  0  0  0
  162.3310  209.5240  150.8680 S   0  0  0  0  0  0  0  0  0  0  0  0
  161.5320  209.6000  149.2100 C   0  0  2  0  0  3  0  0  0  0  0  0
  161.7730  208.4660  148.4070 O   0  0  0  0  0  0  0  0  0  0  0  0
  163.0860  207.1600  149.5200 C   0  0  0  0  0  2  0  0  0  0  0  0
  160.8350  207.6990  152.6910 C   0  0  1  0  0  3  0  0  0  0  0  0
  160.6330  207.3600  155.1640 C   0  0  0  0  0  3  0  0  0  0  0  0
  160.5690  206.8570  153.9220 C   0  0  0  0  0  3  0  0  0  0  0  0
  161.0750  208.7740  155.4400 C   0  0  0  0  0  2  0  0  0  0  0  0
  161.5470  210.8950  154.4560 O   0  0  0  0  0  1  0  0  0  0  0  0
  161.5750  208.9970  153.0130 C   0  0  0  0  0  2  0  0  0  0  0  0
  160.9250  209.6720  154.2140 C   0  0  1  0  0  3  0  0  0  0  0  0
  2  6  1  6  0  0  0
  2  1  1  0  0  0  0
  4  2  1  6  0  0  0
  4  5  1  0  0  0  0
  4  3  1  0  0  0  0
  5  3  1  0  0  0  0
  7  6  1  6  0  0  0
  8  9  1  0  0  0  0
  8  7  1  1  0  0  0
  8 10  1  0  0  0  0
  9 10  1  0  0  0  0
 12 11  1  6  0  0  0
 12  7  1  0  0  0  0
 13 12  1  0  0  0  0
 14 16  1  0  0  0  0
 14 13  1  0  0  0  0
 15 16  1  0  0  0  0
 17  1  1  6  0  0  0
 19 17  1  6  0  0  0
 20 24  1  0  0  0  0
 21 19  1  0  0  0  0
 22 18  1  6  0  0  0
 22 21  1  0  0  0  0
 23 20  1  0  0  0  0
 23 22  1  0  0  0  0
 24 19  1  0  0  0  0
 25 17  1  6  0  0  0
 25 30  1  0  0  0  0
 25 27  1  0  0  0  0
 26 28  1  0  0  0  0
 27 26  2  0  0  0  0
 30 31  1  0  0  0  0
 31 29  1  1  0  0  0
 31 28  1  0  0  0  0
M  END
>  <MODEL>
9

>  <REMARK>
 VINA RESULT:      -5.0      2.377      7.283
  Name = 
  12 active torsions:
  status: ('A' for Active; 'I' for Inactive)
    1  A    between atoms: C_1  and  C_24
    2  A    between atoms: C_3  and  C_15
    3  A    between atoms: C_3  and  C_24
    4  A    between atoms: C_4  and  C_27
    5  A    between atoms: C_5  and  C_27
    6  A    between atoms: C_9  and  C_23
    7  A    between atoms: C_15  and  C_20
    8  A    between atoms: C_15  and  C_21
    9  A    between atoms: C_19  and  O_22
   10  A    between atoms: C_19  and  C_24
   11  A    between atoms: C_20  and  C_27
   12  A    between atoms: O_22  and  C_23
                            x       y       z     vdW  Elec       q    Type
                         _______ _______ _______ _____ _____    ______ ____

>  <TORSDO>
F 12

$$$$
