=
 OpenBabel11052423073D

 27 31  0  0  1  0  0  0  0  0999 V2000
  159.2160  210.4510  153.8640 C   0  0  0  0  0  2  0  0  0  0  0  0
  160.7170  210.3760  151.8120 C   0  0  0  0  0  0  0  0  0  0  0  0
  160.4230  208.0780  152.9570 C   0  0  0  0  0  2  0  0  0  0  0  0
  162.5220  208.3190  148.6570 N   0  0  0  0  0  2  0  0  0  0  0  0
  161.6190  206.1700  148.1730 N   0  0  0  0  0  1  0  0  0  0  0  0
  161.1760  211.0730  150.7230 N   0  0  0  0  0  0  0  0  0  0  0  0
  161.8240  206.9180  150.4940 C   0  0  1  0  0  3  0  0  0  0  0  0
  161.0060  207.7040  156.7100 C   0  0  0  0  0  2  0  0  0  0  0  0
  162.8480  206.4160  151.4970 C   0  0  0  0  0  1  0  0  0  0  0  0
  161.9590  208.7690  157.2610 C   0  0  0  0  0  2  0  0  0  0  0  0
  161.5250  208.3610  150.7390 C   0  0  0  0  0  0  0  0  0  0  0  0
  160.0930  211.1140  152.8930 N   0  0  0  0  0  0  0  0  0  0  0  0
  162.4600  206.9220  149.0870 C   0  0  2  0  0  3  0  0  0  0  0  0
  161.9460  209.1010  149.6790 C   0  0  0  0  0  0  0  0  0  0  0  0
  159.9970  209.6370  154.8980 C   0  0  2  0  0  3  0  0  0  0  0  0
  160.8900  208.9570  151.8370 C   0  0  0  0  0  0  0  0  0  0  0  0
  161.2070  207.3990  155.2210 C   0  0  0  0  0  2  0  0  0  0  0  0
  161.7790  210.4770  149.6570 C   0  0  0  0  0  3  0  0  0  0  0  0
  160.6700  210.5530  155.9360 C   0  0  0  0  0  2  0  0  0  0  0  0
  162.0330  210.0530  156.4280 C   0  0  0  0  0  2  0  0  0  0  0  0
  160.9470  208.5900  154.2860 C   0  0  1  0  0  3  0  0  0  0  0  0
  157.7400  214.1400  152.4300 O   0  0  0  0  0  0  0  0  0  0  0  0
  160.1190  212.5860  152.8170 C   0  0  0  0  0  3  0  0  0  0  0  0
  159.3370  213.2240  153.9720 C   0  0  0  0  0  2  0  0  0  0  0  0
  157.8620  213.3720  153.6000 C   0  0  0  0  0  2  0  0  0  0  0  0
  158.1890  213.3290  151.3750 C   0  0  0  0  0  2  0  0  0  0  0  0
  159.7090  213.1660  151.4510 C   0  0  0  0  0  2  0  0  0  0  0  0
  2 16  1  0  0  0  0
  2 12  1  0  0  0  0
  4 13  1  0  0  0  0
  4 14  1  0  0  0  0
  6  2  2  0  0  0  0
  7 11  1  0  0  0  0
  7  9  1  1  0  0  0
  8 10  1  0  0  0  0
 11 16  2  0  0  0  0
 12  1  1  0  0  0  0
 13  5  1  6  0  0  0
 13  7  1  0  0  0  0
 14 11  1  0  0  0  0
 15  1  1  6  0  0  0
 15 19  1  0  0  0  0
 16  3  1  0  0  0  0
 17  8  1  0  0  0  0
 18 14  2  0  0  0  0
 18  6  1  0  0  0  0
 19 20  1  0  0  0  0
 20 10  1  0  0  0  0
 21  3  1  6  0  0  0
 21 15  1  0  0  0  0
 21 17  1  0  0  0  0
 22 25  1  0  0  0  0
 23 12  1  0  0  0  0
 23 24  1  0  0  0  0
 25 24  1  0  0  0  0
 26 27  1  0  0  0  0
 26 22  1  0  0  0  0
 27 23  1  0  0  0  0
M  END
>  <MODEL>
1

>  <REMARK>
 VINA RESULT:      -5.7      0.000      0.000
  Name = 
  1 active torsions:
  status: ('A' for Active; 'I' for Inactive)
    1  A    between atoms: C_9  and  N_15
                            x       y       z     vdW  Elec       q    Type
                         _______ _______ _______ _____ _____    ______ ____

>  <TORSDO>
F 1

$$$$
=
 OpenBabel11052423073D

 27 31  0  0  1  0  0  0  0  0999 V2000
  162.4680  210.6870  150.4900 C   0  0  0  0  0  2  0  0  0  0  0  0
  160.4610  211.8840  151.4970 C   0  0  0  0  0  0  0  0  0  0  0  0
  161.5600  210.1850  153.1050 C   0  0  0  0  0  2  0  0  0  0  0  0
  158.2470  213.2140  154.7780 N   0  0  0  0  0  2  0  0  0  0  0  0
  159.3830  213.1930  156.8700 N   0  0  0  0  0  1  0  0  0  0  0  0
  159.5580  212.9040  151.3360 N   0  0  0  0  0  0  0  0  0  0  0  0
  159.7460  211.3860  155.2590 C   0  0  1  0  0  3  0  0  0  0  0  0
  162.2410  206.6080  151.9620 C   0  0  0  0  0  2  0  0  0  0  0  0
  159.2040  209.9720  155.3810 C   0  0  0  0  0  1  0  0  0  0  0  0
  161.3030  206.1680  150.8340 C   0  0  0  0  0  2  0  0  0  0  0  0
  159.8000  211.7970  153.8250 C   0  0  0  0  0  0  0  0  0  0  0  0
  161.2180  211.4420  150.3420 N   0  0  0  0  0  0  0  0  0  0  0  0
  158.7250  212.3690  155.8710 C   0  0  2  0  0  3  0  0  0  0  0  0
  158.9320  212.8210  153.6100 C   0  0  0  0  0  0  0  0  0  0  0  0
  162.2250  209.2230  150.8660 C   0  0  2  0  0  3  0  0  0  0  0  0
  160.6020  211.2940  152.7910 C   0  0  0  0  0  0  0  0  0  0  0  0
  161.6630  207.7090  152.8580 C   0  0  0  0  0  2  0  0  0  0  0  0
  158.7960  213.3920  152.3540 C   0  0  0  0  0  3  0  0  0  0  0  0
  161.7280  208.4120  149.6570 C   0  0  0  0  0  2  0  0  0  0  0  0
  160.7150  207.3170  150.0080 C   0  0  0  0  0  2  0  0  0  0  0  0
  161.3720  209.0330  152.1350 C   0  0  1  0  0  3  0  0  0  0  0  0
  162.5730  213.8870  147.6780 O   0  0  0  0  0  0  0  0  0  0  0  0
  160.8660  212.0220  149.0330 C   0  0  0  0  0  3  0  0  0  0  0  0
  161.8650  211.6080  147.9450 C   0  0  0  0  0  2  0  0  0  0  0  0
  163.0420  212.5820  147.9020 C   0  0  0  0  0  2  0  0  0  0  0  0
  161.9480  214.2940  148.8680 C   0  0  0  0  0  2  0  0  0  0  0  0
  160.6270  213.5430  149.0490 C   0  0  0  0  0  2  0  0  0  0  0  0
  1 15  1  0  0  0  0
  2 16  1  0  0  0  0
  4 13  1  0  0  0  0
  6  2  2  0  0  0  0
  6 18  1  0  0  0  0
  7  9  1  6  0  0  0
  7 13  1  0  0  0  0
  8 17  1  0  0  0  0
 10  8  1  0  0  0  0
 11  7  1  0  0  0  0
 12  1  1  0  0  0  0
 12  2  1  0  0  0  0
 13  5  1  1  0  0  0
 14 11  1  0  0  0  0
 14  4  1  0  0  0  0
 15 19  1  6  0  0  0
 15 21  1  0  0  0  0
 16  3  1  0  0  0  0
 16 11  2  0  0  0  0
 18 14  2  0  0  0  0
 19 20  1  0  0  0  0
 20 10  1  0  0  0  0
 21 17  1  1  0  0  0
 21  3  1  0  0  0  0
 22 25  1  0  0  0  0
 22 26  1  0  0  0  0
 23 27  1  0  0  0  0
 23 12  1  0  0  0  0
 24 23  1  0  0  0  0
 25 24  1  0  0  0  0
 26 27  1  0  0  0  0
M  END
>  <MODEL>
2

>  <REMARK>
 VINA RESULT:      -5.4      2.455      5.843
  Name = 
  1 active torsions:
  status: ('A' for Active; 'I' for Inactive)
    1  A    between atoms: C_9  and  N_15
                            x       y       z     vdW  Elec       q    Type
                         _______ _______ _______ _____ _____    ______ ____

>  <TORSDO>
F 1

$$$$
=
 OpenBabel11052423073D

 27 31  0  0  1  0  0  0  0  0999 V2000
  162.3310  208.9790  153.8200 C   0  0  0  0  0  2  0  0  0  0  0  0
  161.3360  206.7860  152.9960 C   0  0  0  0  0  0  0  0  0  0  0  0
  162.0100  208.3920  151.0870 C   0  0  0  0  0  2  0  0  0  0  0  0
  160.8050  203.8720  150.0530 N   0  0  0  0  0  2  0  0  0  0  0  0
  162.3310  203.9560  148.2280 N   0  0  0  0  0  1  0  0  0  0  0  0
  160.9270  205.5270  153.3560 N   0  0  0  0  0  0  0  0  0  0  0  0
  161.4830  206.0300  149.2120 C   0  0  1  0  0  3  0  0  0  0  0  0
  160.8300  212.0210  151.1100 C   0  0  0  0  0  2  0  0  0  0  0  0
  160.4570  206.9540  148.5780 C   0  0  0  0  0  1  0  0  0  0  0  0
  159.5370  212.2080  151.9090 C   0  0  0  0  0  2  0  0  0  0  0  0
  161.3280  206.0270  150.6970 C   0  0  0  0  0  0  0  0  0  0  0  0
  161.5140  207.7790  154.0390 N   0  0  0  0  0  0  0  0  0  0  0  0
  161.1570  204.5730  148.8180 C   0  0  2  0  0  3  0  0  0  0  0  0
  160.9370  204.7920  151.1140 C   0  0  0  0  0  0  0  0  0  0  0  0
  161.6120  210.0290  152.9700 C   0  0  2  0  0  3  0  0  0  0  0  0
  161.5510  207.0650  151.6110 C   0  0  0  0  0  0  0  0  0  0  0  0
  161.0140  210.6080  150.5440 C   0  0  0  0  0  2  0  0  0  0  0  0
  160.7280  204.5240  152.4560 C   0  0  0  0  0  3  0  0  0  0  0  0
  160.5280  210.7580  153.7820 C   0  0  0  0  0  2  0  0  0  0  0  0
  159.2830  211.1370  152.9740 C   0  0  0  0  0  2  0  0  0  0  0  0
  161.1190  209.5050  151.6070 C   0  0  1  0  0  3  0  0  0  0  0  0
  160.0660  209.3380  157.2610 O   0  0  0  0  0  0  0  0  0  0  0  0
  161.1060  207.4120  155.4070 C   0  0  0  0  0  3  0  0  0  0  0  0
  159.6050  207.6380  155.6270 C   0  0  0  0  0  2  0  0  0  0  0  0
  159.3440  209.0730  156.0860 C   0  0  0  0  0  2  0  0  0  0  0  0
  161.4160  209.4330  156.8830 C   0  0  0  0  0  2  0  0  0  0  0  0
  161.9570  208.0480  156.5220 C   0  0  0  0  0  2  0  0  0  0  0  0
  1 12  1  0  0  0  0
  2  6  1  0  0  0  0
  2 12  1  0  0  0  0
  3 21  1  0  0  0  0
  3 16  1  0  0  0  0
  4 14  1  0  0  0  0
  7  9  1  6  0  0  0
  7 11  1  0  0  0  0
  8 10  1  0  0  0  0
 10 20  1  0  0  0  0
 11 14  2  0  0  0  0
 11 16  1  0  0  0  0
 12 23  1  0  0  0  0
 13  5  1  1  0  0  0
 13  7  1  0  0  0  0
 13  4  1  0  0  0  0
 14 18  1  0  0  0  0
 15 19  1  1  0  0  0
 15  1  1  0  0  0  0
 16  2  2  0  0  0  0
 17  8  1  0  0  0  0
 18  6  2  0  0  0  0
 20 19  1  0  0  0  0
 21 17  1  6  0  0  0
 21 15  1  0  0  0  0
 23 24  1  0  0  0  0
 23 27  1  0  0  0  0
 24 25  1  0  0  0  0
 25 22  1  0  0  0  0
 26 22  1  0  0  0  0
 27 26  1  0  0  0  0
M  END
>  <MODEL>
3

>  <REMARK>
 VINA RESULT:      -5.2      2.453      4.881
  Name = 
  1 active torsions:
  status: ('A' for Active; 'I' for Inactive)
    1  A    between atoms: C_9  and  N_15
                            x       y       z     vdW  Elec       q    Type
                         _______ _______ _______ _____ _____    ______ ____

>  <TORSDO>
F 1

$$$$
=
 OpenBabel11052423073D

 27 31  0  0  1  0  0  0  0  0999 V2000
  160.4990  211.9560  154.6860 C   0  0  0  0  0  2  0  0  0  0  0  0
  160.1830  209.4320  154.6040 C   0  0  0  0  0  0  0  0  0  0  0  0
  161.3990  210.3840  152.5320 C   0  0  0  0  0  2  0  0  0  0  0  0
  161.2400  205.6430  153.2010 N   0  0  0  0  0  2  0  0  0  0  0  0
  163.3620  205.4920  152.1340 N   0  0  0  0  0  1  0  0  0  0  0  0
  159.8060  208.3180  155.3110 N   0  0  0  0  0  0  0  0  0  0  0  0
  161.9580  207.4670  151.7930 C   0  0  1  0  0  3  0  0  0  0  0  0
  159.9170  213.3280  150.6070 C   0  0  0  0  0  2  0  0  0  0  0  0
  161.1890  207.7960  150.5250 C   0  0  0  0  0  1  0  0  0  0  0  0
  158.3970  213.4260  150.7720 C   0  0  0  0  0  2  0  0  0  0  0  0
  161.2070  207.9430  152.9920 C   0  0  0  0  0  0  0  0  0  0  0  0
  159.8040  210.7360  155.1140 N   0  0  0  0  0  0  0  0  0  0  0  0
  161.9880  205.9340  151.9780 C   0  0  2  0  0  3  0  0  0  0  0  0
  160.8200  206.8760  153.7430 C   0  0  0  0  0  0  0  0  0  0  0  0
  160.0810  212.4050  153.2830 C   0  0  2  0  0  3  0  0  0  0  0  0
  160.9170  209.2550  153.3900 C   0  0  0  0  0  0  0  0  0  0  0  0
  160.4740  211.9120  150.7970 C   0  0  0  0  0  2  0  0  0  0  0  0
  160.1080  207.0500  154.9180 C   0  0  0  0  0  3  0  0  0  0  0  0
  158.6850  213.0510  153.2970 C   0  0  0  0  0  2  0  0  0  0  0  0
  157.8490  212.7700  152.0440 C   0  0  0  0  0  2  0  0  0  0  0  0
  160.2550  211.3240  152.1990 C   0  0  1  0  0  3  0  0  0  0  0  0
  157.0550  212.9180  156.7240 O   0  0  0  0  0  0  0  0  0  0  0  0
  158.9120  210.7760  156.2870 C   0  0  0  0  0  3  0  0  0  0  0  0
  157.4370  210.7030  155.8770 C   0  0  0  0  0  2  0  0  0  0  0  0
  156.8920  212.1030  155.5920 C   0  0  0  0  0  2  0  0  0  0  0  0
  158.4300  213.1940  156.8190 C   0  0  0  0  0  2  0  0  0  0  0  0
  159.1850  211.9380  157.2610 C   0  0  0  0  0  2  0  0  0  0  0  0
  1 12  1  0  0  0  0
  2 12  1  0  0  0  0
  2  6  1  0  0  0  0
  3 16  1  0  0  0  0
  4 14  1  0  0  0  0
  7  9  1  6  0  0  0
  7 13  1  0  0  0  0
  7 11  1  0  0  0  0
  8 10  1  0  0  0  0
  8 17  1  0  0  0  0
 10 20  1  0  0  0  0
 11 16  1  0  0  0  0
 11 14  2  0  0  0  0
 12 23  1  0  0  0  0
 13  5  1  1  0  0  0
 13  4  1  0  0  0  0
 14 18  1  0  0  0  0
 15 19  1  1  0  0  0
 15  1  1  0  0  0  0
 16  2  2  0  0  0  0
 18  6  2  0  0  0  0
 20 19  1  0  0  0  0
 21 17  1  6  0  0  0
 21  3  1  0  0  0  0
 21 15  1  0  0  0  0
 22 26  1  0  0  0  0
 23 27  1  0  0  0  0
 24 23  1  0  0  0  0
 25 24  1  0  0  0  0
 25 22  1  0  0  0  0
 26 27  1  0  0  0  0
M  END
>  <MODEL>
4

>  <REMARK>
 VINA RESULT:      -5.2      2.280      4.665
  Name = 
  1 active torsions:
  status: ('A' for Active; 'I' for Inactive)
    1  A    between atoms: C_9  and  N_15
                            x       y       z     vdW  Elec       q    Type
                         _______ _______ _______ _____ _____    ______ ____

>  <TORSDO>
F 1

$$$$
=
 OpenBabel11052423073D

 27 31  0  0  1  0  0  0  0  0999 V2000
  158.5820  212.1520  152.6180 C   0  0  0  0  0  2  0  0  0  0  0  0
  160.5850  210.7980  151.8250 C   0  0  0  0  0  0  0  0  0  0  0  0
  159.2100  209.6170  153.6670 C   0  0  0  0  0  2  0  0  0  0  0  0
  162.6050  207.1770  151.3280 N   0  0  0  0  0  2  0  0  0  0  0  0
  161.2900  205.2130  151.6110 N   0  0  0  0  0  1  0  0  0  0  0  0
  161.5810  210.7010  150.8860 N   0  0  0  0  0  0  0  0  0  0  0  0
  160.9210  207.1530  153.0560 C   0  0  1  0  0  3  0  0  0  0  0  0
  158.3340  211.4530  156.8960 C   0  0  0  0  0  2  0  0  0  0  0  0
  161.3290  207.2590  154.5150 C   0  0  0  0  0  1  0  0  0  0  0  0
  159.3280  212.5730  157.2180 C   0  0  0  0  0  2  0  0  0  0  0  0
  161.0280  208.4860  152.3920 C   0  0  0  0  0  0  0  0  0  0  0  0
  159.8980  212.0670  151.9760 N   0  0  0  0  0  0  0  0  0  0  0  0
  161.9630  206.2970  152.3040 C   0  0  2  0  0  3  0  0  0  0  0  0
  161.9950  208.4440  151.4360 C   0  0  0  0  0  0  0  0  0  0  0  0
  158.6660  212.0380  154.1420 C   0  0  2  0  0  3  0  0  0  0  0  0
  160.2810  209.6500  152.6200 C   0  0  0  0  0  0  0  0  0  0  0  0
  158.9200  210.3280  156.0360 C   0  0  0  0  0  2  0  0  0  0  0  0
  162.2890  209.5580  150.6670 C   0  0  0  0  0  3  0  0  0  0  0  0
  159.1990  213.3380  154.7700 C   0  0  0  0  0  2  0  0  0  0  0  0
  160.0810  213.1270  156.0040 C   0  0  0  0  0  2  0  0  0  0  0  0
  159.3840  210.7690  154.6400 C   0  0  1  0  0  3  0  0  0  0  0  0
  158.9350  214.4000  149.0540 O   0  0  0  0  0  0  0  0  0  0  0  0
  160.4120  213.2160  151.2090 C   0  0  0  0  0  3  0  0  0  0  0  0
  159.5230  214.4530  151.3820 C   0  0  0  0  0  2  0  0  0  0  0  0
  158.3960  214.4480  150.3500 C   0  0  0  0  0  2  0  0  0  0  0  0
  159.4420  213.1010  148.8840 C   0  0  0  0  0  2  0  0  0  0  0  0
  160.7070  212.9190  149.7270 C   0  0  0  0  0  2  0  0  0  0  0  0
  2 12  1  0  0  0  0
  2 16  1  0  0  0  0
  4 14  1  0  0  0  0
  4 13  1  0  0  0  0
  6  2  2  0  0  0  0
  7  9  1  1  0  0  0
  8 10  1  0  0  0  0
 11 16  2  0  0  0  0
 11  7  1  0  0  0  0
 12  1  1  0  0  0  0
 13  5  1  6  0  0  0
 13  7  1  0  0  0  0
 14 11  1  0  0  0  0
 15  1  1  6  0  0  0
 15 21  1  0  0  0  0
 15 19  1  0  0  0  0
 16  3  1  0  0  0  0
 17  8  1  0  0  0  0
 18  6  1  0  0  0  0
 18 14  2  0  0  0  0
 19 20  1  0  0  0  0
 20 10  1  0  0  0  0
 21  3  1  6  0  0  0
 21 17  1  0  0  0  0
 22 25  1  0  0  0  0
 23 24  1  0  0  0  0
 23 12  1  0  0  0  0
 25 24  1  0  0  0  0
 26 22  1  0  0  0  0
 26 27  1  0  0  0  0
 27 23  1  0  0  0  0
M  END
>  <MODEL>
5

>  <REMARK>
 VINA RESULT:      -5.1      1.887      2.847
  Name = 
  1 active torsions:
  status: ('A' for Active; 'I' for Inactive)
    1  A    between atoms: C_9  and  N_15
                            x       y       z     vdW  Elec       q    Type
                         _______ _______ _______ _____ _____    ______ ____

>  <TORSDO>
F 1

$$$$
=
 OpenBabel11052423073D

 27 31  0  0  1  0  0  0  0  0999 V2000
  162.9130  206.3150  150.7280 C   0  0  0  0  0  2  0  0  0  0  0  0
  161.4790  208.1920  151.6750 C   0  0  0  0  0  0  0  0  0  0  0  0
  161.8400  206.2380  153.3280 C   0  0  0  0  0  2  0  0  0  0  0  0
  159.8640  210.3130  154.8900 N   0  0  0  0  0  2  0  0  0  0  0  0
  160.8750  209.9110  157.0060 N   0  0  0  0  0  1  0  0  0  0  0  0
  161.0240  209.4710  151.4820 N   0  0  0  0  0  0  0  0  0  0  0  0
  160.5670  208.0680  155.4260 C   0  0  1  0  0  3  0  0  0  0  0  0
  161.1600  202.6430  152.2420 C   0  0  0  0  0  2  0  0  0  0  0  0
  159.5360  206.9600  155.5520 C   0  0  0  0  0  1  0  0  0  0  0  0
  160.1450  202.5610  151.0980 C   0  0  0  0  0  2  0  0  0  0  0  0
  160.7950  208.4020  153.9880 C   0  0  0  0  0  0  0  0  0  0  0  0
  162.0370  207.4780  150.5420 N   0  0  0  0  0  0  0  0  0  0  0  0
  159.9750  209.3720  156.0030 C   0  0  2  0  0  3  0  0  0  0  0  0
  160.3740  209.6710  153.7420 C   0  0  0  0  0  0  0  0  0  0  0  0
  162.1370  205.0540  151.1150 C   0  0  2  0  0  3  0  0  0  0  0  0
  161.3690  207.6170  152.9790 C   0  0  0  0  0  0  0  0  0  0  0  0
  161.0190  203.8970  153.1120 C   0  0  0  0  0  2  0  0  0  0  0  0
  160.4800  210.2270  152.4770 C   0  0  0  0  0  3  0  0  0  0  0  0
  161.3930  204.4630  149.9050 C   0  0  0  0  0  2  0  0  0  0  0  0
  160.0400  203.8300  150.2450 C   0  0  0  0  0  2  0  0  0  0  0  0
  161.2530  205.2190  152.3670 C   0  0  1  0  0  3  0  0  0  0  0  0
  161.6380  206.6110  146.8010 O   0  0  0  0  0  0  0  0  0  0  0  0
  161.9480  208.1220  149.2190 C   0  0  0  0  0  3  0  0  0  0  0  0
  160.5880  207.8670  148.5590 C   0  0  0  0  0  2  0  0  0  0  0  0
  160.6170  206.5610  147.7650 C   0  0  0  0  0  2  0  0  0  0  0  0
  162.8510  206.5100  147.5030 C   0  0  0  0  0  2  0  0  0  0  0  0
  163.1200  207.8060  148.2720 C   0  0  0  0  0  2  0  0  0  0  0  0
  1 15  1  0  0  0  0
  2 16  1  0  0  0  0
  4 13  1  0  0  0  0
  6  2  2  0  0  0  0
  6 18  1  0  0  0  0
  7  9  1  6  0  0  0
  7 13  1  0  0  0  0
  8 17  1  0  0  0  0
 10  8  1  0  0  0  0
 11  7  1  0  0  0  0
 12  1  1  0  0  0  0
 12  2  1  0  0  0  0
 13  5  1  1  0  0  0
 14 11  1  0  0  0  0
 14  4  1  0  0  0  0
 15 19  1  6  0  0  0
 15 21  1  0  0  0  0
 16  3  1  0  0  0  0
 16 11  2  0  0  0  0
 18 14  2  0  0  0  0
 19 20  1  0  0  0  0
 20 10  1  0  0  0  0
 21 17  1  1  0  0  0
 21  3  1  0  0  0  0
 22 26  1  0  0  0  0
 22 25  1  0  0  0  0
 23 12  1  0  0  0  0
 24 23  1  0  0  0  0
 25 24  1  0  0  0  0
 26 27  1  0  0  0  0
 27 23  1  0  0  0  0
M  END
>  <MODEL>
6

>  <REMARK>
 VINA RESULT:      -5.0      3.005      6.530
  Name = 
  1 active torsions:
  status: ('A' for Active; 'I' for Inactive)
    1  A    between atoms: C_9  and  N_15
                            x       y       z     vdW  Elec       q    Type
                         _______ _______ _______ _____ _____    ______ ____

>  <TORSDO>
F 1

$$$$
=
 OpenBabel11052423073D

 27 31  0  0  1  0  0  0  0  0999 V2000
  160.9020  211.3300  139.8120 C   0  0  0  0  0  2  0  0  0  0  0  0
  161.8190  212.4870  141.8840 C   0  0  0  0  0  0  0  0  0  0  0  0
  159.2590  212.1460  141.9450 C   0  0  0  0  0  2  0  0  0  0  0  0
  161.5400  213.5800  145.9050 N   0  0  0  0  0  2  0  0  0  0  0  0
  159.9120  212.4060  147.1850 N   0  0  0  0  0  1  0  0  0  0  0  0
  162.9540  212.8410  142.5700 N   0  0  0  0  0  0  0  0  0  0  0  0
  159.4310  213.0350  144.8690 C   0  0  1  0  0  3  0  0  0  0  0  0
  157.0950  213.2530  139.0020 C   0  0  0  0  0  2  0  0  0  0  0  0
  158.4910  214.1450  144.4320 C   0  0  0  0  0  1  0  0  0  0  0  0
  157.7450  214.3790  138.1920 C   0  0  0  0  0  2  0  0  0  0  0  0
  160.5740  212.9200  143.9150 C   0  0  0  0  0  0  0  0  0  0  0  0
  161.9450  212.1110  140.4890 N   0  0  0  0  0  0  0  0  0  0  0  0
  160.1130  213.4470  146.1920 C   0  0  2  0  0  3  0  0  0  0  0  0
  161.7320  213.2460  144.5480 C   0  0  0  0  0  0  0  0  0  0  0  0
  159.6780  212.1760  139.4530 C   0  0  2  0  0  3  0  0  0  0  0  0
  160.5670  212.5210  142.5710 C   0  0  0  0  0  0  0  0  0  0  0  0
  157.5520  213.1940  140.4640 C   0  0  0  0  0  2  0  0  0  0  0  0
  162.9460  213.2130  143.8800 C   0  0  0  0  0  3  0  0  0  0  0  0
  159.9630  213.0860  138.2450 C   0  0  0  0  0  2  0  0  0  0  0  0
  159.2710  214.4510  138.3080 C   0  0  0  0  0  2  0  0  0  0  0  0
  159.0510  212.9140  140.6520 C   0  0  1  0  0  3  0  0  0  0  0  0
  163.5920  213.5070  137.2880 O   0  0  0  0  0  0  0  0  0  0  0  0
  163.2660  212.2700  139.8550 C   0  0  0  0  0  3  0  0  0  0  0  0
  163.6310  213.7490  139.6770 C   0  0  0  0  0  2  0  0  0  0  0  0
  163.0880  214.2760  138.3500 C   0  0  0  0  0  2  0  0  0  0  0  0
  162.9390  212.2640  137.3550 C   0  0  0  0  0  2  0  0  0  0  0  0
  163.4550  211.4670  138.5550 C   0  0  0  0  0  2  0  0  0  0  0  0
  1 12  1  0  0  0  0
  2  6  2  0  0  0  0
  2 16  1  0  0  0  0
  3 16  1  0  0  0  0
  4 13  1  0  0  0  0
  6 18  1  0  0  0  0
  7  9  1  6  0  0  0
  7 13  1  0  0  0  0
  8 17  1  0  0  0  0
 10 20  1  0  0  0  0
 10  8  1  0  0  0  0
 11 14  1  0  0  0  0
 11  7  1  0  0  0  0
 12  2  1  0  0  0  0
 13  5  1  1  0  0  0
 14  4  1  0  0  0  0
 15 19  1  6  0  0  0
 15  1  1  0  0  0  0
 15 21  1  0  0  0  0
 16 11  2  0  0  0  0
 18 14  2  0  0  0  0
 19 20  1  0  0  0  0
 21 17  1  6  0  0  0
 21  3  1  0  0  0  0
 22 26  1  0  0  0  0
 22 25  1  0  0  0  0
 23 12  1  0  0  0  0
 24 23  1  0  0  0  0
 25 24  1  0  0  0  0
 26 27  1  0  0  0  0
 27 23  1  0  0  0  0
M  END
>  <MODEL>
7

>  <REMARK>
 VINA RESULT:      -4.9      9.651     13.280
  Name = 
  1 active torsions:
  status: ('A' for Active; 'I' for Inactive)
    1  A    between atoms: C_9  and  N_15
                            x       y       z     vdW  Elec       q    Type
                         _______ _______ _______ _____ _____    ______ ____

>  <TORSDO>
F 1

$$$$
=
 OpenBabel11052423073D

 27 31  0  0  1  0  0  0  0  0999 V2000
  160.4550  211.8070  155.1790 C   0  0  0  0  0  2  0  0  0  0  0  0
  161.0520  211.0270  152.8320 C   0  0  0  0  0  0  0  0  0  0  0  0
  159.5870  213.1560  152.8670 C   0  0  0  0  0  2  0  0  0  0  0  0
  161.5880  211.7390  148.7520 N   0  0  0  0  0  2  0  0  0  0  0  0
  161.7250  214.0260  148.1110 N   0  0  0  0  0  1  0  0  0  0  0  0
  161.8230  210.1680  152.0900 N   0  0  0  0  0  0  0  0  0  0  0  0
  160.1660  213.3370  149.8670 C   0  0  1  0  0  3  0  0  0  0  0  0
  156.3680  213.2490  154.9160 C   0  0  0  0  0  2  0  0  0  0  0  0
  158.6570  213.2420  149.7210 C   0  0  0  0  0  1  0  0  0  0  0  0
  155.7770  211.8530  155.1360 C   0  0  0  0  0  2  0  0  0  0  0  0
  160.6630  212.2800  150.7970 C   0  0  0  0  0  0  0  0  0  0  0  0
  160.8830  210.7570  154.2470 N   0  0  0  0  0  0  0  0  0  0  0  0
  160.8250  212.9640  148.5210 C   0  0  2  0  0  3  0  0  0  0  0  0
  161.4500  211.4050  150.1160 C   0  0  0  0  0  0  0  0  0  0  0  0
  158.9580  212.1050  155.0770 C   0  0  2  0  0  3  0  0  0  0  0  0
  160.4390  212.1370  152.1730 C   0  0  0  0  0  0  0  0  0  0  0  0
  157.2340  213.3670  153.6570 C   0  0  0  0  0  2  0  0  0  0  0  0
  162.0420  210.3280  150.7560 C   0  0  0  0  0  3  0  0  0  0  0  0
  158.1220  210.9970  155.7410 C   0  0  0  0  0  2  0  0  0  0  0  0
  156.7900  210.7080  155.0400 C   0  0  0  0  0  2  0  0  0  0  0  0
  158.4850  212.4740  153.6580 C   0  0  1  0  0  3  0  0  0  0  0  0
  160.2200  208.0860  156.9560 O   0  0  0  0  0  0  0  0  0  0  0  0
  161.4340  209.4950  154.7720 C   0  0  0  0  0  3  0  0  0  0  0  0
  160.4570  208.3290  154.5780 C   0  0  0  0  0  2  0  0  0  0  0  0
  159.4950  208.2370  155.7620 C   0  0  0  0  0  2  0  0  0  0  0  0
  160.8230  209.3290  157.2130 C   0  0  0  0  0  2  0  0  0  0  0  0
  161.9590  209.5750  156.2170 C   0  0  0  0  0  2  0  0  0  0  0  0
  2 12  1  0  0  0  0
  4 14  1  0  0  0  0
  6  2  2  0  0  0  0
  7  9  1  6  0  0  0
  7 11  1  0  0  0  0
  8 10  1  0  0  0  0
 11 16  2  0  0  0  0
 12 23  1  0  0  0  0
 12  1  1  0  0  0  0
 13  5  1  1  0  0  0
 13  4  1  0  0  0  0
 13  7  1  0  0  0  0
 14 18  2  0  0  0  0
 14 11  1  0  0  0  0
 15  1  1  6  0  0  0
 15 19  1  0  0  0  0
 16  2  1  0  0  0  0
 16  3  1  0  0  0  0
 17 21  1  0  0  0  0
 17  8  1  0  0  0  0
 18  6  1  0  0  0  0
 20 10  1  0  0  0  0
 20 19  1  0  0  0  0
 21  3  1  1  0  0  0
 21 15  1  0  0  0  0
 22 26  1  0  0  0  0
 23 27  1  0  0  0  0
 24 23  1  0  0  0  0
 24 25  1  0  0  0  0
 25 22  1  0  0  0  0
 27 26  1  0  0  0  0
M  END
>  <MODEL>
8

>  <REMARK>
 VINA RESULT:      -4.7      2.689      5.306
  Name = 
  1 active torsions:
  status: ('A' for Active; 'I' for Inactive)
    1  A    between atoms: C_9  and  N_15
                            x       y       z     vdW  Elec       q    Type
                         _______ _______ _______ _____ _____    ______ ____

>  <TORSDO>
F 1

$$$$
=
 OpenBabel11052423073D

 27 31  0  0  1  0  0  0  0  0999 V2000
  162.6330  209.7920  152.0460 C   0  0  0  0  0  2  0  0  0  0  0  0
  161.3760  207.6340  151.5590 C   0  0  0  0  0  0  0  0  0  0  0  0
  162.4420  208.7000  149.4600 C   0  0  0  0  0  2  0  0  0  0  0  0
  160.6320  204.2730  149.1950 N   0  0  0  0  0  2  0  0  0  0  0  0
  162.2910  203.7670  147.5660 N   0  0  0  0  0  1  0  0  0  0  0  0
  160.7490  206.5440  152.1090 N   0  0  0  0  0  0  0  0  0  0  0  0
  161.7020  206.0960  148.0320 C   0  0  1  0  0  3  0  0  0  0  0  0
  161.8440  212.3820  148.6520 C   0  0  0  0  0  2  0  0  0  0  0  0
  160.8870  206.9990  147.1230 C   0  0  0  0  0  1  0  0  0  0  0  0
  160.5360  212.9060  149.2540 C   0  0  0  0  0  2  0  0  0  0  0  0
  161.4310  206.4220  149.4640 C   0  0  0  0  0  0  0  0  0  0  0  0
  161.6240  208.7870  152.4030 N   0  0  0  0  0  0  0  0  0  0  0  0
  161.1850  204.6480  147.8940 C   0  0  2  0  0  3  0  0  0  0  0  0
  160.8220  205.3660  150.0660 C   0  0  0  0  0  0  0  0  0  0  0  0
  162.1560  210.7310  150.9360 C   0  0  2  0  0  3  0  0  0  0  0  0
  161.7410  207.5870  150.1780 C   0  0  0  0  0  0  0  0  0  0  0  0
  161.8490  210.8710  148.3940 C   0  0  0  0  0  2  0  0  0  0  0  0
  160.4670  205.4130  151.4040 C   0  0  0  0  0  3  0  0  0  0  0  0
  161.1380  211.7550  151.4690 C   0  0  0  0  0  2  0  0  0  0  0  0
  160.0350  212.1240  150.4720 C   0  0  0  0  0  2  0  0  0  0  0  0
  161.6960  210.0080  149.6550 C   0  0  1  0  0  3  0  0  0  0  0  0
  160.6420  211.1740  155.2750 O   0  0  0  0  0  0  0  0  0  0  0  0
  161.0570  208.7720  153.7640 C   0  0  0  0  0  3  0  0  0  0  0  0
  159.7110  209.5030  153.8220 C   0  0  0  0  0  2  0  0  0  0  0  0
  159.9250  210.9950  154.0800 C   0  0  0  0  0  2  0  0  0  0  0  0
  161.9610  210.7690  155.0100 C   0  0  0  0  0  2  0  0  0  0  0  0
  162.0220  209.2460  154.8660 C   0  0  0  0  0  2  0  0  0  0  0  0
  1 12  1  0  0  0  0
  2  6  1  0  0  0  0
  2 12  1  0  0  0  0
  3 21  1  0  0  0  0
  3 16  1  0  0  0  0
  4 14  1  0  0  0  0
  7  9  1  6  0  0  0
  7 11  1  0  0  0  0
  8 10  1  0  0  0  0
 10 20  1  0  0  0  0
 11 14  2  0  0  0  0
 11 16  1  0  0  0  0
 12 23  1  0  0  0  0
 13  5  1  1  0  0  0
 13  7  1  0  0  0  0
 13  4  1  0  0  0  0
 14 18  1  0  0  0  0
 15 19  1  1  0  0  0
 15  1  1  0  0  0  0
 16  2  2  0  0  0  0
 17  8  1  0  0  0  0
 18  6  2  0  0  0  0
 20 19  1  0  0  0  0
 21 17  1  6  0  0  0
 21 15  1  0  0  0  0
 23 24  1  0  0  0  0
 23 27  1  0  0  0  0
 24 25  1  0  0  0  0
 25 22  1  0  0  0  0
 26 22  1  0  0  0  0
 27 26  1  0  0  0  0
M  END
>  <MODEL>
9

>  <REMARK>
 VINA RESULT:      -4.5      2.165      4.964
  Name = 
  1 active torsions:
  status: ('A' for Active; 'I' for Inactive)
    1  A    between atoms: C_9  and  N_15
                            x       y       z     vdW  Elec       q    Type
                         _______ _______ _______ _____ _____    ______ ____

>  <TORSDO>
F 1

$$$$
