=
 OpenBabel11052421593D

 30 36  0  0  1  0  0  0  0  0999 V2000
  161.8180  211.2810  149.4720 C   0  0  0  0  0  0  0  0  0  0  0  0
  162.4380  212.7970  147.5360 C   0  0  1  0  0  3  0  0  0  0  0  0
  159.5560  213.9180  149.5460 C   0  0  0  0  0  2  0  0  0  0  0  0
  161.5690  211.1420  150.7930 C   0  0  0  0  0  0  0  0  0  0  0  0
  161.9780  210.1120  148.6550 N   0  0  0  0  0  0  0  0  0  0  0  0
  160.9100  207.1640  150.7370 S   0  0  0  0  0  0  0  0  0  0  0  0
  161.6650  210.1210  153.8550 C   0  0  1  0  0  3  0  0  0  0  0  0
  161.9420  208.6660  150.6230 C   0  0  1  0  0  3  0  0  0  0  0  0
  161.9020  207.7730  148.3460 N   0  0  0  0  0  2  0  0  0  0  0  0
  158.9180  211.5240  152.6330 C   0  0  0  0  0  2  0  0  0  0  0  0
  158.8380  213.3420  150.7830 C   0  0  2  0  0  3  0  0  0  0  0  0
  162.0310  208.9200  149.1610 C   0  0  0  0  0  0  0  0  0  0  0  0
  161.3940  209.8240  151.3540 N   0  0  0  0  0  0  0  0  0  0  0  0
  162.0960  214.1320  146.8890 C   0  0  0  0  0  2  0  0  0  0  0  0
  159.3910  210.1090  153.0580 C   0  0  2  0  0  3  0  0  0  0  0  0
  160.8150  210.4750  154.9320 O   0  0  0  0  0  0  0  0  0  0  0  0
  160.5320  205.8370  148.4210 N   0  0  0  0  0  1  0  0  0  0  0  0
  163.7930  212.7850  147.8690 O   0  0  0  0  0  1  0  0  0  0  0  0
  160.0740  212.8520  148.5740 C   0  0  2  0  0  3  0  0  0  0  0  0
  160.6220  214.2310  146.4750 C   0  0  0  0  0  2  0  0  0  0  0  0
  161.5540  206.5960  149.1190 C   0  0  2  0  0  3  0  0  0  0  0  0
  161.5890  212.6130  148.7970 C   0  0  1  0  0  3  0  0  0  0  0  0
  161.0230  212.2920  151.5470 C   0  0  0  0  0  2  0  0  0  0  0  0
  158.6780  214.4440  151.8170 C   0  0  0  0  0  1  0  0  0  0  0  0
  159.5370  212.1080  151.3740 C   0  0  1  0  0  3  0  0  0  0  0  0
  159.4760  210.1930  154.5660 C   0  0  0  0  0  2  0  0  0  0  0  0
  161.5460  208.6300  153.5760 C   0  0  0  0  0  2  0  0  0  0  0  0
  159.6910  213.2010  147.1300 C   0  0  1  0  0  3  0  0  0  0  0  0
  159.6190  211.9420  146.2850 C   0  0  0  0  0  1  0  0  0  0  0  0
  160.8130  209.6520  152.7050 C   0  0  2  0  0  0  0  0  0  0  0  0
  1  4  2  0  0  0  0
  2 18  1  1  0  0  0
  2 22  1  0  0  0  0
  3 11  1  0  0  0  0
  4 13  1  0  0  0  0
  4 23  1  0  0  0  0
  5 12  2  0  0  0  0
  5  1  1  0  0  0  0
  7 27  1  1  0  0  0
  7 16  1  0  0  0  0
  8 12  1  6  0  0  0
  8  6  1  0  0  0  0
  8 13  1  0  0  0  0
  9 21  1  0  0  0  0
  9 12  1  0  0  0  0
 11 25  1  0  0  0  0
 11 24  1  1  0  0  0
 13 30  1  0  0  0  0
 14  2  1  0  0  0  0
 15 10  1  6  0  0  0
 15 26  1  0  0  0  0
 19 22  1  0  0  0  0
 19  3  1  1  0  0  0
 20 14  1  0  0  0  0
 20 28  1  0  0  0  0
 21 17  1  6  0  0  0
 21  6  1  0  0  0  0
 22  1  1  6  0  0  0
 25 23  1  1  0  0  0
 25 10  1  0  0  0  0
 26 16  1  0  0  0  0
 28 29  1  6  0  0  0
 28 19  1  0  0  0  0
 30 15  1  0  0  0  0
 30 27  1  1  0  0  0
 30  7  1  0  0  0  0
M  END
>  <MODEL>
1

>  <REMARK>
 VINA RESULT:      -5.3      0.000      0.000
  Name = 
  0 active torsions:
  status: ('A' for Active; 'I' for Inactive)
                            x       y       z     vdW  Elec       q    Type
                         _______ _______ _______ _____ _____    ______ ____

>  <TORSDO>
F 0

$$$$
