=
 OpenBabel11062410073D

 43 49  0  0  1  0  0  0  0  0999 V2000
  162.4470  208.9380  149.9960 C   0  0  0  0  0  3  0  0  0  0  0  0
  162.3290  208.2640  151.3300 C   0  0  1  0  0  3  0  0  0  0  0  0
  161.9590  210.1710  149.8250 C   0  0  0  0  0  3  0  0  0  0  0  0
  162.6840  209.2880  152.4130 C   0  0  0  0  0  2  0  0  0  0  0  0
  161.8080  210.5680  152.3630 C   0  0  1  0  0  3  0  0  0  0  0  0
  161.2390  210.8680  150.9490 C   0  0  0  0  0  2  0  0  0  0  0  0
  160.9760  207.7560  151.5180 N   0  0  0  0  0  2  0  0  0  0  0  0
  159.7240  205.8860  150.8990 O   0  0  0  0  0  0  0  0  0  0  0  0
  160.6660  206.0450  149.8660 C   0  0  1  0  0  3  0  0  0  0  0  0
  161.0060  206.3240  151.2780 C   0  0  1  0  0  3  0  0  0  0  0  0
  161.2230  204.6870  149.4700 C   0  0  2  0  0  3  0  0  0  0  0  0
  161.5220  204.6570  148.0030 C   0  0  0  0  0  0  0  0  0  0  0  0
  162.3380  205.7270  145.9830 C   0  0  0  0  0  3  0  0  0  0  0  0
  161.6310  203.4120  145.9250 C   0  0  0  0  0  3  0  0  0  0  0  0
  162.1340  204.5410  145.2720 C   0  0  0  0  0  3  0  0  0  0  0  0
  161.3290  203.4700  147.2880 C   0  0  0  0  0  3  0  0  0  0  0  0
  162.0360  205.7860  147.3470 C   0  0  0  0  0  3  0  0  0  0  0  0
  160.3060  203.6780  149.8040 O   0  0  0  0  0  0  0  0  0  0  0  0
  161.0180  202.6950  150.5090 C   0  0  1  0  0  0  0  0  0  0  0  0
  160.6810  202.5950  151.9330 N   0  0  0  0  0  2  0  0  0  0  0  0
  161.2780  201.4650  149.8980 O   0  0  0  0  0  1  0  0  0  0  0  0
  161.9780  203.1560  151.4930 C   0  0  0  0  0  2  0  0  0  0  0  0
  160.7200  210.5030  153.3560 N   0  0  0  0  0  0  0  0  0  0  0  0
  160.4380  207.4310  156.6620 S   0  0  1  0  0  0  0  0  0  0  0  0
  160.9770  209.8860  155.7100 N   0  0  0  0  0  0  0  0  0  0  0  0
  160.3810  207.0080  154.9190 C   0  0  0  0  0  2  0  0  0  0  0  0
  161.3190  206.3430  157.2600 O   0  0  0  0  0  0  0  0  0  0  0  0
  160.9630  209.3990  154.3140 C   0  0  1  0  0  3  0  0  0  0  0  0
  161.5270  208.8620  156.6020 C   0  0  0  0  0  2  0  0  0  0  0  0
  159.9660  208.2340  154.1250 C   0  0  0  0  0  2  0  0  0  0  0  0
  163.2760  210.7830  156.1600 C   0  0  0  0  0  1  0  0  0  0  0  0
  161.8090  211.0910  155.8570 C   0  0  0  0  0  2  0  0  0  0  0  0
  159.4320  210.3080  152.6810 C   0  0  0  0  0  2  0  0  0  0  0  0
  159.2650  212.5970  153.6330 C   0  0  0  0  0  2  0  0  0  0  0  0
  158.6770  211.6270  152.6140 C   0  0  2  0  0  3  0  0  0  0  0  0
  157.2800  211.3930  156.1940 C   0  0  0  0  0  3  0  0  0  0  0  0
  156.6060  212.7500  156.2820 C   0  0  1  0  0  3  0  0  0  0  0  0
  156.7770  212.9050  153.8070 C   0  0  0  0  0  3  0  0  0  0  0  0
  157.9320  211.0200  155.0830 C   0  0  0  0  0  3  0  0  0  0  0  0
  157.9280  211.9480  153.8980 C   0  0  2  0  0  0  0  0  0  0  0  0
  156.1400  213.2550  154.9350 C   0  0  0  0  0  3  0  0  0  0  0  0
  154.7010  211.4050  157.1750 C   0  0  0  0  0  1  0  0  0  0  0  0
  155.4440  212.7250  157.2600 C   0  0  0  0  0  2  0  0  0  0  0  0
  1  2  1  0  0  0  0
  2  7  1  1  0  0  0
  2  4  1  0  0  0  0
  3  1  2  0  0  0  0
  3  6  1  0  0  0  0
  5  4  1  0  0  0  0
  5 23  1  1  0  0  0
  6  5  1  0  0  0  0
  8 10  1  0  0  0  0
  9 11  1  1  0  0  0
  9  8  1  0  0  0  0
  9 10  1  0  0  0  0
 10  7  1  6  0  0  0
 11 18  1  6  0  0  0
 12 11  1  0  0  0  0
 13 17  2  0  0  0  0
 14 16  1  0  0  0  0
 15 14  2  0  0  0  0
 15 13  1  0  0  0  0
 16 12  2  0  0  0  0
 17 12  1  0  0  0  0
 18 19  1  0  0  0  0
 19 21  1  6  0  0  0
 19 22  1  0  0  0  0
 19 20  1  0  0  0  0
 22 20  1  0  0  0  0
 24 27  2  1  0  0  0
 25 32  1  0  0  0  0
 25 29  1  0  0  0  0
 26 24  1  0  0  0  0
 28 23  1  6  0  0  0
 28 25  1  0  0  0  0
 29 24  1  0  0  0  0
 30 28  1  0  0  0  0
 30 26  1  0  0  0  0
 32 31  1  0  0  0  0
 33 23  1  0  0  0  0
 35 33  1  1  0  0  0
 35 34  1  0  0  0  0
 35 40  1  0  0  0  0
 36 37  1  0  0  0  0
 37 43  1  1  0  0  0
 38 40  1  0  0  0  0
 38 41  2  0  0  0  0
 39 36  2  0  0  0  0
 40 34  1  1  0  0  0
 40 39  1  0  0  0  0
 41 37  1  0  0  0  0
 42 43  1  0  0  0  0
M  END
>  <MODEL>
1

>  <REMARK>
 VINA RESULT:      -5.1      0.000      0.000
  Name = 
  12 active torsions:
  status: ('A' for Active; 'I' for Inactive)
    1  A    between atoms: C_4  and  C_14
    2  A    between atoms: C_6  and  N_17
    3  A    between atoms: C_8  and  C_34
    4  A    between atoms: C_10  and  O_41
    5  A    between atoms: C_11  and  C_14
    6  A    between atoms: C_12  and  N_17
    7  A    between atoms: C_14  and  O_41
    8  A    between atoms: N_16  and  C_43
    9  A    between atoms: C_19  and  C_37
   10  A    between atoms: C_21  and  N_30
   11  A    between atoms: C_27  and  N_30
   12  A    between atoms: N_30  and  C_34
                            x       y       z     vdW  Elec       q    Type
                         _______ _______ _______ _____ _____    ______ ____

>  <TORSDO>
F 12

$$$$
=
 OpenBabel11062410073D

 43 49  0  0  1  0  0  0  0  0999 V2000
  163.1370  212.4450  147.5670 C   0  0  0  0  0  3  0  0  0  0  0  0
  162.3810  211.7360  148.6500 C   0  0  1  0  0  3  0  0  0  0  0  0
  162.7010  213.6240  147.1110 C   0  0  0  0  0  3  0  0  0  0  0  0
  161.9870  212.7690  149.7110 C   0  0  0  0  0  2  0  0  0  0  0  0
  161.1580  213.9500  149.1440 C   0  0  1  0  0  3  0  0  0  0  0  0
  161.4220  214.2190  147.6370 C   0  0  0  0  0  2  0  0  0  0  0  0
  161.2010  211.0850  148.0940 N   0  0  0  0  0  2  0  0  0  0  0  0
  162.7520  209.3820  148.4690 O   0  0  0  0  0  0  0  0  0  0  0  0
  161.5640  208.9240  149.0690 C   0  0  1  0  0  3  0  0  0  0  0  0
  161.5510  209.7040  147.8120 C   0  0  1  0  0  3  0  0  0  0  0  0
  161.3690  207.4500  148.7520 C   0  0  2  0  0  3  0  0  0  0  0  0
  161.3480  206.6470  150.0160 C   0  0  0  0  0  0  0  0  0  0  0  0
  160.8450  204.6000  151.2200 C   0  0  0  0  0  3  0  0  0  0  0  0
  161.9190  206.4460  152.3640 C   0  0  0  0  0  3  0  0  0  0  0  0
  161.3900  205.1520  152.3850 C   0  0  0  0  0  3  0  0  0  0  0  0
  161.9000  207.1890  151.1810 C   0  0  0  0  0  3  0  0  0  0  0  0
  160.8270  205.3450  150.0370 C   0  0  0  0  0  3  0  0  0  0  0  0
  162.3920  207.0030  147.9030 O   0  0  0  0  0  0  0  0  0  0  0  0
  161.7940  206.1730  146.9420 C   0  0  1  0  0  0  0  0  0  0  0  0
  162.2770  204.7870  146.9420 N   0  0  0  0  0  2  0  0  0  0  0  0
  160.4270  206.3000  146.6820 O   0  0  0  0  0  1  0  0  0  0  0  0
  162.6320  205.7200  145.8490 C   0  0  0  0  0  2  0  0  0  0  0  0
  159.7180  213.7510  149.3910 N   0  0  0  0  0  0  0  0  0  0  0  0
  158.4900  211.5300  153.1330 S   0  0  1  0  0  0  0  0  0  0  0  0
  158.0490  213.2380  151.1060 N   0  0  0  0  0  0  0  0  0  0  0  0
  160.1920  211.6560  152.5760 C   0  0  0  0  0  2  0  0  0  0  0  0
  158.5960  211.7260  154.6390 O   0  0  0  0  0  0  0  0  0  0  0  0
  159.4920  213.3040  150.7850 C   0  0  1  0  0  3  0  0  0  0  0  0
  157.8540  213.1090  152.5510 C   0  0  0  0  0  2  0  0  0  0  0  0
  160.2060  211.9700  151.0910 C   0  0  0  0  0  2  0  0  0  0  0  0
  155.9400  214.1750  150.1210 C   0  0  0  0  0  1  0  0  0  0  0  0
  157.3400  214.4530  150.6720 C   0  0  0  0  0  2  0  0  0  0  0  0
  159.1770  212.7620  148.4520 C   0  0  0  0  0  2  0  0  0  0  0  0
  157.4990  212.3760  146.6600 C   0  0  0  0  0  2  0  0  0  0  0  0
  158.2290  213.4390  147.4730 C   0  0  2  0  0  3  0  0  0  0  0  0
  160.0360  212.1630  144.3220 C   0  0  0  0  0  3  0  0  0  0  0  0
  159.0780  212.6790  143.2650 C   0  0  1  0  0  3  0  0  0  0  0  0
  158.0950  214.1650  144.9990 C   0  0  0  0  0  3  0  0  0  0  0  0
  159.8000  212.3730  145.6260 C   0  0  0  0  0  3  0  0  0  0  0  0
  158.5980  213.1890  146.0190 C   0  0  2  0  0  0  0  0  0  0  0  0
  158.3510  213.9320  143.7030 C   0  0  0  0  0  3  0  0  0  0  0  0
  160.5450  211.6840  141.5080 C   0  0  0  0  0  1  0  0  0  0  0  0
  159.7920  212.9250  141.9470 C   0  0  0  0  0  2  0  0  0  0  0  0
  1  2  1  0  0  0  0
  2  7  1  6  0  0  0
  2  4  1  0  0  0  0
  3  1  2  0  0  0  0
  3  6  1  0  0  0  0
  5 23  1  6  0  0  0
  5  4  1  0  0  0  0
  6  5  1  0  0  0  0
  8  9  1  0  0  0  0
  9 11  1  6  0  0  0
 10  7  1  1  0  0  0
 10  8  1  0  0  0  0
 10  9  1  0  0  0  0
 11 18  1  6  0  0  0
 11 12  1  0  0  0  0
 12 17  2  0  0  0  0
 12 16  1  0  0  0  0
 13 15  2  0  0  0  0
 14 15  1  0  0  0  0
 16 14  2  0  0  0  0
 17 13  1  0  0  0  0
 19 21  1  6  0  0  0
 19 20  1  0  0  0  0
 19 18  1  0  0  0  0
 22 19  1  0  0  0  0
 22 20  1  0  0  0  0
 24 27  2  1  0  0  0
 25 29  1  0  0  0  0
 26 24  1  0  0  0  0
 28 23  1  6  0  0  0
 28 30  1  0  0  0  0
 28 25  1  0  0  0  0
 29 24  1  0  0  0  0
 30 26  1  0  0  0  0
 31 32  1  0  0  0  0
 32 25  1  0  0  0  0
 33 23  1  0  0  0  0
 34 35  1  0  0  0  0
 35 33  1  1  0  0  0
 36 39  2  0  0  0  0
 37 43  1  6  0  0  0
 37 41  1  0  0  0  0
 37 36  1  0  0  0  0
 39 40  1  0  0  0  0
 40 38  1  6  0  0  0
 40 34  1  0  0  0  0
 40 35  1  0  0  0  0
 41 38  2  0  0  0  0
 42 43  1  0  0  0  0
M  END
>  <MODEL>
2

>  <REMARK>
 VINA RESULT:      -4.9      4.482      7.331
  Name = 
  12 active torsions:
  status: ('A' for Active; 'I' for Inactive)
    1  A    between atoms: C_4  and  C_14
    2  A    between atoms: C_6  and  N_17
    3  A    between atoms: C_8  and  C_34
    4  A    between atoms: C_10  and  O_41
    5  A    between atoms: C_11  and  C_14
    6  A    between atoms: C_12  and  N_17
    7  A    between atoms: C_14  and  O_41
    8  A    between atoms: N_16  and  C_43
    9  A    between atoms: C_19  and  C_37
   10  A    between atoms: C_21  and  N_30
   11  A    between atoms: C_27  and  N_30
   12  A    between atoms: N_30  and  C_34
                            x       y       z     vdW  Elec       q    Type
                         _______ _______ _______ _____ _____    ______ ____

>  <TORSDO>
F 12

$$$$
=
 OpenBabel11062410073D

 43 49  0  0  1  0  0  0  0  0999 V2000
  162.3580  210.5670  149.0500 C   0  0  0  0  0  3  0  0  0  0  0  0
  162.4390  209.6470  150.2310 C   0  0  1  0  0  3  0  0  0  0  0  0
  161.6600  211.7040  149.1370 C   0  0  0  0  0  3  0  0  0  0  0  0
  162.6840  210.4980  151.4820 C   0  0  0  0  0  2  0  0  0  0  0  0
  161.6040  211.5890  151.7060 C   0  0  1  0  0  3  0  0  0  0  0  0
  160.9050  212.0410  150.3950 C   0  0  0  0  0  2  0  0  0  0  0  0
  161.2040  208.8810  150.3570 N   0  0  0  0  0  2  0  0  0  0  0  0
  162.4430  207.6590  148.8020 O   0  0  0  0  0  0  0  0  0  0  0  0
  161.7990  206.6880  149.5910 C   0  0  1  0  0  3  0  0  0  0  0  0
  161.1400  207.9620  149.2340 C   0  0  1  0  0  3  0  0  0  0  0  0
  161.2690  205.5760  148.7000 C   0  0  2  0  0  3  0  0  0  0  0  0
  161.0940  204.3170  149.4910 C   0  0  0  0  0  0  0  0  0  0  0  0
  160.7580  201.9160  149.6090 C   0  0  0  0  0  3  0  0  0  0  0  0
  161.0530  203.1990  151.6420 C   0  0  0  0  0  3  0  0  0  0  0  0
  160.8390  201.9730  151.0040 C   0  0  0  0  0  3  0  0  0  0  0  0
  161.1840  204.3670  150.8860 C   0  0  0  0  0  3  0  0  0  0  0  0
  160.8890  203.0850  148.8530 C   0  0  0  0  0  3  0  0  0  0  0  0
  162.1480  205.3630  147.6260 O   0  0  0  0  0  0  0  0  0  0  0  0
  161.4010  205.5220  146.4480 C   0  0  1  0  0  0  0  0  0  0  0  0
  161.3390  204.3290  145.5960 N   0  0  0  0  0  2  0  0  0  0  0  0
  160.2150  206.2600  146.4820 O   0  0  0  0  0  1  0  0  0  0  0  0
  162.1350  205.5120  145.1970 C   0  0  0  0  0  2  0  0  0  0  0  0
  160.6070  211.1490  152.7000 N   0  0  0  0  0  0  0  0  0  0  0  0
  160.7170  207.1680  154.8410 S   0  0  1  0  0  0  0  0  0  0  0  0
  160.9530  209.8430  154.7400 N   0  0  0  0  0  0  0  0  0  0  0  0
  160.6980  207.3240  153.0520 C   0  0  0  0  0  2  0  0  0  0  0  0
  161.7260  206.0550  155.0860 O   0  0  0  0  0  0  0  0  0  0  0  0
  160.9870  209.8320  153.2610 C   0  0  1  0  0  3  0  0  0  0  0  0
  161.6280  208.6580  155.2740 C   0  0  0  0  0  2  0  0  0  0  0  0
  160.1340  208.6830  152.6800 C   0  0  0  0  0  2  0  0  0  0  0  0
  160.9840  211.5660  156.5630 C   0  0  0  0  0  1  0  0  0  0  0  0
  161.6370  211.0250  155.2900 C   0  0  0  0  0  2  0  0  0  0  0  0
  159.2790  211.0670  152.0800 C   0  0  0  0  0  2  0  0  0  0  0  0
  159.1100  213.0970  153.5040 C   0  0  0  0  0  2  0  0  0  0  0  0
  158.5240  212.3690  152.2990 C   0  0  2  0  0  3  0  0  0  0  0  0
  157.1240  211.3680  155.7430 C   0  0  0  0  0  3  0  0  0  0  0  0
  156.4500  212.6730  156.1210 C   0  0  1  0  0  3  0  0  0  0  0  0
  156.6220  213.3590  153.7380 C   0  0  0  0  0  3  0  0  0  0  0  0
  157.7770  211.2440  154.5780 C   0  0  0  0  0  3  0  0  0  0  0  0
  157.7730  212.4060  153.6210 C   0  0  2  0  0  0  0  0  0  0  0  0
  155.9840  213.4580  154.9140 C   0  0  0  0  0  3  0  0  0  0  0  0
  154.8760  210.9780  157.0600 C   0  0  0  0  0  1  0  0  0  0  0  0
  155.2870  212.4380  157.0700 C   0  0  0  0  0  2  0  0  0  0  0  0
  1  3  2  0  0  0  0
  1  2  1  0  0  0  0
  2  7  1  1  0  0  0
  2  4  1  0  0  0  0
  3  6  1  0  0  0  0
  4  5  1  0  0  0  0
  5 23  1  1  0  0  0
  6  5  1  0  0  0  0
  8 10  1  0  0  0  0
  8  9  1  0  0  0  0
  9 11  1  6  0  0  0
 10  9  1  0  0  0  0
 10  7  1  1  0  0  0
 11 18  1  6  0  0  0
 11 12  1  0  0  0  0
 12 16  1  0  0  0  0
 13 15  2  0  0  0  0
 15 14  1  0  0  0  0
 16 14  2  0  0  0  0
 17 12  2  0  0  0  0
 17 13  1  0  0  0  0
 19 21  1  1  0  0  0
 19 18  1  0  0  0  0
 20 19  1  0  0  0  0
 22 20  1  0  0  0  0
 22 19  1  0  0  0  0
 24 27  2  6  0  0  0
 24 29  1  0  0  0  0
 25 29  1  0  0  0  0
 25 32  1  0  0  0  0
 26 24  1  0  0  0  0
 28 23  1  6  0  0  0
 28 25  1  0  0  0  0
 30 26  1  0  0  0  0
 30 28  1  0  0  0  0
 32 31  1  0  0  0  0
 33 23  1  0  0  0  0
 35 33  1  1  0  0  0
 35 34  1  0  0  0  0
 35 40  1  0  0  0  0
 36 37  1  0  0  0  0
 37 43  1  1  0  0  0
 38 41  2  0  0  0  0
 39 36  2  0  0  0  0
 40 34  1  1  0  0  0
 40 38  1  0  0  0  0
 40 39  1  0  0  0  0
 41 37  1  0  0  0  0
 42 43  1  0  0  0  0
M  END
>  <MODEL>
3

>  <REMARK>
 VINA RESULT:      -4.8      1.850      2.909
  Name = 
  12 active torsions:
  status: ('A' for Active; 'I' for Inactive)
    1  A    between atoms: C_4  and  C_14
    2  A    between atoms: C_6  and  N_17
    3  A    between atoms: C_8  and  C_34
    4  A    between atoms: C_10  and  O_41
    5  A    between atoms: C_11  and  C_14
    6  A    between atoms: C_12  and  N_17
    7  A    between atoms: C_14  and  O_41
    8  A    between atoms: N_16  and  C_43
    9  A    between atoms: C_19  and  C_37
   10  A    between atoms: C_21  and  N_30
   11  A    between atoms: C_27  and  N_30
   12  A    between atoms: N_30  and  C_34
                            x       y       z     vdW  Elec       q    Type
                         _______ _______ _______ _____ _____    ______ ____

>  <TORSDO>
F 12

$$$$
=
 OpenBabel11062410073D

 43 49  0  0  1  0  0  0  0  0999 V2000
  162.4360  208.6470  157.0160 C   0  0  0  0  0  3  0  0  0  0  0  0
  161.0130  208.5470  156.5560 C   0  0  1  0  0  3  0  0  0  0  0  0
  163.0240  209.8440  157.1120 C   0  0  0  0  0  3  0  0  0  0  0  0
  160.2060  209.6430  157.2610 C   0  0  0  0  0  2  0  0  0  0  0  0
  160.7630  211.0700  157.0200 C   0  0  1  0  0  3  0  0  0  0  0  0
  162.2840  211.0910  156.7050 C   0  0  0  0  0  2  0  0  0  0  0  0
  160.9420  208.6990  155.1080 N   0  0  0  0  0  2  0  0  0  0  0  0
  159.9770  206.7460  154.2700 O   0  0  0  0  0  0  0  0  0  0  0  0
  160.6080  207.3390  153.1610 C   0  0  1  0  0  3  0  0  0  0  0  0
  161.1990  207.3980  154.5150 C   0  0  1  0  0  3  0  0  0  0  0  0
  161.3170  206.2700  152.3450 C   0  0  2  0  0  3  0  0  0  0  0  0
  161.4410  206.7040  150.9170 C   0  0  0  0  0  0  0  0  0  0  0  0
  162.7360  207.6360  149.0880 C   0  0  0  0  0  3  0  0  0  0  0  0
  160.4710  206.8720  148.7010 C   0  0  0  0  0  3  0  0  0  0  0  0
  161.6550  207.4410  148.2230 C   0  0  0  0  0  3  0  0  0  0  0  0
  160.3660  206.5020  150.0450 C   0  0  0  0  0  3  0  0  0  0  0  0
  162.6310  207.2660  150.4330 C   0  0  0  0  0  3  0  0  0  0  0  0
  160.6140  205.0580  152.4300 O   0  0  0  0  0  0  0  0  0  0  0  0
  161.4290  204.0710  151.8540 C   0  0  1  0  0  0  0  0  0  0  0  0
  160.8550  203.4150  150.6730 N   0  0  0  0  0  2  0  0  0  0  0  0
  162.8080  204.2790  151.7760 O   0  0  0  0  0  1  0  0  0  0  0  0
  160.9760  202.6970  151.9620 C   0  0  0  0  0  2  0  0  0  0  0  0
  160.0050  211.7620  155.9620 N   0  0  0  0  0  0  0  0  0  0  0  0
  155.5250  212.3750  155.9840 S   0  0  1  0  0  0  0  0  0  0  0  0
  158.0550  213.1660  156.4260 N   0  0  0  0  0  0  0  0  0  0  0  0
  156.2980  210.7680  155.7780 C   0  0  0  0  0  2  0  0  0  0  0  0
  154.3590  212.0890  156.9200 O   0  0  0  0  0  0  0  0  0  0  0  0
  158.5610  211.7820  156.2930 C   0  0  1  0  0  3  0  0  0  0  0  0
  156.7340  213.1680  157.0570 C   0  0  0  0  0  2  0  0  0  0  0  0
  157.7220  210.9610  155.2900 C   0  0  0  0  0  2  0  0  0  0  0  0
  160.2160  214.4370  156.5370 C   0  0  0  0  0  1  0  0  0  0  0  0
  158.9440  213.9910  157.2610 C   0  0  0  0  0  2  0  0  0  0  0  0
  160.2150  211.0940  154.6720 C   0  0  0  0  0  2  0  0  0  0  0  0
  159.0380  211.0310  152.4840 C   0  0  0  0  0  2  0  0  0  0  0  0
  159.6390  211.9430  153.5480 C   0  0  2  0  0  3  0  0  0  0  0  0
  162.0640  210.6290  150.8620 C   0  0  0  0  0  3  0  0  0  0  0  0
  161.4810  211.3240  149.6460 C   0  0  1  0  0  3  0  0  0  0  0  0
  160.2430  212.8210  151.1970 C   0  0  0  0  0  3  0  0  0  0  0  0
  161.5160  210.7920  152.0760 C   0  0  0  0  0  3  0  0  0  0  0  0
  160.3490  211.7310  152.2200 C   0  0  2  0  0  0  0  0  0  0  0  0
  160.8050  212.6320  149.9930 C   0  0  0  0  0  3  0  0  0  0  0  0
  162.2720  212.8400  147.8270 C   0  0  0  0  0  1  0  0  0  0  0  0
  162.5400  211.5520  148.5810 C   0  0  0  0  0  2  0  0  0  0  0  0
  1  3  2  0  0  0  0
  2  7  1  6  0  0  0
  2  1  1  0  0  0  0
  2  4  1  0  0  0  0
  5 23  1  6  0  0  0
  5  4  1  0  0  0  0
  6  5  1  0  0  0  0
  6  3  1  0  0  0  0
  8 10  1  0  0  0  0
  9 11  1  6  0  0  0
  9  8  1  0  0  0  0
  9 10  1  0  0  0  0
 10  7  1  1  0  0  0
 11 18  1  6  0  0  0
 12 11  1  0  0  0  0
 13 17  2  0  0  0  0
 14 16  1  0  0  0  0
 15 14  2  0  0  0  0
 15 13  1  0  0  0  0
 16 12  2  0  0  0  0
 17 12  1  0  0  0  0
 19 21  1  1  0  0  0
 19 22  1  0  0  0  0
 19 18  1  0  0  0  0
 20 19  1  0  0  0  0
 20 22  1  0  0  0  0
 24 27  2  1  0  0  0
 24 29  1  0  0  0  0
 25 29  1  0  0  0  0
 25 32  1  0  0  0  0
 26 24  1  0  0  0  0
 28 23  1  6  0  0  0
 28 25  1  0  0  0  0
 30 26  1  0  0  0  0
 30 28  1  0  0  0  0
 31 32  1  0  0  0  0
 33 23  1  0  0  0  0
 34 35  1  0  0  0  0
 35 33  1  1  0  0  0
 36 39  2  0  0  0  0
 37 43  1  6  0  0  0
 37 41  1  0  0  0  0
 37 36  1  0  0  0  0
 39 40  1  0  0  0  0
 40 38  1  6  0  0  0
 40 34  1  0  0  0  0
 40 35  1  0  0  0  0
 41 38  2  0  0  0  0
 42 43  1  0  0  0  0
M  END
>  <MODEL>
4

>  <REMARK>
 VINA RESULT:      -4.6      2.510      5.307
  Name = 
  12 active torsions:
  status: ('A' for Active; 'I' for Inactive)
    1  A    between atoms: C_4  and  C_14
    2  A    between atoms: C_6  and  N_17
    3  A    between atoms: C_8  and  C_34
    4  A    between atoms: C_10  and  O_41
    5  A    between atoms: C_11  and  C_14
    6  A    between atoms: C_12  and  N_17
    7  A    between atoms: C_14  and  O_41
    8  A    between atoms: N_16  and  C_43
    9  A    between atoms: C_19  and  C_37
   10  A    between atoms: C_21  and  N_30
   11  A    between atoms: C_27  and  N_30
   12  A    between atoms: N_30  and  C_34
                            x       y       z     vdW  Elec       q    Type
                         _______ _______ _______ _____ _____    ______ ____

>  <TORSDO>
F 12

$$$$
=
 OpenBabel11062410073D

 43 49  0  0  1  0  0  0  0  0999 V2000
  162.2800  210.2080  148.9350 C   0  0  0  0  0  3  0  0  0  0  0  0
  162.4200  209.0280  149.8490 C   0  0  1  0  0  3  0  0  0  0  0  0
  161.5400  211.2580  149.3080 C   0  0  0  0  0  3  0  0  0  0  0  0
  162.6550  209.5520  151.2700 C   0  0  0  0  0  2  0  0  0  0  0  0
  161.5380  210.5050  151.7690 C   0  0  1  0  0  3  0  0  0  0  0  0
  160.7970  211.2390  150.6180 C   0  0  0  0  0  2  0  0  0  0  0  0
  161.2190  208.2030  149.7910 N   0  0  0  0  0  2  0  0  0  0  0  0
  162.5270  206.9860  148.2900 O   0  0  0  0  0  0  0  0  0  0  0  0
  161.5690  206.0680  148.7570 C   0  0  1  0  0  3  0  0  0  0  0  0
  161.2360  207.4900  148.5260 C   0  0  1  0  0  3  0  0  0  0  0  0
  161.0540  205.2320  147.5960 C   0  0  2  0  0  3  0  0  0  0  0  0
  160.9410  203.7950  148.0020 C   0  0  0  0  0  0  0  0  0  0  0  0
  160.0470  202.0650  149.4500 C   0  0  0  0  0  3  0  0  0  0  0  0
  161.4640  201.4660  147.5800 C   0  0  0  0  0  3  0  0  0  0  0  0
  160.6980  201.0900  148.6880 C   0  0  0  0  0  3  0  0  0  0  0  0
  161.5810  202.8150  147.2370 C   0  0  0  0  0  3  0  0  0  0  0  0
  160.1650  203.4160  149.1070 C   0  0  0  0  0  3  0  0  0  0  0  0
  161.9130  205.3640  146.4940 O   0  0  0  0  0  0  0  0  0  0  0  0
  161.1060  205.6190  145.3740 C   0  0  1  0  0  0  0  0  0  0  0  0
  160.7610  204.4320  144.5840 N   0  0  0  0  0  2  0  0  0  0  0  0
  160.0760  206.5580  145.4700 O   0  0  0  0  0  1  0  0  0  0  0  0
  161.7140  205.4410  144.0690 C   0  0  0  0  0  2  0  0  0  0  0  0
  160.5780  209.7900  152.6300 N   0  0  0  0  0  0  0  0  0  0  0  0
  158.8270  213.4860  154.5570 S   0  0  1  0  0  0  0  0  0  0  0  0
  160.7360  211.6220  154.2450 N   0  0  0  0  0  0  0  0  0  0  0  0
  157.8680  212.3570  153.5430 C   0  0  0  0  0  2  0  0  0  0  0  0
  157.8850  213.8120  155.7090 O   0  0  0  0  0  0  0  0  0  0  0  0
  159.8260  210.7510  153.4700 C   0  0  1  0  0  3  0  0  0  0  0  0
  159.9960  212.3320  155.2900 C   0  0  0  0  0  2  0  0  0  0  0  0
  158.8110  211.5740  152.6470 C   0  0  0  0  0  2  0  0  0  0  0  0
  161.8880  211.1010  156.4120 C   0  0  0  0  0  1  0  0  0  0  0  0
  161.7980  210.8460  154.9060 C   0  0  0  0  0  2  0  0  0  0  0  0
  161.2850  208.8260  153.4810 C   0  0  0  0  0  2  0  0  0  0  0  0
  161.1390  206.6320  154.6390 C   0  0  0  0  0  2  0  0  0  0  0  0
  160.4090  207.6040  153.7190 C   0  0  2  0  0  3  0  0  0  0  0  0
  162.8210  205.1300  152.0190 C   0  0  0  0  0  3  0  0  0  0  0  0
  162.0940  203.8340  152.3220 C   0  0  1  0  0  3  0  0  0  0  0  0
  160.0830  205.1860  152.8760 C   0  0  0  0  0  3  0  0  0  0  0  0
  162.3330  206.3070  152.4400 C   0  0  0  0  0  3  0  0  0  0  0  0
  161.0150  206.3230  153.1660 C   0  0  2  0  0  0  0  0  0  0  0  0
  160.5980  204.0230  152.4500 C   0  0  0  0  0  3  0  0  0  0  0  0
  162.5700  201.4150  151.9270 C   0  0  0  0  0  1  0  0  0  0  0  0
  162.3970  202.7740  151.2760 C   0  0  0  0  0  2  0  0  0  0  0  0
  1  3  2  0  0  0  0
  1  2  1  0  0  0  0
  2  7  1  1  0  0  0
  2  4  1  0  0  0  0
  3  6  1  0  0  0  0
  4  5  1  0  0  0  0
  5 23  1  6  0  0  0
  6  5  1  0  0  0  0
  8 10  1  0  0  0  0
  8  9  1  0  0  0  0
  9 11  1  6  0  0  0
 10  9  1  0  0  0  0
 10  7  1  1  0  0  0
 11 18  1  6  0  0  0
 11 12  1  0  0  0  0
 12 17  1  0  0  0  0
 14 15  2  0  0  0  0
 15 13  1  0  0  0  0
 16 14  1  0  0  0  0
 16 12  2  0  0  0  0
 17 13  2  0  0  0  0
 19 21  1  1  0  0  0
 19 18  1  0  0  0  0
 20 19  1  0  0  0  0
 22 20  1  0  0  0  0
 22 19  1  0  0  0  0
 23 33  1  0  0  0  0
 24 29  1  0  0  0  0
 24 27  2  1  0  0  0
 25 32  1  0  0  0  0
 25 29  1  0  0  0  0
 26 24  1  0  0  0  0
 28 23  1  6  0  0  0
 28 25  1  0  0  0  0
 30 28  1  0  0  0  0
 30 26  1  0  0  0  0
 32 31  1  0  0  0  0
 35 33  1  6  0  0  0
 35 34  1  0  0  0  0
 36 37  1  0  0  0  0
 36 39  2  0  0  0  0
 37 43  1  6  0  0  0
 37 41  1  0  0  0  0
 38 40  1  0  0  0  0
 40 39  1  6  0  0  0
 40 35  1  0  0  0  0
 40 34  1  0  0  0  0
 41 38  2  0  0  0  0
 43 42  1  0  0  0  0
M  END
>  <MODEL>
5

>  <REMARK>
 VINA RESULT:      -4.6      2.769      5.818
  Name = 
  12 active torsions:
  status: ('A' for Active; 'I' for Inactive)
    1  A    between atoms: C_4  and  C_14
    2  A    between atoms: C_6  and  N_17
    3  A    between atoms: C_8  and  C_34
    4  A    between atoms: C_10  and  O_41
    5  A    between atoms: C_11  and  C_14
    6  A    between atoms: C_12  and  N_17
    7  A    between atoms: C_14  and  O_41
    8  A    between atoms: N_16  and  C_43
    9  A    between atoms: C_19  and  C_37
   10  A    between atoms: C_21  and  N_30
   11  A    between atoms: C_27  and  N_30
   12  A    between atoms: N_30  and  C_34
                            x       y       z     vdW  Elec       q    Type
                         _______ _______ _______ _____ _____    ______ ____

>  <TORSDO>
F 12

$$$$
=
 OpenBabel11062410073D

 43 49  0  0  1  0  0  0  0  0999 V2000
  161.6130  207.7770  155.8950 C   0  0  0  0  0  3  0  0  0  0  0  0
  160.4640  208.0900  154.9840 C   0  0  1  0  0  3  0  0  0  0  0  0
  162.0030  208.6730  156.8090 C   0  0  0  0  0  3  0  0  0  0  0  0
  159.3520  208.7290  155.8230 C   0  0  0  0  0  2  0  0  0  0  0  0
  159.8090  209.9990  156.5880 C   0  0  1  0  0  3  0  0  0  0  0  0
  161.3330  210.0180  156.8920 C   0  0  0  0  0  2  0  0  0  0  0  0
  160.8970  208.9890  153.9210 N   0  0  0  0  0  2  0  0  0  0  0  0
  161.5990  206.8440  153.3250 O   0  0  0  0  0  0  0  0  0  0  0  0
  160.6060  207.1710  152.3840 C   0  0  1  0  0  3  0  0  0  0  0  0
  161.5490  208.1850  152.9020 C   0  0  1  0  0  3  0  0  0  0  0  0
  161.0490  206.7280  150.9990 C   0  0  2  0  0  3  0  0  0  0  0  0
  161.0570  205.2330  150.9110 C   0  0  0  0  0  0  0  0  0  0  0  0
  160.8920  203.1830  149.6220 C   0  0  0  0  0  3  0  0  0  0  0  0
  161.3650  203.0860  151.9950 C   0  0  0  0  0  3  0  0  0  0  0  0
  161.1480  202.4360  150.7760 C   0  0  0  0  0  3  0  0  0  0  0  0
  161.3230  204.4810  152.0600 C   0  0  0  0  0  3  0  0  0  0  0  0
  160.8500  204.5790  149.6870 C   0  0  0  0  0  3  0  0  0  0  0  0
  162.3240  207.2430  150.7170 O   0  0  0  0  0  0  0  0  0  0  0  0
  162.2320  207.9120  149.4860 C   0  0  1  0  0  0  0  0  0  0  0  0
  161.1220  207.4750  148.6320 N   0  0  0  0  0  2  0  0  0  0  0  0
  162.4870  209.2850  149.4300 O   0  0  0  0  0  1  0  0  0  0  0  0
  162.5240  207.1400  148.2940 C   0  0  0  0  0  2  0  0  0  0  0  0
  159.4090  211.2220  155.8680 N   0  0  0  0  0  0  0  0  0  0  0  0
  155.3330  213.1430  156.2400 S   0  0  1  0  0  0  0  0  0  0  0  0
  158.0090  213.1300  156.4900 N   0  0  0  0  0  0  0  0  0  0  0  0
  155.5710  211.3850  155.9640 C   0  0  0  0  0  2  0  0  0  0  0  0
  154.2050  213.1890  157.2610 O   0  0  0  0  0  0  0  0  0  0  0  0
  158.0660  211.6630  156.3090 C   0  0  1  0  0  3  0  0  0  0  0  0
  156.7970  213.5070  157.2210 C   0  0  0  0  0  2  0  0  0  0  0  0
  156.9490  211.1590  155.3680 C   0  0  0  0  0  2  0  0  0  0  0  0
  160.1390  214.4530  156.4230 C   0  0  0  0  0  1  0  0  0  0  0  0
  159.1600  213.6270  157.2600 C   0  0  0  0  0  2  0  0  0  0  0  0
  159.4070  210.9780  154.4210 C   0  0  0  0  0  2  0  0  0  0  0  0
  158.1420  211.7120  152.4110 C   0  0  0  0  0  2  0  0  0  0  0  0
  158.8240  212.1800  153.6930 C   0  0  2  0  0  3  0  0  0  0  0  0
  161.0800  211.8210  150.5940 C   0  0  0  0  0  3  0  0  0  0  0  0
  160.4800  212.9110  149.7270 C   0  0  1  0  0  3  0  0  0  0  0  0
  159.3700  213.8070  151.7630 C   0  0  0  0  0  3  0  0  0  0  0  0
  160.5890  211.5650  151.8160 C   0  0  0  0  0  3  0  0  0  0  0  0
  159.4700  212.4260  152.3380 C   0  0  2  0  0  0  0  0  0  0  0  0
  159.8750  214.0340  150.5410 C   0  0  0  0  0  3  0  0  0  0  0  0
  162.6210  212.4670  148.5230 C   0  0  0  0  0  1  0  0  0  0  0  0
  161.5040  213.4680  148.7530 C   0  0  0  0  0  2  0  0  0  0  0  0
  1  3  2  0  0  0  0
  2  7  1  6  0  0  0
  2  4  1  0  0  0  0
  2  1  1  0  0  0  0
  3  6  1  0  0  0  0
  4  5  1  0  0  0  0
  5 23  1  6  0  0  0
  5  6  1  0  0  0  0
  9 11  1  6  0  0  0
  9 10  1  0  0  0  0
  9  8  1  0  0  0  0
 10  8  1  0  0  0  0
 10  7  1  1  0  0  0
 11 18  1  1  0  0  0
 12 11  1  0  0  0  0
 12 16  1  0  0  0  0
 13 17  1  0  0  0  0
 13 15  2  0  0  0  0
 14 16  2  0  0  0  0
 15 14  1  0  0  0  0
 17 12  2  0  0  0  0
 19 21  1  6  0  0  0
 19 18  1  0  0  0  0
 20 19  1  0  0  0  0
 22 20  1  0  0  0  0
 22 19  1  0  0  0  0
 24 29  1  0  0  0  0
 24 27  2  1  0  0  0
 25 29  1  0  0  0  0
 25 32  1  0  0  0  0
 26 24  1  0  0  0  0
 28 23  1  6  0  0  0
 28 25  1  0  0  0  0
 30 26  1  0  0  0  0
 30 28  1  0  0  0  0
 31 32  1  0  0  0  0
 33 23  1  0  0  0  0
 34 35  1  0  0  0  0
 35 33  1  1  0  0  0
 36 39  2  0  0  0  0
 37 43  1  6  0  0  0
 37 41  1  0  0  0  0
 37 36  1  0  0  0  0
 39 40  1  0  0  0  0
 40 38  1  6  0  0  0
 40 34  1  0  0  0  0
 40 35  1  0  0  0  0
 41 38  2  0  0  0  0
 42 43  1  0  0  0  0
M  END
>  <MODEL>
6

>  <REMARK>
 VINA RESULT:      -4.4      2.787      5.517
  Name = 
  12 active torsions:
  status: ('A' for Active; 'I' for Inactive)
    1  A    between atoms: C_4  and  C_14
    2  A    between atoms: C_6  and  N_17
    3  A    between atoms: C_8  and  C_34
    4  A    between atoms: C_10  and  O_41
    5  A    between atoms: C_11  and  C_14
    6  A    between atoms: C_12  and  N_17
    7  A    between atoms: C_14  and  O_41
    8  A    between atoms: N_16  and  C_43
    9  A    between atoms: C_19  and  C_37
   10  A    between atoms: C_21  and  N_30
   11  A    between atoms: C_27  and  N_30
   12  A    between atoms: N_30  and  C_34
                            x       y       z     vdW  Elec       q    Type
                         _______ _______ _______ _____ _____    ______ ____

>  <TORSDO>
F 12

$$$$
=
 OpenBabel11062410073D

 43 49  0  0  1  0  0  0  0  0999 V2000
  161.7940  211.0930  151.8860 C   0  0  0  0  0  3  0  0  0  0  0  0
  162.4390  210.3170  150.7770 C   0  0  1  0  0  3  0  0  0  0  0  0
  160.7890  210.5520  152.5820 C   0  0  0  0  0  3  0  0  0  0  0  0
  162.6480  208.8780  151.2600 C   0  0  0  0  0  2  0  0  0  0  0  0
  161.3390  208.1880  151.7270 C   0  0  1  0  0  3  0  0  0  0  0  0
  160.2590  209.1890  152.2220 C   0  0  0  0  0  2  0  0  0  0  0  0
  161.5970  210.3480  149.5870 N   0  0  0  0  0  2  0  0  0  0  0  0
  162.6270  211.8800  148.1580 O   0  0  0  0  0  0  0  0  0  0  0  0
  161.3310  211.7150  147.6340 C   0  0  1  0  0  3  0  0  0  0  0  0
  161.5860  211.7140  149.0900 C   0  0  1  0  0  3  0  0  0  0  0  0
  160.7730  213.0660  147.2180 C   0  0  2  0  0  3  0  0  0  0  0  0
  159.4870  213.3380  147.9360 C   0  0  0  0  0  0  0  0  0  0  0  0
  158.2590  214.2900  149.8010 C   0  0  0  0  0  3  0  0  0  0  0  0
  157.0650  213.2190  147.9860 C   0  0  0  0  0  3  0  0  0  0  0  0
  157.0550  213.8880  149.2130 C   0  0  0  0  0  3  0  0  0  0  0  0
  158.2790  212.9480  147.3480 C   0  0  0  0  0  3  0  0  0  0  0  0
  159.4730  214.0180  149.1630 C   0  0  0  0  0  3  0  0  0  0  0  0
  160.5760  213.0960  145.8290 O   0  0  0  0  0  0  0  0  0  0  0  0
  161.6850  213.7520  145.2720 C   0  0  1  0  0  0  0  0  0  0  0  0
  161.4210  214.4290  143.9980 N   0  0  0  0  0  2  0  0  0  0  0  0
  162.5670  214.4400  146.1100 O   0  0  0  0  0  1  0  0  0  0  0  0
  162.2360  213.1940  144.0530 C   0  0  0  0  0  2  0  0  0  0  0  0
  160.7940  207.3190  150.6670 N   0  0  0  0  0  0  0  0  0  0  0  0
  160.7520  202.9480  151.8230 S   0  0  1  0  0  0  0  0  0  0  0  0
  160.9720  205.5700  152.3690 N   0  0  0  0  0  0  0  0  0  0  0  0
  160.8880  203.5160  150.1260 C   0  0  0  0  0  2  0  0  0  0  0  0
  161.7460  201.7970  151.8900 O   0  0  0  0  0  0  0  0  0  0  0  0
  161.1350  205.9030  150.9370 C   0  0  1  0  0  3  0  0  0  0  0  0
  161.6080  204.2860  152.6700 C   0  0  0  0  0  2  0  0  0  0  0  0
  160.3470  204.9310  150.0320 C   0  0  0  0  0  2  0  0  0  0  0  0
  160.8750  206.7610  154.5750 C   0  0  0  0  0  1  0  0  0  0  0  0
  161.5940  206.5840  153.2370 C   0  0  0  0  0  2  0  0  0  0  0  0
  161.3250  207.7230  149.3600 C   0  0  0  0  0  2  0  0  0  0  0  0
  162.8120  207.0860  147.4740 C   0  0  0  0  0  2  0  0  0  0  0  0
  162.2440  206.6390  148.8170 C   0  0  2  0  0  3  0  0  0  0  0  0
  160.0830  205.8930  145.7180 C   0  0  0  0  0  3  0  0  0  0  0  0
  160.9920  204.9000  145.0200 C   0  0  1  0  0  3  0  0  0  0  0  0
  162.2370  204.6600  147.1590 C   0  0  0  0  0  3  0  0  0  0  0  0
  160.4420  206.4530  146.8840 C   0  0  0  0  0  3  0  0  0  0  0  0
  161.7370  206.0260  147.5200 C   0  0  2  0  0  0  0  0  0  0  0  0
  161.8570  204.1230  145.9890 C   0  0  0  0  0  3  0  0  0  0  0  0
  160.0600  202.5920  144.8270 C   0  0  0  0  0  1  0  0  0  0  0  0
  160.1960  203.9420  144.1500 C   0  0  0  0  0  2  0  0  0  0  0  0
  1  3  2  0  0  0  0
  2  7  1  6  0  0  0
  2  4  1  0  0  0  0
  2  1  1  0  0  0  0
  4  5  1  0  0  0  0
  5 23  1  6  0  0  0
  5  6  1  0  0  0  0
  6  3  1  0  0  0  0
  8 10  1  0  0  0  0
  9 11  1  1  0  0  0
  9  8  1  0  0  0  0
  9 10  1  0  0  0  0
 10  7  1  6  0  0  0
 11 18  1  6  0  0  0
 11 12  1  0  0  0  0
 12 17  1  0  0  0  0
 14 15  2  0  0  0  0
 15 13  1  0  0  0  0
 16 12  2  0  0  0  0
 16 14  1  0  0  0  0
 17 13  2  0  0  0  0
 19 18  1  0  0  0  0
 19 21  1  1  0  0  0
 20 22  1  0  0  0  0
 20 19  1  0  0  0  0
 22 19  1  0  0  0  0
 24 27  2  6  0  0  0
 24 29  1  0  0  0  0
 25 29  1  0  0  0  0
 25 32  1  0  0  0  0
 26 24  1  0  0  0  0
 28 23  1  1  0  0  0
 28 25  1  0  0  0  0
 30 26  1  0  0  0  0
 30 28  1  0  0  0  0
 32 31  1  0  0  0  0
 33 23  1  0  0  0  0
 34 40  1  0  0  0  0
 34 35  1  0  0  0  0
 35 33  1  6  0  0  0
 36 39  2  0  0  0  0
 37 43  1  1  0  0  0
 37 36  1  0  0  0  0
 37 41  1  0  0  0  0
 38 40  1  0  0  0  0
 40 39  1  6  0  0  0
 40 35  1  0  0  0  0
 41 38  2  0  0  0  0
 43 42  1  0  0  0  0
M  END
>  <MODEL>
7

>  <REMARK>
 VINA RESULT:      -4.2      3.954      9.065
  Name = 
  12 active torsions:
  status: ('A' for Active; 'I' for Inactive)
    1  A    between atoms: C_4  and  C_14
    2  A    between atoms: C_6  and  N_17
    3  A    between atoms: C_8  and  C_34
    4  A    between atoms: C_10  and  O_41
    5  A    between atoms: C_11  and  C_14
    6  A    between atoms: C_12  and  N_17
    7  A    between atoms: C_14  and  O_41
    8  A    between atoms: N_16  and  C_43
    9  A    between atoms: C_19  and  C_37
   10  A    between atoms: C_21  and  N_30
   11  A    between atoms: C_27  and  N_30
   12  A    between atoms: N_30  and  C_34
                            x       y       z     vdW  Elec       q    Type
                         _______ _______ _______ _____ _____    ______ ____

>  <TORSDO>
F 12

$$$$
=
 OpenBabel11062410073D

 43 49  0  0  1  0  0  0  0  0999 V2000
  161.2360  205.4390  153.6870 C   0  0  0  0  0  3  0  0  0  0  0  0
  161.8540  206.6150  152.9920 C   0  0  1  0  0  3  0  0  0  0  0  0
  160.5740  204.5170  152.9800 C   0  0  0  0  0  3  0  0  0  0  0  0
  162.5490  206.1070  151.7240 C   0  0  0  0  0  2  0  0  0  0  0  0
  161.6000  205.3380  150.7680 C   0  0  1  0  0  3  0  0  0  0  0  0
  160.3940  204.6820  151.4940 C   0  0  0  0  0  2  0  0  0  0  0  0
  160.8300  207.6000  152.6660 N   0  0  0  0  0  2  0  0  0  0  0  0
  161.8130  209.5910  153.3850 O   0  0  0  0  0  0  0  0  0  0  0  0
  160.4710  209.9250  153.1290 C   0  0  1  0  0  3  0  0  0  0  0  0
  160.8500  208.6170  153.7030 C   0  0  1  0  0  3  0  0  0  0  0  0
  159.9510  210.8320  154.2330 C   0  0  2  0  0  3  0  0  0  0  0  0
  159.0530  211.8840  153.6600 C   0  0  0  0  0  0  0  0  0  0  0  0
  158.5680  213.5820  151.9950 C   0  0  0  0  0  3  0  0  0  0  0  0
  156.9290  213.0530  153.6970 C   0  0  0  0  0  3  0  0  0  0  0  0
  157.3150  213.7970  152.5780 C   0  0  0  0  0  3  0  0  0  0  0  0
  157.7950  212.0970  154.2340 C   0  0  0  0  0  3  0  0  0  0  0  0
  159.4350  212.6250  152.5320 C   0  0  0  0  0  3  0  0  0  0  0  0
  161.0270  211.4220  154.9140 O   0  0  0  0  0  0  0  0  0  0  0  0
  160.6920  211.4330  156.2770 C   0  0  1  0  0  0  0  0  0  0  0  0
  161.6080  210.6780  157.1400 N   0  0  0  0  0  2  0  0  0  0  0  0
  160.2060  212.6090  156.8550 O   0  0  0  0  0  1  0  0  0  0  0  0
  160.2420  210.1810  156.8550 C   0  0  0  0  0  2  0  0  0  0  0  0
  161.1340  206.2090  149.6720 N   0  0  0  0  0  0  0  0  0  0  0  0
  161.1870  204.4400  145.5110 S   0  0  1  0  0  0  0  0  0  0  0  0
  160.9750  204.2720  148.1850 N   0  0  0  0  0  0  0  0  0  0  0  0
  161.7600  206.1000  145.8820 C   0  0  0  0  0  2  0  0  0  0  0  0
  162.2250  203.9200  144.5270 O   0  0  0  0  0  0  0  0  0  0  0  0
  161.5190  205.6360  148.3610 C   0  0  1  0  0  3  0  0  0  0  0  0
  161.6180  203.6090  147.0480 C   0  0  0  0  0  2  0  0  0  0  0  0
  161.1340  206.5610  147.1850 C   0  0  0  0  0  2  0  0  0  0  0  0
  160.8410  201.9660  149.1640 C   0  0  0  0  0  1  0  0  0  0  0  0
  161.2100  203.4360  149.3730 C   0  0  0  0  0  2  0  0  0  0  0  0
  161.7040  207.5530  149.8190 C   0  0  0  0  0  2  0  0  0  0  0  0
  162.9710  209.0140  148.2580 C   0  0  0  0  0  2  0  0  0  0  0  0
  161.6500  208.2880  148.4880 C   0  0  2  0  0  3  0  0  0  0  0  0
  161.9570  211.8010  150.0340 C   0  0  0  0  0  3  0  0  0  0  0  0
  162.0490  212.6210  148.7610 C   0  0  1  0  0  3  0  0  0  0  0  0
  161.2020  210.6400  147.5210 C   0  0  0  0  0  3  0  0  0  0  0  0
  161.8410  210.4650  149.9850 C   0  0  0  0  0  3  0  0  0  0  0  0
  161.7390  209.7990  148.6400 C   0  0  2  0  0  0  0  0  0  0  0  0
  161.3270  211.9730  147.6000 C   0  0  0  0  0  3  0  0  0  0  0  0
  160.0580  214.1200  148.6220 C   0  0  0  0  0  1  0  0  0  0  0  0
  161.5300  214.0320  148.9750 C   0  0  0  0  0  2  0  0  0  0  0  0
  2  7  1  6  0  0  0
  2  1  1  0  0  0  0
  3  1  2  0  0  0  0
  4  2  1  0  0  0  0
  5 23  1  6  0  0  0
  5  6  1  0  0  0  0
  5  4  1  0  0  0  0
  6  3  1  0  0  0  0
  8 10  1  0  0  0  0
  9  8  1  0  0  0  0
  9 10  1  0  0  0  0
  9 11  1  1  0  0  0
 10  7  1  6  0  0  0
 11 18  1  6  0  0  0
 12 11  1  0  0  0  0
 12 16  1  0  0  0  0
 13 17  1  0  0  0  0
 13 15  2  0  0  0  0
 14 16  2  0  0  0  0
 15 14  1  0  0  0  0
 17 12  2  0  0  0  0
 18 19  1  0  0  0  0
 19 22  1  0  0  0  0
 19 21  1  1  0  0  0
 19 20  1  0  0  0  0
 22 20  1  0  0  0  0
 23 33  1  0  0  0  0
 24 27  2  6  0  0  0
 24 26  1  0  0  0  0
 24 29  1  0  0  0  0
 25 28  1  0  0  0  0
 25 32  1  0  0  0  0
 26 30  1  0  0  0  0
 28 23  1  1  0  0  0
 29 25  1  0  0  0  0
 30 28  1  0  0  0  0
 31 32  1  0  0  0  0
 34 35  1  0  0  0  0
 34 40  1  0  0  0  0
 35 40  1  0  0  0  0
 35 33  1  1  0  0  0
 37 43  1  1  0  0  0
 37 36  1  0  0  0  0
 38 41  2  0  0  0  0
 39 36  2  0  0  0  0
 40 38  1  6  0  0  0
 40 39  1  0  0  0  0
 41 37  1  0  0  0  0
 42 43  1  0  0  0  0
M  END
>  <MODEL>
8

>  <REMARK>
 VINA RESULT:      -4.1      3.063      8.700
  Name = 
  12 active torsions:
  status: ('A' for Active; 'I' for Inactive)
    1  A    between atoms: C_4  and  C_14
    2  A    between atoms: C_6  and  N_17
    3  A    between atoms: C_8  and  C_34
    4  A    between atoms: C_10  and  O_41
    5  A    between atoms: C_11  and  C_14
    6  A    between atoms: C_12  and  N_17
    7  A    between atoms: C_14  and  O_41
    8  A    between atoms: N_16  and  C_43
    9  A    between atoms: C_19  and  C_37
   10  A    between atoms: C_21  and  N_30
   11  A    between atoms: C_27  and  N_30
   12  A    between atoms: N_30  and  C_34
                            x       y       z     vdW  Elec       q    Type
                         _______ _______ _______ _____ _____    ______ ____

>  <TORSDO>
F 12

$$$$
=
 OpenBabel11062410073D

 43 49  0  0  1  0  0  0  0  0999 V2000
  161.8030  214.0460  148.1980 C   0  0  0  0  0  3  0  0  0  0  0  0
  162.1840  212.6050  148.0370 C   0  0  1  0  0  3  0  0  0  0  0  0
  161.1890  214.4530  149.3140 C   0  0  0  0  0  3  0  0  0  0  0  0
  162.7930  212.1230  149.3590 C   0  0  0  0  0  2  0  0  0  0  0  0
  161.8500  212.3110  150.5760 C   0  0  1  0  0  3  0  0  0  0  0  0
  160.8260  213.4630  150.3890 C   0  0  0  0  0  2  0  0  0  0  0  0
  161.0130  211.8120  147.6850 N   0  0  0  0  0  2  0  0  0  0  0  0
  160.9830  213.1410  145.7670 O   0  0  0  0  0  0  0  0  0  0  0  0
  160.1880  212.0270  145.4430 C   0  0  1  0  0  3  0  0  0  0  0  0
  160.1870  212.6150  146.8000 C   0  0  1  0  0  3  0  0  0  0  0  0
  158.9480  212.4850  144.6910 C   0  0  2  0  0  3  0  0  0  0  0  0
  159.2450  212.6080  143.2290 C   0  0  0  0  0  0  0  0  0  0  0  0
  159.0460  213.7850  141.1160 C   0  0  0  0  0  3  0  0  0  0  0  0
  160.3980  211.7810  141.2630 C   0  0  0  0  0  3  0  0  0  0  0  0
  159.8790  212.8390  140.5100 C   0  0  0  0  0  3  0  0  0  0  0  0
  160.0840  211.6690  142.6190 C   0  0  0  0  0  3  0  0  0  0  0  0
  158.7320  213.6730  142.4740 C   0  0  0  0  0  3  0  0  0  0  0  0
  158.5030  213.7120  145.2060 O   0  0  0  0  0  0  0  0  0  0  0  0
  157.1550  213.5430  145.5600 C   0  0  1  0  0  0  0  0  0  0  0  0
  156.9050  213.4670  147.0040 N   0  0  0  0  0  2  0  0  0  0  0  0
  156.1680  214.2270  144.8470 O   0  0  0  0  0  1  0  0  0  0  0  0
  156.7830  212.2690  146.1430 C   0  0  0  0  0  2  0  0  0  0  0  0
  161.1590  211.0510  150.9080 N   0  0  0  0  0  0  0  0  0  0  0  0
  160.1250  209.7190  155.1030 S   0  0  1  0  0  0  0  0  0  0  0  0
  159.5090  210.7140  152.6840 N   0  0  0  0  0  0  0  0  0  0  0  0
  161.8080  210.0040  154.5480 C   0  0  0  0  0  2  0  0  0  0  0  0
  160.1070  210.3250  156.5000 O   0  0  0  0  0  0  0  0  0  0  0  0
  160.9340  210.9570  152.3690 C   0  0  1  0  0  3  0  0  0  0  0  0
  159.2560  210.9410  154.1080 C   0  0  0  0  0  2  0  0  0  0  0  0
  161.8530  209.9090  153.0340 C   0  0  0  0  0  2  0  0  0  0  0  0
  158.2170  212.8630  152.7160 C   0  0  0  0  0  1  0  0  0  0  0  0
  158.6250  211.6160  151.9290 C   0  0  0  0  0  2  0  0  0  0  0  0
  161.9500  209.9050  150.4470 C   0  0  0  0  0  2  0  0  0  0  0  0
  162.2150  207.4790  150.9170 C   0  0  0  0  0  2  0  0  0  0  0  0
  161.2070  208.6100  150.7420 C   0  0  2  0  0  3  0  0  0  0  0  0
  162.3490  206.8300  147.5250 C   0  0  0  0  0  3  0  0  0  0  0  0
  161.7630  205.4550  147.7850 C   0  0  1  0  0  3  0  0  0  0  0  0
  160.3530  206.4810  149.5570 C   0  0  0  0  0  3  0  0  0  0  0  0
  162.2030  207.8200  148.4180 C   0  0  0  0  0  3  0  0  0  0  0  0
  161.3890  207.5600  149.6570 C   0  0  2  0  0  0  0  0  0  0  0  0
  160.5230  205.5070  148.6500 C   0  0  0  0  0  3  0  0  0  0  0  0
  162.7460  204.3610  145.7680 C   0  0  0  0  0  1  0  0  0  0  0  0
  161.4610  204.7290  146.4850 C   0  0  0  0  0  2  0  0  0  0  0  0
  1  3  2  0  0  0  0
  2  7  1  1  0  0  0
  2  1  1  0  0  0  0
  2  4  1  0  0  0  0
  3  6  1  0  0  0  0
  4  5  1  0  0  0  0
  5 23  1  6  0  0  0
  6  5  1  0  0  0  0
  8 10  1  0  0  0  0
  9 11  1  6  0  0  0
  9  8  1  0  0  0  0
  9 10  1  0  0  0  0
 10  7  1  1  0  0  0
 11 18  1  1  0  0  0
 12 11  1  0  0  0  0
 13 17  1  0  0  0  0
 14 16  2  0  0  0  0
 15 13  2  0  0  0  0
 15 14  1  0  0  0  0
 16 12  1  0  0  0  0
 17 12  2  0  0  0  0
 18 19  1  0  0  0  0
 19 21  1  6  0  0  0
 19 22  1  0  0  0  0
 19 20  1  0  0  0  0
 22 20  1  0  0  0  0
 24 27  2  1  0  0  0
 25 29  1  0  0  0  0
 26 24  1  0  0  0  0
 28 23  1  6  0  0  0
 28 25  1  0  0  0  0
 28 30  1  0  0  0  0
 29 24  1  0  0  0  0
 30 26  1  0  0  0  0
 32 25  1  0  0  0  0
 32 31  1  0  0  0  0
 33 23  1  0  0  0  0
 35 33  1  6  0  0  0
 35 34  1  0  0  0  0
 36 37  1  0  0  0  0
 36 39  2  0  0  0  0
 37 43  1  6  0  0  0
 37 41  1  0  0  0  0
 38 40  1  0  0  0  0
 40 39  1  6  0  0  0
 40 35  1  0  0  0  0
 40 34  1  0  0  0  0
 41 38  2  0  0  0  0
 42 43  1  0  0  0  0
M  END
>  <MODEL>
9

>  <REMARK>
 VINA RESULT:      -4.0      5.099      8.434
  Name = 
  12 active torsions:
  status: ('A' for Active; 'I' for Inactive)
    1  A    between atoms: C_4  and  C_14
    2  A    between atoms: C_6  and  N_17
    3  A    between atoms: C_8  and  C_34
    4  A    between atoms: C_10  and  O_41
    5  A    between atoms: C_11  and  C_14
    6  A    between atoms: C_12  and  N_17
    7  A    between atoms: C_14  and  O_41
    8  A    between atoms: N_16  and  C_43
    9  A    between atoms: C_19  and  C_37
   10  A    between atoms: C_21  and  N_30
   11  A    between atoms: C_27  and  N_30
   12  A    between atoms: N_30  and  C_34
                            x       y       z     vdW  Elec       q    Type
                         _______ _______ _______ _____ _____    ______ ____

>  <TORSDO>
F 12

$$$$
