=
 OpenBabel11062410493D

 32 36  0  0  1  0  0  0  0  0999 V2000
  161.1950  203.7790  149.8200 C   0  0  2  0  0  3  0  0  0  0  0  0
  161.2210  207.9510  150.7440 C   0  0  0  0  0  0  0  0  0  0  0  0
  160.5030  206.8920  155.4760 C   0  0  0  0  0  3  0  0  0  0  0  0
  160.1900  208.3400  155.7200 C   0  0  0  0  0  2  0  0  0  0  0  0
  161.3640  206.1970  149.0770 C   0  0  0  0  0  0  0  0  0  0  0  0
  160.8310  205.6540  151.4660 C   0  0  0  0  0  3  0  0  0  0  0  0
  160.4140  202.9090  150.5610 F   0  0  0  0  0  0  0  0  0  0  0  0
  160.8220  206.4610  154.2530 C   0  0  0  0  0  3  0  0  0  0  0  0
  161.0030  206.9410  151.7970 C   0  0  0  0  0  0  0  0  0  0  0  0
  160.9660  207.3880  153.1630 N   0  0  0  0  0  0  0  0  0  0  0  0
  161.2160  209.6770  152.4210 C   0  0  0  0  0  0  0  0  0  0  0  0
  161.9600  204.3500  147.5090 C   0  0  1  0  0  3  0  0  0  0  0  0
  160.7180  205.2140  150.0310 C   0  0  2  0  0  3  0  0  0  0  0  0
  161.8570  205.8030  147.8990 C   0  0  0  0  0  3  0  0  0  0  0  0
  161.0610  203.4340  148.3420 C   0  0  0  0  0  2  0  0  0  0  0  0
  161.0730  209.2560  154.8730 C   0  0  0  0  0  2  0  0  0  0  0  0
  161.0610  208.8030  153.4370 C   0  0  0  0  0  0  0  0  0  0  0  0
  161.4020  207.5510  149.4180 O   0  0  0  0  0  0  0  0  0  0  0  0
  161.3040  209.2070  151.0630 N   0  0  0  0  0  0  0  0  0  0  0  0
  161.7010  204.1710  146.0500 C   0  0  0  0  0  0  0  0  0  0  0  0
  161.2010  203.0940  145.6220 O   0  0  0  0  0  0  0  0  0  0  0  0
  162.0160  205.2090  145.1730 O   0  0  0  0  0  0  0  0  0  0  0  0
  161.2500  205.4590  144.0040 C   0  0  0  0  0  1  0  0  0  0  0  0
  161.3500  211.1480  152.6750 C   0  0  0  0  0  2  0  0  0  0  0  0
  157.0590  211.8740  154.8480 C   0  0  0  0  0  1  0  0  0  0  0  0
  159.2030  211.5810  153.6640 N   0  0  0  0  0  0  0  0  0  0  0  0
  159.6690  212.5730  151.5860 C   0  0  0  0  0  0  0  0  0  0  0  0
  158.4040  213.1590  151.5740 C   0  0  0  0  0  3  0  0  0  0  0  0
  157.5390  212.9360  152.6410 C   0  0  0  0  0  3  0  0  0  0  0  0
  157.9610  212.1310  153.6960 C   0  0  0  0  0  0  0  0  0  0  0  0
  160.4540  212.7760  150.6210 O   0  0  0  0  0  0  0  0  0  0  0  0
  160.0410  211.7890  152.6440 N   0  0  0  0  0  0  0  0  0  0  0  0
  1 13  1  0  0  0  0
  1  7  1  1  0  0  0
  2 19  2  0  0  0  0
  2  9  1  0  0  0  0
  3  4  1  0  0  0  0
  5 18  1  0  0  0  0
  5 13  1  0  0  0  0
  6  9  2  0  0  0  0
  8  3  2  0  0  0  0
  9 10  1  0  0  0  0
 10 17  1  0  0  0  0
 10  8  1  0  0  0  0
 11 24  1  0  0  0  0
 11 17  2  0  0  0  0
 12 20  1  6  0  0  0
 12 14  1  0  0  0  0
 12 15  1  0  0  0  0
 13  6  1  1  0  0  0
 14  5  2  0  0  0  0
 15  1  1  0  0  0  0
 16  4  1  0  0  0  0
 17 16  1  0  0  0  0
 18  2  1  0  0  0  0
 19 11  1  0  0  0  0
 21 20  2  0  0  0  0
 22 20  1  0  0  0  0
 23 22  1  0  0  0  0
 26 30  2  0  0  0  0
 27 32  1  0  0  0  0
 28 27  1  0  0  0  0
 28 29  2  0  0  0  0
 29 30  1  0  0  0  0
 30 25  1  0  0  0  0
 31 27  2  0  0  0  0
 32 24  1  0  0  0  0
 32 26  1  0  0  0  0
M  END
>  <MODEL>
1

>  <REMARK>
 VINA RESULT:      -9.3      0.000      0.000
  Name = 
  4 active torsions:
  status: ('A' for Active; 'I' for Inactive)
    1  A    between atoms: C_1  and  O_10
    2  A    between atoms: C_1  and  C_19
    3  A    between atoms: C_16  and  C_27
    4  A    between atoms: C_27  and  N_32
                            x       y       z     vdW  Elec       q    Type
                         _______ _______ _______ _____ _____    ______ ____

>  <TORSDO>
F 4

$$$$
=
 OpenBabel11062410493D

 32 36  0  0  1  0  0  0  0  0999 V2000
  161.2190  203.9390  149.8250 C   0  0  2  0  0  3  0  0  0  0  0  0
  161.1640  208.0820  150.8700 C   0  0  0  0  0  0  0  0  0  0  0  0
  160.4660  206.8710  155.5680 C   0  0  0  0  0  3  0  0  0  0  0  0
  160.1240  208.3050  155.8540 C   0  0  0  0  0  2  0  0  0  0  0  0
  161.3420  206.3800  149.1520 C   0  0  0  0  0  0  0  0  0  0  0  0
  160.8190  205.7580  151.5230 C   0  0  0  0  0  3  0  0  0  0  0  0
  160.4560  203.0330  150.5390 F   0  0  0  0  0  0  0  0  0  0  0  0
  160.7930  206.4820  154.3340 C   0  0  0  0  0  3  0  0  0  0  0  0
  160.9660  207.0370  151.8930 C   0  0  0  0  0  0  0  0  0  0  0  0
  160.9200  207.4430  153.2710 N   0  0  0  0  0  0  0  0  0  0  0  0
  161.1250  209.7580  152.5960 C   0  0  0  0  0  0  0  0  0  0  0  0
  161.9740  204.5920  147.5310 C   0  0  1  0  0  3  0  0  0  0  0  0
  160.7150  205.3580  150.0770 C   0  0  2  0  0  3  0  0  0  0  0  0
  161.8420  206.0310  147.9640 C   0  0  0  0  0  3  0  0  0  0  0  0
  161.0930  203.6350  148.3370 C   0  0  0  0  0  2  0  0  0  0  0  0
  160.9900  209.2620  155.0350 C   0  0  0  0  0  2  0  0  0  0  0  0
  160.9870  208.8510  153.5860 C   0  0  0  0  0  0  0  0  0  0  0  0
  161.3530  207.7240  149.5330 O   0  0  0  0  0  0  0  0  0  0  0  0
  161.2230  209.3300  151.2250 N   0  0  0  0  0  0  0  0  0  0  0  0
  161.7190  204.4510  146.0680 C   0  0  0  0  0  0  0  0  0  0  0  0
  161.4930  203.3130  145.5700 O   0  0  0  0  0  0  0  0  0  0  0  0
  161.7320  205.5900  145.2640 O   0  0  0  0  0  0  0  0  0  0  0  0
  161.2910  205.5590  143.9140 C   0  0  0  0  0  1  0  0  0  0  0  0
  161.2310  211.2230  152.8940 C   0  0  0  0  0  2  0  0  0  0  0  0
  159.7480  213.9350  149.1380 C   0  0  0  0  0  1  0  0  0  0  0  0
  160.3910  212.5610  151.0820 N   0  0  0  0  0  0  0  0  0  0  0  0
  158.9080  212.0250  152.8240 C   0  0  0  0  0  0  0  0  0  0  0  0
  157.8950  212.7430  152.1910 C   0  0  0  0  0  3  0  0  0  0  0  0
  158.1600  213.3740  150.9800 C   0  0  0  0  0  3  0  0  0  0  0  0
  159.4350  213.2710  150.4290 C   0  0  0  0  0  0  0  0  0  0  0  0
  158.6690  211.4500  153.9200 O   0  0  0  0  0  0  0  0  0  0  0  0
  160.1460  211.9510  152.2460 N   0  0  0  0  0  0  0  0  0  0  0  0
  1 13  1  0  0  0  0
  1  7  1  1  0  0  0
  2 19  2  0  0  0  0
  2  9  1  0  0  0  0
  3  4  1  0  0  0  0
  5 18  1  0  0  0  0
  5 13  1  0  0  0  0
  6  9  2  0  0  0  0
  8  3  2  0  0  0  0
  9 10  1  0  0  0  0
 10 17  1  0  0  0  0
 10  8  1  0  0  0  0
 11 24  1  0  0  0  0
 11 17  2  0  0  0  0
 12 20  1  6  0  0  0
 12 14  1  0  0  0  0
 12 15  1  0  0  0  0
 13  6  1  1  0  0  0
 14  5  2  0  0  0  0
 15  1  1  0  0  0  0
 16  4  1  0  0  0  0
 17 16  1  0  0  0  0
 18  2  1  0  0  0  0
 19 11  1  0  0  0  0
 21 20  2  0  0  0  0
 22 20  1  0  0  0  0
 23 22  1  0  0  0  0
 25 30  1  0  0  0  0
 26 32  1  0  0  0  0
 27 31  2  0  0  0  0
 28 27  1  0  0  0  0
 29 28  2  0  0  0  0
 30 29  1  0  0  0  0
 30 26  2  0  0  0  0
 32 27  1  0  0  0  0
 32 24  1  0  0  0  0
M  END
>  <MODEL>
2

>  <REMARK>
 VINA RESULT:      -9.2      1.008      1.686
  Name = 
  4 active torsions:
  status: ('A' for Active; 'I' for Inactive)
    1  A    between atoms: C_1  and  O_10
    2  A    between atoms: C_1  and  C_19
    3  A    between atoms: C_16  and  C_27
    4  A    between atoms: C_27  and  N_32
                            x       y       z     vdW  Elec       q    Type
                         _______ _______ _______ _____ _____    ______ ____

>  <TORSDO>
F 4

$$$$
=
 OpenBabel11062410493D

 32 36  0  0  1  0  0  0  0  0999 V2000
  160.9070  203.7840  149.9560 C   0  0  2  0  0  3  0  0  0  0  0  0
  161.5720  207.8840  148.9480 C   0  0  0  0  0  0  0  0  0  0  0  0
  161.0910  209.1060  153.6710 C   0  0  0  0  0  3  0  0  0  0  0  0
  160.9980  210.5460  153.2560 C   0  0  0  0  0  2  0  0  0  0  0  0
  161.3440  205.5820  148.2220 C   0  0  0  0  0  0  0  0  0  0  0  0
  160.9320  206.2190  150.6120 C   0  0  0  0  0  3  0  0  0  0  0  0
  160.0770  203.4550  151.0120 F   0  0  0  0  0  0  0  0  0  0  0  0
  161.2520  208.1440  152.7600 C   0  0  0  0  0  3  0  0  0  0  0  0
  161.3020  207.4770  150.3410 C   0  0  0  0  0  0  0  0  0  0  0  0
  161.4340  208.4720  151.3710 N   0  0  0  0  0  0  0  0  0  0  0  0
  161.9330  210.1430  149.6950 C   0  0  0  0  0  0  0  0  0  0  0  0
  161.5580  203.1710  147.6210 C   0  0  1  0  0  3  0  0  0  0  0  0
  160.6480  205.2240  149.5190 C   0  0  2  0  0  3  0  0  0  0  0  0
  161.6840  204.6450  147.3330 C   0  0  0  0  0  3  0  0  0  0  0  0
  160.6120  202.8590  148.7820 C   0  0  0  0  0  2  0  0  0  0  0  0
  161.9270  210.8540  152.0840 C   0  0  0  0  0  2  0  0  0  0  0  0
  161.7410  209.8310  150.9940 C   0  0  0  0  0  0  0  0  0  0  0  0
  161.5920  206.9260  147.9330 O   0  0  0  0  0  0  0  0  0  0  0  0
  161.8490  209.1240  148.6810 N   0  0  0  0  0  0  0  0  0  0  0  0
  161.1640  202.4200  146.3930 C   0  0  0  0  0  0  0  0  0  0  0  0
  161.2120  202.9820  145.2630 O   0  0  0  0  0  0  0  0  0  0  0  0
  160.7470  201.0950  146.5120 O   0  0  0  0  0  0  0  0  0  0  0  0
  161.5870  200.0920  147.0640 C   0  0  0  0  0  1  0  0  0  0  0  0
  162.2850  211.5380  149.2740 C   0  0  0  0  0  2  0  0  0  0  0  0
  159.7920  212.1490  145.1420 C   0  0  0  0  0  1  0  0  0  0  0  0
  160.9760  211.9030  147.2910 N   0  0  0  0  0  0  0  0  0  0  0  0
  160.3120  213.0050  149.2570 C   0  0  0  0  0  0  0  0  0  0  0  0
  159.2530  213.6010  148.5740 C   0  0  0  0  0  3  0  0  0  0  0  0
  159.0730  213.3260  147.2220 C   0  0  0  0  0  3  0  0  0  0  0  0
  159.9590  212.4600  146.5850 C   0  0  0  0  0  0  0  0  0  0  0  0
  160.4750  213.2510  150.4830 O   0  0  0  0  0  0  0  0  0  0  0  0
  161.1580  212.1610  148.5910 N   0  0  0  0  0  0  0  0  0  0  0  0
  1  7  1  1  0  0  0
  2  9  1  0  0  0  0
  4  3  1  0  0  0  0
  5 13  1  0  0  0  0
  8  3  2  0  0  0  0
  9  6  2  0  0  0  0
  9 10  1  0  0  0  0
 10  8  1  0  0  0  0
 11 17  2  0  0  0  0
 12 20  1  6  0  0  0
 12 15  1  0  0  0  0
 13  1  1  0  0  0  0
 13  6  1  1  0  0  0
 14 12  1  0  0  0  0
 14  5  2  0  0  0  0
 15  1  1  0  0  0  0
 16  4  1  0  0  0  0
 17 10  1  0  0  0  0
 17 16  1  0  0  0  0
 18  5  1  0  0  0  0
 18  2  1  0  0  0  0
 19  2  2  0  0  0  0
 19 11  1  0  0  0  0
 20 22  1  0  0  0  0
 21 20  2  0  0  0  0
 22 23  1  0  0  0  0
 24 11  1  0  0  0  0
 25 30  1  0  0  0  0
 26 32  1  0  0  0  0
 27 31  2  0  0  0  0
 28 27  1  0  0  0  0
 29 28  2  0  0  0  0
 30 29  1  0  0  0  0
 30 26  2  0  0  0  0
 32 27  1  0  0  0  0
 32 24  1  0  0  0  0
M  END
>  <MODEL>
3

>  <REMARK>
 VINA RESULT:      -9.1      2.508      3.619
  Name = 
  4 active torsions:
  status: ('A' for Active; 'I' for Inactive)
    1  A    between atoms: C_1  and  O_10
    2  A    between atoms: C_1  and  C_19
    3  A    between atoms: C_16  and  C_27
    4  A    between atoms: C_27  and  N_32
                            x       y       z     vdW  Elec       q    Type
                         _______ _______ _______ _____ _____    ______ ____

>  <TORSDO>
F 4

$$$$
=
 OpenBabel11062410493D

 32 36  0  0  1  0  0  0  0  0999 V2000
  161.4770  204.6500  150.9370 C   0  0  2  0  0  3  0  0  0  0  0  0
  160.7750  208.6870  152.1480 C   0  0  0  0  0  0  0  0  0  0  0  0
  160.8330  207.2730  156.8410 C   0  0  0  0  0  3  0  0  0  0  0  0
  160.2670  208.6120  157.2180 C   0  0  0  0  0  2  0  0  0  0  0  0
  161.0730  207.0840  150.3540 C   0  0  0  0  0  0  0  0  0  0  0  0
  160.9380  206.3270  152.7400 C   0  0  0  0  0  3  0  0  0  0  0  0
  160.9760  203.6030  151.6900 F   0  0  0  0  0  0  0  0  0  0  0  0
  161.0890  206.9780  155.5640 C   0  0  0  0  0  3  0  0  0  0  0  0
  160.8860  207.6040  153.1430 C   0  0  0  0  0  0  0  0  0  0  0  0
  160.9190  207.9660  154.5340 N   0  0  0  0  0  0  0  0  0  0  0  0
  160.6190  210.2910  153.9350 C   0  0  0  0  0  0  0  0  0  0  0  0
  161.8410  205.4790  148.6060 C   0  0  1  0  0  3  0  0  0  0  0  0
  160.7500  205.9440  151.2970 C   0  0  2  0  0  3  0  0  0  0  0  0
  161.4950  206.8580  149.1070 C   0  0  0  0  0  3  0  0  0  0  0  0
  161.2460  204.3570  149.4590 C   0  0  0  0  0  2  0  0  0  0  0  0
  160.8460  209.7300  156.3530 C   0  0  0  0  0  2  0  0  0  0  0  0
  160.7600  209.3550  154.8970 C   0  0  0  0  0  0  0  0  0  0  0  0
  160.8790  208.3980  150.7850 O   0  0  0  0  0  0  0  0  0  0  0  0
  160.6420  209.9170  152.5450 N   0  0  0  0  0  0  0  0  0  0  0  0
  161.4570  205.3220  147.1720 C   0  0  0  0  0  0  0  0  0  0  0  0
  160.6840  206.1580  146.6270 O   0  0  0  0  0  0  0  0  0  0  0  0
  161.9670  204.2450  146.4470 O   0  0  0  0  0  0  0  0  0  0  0  0
  161.2670  203.6840  145.3470 C   0  0  0  0  0  1  0  0  0  0  0  0
  160.4850  211.7450  154.2780 C   0  0  0  0  0  2  0  0  0  0  0  0
  155.7570  210.7470  154.8380 C   0  0  0  0  0  1  0  0  0  0  0  0
  158.1490  211.3190  154.6490 N   0  0  0  0  0  0  0  0  0  0  0  0
  159.2150  212.8650  156.0600 C   0  0  0  0  0  0  0  0  0  0  0  0
  158.0180  213.0830  156.7390 C   0  0  0  0  0  3  0  0  0  0  0  0
  156.8760  212.3910  156.3460 C   0  0  0  0  0  3  0  0  0  0  0  0
  156.9600  211.4980  155.2810 C   0  0  0  0  0  0  0  0  0  0  0  0
  160.2510  213.4890  156.4170 O   0  0  0  0  0  0  0  0  0  0  0  0
  159.2510  211.9780  155.0200 N   0  0  0  0  0  0  0  0  0  0  0  0
  1 13  1  0  0  0  0
  1  7  1  1  0  0  0
  2 19  2  0  0  0  0
  2  9  1  0  0  0  0
  3  4  1  0  0  0  0
  5 18  1  0  0  0  0
  5 13  1  0  0  0  0
  6  9  2  0  0  0  0
  8  3  2  0  0  0  0
  9 10  1  0  0  0  0
 10 17  1  0  0  0  0
 10  8  1  0  0  0  0
 11 24  1  0  0  0  0
 11 17  2  0  0  0  0
 12 20  1  6  0  0  0
 12 14  1  0  0  0  0
 12 15  1  0  0  0  0
 13  6  1  1  0  0  0
 14  5  2  0  0  0  0
 15  1  1  0  0  0  0
 16  4  1  0  0  0  0
 17 16  1  0  0  0  0
 18  2  1  0  0  0  0
 19 11  1  0  0  0  0
 21 20  2  0  0  0  0
 22 20  1  0  0  0  0
 23 22  1  0  0  0  0
 24 32  1  0  0  0  0
 25 30  1  0  0  0  0
 26 32  1  0  0  0  0
 26 30  2  0  0  0  0
 27 31  2  0  0  0  0
 27 28  1  0  0  0  0
 29 28  2  0  0  0  0
 30 29  1  0  0  0  0
 32 27  1  0  0  0  0
M  END
>  <MODEL>
4

>  <REMARK>
 VINA RESULT:      -8.1      1.779      2.382
  Name = 
  4 active torsions:
  status: ('A' for Active; 'I' for Inactive)
    1  A    between atoms: C_1  and  O_10
    2  A    between atoms: C_1  and  C_19
    3  A    between atoms: C_16  and  C_27
    4  A    between atoms: C_27  and  N_32
                            x       y       z     vdW  Elec       q    Type
                         _______ _______ _______ _____ _____    ______ ____

>  <TORSDO>
F 4

$$$$
=
 OpenBabel11062410493D

 32 36  0  0  1  0  0  0  0  0999 V2000
  160.4910  206.9810  153.6880 C   0  0  2  0  0  3  0  0  0  0  0  0
  161.7830  206.2610  149.6780 C   0  0  0  0  0  0  0  0  0  0  0  0
  160.7890  201.4930  150.2320 C   0  0  0  0  0  3  0  0  0  0  0  0
  161.5440  201.2200  148.9630 C   0  0  0  0  0  2  0  0  0  0  0  0
  161.4380  207.8300  151.4940 C   0  0  0  0  0  0  0  0  0  0  0  0
  161.0840  205.3720  151.8390 C   0  0  0  0  0  3  0  0  0  0  0  0
  160.6680  206.0110  154.6580 F   0  0  0  0  0  0  0  0  0  0  0  0
  160.6640  202.7380  150.6960 C   0  0  0  0  0  3  0  0  0  0  0  0
  161.3240  205.1540  150.5400 C   0  0  0  0  0  0  0  0  0  0  0  0
  161.1660  203.8550  149.9430 N   0  0  0  0  0  0  0  0  0  0  0  0
  161.9920  204.7220  147.8400 C   0  0  0  0  0  0  0  0  0  0  0  0
  160.6290  209.4350  153.2230 C   0  0  1  0  0  3  0  0  0  0  0  0
  161.3960  206.6910  152.4920 C   0  0  2  0  0  3  0  0  0  0  0  0
  161.1600  209.0850  151.8570 C   0  0  0  0  0  3  0  0  0  0  0  0
  160.8680  208.3400  154.2650 C   0  0  0  0  0  2  0  0  0  0  0  0
  161.3200  202.3230  147.9290 C   0  0  0  0  0  2  0  0  0  0  0  0
  161.5380  203.6740  148.5590 C   0  0  0  0  0  0  0  0  0  0  0  0
  161.8190  207.5650  150.1760 O   0  0  0  0  0  0  0  0  0  0  0  0
  162.0940  206.0270  148.4390 N   0  0  0  0  0  0  0  0  0  0  0  0
  161.1730  210.7440  153.6880 C   0  0  0  0  0  0  0  0  0  0  0  0
  162.2080  210.7810  154.4110 O   0  0  0  0  0  0  0  0  0  0  0  0
  160.5270  211.9210  153.3090 O   0  0  0  0  0  0  0  0  0  0  0  0
  159.1360  211.9530  153.0280 C   0  0  0  0  0  1  0  0  0  0  0  0
  162.3540  204.5730  146.3930 C   0  0  0  0  0  2  0  0  0  0  0  0
  159.9000  200.7080  144.7500 C   0  0  0  0  0  1  0  0  0  0  0  0
  161.0620  202.7360  145.5380 N   0  0  0  0  0  0  0  0  0  0  0  0
  160.3390  204.9120  145.0250 C   0  0  0  0  0  0  0  0  0  0  0  0
  159.2730  204.3930  144.2930 C   0  0  0  0  0  3  0  0  0  0  0  0
  159.1190  203.0130  144.1970 C   0  0  0  0  0  3  0  0  0  0  0  0
  160.0370  202.1850  144.8360 C   0  0  0  0  0  0  0  0  0  0  0  0
  160.4790  206.1610  145.1160 O   0  0  0  0  0  0  0  0  0  0  0  0
  161.2180  204.0600  145.6370 N   0  0  0  0  0  0  0  0  0  0  0  0
  1 15  1  0  0  0  0
  1  7  1  1  0  0  0
  2 18  1  0  0  0  0
  2  9  1  0  0  0  0
  3  8  2  0  0  0  0
  4  3  1  0  0  0  0
  5 14  2  0  0  0  0
  5 13  1  0  0  0  0
  9  6  2  0  0  0  0
 10  9  1  0  0  0  0
 10  8  1  0  0  0  0
 11 19  1  0  0  0  0
 11 17  2  0  0  0  0
 12 20  1  1  0  0  0
 12 15  1  0  0  0  0
 13  6  1  6  0  0  0
 13  1  1  0  0  0  0
 14 12  1  0  0  0  0
 16 17  1  0  0  0  0
 16  4  1  0  0  0  0
 17 10  1  0  0  0  0
 18  5  1  0  0  0  0
 19  2  2  0  0  0  0
 20 21  2  0  0  0  0
 22 20  1  0  0  0  0
 23 22  1  0  0  0  0
 24 11  1  0  0  0  0
 25 30  1  0  0  0  0
 26 32  1  0  0  0  0
 27 31  2  0  0  0  0
 27 32  1  0  0  0  0
 28 27  1  0  0  0  0
 29 28  2  0  0  0  0
 29 30  1  0  0  0  0
 30 26  2  0  0  0  0
 32 24  1  0  0  0  0
M  END
>  <MODEL>
5

>  <REMARK>
 VINA RESULT:      -7.1      3.044      8.586
  Name = 
  4 active torsions:
  status: ('A' for Active; 'I' for Inactive)
    1  A    between atoms: C_1  and  O_10
    2  A    between atoms: C_1  and  C_19
    3  A    between atoms: C_16  and  C_27
    4  A    between atoms: C_27  and  N_32
                            x       y       z     vdW  Elec       q    Type
                         _______ _______ _______ _____ _____    ______ ____

>  <TORSDO>
F 4

$$$$
=
 OpenBabel11062410493D

 32 36  0  0  1  0  0  0  0  0999 V2000
  161.0460  203.3440  150.9070 C   0  0  2  0  0  3  0  0  0  0  0  0
  161.0380  207.6010  151.2670 C   0  0  0  0  0  0  0  0  0  0  0  0
  160.7520  207.1730  156.1410 C   0  0  0  0  0  3  0  0  0  0  0  0
  160.4220  208.6360  156.2190 C   0  0  0  0  0  2  0  0  0  0  0  0
  161.0860  205.6430  149.8390 C   0  0  0  0  0  0  0  0  0  0  0  0
  160.7730  205.4160  152.3160 C   0  0  0  0  0  3  0  0  0  0  0  0
  160.3550  202.5690  151.8210 F   0  0  0  0  0  0  0  0  0  0  0  0
  160.9780  206.5880  154.9630 C   0  0  0  0  0  3  0  0  0  0  0  0
  160.9370  206.7380  152.4590 C   0  0  0  0  0  0  0  0  0  0  0  0
  161.0050  207.3630  153.7520 N   0  0  0  0  0  0  0  0  0  0  0  0
  161.1290  209.5360  152.6960 C   0  0  0  0  0  0  0  0  0  0  0  0
  161.5970  203.6130  148.4820 C   0  0  1  0  0  3  0  0  0  0  0  0
  160.5500  204.7870  150.9680 C   0  0  2  0  0  3  0  0  0  0  0  0
  161.4880  205.1030  148.6850 C   0  0  0  0  0  3  0  0  0  0  0  0
  160.7970  202.8020  149.5040 C   0  0  0  0  0  2  0  0  0  0  0  0
  161.2050  209.4430  155.1850 C   0  0  0  0  0  2  0  0  0  0  0  0
  161.0840  208.8030  153.8280 C   0  0  0  0  0  0  0  0  0  0  0  0
  161.1170  207.0310  149.9950 O   0  0  0  0  0  0  0  0  0  0  0  0
  161.1140  208.8900  151.4090 N   0  0  0  0  0  0  0  0  0  0  0  0
  161.2210  203.2370  147.0880 C   0  0  0  0  0  0  0  0  0  0  0  0
  160.8790  204.1270  146.2600 O   0  0  0  0  0  0  0  0  0  0  0  0
  161.2560  201.8930  146.7150 O   0  0  0  0  0  0  0  0  0  0  0  0
  160.9420  200.8540  147.6300 C   0  0  0  0  0  1  0  0  0  0  0  0
  161.2450  211.0300  152.7420 C   0  0  0  0  0  2  0  0  0  0  0  0
  156.9570  211.4350  155.0010 C   0  0  0  0  0  1  0  0  0  0  0  0
  159.0960  211.3110  153.7810 N   0  0  0  0  0  0  0  0  0  0  0  0
  159.5220  212.5150  151.8090 C   0  0  0  0  0  0  0  0  0  0  0  0
  158.2440  213.0680  151.8620 C   0  0  0  0  0  3  0  0  0  0  0  0
  157.3930  212.7210  152.9070 C   0  0  0  0  0  3  0  0  0  0  0  0
  157.8430  211.8260  153.8750 C   0  0  0  0  0  0  0  0  0  0  0  0
  160.2950  212.8310  150.8640 O   0  0  0  0  0  0  0  0  0  0  0  0
  159.9210  211.6400  152.7810 N   0  0  0  0  0  0  0  0  0  0  0  0
  1 13  1  0  0  0  0
  1  7  1  1  0  0  0
  2 19  2  0  0  0  0
  2  9  1  0  0  0  0
  3  4  1  0  0  0  0
  5 18  1  0  0  0  0
  5 13  1  0  0  0  0
  6  9  2  0  0  0  0
  8  3  2  0  0  0  0
  9 10  1  0  0  0  0
 10 17  1  0  0  0  0
 10  8  1  0  0  0  0
 11 24  1  0  0  0  0
 11 17  2  0  0  0  0
 12 20  1  6  0  0  0
 12 14  1  0  0  0  0
 12 15  1  0  0  0  0
 13  6  1  1  0  0  0
 14  5  2  0  0  0  0
 15  1  1  0  0  0  0
 16  4  1  0  0  0  0
 17 16  1  0  0  0  0
 18  2  1  0  0  0  0
 19 11  1  0  0  0  0
 21 20  2  0  0  0  0
 22 20  1  0  0  0  0
 22 23  1  0  0  0  0
 24 32  1  0  0  0  0
 26 30  2  0  0  0  0
 27 28  1  0  0  0  0
 27 32  1  0  0  0  0
 28 29  2  0  0  0  0
 29 30  1  0  0  0  0
 30 25  1  0  0  0  0
 31 27  2  0  0  0  0
 32 26  1  0  0  0  0
M  END
>  <MODEL>
6

>  <REMARK>
 VINA RESULT:      -7.1      1.048      1.456
  Name = 
  4 active torsions:
  status: ('A' for Active; 'I' for Inactive)
    1  A    between atoms: C_1  and  O_10
    2  A    between atoms: C_1  and  C_19
    3  A    between atoms: C_16  and  C_27
    4  A    between atoms: C_27  and  N_32
                            x       y       z     vdW  Elec       q    Type
                         _______ _______ _______ _____ _____    ______ ____

>  <TORSDO>
F 4

$$$$
=
 OpenBabel11062410493D

 32 36  0  0  1  0  0  0  0  0999 V2000
  161.0470  204.7510  147.5540 C   0  0  2  0  0  3  0  0  0  0  0  0
  161.8040  207.1970  150.9750 C   0  0  0  0  0  0  0  0  0  0  0  0
  161.8700  211.1680  148.1020 C   0  0  0  0  0  3  0  0  0  0  0  0
  162.4540  211.9470  149.2460 C   0  0  0  0  0  2  0  0  0  0  0  0
  161.4480  204.9860  150.0470 C   0  0  0  0  0  0  0  0  0  0  0  0
  161.6460  206.9880  148.5510 C   0  0  0  0  0  3  0  0  0  0  0  0
  161.5630  205.1050  146.3200 F   0  0  0  0  0  0  0  0  0  0  0  0
  161.5770  209.8730  148.2400 C   0  0  0  0  0  3  0  0  0  0  0  0
  161.7150  207.7850  149.6250 C   0  0  0  0  0  0  0  0  0  0  0  0
  161.7240  209.2190  149.5120 N   0  0  0  0  0  0  0  0  0  0  0  0
  162.0190  209.4060  151.9060 C   0  0  0  0  0  0  0  0  0  0  0  0
  160.6230  202.8310  149.1000 C   0  0  1  0  0  3  0  0  0  0  0  0
  161.7910  205.4950  148.6620 C   0  0  2  0  0  3  0  0  0  0  0  0
  160.9890  203.7460  150.2400 C   0  0  0  0  0  3  0  0  0  0  0  0
  161.2360  203.2530  147.7630 C   0  0  0  0  0  2  0  0  0  0  0  0
  161.8570  211.5120  150.5830 C   0  0  0  0  0  2  0  0  0  0  0  0
  161.9000  210.0120  150.7060 C   0  0  0  0  0  0  0  0  0  0  0  0
  161.6610  205.8190  151.1480 O   0  0  0  0  0  0  0  0  0  0  0  0
  161.9550  207.9710  152.0070 N   0  0  0  0  0  0  0  0  0  0  0  0
  160.9650  201.4150  149.4220 C   0  0  0  0  0  0  0  0  0  0  0  0
  160.4840  200.8650  150.4520 O   0  0  0  0  0  0  0  0  0  0  0  0
  161.8170  200.7120  148.5710 O   0  0  0  0  0  0  0  0  0  0  0  0
  161.3420  200.0770  147.3930 C   0  0  0  0  0  1  0  0  0  0  0  0
  162.1700  210.2030  153.1670 C   0  0  0  0  0  2  0  0  0  0  0  0
  157.8190  212.3330  153.6050 C   0  0  0  0  0  1  0  0  0  0  0  0
  159.9940  211.1790  153.4670 N   0  0  0  0  0  0  0  0  0  0  0  0
  160.6340  209.4620  154.9380 C   0  0  0  0  0  0  0  0  0  0  0  0
  159.4150  209.5700  155.6060 C   0  0  0  0  0  3  0  0  0  0  0  0
  158.4830  210.5100  155.1760 C   0  0  0  0  0  3  0  0  0  0  0  0
  158.7930  211.3200  154.0860 C   0  0  0  0  0  0  0  0  0  0  0  0
  161.4780  208.6100  155.3250 O   0  0  0  0  0  0  0  0  0  0  0  0
  160.8960  210.2790  153.8730 N   0  0  0  0  0  0  0  0  0  0  0  0
  1  7  1  6  0  0  0
  1 15  1  0  0  0  0
  1 13  1  0  0  0  0
  2 18  1  0  0  0  0
  2 19  2  0  0  0  0
  3  8  2  0  0  0  0
  3  4  1  0  0  0  0
  4 16  1  0  0  0  0
  5 14  2  0  0  0  0
  5 18  1  0  0  0  0
  6  9  2  0  0  0  0
  8 10  1  0  0  0  0
  9  2  1  0  0  0  0
 10  9  1  0  0  0  0
 10 17  1  0  0  0  0
 11 19  1  0  0  0  0
 11 24  1  0  0  0  0
 12 20  1  1  0  0  0
 12 14  1  0  0  0  0
 13  6  1  1  0  0  0
 13  5  1  0  0  0  0
 15 12  1  0  0  0  0
 16 17  1  0  0  0  0
 17 11  2  0  0  0  0
 20 21  2  0  0  0  0
 22 20  1  0  0  0  0
 23 22  1  0  0  0  0
 24 32  1  0  0  0  0
 25 30  1  0  0  0  0
 26 32  1  0  0  0  0
 26 30  2  0  0  0  0
 27 31  2  0  0  0  0
 27 28  1  0  0  0  0
 29 28  2  0  0  0  0
 30 29  1  0  0  0  0
 32 27  1  0  0  0  0
M  END
>  <MODEL>
7

>  <REMARK>
 VINA RESULT:      -7.0      2.535      4.154
  Name = 
  4 active torsions:
  status: ('A' for Active; 'I' for Inactive)
    1  A    between atoms: C_1  and  O_10
    2  A    between atoms: C_1  and  C_19
    3  A    between atoms: C_16  and  C_27
    4  A    between atoms: C_27  and  N_32
                            x       y       z     vdW  Elec       q    Type
                         _______ _______ _______ _____ _____    ______ ____

>  <TORSDO>
F 4

$$$$
=
 OpenBabel11062410493D

 32 36  0  0  1  0  0  0  0  0999 V2000
  161.0060  204.7110  147.5520 C   0  0  2  0  0  3  0  0  0  0  0  0
  161.8720  207.1740  150.9350 C   0  0  0  0  0  0  0  0  0  0  0  0
  161.8300  211.1320  148.0440 C   0  0  0  0  0  3  0  0  0  0  0  0
  162.4490  211.9180  149.1630 C   0  0  0  0  0  2  0  0  0  0  0  0
  161.4910  204.9580  150.0280 C   0  0  0  0  0  0  0  0  0  0  0  0
  161.6320  206.9540  148.5180 C   0  0  0  0  0  3  0  0  0  0  0  0
  161.4780  205.0610  146.3000 F   0  0  0  0  0  0  0  0  0  0  0  0
  161.5450  209.8370  148.1970 C   0  0  0  0  0  3  0  0  0  0  0  0
  161.7360  207.7560  149.5860 C   0  0  0  0  0  0  0  0  0  0  0  0
  161.7370  209.1890  149.4660 N   0  0  0  0  0  0  0  0  0  0  0  0
  162.1130  209.3880  151.8480 C   0  0  0  0  0  0  0  0  0  0  0  0
  160.6400  202.7970  149.1190 C   0  0  1  0  0  3  0  0  0  0  0  0
  161.7840  205.4610  148.6300 C   0  0  2  0  0  3  0  0  0  0  0  0
  161.0420  203.7180  150.2430 C   0  0  0  0  0  3  0  0  0  0  0  0
  161.2050  203.2140  147.7600 C   0  0  0  0  0  2  0  0  0  0  0  0
  161.8990  211.4870  150.5220 C   0  0  0  0  0  2  0  0  0  0  0  0
  161.9510  209.9880  150.6500 C   0  0  0  0  0  0  0  0  0  0  0  0
  161.7390  205.7960  151.1180 O   0  0  0  0  0  0  0  0  0  0  0  0
  162.0560  207.9530  151.9580 N   0  0  0  0  0  0  0  0  0  0  0  0
  160.9970  201.3830  149.4360 C   0  0  0  0  0  0  0  0  0  0  0  0
  160.5630  200.8400  150.4900 O   0  0  0  0  0  0  0  0  0  0  0  0
  161.8100  200.6740  148.5530 O   0  0  0  0  0  0  0  0  0  0  0  0
  161.3170  200.1720  147.3190 C   0  0  0  0  0  1  0  0  0  0  0  0
  162.3040  210.1900  153.1000 C   0  0  0  0  0  2  0  0  0  0  0  0
  160.0030  207.3600  156.3180 C   0  0  0  0  0  1  0  0  0  0  0  0
  161.0900  208.8770  154.7060 N   0  0  0  0  0  0  0  0  0  0  0  0
  160.1950  210.9630  154.0990 C   0  0  0  0  0  0  0  0  0  0  0  0
  159.1120  210.7540  154.9510 C   0  0  0  0  0  3  0  0  0  0  0  0
  159.0390  209.5740  155.6850 C   0  0  0  0  0  3  0  0  0  0  0  0
  160.0540  208.6300  155.5490 C   0  0  0  0  0  0  0  0  0  0  0  0
  160.2640  212.0330  153.4360 O   0  0  0  0  0  0  0  0  0  0  0  0
  161.1690  210.0080  153.9970 N   0  0  0  0  0  0  0  0  0  0  0  0
  1  7  1  6  0  0  0
  1 15  1  0  0  0  0
  1 13  1  0  0  0  0
  2 18  1  0  0  0  0
  2 19  2  0  0  0  0
  3  8  2  0  0  0  0
  3  4  1  0  0  0  0
  4 16  1  0  0  0  0
  5 14  2  0  0  0  0
  5 18  1  0  0  0  0
  6  9  2  0  0  0  0
  8 10  1  0  0  0  0
  9  2  1  0  0  0  0
 10  9  1  0  0  0  0
 10 17  1  0  0  0  0
 11 19  1  0  0  0  0
 11 24  1  0  0  0  0
 12 20  1  1  0  0  0
 12 14  1  0  0  0  0
 13  6  1  1  0  0  0
 13  5  1  0  0  0  0
 15 12  1  0  0  0  0
 16 17  1  0  0  0  0
 17 11  2  0  0  0  0
 20 21  2  0  0  0  0
 22 20  1  0  0  0  0
 23 22  1  0  0  0  0
 24 32  1  0  0  0  0
 26 30  2  0  0  0  0
 27 28  1  0  0  0  0
 28 29  2  0  0  0  0
 30 29  1  0  0  0  0
 30 25  1  0  0  0  0
 31 27  2  0  0  0  0
 32 27  1  0  0  0  0
 32 26  1  0  0  0  0
M  END
>  <MODEL>
8

>  <REMARK>
 VINA RESULT:      -7.0      2.439      4.212
  Name = 
  4 active torsions:
  status: ('A' for Active; 'I' for Inactive)
    1  A    between atoms: C_1  and  O_10
    2  A    between atoms: C_1  and  C_19
    3  A    between atoms: C_16  and  C_27
    4  A    between atoms: C_27  and  N_32
                            x       y       z     vdW  Elec       q    Type
                         _______ _______ _______ _____ _____    ______ ____

>  <TORSDO>
F 4

$$$$
