=
 OpenBabel11062410333D

 43 47  0  0  1  0  0  0  0  0999 V2000
  161.8340  208.8470  152.2010 N   0  0  0  0  0  0  0  0  0  0  0  0
  161.9970  207.5440  151.6110 C   0  0  0  0  0  0  0  0  0  0  0  0
  162.9640  207.3230  150.8320 O   0  0  0  0  0  0  0  0  0  0  0  0
  158.0810  211.4890  154.9440 C   0  0  0  0  0  0  0  0  0  0  0  0
  159.9140  209.9550  155.1370 C   0  0  0  0  0  0  0  0  0  0  0  0
  158.2750  211.4450  153.4700 C   0  0  0  0  0  3  0  0  0  0  0  0
  156.9590  212.2790  155.5130 C   0  0  0  0  0  1  0  0  0  0  0  0
  160.4700  210.3600  153.8150 C   0  0  2  0  0  3  0  0  0  0  0  0
  158.8290  210.7270  155.7510 C   0  0  0  0  0  3  0  0  0  0  0  0
  159.3600  210.8630  152.9310 C   0  0  0  0  0  3  0  0  0  0  0  0
  161.0610  209.0590  153.3970 C   0  0  0  0  0  0  0  0  0  0  0  0
  160.9480  208.1810  154.3900 C   0  0  0  0  0  3  0  0  0  0  0  0
  160.1890  208.7360  155.4600 N   0  0  0  0  0  0  0  0  0  0  0  0
  160.9760  206.4670  151.8150 C   0  0  0  0  0  2  0  0  0  0  0  0
  161.0560  203.9670  148.9100 C   0  0  0  0  0  0  0  0  0  0  0  0
  161.1330  202.6590  149.6730 C   0  0  2  0  0  3  0  0  0  0  0  0
  160.2180  201.6150  149.0580 C   0  0  0  0  0  1  0  0  0  0  0  0
  160.8780  203.9970  151.7650 C   0  0  0  0  0  3  0  0  0  0  0  0
  160.7500  205.2500  149.6280 C   0  0  0  0  0  2  0  0  0  0  0  0
  161.3540  205.2190  151.0340 C   0  0  1  0  0  3  0  0  0  0  0  0
  161.4250  204.0210  147.6320 C   0  0  0  0  0  2  0  0  0  0  0  0
  160.7790  202.8200  151.1320 C   0  0  0  0  0  3  0  0  0  0  0  0
  162.4100  210.0050  151.5260 C   0  0  0  0  0  2  0  0  0  0  0  0
  161.7190  210.2220  150.1750 C   0  0  0  0  0  2  0  0  0  0  0  0
  161.9690  211.5460  149.5960 N   0  0  0  0  0  0  0  0  0  0  0  0
  160.8660  212.4410  149.9170 C   0  0  0  0  0  1  0  0  0  0  0  0
  162.0540  211.4320  148.1450 C   0  0  0  0  0  2  0  0  0  0  0  0
  162.0070  213.2870  146.4050 N   0  0  0  0  0  2  0  0  0  0  0  0
  162.6250  212.6760  147.5400 C   0  0  0  0  0  0  0  0  0  0  0  0
  163.6840  213.1740  148.0040 O   0  0  0  0  0  0  0  0  0  0  0  0
  160.9000  212.6700  145.6870 C   0  0  1  0  0  3  0  0  0  0  0  0
  159.8910  213.4290  143.5520 C   0  0  0  0  0  3  0  0  0  0  0  0
  159.5710  213.1540  146.2850 C   0  0  0  0  0  2  0  0  0  0  0  0
  158.5100  212.8360  145.4180 O   0  0  0  0  0  0  0  0  0  0  0  0
  160.9790  212.9990  144.2080 C   0  0  0  0  0  0  0  0  0  0  0  0
  158.6260  213.7140  144.3220 C   0  0  0  0  0  2  0  0  0  0  0  0
  162.2290  212.7060  143.4360 C   0  0  0  0  0  2  0  0  0  0  0  0
  161.9280  212.3910  142.0090 C   0  0  0  0  0  0  0  0  0  0  0  0
  161.4200  211.7600  139.3560 C   0  0  0  0  0  3  0  0  0  0  0  0
  160.9410  210.9570  140.3920 C   0  0  0  0  0  3  0  0  0  0  0  0
  162.1650  212.8990  139.6670 C   0  0  0  0  0  3  0  0  0  0  0  0
  161.2030  211.2860  141.6860 N   0  0  0  0  0  0  0  0  0  0  0  0
  162.4240  213.2190  141.0000 C   0  0  0  0  0  3  0  0  0  0  0  0
  1 11  1  0  0  0  0
  2 14  1  0  0  0  0
  2  1  1  0  0  0  0
  3  2  2  0  0  0  0
  4  7  1  0  0  0  0
  4  9  2  0  0  0  0
  5 13  2  0  0  0  0
  5  9  1  0  0  0  0
  6  4  1  0  0  0  0
  8 10  1  6  0  0  0
  8  5  1  0  0  0  0
 10  6  2  0  0  0  0
 11  8  1  0  0  0  0
 11 12  2  0  0  0  0
 12 13  1  0  0  0  0
 15 19  1  0  0  0  0
 15 16  1  0  0  0  0
 16 17  1  6  0  0  0
 16 22  1  0  0  0  0
 19 20  1  0  0  0  0
 20 18  1  0  0  0  0
 20 14  1  1  0  0  0
 21 15  2  0  0  0  0
 22 18  2  0  0  0  0
 23  1  1  0  0  0  0
 24 23  1  0  0  0  0
 25 26  1  0  0  0  0
 25 24  1  0  0  0  0
 27 25  1  0  0  0  0
 28 29  1  0  0  0  0
 29 30  2  0  0  0  0
 29 27  1  0  0  0  0
 31 33  1  0  0  0  0
 31 28  1  1  0  0  0
 32 35  2  0  0  0  0
 32 36  1  0  0  0  0
 34 33  1  0  0  0  0
 35 31  1  0  0  0  0
 36 34  1  0  0  0  0
 37 35  1  0  0  0  0
 38 37  1  0  0  0  0
 39 41  2  0  0  0  0
 39 40  1  0  0  0  0
 40 42  2  0  0  0  0
 41 43  1  0  0  0  0
 42 38  1  0  0  0  0
 43 38  2  0  0  0  0
M  END
>  <MODEL>
1

>  <REMARK>
 VINA RESULT:      -8.8      0.000      0.000
  Name = 
  11 active torsions:
  status: ('A' for Active; 'I' for Inactive)
    1  A    between atoms: C_1  and  C_34
    2  A    between atoms: C_1  and  C_35
    3  A    between atoms: N_2  and  C_6
    4  A    between atoms: N_2  and  C_13
    5  A    between atoms: N_3  and  C_4
    6  A    between atoms: C_6  and  C_12
    7  A    between atoms: N_8  and  C_27
    8  A    between atoms: N_8  and  C_30
    9  A    between atoms: C_11  and  C_14
   10  A    between atoms: C_13  and  C_27
   11  A    between atoms: C_14  and  C_41
                            x       y       z     vdW  Elec       q    Type
                         _______ _______ _______ _____ _____    ______ ____

>  <TORSDO>
F 11

$$$$
=
 OpenBabel11062410333D

 43 47  0  0  1  0  0  0  0  0999 V2000
  161.3830  208.0480  150.5700 N   0  0  0  0  0  0  0  0  0  0  0  0
  162.1510  209.2030  150.1840 C   0  0  0  0  0  0  0  0  0  0  0  0
  162.6130  209.9740  151.0680 O   0  0  0  0  0  0  0  0  0  0  0  0
  160.8110  202.7900  149.7790 C   0  0  0  0  0  0  0  0  0  0  0  0
  161.2940  204.8790  148.7040 C   0  0  0  0  0  0  0  0  0  0  0  0
  160.5900  203.5560  151.0350 C   0  0  0  0  0  3  0  0  0  0  0  0
  160.5820  201.3230  149.7640 C   0  0  0  0  0  1  0  0  0  0  0  0
  161.6580  205.5280  149.9940 C   0  0  2  0  0  3  0  0  0  0  0  0
  161.0920  203.4280  148.6360 C   0  0  0  0  0  3  0  0  0  0  0  0
  160.9260  204.8540  151.1250 C   0  0  0  0  0  3  0  0  0  0  0  0
  161.2060  206.9160  149.6980 C   0  0  0  0  0  0  0  0  0  0  0  0
  160.8110  206.9920  148.4300 C   0  0  0  0  0  3  0  0  0  0  0  0
  160.8260  205.7020  147.8270 N   0  0  0  0  0  0  0  0  0  0  0  0
  162.3220  209.5740  148.7440 C   0  0  0  0  0  2  0  0  0  0  0  0
  160.4640  212.4030  146.9440 C   0  0  0  0  0  0  0  0  0  0  0  0
  161.3750  213.5750  147.2540 C   0  0  2  0  0  3  0  0  0  0  0  0
  161.5690  214.4520  146.0300 C   0  0  0  0  0  1  0  0  0  0  0  0
  162.9230  211.9360  148.3270 C   0  0  0  0  0  3  0  0  0  0  0  0
  160.9050  210.9970  147.2320 C   0  0  0  0  0  2  0  0  0  0  0  0
  161.7830  210.9720  148.4850 C   0  0  1  0  0  3  0  0  0  0  0  0
  159.2020  212.6150  146.5750 C   0  0  0  0  0  2  0  0  0  0  0  0
  162.7290  213.1350  147.7590 C   0  0  0  0  0  3  0  0  0  0  0  0
  160.7000  208.0510  151.8590 C   0  0  0  0  0  2  0  0  0  0  0  0
  161.7190  207.8900  152.9930 C   0  0  0  0  0  2  0  0  0  0  0  0
  161.1930  208.2610  154.3100 N   0  0  0  0  0  0  0  0  0  0  0  0
  160.4680  207.1370  154.8860 C   0  0  0  0  0  1  0  0  0  0  0  0
  160.2630  209.3750  154.1640 C   0  0  0  0  0  2  0  0  0  0  0  0
  159.9180  211.6890  155.1610 N   0  0  0  0  0  2  0  0  0  0  0  0
  160.7910  210.6080  154.8290 C   0  0  0  0  0  0  0  0  0  0  0  0
  162.0230  210.7180  155.0660 O   0  0  0  0  0  0  0  0  0  0  0  0
  158.5220  211.7280  154.7470 C   0  0  1  0  0  3  0  0  0  0  0  0
  156.8310  213.4450  155.3350 C   0  0  0  0  0  3  0  0  0  0  0  0
  157.6880  210.8380  155.6800 C   0  0  0  0  0  2  0  0  0  0  0  0
  156.3190  211.1110  155.5060 O   0  0  0  0  0  0  0  0  0  0  0  0
  158.0060  213.1540  154.7550 C   0  0  0  0  0  0  0  0  0  0  0  0
  156.0950  212.3720  156.0940 C   0  0  0  0  0  2  0  0  0  0  0  0
  158.7270  214.2210  153.9910 C   0  0  0  0  0  2  0  0  0  0  0  0
  158.5620  214.0460  152.5190 C   0  0  0  0  0  0  0  0  0  0  0  0
  158.2240  213.6590  149.7920 C   0  0  0  0  0  3  0  0  0  0  0  0
  157.1750  214.1170  150.5900 C   0  0  0  0  0  3  0  0  0  0  0  0
  159.4620  213.3940  150.3820 C   0  0  0  0  0  3  0  0  0  0  0  0
  157.3630  214.2990  151.9260 N   0  0  0  0  0  0  0  0  0  0  0  0
  159.6360  213.5870  151.7530 C   0  0  0  0  0  3  0  0  0  0  0  0
  1 23  1  0  0  0  0
  2  1  1  0  0  0  0
  2  3  2  0  0  0  0
  4  6  1  0  0  0  0
  5  8  1  0  0  0  0
  6 10  2  0  0  0  0
  7  4  1  0  0  0  0
  8 10  1  1  0  0  0
  9  5  1  0  0  0  0
  9  4  2  0  0  0  0
 11  8  1  0  0  0  0
 11  1  1  0  0  0  0
 12 11  2  0  0  0  0
 13 12  1  0  0  0  0
 13  5  2  0  0  0  0
 14  2  1  0  0  0  0
 15 19  1  0  0  0  0
 15 16  1  0  0  0  0
 16 17  1  6  0  0  0
 16 22  1  0  0  0  0
 18 20  1  0  0  0  0
 19 20  1  0  0  0  0
 20 14  1  6  0  0  0
 21 15  2  0  0  0  0
 22 18  2  0  0  0  0
 23 24  1  0  0  0  0
 24 25  1  0  0  0  0
 25 26  1  0  0  0  0
 27 25  1  0  0  0  0
 27 29  1  0  0  0  0
 29 30  2  0  0  0  0
 29 28  1  0  0  0  0
 31 35  1  0  0  0  0
 31 28  1  1  0  0  0
 31 33  1  0  0  0  0
 32 36  1  0  0  0  0
 34 33  1  0  0  0  0
 34 36  1  0  0  0  0
 35 32  2  0  0  0  0
 37 35  1  0  0  0  0
 38 37  1  0  0  0  0
 39 41  2  0  0  0  0
 39 40  1  0  0  0  0
 40 42  2  0  0  0  0
 41 43  1  0  0  0  0
 42 38  1  0  0  0  0
 43 38  2  0  0  0  0
M  END
>  <MODEL>
2

>  <REMARK>
 VINA RESULT:      -8.1      3.316      8.949
  Name = 
  11 active torsions:
  status: ('A' for Active; 'I' for Inactive)
    1  A    between atoms: C_1  and  C_34
    2  A    between atoms: C_1  and  C_35
    3  A    between atoms: N_2  and  C_6
    4  A    between atoms: N_2  and  C_13
    5  A    between atoms: N_3  and  C_4
    6  A    between atoms: C_6  and  C_12
    7  A    between atoms: N_8  and  C_27
    8  A    between atoms: N_8  and  C_30
    9  A    between atoms: C_11  and  C_14
   10  A    between atoms: C_13  and  C_27
   11  A    between atoms: C_14  and  C_41
                            x       y       z     vdW  Elec       q    Type
                         _______ _______ _______ _____ _____    ______ ____

>  <TORSDO>
F 11

$$$$
=
 OpenBabel11062410333D

 43 47  0  0  1  0  0  0  0  0999 V2000
  161.3080  212.4980  148.4030 N   0  0  0  0  0  0  0  0  0  0  0  0
  160.5280  213.1210  149.4400 C   0  0  0  0  0  0  0  0  0  0  0  0
  161.0680  213.4210  150.5400 O   0  0  0  0  0  0  0  0  0  0  0  0
  162.3370  213.5470  143.2620 C   0  0  0  0  0  0  0  0  0  0  0  0
  160.5940  213.0800  144.8420 C   0  0  0  0  0  0  0  0  0  0  0  0
  163.3110  213.3500  144.3680 C   0  0  0  0  0  3  0  0  0  0  0  0
  162.8310  213.8190  141.8880 C   0  0  0  0  0  1  0  0  0  0  0  0
  161.4540  213.4650  145.9960 C   0  0  2  0  0  3  0  0  0  0  0  0
  161.0270  213.3590  143.4700 C   0  0  0  0  0  3  0  0  0  0  0  0
  162.9020  213.2480  145.6440 C   0  0  0  0  0  3  0  0  0  0  0  0
  160.9130  212.5290  147.0200 C   0  0  0  0  0  0  0  0  0  0  0  0
  159.8680  211.8790  146.5160 C   0  0  0  0  0  3  0  0  0  0  0  0
  159.7020  212.1950  145.1370 N   0  0  0  0  0  0  0  0  0  0  0  0
  159.0530  213.3250  149.2850 C   0  0  0  0  0  2  0  0  0  0  0  0
  157.7260  213.1650  152.8780 C   0  0  0  0  0  0  0  0  0  0  0  0
  156.5680  214.1400  152.7890 C   0  0  2  0  0  3  0  0  0  0  0  0
  155.3490  213.6050  153.5180 C   0  0  0  0  0  1  0  0  0  0  0  0
  157.0430  214.3020  150.3440 C   0  0  0  0  0  3  0  0  0  0  0  0
  158.4200  212.6920  151.6340 C   0  0  0  0  0  2  0  0  0  0  0  0
  158.4400  213.8100  150.5890 C   0  0  1  0  0  3  0  0  0  0  0  0
  158.2500  212.8520  154.0610 C   0  0  0  0  0  2  0  0  0  0  0  0
  156.1850  214.4530  151.3620 C   0  0  0  0  0  3  0  0  0  0  0  0
  162.5020  211.7460  148.7730 C   0  0  0  0  0  2  0  0  0  0  0  0
  162.1320  210.2890  149.0760 C   0  0  0  0  0  2  0  0  0  0  0  0
  161.9760  210.0110  150.5070 N   0  0  0  0  0  0  0  0  0  0  0  0
  163.0350  210.6710  151.2570 C   0  0  0  0  0  1  0  0  0  0  0  0
  162.0850  208.5750  150.7350 C   0  0  0  0  0  2  0  0  0  0  0  0
  160.8080  206.6950  151.8780 N   0  0  0  0  0  2  0  0  0  0  0  0
  161.0030  208.0920  151.6510 C   0  0  0  0  0  0  0  0  0  0  0  0
  160.2260  208.9170  152.1990 O   0  0  0  0  0  0  0  0  0  0  0  0
  161.5300  205.6700  151.1350 C   0  0  1  0  0  3  0  0  0  0  0  0
  160.6060  204.1320  149.4210 C   0  0  0  0  0  3  0  0  0  0  0  0
  161.6160  204.3920  151.9820 C   0  0  0  0  0  2  0  0  0  0  0  0
  162.0120  203.3080  151.1770 O   0  0  0  0  0  0  0  0  0  0  0  0
  160.8440  205.3950  149.8100 C   0  0  0  0  0  0  0  0  0  0  0  0
  160.9010  202.9980  150.3690 C   0  0  0  0  0  2  0  0  0  0  0  0
  160.5610  206.5170  148.8600 C   0  0  0  0  0  2  0  0  0  0  0  0
  160.9890  206.1790  147.4720 C   0  0  0  0  0  0  0  0  0  0  0  0
  161.7560  205.4880  144.8960 C   0  0  0  0  0  3  0  0  0  0  0  0
  160.4560  205.9150  145.1710 C   0  0  0  0  0  3  0  0  0  0  0  0
  162.6810  205.4100  145.9400 C   0  0  0  0  0  3  0  0  0  0  0  0
  160.1020  206.2480  146.4420 N   0  0  0  0  0  0  0  0  0  0  0  0
  162.2990  205.7550  147.2360 C   0  0  0  0  0  3  0  0  0  0  0  0
  1 23  1  0  0  0  0
  1  2  1  0  0  0  0
  2  3  2  0  0  0  0
  4  9  2  0  0  0  0
  4  6  1  0  0  0  0
  5 13  2  0  0  0  0
  5  8  1  0  0  0  0
  6 10  2  0  0  0  0
  7  4  1  0  0  0  0
  8 10  1  6  0  0  0
  8 11  1  0  0  0  0
  9  5  1  0  0  0  0
 11  1  1  0  0  0  0
 12 11  2  0  0  0  0
 13 12  1  0  0  0  0
 14  2  1  0  0  0  0
 15 21  2  0  0  0  0
 16 15  1  0  0  0  0
 16 17  1  1  0  0  0
 18 20  1  0  0  0  0
 18 22  2  0  0  0  0
 19 15  1  0  0  0  0
 20 14  1  6  0  0  0
 20 19  1  0  0  0  0
 22 16  1  0  0  0  0
 23 24  1  0  0  0  0
 24 25  1  0  0  0  0
 25 27  1  0  0  0  0
 25 26  1  0  0  0  0
 27 29  1  0  0  0  0
 29 28  1  0  0  0  0
 29 30  2  0  0  0  0
 31 28  1  1  0  0  0
 31 33  1  0  0  0  0
 32 35  2  0  0  0  0
 32 36  1  0  0  0  0
 34 33  1  0  0  0  0
 35 31  1  0  0  0  0
 36 34  1  0  0  0  0
 37 35  1  0  0  0  0
 38 37  1  0  0  0  0
 39 40  2  0  0  0  0
 39 41  1  0  0  0  0
 40 42  1  0  0  0  0
 41 43  2  0  0  0  0
 42 38  2  0  0  0  0
 43 38  1  0  0  0  0
M  END
>  <MODEL>
3

>  <REMARK>
 VINA RESULT:      -7.3      2.380      9.328
  Name = 
  11 active torsions:
  status: ('A' for Active; 'I' for Inactive)
    1  A    between atoms: C_1  and  C_34
    2  A    between atoms: C_1  and  C_35
    3  A    between atoms: N_2  and  C_6
    4  A    between atoms: N_2  and  C_13
    5  A    between atoms: N_3  and  C_4
    6  A    between atoms: C_6  and  C_12
    7  A    between atoms: N_8  and  C_27
    8  A    between atoms: N_8  and  C_30
    9  A    between atoms: C_11  and  C_14
   10  A    between atoms: C_13  and  C_27
   11  A    between atoms: C_14  and  C_41
                            x       y       z     vdW  Elec       q    Type
                         _______ _______ _______ _____ _____    ______ ____

>  <TORSDO>
F 11

$$$$
=
 OpenBabel11062410333D

 43 47  0  0  1  0  0  0  0  0999 V2000
  161.8570  209.5180  150.9660 N   0  0  0  0  0  0  0  0  0  0  0  0
  161.7930  208.2450  150.2970 C   0  0  0  0  0  0  0  0  0  0  0  0
  162.5470  208.0130  149.3130 O   0  0  0  0  0  0  0  0  0  0  0  0
  158.6860  211.9480  154.5200 C   0  0  0  0  0  0  0  0  0  0  0  0
  160.6260  210.5600  154.2720 C   0  0  0  0  0  0  0  0  0  0  0  0
  158.5210  211.8790  153.0440 C   0  0  0  0  0  3  0  0  0  0  0  0
  157.6770  212.6680  155.3390 C   0  0  0  0  0  1  0  0  0  0  0  0
  160.8110  210.9680  152.8520 C   0  0  2  0  0  3  0  0  0  0  0  0
  159.6660  211.2650  155.1260 C   0  0  0  0  0  3  0  0  0  0  0  0
  159.4840  211.3650  152.2610 C   0  0  0  0  0  3  0  0  0  0  0  0
  161.3830  209.7040  152.3130 C   0  0  0  0  0  0  0  0  0  0  0  0
  161.5830  208.8470  153.3110 C   0  0  0  0  0  3  0  0  0  0  0  0
  161.0650  209.3730  154.5280 N   0  0  0  0  0  0  0  0  0  0  0  0
  160.7680  207.2210  150.6750 C   0  0  0  0  0  2  0  0  0  0  0  0
  161.1060  204.0880  148.4920 C   0  0  0  0  0  0  0  0  0  0  0  0
  161.1400  203.0100  149.5580 C   0  0  2  0  0  3  0  0  0  0  0  0
  160.2890  201.8190  149.1560 C   0  0  0  0  0  1  0  0  0  0  0  0
  160.7060  204.8120  151.2310 C   0  0  0  0  0  3  0  0  0  0  0  0
  160.7280  205.4970  148.8460 C   0  0  0  0  0  2  0  0  0  0  0  0
  161.2210  205.8310  150.2560 C   0  0  1  0  0  3  0  0  0  0  0  0
  161.5730  203.8380  147.2700 C   0  0  0  0  0  2  0  0  0  0  0  0
  160.6710  203.5130  150.9030 C   0  0  0  0  0  3  0  0  0  0  0  0
  162.3520  210.6770  150.2330 C   0  0  0  0  0  2  0  0  0  0  0  0
  161.3410  211.0880  149.1560 C   0  0  0  0  0  2  0  0  0  0  0  0
  161.7030  212.3220  148.4520 N   0  0  0  0  0  0  0  0  0  0  0  0
  161.0690  213.4630  149.0990 C   0  0  0  0  0  1  0  0  0  0  0  0
  161.2230  212.2550  147.0780 C   0  0  0  0  0  2  0  0  0  0  0  0
  159.6970  213.8650  145.8330 N   0  0  0  0  0  2  0  0  0  0  0  0
  159.9180  212.9740  146.9280 C   0  0  0  0  0  0  0  0  0  0  0  0
  159.0160  212.8290  147.7940 O   0  0  0  0  0  0  0  0  0  0  0  0
  160.7520  214.2410  144.9010 C   0  0  1  0  0  3  0  0  0  0  0  0
  162.1020  212.7250  143.4740 C   0  0  0  0  0  3  0  0  0  0  0  0
  162.0720  214.4110  145.6670 C   0  0  0  0  0  2  0  0  0  0  0  0
  163.1490  214.4520  144.7630 O   0  0  0  0  0  0  0  0  0  0  0  0
  160.8900  213.1980  143.8090 C   0  0  0  0  0  0  0  0  0  0  0  0
  163.3050  213.1370  144.2820 C   0  0  0  0  0  2  0  0  0  0  0  0
  159.7000  212.7950  142.9950 C   0  0  0  0  0  2  0  0  0  0  0  0
  160.0480  212.6500  141.5510 C   0  0  0  0  0  0  0  0  0  0  0  0
  160.6300  212.3820  138.8520 C   0  0  0  0  0  3  0  0  0  0  0  0
  160.3200  213.6270  139.4020 C   0  0  0  0  0  3  0  0  0  0  0  0
  160.6460  211.2570  139.6800 C   0  0  0  0  0  3  0  0  0  0  0  0
  160.0380  213.7350  140.7290 N   0  0  0  0  0  0  0  0  0  0  0  0
  160.3540  211.3880  141.0380 C   0  0  0  0  0  3  0  0  0  0  0  0
  1 11  1  0  0  0  0
  2 14  1  0  0  0  0
  2  1  1  0  0  0  0
  3  2  2  0  0  0  0
  4  9  2  0  0  0  0
  4  7  1  0  0  0  0
  5 13  2  0  0  0  0
  5  9  1  0  0  0  0
  6  4  1  0  0  0  0
  8 10  1  6  0  0  0
  8  5  1  0  0  0  0
 10  6  2  0  0  0  0
 11  8  1  0  0  0  0
 11 12  2  0  0  0  0
 12 13  1  0  0  0  0
 15 19  1  0  0  0  0
 15 16  1  0  0  0  0
 16 17  1  6  0  0  0
 16 22  1  0  0  0  0
 19 20  1  0  0  0  0
 20 14  1  1  0  0  0
 20 18  1  0  0  0  0
 21 15  2  0  0  0  0
 22 18  2  0  0  0  0
 23  1  1  0  0  0  0
 24 23  1  0  0  0  0
 25 26  1  0  0  0  0
 25 24  1  0  0  0  0
 27 25  1  0  0  0  0
 28 29  1  0  0  0  0
 29 27  1  0  0  0  0
 29 30  2  0  0  0  0
 31 33  1  0  0  0  0
 31 28  1  1  0  0  0
 32 35  2  0  0  0  0
 32 36  1  0  0  0  0
 34 33  1  0  0  0  0
 35 31  1  0  0  0  0
 36 34  1  0  0  0  0
 37 35  1  0  0  0  0
 38 37  1  0  0  0  0
 39 40  2  0  0  0  0
 39 41  1  0  0  0  0
 40 42  1  0  0  0  0
 41 43  2  0  0  0  0
 42 38  2  0  0  0  0
 43 38  1  0  0  0  0
M  END
>  <MODEL>
4

>  <REMARK>
 VINA RESULT:      -6.9      1.411      2.026
  Name = 
  11 active torsions:
  status: ('A' for Active; 'I' for Inactive)
    1  A    between atoms: C_1  and  C_34
    2  A    between atoms: C_1  and  C_35
    3  A    between atoms: N_2  and  C_6
    4  A    between atoms: N_2  and  C_13
    5  A    between atoms: N_3  and  C_4
    6  A    between atoms: C_6  and  C_12
    7  A    between atoms: N_8  and  C_27
    8  A    between atoms: N_8  and  C_30
    9  A    between atoms: C_11  and  C_14
   10  A    between atoms: C_13  and  C_27
   11  A    between atoms: C_14  and  C_41
                            x       y       z     vdW  Elec       q    Type
                         _______ _______ _______ _____ _____    ______ ____

>  <TORSDO>
F 11

$$$$
=
 OpenBabel11062410333D

 43 47  0  0  1  0  0  0  0  0999 V2000
  160.9000  209.3920  154.2380 N   0  0  0  0  0  0  0  0  0  0  0  0
  160.9140  210.1210  155.4790 C   0  0  0  0  0  0  0  0  0  0  0  0
  160.8970  209.4980  156.5750 O   0  0  0  0  0  0  0  0  0  0  0  0
  160.3410  212.8710  150.2170 C   0  0  0  0  0  0  0  0  0  0  0  0
  161.4910  210.8920  150.9320 C   0  0  0  0  0  0  0  0  0  0  0  0
  159.7130  212.9220  151.5640 C   0  0  0  0  0  3  0  0  0  0  0  0
  160.0650  213.9530  149.2370 C   0  0  0  0  0  1  0  0  0  0  0  0
  160.4730  210.6060  151.9810 C   0  0  2  0  0  3  0  0  0  0  0  0
  161.2450  211.9280  149.9240 C   0  0  0  0  0  3  0  0  0  0  0  0
  159.8230  211.8920  152.4200 C   0  0  0  0  0  3  0  0  0  0  0  0
  161.3520  209.9710  153.0000 C   0  0  0  0  0  0  0  0  0  0  0  0
  162.5780  209.8310  152.5020 C   0  0  0  0  0  3  0  0  0  0  0  0
  162.6680  210.4510  151.2230 N   0  0  0  0  0  0  0  0  0  0  0  0
  160.8360  211.6170  155.5000 C   0  0  0  0  0  2  0  0  0  0  0  0
  157.0100  211.8530  155.5200 C   0  0  0  0  0  0  0  0  0  0  0  0
  156.8250  213.3220  155.8470 C   0  0  2  0  0  3  0  0  0  0  0  0
  155.7280  213.9350  154.9950 C   0  0  0  0  0  1  0  0  0  0  0  0
  159.3060  213.5500  155.6940 C   0  0  0  0  0  3  0  0  0  0  0  0
  158.3640  211.3190  155.1530 C   0  0  0  0  0  2  0  0  0  0  0  0
  159.4490  212.0730  155.9250 C   0  0  1  0  0  3  0  0  0  0  0  0
  156.0150  210.9900  155.7190 C   0  0  0  0  0  2  0  0  0  0  0  0
  158.0930  214.1190  155.6590 C   0  0  0  0  0  3  0  0  0  0  0  0
  160.3430  208.0440  154.2170 C   0  0  0  0  0  2  0  0  0  0  0  0
  161.4420  207.0260  153.8910 C   0  0  0  0  0  2  0  0  0  0  0  0
  161.0540  206.0540  152.8650 N   0  0  0  0  0  0  0  0  0  0  0  0
  161.2080  204.7020  153.3830 C   0  0  0  0  0  1  0  0  0  0  0  0
  161.9270  206.1980  151.7060 C   0  0  0  0  0  2  0  0  0  0  0  0
  160.7400  205.3090  149.6400 N   0  0  0  0  0  2  0  0  0  0  0  0
  161.1310  206.4140  150.4560 C   0  0  0  0  0  0  0  0  0  0  0  0
  160.8350  207.5820  150.0920 O   0  0  0  0  0  0  0  0  0  0  0  0
  161.2080  203.9500  149.8800 C   0  0  1  0  0  3  0  0  0  0  0  0
  160.9980  202.0020  148.3590 C   0  0  0  0  0  3  0  0  0  0  0  0
  160.1640  203.1910  150.7120 C   0  0  0  0  0  2  0  0  0  0  0  0
  160.4350  201.8110  150.6800 O   0  0  0  0  0  0  0  0  0  0  0  0
  161.4720  203.2400  148.5660 C   0  0  0  0  0  0  0  0  0  0  0  0
  160.0890  201.3760  149.3850 C   0  0  0  0  0  2  0  0  0  0  0  0
  162.3840  203.8520  147.5480 C   0  0  0  0  0  2  0  0  0  0  0  0
  161.6180  204.5440  146.4720 C   0  0  0  0  0  0  0  0  0  0  0  0
  160.1350  205.8260  144.5090 C   0  0  0  0  0  3  0  0  0  0  0  0
  160.5670  206.5100  145.6470 C   0  0  0  0  0  3  0  0  0  0  0  0
  160.4590  204.4760  144.3620 C   0  0  0  0  0  3  0  0  0  0  0  0
  161.2930  205.8600  146.5980 N   0  0  0  0  0  0  0  0  0  0  0  0
  161.2040  203.8280  145.3480 C   0  0  0  0  0  3  0  0  0  0  0  0
  1  2  1  0  0  0  0
  2 14  1  0  0  0  0
  2  3  2  0  0  0  0
  4  6  1  0  0  0  0
  5 13  2  0  0  0  0
  5  8  1  0  0  0  0
  6 10  2  0  0  0  0
  7  4  1  0  0  0  0
  8 10  1  1  0  0  0
  8 11  1  0  0  0  0
  9  4  2  0  0  0  0
  9  5  1  0  0  0  0
 11  1  1  0  0  0  0
 12 11  2  0  0  0  0
 13 12  1  0  0  0  0
 15 21  2  0  0  0  0
 15 16  1  0  0  0  0
 16 17  1  6  0  0  0
 18 20  1  0  0  0  0
 19 15  1  0  0  0  0
 19 20  1  0  0  0  0
 20 14  1  6  0  0  0
 22 18  2  0  0  0  0
 22 16  1  0  0  0  0
 23  1  1  0  0  0  0
 24 23  1  0  0  0  0
 25 26  1  0  0  0  0
 25 24  1  0  0  0  0
 27 25  1  0  0  0  0
 28 29  1  0  0  0  0
 29 27  1  0  0  0  0
 30 29  2  0  0  0  0
 31 28  1  6  0  0  0
 31 33  1  0  0  0  0
 32 35  2  0  0  0  0
 32 36  1  0  0  0  0
 34 33  1  0  0  0  0
 35 31  1  0  0  0  0
 36 34  1  0  0  0  0
 37 35  1  0  0  0  0
 38 42  1  0  0  0  0
 38 37  1  0  0  0  0
 39 40  1  0  0  0  0
 40 42  2  0  0  0  0
 41 39  2  0  0  0  0
 41 43  1  0  0  0  0
 43 38  2  0  0  0  0
M  END
>  <MODEL>
5

>  <REMARK>
 VINA RESULT:      -6.7      4.014      8.467
  Name = 
  11 active torsions:
  status: ('A' for Active; 'I' for Inactive)
    1  A    between atoms: C_1  and  C_34
    2  A    between atoms: C_1  and  C_35
    3  A    between atoms: N_2  and  C_6
    4  A    between atoms: N_2  and  C_13
    5  A    between atoms: N_3  and  C_4
    6  A    between atoms: C_6  and  C_12
    7  A    between atoms: N_8  and  C_27
    8  A    between atoms: N_8  and  C_30
    9  A    between atoms: C_11  and  C_14
   10  A    between atoms: C_13  and  C_27
   11  A    between atoms: C_14  and  C_41
                            x       y       z     vdW  Elec       q    Type
                         _______ _______ _______ _____ _____    ______ ____

>  <TORSDO>
F 11

$$$$
=
 OpenBabel11062410333D

 43 47  0  0  1  0  0  0  0  0999 V2000
  160.0860  211.7830  153.7690 N   0  0  0  0  0  0  0  0  0  0  0  0
  160.0230  212.3400  152.4430 C   0  0  0  0  0  0  0  0  0  0  0  0
  160.1870  211.5940  151.4390 O   0  0  0  0  0  0  0  0  0  0  0  0
  155.8280  213.7120  156.3650 C   0  0  0  0  0  0  0  0  0  0  0  0
  158.2250  213.7150  156.2850 C   0  0  0  0  0  0  0  0  0  0  0  0
  155.8510  212.7220  155.2550 C   0  0  0  0  0  3  0  0  0  0  0  0
  154.5290  214.1110  156.9650 C   0  0  0  0  0  1  0  0  0  0  0  0
  158.2390  213.2400  154.8740 C   0  0  2  0  0  3  0  0  0  0  0  0
  156.9710  214.1510  156.9070 C   0  0  0  0  0  3  0  0  0  0  0  0
  156.9880  212.4490  154.5930 C   0  0  0  0  0  3  0  0  0  0  0  0
  159.4920  212.4360  154.9060 C   0  0  0  0  0  0  0  0  0  0  0  0
  160.0860  212.5880  156.0870 C   0  0  0  0  0  3  0  0  0  0  0  0
  159.2630  213.3550  156.9610 N   0  0  0  0  0  0  0  0  0  0  0  0
  159.8750  213.8140  152.2280 C   0  0  0  0  0  2  0  0  0  0  0  0
  157.0930  213.5470  149.6040 C   0  0  0  0  0  0  0  0  0  0  0  0
  157.8980  213.7020  148.3290 C   0  0  2  0  0  3  0  0  0  0  0  0
  157.4380  212.7170  147.2700 C   0  0  0  0  0  1  0  0  0  0  0  0
  159.9450  213.6950  149.7590 C   0  0  0  0  0  3  0  0  0  0  0  0
  157.7830  213.3320  150.9200 C   0  0  0  0  0  2  0  0  0  0  0  0
  159.1110  214.0920  150.9430 C   0  0  1  0  0  3  0  0  0  0  0  0
  155.7790  213.7680  149.5990 C   0  0  0  0  0  2  0  0  0  0  0  0
  159.3800  213.5180  148.5560 C   0  0  0  0  0  3  0  0  0  0  0  0
  160.8390  210.5520  153.9830 C   0  0  0  0  0  2  0  0  0  0  0  0
  159.8770  209.3870  154.2400 C   0  0  0  0  0  2  0  0  0  0  0  0
  160.5560  208.1070  154.4710 N   0  0  0  0  0  0  0  0  0  0  0  0
  161.2050  208.1210  155.7750 C   0  0  0  0  0  1  0  0  0  0  0  0
  161.5840  207.9140  153.4550 C   0  0  0  0  0  2  0  0  0  0  0  0
  161.3280  206.3600  151.4570 N   0  0  0  0  0  2  0  0  0  0  0  0
  161.5040  206.5400  152.8640 C   0  0  0  0  0  0  0  0  0  0  0  0
  161.5510  205.5290  153.6120 O   0  0  0  0  0  0  0  0  0  0  0  0
  161.0670  207.4690  150.5490 C   0  0  1  0  0  3  0  0  0  0  0  0
  161.9330  207.7510  148.2410 C   0  0  0  0  0  3  0  0  0  0  0  0
  162.0300  208.6230  150.8640 C   0  0  0  0  0  2  0  0  0  0  0  0
  162.0200  209.5580  149.8130 O   0  0  0  0  0  0  0  0  0  0  0  0
  161.2150  207.0190  149.1080 C   0  0  0  0  0  0  0  0  0  0  0  0
  162.7010  208.9470  148.7420 C   0  0  0  0  0  2  0  0  0  0  0  0
  160.4430  205.8400  148.6030 C   0  0  0  0  0  2  0  0  0  0  0  0
  160.8660  205.4600  147.2240 C   0  0  0  0  0  0  0  0  0  0  0  0
  161.5920  204.7220  144.6500 C   0  0  0  0  0  3  0  0  0  0  0  0
  160.7690  205.8260  144.8780 C   0  0  0  0  0  3  0  0  0  0  0  0
  162.0550  203.9810  145.7400 C   0  0  0  0  0  3  0  0  0  0  0  0
  160.4260  206.1690  146.1490 N   0  0  0  0  0  0  0  0  0  0  0  0
  161.6910  204.3490  147.0360 C   0  0  0  0  0  3  0  0  0  0  0  0
  1 23  1  0  0  0  0
  1 11  1  0  0  0  0
  2  1  1  0  0  0  0
  3  2  2  0  0  0  0
  4  9  2  0  0  0  0
  4  7  1  0  0  0  0
  5  9  1  0  0  0  0
  5 13  2  0  0  0  0
  6  4  1  0  0  0  0
  8 10  1  1  0  0  0
  8 11  1  0  0  0  0
  8  5  1  0  0  0  0
 10  6  2  0  0  0  0
 11 12  2  0  0  0  0
 12 13  1  0  0  0  0
 14  2  1  0  0  0  0
 15 19  1  0  0  0  0
 16 17  1  6  0  0  0
 16 22  1  0  0  0  0
 16 15  1  0  0  0  0
 18 20  1  0  0  0  0
 19 20  1  0  0  0  0
 20 14  1  1  0  0  0
 21 15  2  0  0  0  0
 22 18  2  0  0  0  0
 23 24  1  0  0  0  0
 24 25  1  0  0  0  0
 25 26  1  0  0  0  0
 27 25  1  0  0  0  0
 28 29  1  0  0  0  0
 29 27  1  0  0  0  0
 29 30  2  0  0  0  0
 31 33  1  0  0  0  0
 31 28  1  1  0  0  0
 32 36  1  0  0  0  0
 32 35  2  0  0  0  0
 34 33  1  0  0  0  0
 35 31  1  0  0  0  0
 36 34  1  0  0  0  0
 37 35  1  0  0  0  0
 38 37  1  0  0  0  0
 39 40  2  0  0  0  0
 39 41  1  0  0  0  0
 40 42  1  0  0  0  0
 41 43  2  0  0  0  0
 42 38  2  0  0  0  0
 43 38  1  0  0  0  0
M  END
>  <MODEL>
6

>  <REMARK>
 VINA RESULT:      -6.6      4.070      7.534
  Name = 
  11 active torsions:
  status: ('A' for Active; 'I' for Inactive)
    1  A    between atoms: C_1  and  C_34
    2  A    between atoms: C_1  and  C_35
    3  A    between atoms: N_2  and  C_6
    4  A    between atoms: N_2  and  C_13
    5  A    between atoms: N_3  and  C_4
    6  A    between atoms: C_6  and  C_12
    7  A    between atoms: N_8  and  C_27
    8  A    between atoms: N_8  and  C_30
    9  A    between atoms: C_11  and  C_14
   10  A    between atoms: C_13  and  C_27
   11  A    between atoms: C_14  and  C_41
                            x       y       z     vdW  Elec       q    Type
                         _______ _______ _______ _____ _____    ______ ____

>  <TORSDO>
F 11

$$$$
=
 OpenBabel11062410333D

 43 47  0  0  1  0  0  0  0  0999 V2000
  160.5880  211.3140  153.1870 N   0  0  0  0  0  0  0  0  0  0  0  0
  160.1970  212.1890  152.1130 C   0  0  0  0  0  0  0  0  0  0  0  0
  160.3960  211.8450  150.9170 O   0  0  0  0  0  0  0  0  0  0  0  0
  156.3750  211.7580  156.4500 C   0  0  0  0  0  0  0  0  0  0  0  0
  158.7620  211.9440  156.3180 C   0  0  0  0  0  0  0  0  0  0  0  0
  156.3910  211.3040  155.0330 C   0  0  0  0  0  3  0  0  0  0  0  0
  155.0890  211.7970  157.1930 C   0  0  0  0  0  1  0  0  0  0  0  0
  158.7300  212.0810  154.8350 C   0  0  2  0  0  3  0  0  0  0  0  0
  157.5210  212.0120  157.0940 C   0  0  0  0  0  3  0  0  0  0  0  0
  157.5060  211.3930  154.2890 C   0  0  0  0  0  3  0  0  0  0  0  0
  160.0200  211.4130  154.5060 C   0  0  0  0  0  0  0  0  0  0  0  0
  160.6630  211.1140  155.6310 C   0  0  0  0  0  3  0  0  0  0  0  0
  159.8490  211.4080  156.7620 N   0  0  0  0  0  0  0  0  0  0  0  0
  159.6550  213.5580  152.3880 C   0  0  0  0  0  2  0  0  0  0  0  0
  156.8980  213.8390  149.7380 C   0  0  0  0  0  0  0  0  0  0  0  0
  157.7190  214.2290  148.5250 C   0  0  2  0  0  3  0  0  0  0  0  0
  157.2600  213.4740  147.2910 C   0  0  0  0  0  1  0  0  0  0  0  0
  159.7500  213.9200  149.9430 C   0  0  0  0  0  3  0  0  0  0  0  0
  157.5720  213.3650  150.9930 C   0  0  0  0  0  2  0  0  0  0  0  0
  158.9080  214.0900  151.1750 C   0  0  1  0  0  3  0  0  0  0  0  0
  155.5870  214.0730  149.7650 C   0  0  0  0  0  2  0  0  0  0  0  0
  159.1960  213.9860  148.7240 C   0  0  0  0  0  3  0  0  0  0  0  0
  161.6480  210.3400  152.9530 C   0  0  0  0  0  2  0  0  0  0  0  0
  161.0450  208.9450  152.7550 C   0  0  0  0  0  2  0  0  0  0  0  0
  161.7600  208.1330  151.7660 N   0  0  0  0  0  0  0  0  0  0  0  0
  162.2230  208.9790  150.6750 C   0  0  0  0  0  1  0  0  0  0  0  0
  160.8530  207.1340  151.2120 C   0  0  0  0  0  2  0  0  0  0  0  0
  161.5030  204.7970  150.4480 N   0  0  0  0  0  2  0  0  0  0  0  0
  161.3380  205.7470  151.5020 C   0  0  0  0  0  0  0  0  0  0  0  0
  161.5650  205.3950  152.6890 O   0  0  0  0  0  0  0  0  0  0  0  0
  161.0750  205.0580  149.0800 C   0  0  1  0  0  3  0  0  0  0  0  0
  161.9380  203.9940  147.0120 C   0  0  0  0  0  3  0  0  0  0  0  0
  161.8130  206.2930  148.5430 C   0  0  0  0  0  2  0  0  0  0  0  0
  161.6660  206.3700  147.1460 O   0  0  0  0  0  0  0  0  0  0  0  0
  161.3370  203.8480  148.2030 C   0  0  0  0  0  0  0  0  0  0  0  0
  162.4720  205.3450  146.6120 C   0  0  0  0  0  2  0  0  0  0  0  0
  160.7970  202.5060  148.5890 C   0  0  0  0  0  2  0  0  0  0  0  0
  160.8290  201.5540  147.4420 C   0  0  0  0  0  0  0  0  0  0  0  0
  160.8260  199.7580  145.3270 C   0  0  0  0  0  3  0  0  0  0  0  0
  160.1030  200.9500  145.2600 C   0  0  0  0  0  3  0  0  0  0  0  0
  161.5610  199.4710  146.4790 C   0  0  0  0  0  3  0  0  0  0  0  0
  160.1180  201.8160  146.3100 N   0  0  0  0  0  0  0  0  0  0  0  0
  161.5640  200.3710  147.5450 C   0  0  0  0  0  3  0  0  0  0  0  0
  1 11  1  0  0  0  0
  2 14  1  0  0  0  0
  2  1  1  0  0  0  0
  3  2  2  0  0  0  0
  4  9  2  0  0  0  0
  4  7  1  0  0  0  0
  5 13  2  0  0  0  0
  5  9  1  0  0  0  0
  6  4  1  0  0  0  0
  8 10  1  6  0  0  0
  8  5  1  0  0  0  0
 10  6  2  0  0  0  0
 11  8  1  0  0  0  0
 11 12  2  0  0  0  0
 12 13  1  0  0  0  0
 15 21  2  0  0  0  0
 15 19  1  0  0  0  0
 16 17  1  6  0  0  0
 16 22  1  0  0  0  0
 16 15  1  0  0  0  0
 18 20  1  0  0  0  0
 19 20  1  0  0  0  0
 20 14  1  1  0  0  0
 22 18  2  0  0  0  0
 23  1  1  0  0  0  0
 24 23  1  0  0  0  0
 25 24  1  0  0  0  0
 26 25  1  0  0  0  0
 27 29  1  0  0  0  0
 27 25  1  0  0  0  0
 28 29  1  0  0  0  0
 29 30  2  0  0  0  0
 31 28  1  1  0  0  0
 32 35  2  0  0  0  0
 33 31  1  0  0  0  0
 34 33  1  0  0  0  0
 35 37  1  0  0  0  0
 35 31  1  0  0  0  0
 36 32  1  0  0  0  0
 36 34  1  0  0  0  0
 38 43  1  0  0  0  0
 38 37  1  0  0  0  0
 39 41  1  0  0  0  0
 40 39  2  0  0  0  0
 40 42  1  0  0  0  0
 41 43  2  0  0  0  0
 42 38  2  0  0  0  0
M  END
>  <MODEL>
7

>  <REMARK>
 VINA RESULT:      -6.5      4.274      8.433
  Name = 
  11 active torsions:
  status: ('A' for Active; 'I' for Inactive)
    1  A    between atoms: C_1  and  C_34
    2  A    between atoms: C_1  and  C_35
    3  A    between atoms: N_2  and  C_6
    4  A    between atoms: N_2  and  C_13
    5  A    between atoms: N_3  and  C_4
    6  A    between atoms: C_6  and  C_12
    7  A    between atoms: N_8  and  C_27
    8  A    between atoms: N_8  and  C_30
    9  A    between atoms: C_11  and  C_14
   10  A    between atoms: C_13  and  C_27
   11  A    between atoms: C_14  and  C_41
                            x       y       z     vdW  Elec       q    Type
                         _______ _______ _______ _____ _____    ______ ____

>  <TORSDO>
F 11

$$$$
=
 OpenBabel11062410333D

 43 47  0  0  1  0  0  0  0  0999 V2000
  160.0240  211.3160  152.6670 N   0  0  0  0  0  0  0  0  0  0  0  0
  160.1770  211.6870  154.0500 C   0  0  0  0  0  0  0  0  0  0  0  0
  160.8350  210.9470  154.8310 O   0  0  0  0  0  0  0  0  0  0  0  0
  161.1080  213.8320  148.0760 C   0  0  0  0  0  0  0  0  0  0  0  0
  159.7450  213.8830  150.0480 C   0  0  0  0  0  0  0  0  0  0  0  0
  161.6680  212.5450  148.5670 C   0  0  0  0  0  3  0  0  0  0  0  0
  161.5330  214.3590  146.7530 C   0  0  0  0  0  1  0  0  0  0  0  0
  160.6770  212.9890  150.7890 C   0  0  2  0  0  3  0  0  0  0  0  0
  160.1360  214.4530  148.7550 C   0  0  0  0  0  3  0  0  0  0  0  0
  161.4200  212.1120  149.8150 C   0  0  0  0  0  3  0  0  0  0  0  0
  159.6920  212.2740  151.6460 C   0  0  0  0  0  0  0  0  0  0  0  0
  158.4860  212.8080  151.4730 C   0  0  0  0  0  3  0  0  0  0  0  0
  158.5180  213.7850  150.4370 N   0  0  0  0  0  0  0  0  0  0  0  0
  159.4750  212.8840  154.6130 C   0  0  0  0  0  2  0  0  0  0  0  0
  156.0920  211.5910  155.8690 C   0  0  0  0  0  0  0  0  0  0  0  0
  155.9260  212.4250  157.1250 C   0  0  2  0  0  3  0  0  0  0  0  0
  154.5010  212.9340  157.2550 C   0  0  0  0  0  1  0  0  0  0  0  0
  158.0140  213.6230  156.4660 C   0  0  0  0  0  3  0  0  0  0  0  0
  157.1700  211.9160  154.8770 C   0  0  0  0  0  2  0  0  0  0  0  0
  158.4030  212.4580  155.6040 C   0  0  1  0  0  3  0  0  0  0  0  0
  155.3990  210.4640  155.7150 C   0  0  0  0  0  2  0  0  0  0  0  0
  156.8710  213.6020  157.1650 C   0  0  0  0  0  3  0  0  0  0  0  0
  160.1390  209.9100  152.2970 C   0  0  0  0  0  2  0  0  0  0  0  0
  161.5340  209.3850  152.6540 C   0  0  0  0  0  2  0  0  0  0  0  0
  162.0160  208.3390  151.7460 N   0  0  0  0  0  0  0  0  0  0  0  0
  162.3990  208.9290  150.4720 C   0  0  0  0  0  1  0  0  0  0  0  0
  160.9440  207.3810  151.4990 C   0  0  0  0  0  2  0  0  0  0  0  0
  161.5640  205.0420  150.7140 N   0  0  0  0  0  2  0  0  0  0  0  0
  161.3990  205.9820  151.7770 C   0  0  0  0  0  0  0  0  0  0  0  0
  161.6020  205.6090  152.9630 O   0  0  0  0  0  0  0  0  0  0  0  0
  161.1630  205.3300  149.3430 C   0  0  1  0  0  3  0  0  0  0  0  0
  161.9660  204.2090  147.2800 C   0  0  0  0  0  3  0  0  0  0  0  0
  161.9830  206.5140  148.8090 C   0  0  0  0  0  2  0  0  0  0  0  0
  161.8500  206.5990  147.4110 O   0  0  0  0  0  0  0  0  0  0  0  0
  161.3500  204.1050  148.4680 C   0  0  0  0  0  0  0  0  0  0  0  0
  162.5900  205.5230  146.8830 C   0  0  0  0  0  2  0  0  0  0  0  0
  160.7200  202.8010  148.8510 C   0  0  0  0  0  2  0  0  0  0  0  0
  160.8050  201.8070  147.7430 C   0  0  0  0  0  0  0  0  0  0  0  0
  160.8980  199.9350  145.6970 C   0  0  0  0  0  3  0  0  0  0  0  0
  160.2130  201.1410  145.5390 C   0  0  0  0  0  3  0  0  0  0  0  0
  161.5470  199.6730  146.9060 C   0  0  0  0  0  3  0  0  0  0  0  0
  160.1800  202.0440  146.5570 N   0  0  0  0  0  0  0  0  0  0  0  0
  161.5010  200.6120  147.9370 C   0  0  0  0  0  3  0  0  0  0  0  0
  1  2  1  0  0  0  0
  2 14  1  0  0  0  0
  2  3  2  0  0  0  0
  4  6  1  0  0  0  0
  4  9  2  0  0  0  0
  5 13  2  0  0  0  0
  5  8  1  0  0  0  0
  6 10  2  0  0  0  0
  7  4  1  0  0  0  0
  8 10  1  6  0  0  0
  8 11  1  0  0  0  0
  9  5  1  0  0  0  0
 11  1  1  0  0  0  0
 12 11  2  0  0  0  0
 13 12  1  0  0  0  0
 15 16  1  0  0  0  0
 16 22  1  0  0  0  0
 16 17  1  6  0  0  0
 18 22  2  0  0  0  0
 19 20  1  0  0  0  0
 19 15  1  0  0  0  0
 20 14  1  6  0  0  0
 20 18  1  0  0  0  0
 21 15  2  0  0  0  0
 23 24  1  0  0  0  0
 23  1  1  0  0  0  0
 25 24  1  0  0  0  0
 26 25  1  0  0  0  0
 27 25  1  0  0  0  0
 27 29  1  0  0  0  0
 28 29  1  0  0  0  0
 29 30  2  0  0  0  0
 31 28  1  1  0  0  0
 32 35  2  0  0  0  0
 33 31  1  0  0  0  0
 34 33  1  0  0  0  0
 35 37  1  0  0  0  0
 35 31  1  0  0  0  0
 36 32  1  0  0  0  0
 36 34  1  0  0  0  0
 38 43  1  0  0  0  0
 38 37  1  0  0  0  0
 39 41  1  0  0  0  0
 40 39  2  0  0  0  0
 40 42  1  0  0  0  0
 41 43  2  0  0  0  0
 42 38  2  0  0  0  0
M  END
>  <MODEL>
8

>  <REMARK>
 VINA RESULT:      -6.3      3.714      9.154
  Name = 
  11 active torsions:
  status: ('A' for Active; 'I' for Inactive)
    1  A    between atoms: C_1  and  C_34
    2  A    between atoms: C_1  and  C_35
    3  A    between atoms: N_2  and  C_6
    4  A    between atoms: N_2  and  C_13
    5  A    between atoms: N_3  and  C_4
    6  A    between atoms: C_6  and  C_12
    7  A    between atoms: N_8  and  C_27
    8  A    between atoms: N_8  and  C_30
    9  A    between atoms: C_11  and  C_14
   10  A    between atoms: C_13  and  C_27
   11  A    between atoms: C_14  and  C_41
                            x       y       z     vdW  Elec       q    Type
                         _______ _______ _______ _____ _____    ______ ____

>  <TORSDO>
F 11

$$$$
=
 OpenBabel11062410333D

 43 47  0  0  1  0  0  0  0  0999 V2000
  161.6360  209.3930  150.9110 N   0  0  0  0  0  0  0  0  0  0  0  0
  160.9960  210.2800  151.8470 C   0  0  0  0  0  0  0  0  0  0  0  0
  160.6870  211.4500  151.4940 O   0  0  0  0  0  0  0  0  0  0  0  0
  161.2020  204.4600  148.8950 C   0  0  0  0  0  0  0  0  0  0  0  0
  161.1700  205.7450  150.9200 C   0  0  0  0  0  0  0  0  0  0  0  0
  161.5250  205.7190  148.1710 C   0  0  0  0  0  3  0  0  0  0  0  0
  161.1410  203.1780  148.1460 C   0  0  0  0  0  1  0  0  0  0  0  0
  160.8970  207.0100  150.1840 C   0  0  2  0  0  3  0  0  0  0  0  0
  161.0880  204.4540  150.2290 C   0  0  0  0  0  3  0  0  0  0  0  0
  161.4450  206.9120  148.7840 C   0  0  0  0  0  3  0  0  0  0  0  0
  161.6190  207.9630  151.0710 C   0  0  0  0  0  0  0  0  0  0  0  0
  162.0640  207.3160  152.1450 C   0  0  0  0  0  3  0  0  0  0  0  0
  161.8180  205.9190  152.0220 N   0  0  0  0  0  0  0  0  0  0  0  0
  160.7870  209.8800  153.2750 C   0  0  0  0  0  2  0  0  0  0  0  0
  159.9960  212.0400  156.3420 C   0  0  0  0  0  0  0  0  0  0  0  0
  158.6200  212.5560  155.9690 C   0  0  2  0  0  3  0  0  0  0  0  0
  157.6830  212.5190  157.1640 C   0  0  0  0  0  1  0  0  0  0  0  0
  158.7350  211.0760  153.9620 C   0  0  0  0  0  3  0  0  0  0  0  0
  160.6340  210.9340  155.5520 C   0  0  0  0  0  2  0  0  0  0  0  0
  160.2310  211.0440  154.0790 C   0  0  1  0  0  3  0  0  0  0  0  0
  160.7240  212.6710  157.2610 C   0  0  0  0  0  2  0  0  0  0  0  0
  157.9980  211.7760  154.8360 C   0  0  0  0  0  3  0  0  0  0  0  0
  162.3900  209.9630  149.8000 C   0  0  0  0  0  2  0  0  0  0  0  0
  161.4290  210.5540  148.7620 C   0  0  0  0  0  2  0  0  0  0  0  0
  162.0560  211.5460  147.8820 N   0  0  0  0  0  0  0  0  0  0  0  0
  163.4180  211.8060  148.3230 C   0  0  0  0  0  1  0  0  0  0  0  0
  161.3090  212.7960  147.9540 C   0  0  0  0  0  2  0  0  0  0  0  0
  161.5050  214.2140  145.8500 N   0  0  0  0  0  2  0  0  0  0  0  0
  161.9790  213.8700  147.1530 C   0  0  0  0  0  0  0  0  0  0  0  0
  162.9970  214.4530  147.6100 O   0  0  0  0  0  0  0  0  0  0  0  0
  160.4630  213.4570  145.1690 C   0  0  1  0  0  3  0  0  0  0  0  0
  159.8660  213.5600  142.7630 C   0  0  0  0  0  3  0  0  0  0  0  0
  159.1140  214.1680  145.3540 C   0  0  0  0  0  2  0  0  0  0  0  0
  158.1690  213.6470  144.4510 O   0  0  0  0  0  0  0  0  0  0  0  0
  160.7960  213.3040  143.6970 C   0  0  0  0  0  0  0  0  0  0  0  0
  158.5360  214.1310  143.1800 C   0  0  0  0  0  2  0  0  0  0  0  0
  162.1110  212.7250  143.2780 C   0  0  0  0  0  2  0  0  0  0  0  0
  162.0810  212.2700  141.8580 C   0  0  0  0  0  0  0  0  0  0  0  0
  162.0730  211.3780  139.2300 C   0  0  0  0  0  3  0  0  0  0  0  0
  161.4250  210.6600  140.2360 C   0  0  0  0  0  3  0  0  0  0  0  0
  162.7340  212.5640  139.5580 C   0  0  0  0  0  3  0  0  0  0  0  0
  161.4420  211.1160  141.5190 N   0  0  0  0  0  0  0  0  0  0  0  0
  162.7400  213.0150  140.8780 C   0  0  0  0  0  3  0  0  0  0  0  0
  1 11  1  0  0  0  0
  1  2  1  0  0  0  0
  2 14  1  0  0  0  0
  3  2  2  0  0  0  0
  4  9  2  0  0  0  0
  5 13  2  0  0  0  0
  6 10  2  0  0  0  0
  6  4  1  0  0  0  0
  7  4  1  0  0  0  0
  8 10  1  6  0  0  0
  8  5  1  0  0  0  0
  8 11  1  0  0  0  0
  9  5  1  0  0  0  0
 11 12  2  0  0  0  0
 13 12  1  0  0  0  0
 15 21  2  0  0  0  0
 16 15  1  0  0  0  0
 16 17  1  1  0  0  0
 18 20  1  0  0  0  0
 18 22  2  0  0  0  0
 19 15  1  0  0  0  0
 20 14  1  6  0  0  0
 20 19  1  0  0  0  0
 22 16  1  0  0  0  0
 23  1  1  0  0  0  0
 24 23  1  0  0  0  0
 25 27  1  0  0  0  0
 25 26  1  0  0  0  0
 25 24  1  0  0  0  0
 28 29  1  0  0  0  0
 29 30  2  0  0  0  0
 29 27  1  0  0  0  0
 31 33  1  0  0  0  0
 31 28  1  1  0  0  0
 32 36  1  0  0  0  0
 32 35  2  0  0  0  0
 34 33  1  0  0  0  0
 35 31  1  0  0  0  0
 36 34  1  0  0  0  0
 37 35  1  0  0  0  0
 38 37  1  0  0  0  0
 39 41  2  0  0  0  0
 39 40  1  0  0  0  0
 40 42  2  0  0  0  0
 41 43  1  0  0  0  0
 42 38  1  0  0  0  0
 43 38  2  0  0  0  0
M  END
>  <MODEL>
9

>  <REMARK>
 VINA RESULT:      -6.2      1.559      5.929
  Name = 
  11 active torsions:
  status: ('A' for Active; 'I' for Inactive)
    1  A    between atoms: C_1  and  C_34
    2  A    between atoms: C_1  and  C_35
    3  A    between atoms: N_2  and  C_6
    4  A    between atoms: N_2  and  C_13
    5  A    between atoms: N_3  and  C_4
    6  A    between atoms: C_6  and  C_12
    7  A    between atoms: N_8  and  C_27
    8  A    between atoms: N_8  and  C_30
    9  A    between atoms: C_11  and  C_14
   10  A    between atoms: C_13  and  C_27
   11  A    between atoms: C_14  and  C_41
                            x       y       z     vdW  Elec       q    Type
                         _______ _______ _______ _____ _____    ______ ____

>  <TORSDO>
F 11

$$$$
