=
 OpenBabel11062410423D

 32 37  0  0  1  0  0  0  0  0999 V2000
  160.5420  202.5060  150.7250 C   0  0  0  0  0  2  0  0  0  0  0  0
  161.2710  207.4530  151.8760 C   0  0  0  0  0  0  0  0  0  0  0  0
  160.6780  207.5030  156.6980 C   0  0  0  0  0  3  0  0  0  0  0  0
  160.8020  208.8920  156.6880 C   0  0  0  0  0  3  0  0  0  0  0  0
  161.6070  209.5040  150.5830 C   0  0  0  0  0  0  0  0  0  0  0  0
  161.6860  208.7410  149.4020 C   0  0  0  0  0  0  0  0  0  0  0  0
  161.2390  205.3100  150.7020 C   0  0  0  0  0  0  0  0  0  0  0  0
  160.9400  205.3940  153.0730 N   0  0  0  0  0  0  0  0  0  0  0  0
  161.9430  211.5150  149.2340 C   0  0  0  0  0  0  0  0  0  0  0  0
  160.9420  203.1650  152.0380 C   0  0  0  0  0  2  0  0  0  0  0  0
  160.7630  206.7860  155.5010 C   0  0  0  0  0  3  0  0  0  0  0  0
  161.0570  206.7500  153.0830 C   0  0  0  0  0  0  0  0  0  0  0  0
  160.9710  207.4550  154.2840 C   0  0  0  0  0  0  0  0  0  0  0  0
  161.3050  209.5290  153.0570 C   0  0  0  0  0  0  0  0  0  0  0  0
  162.0190  210.7400  148.0770 C   0  0  0  0  0  3  0  0  0  0  0  0
  161.0080  204.6630  151.9320 C   0  0  0  0  0  0  0  0  0  0  0  0
  161.8900  209.3530  148.1610 C   0  0  0  0  0  3  0  0  0  0  0  0
  161.2610  204.5460  149.4010 C   0  0  0  0  0  2  0  0  0  0  0  0
  161.4350  203.0350  149.6030 C   0  0  2  0  0  3  0  0  0  0  0  0
  161.0100  209.5670  155.4820 C   0  0  0  0  0  3  0  0  0  0  0  0
  161.0970  208.8560  154.2720 C   0  0  0  0  0  0  0  0  0  0  0  0
  161.4130  210.7870  153.0810 O   0  0  0  0  0  0  0  0  0  0  0  0
  161.3580  206.7060  150.6810 C   0  0  0  0  0  0  0  0  0  0  0  0
  161.5610  207.3580  149.4640 O   0  0  0  0  0  0  0  0  0  0  0  0
  162.0810  212.9920  149.1500 C   0  0  0  0  0  1  0  0  0  0  0  0
  161.3920  208.8310  151.8650 N   0  0  0  0  0  0  0  0  0  0  0  0
  161.7400  210.9020  150.4720 C   0  0  0  0  0  3  0  0  0  0  0  0
  161.3160  202.3010  148.4020 O   0  0  0  0  0  0  0  0  0  0  0  0
  161.5660  203.1530  147.3130 C   0  0  0  0  0  2  0  0  0  0  0  0
  161.0070  202.5550  146.0720 C   0  0  0  0  0  0  0  0  0  0  0  0
  160.7800  203.3510  144.9580 O   0  0  0  0  0  0  0  0  0  0  0  0
  160.7770  201.3180  146.0180 O   0  0  0  0  0  1  0  0  0  0  0  0
  1 10  1  0  0  0  0
  2 12  1  0  0  0  0
  4  3  1  0  0  0  0
  5 26  1  0  0  0  0
  6 24  1  0  0  0  0
  6  5  2  0  0  0  0
  7 16  2  0  0  0  0
  8 12  2  0  0  0  0
  9 27  2  0  0  0  0
 11  3  2  0  0  0  0
 12 13  1  0  0  0  0
 13 11  1  0  0  0  0
 14 22  2  0  0  0  0
 14 21  1  0  0  0  0
 15 17  2  0  0  0  0
 15  9  1  0  0  0  0
 16 10  1  0  0  0  0
 16  8  1  0  0  0  0
 17  6  1  0  0  0  0
 18 19  1  0  0  0  0
 18  7  1  0  0  0  0
 19 28  1  6  0  0  0
 19  1  1  0  0  0  0
 20  4  2  0  0  0  0
 21 13  2  0  0  0  0
 21 20  1  0  0  0  0
 23  7  1  0  0  0  0
 23  2  2  0  0  0  0
 24 23  1  0  0  0  0
 25  9  1  0  0  0  0
 26  2  1  0  0  0  0
 26 14  1  0  0  0  0
 27  5  1  0  0  0  0
 29 28  1  0  0  0  0
 30 29  1  0  0  0  0
 31 30  2  0  0  0  0
 32 30  1  0  0  0  0
M  END
>  <MODEL>
1

>  <REMARK>
 VINA RESULT:      -8.6      0.000      0.000
  Name = 
  3 active torsions:
  status: ('A' for Active; 'I' for Inactive)
    1  A    between atoms: C_1  and  C_10
    2  A    between atoms: C_10  and  O_19
    3  A    between atoms: O_19  and  C_24
                            x       y       z     vdW  Elec       q    Type
                         _______ _______ _______ _____ _____    ______ ____

>  <TORSDO>
F 3

$$$$
=
 OpenBabel11062410423D

 32 37  0  0  1  0  0  0  0  0999 V2000
  162.2590  212.7230  148.8060 C   0  0  0  0  0  2  0  0  0  0  0  0
  161.3590  207.9640  150.5020 C   0  0  0  0  0  0  0  0  0  0  0  0
  160.9330  208.6260  155.2960 C   0  0  0  0  0  3  0  0  0  0  0  0
  160.8290  207.2460  155.4670 C   0  0  0  0  0  3  0  0  0  0  0  0
  161.3230  205.7370  149.4860 C   0  0  0  0  0  0  0  0  0  0  0  0
  161.4840  206.3210  148.2140 C   0  0  0  0  0  0  0  0  0  0  0  0
  161.6130  209.9170  149.0560 C   0  0  0  0  0  0  0  0  0  0  0  0
  161.4110  210.1850  151.4240 N   0  0  0  0  0  0  0  0  0  0  0  0
  161.2980  203.5430  148.4100 C   0  0  0  0  0  0  0  0  0  0  0  0
  161.6010  212.2420  150.0920 C   0  0  0  0  0  2  0  0  0  0  0  0
  161.0920  209.1610  154.0160 C   0  0  0  0  0  3  0  0  0  0  0  0
  161.3090  208.8400  151.6100 C   0  0  0  0  0  0  0  0  0  0  0  0
  161.1500  208.3170  152.8940 C   0  0  0  0  0  0  0  0  0  0  0  0
  161.1020  206.0780  151.9450 C   0  0  0  0  0  0  0  0  0  0  0  0
  161.4580  204.1410  147.1600 C   0  0  0  0  0  3  0  0  0  0  0  0
  161.5750  210.7420  150.1980 C   0  0  0  0  0  0  0  0  0  0  0  0
  161.5510  205.5300  147.0630 C   0  0  0  0  0  3  0  0  0  0  0  0
  161.8550  210.4860  147.6800 C   0  0  0  0  0  2  0  0  0  0  0  0
  161.6270  212.0020  147.6160 C   0  0  2  0  0  3  0  0  0  0  0  0
  160.8850  206.3980  154.3580 C   0  0  0  0  0  3  0  0  0  0  0  0
  161.0450  206.9250  153.0640 C   0  0  0  0  0  0  0  0  0  0  0  0
  161.0060  204.8320  152.1330 O   0  0  0  0  0  0  0  0  0  0  0  0
  161.5160  208.5290  149.2180 C   0  0  0  0  0  0  0  0  0  0  0  0
  161.5790  207.7030  148.0950 O   0  0  0  0  0  0  0  0  0  0  0  0
  161.1970  202.0640  148.5180 C   0  0  0  0  0  1  0  0  0  0  0  0
  161.2590  206.5950  150.6710 N   0  0  0  0  0  0  0  0  0  0  0  0
  161.2320  204.3330  149.5580 C   0  0  0  0  0  3  0  0  0  0  0  0
  161.9850  212.5620  146.3700 O   0  0  0  0  0  0  0  0  0  0  0  0
  160.9270  213.3570  145.8980 C   0  0  0  0  0  2  0  0  0  0  0  0
  160.0790  212.5620  144.9720 C   0  0  0  0  0  0  0  0  0  0  0  0
  160.5820  212.1570  143.7430 O   0  0  0  0  0  0  0  0  0  0  0  0
  158.9170  212.2220  145.3180 O   0  0  0  0  0  1  0  0  0  0  0  0
  1 10  1  0  0  0  0
  2 26  1  0  0  0  0
  2 12  1  0  0  0  0
  3  4  1  0  0  0  0
  5 27  1  0  0  0  0
  5 26  1  0  0  0  0
  6  5  2  0  0  0  0
  7 23  1  0  0  0  0
  7 16  2  0  0  0  0
  8 12  2  0  0  0  0
  9 25  1  0  0  0  0
  9 27  2  0  0  0  0
 10 16  1  0  0  0  0
 11  3  2  0  0  0  0
 12 13  1  0  0  0  0
 13 21  2  0  0  0  0
 13 11  1  0  0  0  0
 14 22  2  0  0  0  0
 14 21  1  0  0  0  0
 15  9  1  0  0  0  0
 16  8  1  0  0  0  0
 17 15  2  0  0  0  0
 17  6  1  0  0  0  0
 18  7  1  0  0  0  0
 19 28  1  6  0  0  0
 19 18  1  0  0  0  0
 19  1  1  0  0  0  0
 20  4  2  0  0  0  0
 21 20  1  0  0  0  0
 23  2  2  0  0  0  0
 24  6  1  0  0  0  0
 24 23  1  0  0  0  0
 26 14  1  0  0  0  0
 29 28  1  0  0  0  0
 30 32  1  0  0  0  0
 30 29  1  0  0  0  0
 31 30  2  0  0  0  0
M  END
>  <MODEL>
2

>  <REMARK>
 VINA RESULT:      -8.1      2.652      6.498
  Name = 
  3 active torsions:
  status: ('A' for Active; 'I' for Inactive)
    1  A    between atoms: C_1  and  C_10
    2  A    between atoms: C_10  and  O_19
    3  A    between atoms: O_19  and  C_24
                            x       y       z     vdW  Elec       q    Type
                         _______ _______ _______ _____ _____    ______ ____

>  <TORSDO>
F 3

$$$$
=
 OpenBabel11062410423D

 32 37  0  0  1  0  0  0  0  0999 V2000
  162.2660  204.3840  147.1880 C   0  0  0  0  0  2  0  0  0  0  0  0
  161.3880  208.2030  150.5000 C   0  0  0  0  0  0  0  0  0  0  0  0
  161.9650  212.1480  147.7240 C   0  0  0  0  0  3  0  0  0  0  0  0
  161.8010  212.9520  148.8520 C   0  0  0  0  0  3  0  0  0  0  0  0
  160.9950  208.3520  152.9120 C   0  0  0  0  0  0  0  0  0  0  0  0
  160.9420  206.9460  152.9860 C   0  0  0  0  0  0  0  0  0  0  0  0
  161.4870  205.9960  149.4560 C   0  0  0  0  0  0  0  0  0  0  0  0
  161.7770  207.9710  148.1380 N   0  0  0  0  0  0  0  0  0  0  0  0
  160.6030  208.4330  155.3230 C   0  0  0  0  0  0  0  0  0  0  0  0
  161.8430  205.8260  146.9410 C   0  0  0  0  0  2  0  0  0  0  0  0
  161.9060  210.7580  147.8450 C   0  0  0  0  0  3  0  0  0  0  0  0
  161.6190  208.7720  149.2280 C   0  0  0  0  0  0  0  0  0  0  0  0
  161.6810  210.1600  149.0960 C   0  0  0  0  0  0  0  0  0  0  0  0
  161.2890  210.3760  151.4870 C   0  0  0  0  0  0  0  0  0  0  0  0
  160.5540  207.0400  155.3740 C   0  0  0  0  0  3  0  0  0  0  0  0
  161.7330  206.6180  148.2160 C   0  0  0  0  0  0  0  0  0  0  0  0
  160.7230  206.2970  154.2040 C   0  0  0  0  0  3  0  0  0  0  0  0
  161.4910  204.4940  149.6000 C   0  0  0  0  0  2  0  0  0  0  0  0
  161.3620  203.7680  148.2550 C   0  0  2  0  0  3  0  0  0  0  0  0
  161.5760  212.3680  150.1010 C   0  0  0  0  0  3  0  0  0  0  0  0
  161.5140  210.9700  150.2340 C   0  0  0  0  0  0  0  0  0  0  0  0
  161.1440  211.1320  152.4890 O   0  0  0  0  0  0  0  0  0  0  0  0
  161.3270  206.7950  150.5950 C   0  0  0  0  0  0  0  0  0  0  0  0
  161.1080  206.1880  151.8320 O   0  0  0  0  0  0  0  0  0  0  0  0
  160.4230  209.2280  156.5660 C   0  0  0  0  0  1  0  0  0  0  0  0
  161.2260  209.0000  151.6190 N   0  0  0  0  0  0  0  0  0  0  0  0
  160.8210  209.0800  154.1060 C   0  0  0  0  0  3  0  0  0  0  0  0
  161.5050  202.3680  148.3680 O   0  0  0  0  0  0  0  0  0  0  0  0
  160.3790  201.7410  147.8090 C   0  0  0  0  0  2  0  0  0  0  0  0
  160.7740  201.0080  146.5780 C   0  0  0  0  0  0  0  0  0  0  0  0
  161.4950  199.8260  146.6740 O   0  0  0  0  0  1  0  0  0  0  0  0
  160.4200  201.4380  145.4490 O   0  0  0  0  0  0  0  0  0  0  0  0
  1 19  1  0  0  0  0
  2 23  1  0  0  0  0
  2 26  1  0  0  0  0
  3 11  2  0  0  0  0
  3  4  1  0  0  0  0
  4 20  2  0  0  0  0
  5  6  2  0  0  0  0
  5 27  1  0  0  0  0
  6 17  1  0  0  0  0
  7 18  1  0  0  0  0
  7 23  2  0  0  0  0
  8 16  2  0  0  0  0
  8 12  1  0  0  0  0
  9 15  1  0  0  0  0
  9 25  1  0  0  0  0
 10  1  1  0  0  0  0
 10 16  1  0  0  0  0
 11 13  1  0  0  0  0
 12  2  2  0  0  0  0
 13 12  1  0  0  0  0
 13 21  2  0  0  0  0
 14 26  1  0  0  0  0
 14 22  2  0  0  0  0
 16  7  1  0  0  0  0
 17 15  2  0  0  0  0
 19 28  1  1  0  0  0
 19 18  1  0  0  0  0
 20 21  1  0  0  0  0
 21 14  1  0  0  0  0
 23 24  1  0  0  0  0
 24  6  1  0  0  0  0
 26  5  1  0  0  0  0
 27  9  2  0  0  0  0
 29 28  1  0  0  0  0
 30 31  1  0  0  0  0
 30 29  1  0  0  0  0
 32 30  2  0  0  0  0
M  END
>  <MODEL>
3

>  <REMARK>
 VINA RESULT:      -8.1      1.471      4.974
  Name = 
  3 active torsions:
  status: ('A' for Active; 'I' for Inactive)
    1  A    between atoms: C_1  and  C_10
    2  A    between atoms: C_10  and  O_19
    3  A    between atoms: O_19  and  C_24
                            x       y       z     vdW  Elec       q    Type
                         _______ _______ _______ _____ _____    ______ ____

>  <TORSDO>
F 3

$$$$
=
 OpenBabel11062410423D

 32 37  0  0  1  0  0  0  0  0999 V2000
  162.4450  204.7670  146.7660 C   0  0  0  0  0  2  0  0  0  0  0  0
  161.4110  208.3060  150.3350 C   0  0  0  0  0  0  0  0  0  0  0  0
  161.7760  212.4540  147.8300 C   0  0  0  0  0  3  0  0  0  0  0  0
  161.5820  213.1710  149.0110 C   0  0  0  0  0  3  0  0  0  0  0  0
  161.0300  208.2730  152.7530 C   0  0  0  0  0  0  0  0  0  0  0  0
  161.0450  206.8650  152.7310 C   0  0  0  0  0  0  0  0  0  0  0  0
  161.6070  206.1820  149.1420 C   0  0  0  0  0  0  0  0  0  0  0  0
  161.7920  208.2540  147.9610 N   0  0  0  0  0  0  0  0  0  0  0  0
  160.6540  208.1710  155.1660 C   0  0  0  0  0  0  0  0  0  0  0  0
  161.9520  206.2000  146.6200 C   0  0  0  0  0  2  0  0  0  0  0  0
  161.7840  211.0570  147.8560 C   0  0  0  0  0  3  0  0  0  0  0  0
  161.6040  208.9710  149.1030 C   0  0  0  0  0  0  0  0  0  0  0  0
  161.5980  210.3660  149.0650 C   0  0  0  0  0  0  0  0  0  0  0  0
  161.2150  210.4000  151.4670 C   0  0  0  0  0  0  0  0  0  0  0  0
  160.6720  206.7780  155.1210 C   0  0  0  0  0  3  0  0  0  0  0  0
  161.8140  206.8980  147.9460 C   0  0  0  0  0  0  0  0  0  0  0  0
  160.8680  206.1250  153.9030 C   0  0  0  0  0  3  0  0  0  0  0  0
  161.6850  204.6770  149.1840 C   0  0  0  0  0  2  0  0  0  0  0  0
  161.5800  204.0380  147.7930 C   0  0  2  0  0  3  0  0  0  0  0  0
  161.3950  212.4930  150.2180 C   0  0  0  0  0  3  0  0  0  0  0  0
  161.4010  211.0880  150.2560 C   0  0  0  0  0  0  0  0  0  0  0  0
  161.0420  211.0790  152.5190 O   0  0  0  0  0  0  0  0  0  0  0  0
  161.4180  206.8940  150.3340 C   0  0  0  0  0  0  0  0  0  0  0  0
  161.2380  206.1950  151.5280 O   0  0  0  0  0  0  0  0  0  0  0  0
  160.4450  208.8710  156.4600 C   0  0  0  0  0  1  0  0  0  0  0  0
  161.2200  209.0170  151.5060 N   0  0  0  0  0  0  0  0  0  0  0  0
  160.8310  208.9090  153.9940 C   0  0  0  0  0  3  0  0  0  0  0  0
  161.7920  202.6420  147.8100 O   0  0  0  0  0  0  0  0  0  0  0  0
  160.5540  201.9850  147.7150 C   0  0  0  0  0  2  0  0  0  0  0  0
  160.1980  201.3940  149.0310 C   0  0  0  0  0  0  0  0  0  0  0  0
  161.1970  200.9540  149.8880 O   0  0  0  0  0  1  0  0  0  0  0  0
  158.9920  201.3280  149.3860 O   0  0  0  0  0  0  0  0  0  0  0  0
  1 19  1  0  0  0  0
  2 26  1  0  0  0  0
  3 11  2  0  0  0  0
  3  4  1  0  0  0  0
  4 20  2  0  0  0  0
  5 27  1  0  0  0  0
  6  5  2  0  0  0  0
  6 17  1  0  0  0  0
  7 18  1  0  0  0  0
  7 23  2  0  0  0  0
  8 12  1  0  0  0  0
  9 25  1  0  0  0  0
 10  1  1  0  0  0  0
 10 16  1  0  0  0  0
 11 13  1  0  0  0  0
 12  2  2  0  0  0  0
 13 12  1  0  0  0  0
 13 21  2  0  0  0  0
 14 26  1  0  0  0  0
 14 22  2  0  0  0  0
 15  9  1  0  0  0  0
 16  8  2  0  0  0  0
 16  7  1  0  0  0  0
 17 15  2  0  0  0  0
 19 28  1  1  0  0  0
 19 18  1  0  0  0  0
 20 21  1  0  0  0  0
 21 14  1  0  0  0  0
 23  2  1  0  0  0  0
 23 24  1  0  0  0  0
 24  6  1  0  0  0  0
 26  5  1  0  0  0  0
 27  9  2  0  0  0  0
 29 28  1  0  0  0  0
 29 30  1  0  0  0  0
 30 32  2  0  0  0  0
 30 31  1  0  0  0  0
M  END
>  <MODEL>
4

>  <REMARK>
 VINA RESULT:      -7.7      1.607      5.143
  Name = 
  3 active torsions:
  status: ('A' for Active; 'I' for Inactive)
    1  A    between atoms: C_1  and  C_10
    2  A    between atoms: C_10  and  O_19
    3  A    between atoms: O_19  and  C_24
                            x       y       z     vdW  Elec       q    Type
                         _______ _______ _______ _____ _____    ______ ____

>  <TORSDO>
F 3

$$$$
=
 OpenBabel11062410423D

 32 37  0  0  1  0  0  0  0  0999 V2000
  160.9120  207.5560  156.1910 C   0  0  0  0  0  2  0  0  0  0  0  0
  161.2460  208.0410  151.0940 C   0  0  0  0  0  0  0  0  0  0  0  0
  161.2060  203.4180  149.5990 C   0  0  0  0  0  3  0  0  0  0  0  0
  161.4210  203.8510  148.2910 C   0  0  0  0  0  3  0  0  0  0  0  0
  161.5810  209.9080  149.5470 C   0  0  0  0  0  0  0  0  0  0  0  0
  161.4750  210.8120  150.6220 C   0  0  0  0  0  0  0  0  0  0  0  0
  160.9160  208.5200  153.4670 C   0  0  0  0  0  0  0  0  0  0  0  0
  160.9170  206.2620  152.6790 N   0  0  0  0  0  0  0  0  0  0  0  0
  161.9130  211.8160  148.0550 C   0  0  0  0  0  0  0  0  0  0  0  0
  160.5150  206.5930  155.0810 C   0  0  0  0  0  2  0  0  0  0  0  0
  161.1080  204.3510  150.6350 C   0  0  0  0  0  3  0  0  0  0  0  0
  161.1280  206.6660  151.3960 C   0  0  0  0  0  0  0  0  0  0  0  0
  161.2240  205.7250  150.3690 C   0  0  0  0  0  0  0  0  0  0  0  0
  161.5580  207.5360  148.7800 C   0  0  0  0  0  0  0  0  0  0  0  0
  161.8040  212.6930  149.1330 C   0  0  0  0  0  3  0  0  0  0  0  0
  160.8240  207.1360  153.7120 C   0  0  0  0  0  0  0  0  0  0  0  0
  161.5850  212.1900  150.4170 C   0  0  0  0  0  3  0  0  0  0  0  0
  160.8790  209.5250  154.5920 C   0  0  0  0  0  2  0  0  0  0  0  0
  160.3250  208.9360  155.8960 C   0  0  2  0  0  3  0  0  0  0  0  0
  161.5380  205.2150  148.0160 C   0  0  0  0  0  3  0  0  0  0  0  0
  161.4410  206.1630  149.0500 C   0  0  0  0  0  0  0  0  0  0  0  0
  161.7530  207.8960  147.5850 O   0  0  0  0  0  0  0  0  0  0  0  0
  161.1380  208.9640  152.1570 C   0  0  0  0  0  0  0  0  0  0  0  0
  161.2560  210.3320  151.9080 O   0  0  0  0  0  0  0  0  0  0  0  0
  162.1460  212.3460  146.6860 C   0  0  0  0  0  1  0  0  0  0  0  0
  161.4610  208.4700  149.7970 N   0  0  0  0  0  0  0  0  0  0  0  0
  161.8020  210.4390  148.2610 C   0  0  0  0  0  3  0  0  0  0  0  0
  160.4180  209.8270  156.9870 O   0  0  0  0  0  0  0  0  0  0  0  0
  160.8660  211.0770  156.5270 C   0  0  0  0  0  2  0  0  0  0  0  0
  159.8100  212.0990  156.7450 C   0  0  0  0  0  0  0  0  0  0  0  0
  158.5350  211.7090  157.1330 O   0  0  0  0  0  1  0  0  0  0  0  0
  160.0800  213.3210  156.6150 O   0  0  0  0  0  0  0  0  0  0  0  0
  2 12  2  0  0  0  0
  2 23  1  0  0  0  0
  3 11  1  0  0  0  0
  4  3  2  0  0  0  0
  5 26  1  0  0  0  0
  5  6  1  0  0  0  0
  6 24  1  0  0  0  0
  7 16  1  0  0  0  0
  7 18  1  0  0  0  0
  8 16  2  0  0  0  0
  9 27  1  0  0  0  0
  9 15  2  0  0  0  0
 10  1  1  0  0  0  0
 12  8  1  0  0  0  0
 13 11  2  0  0  0  0
 13 12  1  0  0  0  0
 14 21  1  0  0  0  0
 14 26  1  0  0  0  0
 15 17  1  0  0  0  0
 16 10  1  0  0  0  0
 17  6  2  0  0  0  0
 18 19  1  0  0  0  0
 19  1  1  0  0  0  0
 19 28  1  1  0  0  0
 20  4  1  0  0  0  0
 20 21  2  0  0  0  0
 21 13  1  0  0  0  0
 22 14  2  0  0  0  0
 23  7  2  0  0  0  0
 24 23  1  0  0  0  0
 25  9  1  0  0  0  0
 26  2  1  0  0  0  0
 27  5  2  0  0  0  0
 29 30  1  0  0  0  0
 29 28  1  0  0  0  0
 30 31  1  0  0  0  0
 32 30  2  0  0  0  0
M  END
>  <MODEL>
5

>  <REMARK>
 VINA RESULT:      -7.1      2.151      7.180
  Name = 
  3 active torsions:
  status: ('A' for Active; 'I' for Inactive)
    1  A    between atoms: C_1  and  C_10
    2  A    between atoms: C_10  and  O_19
    3  A    between atoms: O_19  and  C_24
                            x       y       z     vdW  Elec       q    Type
                         _______ _______ _______ _____ _____    ______ ____

>  <TORSDO>
F 3

$$$$
=
 OpenBabel11062410423D

 32 37  0  0  1  0  0  0  0  0999 V2000
  161.6870  211.1920  147.5140 C   0  0  0  0  0  2  0  0  0  0  0  0
  161.3180  207.5600  151.1200 C   0  0  0  0  0  0  0  0  0  0  0  0
  161.1830  203.4800  148.4840 C   0  0  0  0  0  3  0  0  0  0  0  0
  160.9690  202.7460  149.6510 C   0  0  0  0  0  3  0  0  0  0  0  0
  161.0320  207.5500  153.5510 C   0  0  0  0  0  0  0  0  0  0  0  0
  161.1800  208.9510  153.5690 C   0  0  0  0  0  0  0  0  0  0  0  0
  161.6880  209.6910  149.9840 C   0  0  0  0  0  0  0  0  0  0  0  0
  161.6000  207.6540  148.7330 N   0  0  0  0  0  0  0  0  0  0  0  0
  160.7510  207.6090  155.9780 C   0  0  0  0  0  0  0  0  0  0  0  0
  162.0380  209.7110  147.4630 C   0  0  0  0  0  2  0  0  0  0  0  0
  161.3230  204.8690  148.5500 C   0  0  0  0  0  3  0  0  0  0  0  0
  161.3910  206.9210  149.8620 C   0  0  0  0  0  0  0  0  0  0  0  0
  161.2520  205.5340  149.7840 C   0  0  0  0  0  0  0  0  0  0  0  0
  160.9650  205.4580  152.1980 C   0  0  0  0  0  0  0  0  0  0  0  0
  160.9010  208.9960  155.9740 C   0  0  0  0  0  3  0  0  0  0  0  0
  161.7340  209.0030  148.7550 C   0  0  0  0  0  0  0  0  0  0  0  0
  161.1150  209.6660  154.7680 C   0  0  0  0  0  3  0  0  0  0  0  0
  161.7710  211.1960  150.0500 C   0  0  0  0  0  2  0  0  0  0  0  0
  162.3180  211.8170  148.7580 C   0  0  2  0  0  3  0  0  0  0  0  0
  160.8970  203.3990  150.8840 C   0  0  0  0  0  3  0  0  0  0  0  0
  161.0370  204.7950  150.9620 C   0  0  0  0  0  0  0  0  0  0  0  0
  160.7710  204.7650  153.2370 O   0  0  0  0  0  0  0  0  0  0  0  0
  161.4680  208.9630  151.1600 C   0  0  0  0  0  0  0  0  0  0  0  0
  161.3950  209.6370  152.3790 O   0  0  0  0  0  0  0  0  0  0  0  0
  160.5230  206.8910  157.2590 C   0  0  0  0  0  1  0  0  0  0  0  0
  161.1040  206.8320  152.2770 N   0  0  0  0  0  0  0  0  0  0  0  0
  160.8160  206.8960  154.7800 C   0  0  0  0  0  3  0  0  0  0  0  0
  162.2660  213.2290  148.7600 O   0  0  0  0  0  0  0  0  0  0  0  0
  161.7530  213.6750  147.5310 C   0  0  0  0  0  2  0  0  0  0  0  0
  160.3220  214.0440  147.6900 C   0  0  0  0  0  0  0  0  0  0  0  0
  159.4450  213.9010  146.6240 O   0  0  0  0  0  0  0  0  0  0  0  0
  159.8970  214.4480  148.8040 O   0  0  0  0  0  1  0  0  0  0  0  0
  1 19  1  0  0  0  0
  2 23  1  0  0  0  0
  2 26  1  0  0  0  0
  3 11  2  0  0  0  0
  3  4  1  0  0  0  0
  4 20  2  0  0  0  0
  5  6  2  0  0  0  0
  5 27  1  0  0  0  0
  6 17  1  0  0  0  0
  7 18  1  0  0  0  0
  7 23  2  0  0  0  0
  8 16  2  0  0  0  0
  8 12  1  0  0  0  0
  9 25  1  0  0  0  0
 10  1  1  0  0  0  0
 10 16  1  0  0  0  0
 11 13  1  0  0  0  0
 12  2  2  0  0  0  0
 13 12  1  0  0  0  0
 13 21  2  0  0  0  0
 14 26  1  0  0  0  0
 14 22  2  0  0  0  0
 15  9  1  0  0  0  0
 16  7  1  0  0  0  0
 17 15  2  0  0  0  0
 19 28  1  1  0  0  0
 19 18  1  0  0  0  0
 20 21  1  0  0  0  0
 21 14  1  0  0  0  0
 23 24  1  0  0  0  0
 24  6  1  0  0  0  0
 26  5  1  0  0  0  0
 27  9  2  0  0  0  0
 29 30  1  0  0  0  0
 29 28  1  0  0  0  0
 30 32  1  0  0  0  0
 31 30  2  0  0  0  0
M  END
>  <MODEL>
6

>  <REMARK>
 VINA RESULT:      -7.0      2.562      7.458
  Name = 
  3 active torsions:
  status: ('A' for Active; 'I' for Inactive)
    1  A    between atoms: C_1  and  C_10
    2  A    between atoms: C_10  and  O_19
    3  A    between atoms: O_19  and  C_24
                            x       y       z     vdW  Elec       q    Type
                         _______ _______ _______ _____ _____    ______ ____

>  <TORSDO>
F 3

$$$$
=
 OpenBabel11062410423D

 32 37  0  0  1  0  0  0  0  0999 V2000
  162.5980  211.6730  149.5760 C   0  0  0  0  0  2  0  0  0  0  0  0
  161.3910  206.6910  149.3470 C   0  0  0  0  0  0  0  0  0  0  0  0
  161.0260  205.4860  154.0400 C   0  0  0  0  0  3  0  0  0  0  0  0
  160.8320  204.1550  153.6720 C   0  0  0  0  0  3  0  0  0  0  0  0
  161.2040  205.0310  147.5570 C   0  0  0  0  0  0  0  0  0  0  0  0
  161.3990  206.0470  146.6010 C   0  0  0  0  0  0  0  0  0  0  0  0
  161.7680  209.0310  148.7510 C   0  0  0  0  0  0  0  0  0  0  0  0
  161.5930  208.3800  151.0460 N   0  0  0  0  0  0  0  0  0  0  0  0
  161.0300  203.4230  145.7240 C   0  0  0  0  0  0  0  0  0  0  0  0
  161.9140  210.7750  150.5990 C   0  0  0  0  0  2  0  0  0  0  0  0
  161.2160  206.4610  153.0570 C   0  0  0  0  0  3  0  0  0  0  0  0
  161.4030  207.0750  150.7060 C   0  0  0  0  0  0  0  0  0  0  0  0
  161.2140  206.1110  151.6970 C   0  0  0  0  0  0  0  0  0  0  0  0
  161.0140  204.4140  149.9650 C   0  0  0  0  0  0  0  0  0  0  0  0
  161.2240  204.4450  144.7950 C   0  0  0  0  0  3  0  0  0  0  0  0
  161.7890  209.3540  150.1230 C   0  0  0  0  0  0  0  0  0  0  0  0
  161.4090  205.7570  145.2340 C   0  0  0  0  0  3  0  0  0  0  0  0
  162.0420  210.0690  147.6920 C   0  0  0  0  0  2  0  0  0  0  0  0
  161.9150  211.5030  148.2200 C   0  0  2  0  0  3  0  0  0  0  0  0
  160.8270  203.7960  152.3210 C   0  0  0  0  0  3  0  0  0  0  0  0
  161.0170  204.7680  151.3240 C   0  0  0  0  0  0  0  0  0  0  0  0
  160.8360  203.2000  149.6640 O   0  0  0  0  0  0  0  0  0  0  0  0
  161.5810  207.6950  148.3720 C   0  0  0  0  0  0  0  0  0  0  0  0
  161.5840  207.3600  147.0180 O   0  0  0  0  0  0  0  0  0  0  0  0
  160.8320  202.0250  145.2610 C   0  0  0  0  0  1  0  0  0  0  0  0
  161.2000  205.3700  148.9820 N   0  0  0  0  0  0  0  0  0  0  0  0
  161.0200  203.7150  147.0890 C   0  0  0  0  0  3  0  0  0  0  0  0
  162.3060  212.4760  147.2730 O   0  0  0  0  0  0  0  0  0  0  0  0
  161.4630  213.5940  147.3840 C   0  0  0  0  0  2  0  0  0  0  0  0
  160.0760  213.2160  147.0040 C   0  0  0  0  0  0  0  0  0  0  0  0
  159.0170  213.5180  147.8500 O   0  0  0  0  0  1  0  0  0  0  0  0
  159.8580  212.6570  145.8980 O   0  0  0  0  0  0  0  0  0  0  0  0
  1 10  1  0  0  0  0
  2 12  1  0  0  0  0
  4  3  1  0  0  0  0
  5 26  1  0  0  0  0
  6 24  1  0  0  0  0
  6  5  2  0  0  0  0
  7 16  2  0  0  0  0
  9 27  2  0  0  0  0
 11  3  2  0  0  0  0
 12  8  2  0  0  0  0
 12 13  1  0  0  0  0
 13 11  1  0  0  0  0
 14 21  1  0  0  0  0
 15 17  2  0  0  0  0
 15  9  1  0  0  0  0
 16 10  1  0  0  0  0
 16  8  1  0  0  0  0
 17  6  1  0  0  0  0
 18 19  1  0  0  0  0
 18  7  1  0  0  0  0
 19 28  1  6  0  0  0
 19  1  1  0  0  0  0
 20  4  2  0  0  0  0
 21 13  2  0  0  0  0
 21 20  1  0  0  0  0
 22 14  2  0  0  0  0
 23  7  1  0  0  0  0
 23  2  2  0  0  0  0
 24 23  1  0  0  0  0
 25  9  1  0  0  0  0
 26  2  1  0  0  0  0
 26 14  1  0  0  0  0
 27  5  1  0  0  0  0
 28 29  1  0  0  0  0
 30 29  1  0  0  0  0
 30 31  1  0  0  0  0
 32 30  2  0  0  0  0
M  END
>  <MODEL>
7

>  <REMARK>
 VINA RESULT:      -6.7      2.509      6.991
  Name = 
  3 active torsions:
  status: ('A' for Active; 'I' for Inactive)
    1  A    between atoms: C_1  and  C_10
    2  A    between atoms: C_10  and  O_19
    3  A    between atoms: O_19  and  C_24
                            x       y       z     vdW  Elec       q    Type
                         _______ _______ _______ _____ _____    ______ ____

>  <TORSDO>
F 3

$$$$
=
 OpenBabel11062410423D

 32 37  0  0  1  0  0  0  0  0999 V2000
  157.5510  214.1450  154.8380 C   0  0  0  0  0  2  0  0  0  0  0  0
  160.5060  210.9980  152.0650 C   0  0  0  0  0  0  0  0  0  0  0  0
  161.5290  213.6990  148.1570 C   0  0  0  0  0  3  0  0  0  0  0  0
  162.1840  212.6070  147.5870 C   0  0  0  0  0  3  0  0  0  0  0  0
  161.2040  208.6600  152.2510 C   0  0  0  0  0  0  0  0  0  0  0  0
  160.5980  208.5850  153.5210 C   0  0  0  0  0  0  0  0  0  0  0  0
  159.2580  212.0080  153.9070 C   0  0  0  0  0  0  0  0  0  0  0  0
  159.7780  213.2880  151.9550 N   0  0  0  0  0  0  0  0  0  0  0  0
  161.8690  206.3210  152.4990 C   0  0  0  0  0  0  0  0  0  0  0  0
  158.5700  214.4530  153.7500 C   0  0  0  0  0  2  0  0  0  0  0  0
  160.9410  213.5790  149.4190 C   0  0  0  0  0  3  0  0  0  0  0  0
  160.4210  212.2330  151.3830 C   0  0  0  0  0  0  0  0  0  0  0  0
  161.0050  212.3650  150.1210 C   0  0  0  0  0  0  0  0  0  0  0  0
  161.7310  210.0460  150.2480 C   0  0  0  0  0  0  0  0  0  0  0  0
  161.2630  206.2690  153.7530 C   0  0  0  0  0  3  0  0  0  0  0  0
  159.1880  213.2090  153.1740 C   0  0  0  0  0  0  0  0  0  0  0  0
  160.6280  207.4020  154.2640 C   0  0  0  0  0  3  0  0  0  0  0  0
  158.5650  211.8550  155.2380 C   0  0  0  0  0  2  0  0  0  0  0  0
  158.1780  213.2020  155.8640 C   0  0  2  0  0  3  0  0  0  0  0  0
  162.2530  211.3950  148.2780 C   0  0  0  0  0  3  0  0  0  0  0  0
  161.6660  211.2630  149.5490 C   0  0  0  0  0  0  0  0  0  0  0  0
  162.3310  209.0760  149.7050 O   0  0  0  0  0  0  0  0  0  0  0  0
  159.9090  210.9040  153.3400 C   0  0  0  0  0  0  0  0  0  0  0  0
  159.9610  209.7030  154.0480 O   0  0  0  0  0  0  0  0  0  0  0  0
  162.5480  205.1170  151.9510 C   0  0  0  0  0  1  0  0  0  0  0  0
  161.1540  209.9150  151.4990 N   0  0  0  0  0  0  0  0  0  0  0  0
  161.8400  207.5030  151.7570 C   0  0  0  0  0  3  0  0  0  0  0  0
  157.4070  213.0620  157.0390 O   0  0  0  0  0  0  0  0  0  0  0  0
  156.7660  211.8120  157.0260 C   0  0  0  0  0  2  0  0  0  0  0  0
  155.2980  212.0010  157.1540 C   0  0  0  0  0  0  0  0  0  0  0  0
  154.4570  210.8980  157.2000 O   0  0  0  0  0  0  0  0  0  0  0  0
  154.8200  213.1600  157.2610 O   0  0  0  0  0  1  0  0  0  0  0  0
  1 19  1  0  0  0  0
  2 23  1  0  0  0  0
  3 11  1  0  0  0  0
  4  3  2  0  0  0  0
  4 20  1  0  0  0  0
  5  6  1  0  0  0  0
  6 24  1  0  0  0  0
  6 17  2  0  0  0  0
  7 18  1  0  0  0  0
  8 16  2  0  0  0  0
  9 15  2  0  0  0  0
 10  1  1  0  0  0  0
 11 13  2  0  0  0  0
 12  8  1  0  0  0  0
 12  2  2  0  0  0  0
 13 12  1  0  0  0  0
 14 26  1  0  0  0  0
 15 17  1  0  0  0  0
 16 10  1  0  0  0  0
 16  7  1  0  0  0  0
 18 19  1  0  0  0  0
 19 28  1  1  0  0  0
 20 21  2  0  0  0  0
 21 13  1  0  0  0  0
 21 14  1  0  0  0  0
 22 14  2  0  0  0  0
 23  7  2  0  0  0  0
 23 24  1  0  0  0  0
 25  9  1  0  0  0  0
 26  2  1  0  0  0  0
 26  5  1  0  0  0  0
 27  5  2  0  0  0  0
 27  9  1  0  0  0  0
 29 28  1  0  0  0  0
 29 30  1  0  0  0  0
 30 31  2  0  0  0  0
 30 32  1  0  0  0  0
M  END
>  <MODEL>
8

>  <REMARK>
 VINA RESULT:      -6.1      3.631      9.228
  Name = 
  3 active torsions:
  status: ('A' for Active; 'I' for Inactive)
    1  A    between atoms: C_1  and  C_10
    2  A    between atoms: C_10  and  O_19
    3  A    between atoms: O_19  and  C_24
                            x       y       z     vdW  Elec       q    Type
                         _______ _______ _______ _____ _____    ______ ____

>  <TORSDO>
F 3

$$$$
=
 OpenBabel11062410423D

 32 37  0  0  1  0  0  0  0  0999 V2000
  161.8400  212.0170  147.5890 C   0  0  0  0  0  2  0  0  0  0  0  0
  160.5070  210.6580  152.3540 C   0  0  0  0  0  0  0  0  0  0  0  0
  162.1120  206.0800  152.6230 C   0  0  0  0  0  3  0  0  0  0  0  0
  161.5320  205.9620  153.8860 C   0  0  0  0  0  3  0  0  0  0  0  0
  159.2150  211.6940  154.1570 C   0  0  0  0  0  0  0  0  0  0  0  0
  159.1340  212.8840  153.4080 C   0  0  0  0  0  0  0  0  0  0  0  0
  161.0090  211.9720  150.3560 C   0  0  0  0  0  0  0  0  0  0  0  0
  161.7640  209.7100  150.5360 N   0  0  0  0  0  0  0  0  0  0  0  0
  157.9200  212.7850  155.9200 C   0  0  0  0  0  0  0  0  0  0  0  0
  162.3940  210.9260  148.4960 C   0  0  0  0  0  2  0  0  0  0  0  0
  162.0050  207.2800  151.9160 C   0  0  0  0  0  3  0  0  0  0  0  0
  161.2030  209.5760  151.7700 C   0  0  0  0  0  0  0  0  0  0  0  0
  161.3160  208.3720  152.4670 C   0  0  0  0  0  0  0  0  0  0  0  0
  160.0410  209.3460  154.2960 C   0  0  0  0  0  0  0  0  0  0  0  0
  157.8510  213.9530  155.1620 C   0  0  0  0  0  3  0  0  0  0  0  0
  161.6750  210.8550  149.8150 C   0  0  0  0  0  0  0  0  0  0  0  0
  158.4590  214.0020  153.9060 C   0  0  0  0  0  3  0  0  0  0  0  0
  160.8330  213.2450  149.5670 C   0  0  0  0  0  2  0  0  0  0  0  0
  161.7800  213.3330  148.3640 C   0  0  2  0  0  3  0  0  0  0  0  0
  160.8440  207.0430  154.4430 C   0  0  0  0  0  3  0  0  0  0  0  0
  160.7310  208.2550  153.7410 C   0  0  0  0  0  0  0  0  0  0  0  0
  159.5260  209.2070  155.4410 O   0  0  0  0  0  0  0  0  0  0  0  0
  160.4170  211.8610  151.6220 C   0  0  0  0  0  0  0  0  0  0  0  0
  159.7320  212.9530  152.1560 O   0  0  0  0  0  0  0  0  0  0  0  0
  157.2750  212.7280  157.2580 C   0  0  0  0  0  1  0  0  0  0  0  0
  159.9290  210.5400  153.6060 N   0  0  0  0  0  0  0  0  0  0  0  0
  158.5940  211.6690  155.4220 C   0  0  0  0  0  3  0  0  0  0  0  0
  161.5260  214.4530  147.5420 O   0  0  0  0  0  0  0  0  0  0  0  0
  161.6260  214.0700  146.1940 C   0  0  0  0  0  2  0  0  0  0  0  0
  160.3240  214.2920  145.5120 C   0  0  0  0  0  0  0  0  0  0  0  0
  160.2770  214.4240  144.1310 O   0  0  0  0  0  0  0  0  0  0  0  0
  159.2600  214.3210  146.1830 O   0  0  0  0  0  1  0  0  0  0  0  0
  1 19  1  0  0  0  0
  1 10  1  0  0  0  0
  2 26  1  0  0  0  0
  3  4  1  0  0  0  0
  4 20  2  0  0  0  0
  5 27  1  0  0  0  0
  6 17  1  0  0  0  0
  6  5  2  0  0  0  0
  7 23  1  0  0  0  0
  8 12  2  0  0  0  0
  9 25  1  0  0  0  0
 10 16  1  0  0  0  0
 11 13  1  0  0  0  0
 11  3  2  0  0  0  0
 12  2  1  0  0  0  0
 12 13  1  0  0  0  0
 13 21  2  0  0  0  0
 14 22  2  0  0  0  0
 15  9  1  0  0  0  0
 16  7  2  0  0  0  0
 16  8  1  0  0  0  0
 17 15  2  0  0  0  0
 18  7  1  0  0  0  0
 19 28  1  6  0  0  0
 19 18  1  0  0  0  0
 21 14  1  0  0  0  0
 21 20  1  0  0  0  0
 23 24  1  0  0  0  0
 23  2  2  0  0  0  0
 24  6  1  0  0  0  0
 26  5  1  0  0  0  0
 26 14  1  0  0  0  0
 27  9  2  0  0  0  0
 29 28  1  0  0  0  0
 30 32  1  0  0  0  0
 30 29  1  0  0  0  0
 31 30  2  0  0  0  0
M  END
>  <MODEL>
9

>  <REMARK>
 VINA RESULT:      -5.9      4.517      7.393
  Name = 
  3 active torsions:
  status: ('A' for Active; 'I' for Inactive)
    1  A    between atoms: C_1  and  C_10
    2  A    between atoms: C_10  and  O_19
    3  A    between atoms: O_19  and  C_24
                            x       y       z     vdW  Elec       q    Type
                         _______ _______ _______ _____ _____    ______ ____

>  <TORSDO>
F 3

$$$$
