=
 OpenBabel11062410473D

 32 35  0  0  1  0  0  0  0  0999 V2000
  162.1480  209.6820  150.8740 C   0  0  0  0  0  2  0  0  0  0  0  0
  161.1610  205.3930  153.9880 C   0  0  0  0  0  1  0  0  0  0  0  0
  161.0990  207.7900  154.9270 C   0  0  0  0  0  3  0  0  0  0  0  0
  161.5430  207.4560  147.9500 N   0  0  0  0  0  0  0  0  0  0  0  0
  161.3060  206.7200  150.2150 C   0  0  0  0  0  0  0  0  0  0  0  0
  161.2580  205.0210  148.4750 C   0  0  0  0  0  0  0  0  0  0  0  0
  160.9820  206.8280  153.8410 N   0  0  0  0  0  0  0  0  0  0  0  0
  161.0600  207.0270  151.4510 C   0  0  0  0  0  0  0  0  0  0  0  0
  160.8270  207.5320  152.6290 C   0  0  0  0  0  0  0  0  0  0  0  0
  160.9130  209.9160  151.7430 C   0  0  1  0  0  3  0  0  0  0  0  0
  162.3270  205.7880  146.3540 C   0  0  0  0  0  1  0  0  0  0  0  0
  161.2320  205.3290  149.7770 C   0  0  0  0  0  3  0  0  0  0  0  0
  161.2940  206.1080  147.4190 C   0  0  2  0  0  3  0  0  0  0  0  0
  161.0080  209.1810  154.2620 C   0  0  0  0  0  3  0  0  0  0  0  0
  160.8620  208.9290  152.8310 N   0  0  0  0  0  0  0  0  0  0  0  0
  161.5330  207.7810  149.2080 C   0  0  0  0  0  0  0  0  0  0  0  0
  161.7830  209.1580  149.5580 N   0  0  0  0  0  2  0  0  0  0  0  0
  161.1930  203.6860  148.0520 O   0  0  0  0  0  0  0  0  0  0  0  0
  160.6560  202.6310  148.8430 C   0  0  0  0  0  2  0  0  0  0  0  0
  160.9980  200.9390  147.0090 C   0  0  0  0  0  0  0  0  0  0  0  0
  161.1520  201.3480  148.3680 N   0  0  0  0  0  2  0  0  0  0  0  0
  160.4130  201.6830  146.1770 O   0  0  0  0  0  0  0  0  0  0  0  0
  161.5410  199.6280  146.5680 C   0  0  0  0  0  1  0  0  0  0  0  0
  160.9210  211.3470  152.2670 C   0  0  0  0  0  2  0  0  0  0  0  0
  159.5310  213.3300  151.7230 C   0  0  1  0  0  3  0  0  0  0  0  0
  159.0710  212.1520  153.6800 C   0  0  1  0  0  3  0  0  0  0  0  0
  159.0000  213.5970  153.8470 N   0  0  0  0  0  2  0  0  0  0  0  0
  158.8170  214.1480  152.6140 O   0  0  0  0  0  0  0  0  0  0  0  0
  157.6940  211.5470  153.8850 C   0  0  0  0  0  1  0  0  0  0  0  0
  159.5150  211.9250  152.2700 C   0  0  2  0  0  3  0  0  0  0  0  0
  157.6130  213.4130  150.1520 C   0  0  0  0  0  2  0  0  0  0  0  0
  158.9330  213.3920  150.3490 C   0  0  0  0  0  3  0  0  0  0  0  0
  1 10  1  0  0  0  0
  4 16  2  0  0  0  0
  5  8  2  0  0  0  0
  6 12  2  0  0  0  0
  7  2  1  0  0  0  0
  7  3  1  0  0  0  0
  8  9  2  0  0  0  0
  9 15  1  0  0  0  0
  9  7  1  0  0  0  0
 10 24  1  1  0  0  0
 10 15  1  0  0  0  0
 12  5  1  0  0  0  0
 13 11  1  6  0  0  0
 13  4  1  0  0  0  0
 13  6  1  0  0  0  0
 14  3  2  0  0  0  0
 15 14  1  0  0  0  0
 16 17  1  0  0  0  0
 16  5  1  0  0  0  0
 17  1  1  0  0  0  0
 18  6  1  0  0  0  0
 18 19  1  0  0  0  0
 20 21  1  0  0  0  0
 21 19  1  0  0  0  0
 22 20  2  0  0  0  0
 23 20  1  0  0  0  0
 25 32  1  6  0  0  0
 25 30  1  0  0  0  0
 25 28  1  0  0  0  0
 26 27  1  0  0  0  0
 26 29  1  6  0  0  0
 28 27  1  0  0  0  0
 30 24  1  1  0  0  0
 30 26  1  0  0  0  0
 31 32  2  0  0  0  0
M  END
>  <MODEL>
1

>  <REMARK>
 VINA RESULT:      -7.9      0.000      0.000
  Name = 
  6 active torsions:
  status: ('A' for Active; 'I' for Inactive)
    1  A    between atoms: O_2  and  C_12
    2  A    between atoms: O_2  and  C_24
    3  A    between atoms: C_7  and  C_29
    4  A    between atoms: N_10  and  C_24
    5  A    between atoms: C_16  and  C_27
    6  A    between atoms: C_27  and  C_32
                            x       y       z     vdW  Elec       q    Type
                         _______ _______ _______ _____ _____    ______ ____

>  <TORSDO>
F 6

$$$$
=
 OpenBabel11062410473D

 32 35  0  0  1  0  0  0  0  0999 V2000
  160.6040  206.4510  152.9400 C   0  0  0  0  0  2  0  0  0  0  0  0
  161.7650  208.6480  148.1560 C   0  0  0  0  0  1  0  0  0  0  0  0
  162.0380  209.9650  150.3520 C   0  0  0  0  0  3  0  0  0  0  0  0
  160.7670  203.1400  151.2420 N   0  0  0  0  0  0  0  0  0  0  0  0
  161.2360  205.2020  150.1190 C   0  0  0  0  0  0  0  0  0  0  0  0
  161.0080  203.2060  148.7470 C   0  0  0  0  0  0  0  0  0  0  0  0
  161.9860  208.7250  149.5910 N   0  0  0  0  0  0  0  0  0  0  0  0
  161.6380  206.4320  150.2020 C   0  0  0  0  0  0  0  0  0  0  0  0
  162.0280  207.6400  150.4900 C   0  0  0  0  0  0  0  0  0  0  0  0
  161.9410  207.1890  152.9930 C   0  0  1  0  0  3  0  0  0  0  0  0
  159.7310  201.3930  149.8940 C   0  0  0  0  0  1  0  0  0  0  0  0
  161.1980  204.5280  148.8240 C   0  0  0  0  0  3  0  0  0  0  0  0
  160.8940  202.3620  150.0010 C   0  0  2  0  0  3  0  0  0  0  0  0
  162.1110  209.5400  151.8350 C   0  0  0  0  0  3  0  0  0  0  0  0
  162.0760  208.0790  151.8310 N   0  0  0  0  0  0  0  0  0  0  0  0
  160.9380  204.4240  151.3440 C   0  0  0  0  0  0  0  0  0  0  0  0
  160.7900  205.0300  152.6440 N   0  0  0  0  0  2  0  0  0  0  0  0
  160.9650  202.5580  147.5050 O   0  0  0  0  0  0  0  0  0  0  0  0
  161.8940  202.8020  146.4540 C   0  0  0  0  0  2  0  0  0  0  0  0
  161.7930  204.9180  145.0920 C   0  0  0  0  0  0  0  0  0  0  0  0
  161.2790  203.6290  145.4260 N   0  0  0  0  0  2  0  0  0  0  0  0
  162.7990  205.3830  145.6920 O   0  0  0  0  0  0  0  0  0  0  0  0
  161.1430  205.7160  144.0210 C   0  0  0  0  0  1  0  0  0  0  0  0
  162.0560  207.9450  154.3110 C   0  0  0  0  0  2  0  0  0  0  0  0
  160.5860  209.7380  155.1990 C   0  0  1  0  0  3  0  0  0  0  0  0
  160.5200  207.6410  156.2120 C   0  0  1  0  0  3  0  0  0  0  0  0
  160.4840  208.7420  157.1640 N   0  0  0  0  0  2  0  0  0  0  0  0
  160.0620  209.8530  156.4960 O   0  0  0  0  0  0  0  0  0  0  0  0
  159.2100  206.8760  156.2680 C   0  0  0  0  0  1  0  0  0  0  0  0
  160.6780  208.2700  154.8650 C   0  0  2  0  0  3  0  0  0  0  0  0
  159.9820  211.7360  153.8590 C   0  0  0  0  0  2  0  0  0  0  0  0
  159.7300  210.4740  154.2120 C   0  0  0  0  0  3  0  0  0  0  0  0
  1 10  1  0  0  0  0
  2  7  1  0  0  0  0
  3 14  2  0  0  0  0
  4 16  2  0  0  0  0
  5  8  2  0  0  0  0
  5 16  1  0  0  0  0
  6 12  2  0  0  0  0
  6 13  1  0  0  0  0
  7  3  1  0  0  0  0
  7  9  1  0  0  0  0
  8  9  2  0  0  0  0
  9 15  1  0  0  0  0
 10 24  1  1  0  0  0
 12  5  1  0  0  0  0
 13 11  1  6  0  0  0
 13  4  1  0  0  0  0
 15 14  1  0  0  0  0
 15 10  1  0  0  0  0
 16 17  1  0  0  0  0
 17  1  1  0  0  0  0
 18  6  1  0  0  0  0
 19 18  1  0  0  0  0
 20 21  1  0  0  0  0
 20 22  2  0  0  0  0
 21 19  1  0  0  0  0
 23 20  1  0  0  0  0
 25 32  1  6  0  0  0
 25 28  1  0  0  0  0
 26 29  1  6  0  0  0
 26 27  1  0  0  0  0
 28 27  1  0  0  0  0
 30 24  1  1  0  0  0
 30 25  1  0  0  0  0
 30 26  1  0  0  0  0
 31 32  2  0  0  0  0
M  END
>  <MODEL>
2

>  <REMARK>
 VINA RESULT:      -7.4      2.459      4.431
  Name = 
  6 active torsions:
  status: ('A' for Active; 'I' for Inactive)
    1  A    between atoms: O_2  and  C_12
    2  A    between atoms: O_2  and  C_24
    3  A    between atoms: C_7  and  C_29
    4  A    between atoms: N_10  and  C_24
    5  A    between atoms: C_16  and  C_27
    6  A    between atoms: C_27  and  C_32
                            x       y       z     vdW  Elec       q    Type
                         _______ _______ _______ _____ _____    ______ ____

>  <TORSDO>
F 6

$$$$
=
 OpenBabel11062410473D

 32 35  0  0  1  0  0  0  0  0999 V2000
  160.6910  208.3580  153.1520 C   0  0  0  0  0  2  0  0  0  0  0  0
  161.6730  208.8100  147.8700 C   0  0  0  0  0  1  0  0  0  0  0  0
  161.8650  210.8270  149.4610 C   0  0  0  0  0  3  0  0  0  0  0  0
  161.0740  204.6790  152.7110 N   0  0  0  0  0  0  0  0  0  0  0  0
  161.3930  206.2430  150.9270 C   0  0  0  0  0  0  0  0  0  0  0  0
  161.2980  203.8820  150.3440 C   0  0  0  0  0  0  0  0  0  0  0  0
  161.8950  209.3990  149.1810 N   0  0  0  0  0  0  0  0  0  0  0  0
  161.7100  207.4470  150.5640 C   0  0  0  0  0  0  0  0  0  0  0  0
  162.0170  208.7020  150.4010 C   0  0  0  0  0  0  0  0  0  0  0  0
  161.9730  209.1500  152.9060 C   0  0  1  0  0  3  0  0  0  0  0  0
  160.1560  202.5090  152.0870 C   0  0  0  0  0  1  0  0  0  0  0  0
  161.3970  205.1580  149.9500 C   0  0  0  0  0  3  0  0  0  0  0  0
  161.2490  203.5260  151.8170 C   0  0  2  0  0  3  0  0  0  0  0  0
  161.9740  210.9530  150.9960 C   0  0  0  0  0  3  0  0  0  0  0  0
  162.0410  209.5840  151.5030 N   0  0  0  0  0  0  0  0  0  0  0  0
  161.1560  205.9260  152.3530 C   0  0  0  0  0  0  0  0  0  0  0  0
  160.9730  206.9380  153.3650 N   0  0  0  0  0  2  0  0  0  0  0  0
  161.2940  202.8400  149.4070 O   0  0  0  0  0  0  0  0  0  0  0  0
  161.5780  203.0190  148.0240 C   0  0  0  0  0  2  0  0  0  0  0  0
  160.6960  202.1460  145.8320 C   0  0  0  0  0  0  0  0  0  0  0  0
  160.8960  202.0010  147.2380 N   0  0  0  0  0  2  0  0  0  0  0  0
  161.1020  203.1750  145.2280 O   0  0  0  0  0  0  0  0  0  0  0  0
  160.0120  201.0690  145.0700 C   0  0  0  0  0  1  0  0  0  0  0  0
  162.0420  210.3250  153.8730 C   0  0  0  0  0  2  0  0  0  0  0  0
  160.1030  211.8700  153.9900 C   0  0  1  0  0  3  0  0  0  0  0  0
  160.8600  210.8850  155.9600 C   0  0  1  0  0  3  0  0  0  0  0  0
  160.5070  212.2880  156.1180 N   0  0  0  0  0  2  0  0  0  0  0  0
  159.6700  212.6210  155.0940 O   0  0  0  0  0  0  0  0  0  0  0  0
  159.9150  210.0260  156.7810 C   0  0  0  0  0  1  0  0  0  0  0  0
  160.6840  210.5790  154.5070 C   0  0  2  0  0  3  0  0  0  0  0  0
  158.5550  212.5480  152.1730 C   0  0  0  0  0  2  0  0  0  0  0  0
  158.9700  211.6210  153.0390 C   0  0  0  0  0  3  0  0  0  0  0  0
  1 17  1  0  0  0  0
  2  7  1  0  0  0  0
  3 14  2  0  0  0  0
  5 16  1  0  0  0  0
  6 13  1  0  0  0  0
  7  3  1  0  0  0  0
  7  9  1  0  0  0  0
  8  5  2  0  0  0  0
  9  8  2  0  0  0  0
  9 15  1  0  0  0  0
 10  1  1  0  0  0  0
 10 24  1  1  0  0  0
 12  6  2  0  0  0  0
 12  5  1  0  0  0  0
 13 11  1  6  0  0  0
 13  4  1  0  0  0  0
 14 15  1  0  0  0  0
 15 10  1  0  0  0  0
 16  4  2  0  0  0  0
 16 17  1  0  0  0  0
 18  6  1  0  0  0  0
 19 18  1  0  0  0  0
 20 21  1  0  0  0  0
 21 19  1  0  0  0  0
 22 20  2  0  0  0  0
 23 20  1  0  0  0  0
 25 32  1  6  0  0  0
 25 30  1  0  0  0  0
 25 28  1  0  0  0  0
 26 27  1  0  0  0  0
 26 29  1  1  0  0  0
 28 27  1  0  0  0  0
 30 24  1  6  0  0  0
 30 26  1  0  0  0  0
 31 32  2  0  0  0  0
M  END
>  <MODEL>
3

>  <REMARK>
 VINA RESULT:      -7.0      1.809      3.544
  Name = 
  6 active torsions:
  status: ('A' for Active; 'I' for Inactive)
    1  A    between atoms: O_2  and  C_12
    2  A    between atoms: O_2  and  C_24
    3  A    between atoms: C_7  and  C_29
    4  A    between atoms: N_10  and  C_24
    5  A    between atoms: C_16  and  C_27
    6  A    between atoms: C_27  and  C_32
                            x       y       z     vdW  Elec       q    Type
                         _______ _______ _______ _____ _____    ______ ____

>  <TORSDO>
F 6

$$$$
=
 OpenBabel11062410473D

 32 35  0  0  1  0  0  0  0  0999 V2000
  162.7600  206.9680  151.3050 C   0  0  0  0  0  2  0  0  0  0  0  0
  161.1730  212.1140  151.0560 C   0  0  0  0  0  1  0  0  0  0  0  0
  162.0640  210.8710  148.9840 C   0  0  0  0  0  3  0  0  0  0  0  0
  160.8820  206.7460  154.5140 N   0  0  0  0  0  0  0  0  0  0  0  0
  160.9170  208.7210  153.1610 C   0  0  0  0  0  0  0  0  0  0  0  0
  159.9700  208.9090  155.3950 C   0  0  0  0  0  0  0  0  0  0  0  0
  161.4240  210.9030  150.2910 N   0  0  0  0  0  0  0  0  0  0  0  0
  161.0480  209.2430  151.9810 C   0  0  0  0  0  0  0  0  0  0  0  0
  161.2410  209.5790  150.7380 C   0  0  0  0  0  0  0  0  0  0  0  0
  161.8760  207.2030  150.0820 C   0  0  1  0  0  3  0  0  0  0  0  0
  160.7470  207.0950  156.9220 C   0  0  0  0  0  1  0  0  0  0  0  0
  160.3210  209.4980  154.2440 C   0  0  0  0  0  3  0  0  0  0  0  0
  160.1180  207.4120  155.5780 C   0  0  2  0  0  3  0  0  0  0  0  0
  162.2720  209.3750  148.6600 C   0  0  0  0  0  3  0  0  0  0  0  0
  161.7530  208.6430  149.8130 N   0  0  0  0  0  0  0  0  0  0  0  0
  161.2430  207.2950  153.3930 C   0  0  0  0  0  0  0  0  0  0  0  0
  161.9780  206.4920  152.4470 N   0  0  0  0  0  2  0  0  0  0  0  0
  159.4040  209.6540  156.4390 O   0  0  0  0  0  0  0  0  0  0  0  0
  159.1980  211.0620  156.3830 C   0  0  0  0  0  2  0  0  0  0  0  0
  157.3780  211.9860  154.9080 C   0  0  0  0  0  0  0  0  0  0  0  0
  157.7970  211.3520  156.1160 N   0  0  0  0  0  2  0  0  0  0  0  0
  158.2220  212.3250  154.0350 O   0  0  0  0  0  0  0  0  0  0  0  0
  155.9340  212.2420  154.6720 C   0  0  0  0  0  1  0  0  0  0  0  0
  162.4410  206.4430  148.8890 C   0  0  0  0  0  2  0  0  0  0  0  0
  161.5530  204.1700  148.4350 C   0  0  1  0  0  3  0  0  0  0  0  0
  161.5270  205.7380  146.7130 C   0  0  1  0  0  3  0  0  0  0  0  0
  161.9220  204.4080  146.2740 N   0  0  0  0  0  2  0  0  0  0  0  0
  161.4650  203.5150  147.1970 O   0  0  0  0  0  0  0  0  0  0  0  0
  160.2080  206.1180  146.0640 C   0  0  0  0  0  1  0  0  0  0  0  0
  161.3490  205.6440  148.1940 C   0  0  2  0  0  3  0  0  0  0  0  0
  160.7330  203.6510  150.7190 C   0  0  0  0  0  2  0  0  0  0  0  0
  160.5400  203.6250  149.3980 C   0  0  0  0  0  3  0  0  0  0  0  0
  1 17  1  0  0  0  0
  3  7  1  0  0  0  0
  4 13  1  0  0  0  0
  5 16  1  0  0  0  0
  5 12  1  0  0  0  0
  6 13  1  0  0  0  0
  6 18  1  0  0  0  0
  7  9  1  0  0  0  0
  7  2  1  0  0  0  0
  8  5  2  0  0  0  0
  9  8  2  0  0  0  0
 10 24  1  6  0  0  0
 10  1  1  0  0  0  0
 12  6  2  0  0  0  0
 13 11  1  1  0  0  0
 14  3  2  0  0  0  0
 14 15  1  0  0  0  0
 15 10  1  0  0  0  0
 15  9  1  0  0  0  0
 16  4  2  0  0  0  0
 17 16  1  0  0  0  0
 19 18  1  0  0  0  0
 20 21  1  0  0  0  0
 21 19  1  0  0  0  0
 22 20  2  0  0  0  0
 23 20  1  0  0  0  0
 25 32  1  1  0  0  0
 26 29  1  6  0  0  0
 26 30  1  0  0  0  0
 27 26  1  0  0  0  0
 27 28  1  0  0  0  0
 28 25  1  0  0  0  0
 30 25  1  0  0  0  0
 30 24  1  1  0  0  0
 32 31  2  0  0  0  0
M  END
>  <MODEL>
4

>  <REMARK>
 VINA RESULT:      -7.0      2.133      8.873
  Name = 
  6 active torsions:
  status: ('A' for Active; 'I' for Inactive)
    1  A    between atoms: O_2  and  C_12
    2  A    between atoms: O_2  and  C_24
    3  A    between atoms: C_7  and  C_29
    4  A    between atoms: N_10  and  C_24
    5  A    between atoms: C_16  and  C_27
    6  A    between atoms: C_27  and  C_32
                            x       y       z     vdW  Elec       q    Type
                         _______ _______ _______ _____ _____    ______ ____

>  <TORSDO>
F 6

$$$$
=
 OpenBabel11062410473D

 32 35  0  0  1  0  0  0  0  0999 V2000
  162.3000  209.9650  152.0580 C   0  0  0  0  0  2  0  0  0  0  0  0
  160.8030  205.3510  154.4120 C   0  0  0  0  0  1  0  0  0  0  0  0
  160.9520  207.5580  155.7310 C   0  0  0  0  0  3  0  0  0  0  0  0
  161.5630  208.3170  148.8000 N   0  0  0  0  0  0  0  0  0  0  0  0
  161.1890  207.2510  150.9110 C   0  0  0  0  0  0  0  0  0  0  0  0
  161.0230  205.8710  148.9140 C   0  0  0  0  0  0  0  0  0  0  0  0
  160.7720  206.8020  154.5000 N   0  0  0  0  0  0  0  0  0  0  0  0
  160.9380  207.3770  152.1770 C   0  0  0  0  0  0  0  0  0  0  0  0
  160.7230  207.7050  153.4190 C   0  0  0  0  0  0  0  0  0  0  0  0
  161.0700  210.1800  152.9380 C   0  0  1  0  0  3  0  0  0  0  0  0
  162.2240  206.8590  146.9620 C   0  0  0  0  0  1  0  0  0  0  0  0
  160.9900  205.9650  150.2490 C   0  0  0  0  0  3  0  0  0  0  0  0
  161.1970  207.1060  148.0520 C   0  0  2  0  0  3  0  0  0  0  0  0
  161.0180  209.0400  155.3040 C   0  0  0  0  0  3  0  0  0  0  0  0
  160.8900  209.0400  153.8480 N   0  0  0  0  0  0  0  0  0  0  0  0
  161.5490  208.4330  150.0950 C   0  0  0  0  0  0  0  0  0  0  0  0
  161.9240  209.7020  150.6690 N   0  0  0  0  0  2  0  0  0  0  0  0
  160.8390  204.6360  148.2760 O   0  0  0  0  0  0  0  0  0  0  0  0
  161.0850  203.3800  148.9000 C   0  0  0  0  0  2  0  0  0  0  0  0
  161.2950  200.9610  148.2330 C   0  0  0  0  0  0  0  0  0  0  0  0
  161.2520  202.3450  147.8900 N   0  0  0  0  0  2  0  0  0  0  0  0
  161.1980  200.5940  149.4350 O   0  0  0  0  0  0  0  0  0  0  0  0
  161.4460  199.9410  147.1630 C   0  0  0  0  0  1  0  0  0  0  0  0
  161.2050  211.4980  153.6910 C   0  0  0  0  0  2  0  0  0  0  0  0
  159.0970  212.1660  154.8210 C   0  0  1  0  0  3  0  0  0  0  0  0
  159.0380  211.7060  152.5380 C   0  0  1  0  0  3  0  0  0  0  0  0
  157.8940  211.1720  153.2620 N   0  0  0  0  0  2  0  0  0  0  0  0
  157.7830  211.8670  154.4300 O   0  0  0  0  0  0  0  0  0  0  0  0
  158.5720  212.7780  151.5690 C   0  0  0  0  0  1  0  0  0  0  0  0
  159.9290  212.3170  153.5720 C   0  0  2  0  0  3  0  0  0  0  0  0
  160.1010  213.6340  156.5510 C   0  0  0  0  0  2  0  0  0  0  0  0
  159.1340  213.4100  155.6590 C   0  0  0  0  0  3  0  0  0  0  0  0
  1 10  1  0  0  0  0
  2  7  1  0  0  0  0
  4 16  2  0  0  0  0
  5  8  2  0  0  0  0
  6 12  2  0  0  0  0
  7  3  1  0  0  0  0
  8  9  2  0  0  0  0
  9 15  1  0  0  0  0
  9  7  1  0  0  0  0
 10 24  1  1  0  0  0
 10 15  1  0  0  0  0
 12  5  1  0  0  0  0
 13 11  1  6  0  0  0
 13  4  1  0  0  0  0
 13  6  1  0  0  0  0
 14  3  2  0  0  0  0
 15 14  1  0  0  0  0
 16 17  1  0  0  0  0
 16  5  1  0  0  0  0
 17  1  1  0  0  0  0
 18 19  1  0  0  0  0
 18  6  1  0  0  0  0
 20 22  2  0  0  0  0
 21 20  1  0  0  0  0
 21 19  1  0  0  0  0
 23 20  1  0  0  0  0
 25 32  1  6  0  0  0
 26 29  1  6  0  0  0
 26 27  1  0  0  0  0
 26 30  1  0  0  0  0
 27 28  1  0  0  0  0
 28 25  1  0  0  0  0
 30 24  1  1  0  0  0
 30 25  1  0  0  0  0
 32 31  2  0  0  0  0
M  END
>  <MODEL>
5

>  <REMARK>
 VINA RESULT:      -6.6      1.511      2.180
  Name = 
  6 active torsions:
  status: ('A' for Active; 'I' for Inactive)
    1  A    between atoms: O_2  and  C_12
    2  A    between atoms: O_2  and  C_24
    3  A    between atoms: C_7  and  C_29
    4  A    between atoms: N_10  and  C_24
    5  A    between atoms: C_16  and  C_27
    6  A    between atoms: C_27  and  C_32
                            x       y       z     vdW  Elec       q    Type
                         _______ _______ _______ _____ _____    ______ ____

>  <TORSDO>
F 6

$$$$
=
 OpenBabel11062410473D

 32 35  0  0  1  0  0  0  0  0999 V2000
  161.3450  205.7320  151.5990 C   0  0  0  0  0  2  0  0  0  0  0  0
  162.5920  210.7010  149.9180 C   0  0  0  0  0  1  0  0  0  0  0  0
  162.0200  208.8150  148.2610 C   0  0  0  0  0  3  0  0  0  0  0  0
  160.7460  207.2290  154.9580 N   0  0  0  0  0  0  0  0  0  0  0  0
  161.3420  208.5330  153.0400 C   0  0  0  0  0  0  0  0  0  0  0  0
  161.3880  209.6390  155.2060 C   0  0  0  0  0  0  0  0  0  0  0  0
  161.9390  209.4500  149.5670 N   0  0  0  0  0  0  0  0  0  0  0  0
  161.3350  208.6550  151.7490 C   0  0  0  0  0  0  0  0  0  0  0  0
  161.2650  208.5820  150.4510 C   0  0  0  0  0  0  0  0  0  0  0  0
  160.3650  206.2020  150.5260 C   0  0  1  0  0  3  0  0  0  0  0  0
  161.5800  208.0290  157.1030 C   0  0  0  0  0  1  0  0  0  0  0  0
  161.6000  209.6940  153.8860 C   0  0  0  0  0  3  0  0  0  0  0  0
  160.8080  208.3950  155.8490 C   0  0  2  0  0  3  0  0  0  0  0  0
  161.3270  207.4440  148.4210 C   0  0  0  0  0  3  0  0  0  0  0  0
  160.9080  207.3710  149.8190 N   0  0  0  0  0  0  0  0  0  0  0  0
  160.9570  207.2520  153.6750 C   0  0  0  0  0  0  0  0  0  0  0  0
  160.8400  206.0140  152.9430 N   0  0  0  0  0  2  0  0  0  0  0  0
  161.6420  210.7510  156.0210 O   0  0  0  0  0  0  0  0  0  0  0  0
  160.6200  211.5480  156.6130 C   0  0  0  0  0  2  0  0  0  0  0  0
  158.8550  212.2250  154.9490 C   0  0  0  0  0  0  0  0  0  0  0  0
  160.0820  212.4790  155.6320 N   0  0  0  0  0  2  0  0  0  0  0  0
  158.2020  211.1710  155.1730 O   0  0  0  0  0  0  0  0  0  0  0  0
  158.3370  213.2170  153.9720 C   0  0  0  0  0  1  0  0  0  0  0  0
  160.0550  205.0520  149.5770 C   0  0  0  0  0  2  0  0  0  0  0  0
  161.3880  203.5290  148.1390 C   0  0  1  0  0  3  0  0  0  0  0  0
  160.8310  202.8250  150.2890 C   0  0  1  0  0  3  0  0  0  0  0  0
  160.7070  201.7740  149.2890 N   0  0  0  0  0  2  0  0  0  0  0  0
  161.4720  202.1300  148.2180 O   0  0  0  0  0  0  0  0  0  0  0  0
  161.9320  202.4680  151.2700 C   0  0  0  0  0  1  0  0  0  0  0  0
  161.2080  204.0620  149.5380 C   0  0  2  0  0  3  0  0  0  0  0  0
  162.5640  204.7050  146.2980 C   0  0  0  0  0  2  0  0  0  0  0  0
  162.6130  204.1000  147.4870 C   0  0  0  0  0  3  0  0  0  0  0  0
  1 17  1  0  0  0  0
  3 14  2  0  0  0  0
  3  7  1  0  0  0  0
  4 13  1  0  0  0  0
  5 16  1  0  0  0  0
  5 12  1  0  0  0  0
  6 13  1  0  0  0  0
  6 18  1  0  0  0  0
  7  2  1  0  0  0  0
  7  9  1  0  0  0  0
  8  5  2  0  0  0  0
  9  8  2  0  0  0  0
 10 24  1  6  0  0  0
 10  1  1  0  0  0  0
 12  6  2  0  0  0  0
 13 11  1  1  0  0  0
 14 15  1  0  0  0  0
 15  9  1  0  0  0  0
 15 10  1  0  0  0  0
 16  4  2  0  0  0  0
 17 16  1  0  0  0  0
 18 19  1  0  0  0  0
 20 22  2  0  0  0  0
 20 21  1  0  0  0  0
 21 19  1  0  0  0  0
 23 20  1  0  0  0  0
 25 32  1  1  0  0  0
 25 28  1  0  0  0  0
 25 30  1  0  0  0  0
 26 29  1  1  0  0  0
 27 26  1  0  0  0  0
 28 27  1  0  0  0  0
 30 24  1  6  0  0  0
 30 26  1  0  0  0  0
 31 32  2  0  0  0  0
M  END
>  <MODEL>
6

>  <REMARK>
 VINA RESULT:      -6.5      2.128      9.124
  Name = 
  6 active torsions:
  status: ('A' for Active; 'I' for Inactive)
    1  A    between atoms: O_2  and  C_12
    2  A    between atoms: O_2  and  C_24
    3  A    between atoms: C_7  and  C_29
    4  A    between atoms: N_10  and  C_24
    5  A    between atoms: C_16  and  C_27
    6  A    between atoms: C_27  and  C_32
                            x       y       z     vdW  Elec       q    Type
                         _______ _______ _______ _____ _____    ______ ____

>  <TORSDO>
F 6

$$$$
=
 OpenBabel11062410473D

 32 35  0  0  1  0  0  0  0  0999 V2000
  161.1640  206.4050  148.4940 C   0  0  0  0  0  2  0  0  0  0  0  0
  160.3050  203.2130  152.7530 C   0  0  0  0  0  1  0  0  0  0  0  0
  160.8310  202.2500  150.4230 C   0  0  0  0  0  3  0  0  0  0  0  0
  161.7070  209.1760  150.9240 N   0  0  0  0  0  0  0  0  0  0  0  0
  161.2790  206.9190  151.5990 C   0  0  0  0  0  0  0  0  0  0  0  0
  161.2070  208.6360  153.3210 C   0  0  0  0  0  0  0  0  0  0  0  0
  160.8940  203.3020  151.4260 N   0  0  0  0  0  0  0  0  0  0  0  0
  161.3500  205.6550  151.3170 C   0  0  0  0  0  0  0  0  0  0  0  0
  161.4730  204.4480  150.8440 C   0  0  0  0  0  0  0  0  0  0  0  0
  162.2180  205.3020  148.5640 C   0  0  1  0  0  3  0  0  0  0  0  0
  160.8310  210.9190  152.3850 C   0  0  0  0  0  1  0  0  0  0  0  0
  161.0570  207.3510  152.9750 C   0  0  0  0  0  3  0  0  0  0  0  0
  161.6790  209.6620  152.3100 C   0  0  2  0  0  3  0  0  0  0  0  0
  161.4280  202.8630  149.1380 C   0  0  0  0  0  3  0  0  0  0  0  0
  161.7800  204.2390  149.4810 N   0  0  0  0  0  0  0  0  0  0  0  0
  161.5550  207.9370  150.5600 C   0  0  0  0  0  0  0  0  0  0  0  0
  161.6260  207.6270  149.1530 N   0  0  0  0  0  2  0  0  0  0  0  0
  160.9880  209.0550  154.6410 O   0  0  0  0  0  0  0  0  0  0  0  0
  159.7720  208.8320  155.3480 C   0  0  0  0  0  2  0  0  0  0  0  0
  158.6780  211.0530  155.8130 C   0  0  0  0  0  0  0  0  0  0  0  0
  159.4940  209.9580  156.2280 N   0  0  0  0  0  2  0  0  0  0  0  0
  158.1780  211.0780  154.6560 O   0  0  0  0  0  0  0  0  0  0  0  0
  158.4060  212.1690  156.7550 C   0  0  0  0  0  1  0  0  0  0  0  0
  162.4970  204.7700  147.1640 C   0  0  0  0  0  2  0  0  0  0  0  0
  161.3000  203.5080  145.3930 C   0  0  1  0  0  3  0  0  0  0  0  0
  161.0830  205.8270  145.4460 C   0  0  1  0  0  3  0  0  0  0  0  0
  161.2370  205.2940  144.1000 N   0  0  0  0  0  2  0  0  0  0  0  0
  160.8890  203.9760  144.1350 O   0  0  0  0  0  0  0  0  0  0  0  0
  159.7060  206.4480  145.5930 C   0  0  0  0  0  1  0  0  0  0  0  0
  161.2070  204.6560  146.3670 C   0  0  2  0  0  3  0  0  0  0  0  0
  160.0780  201.3880  144.9820 C   0  0  0  0  0  2  0  0  0  0  0  0
  160.4560  202.3470  145.8300 C   0  0  0  0  0  3  0  0  0  0  0  0
  1 10  1  0  0  0  0
  1 17  1  0  0  0  0
  3  7  1  0  0  0  0
  4 13  1  0  0  0  0
  5 12  1  0  0  0  0
  6 18  1  0  0  0  0
  7  2  1  0  0  0  0
  8  5  2  0  0  0  0
  9  8  2  0  0  0  0
  9  7  1  0  0  0  0
 10 24  1  6  0  0  0
 10 15  1  0  0  0  0
 12  6  2  0  0  0  0
 13 11  1  6  0  0  0
 13  6  1  0  0  0  0
 14 15  1  0  0  0  0
 14  3  2  0  0  0  0
 15  9  1  0  0  0  0
 16  4  2  0  0  0  0
 16  5  1  0  0  0  0
 17 16  1  0  0  0  0
 18 19  1  0  0  0  0
 19 21  1  0  0  0  0
 20 21  1  0  0  0  0
 20 23  1  0  0  0  0
 22 20  2  0  0  0  0
 25 32  1  1  0  0  0
 25 30  1  0  0  0  0
 26 29  1  6  0  0  0
 26 30  1  0  0  0  0
 27 28  1  0  0  0  0
 27 26  1  0  0  0  0
 28 25  1  0  0  0  0
 30 24  1  6  0  0  0
 31 32  2  0  0  0  0
M  END
>  <MODEL>
7

>  <REMARK>
 VINA RESULT:      -6.2      2.408      8.857
  Name = 
  6 active torsions:
  status: ('A' for Active; 'I' for Inactive)
    1  A    between atoms: O_2  and  C_12
    2  A    between atoms: O_2  and  C_24
    3  A    between atoms: C_7  and  C_29
    4  A    between atoms: N_10  and  C_24
    5  A    between atoms: C_16  and  C_27
    6  A    between atoms: C_27  and  C_32
                            x       y       z     vdW  Elec       q    Type
                         _______ _______ _______ _____ _____    ______ ____

>  <TORSDO>
F 6

$$$$
=
 OpenBabel11062410473D

 32 35  0  0  1  0  0  0  0  0999 V2000
  161.8080  210.7480  153.5840 C   0  0  0  0  0  2  0  0  0  0  0  0
  160.6890  206.1130  156.1000 C   0  0  0  0  0  1  0  0  0  0  0  0
  160.3790  208.3910  157.2600 C   0  0  0  0  0  3  0  0  0  0  0  0
  161.6900  208.8230  150.3980 N   0  0  0  0  0  0  0  0  0  0  0  0
  161.2200  207.8400  152.5290 C   0  0  0  0  0  0  0  0  0  0  0  0
  161.4800  206.3360  150.6350 C   0  0  0  0  0  0  0  0  0  0  0  0
  160.4500  207.5470  156.0760 N   0  0  0  0  0  0  0  0  0  0  0  0
  160.8070  208.0030  153.7480 C   0  0  0  0  0  0  0  0  0  0  0  0
  160.4050  208.3680  154.9310 C   0  0  0  0  0  0  0  0  0  0  0  0
  160.4650  210.8350  154.3080 C   0  0  1  0  0  3  0  0  0  0  0  0
  162.7550  207.3700  148.7560 C   0  0  0  0  0  1  0  0  0  0  0  0
  161.2780  206.5020  151.9480 C   0  0  0  0  0  3  0  0  0  0  0  0
  161.5840  207.5300  149.7070 C   0  0  2  0  0  3  0  0  0  0  0  0
  160.2910  209.8400  156.7320 C   0  0  0  0  0  3  0  0  0  0  0  0
  160.3370  209.7360  155.2750 N   0  0  0  0  0  0  0  0  0  0  0  0
  161.5090  209.0110  151.6710 C   0  0  0  0  0  0  0  0  0  0  0  0
  161.6360  210.3530  152.1860 N   0  0  0  0  0  2  0  0  0  0  0  0
  161.5430  205.0520  150.0750 O   0  0  0  0  0  0  0  0  0  0  0  0
  160.7520  204.6340  148.9670 C   0  0  0  0  0  2  0  0  0  0  0  0
  161.5140  204.8000  146.5730 C   0  0  0  0  0  0  0  0  0  0  0  0
  161.6120  204.2140  147.8700 N   0  0  0  0  0  2  0  0  0  0  0  0
  160.6640  205.7000  146.3370 O   0  0  0  0  0  0  0  0  0  0  0  0
  162.4290  204.3530  145.4910 C   0  0  0  0  0  1  0  0  0  0  0  0
  160.3280  212.2010  154.9700 C   0  0  0  0  0  2  0  0  0  0  0  0
  157.9550  212.5990  155.5800 C   0  0  1  0  0  3  0  0  0  0  0  0
  158.4760  212.1860  153.3470 C   0  0  1  0  0  3  0  0  0  0  0  0
  157.2660  211.5090  153.7900 N   0  0  0  0  0  2  0  0  0  0  0  0
  156.8090  212.1610  154.8970 O   0  0  0  0  0  0  0  0  0  0  0  0
  158.1240  213.2180  152.2920 C   0  0  0  0  0  1  0  0  0  0  0  0
  159.0280  212.8710  154.5560 C   0  0  2  0  0  3  0  0  0  0  0  0
  156.4780  214.4490  156.3210 C   0  0  0  0  0  2  0  0  0  0  0  0
  157.6530  213.8200  156.3970 C   0  0  0  0  0  3  0  0  0  0  0  0
  1 10  1  0  0  0  0
  4 16  2  0  0  0  0
  5  8  2  0  0  0  0
  6 12  2  0  0  0  0
  7  2  1  0  0  0  0
  7  3  1  0  0  0  0
  8  9  2  0  0  0  0
  9 15  1  0  0  0  0
  9  7  1  0  0  0  0
 10 24  1  1  0  0  0
 10 15  1  0  0  0  0
 12  5  1  0  0  0  0
 13 11  1  1  0  0  0
 13  4  1  0  0  0  0
 13  6  1  0  0  0  0
 14  3  2  0  0  0  0
 15 14  1  0  0  0  0
 16 17  1  0  0  0  0
 16  5  1  0  0  0  0
 17  1  1  0  0  0  0
 18  6  1  0  0  0  0
 19 18  1  0  0  0  0
 20 21  1  0  0  0  0
 21 19  1  0  0  0  0
 22 20  2  0  0  0  0
 23 20  1  0  0  0  0
 25 32  1  6  0  0  0
 26 29  1  6  0  0  0
 26 27  1  0  0  0  0
 26 30  1  0  0  0  0
 27 28  1  0  0  0  0
 28 25  1  0  0  0  0
 30 24  1  1  0  0  0
 30 25  1  0  0  0  0
 31 32  2  0  0  0  0
M  END
>  <MODEL>
8

>  <REMARK>
 VINA RESULT:      -5.9      2.159      3.218
  Name = 
  6 active torsions:
  status: ('A' for Active; 'I' for Inactive)
    1  A    between atoms: O_2  and  C_12
    2  A    between atoms: O_2  and  C_24
    3  A    between atoms: C_7  and  C_29
    4  A    between atoms: N_10  and  C_24
    5  A    between atoms: C_16  and  C_27
    6  A    between atoms: C_27  and  C_32
                            x       y       z     vdW  Elec       q    Type
                         _______ _______ _______ _____ _____    ______ ____

>  <TORSDO>
F 6

$$$$
=
 OpenBabel11062410473D

 32 35  0  0  1  0  0  0  0  0999 V2000
  162.2420  205.3740  151.2770 C   0  0  0  0  0  2  0  0  0  0  0  0
  161.9570  210.4580  149.5060 C   0  0  0  0  0  1  0  0  0  0  0  0
  162.2220  208.4730  147.8870 C   0  0  0  0  0  3  0  0  0  0  0  0
  160.8210  206.6170  154.4880 N   0  0  0  0  0  0  0  0  0  0  0  0
  161.1580  208.0270  152.5830 C   0  0  0  0  0  0  0  0  0  0  0  0
  160.6000  209.1060  154.6900 C   0  0  0  0  0  0  0  0  0  0  0  0
  161.7940  209.0580  149.1490 N   0  0  0  0  0  0  0  0  0  0  0  0
  161.2530  208.1280  151.2930 C   0  0  0  0  0  0  0  0  0  0  0  0
  161.3520  208.0240  149.9990 C   0  0  0  0  0  0  0  0  0  0  0  0
  161.2850  205.4810  150.0910 C   0  0  1  0  0  3  0  0  0  0  0  0
  161.1050  207.6690  156.6680 C   0  0  0  0  0  1  0  0  0  0  0  0
  160.9250  209.2160  153.3960 C   0  0  0  0  0  3  0  0  0  0  0  0
  160.3970  207.7460  155.3270 C   0  0  2  0  0  3  0  0  0  0  0  0
  162.0080  206.9520  148.0390 C   0  0  0  0  0  3  0  0  0  0  0  0
  161.4860  206.7570  149.3890 N   0  0  0  0  0  0  0  0  0  0  0  0
  161.1500  206.6960  153.2330 C   0  0  0  0  0  0  0  0  0  0  0  0
  161.5290  205.4840  152.5500 N   0  0  0  0  0  2  0  0  0  0  0  0
  160.3830  210.2470  155.4760 O   0  0  0  0  0  0  0  0  0  0  0  0
  159.0920  210.6980  155.8730 C   0  0  0  0  0  2  0  0  0  0  0  0
  157.3300  212.3110  155.0770 C   0  0  0  0  0  0  0  0  0  0  0  0
  158.5400  211.5880  154.8610 N   0  0  0  0  0  2  0  0  0  0  0  0
  156.6930  212.1910  156.1580 O   0  0  0  0  0  0  0  0  0  0  0  0
  156.8180  213.2230  154.0210 C   0  0  0  0  0  1  0  0  0  0  0  0
  161.4780  204.2840  149.1680 C   0  0  0  0  0  2  0  0  0  0  0  0
  161.6530  202.2510  150.5830 C   0  0  1  0  0  3  0  0  0  0  0  0
  160.4620  202.1170  148.5850 C   0  0  1  0  0  3  0  0  0  0  0  0
  161.2960  200.9510  148.8370 N   0  0  0  0  0  2  0  0  0  0  0  0
  161.5590  200.9110  150.1740 O   0  0  0  0  0  0  0  0  0  0  0  0
  159.0000  201.7120  148.6100 C   0  0  0  0  0  1  0  0  0  0  0  0
  160.7390  203.0680  149.7050 C   0  0  2  0  0  3  0  0  0  0  0  0
  160.0840  202.7970  152.4250 C   0  0  0  0  0  2  0  0  0  0  0  0
  161.2930  202.3920  152.0330 C   0  0  0  0  0  3  0  0  0  0  0  0
  1 17  1  0  0  0  0
  3 14  2  0  0  0  0
  3  7  1  0  0  0  0
  4 13  1  0  0  0  0
  5 16  1  0  0  0  0
  5 12  1  0  0  0  0
  6 13  1  0  0  0  0
  6 18  1  0  0  0  0
  7  2  1  0  0  0  0
  7  9  1  0  0  0  0
  8  5  2  0  0  0  0
  9  8  2  0  0  0  0
 10 24  1  6  0  0  0
 10  1  1  0  0  0  0
 12  6  2  0  0  0  0
 13 11  1  1  0  0  0
 14 15  1  0  0  0  0
 15  9  1  0  0  0  0
 15 10  1  0  0  0  0
 16  4  2  0  0  0  0
 17 16  1  0  0  0  0
 18 19  1  0  0  0  0
 20 22  2  0  0  0  0
 21 20  1  0  0  0  0
 21 19  1  0  0  0  0
 23 20  1  0  0  0  0
 25 32  1  1  0  0  0
 26 29  1  1  0  0  0
 26 27  1  0  0  0  0
 26 30  1  0  0  0  0
 27 28  1  0  0  0  0
 28 25  1  0  0  0  0
 30 24  1  6  0  0  0
 30 25  1  0  0  0  0
 32 31  2  0  0  0  0
M  END
>  <MODEL>
9

>  <REMARK>
 VINA RESULT:      -5.4      2.331      9.381
  Name = 
  6 active torsions:
  status: ('A' for Active; 'I' for Inactive)
    1  A    between atoms: O_2  and  C_12
    2  A    between atoms: O_2  and  C_24
    3  A    between atoms: C_7  and  C_29
    4  A    between atoms: N_10  and  C_24
    5  A    between atoms: C_16  and  C_27
    6  A    between atoms: C_27  and  C_32
                            x       y       z     vdW  Elec       q    Type
                         _______ _______ _______ _____ _____    ______ ____

>  <TORSDO>
F 6

$$$$
