=
 OpenBabel11052422143D

 25 27  0  0  1  0  0  0  0  0999 V2000
  160.6370  206.2700  149.7590 C   0  0  2  0  0  3  0  0  0  0  0  0
  161.3930  206.5930  152.1400 C   0  0  0  0  0  0  0  0  0  0  0  0
  161.4830  206.0720  153.5290 C   0  0  0  0  0  1  0  0  0  0  0  0
  161.2460  207.6260  149.5320 C   0  0  0  0  0  3  0  0  0  0  0  0
  161.7480  207.8150  151.8830 N   0  0  0  0  0  0  0  0  0  0  0  0
  161.7300  208.3450  150.5490 C   0  0  0  0  0  0  0  0  0  0  0  0
  160.9610  205.7350  151.0810 N   0  0  0  0  0  2  0  0  0  0  0  0
  161.0430  205.3350  148.7110 N   0  0  0  0  0  0  0  0  0  0  0  0
  160.9650  203.9270  148.8630 C   0  0  0  0  0  0  0  0  0  0  0  0
  160.9030  201.1720  148.9290 C   0  0  0  0  0  3  0  0  0  0  0  0
  161.4530  203.2130  147.8000 C   0  0  0  0  0  0  0  0  0  0  0  0
  161.4340  201.8190  147.8050 C   0  0  0  0  0  3  0  0  0  0  0  0
  160.4230  201.8990  149.9800 N   0  0  0  0  0  0  0  0  0  0  0  0
  161.5810  205.7430  147.4100 C   0  0  1  0  0  3  0  0  0  0  0  0
  162.0890  204.2280  146.4830 S   0  0  0  0  0  0  0  0  0  0  0  0
  160.4410  203.2620  149.9740 C   0  0  0  0  0  3  0  0  0  0  0  0
  160.5290  206.5010  146.6140 C   0  0  0  0  0  2  0  0  0  0  0  0
  160.4190  205.9320  145.2140 C   0  0  0  0  0  1  0  0  0  0  0  0
  162.2700  209.7070  150.2920 C   0  0  0  0  0  2  0  0  0  0  0  0
  161.9530  210.1310  148.8630 C   0  0  0  0  0  2  0  0  0  0  0  0
  161.9870  211.6480  148.6900 C   0  0  2  0  0  3  0  0  0  0  0  0
  161.2040  212.2880  149.7370 N   0  0  0  0  0  1  0  0  0  0  0  0
  161.4990  212.0830  147.3060 C   0  0  2  0  0  3  0  0  0  0  0  0
  162.4230  212.9500  146.7210 O   0  0  0  0  0  1  0  0  0  0  0  0
  160.1600  212.7920  147.4130 C   0  0  0  0  0  1  0  0  0  0  0  0
  1  8  1  6  0  0  0
  1  7  1  0  0  0  0
  2  3  1  0  0  0  0
  4  1  1  0  0  0  0
  4  6  2  0  0  0  0
  5  2  2  0  0  0  0
  6  5  1  0  0  0  0
  7  2  1  0  0  0  0
  8  9  1  0  0  0  0
  9 16  1  0  0  0  0
 10 13  1  0  0  0  0
 11 12  1  0  0  0  0
 11  9  2  0  0  0  0
 12 10  2  0  0  0  0
 14 17  1  6  0  0  0
 14  8  1  0  0  0  0
 15 14  1  0  0  0  0
 15 11  1  0  0  0  0
 16 13  2  0  0  0  0
 18 17  1  0  0  0  0
 19  6  1  0  0  0  0
 20 19  1  0  0  0  0
 21 20  1  0  0  0  0
 21 22  1  1  0  0  0
 23 25  1  1  0  0  0
 23 21  1  0  0  0  0
 24 23  1  0  0  0  0
M  END
>  <MODEL>
1

>  <REMARK>
 VINA RESULT:      -7.6      0.000      0.000
  Name = 
  6 active torsions:
  status: ('A' for Active; 'I' for Inactive)
    1  A    between atoms: N_1  and  C_3
    2  A    between atoms: C_2  and  C_21
    3  A    between atoms: C_4  and  C_18
    4  A    between atoms: C_6  and  C_15
    5  A    between atoms: C_6  and  C_23
    6  A    between atoms: C_15  and  C_21
                            x       y       z     vdW  Elec       q    Type
                         _______ _______ _______ _____ _____    ______ ____

>  <TORSDO>
F 6

$$$$
=
 OpenBabel11052422143D

 25 27  0  0  1  0  0  0  0  0999 V2000
  160.5610  205.9830  149.7470 C   0  0  2  0  0  3  0  0  0  0  0  0
  161.2580  206.1260  152.1630 C   0  0  0  0  0  0  0  0  0  0  0  0
  161.3340  205.4940  153.5050 C   0  0  0  0  0  1  0  0  0  0  0  0
  161.1350  207.3690  149.6460 C   0  0  0  0  0  3  0  0  0  0  0  0
  161.5830  207.3750  152.0160 N   0  0  0  0  0  0  0  0  0  0  0  0
  161.5760  208.0130  150.7310 C   0  0  0  0  0  0  0  0  0  0  0  0
  160.8720  205.3480  151.0270 N   0  0  0  0  0  2  0  0  0  0  0  0
  161.0140  205.1490  148.6340 N   0  0  0  0  0  0  0  0  0  0  0  0
  160.9730  203.7320  148.6680 C   0  0  0  0  0  0  0  0  0  0  0  0
  160.9870  200.9800  148.5030 C   0  0  0  0  0  3  0  0  0  0  0  0
  161.5040  203.1220  147.5610 C   0  0  0  0  0  0  0  0  0  0  0  0
  161.5230  201.7330  147.4490 C   0  0  0  0  0  3  0  0  0  0  0  0
  160.4640  201.6040  149.5990 N   0  0  0  0  0  0  0  0  0  0  0  0
  161.5680  205.6780  147.3850 C   0  0  1  0  0  3  0  0  0  0  0  0
  162.1380  204.2600  146.3470 S   0  0  0  0  0  0  0  0  0  0  0  0
  160.4440  202.9630  149.7060 C   0  0  0  0  0  3  0  0  0  0  0  0
  160.5130  206.4720  146.6300 C   0  0  0  0  0  2  0  0  0  0  0  0
  160.3900  205.9630  145.2080 C   0  0  0  0  0  1  0  0  0  0  0  0
  162.0820  209.4060  150.5990 C   0  0  0  0  0  2  0  0  0  0  0  0
  162.2240  210.0400  151.9770 C   0  0  0  0  0  2  0  0  0  0  0  0
  160.8740  210.4360  152.5730 C   0  0  2  0  0  3  0  0  0  0  0  0
  160.4160  211.6860  151.9870 N   0  0  0  0  0  1  0  0  0  0  0  0
  160.9250  210.5390  154.0990 C   0  0  2  0  0  3  0  0  0  0  0  0
  162.2430  210.7090  154.5250 O   0  0  0  0  0  1  0  0  0  0  0  0
  160.3620  209.2820  154.7370 C   0  0  0  0  0  1  0  0  0  0  0  0
  1  8  1  6  0  0  0
  1  7  1  0  0  0  0
  2  3  1  0  0  0  0
  4  1  1  0  0  0  0
  4  6  2  0  0  0  0
  5  2  2  0  0  0  0
  6  5  1  0  0  0  0
  7  2  1  0  0  0  0
  8  9  1  0  0  0  0
  9 16  1  0  0  0  0
 10 13  1  0  0  0  0
 11  9  2  0  0  0  0
 12 11  1  0  0  0  0
 12 10  2  0  0  0  0
 13 16  2  0  0  0  0
 14 17  1  6  0  0  0
 14  8  1  0  0  0  0
 15 14  1  0  0  0  0
 15 11  1  0  0  0  0
 18 17  1  0  0  0  0
 19  6  1  0  0  0  0
 19 20  1  0  0  0  0
 20 21  1  0  0  0  0
 21 22  1  6  0  0  0
 21 23  1  0  0  0  0
 23 24  1  0  0  0  0
 23 25  1  1  0  0  0
M  END
>  <MODEL>
2

>  <REMARK>
 VINA RESULT:      -7.5      2.284      2.946
  Name = 
  6 active torsions:
  status: ('A' for Active; 'I' for Inactive)
    1  A    between atoms: N_1  and  C_3
    2  A    between atoms: C_2  and  C_21
    3  A    between atoms: C_4  and  C_18
    4  A    between atoms: C_6  and  C_15
    5  A    between atoms: C_6  and  C_23
    6  A    between atoms: C_15  and  C_21
                            x       y       z     vdW  Elec       q    Type
                         _______ _______ _______ _____ _____    ______ ____

>  <TORSDO>
F 6

$$$$
=
 OpenBabel11052422143D

 25 27  0  0  1  0  0  0  0  0999 V2000
  161.8500  206.9060  151.7640 C   0  0  2  0  0  3  0  0  0  0  0  0
  161.1050  204.5020  151.6560 C   0  0  0  0  0  0  0  0  0  0  0  0
  160.8560  203.2150  152.3530 C   0  0  0  0  0  1  0  0  0  0  0  0
  161.5640  206.9130  150.2880 C   0  0  0  0  0  3  0  0  0  0  0  0
  161.0380  204.5600  150.3600 N   0  0  0  0  0  0  0  0  0  0  0  0
  161.2190  205.7920  149.6460 C   0  0  0  0  0  0  0  0  0  0  0  0
  161.3720  205.6850  152.4130 N   0  0  0  0  0  2  0  0  0  0  0  0
  161.2820  208.0890  152.4090 N   0  0  0  0  0  0  0  0  0  0  0  0
  160.9220  208.1200  153.7810 C   0  0  0  0  0  0  0  0  0  0  0  0
  160.1540  208.4150  156.4110 C   0  0  0  0  0  3  0  0  0  0  0  0
  160.3440  209.2930  154.1890 C   0  0  0  0  0  0  0  0  0  0  0  0
  159.9460  209.4720  155.5140 C   0  0  0  0  0  3  0  0  0  0  0  0
  160.7300  207.2530  155.9860 N   0  0  0  0  0  0  0  0  0  0  0  0
  161.0120  209.3530  151.7160 C   0  0  1  0  0  3  0  0  0  0  0  0
  160.1630  210.4980  152.8910 S   0  0  0  0  0  0  0  0  0  0  0  0
  161.1200  207.0800  154.6910 C   0  0  0  0  0  3  0  0  0  0  0  0
  162.3110  209.9820  151.2360 C   0  0  0  0  0  2  0  0  0  0  0  0
  162.1270  210.5750  149.8530 C   0  0  0  0  0  1  0  0  0  0  0  0
  161.0030  205.8280  148.1750 C   0  0  0  0  0  2  0  0  0  0  0  0
  161.2720  204.4530  147.5760 C   0  0  0  0  0  2  0  0  0  0  0  0
  162.1360  204.5300  146.3190 C   0  0  2  0  0  3  0  0  0  0  0  0
  162.3200  205.9180  145.9230 N   0  0  0  0  0  1  0  0  0  0  0  0
  161.5520  203.7100  145.1660 C   0  0  2  0  0  3  0  0  0  0  0  0
  160.5810  204.4530  144.4920 O   0  0  0  0  0  1  0  0  0  0  0  0
  160.9160  202.4340  145.6880 C   0  0  0  0  0  1  0  0  0  0  0  0
  1  4  1  6  0  0  0
  1  8  1  0  0  0  0
  1  7  1  0  0  0  0
  2  3  1  0  0  0  0
  2  7  1  0  0  0  0
  5  2  2  0  0  0  0
  6  4  2  0  0  0  0
  6  5  1  0  0  0  0
  8  9  1  0  0  0  0
  9 11  2  0  0  0  0
  9 16  1  0  0  0  0
 11 12  1  0  0  0  0
 12 10  2  0  0  0  0
 13 10  1  0  0  0  0
 14 17  1  1  0  0  0
 14  8  1  0  0  0  0
 14 15  1  0  0  0  0
 15 11  1  0  0  0  0
 16 13  2  0  0  0  0
 18 17  1  0  0  0  0
 19  6  1  0  0  0  0
 20 19  1  0  0  0  0
 21 22  1  6  0  0  0
 21 20  1  0  0  0  0
 23 25  1  1  0  0  0
 23 21  1  0  0  0  0
 24 23  1  0  0  0  0
M  END
>  <MODEL>
3

>  <REMARK>
 VINA RESULT:      -7.5      3.371      6.785
  Name = 
  6 active torsions:
  status: ('A' for Active; 'I' for Inactive)
    1  A    between atoms: N_1  and  C_3
    2  A    between atoms: C_2  and  C_21
    3  A    between atoms: C_4  and  C_18
    4  A    between atoms: C_6  and  C_15
    5  A    between atoms: C_6  and  C_23
    6  A    between atoms: C_15  and  C_21
                            x       y       z     vdW  Elec       q    Type
                         _______ _______ _______ _____ _____    ______ ____

>  <TORSDO>
F 6

$$$$
=
 OpenBabel11052422143D

 25 27  0  0  1  0  0  0  0  0999 V2000
  160.5000  208.3170  152.5180 C   0  0  2  0  0  3  0  0  0  0  0  0
  161.7380  208.4070  150.3260 C   0  0  0  0  0  0  0  0  0  0  0  0
  162.1980  209.1990  149.1560 C   0  0  0  0  0  1  0  0  0  0  0  0
  160.8890  206.8650  152.5150 C   0  0  0  0  0  3  0  0  0  0  0  0
  161.8890  207.1180  150.3350 N   0  0  0  0  0  0  0  0  0  0  0  0
  161.5090  206.3180  151.4650 C   0  0  0  0  0  0  0  0  0  0  0  0
  161.1720  209.0710  151.4590 N   0  0  0  0  0  2  0  0  0  0  0  0
  160.7560  208.9220  153.8240 N   0  0  0  0  0  0  0  0  0  0  0  0
  160.3930  210.2570  154.1380 C   0  0  0  0  0  0  0  0  0  0  0  0
  159.7820  212.8110  154.9750 C   0  0  0  0  0  3  0  0  0  0  0  0
  160.7750  210.6690  155.3880 C   0  0  0  0  0  0  0  0  0  0  0  0
  160.4790  211.9550  155.8390 C   0  0  0  0  0  3  0  0  0  0  0  0
  159.4110  212.3840  153.7330 N   0  0  0  0  0  0  0  0  0  0  0  0
  161.4190  208.2310  154.9330 C   0  0  1  0  0  3  0  0  0  0  0  0
  161.6560  209.4320  156.3170 S   0  0  0  0  0  0  0  0  0  0  0  0
  159.7000  211.1270  153.2940 C   0  0  0  0  0  3  0  0  0  0  0  0
  160.5750  207.0600  155.4100 C   0  0  0  0  0  2  0  0  0  0  0  0
  160.1720  207.2580  156.8580 C   0  0  0  0  0  1  0  0  0  0  0  0
  161.8240  204.8650  151.4760 C   0  0  0  0  0  2  0  0  0  0  0  0
  160.7050  204.0850  150.7960 C   0  0  0  0  0  2  0  0  0  0  0  0
  161.1580  203.4540  149.4810 C   0  0  2  0  0  3  0  0  0  0  0  0
  161.0000  204.4040  148.3900 N   0  0  0  0  0  1  0  0  0  0  0  0
  160.4110  202.1520  149.1780 C   0  0  2  0  0  3  0  0  0  0  0  0
  160.5300  201.2690  150.2520 O   0  0  0  0  0  1  0  0  0  0  0  0
  160.9790  201.4900  147.9350 C   0  0  0  0  0  1  0  0  0  0  0  0
  1  4  1  1  0  0  0
  1  8  1  0  0  0  0
  2  5  2  0  0  0  0
  2  7  1  0  0  0  0
  3  2  1  0  0  0  0
  5  6  1  0  0  0  0
  6 19  1  0  0  0  0
  6  4  2  0  0  0  0
  7  1  1  0  0  0  0
  8  9  1  0  0  0  0
  8 14  1  0  0  0  0
  9 11  1  0  0  0  0
 10 12  1  0  0  0  0
 11 12  2  0  0  0  0
 11 15  1  0  0  0  0
 13 10  2  0  0  0  0
 14 17  1  1  0  0  0
 14 15  1  0  0  0  0
 16 13  1  0  0  0  0
 16  9  2  0  0  0  0
 17 18  1  0  0  0  0
 20 19  1  0  0  0  0
 21 22  1  6  0  0  0
 21 20  1  0  0  0  0
 23 25  1  6  0  0  0
 23 21  1  0  0  0  0
 23 24  1  0  0  0  0
M  END
>  <MODEL>
4

>  <REMARK>
 VINA RESULT:      -7.2      4.404      8.540
  Name = 
  6 active torsions:
  status: ('A' for Active; 'I' for Inactive)
    1  A    between atoms: N_1  and  C_3
    2  A    between atoms: C_2  and  C_21
    3  A    between atoms: C_4  and  C_18
    4  A    between atoms: C_6  and  C_15
    5  A    between atoms: C_6  and  C_23
    6  A    between atoms: C_15  and  C_21
                            x       y       z     vdW  Elec       q    Type
                         _______ _______ _______ _____ _____    ______ ____

>  <TORSDO>
F 6

$$$$
=
 OpenBabel11052422143D

 25 27  0  0  1  0  0  0  0  0999 V2000
  160.8450  207.2880  149.9830 C   0  0  2  0  0  3  0  0  0  0  0  0
  162.0800  209.0250  148.6410 C   0  0  0  0  0  0  0  0  0  0  0  0
  162.4720  210.4460  148.4520 C   0  0  0  0  0  1  0  0  0  0  0  0
  161.3640  206.3260  148.9500 C   0  0  0  0  0  3  0  0  0  0  0  0
  162.3470  208.1520  147.7180 N   0  0  0  0  0  0  0  0  0  0  0  0
  162.0360  206.7600  147.8790 C   0  0  0  0  0  0  0  0  0  0  0  0
  161.4520  208.6130  149.8570 N   0  0  0  0  0  2  0  0  0  0  0  0
  161.0390  206.7580  151.3320 N   0  0  0  0  0  0  0  0  0  0  0  0
  160.9040  207.5530  152.4980 C   0  0  0  0  0  0  0  0  0  0  0  0
  160.6940  208.8950  154.8970 C   0  0  0  0  0  3  0  0  0  0  0  0
  161.1910  206.8980  153.6680 C   0  0  0  0  0  0  0  0  0  0  0  0
  161.0920  207.5510  154.8960 C   0  0  0  0  0  3  0  0  0  0  0  0
  160.4140  209.5320  153.7220 N   0  0  0  0  0  0  0  0  0  0  0  0
  161.4050  205.3680  151.6230 C   0  0  1  0  0  3  0  0  0  0  0  0
  161.6850  205.2030  153.4420 S   0  0  0  0  0  0  0  0  0  0  0  0
  160.5100  208.8920  152.5220 C   0  0  0  0  0  3  0  0  0  0  0  0
  160.2950  204.4250  151.1890 C   0  0  0  0  0  2  0  0  0  0  0  0
  160.8490  203.0340  150.9510 C   0  0  0  0  0  1  0  0  0  0  0  0
  162.4800  205.7830  146.8490 C   0  0  0  0  0  2  0  0  0  0  0  0
  161.6910  204.4880  146.9860 C   0  0  0  0  0  2  0  0  0  0  0  0
  161.6240  203.7120  145.6710 C   0  0  2  0  0  3  0  0  0  0  0  0
  160.7580  204.4020  144.7270 N   0  0  0  0  0  1  0  0  0  0  0  0
  161.1590  202.2680  145.8760 C   0  0  2  0  0  3  0  0  0  0  0  0
  160.0510  202.0000  145.0710 O   0  0  0  0  0  1  0  0  0  0  0  0
  160.7780  202.0320  147.3270 C   0  0  0  0  0  1  0  0  0  0  0  0
  1  4  1  6  0  0  0
  1  8  1  0  0  0  0
  2  7  1  0  0  0  0
  3  2  1  0  0  0  0
  5  6  1  0  0  0  0
  5  2  2  0  0  0  0
  6  4  2  0  0  0  0
  7  1  1  0  0  0  0
  8 14  1  0  0  0  0
  8  9  1  0  0  0  0
  9 16  2  0  0  0  0
  9 11  1  0  0  0  0
 11 12  2  0  0  0  0
 12 10  1  0  0  0  0
 13 10  2  0  0  0  0
 14 17  1  1  0  0  0
 14 15  1  0  0  0  0
 15 11  1  0  0  0  0
 16 13  1  0  0  0  0
 18 17  1  0  0  0  0
 19 20  1  0  0  0  0
 19  6  1  0  0  0  0
 21 22  1  6  0  0  0
 21 23  1  0  0  0  0
 21 20  1  0  0  0  0
 23 25  1  1  0  0  0
 24 23  1  0  0  0  0
M  END
>  <MODEL>
5

>  <REMARK>
 VINA RESULT:      -6.8      3.351      6.862
  Name = 
  6 active torsions:
  status: ('A' for Active; 'I' for Inactive)
    1  A    between atoms: N_1  and  C_3
    2  A    between atoms: C_2  and  C_21
    3  A    between atoms: C_4  and  C_18
    4  A    between atoms: C_6  and  C_15
    5  A    between atoms: C_6  and  C_23
    6  A    between atoms: C_15  and  C_21
                            x       y       z     vdW  Elec       q    Type
                         _______ _______ _______ _____ _____    ______ ____

>  <TORSDO>
F 6

$$$$
=
 OpenBabel11052422143D

 25 27  0  0  1  0  0  0  0  0999 V2000
  161.9330  207.4760  152.7370 C   0  0  2  0  0  3  0  0  0  0  0  0
  161.1610  205.1870  152.0250 C   0  0  0  0  0  0  0  0  0  0  0  0
  160.8760  203.7720  152.3790 C   0  0  0  0  0  1  0  0  0  0  0  0
  161.6880  207.8500  151.3020 C   0  0  0  0  0  3  0  0  0  0  0  0
  161.1300  205.5620  150.7820 N   0  0  0  0  0  0  0  0  0  0  0  0
  161.3450  206.9280  150.3970 C   0  0  0  0  0  0  0  0  0  0  0  0
  161.4220  206.1430  153.0560 N   0  0  0  0  0  2  0  0  0  0  0  0
  161.3650  208.4760  153.6400 N   0  0  0  0  0  0  0  0  0  0  0  0
  160.9180  209.7470  153.1980 C   0  0  0  0  0  0  0  0  0  0  0  0
  159.9880  212.2660  152.5740 C   0  0  0  0  0  3  0  0  0  0  0  0
  160.4790  210.5740  154.1990 C   0  0  0  0  0  0  0  0  0  0  0  0
  160.0020  211.8530  153.9130 C   0  0  0  0  0  3  0  0  0  0  0  0
  160.4320  211.4290  151.5900 N   0  0  0  0  0  0  0  0  0  0  0  0
  161.2080  208.2830  155.0850 C   0  0  1  0  0  3  0  0  0  0  0  0
  160.5910  209.8590  155.8250 S   0  0  0  0  0  0  0  0  0  0  0  0
  160.8970  210.1790  151.8710 C   0  0  0  0  0  3  0  0  0  0  0  0
  160.2180  207.1630  155.3670 C   0  0  0  0  0  2  0  0  0  0  0  0
  160.0760  206.9520  156.8610 C   0  0  0  0  0  1  0  0  0  0  0  0
  161.1690  207.3270  148.9760 C   0  0  0  0  0  2  0  0  0  0  0  0
  160.5390  206.1850  148.1880 C   0  0  0  0  0  2  0  0  0  0  0  0
  161.1940  205.9960  146.8210 C   0  0  2  0  0  3  0  0  0  0  0  0
  160.2280  206.2510  145.7640 N   0  0  0  0  0  1  0  0  0  0  0  0
  161.8130  204.6050  146.6650 C   0  0  2  0  0  3  0  0  0  0  0  0
  161.8850  203.9690  147.9060 O   0  0  0  0  0  1  0  0  0  0  0  0
  163.2130  204.7070  146.0850 C   0  0  0  0  0  1  0  0  0  0  0  0
  1  4  1  6  0  0  0
  1  7  1  0  0  0  0
  1  8  1  0  0  0  0
  2  3  1  0  0  0  0
  2  7  1  0  0  0  0
  5  2  2  0  0  0  0
  6  5  1  0  0  0  0
  6  4  2  0  0  0  0
  8 14  1  0  0  0  0
  9  8  1  0  0  0  0
  9 11  1  0  0  0  0
 10 12  1  0  0  0  0
 11 15  1  0  0  0  0
 12 11  2  0  0  0  0
 13 16  1  0  0  0  0
 13 10  2  0  0  0  0
 14 17  1  6  0  0  0
 14 15  1  0  0  0  0
 16  9  2  0  0  0  0
 17 18  1  0  0  0  0
 19  6  1  0  0  0  0
 20 19  1  0  0  0  0
 21 22  1  6  0  0  0
 21 20  1  0  0  0  0
 23 25  1  1  0  0  0
 23 21  1  0  0  0  0
 23 24  1  0  0  0  0
M  END
>  <MODEL>
6

>  <REMARK>
 VINA RESULT:      -6.7      3.810      7.415
  Name = 
  6 active torsions:
  status: ('A' for Active; 'I' for Inactive)
    1  A    between atoms: N_1  and  C_3
    2  A    between atoms: C_2  and  C_21
    3  A    between atoms: C_4  and  C_18
    4  A    between atoms: C_6  and  C_15
    5  A    between atoms: C_6  and  C_23
    6  A    between atoms: C_15  and  C_21
                            x       y       z     vdW  Elec       q    Type
                         _______ _______ _______ _____ _____    ______ ____

>  <TORSDO>
F 6

$$$$
=
 OpenBabel11052422143D

 25 27  0  0  1  0  0  0  0  0999 V2000
  162.4870  207.8430  149.7500 C   0  0  2  0  0  3  0  0  0  0  0  0
  161.8780  210.2130  149.1510 C   0  0  0  0  0  0  0  0  0  0  0  0
  161.6610  211.2450  148.1050 C   0  0  0  0  0  1  0  0  0  0  0  0
  162.2810  208.2990  151.1680 C   0  0  0  0  0  3  0  0  0  0  0  0
  161.8780  210.5510  150.4040 N   0  0  0  0  0  0  0  0  0  0  0  0
  162.0300  209.5810  151.4510 C   0  0  0  0  0  0  0  0  0  0  0  0
  162.0410  208.8420  148.7790 N   0  0  0  0  0  2  0  0  0  0  0  0
  161.8240  206.5610  149.5140 N   0  0  0  0  0  0  0  0  0  0  0  0
  161.8530  205.8990  148.2600 C   0  0  0  0  0  0  0  0  0  0  0  0
  161.7740  204.4340  145.9270 C   0  0  0  0  0  3  0  0  0  0  0  0
  161.1180  204.7440  148.2110 C   0  0  0  0  0  0  0  0  0  0  0  0
  161.0610  203.9810  147.0450 C   0  0  0  0  0  3  0  0  0  0  0  0
  162.4990  205.5890  145.9930 N   0  0  0  0  0  0  0  0  0  0  0  0
  161.0550  205.8360  150.5280 C   0  0  1  0  0  3  0  0  0  0  0  0
  160.2840  204.3560  149.7350 S   0  0  0  0  0  0  0  0  0  0  0  0
  162.5560  206.3320  147.1330 C   0  0  0  0  0  3  0  0  0  0  0  0
  161.9610  205.3920  151.6660 C   0  0  0  0  0  2  0  0  0  0  0  0
  161.5960  203.9910  152.1130 C   0  0  0  0  0  1  0  0  0  0  0  0
  161.8920  210.0030  152.8700 C   0  0  0  0  0  2  0  0  0  0  0  0
  160.5770  209.4870  153.4410 C   0  0  0  0  0  2  0  0  0  0  0  0
  160.6550  209.2510  154.9480 C   0  0  2  0  0  3  0  0  0  0  0  0
  161.6810  210.1000  155.5350 N   0  0  0  0  0  1  0  0  0  0  0  0
  160.9080  207.7810  155.2900 C   0  0  2  0  0  3  0  0  0  0  0  0
  160.5640  206.9700  154.2080 O   0  0  0  0  0  1  0  0  0  0  0  0
  160.0830  207.3650  156.4950 C   0  0  0  0  0  1  0  0  0  0  0  0
  1  8  1  6  0  0  0
  1  4  1  0  0  0  0
  2  5  2  0  0  0  0
  3  2  1  0  0  0  0
  4  6  2  0  0  0  0
  5  6  1  0  0  0  0
  6 19  1  0  0  0  0
  7  2  1  0  0  0  0
  7  1  1  0  0  0  0
  8 14  1  0  0  0  0
  9  8  1  0  0  0  0
 10 13  2  0  0  0  0
 10 12  1  0  0  0  0
 11  9  1  0  0  0  0
 11 15  1  0  0  0  0
 12 11  2  0  0  0  0
 13 16  1  0  0  0  0
 14 17  1  1  0  0  0
 15 14  1  0  0  0  0
 16  9  2  0  0  0  0
 17 18  1  0  0  0  0
 19 20  1  0  0  0  0
 20 21  1  0  0  0  0
 21 23  1  0  0  0  0
 21 22  1  6  0  0  0
 23 25  1  1  0  0  0
 24 23  1  0  0  0  0
M  END
>  <MODEL>
7

>  <REMARK>
 VINA RESULT:      -6.6      3.007      5.365
  Name = 
  6 active torsions:
  status: ('A' for Active; 'I' for Inactive)
    1  A    between atoms: N_1  and  C_3
    2  A    between atoms: C_2  and  C_21
    3  A    between atoms: C_4  and  C_18
    4  A    between atoms: C_6  and  C_15
    5  A    between atoms: C_6  and  C_23
    6  A    between atoms: C_15  and  C_21
                            x       y       z     vdW  Elec       q    Type
                         _______ _______ _______ _____ _____    ______ ____

>  <TORSDO>
F 6

$$$$
=
 OpenBabel11052422143D

 25 27  0  0  1  0  0  0  0  0999 V2000
  160.5180  206.5660  149.6440 C   0  0  2  0  0  3  0  0  0  0  0  0
  161.3540  207.8210  151.6620 C   0  0  0  0  0  0  0  0  0  0  0  0
  161.4450  207.9390  153.1400 C   0  0  0  0  0  1  0  0  0  0  0  0
  161.2090  207.6480  148.8620 C   0  0  0  0  0  3  0  0  0  0  0  0
  161.7820  208.7880  150.9090 N   0  0  0  0  0  0  0  0  0  0  0  0
  161.7640  208.6980  149.4760 C   0  0  0  0  0  0  0  0  0  0  0  0
  160.8390  206.6260  151.0700 N   0  0  0  0  0  2  0  0  0  0  0  0
  160.8350  205.2470  149.0990 N   0  0  0  0  0  0  0  0  0  0  0  0
  161.3260  205.0560  147.7820 C   0  0  0  0  0  0  0  0  0  0  0  0
  162.2870  204.4420  145.2730 C   0  0  0  0  0  3  0  0  0  0  0  0
  161.5000  203.7440  147.4260 C   0  0  0  0  0  0  0  0  0  0  0  0
  161.9850  203.4030  146.1640 C   0  0  0  0  0  3  0  0  0  0  0  0
  162.1050  205.7430  145.6440 N   0  0  0  0  0  0  0  0  0  0  0  0
  160.6680  203.9910  149.8370 C   0  0  1  0  0  3  0  0  0  0  0  0
  161.0480  202.5860  148.7000 S   0  0  0  0  0  0  0  0  0  0  0  0
  161.6320  206.0750  146.8780 C   0  0  0  0  0  3  0  0  0  0  0  0
  161.6050  203.9500  151.0330 C   0  0  0  0  0  2  0  0  0  0  0  0
  161.2090  202.8290  151.9730 C   0  0  0  0  0  1  0  0  0  0  0  0
  162.3850  209.7770  148.6630 C   0  0  0  0  0  2  0  0  0  0  0  0
  161.9530  211.1400  149.1910 C   0  0  0  0  0  2  0  0  0  0  0  0
  162.0270  212.2240  148.1170 C   0  0  2  0  0  3  0  0  0  0  0  0
  163.4160  212.5510  147.8320 N   0  0  0  0  0  1  0  0  0  0  0  0
  161.2450  213.4800  148.5110 C   0  0  2  0  0  3  0  0  0  0  0  0
  160.2070  213.1460  149.3830 O   0  0  0  0  0  1  0  0  0  0  0  0
  160.6550  214.1460  147.2800 C   0  0  0  0  0  1  0  0  0  0  0  0
  1  4  1  6  0  0  0
  1  7  1  0  0  0  0
  2  3  1  0  0  0  0
  4  6  2  0  0  0  0
  5  2  2  0  0  0  0
  6  5  1  0  0  0  0
  7  2  1  0  0  0  0
  8  1  1  0  0  0  0
  8 14  1  0  0  0  0
  9  8  1  0  0  0  0
 10 13  2  0  0  0  0
 10 12  1  0  0  0  0
 11  9  1  0  0  0  0
 11 15  1  0  0  0  0
 12 11  2  0  0  0  0
 13 16  1  0  0  0  0
 14 17  1  1  0  0  0
 15 14  1  0  0  0  0
 16  9  2  0  0  0  0
 17 18  1  0  0  0  0
 19 20  1  0  0  0  0
 19  6  1  0  0  0  0
 21 22  1  1  0  0  0
 21 23  1  0  0  0  0
 21 20  1  0  0  0  0
 23 25  1  6  0  0  0
 23 24  1  0  0  0  0
M  END
>  <MODEL>
8

>  <REMARK>
 VINA RESULT:      -6.5      1.770      3.048
  Name = 
  6 active torsions:
  status: ('A' for Active; 'I' for Inactive)
    1  A    between atoms: N_1  and  C_3
    2  A    between atoms: C_2  and  C_21
    3  A    between atoms: C_4  and  C_18
    4  A    between atoms: C_6  and  C_15
    5  A    between atoms: C_6  and  C_23
    6  A    between atoms: C_15  and  C_21
                            x       y       z     vdW  Elec       q    Type
                         _______ _______ _______ _____ _____    ______ ____

>  <TORSDO>
F 6

$$$$
=
 OpenBabel11052422143D

 25 27  0  0  1  0  0  0  0  0999 V2000
  160.5830  205.9300  149.2870 C   0  0  2  0  0  3  0  0  0  0  0  0
  161.7720  208.1340  149.0150 C   0  0  0  0  0  0  0  0  0  0  0  0
  162.0670  209.4940  149.5360 C   0  0  0  0  0  1  0  0  0  0  0  0
  161.2430  205.5750  147.9840 C   0  0  0  0  0  3  0  0  0  0  0  0
  162.1680  207.7970  147.8250 N   0  0  0  0  0  0  0  0  0  0  0  0
  161.9530  206.4780  147.3010 C   0  0  0  0  0  0  0  0  0  0  0  0
  161.0940  207.1840  149.8410 N   0  0  0  0  0  2  0  0  0  0  0  0
  160.7230  204.8440  150.2550 N   0  0  0  0  0  0  0  0  0  0  0  0
  160.8580  203.4840  149.8730 C   0  0  0  0  0  0  0  0  0  0  0  0
  161.1360  200.7890  149.3700 C   0  0  0  0  0  3  0  0  0  0  0  0
  160.9090  202.6020  150.9200 C   0  0  0  0  0  0  0  0  0  0  0  0
  161.0500  201.2330  150.6970 C   0  0  0  0  0  3  0  0  0  0  0  0
  161.0820  201.6810  148.3390 N   0  0  0  0  0  0  0  0  0  0  0  0
  160.7240  205.0340  151.7090 C   0  0  1  0  0  3  0  0  0  0  0  0
  160.7730  203.3740  152.5190 S   0  0  0  0  0  0  0  0  0  0  0  0
  160.9450  203.0200  148.5590 C   0  0  0  0  0  3  0  0  0  0  0  0
  161.9340  205.8490  152.1370 C   0  0  0  0  0  2  0  0  0  0  0  0
  161.6950  206.4690  153.4990 C   0  0  0  0  0  1  0  0  0  0  0  0
  162.5400  206.1050  145.9870 C   0  0  0  0  0  2  0  0  0  0  0  0
  162.4820  204.5940  145.8000 C   0  0  0  0  0  2  0  0  0  0  0  0
  161.5910  204.1910  144.6260 C   0  0  2  0  0  3  0  0  0  0  0  0
  161.1700  205.3730  143.8890 N   0  0  0  0  0  1  0  0  0  0  0  0
  160.3780  203.3730  145.0760 C   0  0  2  0  0  3  0  0  0  0  0  0
  160.7200  202.0240  145.1810 O   0  0  0  0  0  1  0  0  0  0  0  0
  159.2420  203.5140  144.0790 C   0  0  0  0  0  1  0  0  0  0  0  0
  1  4  1  6  0  0  0
  1  7  1  0  0  0  0
  1  8  1  0  0  0  0
  2  3  1  0  0  0  0
  2  7  1  0  0  0  0
  5  2  2  0  0  0  0
  6  5  1  0  0  0  0
  6  4  2  0  0  0  0
  8 14  1  0  0  0  0
  9  8  1  0  0  0  0
  9 11  1  0  0  0  0
 10 12  1  0  0  0  0
 11 15  1  0  0  0  0
 12 11  2  0  0  0  0
 13 16  1  0  0  0  0
 13 10  2  0  0  0  0
 14 17  1  6  0  0  0
 14 15  1  0  0  0  0
 16  9  2  0  0  0  0
 17 18  1  0  0  0  0
 19  6  1  0  0  0  0
 20 19  1  0  0  0  0
 21 22  1  1  0  0  0
 21 23  1  0  0  0  0
 21 20  1  0  0  0  0
 23 25  1  6  0  0  0
 23 24  1  0  0  0  0
M  END
>  <MODEL>
9

>  <REMARK>
 VINA RESULT:      -6.4      3.198      5.670
  Name = 
  6 active torsions:
  status: ('A' for Active; 'I' for Inactive)
    1  A    between atoms: N_1  and  C_3
    2  A    between atoms: C_2  and  C_21
    3  A    between atoms: C_4  and  C_18
    4  A    between atoms: C_6  and  C_15
    5  A    between atoms: C_6  and  C_23
    6  A    between atoms: C_15  and  C_21
                            x       y       z     vdW  Elec       q    Type
                         _______ _______ _______ _____ _____    ______ ____

>  <TORSDO>
F 6

$$$$
