=
 OpenBabel11052422093D

 25 27  0  0  1  0  0  0  0  0999 V2000
  161.4870  207.7410  153.7100 C   0  0  1  0  0  3  0  0  0  0  0  0
  161.4090  209.1910  154.2120 C   0  0  1  0  0  3  0  0  0  0  0  0
  160.0830  207.2120  155.7870 C   0  0  0  0  0  2  0  0  0  0  0  0
  161.2280  207.9610  156.4650 C   0  0  0  0  0  2  0  0  0  0  0  0
  160.6630  210.4720  156.0990 C   0  0  0  0  0  0  0  0  0  0  0  0
  161.5530  211.6360  156.4870 C   0  0  0  0  0  1  0  0  0  0  0  0
  160.1960  209.7910  153.8360 O   0  0  0  0  0  0  0  0  0  0  0  0
  160.4340  206.8210  154.3470 C   0  0  0  0  0  2  0  0  0  0  0  0
  159.7030  210.2040  157.2610 C   0  0  0  0  0  1  0  0  0  0  0  0
  159.9730  210.8120  154.7730 C   0  0  1  0  0  3  0  0  0  0  0  0
  161.5470  209.2870  155.7350 C   0  0  2  0  0  3  0  0  0  0  0  0
  161.5010  207.6350  152.2120 C   0  0  0  0  0  0  0  0  0  0  0  0
  162.0530  207.3010  149.4220 C   0  0  0  0  0  2  0  0  0  0  0  0
  161.1120  206.3360  151.5290 C   0  0  1  0  0  3  0  0  0  0  0  0
  160.9110  206.4920  150.0200 C   0  0  0  0  0  2  0  0  0  0  0  0
  162.0190  208.7070  150.0090 C   0  0  0  0  0  2  0  0  0  0  0  0
  162.0750  205.3720  151.7670 F   0  0  0  0  0  0  0  0  0  0  0  0
  161.9820  208.6790  151.5150 C   0  0  0  0  0  3  0  0  0  0  0  0
  158.2010  211.2800  154.8530 S   0  0  0  0  0  0  0  0  0  0  0  0
  158.4510  212.9600  154.1900 C   0  0  0  0  0  2  0  0  0  0  0  0
  157.6400  213.1570  152.9210 C   0  0  1  0  0  3  0  0  0  0  0  0
  157.0310  214.4110  152.9510 O   0  0  0  0  0  1  0  0  0  0  0  0
  158.5180  213.0570  151.7180 C   0  0  0  0  0  0  0  0  0  0  0  0
  159.8640  212.7380  151.8540 O   0  0  0  0  0  1  0  0  0  0  0  0
  158.0330  213.2510  150.5740 O   0  0  0  0  0  0  0  0  0  0  0  0
  1 12  1  6  0  0  0
  1  2  1  0  0  0  0
  1  8  1  0  0  0  0
  2  7  1  1  0  0  0
  2 11  1  0  0  0  0
  3  4  1  0  0  0  0
  5  6  1  0  0  0  0
  5  9  1  0  0  0  0
  7 10  1  0  0  0  0
  8  3  1  0  0  0  0
 10 19  1  1  0  0  0
 10  5  1  0  0  0  0
 11  5  1  0  0  0  0
 11  4  1  1  0  0  0
 13 16  1  0  0  0  0
 13 15  1  0  0  0  0
 14 17  1  6  0  0  0
 14 12  1  0  0  0  0
 15 14  1  0  0  0  0
 16 18  1  0  0  0  0
 18 12  2  0  0  0  0
 20 19  1  0  0  0  0
 21 22  1  1  0  0  0
 21 20  1  0  0  0  0
 23 24  1  0  0  0  0
 23 21  1  0  0  0  0
 25 23  2  0  0  0  0
M  END
>  <MODEL>
1

>  <REMARK>
 VINA RESULT:      -6.0      0.000      0.000
  Name = 
  5 active torsions:
  status: ('A' for Active; 'I' for Inactive)
    1  A    between atoms: C_1  and  C_5
    2  A    between atoms: C_2  and  C_21
    3  A    between atoms: S_6  and  C_15
    4  A    between atoms: S_6  and  C_23
    5  A    between atoms: C_15  and  C_21
                            x       y       z     vdW  Elec       q    Type
                         _______ _______ _______ _____ _____    ______ ____

>  <TORSDO>
F 5

$$$$
=
 OpenBabel11052422093D

 25 27  0  0  1  0  0  0  0  0999 V2000
  161.4920  207.8640  153.7260 C   0  0  1  0  0  3  0  0  0  0  0  0
  161.3080  209.3100  154.2110 C   0  0  1  0  0  3  0  0  0  0  0  0
  160.1450  207.2560  155.8190 C   0  0  0  0  0  2  0  0  0  0  0  0
  161.2340  208.0970  156.4800 C   0  0  0  0  0  2  0  0  0  0  0  0
  160.4780  210.5530  156.0890 C   0  0  0  0  0  0  0  0  0  0  0  0
  161.2800  211.7860  156.4570 C   0  0  0  0  0  1  0  0  0  0  0  0
  160.0510  209.8120  153.8370 O   0  0  0  0  0  0  0  0  0  0  0  0
  160.5160  206.8750  154.3810 C   0  0  0  0  0  2  0  0  0  0  0  0
  159.5480  210.2280  157.2600 C   0  0  0  0  0  1  0  0  0  0  0  0
  159.7570  210.8250  154.7640 C   0  0  1  0  0  3  0  0  0  0  0  0
  161.4470  209.4350  155.7320 C   0  0  2  0  0  3  0  0  0  0  0  0
  161.5050  207.7420  152.2290 C   0  0  0  0  0  0  0  0  0  0  0  0
  162.0550  207.3770  149.4420 C   0  0  0  0  0  2  0  0  0  0  0  0
  161.1160  206.4350  151.5610 C   0  0  1  0  0  3  0  0  0  0  0  0
  160.9140  206.5740  150.0510 C   0  0  0  0  0  2  0  0  0  0  0  0
  162.0200  208.7890  150.0140 C   0  0  0  0  0  2  0  0  0  0  0  0
  162.0800  205.4750  151.8080 F   0  0  0  0  0  0  0  0  0  0  0  0
  161.9840  208.7780  151.5200 C   0  0  0  0  0  3  0  0  0  0  0  0
  157.9540  211.1580  154.8510 S   0  0  0  0  0  0  0  0  0  0  0  0
  158.1360  212.9640  155.0240 C   0  0  0  0  0  2  0  0  0  0  0  0
  157.3410  213.6840  153.9490 C   0  0  1  0  0  3  0  0  0  0  0  0
  157.5680  213.0720  152.7170 O   0  0  0  0  0  1  0  0  0  0  0  0
  155.8830  213.6490  154.2640 C   0  0  0  0  0  0  0  0  0  0  0  0
  154.9430  213.6030  153.2420 O   0  0  0  0  0  0  0  0  0  0  0  0
  155.5030  213.6500  155.4640 O   0  0  0  0  0  1  0  0  0  0  0  0
  1 12  1  6  0  0  0
  1  2  1  0  0  0  0
  1  8  1  0  0  0  0
  2  7  1  1  0  0  0
  2 11  1  0  0  0  0
  3  4  1  0  0  0  0
  5  6  1  0  0  0  0
  5  9  1  0  0  0  0
  7 10  1  0  0  0  0
  8  3  1  0  0  0  0
 10 19  1  1  0  0  0
 10  5  1  0  0  0  0
 11  5  1  0  0  0  0
 11  4  1  1  0  0  0
 13 16  1  0  0  0  0
 13 15  1  0  0  0  0
 14 17  1  6  0  0  0
 14 12  1  0  0  0  0
 15 14  1  0  0  0  0
 16 18  1  0  0  0  0
 18 12  2  0  0  0  0
 19 20  1  0  0  0  0
 21 22  1  6  0  0  0
 21 23  1  0  0  0  0
 21 20  1  0  0  0  0
 23 25  1  0  0  0  0
 24 23  2  0  0  0  0
M  END
>  <MODEL>
2

>  <REMARK>
 VINA RESULT:      -5.8      0.986      1.743
  Name = 
  5 active torsions:
  status: ('A' for Active; 'I' for Inactive)
    1  A    between atoms: C_1  and  C_5
    2  A    between atoms: C_2  and  C_21
    3  A    between atoms: S_6  and  C_15
    4  A    between atoms: S_6  and  C_23
    5  A    between atoms: C_15  and  C_21
                            x       y       z     vdW  Elec       q    Type
                         _______ _______ _______ _____ _____    ______ ____

>  <TORSDO>
F 5

$$$$
=
 OpenBabel11052422093D

 25 27  0  0  1  0  0  0  0  0999 V2000
  161.0850  205.0290  151.5480 C   0  0  1  0  0  3  0  0  0  0  0  0
  160.4500  204.3230  150.3400 C   0  0  1  0  0  3  0  0  0  0  0  0
  162.5060  202.9040  151.7240 C   0  0  0  0  0  2  0  0  0  0  0  0
  161.1220  202.2590  151.7220 C   0  0  0  0  0  2  0  0  0  0  0  0
  160.4400  202.2030  149.2150 C   0  0  0  0  0  0  0  0  0  0  0  0
  159.0920  201.7570  148.6820 C   0  0  0  0  0  1  0  0  0  0  0  0
  161.2440  204.4750  149.1910 O   0  0  0  0  0  0  0  0  0  0  0  0
  162.4280  204.4150  151.9720 C   0  0  0  0  0  2  0  0  0  0  0  0
  161.3750  200.9920  149.2080 C   0  0  0  0  0  1  0  0  0  0  0  0
  160.9260  203.3840  148.3660 C   0  0  1  0  0  3  0  0  0  0  0  0
  160.2360  202.8260  150.5890 C   0  0  2  0  0  3  0  0  0  0  0  0
  161.1700  206.5200  151.3820 C   0  0  0  0  0  0  0  0  0  0  0  0
  161.7960  209.3140  151.3460 C   0  0  0  0  0  2  0  0  0  0  0  0
  161.8100  207.1210  150.1430 C   0  0  1  0  0  3  0  0  0  0  0  0
  161.5580  208.6240  150.0110 C   0  0  0  0  0  2  0  0  0  0  0  0
  160.7800  208.7930  152.3560 C   0  0  0  0  0  2  0  0  0  0  0  0
  163.1730  206.8840  150.1560 F   0  0  0  0  0  0  0  0  0  0  0  0
  160.7740  207.2880  152.4110 C   0  0  0  0  0  3  0  0  0  0  0  0
  162.2610  203.0430  147.1540 S   0  0  0  0  0  0  0  0  0  0  0  0
  161.2900  203.5600  145.7000 C   0  0  0  0  0  2  0  0  0  0  0  0
  161.8100  204.8790  145.1550 C   0  0  1  0  0  3  0  0  0  0  0  0
  161.3200  205.0710  143.8640 O   0  0  0  0  0  1  0  0  0  0  0  0
  161.3810  206.0110  146.0270 C   0  0  0  0  0  0  0  0  0  0  0  0
  162.2880  206.6220  146.8850 O   0  0  0  0  0  1  0  0  0  0  0  0
  160.1930  206.4230  145.9770 O   0  0  0  0  0  0  0  0  0  0  0  0
  1 12  1  6  0  0  0
  1  8  1  0  0  0  0
  2  7  1  6  0  0  0
  2 11  1  0  0  0  0
  2  1  1  0  0  0  0
  3  8  1  0  0  0  0
  4  3  1  0  0  0  0
  5 11  1  0  0  0  0
  6  5  1  0  0  0  0
  9  5  1  0  0  0  0
 10 19  1  1  0  0  0
 10  7  1  0  0  0  0
 10  5  1  0  0  0  0
 11  4  1  1  0  0  0
 12 18  2  0  0  0  0
 13 16  1  0  0  0  0
 14 17  1  1  0  0  0
 14 12  1  0  0  0  0
 15 14  1  0  0  0  0
 15 13  1  0  0  0  0
 16 18  1  0  0  0  0
 20 19  1  0  0  0  0
 21 22  1  6  0  0  0
 21 20  1  0  0  0  0
 21 23  1  0  0  0  0
 23 24  1  0  0  0  0
 25 23  2  0  0  0  0
M  END
>  <MODEL>
3

>  <REMARK>
 VINA RESULT:      -5.7      5.207      8.310
  Name = 
  5 active torsions:
  status: ('A' for Active; 'I' for Inactive)
    1  A    between atoms: C_1  and  C_5
    2  A    between atoms: C_2  and  C_21
    3  A    between atoms: S_6  and  C_15
    4  A    between atoms: S_6  and  C_23
    5  A    between atoms: C_15  and  C_21
                            x       y       z     vdW  Elec       q    Type
                         _______ _______ _______ _____ _____    ______ ____

>  <TORSDO>
F 5

$$$$
=
 OpenBabel11052422093D

 25 27  0  0  1  0  0  0  0  0999 V2000
  158.4080  212.1960  155.6660 C   0  0  1  0  0  3  0  0  0  0  0  0
  158.7580  210.7890  155.1580 C   0  0  1  0  0  3  0  0  0  0  0  0
  160.7750  212.1590  156.6450 C   0  0  0  0  0  2  0  0  0  0  0  0
  160.2520  210.8590  157.2530 C   0  0  0  0  0  2  0  0  0  0  0  0
  160.4710  209.1170  155.3360 C   0  0  0  0  0  0  0  0  0  0  0  0
  159.9770  207.6850  155.3920 C   0  0  0  0  0  1  0  0  0  0  0  0
  159.5050  210.8520  153.9700 O   0  0  0  0  0  0  0  0  0  0  0  0
  159.6400  213.0170  156.0760 C   0  0  0  0  0  2  0  0  0  0  0  0
  161.9350  209.1300  155.7800 C   0  0  0  0  0  1  0  0  0  0  0  0
  160.2350  209.6530  153.9190 C   0  0  1  0  0  3  0  0  0  0  0  0
  159.5520  209.9800  156.1890 C   0  0  2  0  0  3  0  0  0  0  0  0
  157.5060  212.9520  154.7320 C   0  0  0  0  0  0  0  0  0  0  0  0
  155.8470  213.9600  152.6270 C   0  0  0  0  0  2  0  0  0  0  0  0
  155.9970  212.8330  154.8550 C   0  0  1  0  0  3  0  0  0  0  0  0
  155.2470  213.8740  154.0230 C   0  0  0  0  0  2  0  0  0  0  0  0
  157.2840  214.4530  152.7400 C   0  0  0  0  0  2  0  0  0  0  0  0
  155.5930  211.5650  154.4770 F   0  0  0  0  0  0  0  0  0  0  0  0
  158.0770  213.6310  153.7220 C   0  0  0  0  0  3  0  0  0  0  0  0
  161.7040  209.8030  152.8300 S   0  0  0  0  0  0  0  0  0  0  0  0
  161.1330  208.5620  151.6230 C   0  0  0  0  0  2  0  0  0  0  0  0
  162.3160  207.9190  150.9210 C   0  0  1  0  0  3  0  0  0  0  0  0
  162.6480  206.7300  151.5680 O   0  0  0  0  0  1  0  0  0  0  0  0
  161.9880  207.6360  149.4940 C   0  0  0  0  0  0  0  0  0  0  0  0
  161.3060  206.4760  149.1450 O   0  0  0  0  0  1  0  0  0  0  0  0
  162.3200  208.4580  148.6010 O   0  0  0  0  0  0  0  0  0  0  0  0
  1 12  1  6  0  0  0
  1  8  1  0  0  0  0
  2  7  1  6  0  0  0
  2  1  1  0  0  0  0
  2 11  1  0  0  0  0
  3  4  1  0  0  0  0
  5  6  1  0  0  0  0
  5  9  1  0  0  0  0
  5 11  1  0  0  0  0
  8  3  1  0  0  0  0
 10 19  1  1  0  0  0
 10  7  1  0  0  0  0
 10  5  1  0  0  0  0
 11  4  1  1  0  0  0
 12 14  1  0  0  0  0
 13 16  1  0  0  0  0
 13 15  1  0  0  0  0
 14 17  1  6  0  0  0
 15 14  1  0  0  0  0
 16 18  1  0  0  0  0
 18 12  2  0  0  0  0
 20 19  1  0  0  0  0
 21 22  1  1  0  0  0
 21 20  1  0  0  0  0
 23 21  1  0  0  0  0
 24 23  1  0  0  0  0
 25 23  2  0  0  0  0
M  END
>  <MODEL>
4

>  <REMARK>
 VINA RESULT:      -4.9      3.071      6.383
  Name = 
  5 active torsions:
  status: ('A' for Active; 'I' for Inactive)
    1  A    between atoms: C_1  and  C_5
    2  A    between atoms: C_2  and  C_21
    3  A    between atoms: S_6  and  C_15
    4  A    between atoms: S_6  and  C_23
    5  A    between atoms: C_15  and  C_21
                            x       y       z     vdW  Elec       q    Type
                         _______ _______ _______ _____ _____    ______ ____

>  <TORSDO>
F 5

$$$$
=
 OpenBabel11052422093D

 25 27  0  0  1  0  0  0  0  0999 V2000
  161.4900  207.0970  148.1410 C   0  0  1  0  0  3  0  0  0  0  0  0
  162.3100  205.8950  147.6480 C   0  0  1  0  0  3  0  0  0  0  0  0
  159.7500  206.2850  146.4440 C   0  0  0  0  0  2  0  0  0  0  0  0
  160.9570  206.3780  145.5130 C   0  0  0  0  0  2  0  0  0  0  0  0
  162.2870  204.1900  145.9600 C   0  0  0  0  0  0  0  0  0  0  0  0
  163.6380  203.8470  145.3640 C   0  0  0  0  0  1  0  0  0  0  0  0
  161.9000  204.7100  148.2810 O   0  0  0  0  0  0  0  0  0  0  0  0
  160.0010  207.0070  147.7730 C   0  0  0  0  0  2  0  0  0  0  0  0
  161.2060  203.6010  145.0510 C   0  0  0  0  0  1  0  0  0  0  0  0
  162.2520  203.6720  147.4030 C   0  0  1  0  0  3  0  0  0  0  0  0
  162.2020  205.7000  146.1330 C   0  0  2  0  0  3  0  0  0  0  0  0
  161.6980  207.3960  149.5980 C   0  0  0  0  0  0  0  0  0  0  0  0
  161.5640  208.0920  152.3730 C   0  0  0  0  0  2  0  0  0  0  0  0
  161.5700  206.2930  150.6350 C   0  0  1  0  0  3  0  0  0  0  0  0
  162.0850  206.7080  152.0140 C   0  0  0  0  0  2  0  0  0  0  0  0
  162.1270  209.1020  151.3800 C   0  0  0  0  0  2  0  0  0  0  0  0
  160.2480  205.8970  150.7390 F   0  0  0  0  0  0  0  0  0  0  0  0
  161.8770  208.6780  149.9560 C   0  0  0  0  0  3  0  0  0  0  0  0
  161.2670  202.1570  147.7200 S   0  0  0  0  0  0  0  0  0  0  0  0
  160.4100  202.8300  149.1830 C   0  0  0  0  0  2  0  0  0  0  0  0
  160.5140  201.8650  150.3500 C   0  0  1  0  0  3  0  0  0  0  0  0
  161.2190  200.7300  149.9520 O   0  0  0  0  0  1  0  0  0  0  0  0
  161.2120  202.5090  151.5010 C   0  0  0  0  0  0  0  0  0  0  0  0
  160.5330  203.3950  152.3290 O   0  0  0  0  0  1  0  0  0  0  0  0
  162.4200  202.2410  151.7290 O   0  0  0  0  0  0  0  0  0  0  0  0
  1 12  1  1  0  0  0
  2  1  1  0  0  0  0
  2  7  1  1  0  0  0
  3  8  1  0  0  0  0
  4  3  1  0  0  0  0
  5 11  1  0  0  0  0
  5 10  1  0  0  0  0
  6  5  1  0  0  0  0
  8  1  1  0  0  0  0
  9  5  1  0  0  0  0
 10 19  1  6  0  0  0
 10  7  1  0  0  0  0
 11  4  1  1  0  0  0
 11  2  1  0  0  0  0
 12 18  2  0  0  0  0
 12 14  1  0  0  0  0
 14 17  1  1  0  0  0
 14 15  1  0  0  0  0
 15 13  1  0  0  0  0
 16 13  1  0  0  0  0
 18 16  1  0  0  0  0
 19 20  1  0  0  0  0
 20 21  1  0  0  0  0
 21 22  1  6  0  0  0
 21 23  1  0  0  0  0
 23 25  2  0  0  0  0
 23 24  1  0  0  0  0
M  END
>  <MODEL>
5

>  <REMARK>
 VINA RESULT:      -4.8      5.519      9.287
  Name = 
  5 active torsions:
  status: ('A' for Active; 'I' for Inactive)
    1  A    between atoms: C_1  and  C_5
    2  A    between atoms: C_2  and  C_21
    3  A    between atoms: S_6  and  C_15
    4  A    between atoms: S_6  and  C_23
    5  A    between atoms: C_15  and  C_21
                            x       y       z     vdW  Elec       q    Type
                         _______ _______ _______ _____ _____    ______ ____

>  <TORSDO>
F 5

$$$$
=
 OpenBabel11052422093D

 25 27  0  0  1  0  0  0  0  0999 V2000
  161.6920  207.0400  152.1850 C   0  0  1  0  0  3  0  0  0  0  0  0
  161.7230  208.5040  152.6500 C   0  0  1  0  0  3  0  0  0  0  0  0
  160.2840  206.6620  154.2920 C   0  0  0  0  0  2  0  0  0  0  0  0
  161.4890  207.3450  154.9370 C   0  0  0  0  0  2  0  0  0  0  0  0
  161.0950  209.8800  154.5130 C   0  0  0  0  0  0  0  0  0  0  0  0
  162.0690  210.9880  154.8600 C   0  0  0  0  0  1  0  0  0  0  0  0
  160.5500  209.1780  152.2740 O   0  0  0  0  0  0  0  0  0  0  0  0
  160.5870  206.2120  152.8580 C   0  0  0  0  0  2  0  0  0  0  0  0
  160.1350  209.7090  155.6930 C   0  0  0  0  0  1  0  0  0  0  0  0
  160.4120  210.2350  153.1880 C   0  0  1  0  0  3  0  0  0  0  0  0
  161.8890  208.6270  154.1690 C   0  0  2  0  0  3  0  0  0  0  0  0
  161.6780  206.8960  150.6900 C   0  0  0  0  0  0  0  0  0  0  0  0
  161.2130  206.9470  147.8650 C   0  0  0  0  0  2  0  0  0  0  0  0
  162.4980  207.8320  149.8200 C   0  0  1  0  0  3  0  0  0  0  0  0
  162.5870  207.3690  148.3640 C   0  0  0  0  0  2  0  0  0  0  0  0
  160.7460  205.7420  148.6730 C   0  0  0  0  0  2  0  0  0  0  0  0
  161.9610  209.1060  149.8640 F   0  0  0  0  0  0  0  0  0  0  0  0
  160.8300  206.0010  150.1540 C   0  0  0  0  0  3  0  0  0  0  0  0
  158.6780  210.8280  153.2770 S   0  0  0  0  0  0  0  0  0  0  0  0
  159.1220  212.5720  153.5720 C   0  0  0  0  0  2  0  0  0  0  0  0
  158.1250  213.4960  152.8960 C   0  0  1  0  0  3  0  0  0  0  0  0
  157.8310  213.0100  151.6240 O   0  0  0  0  0  1  0  0  0  0  0  0
  156.8710  213.5890  153.6990 C   0  0  0  0  0  0  0  0  0  0  0  0
  155.6390  213.7130  153.0680 O   0  0  0  0  0  0  0  0  0  0  0  0
  156.9280  213.5450  154.9550 O   0  0  0  0  0  1  0  0  0  0  0  0
  1 12  1  6  0  0  0
  1  2  1  0  0  0  0
  1  8  1  0  0  0  0
  2  7  1  1  0  0  0
  2 11  1  0  0  0  0
  3  4  1  0  0  0  0
  5  6  1  0  0  0  0
  5  9  1  0  0  0  0
  7 10  1  0  0  0  0
  8  3  1  0  0  0  0
 10 19  1  1  0  0  0
 10  5  1  0  0  0  0
 11  5  1  0  0  0  0
 11  4  1  1  0  0  0
 13 15  1  0  0  0  0
 13 16  1  0  0  0  0
 14 17  1  6  0  0  0
 14 12  1  0  0  0  0
 15 14  1  0  0  0  0
 16 18  1  0  0  0  0
 18 12  2  0  0  0  0
 19 20  1  0  0  0  0
 21 22  1  6  0  0  0
 21 20  1  0  0  0  0
 21 23  1  0  0  0  0
 23 25  1  0  0  0  0
 24 23  2  0  0  0  0
M  END
>  <MODEL>
6

>  <REMARK>
 VINA RESULT:      -4.8      1.522      2.434
  Name = 
  5 active torsions:
  status: ('A' for Active; 'I' for Inactive)
    1  A    between atoms: C_1  and  C_5
    2  A    between atoms: C_2  and  C_21
    3  A    between atoms: S_6  and  C_15
    4  A    between atoms: S_6  and  C_23
    5  A    between atoms: C_15  and  C_21
                            x       y       z     vdW  Elec       q    Type
                         _______ _______ _______ _____ _____    ______ ____

>  <TORSDO>
F 5

$$$$
=
 OpenBabel11052422093D

 25 27  0  0  1  0  0  0  0  0999 V2000
  161.2280  207.3230  150.8580 C   0  0  1  0  0  3  0  0  0  0  0  0
  160.4220  208.0180  151.9650 C   0  0  1  0  0  3  0  0  0  0  0  0
  162.9120  209.2160  151.2410 C   0  0  0  0  0  2  0  0  0  0  0  0
  161.6620  210.0610  151.0080 C   0  0  0  0  0  2  0  0  0  0  0  0
  160.4190  210.0190  153.2900 C   0  0  0  0  0  0  0  0  0  0  0  0
  159.0530  210.6200  153.5560 C   0  0  0  0  0  1  0  0  0  0  0  0
  160.8960  207.6580  153.2370 O   0  0  0  0  0  0  0  0  0  0  0  0
  162.7010  207.7590  150.8140 C   0  0  0  0  0  2  0  0  0  0  0  0
  161.4750  211.0710  153.6410 C   0  0  0  0  0  1  0  0  0  0  0  0
  160.5350  208.7150  154.0880 C   0  0  1  0  0  3  0  0  0  0  0  0
  160.4670  209.5450  151.8450 C   0  0  2  0  0  3  0  0  0  0  0  0
  161.0790  205.8280  150.8690 C   0  0  0  0  0  0  0  0  0  0  0  0
  161.3170  202.9770  150.7410 C   0  0  0  0  0  2  0  0  0  0  0  0
  161.2960  205.0440  152.1510 C   0  0  1  0  0  3  0  0  0  0  0  0
  160.8310  203.5900  152.0470 C   0  0  0  0  0  2  0  0  0  0  0  0
  160.6710  203.7210  149.5790 C   0  0  0  0  0  2  0  0  0  0  0  0
  162.6340  205.0730  152.5000 F   0  0  0  0  0  0  0  0  0  0  0  0
  160.8690  205.2100  149.6950 C   0  0  0  0  0  3  0  0  0  0  0  0
  161.5780  208.7520  155.5970 S   0  0  0  0  0  0  0  0  0  0  0  0
  160.2550  209.3700  156.6880 C   0  0  0  0  0  2  0  0  0  0  0  0
  160.6270  210.7260  157.2610 C   0  0  1  0  0  3  0  0  0  0  0  0
  161.9220  211.0570  156.8640 O   0  0  0  0  0  1  0  0  0  0  0  0
  159.6760  211.7730  156.7860 C   0  0  0  0  0  0  0  0  0  0  0  0
  158.3050  211.5500  156.8280 O   0  0  0  0  0  1  0  0  0  0  0  0
  160.1180  212.8700  156.3550 O   0  0  0  0  0  0  0  0  0  0  0  0
  1 12  1  1  0  0  0
  1  2  1  0  0  0  0
  2  7  1  1  0  0  0
  4  3  1  0  0  0  0
  5  6  1  0  0  0  0
  5  9  1  0  0  0  0
  5 10  1  0  0  0  0
  7 10  1  0  0  0  0
  8  1  1  0  0  0  0
  8  3  1  0  0  0  0
 10 19  1  1  0  0  0
 11  4  1  1  0  0  0
 11  2  1  0  0  0  0
 11  5  1  0  0  0  0
 12 14  1  0  0  0  0
 13 15  1  0  0  0  0
 14 17  1  6  0  0  0
 15 14  1  0  0  0  0
 16 18  1  0  0  0  0
 16 13  1  0  0  0  0
 18 12  2  0  0  0  0
 19 20  1  0  0  0  0
 20 21  1  0  0  0  0
 21 22  1  6  0  0  0
 23 24  1  0  0  0  0
 23 21  1  0  0  0  0
 25 23  2  0  0  0  0
M  END
>  <MODEL>
7

>  <REMARK>
 VINA RESULT:      -4.8      2.569      4.357
  Name = 
  5 active torsions:
  status: ('A' for Active; 'I' for Inactive)
    1  A    between atoms: C_1  and  C_5
    2  A    between atoms: C_2  and  C_21
    3  A    between atoms: S_6  and  C_15
    4  A    between atoms: S_6  and  C_23
    5  A    between atoms: C_15  and  C_21
                            x       y       z     vdW  Elec       q    Type
                         _______ _______ _______ _____ _____    ______ ____

>  <TORSDO>
F 5

$$$$
=
 OpenBabel11052422093D

 25 27  0  0  1  0  0  0  0  0999 V2000
  158.5550  214.0150  150.4290 C   0  0  1  0  0  3  0  0  0  0  0  0
  160.0130  213.9650  149.9460 C   0  0  1  0  0  3  0  0  0  0  0  0
  158.0130  213.1170  148.0920 C   0  0  0  0  0  2  0  0  0  0  0  0
  158.8370  214.3360  147.6870 C   0  0  0  0  0  2  0  0  0  0  0  0
  161.3050  213.5680  147.9630 C   0  0  0  0  0  0  0  0  0  0  0  0
  162.5240  214.4530  147.7940 C   0  0  0  0  0  1  0  0  0  0  0  0
  160.5400  212.6680  150.0630 O   0  0  0  0  0  0  0  0  0  0  0  0
  157.6010  213.1740  149.5670 C   0  0  0  0  0  2  0  0  0  0  0  0
  161.0210  212.8930  146.6190 C   0  0  0  0  0  1  0  0  0  0  0  0
  161.5740  212.5940  149.1160 C   0  0  1  0  0  3  0  0  0  0  0  0
  160.1580  214.4180  148.4890 C   0  0  2  0  0  3  0  0  0  0  0  0
  158.4100  213.7160  151.8940 C   0  0  0  0  0  0  0  0  0  0  0  0
  157.6950  212.8590  154.5320 C   0  0  0  0  0  2  0  0  0  0  0  0
  159.1400  212.5390  152.5150 C   0  0  1  0  0  3  0  0  0  0  0  0
  159.1040  212.5530  154.0450 C   0  0  0  0  0  2  0  0  0  0  0  0
  157.3120  214.2620  154.0770 C   0  0  0  0  0  2  0  0  0  0  0  0
  158.5980  211.3520  152.0550 F   0  0  0  0  0  0  0  0  0  0  0  0
  157.5260  214.4440  152.5970 C   0  0  0  0  0  3  0  0  0  0  0  0
  161.9530  210.8550  148.6670 S   0  0  0  0  0  0  0  0  0  0  0  0
  161.9980  210.2540  150.3870 C   0  0  0  0  0  2  0  0  0  0  0  0
  161.6040  208.7890  150.4490 C   0  0  1  0  0  3  0  0  0  0  0  0
  162.7080  207.9990  150.1360 O   0  0  0  0  0  1  0  0  0  0  0  0
  161.1080  208.4380  151.8120 C   0  0  0  0  0  0  0  0  0  0  0  0
  160.8310  207.1160  152.1410 O   0  0  0  0  0  0  0  0  0  0  0  0
  160.9480  209.3430  152.6710 O   0  0  0  0  0  1  0  0  0  0  0  0
  1 12  1  1  0  0  0
  2  7  1  6  0  0  0
  2  1  1  0  0  0  0
  3  8  1  0  0  0  0
  4  3  1  0  0  0  0
  5 11  1  0  0  0  0
  5 10  1  0  0  0  0
  6  5  1  0  0  0  0
  8  1  1  0  0  0  0
  9  5  1  0  0  0  0
 10 19  1  6  0  0  0
 10  7  1  0  0  0  0
 11  4  1  6  0  0  0
 11  2  1  0  0  0  0
 12 14  1  0  0  0  0
 12 18  2  0  0  0  0
 14 17  1  6  0  0  0
 14 15  1  0  0  0  0
 15 13  1  0  0  0  0
 16 13  1  0  0  0  0
 18 16  1  0  0  0  0
 19 20  1  0  0  0  0
 20 21  1  0  0  0  0
 21 22  1  1  0  0  0
 21 23  1  0  0  0  0
 23 24  2  0  0  0  0
 23 25  1  0  0  0  0
M  END
>  <MODEL>
8

>  <REMARK>
 VINA RESULT:      -4.4      3.541      7.773
  Name = 
  5 active torsions:
  status: ('A' for Active; 'I' for Inactive)
    1  A    between atoms: C_1  and  C_5
    2  A    between atoms: C_2  and  C_21
    3  A    between atoms: S_6  and  C_15
    4  A    between atoms: S_6  and  C_23
    5  A    between atoms: C_15  and  C_21
                            x       y       z     vdW  Elec       q    Type
                         _______ _______ _______ _____ _____    ______ ____

>  <TORSDO>
F 5

$$$$
=
 OpenBabel11052422093D

 25 27  0  0  1  0  0  0  0  0999 V2000
  161.5910  205.4450  149.0990 C   0  0  1  0  0  3  0  0  0  0  0  0
  162.1730  204.6380  147.9290 C   0  0  1  0  0  3  0  0  0  0  0  0
  160.3530  206.7360  147.2650 C   0  0  0  0  0  2  0  0  0  0  0  0
  161.7760  206.8810  146.7300 C   0  0  0  0  0  2  0  0  0  0  0  0
  162.2470  204.6230  145.5300 C   0  0  0  0  0  0  0  0  0  0  0  0
  163.5740  204.2130  144.9240 C   0  0  0  0  0  1  0  0  0  0  0  0
  161.2760  203.6440  147.5060 O   0  0  0  0  0  0  0  0  0  0  0  0
  160.3390  206.2500  148.7180 C   0  0  0  0  0  2  0  0  0  0  0  0
  161.4070  205.2780  144.4310 C   0  0  0  0  0  1  0  0  0  0  0  0
  161.6040  203.3850  146.1650 C   0  0  1  0  0  3  0  0  0  0  0  0
  162.5190  205.5230  146.7270 C   0  0  2  0  0  3  0  0  0  0  0  0
  161.3820  204.6220  150.3380 C   0  0  0  0  0  0  0  0  0  0  0  0
  160.4580  203.1830  152.6350 C   0  0  0  0  0  2  0  0  0  0  0  0
  161.1670  203.1220  150.2370 C   0  0  1  0  0  3  0  0  0  0  0  0
  161.2540  202.4140  151.5900 C   0  0  0  0  0  2  0  0  0  0  0  0
  161.0920  204.5550  152.8240 C   0  0  0  0  0  2  0  0  0  0  0  0
  159.9370  202.8610  149.6610 F   0  0  0  0  0  0  0  0  0  0  0  0
  161.2720  205.2690  151.5100 C   0  0  0  0  0  3  0  0  0  0  0  0
  160.2000  202.6210  145.2630 S   0  0  0  0  0  0  0  0  0  0  0  0
  160.0050  201.2290  146.4250 C   0  0  0  0  0  2  0  0  0  0  0  0
  161.2770  200.4010  146.4810 C   0  0  1  0  0  3  0  0  0  0  0  0
  161.5160  200.0080  147.7970 O   0  0  0  0  0  1  0  0  0  0  0  0
  161.1540  199.1940  145.6130 C   0  0  0  0  0  0  0  0  0  0  0  0
  162.1830  198.2610  145.5560 O   0  0  0  0  0  1  0  0  0  0  0  0
  160.1090  199.0150  144.9350 O   0  0  0  0  0  0  0  0  0  0  0  0
  1 12  1  1  0  0  0
  2  7  1  6  0  0  0
  2  1  1  0  0  0  0
  3  8  1  0  0  0  0
  4  3  1  0  0  0  0
  5 10  1  0  0  0  0
  5 11  1  0  0  0  0
  6  5  1  0  0  0  0
  8  1  1  0  0  0  0
  9  5  1  0  0  0  0
 10 19  1  6  0  0  0
 10  7  1  0  0  0  0
 11  4  1  6  0  0  0
 11  2  1  0  0  0  0
 12 18  2  0  0  0  0
 13 16  1  0  0  0  0
 14 17  1  1  0  0  0
 14 12  1  0  0  0  0
 14 15  1  0  0  0  0
 15 13  1  0  0  0  0
 18 16  1  0  0  0  0
 19 20  1  0  0  0  0
 20 21  1  0  0  0  0
 21 22  1  1  0  0  0
 23 21  1  0  0  0  0
 24 23  1  0  0  0  0
 25 23  2  0  0  0  0
M  END
>  <MODEL>
9

>  <REMARK>
 VINA RESULT:      -4.3      6.948     10.637
  Name = 
  5 active torsions:
  status: ('A' for Active; 'I' for Inactive)
    1  A    between atoms: C_1  and  C_5
    2  A    between atoms: C_2  and  C_21
    3  A    between atoms: S_6  and  C_15
    4  A    between atoms: S_6  and  C_23
    5  A    between atoms: C_15  and  C_21
                            x       y       z     vdW  Elec       q    Type
                         _______ _______ _______ _____ _____    ______ ____

>  <TORSDO>
F 5

$$$$
