=
 OpenBabel11052422003D

 30 34  0  0  1  0  0  0  0  0999 V2000
  161.3630  206.9580  150.4140 C   0  0  0  0  0  0  0  0  0  0  0  0
  161.9030  207.2060  147.9820 C   0  0  0  0  0  3  0  0  0  0  0  0
  161.4080  210.7700  152.3640 C   0  0  0  0  0  2  0  0  0  0  0  0
  160.9760  206.0820  151.3870 C   0  0  0  0  0  0  0  0  0  0  0  0
  160.9510  204.6110  151.1090 C   0  0  0  0  0  0  0  0  0  0  0  0
  160.6130  202.2830  151.7670 C   0  0  0  0  0  3  0  0  0  0  0  0
  161.8430  206.7570  154.8530 C   0  0  0  0  0  2  0  0  0  0  0  0
  160.5920  203.6450  152.0830 C   0  0  0  0  0  0  0  0  0  0  0  0
  161.3320  204.1600  149.8300 C   0  0  0  0  0  0  0  0  0  0  0  0
  160.9560  208.8420  153.6600 C   0  0  2  0  0  3  0  0  0  0  0  0
  161.9840  209.8450  153.3360 N   0  0  0  0  0  0  0  0  0  0  0  0
  161.6900  205.0720  148.8410 O   0  0  0  0  0  0  0  0  0  0  0  0
  160.2330  203.9930  153.3430 F   0  0  0  0  0  0  0  0  0  0  0  0
  161.9170  208.6650  147.8140 C   0  0  0  0  0  3  0  0  0  0  0  0
  160.0360  209.1160  154.8650 C   0  0  0  0  0  2  0  0  0  0  0  0
  159.5590  208.6980  157.2540 C   0  0  0  0  0  1  0  0  0  0  0  0
  161.3490  202.7960  149.5280 C   0  0  0  0  0  3  0  0  0  0  0  0
  161.6730  206.4500  149.0550 C   0  0  0  0  0  0  0  0  0  0  0  0
  162.1600  210.6940  151.0250 C   0  0  0  0  0  2  0  0  0  0  0  0
  161.9060  210.9440  148.2100 O   0  0  0  0  0  1  0  0  0  0  0  0
  160.9890  201.8590  150.4950 C   0  0  0  0  0  3  0  0  0  0  0  0
  161.6090  208.3460  150.8180 C   0  0  0  0  0  3  0  0  0  0  0  0
  160.4600  206.5730  152.7310 C   0  0  0  0  0  2  0  0  0  0  0  0
  162.3980  210.6170  154.5010 C   0  0  0  0  0  1  0  0  0  0  0  0
  161.4710  207.4020  153.5170 C   0  0  2  0  0  3  0  0  0  0  0  0
  160.5610  208.4670  156.1400 C   0  0  1  0  0  3  0  0  0  0  0  0
  161.1800  206.3640  157.0890 F   0  0  0  0  0  0  0  0  0  0  0  0
  161.8780  209.6480  148.7120 C   0  0  0  0  0  0  0  0  0  0  0  0
  161.8380  209.4840  150.1760 C   0  0  0  0  0  0  0  0  0  0  0  0
  160.7700  206.9710  155.9150 C   0  0  2  0  0  3  0  0  0  0  0  0
  1 22  1  0  0  0  0
  1  4  2  0  0  0  0
  2 18  2  0  0  0  0
  3 11  1  0  0  0  0
  4 23  1  0  0  0  0
  5  4  1  0  0  0  0
  5  8  2  0  0  0  0
  6  8  1  0  0  0  0
  7 30  1  0  0  0  0
  8 13  1  0  0  0  0
  9  5  1  0  0  0  0
 10 15  1  1  0  0  0
 11 10  1  0  0  0  0
 11 24  1  0  0  0  0
 12 18  1  0  0  0  0
 12  9  1  0  0  0  0
 14  2  1  0  0  0  0
 14 28  2  0  0  0  0
 15 26  1  0  0  0  0
 17  9  2  0  0  0  0
 17 21  1  0  0  0  0
 18  1  1  0  0  0  0
 19  3  1  0  0  0  0
 20 28  1  0  0  0  0
 21  6  2  0  0  0  0
 25 23  1  1  0  0  0
 25 10  1  0  0  0  0
 25  7  1  0  0  0  0
 26 16  1  1  0  0  0
 28 29  1  0  0  0  0
 29 22  2  0  0  0  0
 29 19  1  0  0  0  0
 30 26  1  0  0  0  0
 30 27  1  1  0  0  0
M  END
>  <MODEL>
1

>  <REMARK>
 VINA RESULT:      -5.9      0.000      0.000
  Name = 
  0 active torsions:
  status: ('A' for Active; 'I' for Inactive)
                            x       y       z     vdW  Elec       q    Type
                         _______ _______ _______ _____ _____    ______ ____

>  <TORSDO>
F 0

$$$$
=
 OpenBabel11052422003D

 30 34  0  0  1  0  0  0  0  0999 V2000
  161.0050  210.4630  150.9660 C   0  0  0  0  0  0  0  0  0  0  0  0
  162.2300  210.7680  148.8050 C   0  0  0  0  0  3  0  0  0  0  0  0
  158.8250  214.0070  151.9770 C   0  0  0  0  0  2  0  0  0  0  0  0
  160.6810  209.5710  151.9480 C   0  0  0  0  0  0  0  0  0  0  0  0
  161.3460  208.2310  151.9980 C   0  0  0  0  0  0  0  0  0  0  0  0
  161.7550  206.0470  153.0130 C   0  0  0  0  0  3  0  0  0  0  0  0
  159.9060  210.7860  155.2870 C   0  0  0  0  0  2  0  0  0  0  0  0
  161.0800  207.2720  153.0080 C   0  0  0  0  0  0  0  0  0  0  0  0
  162.3040  207.9170  151.0140 C   0  0  0  0  0  0  0  0  0  0  0  0
  158.7500  212.1700  153.4670 C   0  0  2  0  0  3  0  0  0  0  0  0
  159.3340  213.5040  153.2500 N   0  0  0  0  0  0  0  0  0  0  0  0
  162.5960  208.8260  150.0010 O   0  0  0  0  0  0  0  0  0  0  0  0
  160.1880  207.5020  154.0030 F   0  0  0  0  0  0  0  0  0  0  0  0
  161.7190  212.0650  148.3390 C   0  0  0  0  0  3  0  0  0  0  0  0
  157.4340  212.0790  154.2620 C   0  0  0  0  0  2  0  0  0  0  0  0
  156.3450  211.6480  156.4390 C   0  0  0  0  0  1  0  0  0  0  0  0
  162.9710  206.6890  151.0310 C   0  0  0  0  0  3  0  0  0  0  0  0
  161.9540  210.0610  149.8990 C   0  0  0  0  0  0  0  0  0  0  0  0
  159.9680  214.1900  150.9660 C   0  0  0  0  0  2  0  0  0  0  0  0
  160.6590  214.1160  148.2140 O   0  0  0  0  0  1  0  0  0  0  0  0
  162.6960  205.7550  152.0280 C   0  0  0  0  0  3  0  0  0  0  0  0
  160.5140  211.8360  151.1160 C   0  0  0  0  0  3  0  0  0  0  0  0
  159.5690  209.8650  152.9440 C   0  0  0  0  0  2  0  0  0  0  0  0
  158.9590  214.4530  154.2910 C   0  0  0  0  0  1  0  0  0  0  0  0
  159.8110  211.1080  153.7940 C   0  0  2  0  0  3  0  0  0  0  0  0
  157.6820  211.8190  155.7440 C   0  0  1  0  0  3  0  0  0  0  0  0
  158.7050  210.2840  157.2610 F   0  0  0  0  0  0  0  0  0  0  0  0
  160.9740  212.9810  148.9520 C   0  0  0  0  0  0  0  0  0  0  0  0
  160.4830  212.9120  150.3400 C   0  0  0  0  0  0  0  0  0  0  0  0
  158.5350  210.5640  155.9170 C   0  0  2  0  0  3  0  0  0  0  0  0
  1 22  1  0  0  0  0
  1  4  2  0  0  0  0
  2 18  2  0  0  0  0
  3 11  1  0  0  0  0
  4  5  1  0  0  0  0
  4 23  1  0  0  0  0
  5  8  2  0  0  0  0
  7 30  1  0  0  0  0
  8  6  1  0  0  0  0
  8 13  1  0  0  0  0
  9 17  2  0  0  0  0
  9  5  1  0  0  0  0
 10 25  1  0  0  0  0
 10 15  1  1  0  0  0
 11 10  1  0  0  0  0
 11 24  1  0  0  0  0
 12  9  1  0  0  0  0
 14  2  1  0  0  0  0
 14 28  2  0  0  0  0
 15 26  1  0  0  0  0
 17 21  1  0  0  0  0
 18 12  1  0  0  0  0
 18  1  1  0  0  0  0
 19  3  1  0  0  0  0
 20 28  1  0  0  0  0
 21  6  2  0  0  0  0
 25 23  1  6  0  0  0
 25  7  1  0  0  0  0
 26 30  1  0  0  0  0
 26 16  1  1  0  0  0
 28 29  1  0  0  0  0
 29 19  1  0  0  0  0
 29 22  2  0  0  0  0
 30 27  1  1  0  0  0
M  END
>  <MODEL>
2

>  <REMARK>
 VINA RESULT:      -5.7      2.893      4.029
  Name = 
  0 active torsions:
  status: ('A' for Active; 'I' for Inactive)
                            x       y       z     vdW  Elec       q    Type
                         _______ _______ _______ _____ _____    ______ ____

>  <TORSDO>
F 0

$$$$
=
 OpenBabel11052422003D

 30 34  0  0  1  0  0  0  0  0999 V2000
  161.4890  209.9910  150.7740 C   0  0  0  0  0  0  0  0  0  0  0  0
  162.3800  208.1410  149.3420 C   0  0  0  0  0  3  0  0  0  0  0  0
  160.8610  208.6230  154.7830 C   0  0  0  0  0  2  0  0  0  0  0  0
  161.1810  211.3200  150.8140 C   0  0  0  0  0  0  0  0  0  0  0  0
  161.1740  212.1300  149.5560 C   0  0  0  0  0  0  0  0  0  0  0  0
  160.8190  214.2010  148.3090 C   0  0  0  0  0  3  0  0  0  0  0  0
  158.6710  212.5060  153.1630 C   0  0  0  0  0  2  0  0  0  0  0  0
  160.8310  213.5060  149.5230 C   0  0  0  0  0  0  0  0  0  0  0  0
  161.4920  211.4920  148.3410 C   0  0  0  0  0  0  0  0  0  0  0  0
  160.3060  210.8610  154.2510 C   0  0  2  0  0  3  0  0  0  0  0  0
  159.7440  209.5260  154.5150 N   0  0  0  0  0  0  0  0  0  0  0  0
  161.8370  210.1430  148.3250 O   0  0  0  0  0  0  0  0  0  0  0  0
  160.4930  214.1910  150.6430 F   0  0  0  0  0  0  0  0  0  0  0  0
  162.6350  207.0810  150.3260 C   0  0  0  0  0  3  0  0  0  0  0  0
  160.4560  211.8280  155.4410 C   0  0  0  0  0  2  0  0  0  0  0  0
  159.5140  213.7340  156.7020 C   0  0  0  0  0  1  0  0  0  0  0  0
  161.4750  212.1980  147.1360 C   0  0  0  0  0  3  0  0  0  0  0  0
  161.9020  209.3760  149.4880 C   0  0  0  0  0  0  0  0  0  0  0  0
  160.9460  207.5270  153.7070 C   0  0  0  0  0  2  0  0  0  0  0  0
  162.7060  205.8280  152.2690 O   0  0  0  0  0  1  0  0  0  0  0  0
  161.1410  213.5510  147.1200 C   0  0  0  0  0  3  0  0  0  0  0  0
  161.2340  209.2040  151.9840 C   0  0  0  0  0  3  0  0  0  0  0  0
  160.9460  212.0340  152.1370 C   0  0  0  0  0  2  0  0  0  0  0  0
  158.8640  209.5100  155.6770 C   0  0  0  0  0  1  0  0  0  0  0  0
  159.7790  211.4750  152.9450 C   0  0  2  0  0  3  0  0  0  0  0  0
  159.2520  212.7540  155.5760 C   0  0  1  0  0  3  0  0  0  0  0  0
  157.9700  214.3930  154.4040 F   0  0  0  0  0  0  0  0  0  0  0  0
  162.3020  206.9850  151.6120 C   0  0  0  0  0  0  0  0  0  0  0  0
  161.5260  207.9720  152.3820 C   0  0  0  0  0  0  0  0  0  0  0  0
  159.0180  213.5010  154.2650 C   0  0  2  0  0  3  0  0  0  0  0  0
  1  4  2  0  0  0  0
  1 22  1  0  0  0  0
  2 18  2  0  0  0  0
  2 14  1  0  0  0  0
  4 23  1  0  0  0  0
  5  4  1  0  0  0  0
  6  8  2  0  0  0  0
  7 30  1  0  0  0  0
  8  5  1  0  0  0  0
  8 13  1  0  0  0  0
  9  5  2  0  0  0  0
 10 11  1  0  0  0  0
 10 15  1  1  0  0  0
 11  3  1  0  0  0  0
 11 24  1  0  0  0  0
 12  9  1  0  0  0  0
 12 18  1  0  0  0  0
 14 28  2  0  0  0  0
 15 26  1  0  0  0  0
 17  9  1  0  0  0  0
 18  1  1  0  0  0  0
 19  3  1  0  0  0  0
 21 17  2  0  0  0  0
 21  6  1  0  0  0  0
 22 29  2  0  0  0  0
 25 23  1  1  0  0  0
 25  7  1  0  0  0  0
 25 10  1  0  0  0  0
 26 16  1  1  0  0  0
 28 20  1  0  0  0  0
 28 29  1  0  0  0  0
 29 19  1  0  0  0  0
 30 27  1  1  0  0  0
 30 26  1  0  0  0  0
M  END
>  <MODEL>
3

>  <REMARK>
 VINA RESULT:      -5.2      3.523      6.366
  Name = 
  0 active torsions:
  status: ('A' for Active; 'I' for Inactive)
                            x       y       z     vdW  Elec       q    Type
                         _______ _______ _______ _____ _____    ______ ____

>  <TORSDO>
F 0

$$$$
=
 OpenBabel11052422003D

 30 34  0  0  1  0  0  0  0  0999 V2000
  161.5590  208.3440  150.7610 C   0  0  0  0  0  0  0  0  0  0  0  0
  161.7740  206.5450  149.0330 C   0  0  0  0  0  3  0  0  0  0  0  0
  161.2020  206.6400  154.6730 C   0  0  0  0  0  2  0  0  0  0  0  0
  161.5830  209.6910  150.9770 C   0  0  0  0  0  0  0  0  0  0  0  0
  161.5900  210.6400  149.8180 C   0  0  0  0  0  0  0  0  0  0  0  0
  161.5620  212.8810  148.8480 C   0  0  0  0  0  3  0  0  0  0  0  0
  159.7860  211.0840  153.8140 C   0  0  0  0  0  2  0  0  0  0  0  0
  161.5810  212.0500  149.9720 C   0  0  0  0  0  0  0  0  0  0  0  0
  161.5710  210.1100  148.5140 C   0  0  0  0  0  0  0  0  0  0  0  0
  161.1220  208.9950  154.4540 C   0  0  2  0  0  3  0  0  0  0  0  0
  160.3050  207.7920  154.6830 N   0  0  0  0  0  0  0  0  0  0  0  0
  161.5810  208.7320  148.3140 O   0  0  0  0  0  0  0  0  0  0  0  0
  161.5780  212.6410  151.1920 F   0  0  0  0  0  0  0  0  0  0  0  0
  161.9080  205.3370  149.8580 C   0  0  0  0  0  3  0  0  0  0  0  0
  161.6650  209.7430  155.6860 C   0  0  0  0  0  2  0  0  0  0  0  0
  161.3900  211.6290  157.2600 C   0  0  0  0  0  1  0  0  0  0  0  0
  161.5510  210.9530  147.3990 C   0  0  0  0  0  3  0  0  0  0  0  0
  161.6280  207.8250  149.3730 C   0  0  0  0  0  0  0  0  0  0  0  0
  160.8720  205.7000  153.5020 C   0  0  0  0  0  2  0  0  0  0  0  0
  161.9560  203.8580  151.6360 O   0  0  0  0  0  1  0  0  0  0  0  0
  161.5480  212.3360  147.5660 C   0  0  0  0  0  3  0  0  0  0  0  0
  161.2990  207.4820  151.9180 C   0  0  0  0  0  3  0  0  0  0  0  0
  161.7150  210.2630  152.3810 C   0  0  0  0  0  2  0  0  0  0  0  0
  159.6200  207.8190  155.9700 C   0  0  0  0  0  1  0  0  0  0  0  0
  160.5760  209.8720  153.3180 C   0  0  2  0  0  3  0  0  0  0  0  0
  160.7460  210.8840  156.1080 C   0  0  1  0  0  3  0  0  0  0  0  0
  159.7360  212.9020  155.3260 F   0  0  0  0  0  0  0  0  0  0  0  0
  161.7480  205.1500  151.1660 C   0  0  0  0  0  0  0  0  0  0  0  0
  161.3460  206.1760  152.1450 C   0  0  0  0  0  0  0  0  0  0  0  0
  160.5120  211.8280  154.9300 C   0  0  2  0  0  3  0  0  0  0  0  0
  1  4  2  0  0  0  0
  1 22  1  0  0  0  0
  2 18  2  0  0  0  0
  2 14  1  0  0  0  0
  3 11  1  0  0  0  0
  4 23  1  0  0  0  0
  5  8  1  0  0  0  0
  5  4  1  0  0  0  0
  6  8  2  0  0  0  0
  7 30  1  0  0  0  0
  8 13  1  0  0  0  0
  9  5  2  0  0  0  0
 10 11  1  0  0  0  0
 10 15  1  1  0  0  0
 11 24  1  0  0  0  0
 12  9  1  0  0  0  0
 12 18  1  0  0  0  0
 14 28  2  0  0  0  0
 15 26  1  0  0  0  0
 17 21  2  0  0  0  0
 17  9  1  0  0  0  0
 18  1  1  0  0  0  0
 19  3  1  0  0  0  0
 21  6  1  0  0  0  0
 22 29  2  0  0  0  0
 25 23  1  1  0  0  0
 25  7  1  0  0  0  0
 25 10  1  0  0  0  0
 26 16  1  1  0  0  0
 28 20  1  0  0  0  0
 28 29  1  0  0  0  0
 29 19  1  0  0  0  0
 30 27  1  1  0  0  0
 30 26  1  0  0  0  0
M  END
>  <MODEL>
4

>  <REMARK>
 VINA RESULT:      -5.1      2.671      5.540
  Name = 
  0 active torsions:
  status: ('A' for Active; 'I' for Inactive)
                            x       y       z     vdW  Elec       q    Type
                         _______ _______ _______ _____ _____    ______ ____

>  <TORSDO>
F 0

$$$$
=
 OpenBabel11052422003D

 30 34  0  0  1  0  0  0  0  0999 V2000
  161.5380  208.2960  151.3470 C   0  0  0  0  0  0  0  0  0  0  0  0
  161.8330  210.7780  151.4940 C   0  0  0  0  0  3  0  0  0  0  0  0
  161.9830  206.9630  147.3020 C   0  0  0  0  0  2  0  0  0  0  0  0
  161.3590  207.1500  152.0660 C   0  0  0  0  0  0  0  0  0  0  0  0
  161.0550  207.2190  153.5300 C   0  0  0  0  0  0  0  0  0  0  0  0
  160.5190  206.2030  155.6860 C   0  0  0  0  0  3  0  0  0  0  0  0
  159.7300  204.2950  150.5110 C   0  0  0  0  0  2  0  0  0  0  0  0
  160.8250  206.0690  154.3280 C   0  0  0  0  0  0  0  0  0  0  0  0
  160.9590  208.4850  154.1390 C   0  0  0  0  0  0  0  0  0  0  0  0
  161.4760  205.3640  148.9700 C   0  0  2  0  0  3  0  0  0  0  0  0
  160.9120  206.1380  147.8520 N   0  0  0  0  0  0  0  0  0  0  0  0
  161.1790  209.6420  153.3960 O   0  0  0  0  0  0  0  0  0  0  0  0
  160.8780  204.8150  153.8160 F   0  0  0  0  0  0  0  0  0  0  0  0
  162.2760  211.1190  150.1360 C   0  0  0  0  0  3  0  0  0  0  0  0
  162.0360  203.9610  148.6650 C   0  0  0  0  0  2  0  0  0  0  0  0
  161.6480  201.5200  148.6740 C   0  0  0  0  0  1  0  0  0  0  0  0
  160.6520  208.6040  155.4970 C   0  0  0  0  0  3  0  0  0  0  0  0
  161.5150  209.6060  152.0420 C   0  0  0  0  0  0  0  0  0  0  0  0
  161.6710  208.4580  147.4830 C   0  0  0  0  0  2  0  0  0  0  0  0
  162.8050  211.0270  147.8860 O   0  0  0  0  0  1  0  0  0  0  0  0
  160.4340  207.4650  156.2700 C   0  0  0  0  0  3  0  0  0  0  0  0
  161.5810  208.1740  149.8860 C   0  0  0  0  0  3  0  0  0  0  0  0
  161.5710  205.7820  151.4340 C   0  0  0  0  0  2  0  0  0  0  0  0
  160.4040  205.2870  146.7830 C   0  0  0  0  0  1  0  0  0  0  0  0
  160.6450  205.4940  150.2560 C   0  0  2  0  0  3  0  0  0  0  0  0
  160.9980  202.8710  148.9020 C   0  0  1  0  0  3  0  0  0  0  0  0
  159.5660  201.9360  150.5690 F   0  0  0  0  0  0  0  0  0  0  0  0
  162.3210  210.3900  149.0220 C   0  0  0  0  0  0  0  0  0  0  0  0
  161.8790  208.9910  148.8840 C   0  0  0  0  0  0  0  0  0  0  0  0
  160.4560  202.9670  150.3260 C   0  0  2  0  0  3  0  0  0  0  0  0
  1 18  1  0  0  0  0
  1  4  2  0  0  0  0
  2 18  2  0  0  0  0
  3 19  1  0  0  0  0
  3 11  1  0  0  0  0
  4  5  1  0  0  0  0
  5  9  2  0  0  0  0
  5  8  1  0  0  0  0
  6 21  1  0  0  0  0
  8  6  2  0  0  0  0
  9 17  1  0  0  0  0
 10 15  1  6  0  0  0
 10 25  1  0  0  0  0
 11 10  1  0  0  0  0
 12  9  1  0  0  0  0
 13  8  1  0  0  0  0
 14  2  1  0  0  0  0
 15 26  1  0  0  0  0
 17 21  2  0  0  0  0
 18 12  1  0  0  0  0
 19 29  1  0  0  0  0
 20 28  1  0  0  0  0
 22  1  1  0  0  0  0
 23  4  1  0  0  0  0
 24 11  1  0  0  0  0
 25  7  1  1  0  0  0
 25 23  1  0  0  0  0
 26 16  1  1  0  0  0
 26 30  1  0  0  0  0
 28 14  2  0  0  0  0
 29 28  1  0  0  0  0
 29 22  2  0  0  0  0
 30  7  1  0  0  0  0
 30 27  1  6  0  0  0
M  END
>  <MODEL>
5

>  <REMARK>
 VINA RESULT:      -5.1      2.110      5.792
  Name = 
  0 active torsions:
  status: ('A' for Active; 'I' for Inactive)
                            x       y       z     vdW  Elec       q    Type
                         _______ _______ _______ _____ _____    ______ ____

>  <TORSDO>
F 0

$$$$
=
 OpenBabel11052422003D

 30 34  0  0  1  0  0  0  0  0999 V2000
  161.2190  208.2000  151.8000 C   0  0  0  0  0  0  0  0  0  0  0  0
  161.1290  209.5660  153.8960 C   0  0  0  0  0  3  0  0  0  0  0  0
  160.7740  204.0360  152.6970 C   0  0  0  0  0  2  0  0  0  0  0  0
  161.2810  208.2510  150.4380 C   0  0  0  0  0  0  0  0  0  0  0  0
  161.5500  209.5500  149.7440 C   0  0  0  0  0  0  0  0  0  0  0  0
  161.9380  210.9050  147.7490 C   0  0  0  0  0  3  0  0  0  0  0  0
  162.7060  205.4530  148.6030 C   0  0  0  0  0  2  0  0  0  0  0  0
  161.6600  209.6660  148.3350 C   0  0  0  0  0  0  0  0  0  0  0  0
  161.7340  210.7060  150.5260 C   0  0  0  0  0  0  0  0  0  0  0  0
  161.1000  204.6790  150.4430 C   0  0  2  0  0  3  0  0  0  0  0  0
  161.7580  204.0850  151.6180 N   0  0  0  0  0  0  0  0  0  0  0  0
  161.6330  210.6400  151.9140 O   0  0  0  0  0  0  0  0  0  0  0  0
  161.5160  208.6000  147.5110 F   0  0  0  0  0  0  0  0  0  0  0  0
  160.7540  208.5660  154.9040 C   0  0  0  0  0  3  0  0  0  0  0  0
  160.4320  203.7280  149.4320 C   0  0  0  0  0  2  0  0  0  0  0  0
  160.6130  202.5150  147.2860 C   0  0  0  0  0  1  0  0  0  0  0  0
  162.0130  211.9380  149.9280 C   0  0  0  0  0  3  0  0  0  0  0  0
  161.3320  209.4540  152.5840 C   0  0  0  0  0  0  0  0  0  0  0  0
  161.2060  204.9310  153.8700 C   0  0  0  0  0  2  0  0  0  0  0  0
  160.2810  206.5780  155.9880 O   0  0  0  0  0  1  0  0  0  0  0  0
  162.1130  212.0380  148.5420 C   0  0  0  0  0  3  0  0  0  0  0  0
  161.2060  206.8730  152.4240 C   0  0  0  0  0  3  0  0  0  0  0  0
  160.9730  207.0270  149.5880 C   0  0  0  0  0  2  0  0  0  0  0  0
  162.2210  202.7250  151.3700 C   0  0  0  0  0  1  0  0  0  0  0  0
  161.9030  205.8450  149.8440 C   0  0  2  0  0  3  0  0  0  0  0  0
  161.3680  203.3720  148.2820 C   0  0  1  0  0  3  0  0  0  0  0  0
  162.6710  204.3280  146.5230 F   0  0  0  0  0  0  0  0  0  0  0  0
  160.6790  207.2390  154.8310 C   0  0  0  0  0  0  0  0  0  0  0  0
  161.0060  206.4150  153.6530 C   0  0  0  0  0  0  0  0  0  0  0  0
  161.8770  204.6460  147.6110 C   0  0  2  0  0  3  0  0  0  0  0  0
  1 22  1  0  0  0  0
  1 18  1  0  0  0  0
  2 14  1  0  0  0  0
  3 19  1  0  0  0  0
  4  1  2  0  0  0  0
  5  4  1  0  0  0  0
  5  9  1  0  0  0  0
  6  8  1  0  0  0  0
  6 21  2  0  0  0  0
  8  5  2  0  0  0  0
  9 12  1  0  0  0  0
 10 15  1  6  0  0  0
 10 11  1  0  0  0  0
 11  3  1  0  0  0  0
 12 18  1  0  0  0  0
 13  8  1  0  0  0  0
 17  9  2  0  0  0  0
 18  2  2  0  0  0  0
 21 17  1  0  0  0  0
 22 29  2  0  0  0  0
 23 25  1  0  0  0  0
 23  4  1  0  0  0  0
 24 11  1  0  0  0  0
 25  7  1  6  0  0  0
 25 10  1  0  0  0  0
 26 16  1  6  0  0  0
 26 15  1  0  0  0  0
 28 14  2  0  0  0  0
 28 20  1  0  0  0  0
 29 19  1  0  0  0  0
 29 28  1  0  0  0  0
 30 27  1  6  0  0  0
 30 26  1  0  0  0  0
 30  7  1  0  0  0  0
M  END
>  <MODEL>
6

>  <REMARK>
 VINA RESULT:      -5.1      3.047      7.195
  Name = 
  0 active torsions:
  status: ('A' for Active; 'I' for Inactive)
                            x       y       z     vdW  Elec       q    Type
                         _______ _______ _______ _____ _____    ______ ____

>  <TORSDO>
F 0

$$$$
=
 OpenBabel11052422003D

 30 34  0  0  1  0  0  0  0  0999 V2000
  161.4990  206.5720  150.7870 C   0  0  0  0  0  0  0  0  0  0  0  0
  161.0730  204.7000  152.3930 C   0  0  0  0  0  3  0  0  0  0  0  0
  161.5920  210.3280  152.8410 C   0  0  0  0  0  2  0  0  0  0  0  0
  161.7970  206.8840  149.4920 C   0  0  0  0  0  0  0  0  0  0  0  0
  161.7500  205.8270  148.4330 C   0  0  0  0  0  0  0  0  0  0  0  0
  161.9290  205.0630  146.1200 C   0  0  0  0  0  3  0  0  0  0  0  0
  160.8310  210.1290  148.1640 C   0  0  0  0  0  2  0  0  0  0  0  0
  162.0140  206.0910  147.0640 C   0  0  0  0  0  0  0  0  0  0  0  0
  161.3960  204.5160  148.8050 C   0  0  0  0  0  0  0  0  0  0  0  0
  161.8820  210.3160  150.4930 C   0  0  2  0  0  3  0  0  0  0  0  0
  160.9260  210.6110  151.5730 N   0  0  0  0  0  0  0  0  0  0  0  0
  161.1300  204.2100  150.1370 O   0  0  0  0  0  0  0  0  0  0  0  0
  162.3420  207.3280  146.6200 F   0  0  0  0  0  0  0  0  0  0  0  0
  161.1470  205.3820  153.6920 C   0  0  0  0  0  3  0  0  0  0  0  0
  162.7670  211.4680  149.9790 C   0  0  0  0  0  2  0  0  0  0  0  0
  163.1230  213.2090  148.2610 C   0  0  0  0  0  1  0  0  0  0  0  0
  161.3130  203.4990  147.8500 C   0  0  0  0  0  3  0  0  0  0  0  0
  161.2160  205.1630  151.1520 C   0  0  0  0  0  0  0  0  0  0  0  0
  160.8910  209.1780  153.5820 C   0  0  0  0  0  2  0  0  0  0  0  0
  161.2720  206.9910  155.3490 O   0  0  0  0  0  1  0  0  0  0  0  0
  161.5810  203.7720  146.5090 C   0  0  0  0  0  3  0  0  0  0  0  0
  161.3160  207.6860  151.7220 C   0  0  0  0  0  3  0  0  0  0  0  0
  162.2860  208.2730  149.1080 C   0  0  0  0  0  2  0  0  0  0  0  0
  160.5100  212.0080  151.5840 C   0  0  0  0  0  1  0  0  0  0  0  0
  161.2920  209.3880  149.4200 C   0  0  2  0  0  3  0  0  0  0  0  0
  162.1550  212.1570  148.7640 C   0  0  1  0  0  3  0  0  0  0  0  0
  161.3810  211.7580  146.5400 F   0  0  0  0  0  0  0  0  0  0  0  0
  161.2060  206.6770  153.9970 C   0  0  0  0  0  0  0  0  0  0  0  0
  161.1780  207.7950  153.0370 C   0  0  0  0  0  0  0  0  0  0  0  0
  161.8710  211.1290  147.6710 C   0  0  2  0  0  3  0  0  0  0  0  0
  1 18  1  0  0  0  0
  1 22  1  0  0  0  0
  2 14  1  0  0  0  0
  3 19  1  0  0  0  0
  4  1  2  0  0  0  0
  5  9  1  0  0  0  0
  5  4  1  0  0  0  0
  6 21  2  0  0  0  0
  6  8  1  0  0  0  0
  8  5  2  0  0  0  0
  9 12  1  0  0  0  0
 10 15  1  6  0  0  0
 10 11  1  0  0  0  0
 11 24  1  0  0  0  0
 11  3  1  0  0  0  0
 12 18  1  0  0  0  0
 13  8  1  0  0  0  0
 14 28  2  0  0  0  0
 17  9  2  0  0  0  0
 18  2  2  0  0  0  0
 21 17  1  0  0  0  0
 22 29  2  0  0  0  0
 23 25  1  0  0  0  0
 23  4  1  0  0  0  0
 25  7  1  6  0  0  0
 25 10  1  0  0  0  0
 26 16  1  6  0  0  0
 26 15  1  0  0  0  0
 28 20  1  0  0  0  0
 29 19  1  0  0  0  0
 29 28  1  0  0  0  0
 30 27  1  6  0  0  0
 30  7  1  0  0  0  0
 30 26  1  0  0  0  0
M  END
>  <MODEL>
7

>  <REMARK>
 VINA RESULT:      -4.9      3.154      5.659
  Name = 
  0 active torsions:
  status: ('A' for Active; 'I' for Inactive)
                            x       y       z     vdW  Elec       q    Type
                         _______ _______ _______ _____ _____    ______ ____

>  <TORSDO>
F 0

$$$$
=
 OpenBabel11052422003D

 30 34  0  0  1  0  0  0  0  0999 V2000
  161.2930  206.1190  150.5160 C   0  0  0  0  0  0  0  0  0  0  0  0
  161.4120  206.0650  153.0160 C   0  0  0  0  0  3  0  0  0  0  0  0
  160.5640  202.1970  148.9580 C   0  0  0  0  0  2  0  0  0  0  0  0
  161.2930  206.9280  149.4170 C   0  0  0  0  0  0  0  0  0  0  0  0
  161.6310  208.3810  149.5510 C   0  0  0  0  0  0  0  0  0  0  0  0
  162.0290  210.6100  148.6360 C   0  0  0  0  0  3  0  0  0  0  0  0
  162.4040  205.6030  146.2180 C   0  0  0  0  0  2  0  0  0  0  0  0
  161.6820  209.2680  148.4470 C   0  0  0  0  0  0  0  0  0  0  0  0
  161.9430  208.8840  150.8290 C   0  0  0  0  0  0  0  0  0  0  0  0
  160.8310  203.9880  147.4350 C   0  0  2  0  0  3  0  0  0  0  0  0
  161.4950  202.8090  148.0140 N   0  0  0  0  0  0  0  0  0  0  0  0
  161.9040  208.0500  151.9430 O   0  0  0  0  0  0  0  0  0  0  0  0
  161.4150  208.8600  147.1820 F   0  0  0  0  0  0  0  0  0  0  0  0
  161.0070  204.6850  153.3170 C   0  0  0  0  0  3  0  0  0  0  0  0
  160.0420  203.8000  146.1250 C   0  0  0  0  0  2  0  0  0  0  0  0
  160.0240  204.0070  143.6610 C   0  0  0  0  0  1  0  0  0  0  0  0
  162.2900  210.2270  151.0030 C   0  0  0  0  0  3  0  0  0  0  0  0
  161.5420  206.7060  151.8560 C   0  0  0  0  0  0  0  0  0  0  0  0
  161.1210  202.2550  150.3900 C   0  0  0  0  0  2  0  0  0  0  0  0
  160.4310  202.4530  153.1360 O   0  0  0  0  0  1  0  0  0  0  0  0
  162.3310  211.0890  149.9090 C   0  0  0  0  0  3  0  0  0  0  0  0
  161.2050  204.6730  150.2880 C   0  0  0  0  0  3  0  0  0  0  0  0
  160.8490  206.4110  148.0570 C   0  0  0  0  0  2  0  0  0  0  0  0
  161.8370  201.8100  147.0090 C   0  0  0  0  0  1  0  0  0  0  0  0
  161.6940  205.2560  147.5270 C   0  0  2  0  0  3  0  0  0  0  0  0
  160.8920  204.1210  144.8990 C   0  0  1  0  0  3  0  0  0  0  0  0
  162.1800  205.8530  143.8770 F   0  0  0  0  0  0  0  0  0  0  0  0
  160.8240  203.6350  152.5200 C   0  0  0  0  0  0  0  0  0  0  0  0
  161.0280  203.6090  151.0600 C   0  0  0  0  0  0  0  0  0  0  0  0
  161.4660  205.5310  145.0180 C   0  0  2  0  0  3  0  0  0  0  0  0
  1 18  1  0  0  0  0
  2 14  1  0  0  0  0
  3 19  1  0  0  0  0
  4  5  1  0  0  0  0
  4  1  2  0  0  0  0
  5  9  1  0  0  0  0
  6 21  2  0  0  0  0
  8  6  1  0  0  0  0
  8  5  2  0  0  0  0
  9 17  2  0  0  0  0
  9 12  1  0  0  0  0
 10 15  1  6  0  0  0
 10 25  1  0  0  0  0
 10 11  1  0  0  0  0
 11  3  1  0  0  0  0
 13  8  1  0  0  0  0
 18 12  1  0  0  0  0
 18  2  2  0  0  0  0
 19 29  1  0  0  0  0
 21 17  1  0  0  0  0
 22  1  1  0  0  0  0
 22 29  2  0  0  0  0
 23  4  1  0  0  0  0
 24 11  1  0  0  0  0
 25  7  1  6  0  0  0
 25 23  1  0  0  0  0
 26 16  1  6  0  0  0
 26 30  1  0  0  0  0
 26 15  1  0  0  0  0
 28 20  1  0  0  0  0
 28 14  2  0  0  0  0
 29 28  1  0  0  0  0
 30 27  1  6  0  0  0
 30  7  1  0  0  0  0
M  END
>  <MODEL>
8

>  <REMARK>
 VINA RESULT:      -4.7      3.657      8.182
  Name = 
  0 active torsions:
  status: ('A' for Active; 'I' for Inactive)
                            x       y       z     vdW  Elec       q    Type
                         _______ _______ _______ _____ _____    ______ ____

>  <TORSDO>
F 0

$$$$
=
 OpenBabel11052422003D

 30 34  0  0  1  0  0  0  0  0999 V2000
  160.4490  212.1240  151.7410 C   0  0  0  0  0  0  0  0  0  0  0  0
  159.9180  214.4280  150.9200 C   0  0  0  0  0  3  0  0  0  0  0  0
  162.3580  209.8320  148.6690 C   0  0  0  0  0  2  0  0  0  0  0  0
  160.4420  211.2990  152.8290 C   0  0  0  0  0  0  0  0  0  0  0  0
  159.7470  211.7160  154.0870 C   0  0  0  0  0  0  0  0  0  0  0  0
  158.9860  211.3330  156.3760 C   0  0  0  0  0  3  0  0  0  0  0  0
  160.2510  207.7000  152.3450 C   0  0  0  0  0  2  0  0  0  0  0  0
  159.6730  210.8940  155.2400 C   0  0  0  0  0  0  0  0  0  0  0  0
  159.1070  212.9710  154.1190 C   0  0  0  0  0  0  0  0  0  0  0  0
  161.9330  208.7960  150.7550 C   0  0  2  0  0  3  0  0  0  0  0  0
  161.4830  208.8840  149.3560 N   0  0  0  0  0  0  0  0  0  0  0  0
  159.1540  213.8130  153.0110 O   0  0  0  0  0  0  0  0  0  0  0  0
  160.2440  209.6660  155.2860 F   0  0  0  0  0  0  0  0  0  0  0  0
  160.5860  214.4530  149.6110 C   0  0  0  0  0  3  0  0  0  0  0  0
  162.9570  207.7030  151.1150 C   0  0  0  0  0  2  0  0  0  0  0  0
  163.3480  205.4480  152.0510 C   0  0  0  0  0  1  0  0  0  0  0  0
  158.4220  213.3960  155.2600 C   0  0  0  0  0  3  0  0  0  0  0  0
  159.8380  213.4720  151.8440 C   0  0  0  0  0  0  0  0  0  0  0  0
  161.5660  211.0600  148.1930 C   0  0  0  0  0  2  0  0  0  0  0  0
  161.7050  213.8480  147.6800 O   0  0  0  0  0  1  0  0  0  0  0  0
  158.3630  212.5790  156.3880 C   0  0  0  0  0  3  0  0  0  0  0  0
  160.9200  211.5610  150.4720 C   0  0  0  0  0  3  0  0  0  0  0  0
  161.2250  209.9940  152.8330 C   0  0  0  0  0  2  0  0  0  0  0  0
  161.5700  207.6060  148.6590 C   0  0  0  0  0  1  0  0  0  0  0  0
  160.7870  209.0050  151.7570 C   0  0  2  0  0  3  0  0  0  0  0  0
  162.2790  206.4370  151.6280 C   0  0  1  0  0  3  0  0  0  0  0  0
  160.8070  205.6190  153.3220 F   0  0  0  0  0  0  0  0  0  0  0  0
  161.1510  213.4790  148.9010 C   0  0  0  0  0  0  0  0  0  0  0  0
  161.2130  212.0560  149.2770 C   0  0  0  0  0  0  0  0  0  0  0  0
  161.3700  206.7730  152.8080 C   0  0  2  0  0  3  0  0  0  0  0  0
  1 18  1  0  0  0  0
  1  4  2  0  0  0  0
  2 18  2  0  0  0  0
  3 11  1  0  0  0  0
  4 23  1  0  0  0  0
  4  5  1  0  0  0  0
  5  9  2  0  0  0  0
  5  8  1  0  0  0  0
  6 21  1  0  0  0  0
  7 30  1  0  0  0  0
  8 13  1  0  0  0  0
  8  6  2  0  0  0  0
  9 17  1  0  0  0  0
 10 15  1  6  0  0  0
 10 25  1  0  0  0  0
 11 10  1  0  0  0  0
 12  9  1  0  0  0  0
 14  2  1  0  0  0  0
 15 26  1  0  0  0  0
 17 21  2  0  0  0  0
 18 12  1  0  0  0  0
 19  3  1  0  0  0  0
 19 29  1  0  0  0  0
 20 28  1  0  0  0  0
 22  1  1  0  0  0  0
 24 11  1  0  0  0  0
 25  7  1  1  0  0  0
 25 23  1  0  0  0  0
 26 16  1  1  0  0  0
 26 30  1  0  0  0  0
 28 29  1  0  0  0  0
 28 14  2  0  0  0  0
 29 22  2  0  0  0  0
 30 27  1  6  0  0  0
M  END
>  <MODEL>
9

>  <REMARK>
 VINA RESULT:      -4.2      2.937      6.568
  Name = 
  0 active torsions:
  status: ('A' for Active; 'I' for Inactive)
                            x       y       z     vdW  Elec       q    Type
                         _______ _______ _______ _____ _____    ______ ____

>  <TORSDO>
F 0

$$$$
