=
 OpenBabel11062410153D

 43 48  0  0  1  0  0  0  0  0999 V2000
  161.0780  208.8490  151.8490 C   0  0  2  0  0  3  0  0  0  0  0  0
  161.0180  202.5530  150.2030 C   0  0  0  0  0  0  0  0  0  0  0  0
  161.1350  207.3510  151.7180 C   0  0  0  0  0  0  0  0  0  0  0  0
  161.1400  204.5760  151.5250 C   0  0  0  0  0  0  0  0  0  0  0  0
  160.9010  203.3190  149.0380 C   0  0  0  0  0  3  0  0  0  0  0  0
  161.0230  201.1320  150.1210 N   0  0  0  0  0  1  0  0  0  0  0  0
  161.0150  205.3550  150.3550 C   0  0  0  0  0  0  0  0  0  0  0  0
  161.1390  203.1800  151.4450 C   0  0  0  0  0  3  0  0  0  0  0  0
  160.9010  204.7150  149.1130 C   0  0  0  0  0  3  0  0  0  0  0  0
  160.8620  207.5400  149.3130 O   0  0  0  0  0  1  0  0  0  0  0  0
  161.0070  206.7520  150.4530 C   0  0  0  0  0  0  0  0  0  0  0  0
  161.2490  206.5700  152.8270 N   0  0  0  0  0  0  0  0  0  0  0  0
  161.2600  205.2130  152.7590 C   0  0  0  0  0  3  0  0  0  0  0  0
  162.2850  209.6080  151.2730 C   0  0  0  0  0  2  0  0  0  0  0  0
  160.9020  212.7140  149.5810 C   0  0  0  0  0  3  0  0  0  0  0  0
  161.2870  212.5000  148.2460 C   0  0  0  0  0  0  0  0  0  0  0  0
  162.3320  210.4100  148.9020 C   0  0  0  0  0  3  0  0  0  0  0  0
  161.2300  211.7800  150.5670 C   0  0  0  0  0  3  0  0  0  0  0  0
  161.9400  210.6230  150.2280 C   0  0  0  0  0  0  0  0  0  0  0  0
  162.0060  211.3460  147.9160 C   0  0  0  0  0  3  0  0  0  0  0  0
  160.9730  213.4120  147.2350 O   0  0  0  0  0  0  0  0  0  0  0  0
  161.4580  213.2830  145.9030 C   0  0  0  0  0  1  0  0  0  0  0  0
  160.5540  209.3420  153.2020 C   0  0  0  0  0  2  0  0  0  0  0  0
  160.5000  210.8600  153.2850 C   0  0  0  0  0  2  0  0  0  0  0  0
  162.0020  210.3060  154.8670 O   0  0  0  0  0  1  0  0  0  0  0  0
  161.1690  211.3080  154.4960 N   0  0  0  0  0  0  0  0  0  0  0  0
  159.3120  212.6900  155.3020 C   0  0  2  0  0  3  0  0  0  0  0  0
  160.7630  212.1000  156.7710 C   0  0  0  0  0  2  0  0  0  0  0  0
  160.1570  211.4410  155.5420 C   0  0  2  0  0  3  0  0  0  0  0  0
  159.9290  213.3410  156.5260 C   0  0  0  0  0  2  0  0  0  0  0  0
  157.8230  212.4140  155.5460 C   0  0  2  0  0  3  0  0  0  0  0  0
  155.6370  212.7190  154.5200 C   0  0  0  0  0  2  0  0  0  0  0  0
  157.3810  211.0990  154.9450 C   0  0  0  0  0  2  0  0  0  0  0  0
  156.8970  213.4670  154.9400 C   0  0  1  0  0  0  0  0  0  0  0  0
  156.5870  214.4230  155.9080 O   0  0  0  0  0  1  0  0  0  0  0  0
  155.8850  211.2430  154.7770 C   0  0  0  0  0  2  0  0  0  0  0  0
  157.5080  214.0910  153.8040 O   0  0  0  0  0  0  0  0  0  0  0  0
  157.0390  214.0050  152.4860 C   0  0  0  0  0  0  0  0  0  0  0  0
  155.3260  214.3500  150.7940 C   0  0  0  0  0  3  0  0  0  0  0  0
  157.4460  213.3540  150.1830 C   0  0  0  0  0  3  0  0  0  0  0  0
  156.1710  213.8010  149.8260 C   0  0  0  0  0  3  0  0  0  0  0  0
  157.8780  213.4580  151.5100 C   0  0  0  0  0  3  0  0  0  0  0  0
  155.7580  214.4530  152.1200 C   0  0  0  0  0  3  0  0  0  0  0  0
  1 14  1  1  0  0  0
  1 23  1  0  0  0  0
  2  8  1  0  0  0  0
  3  1  1  0  0  0  0
  3 12  1  0  0  0  0
  4 13  1  0  0  0  0
  5  9  1  0  0  0  0
  5  2  2  0  0  0  0
  6  2  1  0  0  0  0
  7 11  1  0  0  0  0
  7  4  1  0  0  0  0
  8  4  2  0  0  0  0
  9  7  2  0  0  0  0
 10 11  1  0  0  0  0
 11  3  2  0  0  0  0
 13 12  2  0  0  0  0
 15 18  1  0  0  0  0
 16 15  2  0  0  0  0
 17 19  1  0  0  0  0
 19 18  2  0  0  0  0
 19 14  1  0  0  0  0
 20 16  1  0  0  0  0
 20 17  2  0  0  0  0
 21 16  1  0  0  0  0
 22 21  1  0  0  0  0
 23 24  1  0  0  0  0
 24 26  1  0  0  0  0
 26 25  1  0  0  0  0
 27 29  1  0  0  0  0
 27 31  1  0  0  0  0
 27 30  1  1  0  0  0
 29 26  1  6  0  0  0
 29 28  1  0  0  0  0
 30 28  1  0  0  0  0
 31 33  1  6  0  0  0
 32 36  1  0  0  0  0
 32 34  1  0  0  0  0
 34 31  1  0  0  0  0
 34 35  1  1  0  0  0
 36 33  1  0  0  0  0
 37 34  1  0  0  0  0
 38 37  1  0  0  0  0
 39 43  2  0  0  0  0
 40 42  1  0  0  0  0
 41 40  2  0  0  0  0
 41 39  1  0  0  0  0
 42 38  2  0  0  0  0
 43 38  1  0  0  0  0
M  END
>  <MODEL>
1

>  <REMARK>
 VINA RESULT:      -8.1      0.000      0.000
  Name = 
  11 active torsions:
  status: ('A' for Active; 'I' for Inactive)
    1  A    between atoms: C_1  and  C_34
    2  A    between atoms: C_1  and  C_35
    3  A    between atoms: C_3  and  C_4
    4  A    between atoms: N_6  and  C_12
    5  A    between atoms: N_6  and  C_13
    6  A    between atoms: C_8  and  C_34
    7  A    between atoms: C_11  and  O_14
    8  A    between atoms: C_13  and  C_38
    9  A    between atoms: O_14  and  C_22
   10  A    between atoms: C_19  and  O_25
   11  A    between atoms: C_34  and  C_38
                            x       y       z     vdW  Elec       q    Type
                         _______ _______ _______ _____ _____    ______ ____

>  <TORSDO>
F 11

$$$$
=
 OpenBabel11062410153D

 43 48  0  0  1  0  0  0  0  0999 V2000
  161.2070  206.6400  151.7880 C   0  0  2  0  0  3  0  0  0  0  0  0
  161.1560  201.1920  148.2290 C   0  0  0  0  0  0  0  0  0  0  0  0
  161.2640  205.2610  151.1900 C   0  0  0  0  0  0  0  0  0  0  0  0
  161.2650  202.6900  150.1260 C   0  0  0  0  0  0  0  0  0  0  0  0
  161.0560  202.2880  147.3660 C   0  0  0  0  0  3  0  0  0  0  0  0
  161.1600  199.8700  147.7000 N   0  0  0  0  0  1  0  0  0  0  0  0
  161.1570  203.8000  149.2620 C   0  0  0  0  0  0  0  0  0  0  0  0
  161.2630  201.3920  149.6070 C   0  0  0  0  0  3  0  0  0  0  0  0
  161.0570  203.5890  147.8800 C   0  0  0  0  0  3  0  0  0  0  0  0
  161.0220  206.2040  148.9650 O   0  0  0  0  0  1  0  0  0  0  0  0
  161.1500  205.0940  149.7980 C   0  0  0  0  0  0  0  0  0  0  0  0
  161.3620  204.1670  151.9940 N   0  0  0  0  0  0  0  0  0  0  0  0
  161.3710  202.9020  151.4990 C   0  0  0  0  0  3  0  0  0  0  0  0
  162.4680  207.4960  151.5900 C   0  0  0  0  0  2  0  0  0  0  0  0
  162.0010  211.0660  150.3790 C   0  0  0  0  0  3  0  0  0  0  0  0
  161.9100  210.8790  148.9890 C   0  0  0  0  0  0  0  0  0  0  0  0
  162.2000  208.4910  149.3090 C   0  0  0  0  0  3  0  0  0  0  0  0
  162.1880  209.9700  151.2260 C   0  0  0  0  0  3  0  0  0  0  0  0
  162.2820  208.6790  150.6920 C   0  0  0  0  0  0  0  0  0  0  0  0
  162.0140  209.5880  148.4610 C   0  0  0  0  0  3  0  0  0  0  0  0
  161.7190  211.9530  148.1150 O   0  0  0  0  0  0  0  0  0  0  0  0
  162.7730  212.8290  147.7290 C   0  0  0  0  0  1  0  0  0  0  0  0
  160.5650  206.6960  153.1790 C   0  0  0  0  0  2  0  0  0  0  0  0
  160.4870  208.1130  153.7250 C   0  0  0  0  0  2  0  0  0  0  0  0
  159.8000  207.3370  155.7230 O   0  0  0  0  0  1  0  0  0  0  0  0
  160.7620  208.1020  155.1540 N   0  0  0  0  0  0  0  0  0  0  0  0
  159.9760  210.3480  154.5680 C   0  0  2  0  0  3  0  0  0  0  0  0
  161.8910  210.2350  155.5320 C   0  0  0  0  0  2  0  0  0  0  0  0
  160.5860  209.4640  155.6520 C   0  0  2  0  0  3  0  0  0  0  0  0
  161.2850  211.1050  154.4490 C   0  0  0  0  0  2  0  0  0  0  0  0
  158.8860  211.2640  155.1390 C   0  0  2  0  0  3  0  0  0  0  0  0
  156.9290  212.5460  154.4650 C   0  0  0  0  0  2  0  0  0  0  0  0
  157.6450  210.4970  155.5320 C   0  0  0  0  0  2  0  0  0  0  0  0
  158.4080  212.3330  154.1580 C   0  0  1  0  0  0  0  0  0  0  0  0
  159.1170  213.5140  154.3770 O   0  0  0  0  0  1  0  0  0  0  0  0
  156.5420  211.5320  155.5270 C   0  0  0  0  0  2  0  0  0  0  0  0
  158.5770  211.8960  152.8030 O   0  0  0  0  0  0  0  0  0  0  0  0
  158.6820  212.7400  151.6900 C   0  0  0  0  0  0  0  0  0  0  0  0
  157.7340  213.8480  149.7430 C   0  0  0  0  0  3  0  0  0  0  0  0
  160.0590  214.1970  150.3210 C   0  0  0  0  0  3  0  0  0  0  0  0
  158.9690  214.4480  149.4820 C   0  0  0  0  0  3  0  0  0  0  0  0
  159.9140  213.3470  151.4220 C   0  0  0  0  0  3  0  0  0  0  0  0
  157.5900  212.9980  150.8430 C   0  0  0  0  0  3  0  0  0  0  0  0
  1 14  1  1  0  0  0
  1 23  1  0  0  0  0
  2  8  1  0  0  0  0
  3  1  1  0  0  0  0
  3 12  1  0  0  0  0
  4 13  1  0  0  0  0
  5  9  1  0  0  0  0
  5  2  2  0  0  0  0
  6  2  1  0  0  0  0
  7 11  1  0  0  0  0
  7  4  1  0  0  0  0
  8  4  2  0  0  0  0
  9  7  2  0  0  0  0
 10 11  1  0  0  0  0
 11  3  2  0  0  0  0
 13 12  2  0  0  0  0
 15 18  1  0  0  0  0
 16 15  2  0  0  0  0
 17 19  1  0  0  0  0
 19 18  2  0  0  0  0
 19 14  1  0  0  0  0
 20 16  1  0  0  0  0
 20 17  2  0  0  0  0
 21 16  1  0  0  0  0
 22 21  1  0  0  0  0
 23 24  1  0  0  0  0
 24 26  1  0  0  0  0
 26 25  1  0  0  0  0
 27 30  1  1  0  0  0
 27 31  1  0  0  0  0
 27 29  1  0  0  0  0
 28 29  1  0  0  0  0
 29 26  1  6  0  0  0
 30 28  1  0  0  0  0
 31 33  1  6  0  0  0
 32 36  1  0  0  0  0
 34 35  1  1  0  0  0
 34 32  1  0  0  0  0
 34 31  1  0  0  0  0
 36 33  1  0  0  0  0
 37 34  1  0  0  0  0
 38 37  1  0  0  0  0
 39 43  1  0  0  0  0
 40 42  2  0  0  0  0
 41 39  2  0  0  0  0
 41 40  1  0  0  0  0
 42 38  1  0  0  0  0
 43 38  2  0  0  0  0
M  END
>  <MODEL>
2

>  <REMARK>
 VINA RESULT:      -7.8      1.751      2.340
  Name = 
  11 active torsions:
  status: ('A' for Active; 'I' for Inactive)
    1  A    between atoms: C_1  and  C_34
    2  A    between atoms: C_1  and  C_35
    3  A    between atoms: C_3  and  C_4
    4  A    between atoms: N_6  and  C_12
    5  A    between atoms: N_6  and  C_13
    6  A    between atoms: C_8  and  C_34
    7  A    between atoms: C_11  and  O_14
    8  A    between atoms: C_13  and  C_38
    9  A    between atoms: O_14  and  C_22
   10  A    between atoms: C_19  and  O_25
   11  A    between atoms: C_34  and  C_38
                            x       y       z     vdW  Elec       q    Type
                         _______ _______ _______ _____ _____    ______ ____

>  <TORSDO>
F 11

$$$$
=
 OpenBabel11062410153D

 43 48  0  0  1  0  0  0  0  0999 V2000
  161.7620  208.3790  150.8750 C   0  0  2  0  0  3  0  0  0  0  0  0
  161.1030  203.0460  147.2040 C   0  0  0  0  0  0  0  0  0  0  0  0
  161.6430  207.3100  149.8230 C   0  0  0  0  0  0  0  0  0  0  0  0
  161.5340  205.3330  147.8700 C   0  0  0  0  0  0  0  0  0  0  0  0
  160.7580  202.7260  148.5200 C   0  0  0  0  0  3  0  0  0  0  0  0
  161.0520  202.0460  146.1920 N   0  0  0  0  0  1  0  0  0  0  0  0
  161.1940  205.0140  149.2020 C   0  0  0  0  0  0  0  0  0  0  0  0
  161.4890  204.3480  146.8780 C   0  0  0  0  0  3  0  0  0  0  0  0
  160.8020  203.7060  149.5170 C   0  0  0  0  0  3  0  0  0  0  0  0
  160.9450  205.7110  151.5120 O   0  0  0  0  0  1  0  0  0  0  0  0
  161.2550  206.0090  150.1860 C   0  0  0  0  0  0  0  0  0  0  0  0
  161.9680  207.5820  148.5290 N   0  0  0  0  0  0  0  0  0  0  0  0
  161.9180  206.6350  147.5560 C   0  0  0  0  0  3  0  0  0  0  0  0
  160.4820  208.6590  151.6790 C   0  0  0  0  0  2  0  0  0  0  0  0
  161.1520  208.9870  155.4030 C   0  0  0  0  0  3  0  0  0  0  0  0
  161.1250  210.3820  155.5690 C   0  0  0  0  0  0  0  0  0  0  0  0
  160.6950  210.6390  153.1950 C   0  0  0  0  0  3  0  0  0  0  0  0
  160.9490  208.4250  154.1390 C   0  0  0  0  0  3  0  0  0  0  0  0
  160.7140  209.2500  153.0340 C   0  0  0  0  0  0  0  0  0  0  0  0
  160.8990  211.2020  154.4580 C   0  0  0  0  0  3  0  0  0  0  0  0
  161.3200  210.9760  156.8190 O   0  0  0  0  0  0  0  0  0  0  0  0
  160.8660  212.2900  157.1270 C   0  0  0  0  0  1  0  0  0  0  0  0
  162.5650  209.6080  150.4340 C   0  0  0  0  0  2  0  0  0  0  0  0
  161.6710  210.7610  150.0030 C   0  0  0  0  0  2  0  0  0  0  0  0
  163.3820  211.5030  148.7430 O   0  0  0  0  0  1  0  0  0  0  0  0
  162.0610  211.2120  148.6760 N   0  0  0  0  0  0  0  0  0  0  0  0
  161.1470  212.6340  146.9020 C   0  0  2  0  0  3  0  0  0  0  0  0
  162.3380  213.6230  148.3910 C   0  0  0  0  0  2  0  0  0  0  0  0
  161.3550  212.4620  148.4040 C   0  0  2  0  0  3  0  0  0  0  0  0
  162.1360  213.7850  146.8970 C   0  0  0  0  0  2  0  0  0  0  0  0
  159.7370  213.1490  146.5860 C   0  0  2  0  0  3  0  0  0  0  0  0
  157.9250  212.8780  144.9830 C   0  0  0  0  0  2  0  0  0  0  0  0
  158.6630  212.2870  147.2090 C   0  0  0  0  0  2  0  0  0  0  0  0
  159.4150  213.1800  145.0930 C   0  0  1  0  0  0  0  0  0  0  0  0
  159.6850  214.4530  144.5880 O   0  0  0  0  0  1  0  0  0  0  0  0
  157.4270  212.5660  146.3830 C   0  0  0  0  0  2  0  0  0  0  0  0
  160.1770  212.1940  144.3860 O   0  0  0  0  0  0  0  0  0  0  0  0
  160.5270  212.2630  143.0310 C   0  0  0  0  0  0  0  0  0  0  0  0
  159.9730  212.1480  140.6650 C   0  0  0  0  0  3  0  0  0  0  0  0
  162.2450  212.6190  141.3530 C   0  0  0  0  0  3  0  0  0  0  0  0
  161.3030  212.4230  140.3390 C   0  0  0  0  0  3  0  0  0  0  0  0
  161.8570  212.5410  142.6950 C   0  0  0  0  0  3  0  0  0  0  0  0
  159.5850  212.0690  142.0060 C   0  0  0  0  0  3  0  0  0  0  0  0
  1 23  1  6  0  0  0
  1 14  1  0  0  0  0
  2  5  1  0  0  0  0
  3 11  1  0  0  0  0
  3  1  1  0  0  0  0
  4  7  1  0  0  0  0
  5  9  2  0  0  0  0
  6  2  1  0  0  0  0
  7  9  1  0  0  0  0
  7 11  2  0  0  0  0
  8  2  2  0  0  0  0
  8  4  1  0  0  0  0
 11 10  1  0  0  0  0
 12  3  2  0  0  0  0
 13  4  2  0  0  0  0
 13 12  1  0  0  0  0
 14 19  1  0  0  0  0
 15 16  1  0  0  0  0
 16 21  1  0  0  0  0
 17 20  1  0  0  0  0
 18 15  2  0  0  0  0
 19 17  2  0  0  0  0
 19 18  1  0  0  0  0
 20 16  2  0  0  0  0
 21 22  1  0  0  0  0
 24 23  1  0  0  0  0
 26 25  1  0  0  0  0
 26 24  1  0  0  0  0
 27 30  1  1  0  0  0
 27 29  1  0  0  0  0
 28 29  1  0  0  0  0
 29 26  1  6  0  0  0
 30 28  1  0  0  0  0
 31 27  1  0  0  0  0
 31 33  1  1  0  0  0
 32 34  1  0  0  0  0
 32 36  1  0  0  0  0
 34 35  1  6  0  0  0
 34 31  1  0  0  0  0
 36 33  1  0  0  0  0
 37 34  1  0  0  0  0
 38 37  1  0  0  0  0
 39 43  1  0  0  0  0
 40 42  2  0  0  0  0
 41 39  2  0  0  0  0
 41 40  1  0  0  0  0
 42 38  1  0  0  0  0
 43 38  2  0  0  0  0
M  END
>  <MODEL>
3

>  <REMARK>
 VINA RESULT:      -7.4      3.193      7.304
  Name = 
  11 active torsions:
  status: ('A' for Active; 'I' for Inactive)
    1  A    between atoms: C_1  and  C_34
    2  A    between atoms: C_1  and  C_35
    3  A    between atoms: C_3  and  C_4
    4  A    between atoms: N_6  and  C_12
    5  A    between atoms: N_6  and  C_13
    6  A    between atoms: C_8  and  C_34
    7  A    between atoms: C_11  and  O_14
    8  A    between atoms: C_13  and  C_38
    9  A    between atoms: O_14  and  C_22
   10  A    between atoms: C_19  and  O_25
   11  A    between atoms: C_34  and  C_38
                            x       y       z     vdW  Elec       q    Type
                         _______ _______ _______ _____ _____    ______ ____

>  <TORSDO>
F 11

$$$$
=
 OpenBabel11062410153D

 43 48  0  0  1  0  0  0  0  0999 V2000
  161.7710  209.4410  150.7840 C   0  0  2  0  0  3  0  0  0  0  0  0
  161.0830  202.9850  150.3450 C   0  0  0  0  0  0  0  0  0  0  0  0
  161.7370  207.9430  150.9140 C   0  0  0  0  0  0  0  0  0  0  0  0
  161.5860  205.1830  151.2240 C   0  0  0  0  0  0  0  0  0  0  0  0
  160.7330  203.5550  149.1170 C   0  0  0  0  0  3  0  0  0  0  0  0
  161.0130  201.5740  150.5190 N   0  0  0  0  0  1  0  0  0  0  0  0
  161.2270  205.7640  149.9900 C   0  0  0  0  0  0  0  0  0  0  0  0
  161.5110  203.7970  151.3970 C   0  0  0  0  0  3  0  0  0  0  0  0
  160.8050  204.9400  148.9380 C   0  0  0  0  0  3  0  0  0  0  0  0
  160.9260  207.7520  148.6330 O   0  0  0  0  0  1  0  0  0  0  0  0
  161.2970  207.1550  149.8360 C   0  0  0  0  0  0  0  0  0  0  0  0
  162.0710  207.3490  152.0930 N   0  0  0  0  0  0  0  0  0  0  0  0
  162.0120  206.0030  152.2670 C   0  0  0  0  0  3  0  0  0  0  0  0
  162.8480  209.9970  149.8380 C   0  0  0  0  0  2  0  0  0  0  0  0
  160.6670  211.8050  147.3080 C   0  0  0  0  0  3  0  0  0  0  0  0
  161.4560  212.9310  147.0140 C   0  0  0  0  0  0  0  0  0  0  0  0
  163.1360  212.1390  148.5760 C   0  0  0  0  0  3  0  0  0  0  0  0
  161.1140  210.8540  148.2290 C   0  0  0  0  0  3  0  0  0  0  0  0
  162.3520  211.0160  148.8610 C   0  0  0  0  0  0  0  0  0  0  0  0
  162.6880  213.0920  147.6560 C   0  0  0  0  0  3  0  0  0  0  0  0
  161.0410  213.8980  146.0960 O   0  0  0  0  0  0  0  0  0  0  0  0
  160.4200  213.5690  144.8570 C   0  0  0  0  0  1  0  0  0  0  0  0
  161.5820  210.1910  152.1070 C   0  0  0  0  0  2  0  0  0  0  0  0
  160.3160  209.7680  152.8390 C   0  0  0  0  0  2  0  0  0  0  0  0
  160.0800  207.9690  154.1700 O   0  0  0  0  0  1  0  0  0  0  0  0
  160.6660  209.1900  154.1260 N   0  0  0  0  0  0  0  0  0  0  0  0
  159.8500  211.4360  154.6670 C   0  0  2  0  0  3  0  0  0  0  0  0
  161.1040  210.5030  156.1390 C   0  0  0  0  0  2  0  0  0  0  0  0
  160.0460  210.0070  155.1660 C   0  0  2  0  0  3  0  0  0  0  0  0
  160.9140  211.9190  155.6350 C   0  0  0  0  0  2  0  0  0  0  0  0
  158.4770  211.9890  155.0720 C   0  0  2  0  0  3  0  0  0  0  0  0
  156.2540  212.4130  154.1750 C   0  0  0  0  0  2  0  0  0  0  0  0
  157.5450  210.9010  155.5530 C   0  0  0  0  0  2  0  0  0  0  0  0
  157.7350  212.6830  153.9320 C   0  0  1  0  0  0  0  0  0  0  0  0
  157.9860  214.0550  153.9840 O   0  0  0  0  0  1  0  0  0  0  0  0
  156.1600  211.4810  155.3700 C   0  0  0  0  0  2  0  0  0  0  0  0
  158.1370  212.1530  152.6630 O   0  0  0  0  0  0  0  0  0  0  0  0
  158.4790  212.9190  151.5400 C   0  0  0  0  0  0  0  0  0  0  0  0
  157.8940  214.1440  149.5220 C   0  0  0  0  0  3  0  0  0  0  0  0
  160.2070  213.9960  150.2190 C   0  0  0  0  0  3  0  0  0  0  0  0
  159.2410  214.4510  149.3160 C   0  0  0  0  0  3  0  0  0  0  0  0
  159.8260  213.2340  151.3280 C   0  0  0  0  0  3  0  0  0  0  0  0
  157.5130  213.3810  150.6300 C   0  0  0  0  0  3  0  0  0  0  0  0
  1 14  1  1  0  0  0
  1  3  1  0  0  0  0
  1 23  1  0  0  0  0
  2  6  1  0  0  0  0
  2  8  1  0  0  0  0
  3 12  1  0  0  0  0
  4  8  2  0  0  0  0
  4 13  1  0  0  0  0
  5  2  2  0  0  0  0
  7  4  1  0  0  0  0
  9  5  1  0  0  0  0
  9  7  2  0  0  0  0
 10 11  1  0  0  0  0
 11  7  1  0  0  0  0
 11  3  2  0  0  0  0
 12 13  2  0  0  0  0
 15 18  1  0  0  0  0
 16 15  2  0  0  0  0
 16 20  1  0  0  0  0
 17 19  1  0  0  0  0
 18 19  2  0  0  0  0
 19 14  1  0  0  0  0
 20 17  2  0  0  0  0
 21 16  1  0  0  0  0
 22 21  1  0  0  0  0
 23 24  1  0  0  0  0
 24 26  1  0  0  0  0
 26 25  1  0  0  0  0
 27 31  1  0  0  0  0
 27 29  1  0  0  0  0
 27 30  1  1  0  0  0
 29 26  1  6  0  0  0
 29 28  1  0  0  0  0
 30 28  1  0  0  0  0
 31 33  1  6  0  0  0
 32 36  1  0  0  0  0
 34 35  1  1  0  0  0
 34 32  1  0  0  0  0
 34 31  1  0  0  0  0
 36 33  1  0  0  0  0
 37 34  1  0  0  0  0
 38 37  1  0  0  0  0
 39 43  1  0  0  0  0
 40 42  2  0  0  0  0
 41 39  2  0  0  0  0
 41 40  1  0  0  0  0
 42 38  1  0  0  0  0
 43 38  2  0  0  0  0
M  END
>  <MODEL>
4

>  <REMARK>
 VINA RESULT:      -6.9      1.355      1.718
  Name = 
  11 active torsions:
  status: ('A' for Active; 'I' for Inactive)
    1  A    between atoms: C_1  and  C_34
    2  A    between atoms: C_1  and  C_35
    3  A    between atoms: C_3  and  C_4
    4  A    between atoms: N_6  and  C_12
    5  A    between atoms: N_6  and  C_13
    6  A    between atoms: C_8  and  C_34
    7  A    between atoms: C_11  and  O_14
    8  A    between atoms: C_13  and  C_38
    9  A    between atoms: O_14  and  C_22
   10  A    between atoms: C_19  and  O_25
   11  A    between atoms: C_34  and  C_38
                            x       y       z     vdW  Elec       q    Type
                         _______ _______ _______ _____ _____    ______ ____

>  <TORSDO>
F 11

$$$$
=
 OpenBabel11062410153D

 43 48  0  0  1  0  0  0  0  0999 V2000
  161.2040  212.9750  149.1110 C   0  0  2  0  0  3  0  0  0  0  0  0
  155.7710  214.0710  152.5210 C   0  0  0  0  0  0  0  0  0  0  0  0
  159.8690  213.3620  149.6870 C   0  0  0  0  0  0  0  0  0  0  0  0
  157.3530  213.9940  150.6920 C   0  0  0  0  0  0  0  0  0  0  0  0
  156.7270  213.5140  153.3750 C   0  0  0  0  0  3  0  0  0  0  0  0
  154.4790  214.4020  153.0210 N   0  0  0  0  0  1  0  0  0  0  0  0
  158.3210  213.4250  151.5470 C   0  0  0  0  0  0  0  0  0  0  0  0
  156.0830  214.3130  151.1820 C   0  0  0  0  0  3  0  0  0  0  0  0
  157.9990  213.1930  152.8910 C   0  0  0  0  0  3  0  0  0  0  0  0
  160.5490  212.5180  151.8590 O   0  0  0  0  0  1  0  0  0  0  0  0
  159.5850  213.1010  151.0390 C   0  0  0  0  0  0  0  0  0  0  0  0
  158.9100  213.9080  148.8890 N   0  0  0  0  0  0  0  0  0  0  0  0
  157.6760  214.2310  149.3570 C   0  0  0  0  0  3  0  0  0  0  0  0
  161.7960  213.9660  148.0960 C   0  0  0  0  0  2  0  0  0  0  0  0
  160.1980  212.8900  144.8230 C   0  0  0  0  0  3  0  0  0  0  0  0
  161.3190  212.8050  143.9790 C   0  0  0  0  0  0  0  0  0  0  0  0
  162.7360  213.4940  145.8250 C   0  0  0  0  0  3  0  0  0  0  0  0
  160.3490  213.2720  146.1580 C   0  0  0  0  0  3  0  0  0  0  0  0
  161.6200  213.5690  146.6640 C   0  0  0  0  0  0  0  0  0  0  0  0
  162.5850  213.1130  144.4880 C   0  0  0  0  0  3  0  0  0  0  0  0
  161.2030  212.4230  142.6410 O   0  0  0  0  0  0  0  0  0  0  0  0
  162.3300  212.1160  141.8260 C   0  0  0  0  0  1  0  0  0  0  0  0
  161.3280  211.4890  148.7560 C   0  0  0  0  0  2  0  0  0  0  0  0
  162.2810  210.7490  149.6830 C   0  0  0  0  0  2  0  0  0  0  0  0
  161.2160  209.0820  148.6090 O   0  0  0  0  0  1  0  0  0  0  0  0
  162.3540  209.3500  149.2930 N   0  0  0  0  0  0  0  0  0  0  0  0
  160.9120  208.0480  150.7850 C   0  0  2  0  0  3  0  0  0  0  0  0
  162.2370  209.4490  151.7310 C   0  0  0  0  0  2  0  0  0  0  0  0
  162.3290  208.5450  150.5110 C   0  0  2  0  0  3  0  0  0  0  0  0
  160.8260  208.9600  151.9950 C   0  0  0  0  0  2  0  0  0  0  0  0
  160.9090  206.5800  151.2300 C   0  0  2  0  0  3  0  0  0  0  0  0
  161.7790  204.3960  150.5970 C   0  0  0  0  0  2  0  0  0  0  0  0
  162.0870  206.2510  152.1180 C   0  0  0  0  0  2  0  0  0  0  0  0
  160.9870  205.5880  150.0710 C   0  0  1  0  0  0  0  0  0  0  0  0
  159.6980  205.1870  149.7160 O   0  0  0  0  0  1  0  0  0  0  0  0
  162.2450  204.7520  151.9980 C   0  0  0  0  0  2  0  0  0  0  0  0
  161.6540  206.1700  148.9440 O   0  0  0  0  0  0  0  0  0  0  0  0
  161.5110  205.7480  147.6150 C   0  0  0  0  0  0  0  0  0  0  0  0
  160.4530  205.8720  145.4290 C   0  0  0  0  0  3  0  0  0  0  0  0
  162.2330  204.2790  145.8230 C   0  0  0  0  0  3  0  0  0  0  0  0
  161.2880  204.8510  144.9660 C   0  0  0  0  0  3  0  0  0  0  0  0
  162.3440  204.7280  147.1430 C   0  0  0  0  0  3  0  0  0  0  0  0
  160.5640  206.3200  146.7480 C   0  0  0  0  0  3  0  0  0  0  0  0
  1 14  1  6  0  0  0
  1  3  1  0  0  0  0
  2  6  1  0  0  0  0
  2  5  1  0  0  0  0
  3 11  1  0  0  0  0
  4  8  1  0  0  0  0
  4  7  1  0  0  0  0
  7  9  1  0  0  0  0
  8  2  2  0  0  0  0
  9  5  2  0  0  0  0
 11  7  2  0  0  0  0
 11 10  1  0  0  0  0
 12 13  1  0  0  0  0
 12  3  2  0  0  0  0
 13  4  2  0  0  0  0
 15 18  1  0  0  0  0
 16 20  1  0  0  0  0
 16 15  2  0  0  0  0
 17 19  1  0  0  0  0
 18 19  2  0  0  0  0
 19 14  1  0  0  0  0
 20 17  2  0  0  0  0
 21 16  1  0  0  0  0
 22 21  1  0  0  0  0
 23  1  1  0  0  0  0
 23 24  1  0  0  0  0
 25 26  1  0  0  0  0
 26 24  1  0  0  0  0
 27 31  1  0  0  0  0
 27 30  1  1  0  0  0
 28 30  1  0  0  0  0
 29 26  1  6  0  0  0
 29 27  1  0  0  0  0
 29 28  1  0  0  0  0
 31 33  1  1  0  0  0
 32 36  1  0  0  0  0
 34 35  1  6  0  0  0
 34 32  1  0  0  0  0
 34 31  1  0  0  0  0
 36 33  1  0  0  0  0
 37 34  1  0  0  0  0
 38 37  1  0  0  0  0
 39 43  1  0  0  0  0
 40 42  2  0  0  0  0
 41 39  2  0  0  0  0
 41 40  1  0  0  0  0
 42 38  1  0  0  0  0
 43 38  2  0  0  0  0
M  END
>  <MODEL>
5

>  <REMARK>
 VINA RESULT:      -6.6      2.830      8.536
  Name = 
  11 active torsions:
  status: ('A' for Active; 'I' for Inactive)
    1  A    between atoms: C_1  and  C_34
    2  A    between atoms: C_1  and  C_35
    3  A    between atoms: C_3  and  C_4
    4  A    between atoms: N_6  and  C_12
    5  A    between atoms: N_6  and  C_13
    6  A    between atoms: C_8  and  C_34
    7  A    between atoms: C_11  and  O_14
    8  A    between atoms: C_13  and  C_38
    9  A    between atoms: O_14  and  C_22
   10  A    between atoms: C_19  and  O_25
   11  A    between atoms: C_34  and  C_38
                            x       y       z     vdW  Elec       q    Type
                         _______ _______ _______ _____ _____    ______ ____

>  <TORSDO>
F 11

$$$$
=
 OpenBabel11062410153D

 43 48  0  0  1  0  0  0  0  0999 V2000
  161.5940  209.2780  150.8060 C   0  0  2  0  0  3  0  0  0  0  0  0
  158.6230  211.8820  155.9770 C   0  0  0  0  0  0  0  0  0  0  0  0
  160.9310  209.6400  152.1070 C   0  0  0  0  0  0  0  0  0  0  0  0
  159.8060  210.3180  154.5590 C   0  0  0  0  0  0  0  0  0  0  0  0
  158.5480  212.7910  154.9170 C   0  0  0  0  0  3  0  0  0  0  0  0
  158.0510  212.2140  157.2380 N   0  0  0  0  0  1  0  0  0  0  0  0
  159.7400  211.2330  153.4870 C   0  0  0  0  0  0  0  0  0  0  0  0
  159.2490  210.6470  155.7990 C   0  0  0  0  0  3  0  0  0  0  0  0
  159.1040  212.4680  153.6750 C   0  0  0  0  0  3  0  0  0  0  0  0
  160.2790  211.7910  151.1880 O   0  0  0  0  0  1  0  0  0  0  0  0
  160.3120  210.8940  152.2540 C   0  0  0  0  0  0  0  0  0  0  0  0
  160.9800  208.7830  153.1640 N   0  0  0  0  0  0  0  0  0  0  0  0
  160.4330  209.0880  154.3690 C   0  0  0  0  0  3  0  0  0  0  0  0
  162.3260  207.9260  150.7930 C   0  0  0  0  0  2  0  0  0  0  0  0
  160.8810  205.1010  148.7060 C   0  0  0  0  0  3  0  0  0  0  0  0
  161.3920  205.4050  147.4320 C   0  0  0  0  0  0  0  0  0  0  0  0
  162.4930  207.3580  148.3610 C   0  0  0  0  0  3  0  0  0  0  0  0
  161.1770  205.9210  149.7980 C   0  0  0  0  0  3  0  0  0  0  0  0
  161.9890  207.0480  149.6280 C   0  0  0  0  0  0  0  0  0  0  0  0
  162.1950  206.5380  147.2680 C   0  0  0  0  0  3  0  0  0  0  0  0
  161.1180  204.6040  146.3210 O   0  0  0  0  0  0  0  0  0  0  0  0
  161.0820  205.1150  144.9930 C   0  0  0  0  0  1  0  0  0  0  0  0
  162.3180  210.4450  150.1240 C   0  0  0  0  0  2  0  0  0  0  0  0
  161.6200  210.8950  148.8500 C   0  0  0  0  0  2  0  0  0  0  0  0
  163.4930  212.1380  148.9550 O   0  0  0  0  0  1  0  0  0  0  0  0
  162.4840  211.8050  148.1150 N   0  0  0  0  0  0  0  0  0  0  0  0
  161.2010  213.0110  146.4110 C   0  0  2  0  0  3  0  0  0  0  0  0
  162.6690  214.1570  147.4800 C   0  0  0  0  0  2  0  0  0  0  0  0
  161.7240  213.0230  147.8460 C   0  0  2  0  0  3  0  0  0  0  0  0
  162.1540  214.1370  146.0550 C   0  0  0  0  0  2  0  0  0  0  0  0
  159.7500  213.5060  146.3390 C   0  0  2  0  0  3  0  0  0  0  0  0
  157.6230  213.0190  145.2610 C   0  0  0  0  0  2  0  0  0  0  0  0
  158.8560  212.7950  147.3290 C   0  0  0  0  0  2  0  0  0  0  0  0
  159.0960  213.2910  144.9760 C   0  0  1  0  0  0  0  0  0  0  0  0
  159.2300  214.4500  144.2100 O   0  0  0  0  0  1  0  0  0  0  0  0
  157.4620  212.9650  146.7700 C   0  0  0  0  0  2  0  0  0  0  0  0
  159.6860  212.1760  144.2960 O   0  0  0  0  0  0  0  0  0  0  0  0
  160.1410  212.1880  142.9710 C   0  0  0  0  0  0  0  0  0  0  0  0
  161.9030  211.9780  141.3070 C   0  0  0  0  0  3  0  0  0  0  0  0
  159.6330  212.4520  140.6120 C   0  0  0  0  0  3  0  0  0  0  0  0
  160.9750  212.2250  140.2920 C   0  0  0  0  0  3  0  0  0  0  0  0
  159.2190  212.4320  141.9470 C   0  0  0  0  0  3  0  0  0  0  0  0
  161.4880  211.9590  142.6420 C   0  0  0  0  0  3  0  0  0  0  0  0
  1 23  1  1  0  0  0
  1  3  1  0  0  0  0
  2  6  1  0  0  0  0
  3 11  2  0  0  0  0
  3 12  1  0  0  0  0
  4  8  2  0  0  0  0
  5  2  2  0  0  0  0
  7  9  2  0  0  0  0
  7  4  1  0  0  0  0
  8  2  1  0  0  0  0
  9  5  1  0  0  0  0
 10 11  1  0  0  0  0
 11  7  1  0  0  0  0
 12 13  2  0  0  0  0
 13  4  1  0  0  0  0
 14  1  1  0  0  0  0
 15 18  1  0  0  0  0
 16 15  2  0  0  0  0
 17 19  1  0  0  0  0
 19 18  2  0  0  0  0
 19 14  1  0  0  0  0
 20 16  1  0  0  0  0
 20 17  2  0  0  0  0
 21 16  1  0  0  0  0
 22 21  1  0  0  0  0
 24 23  1  0  0  0  0
 26 24  1  0  0  0  0
 26 25  1  0  0  0  0
 27 30  1  6  0  0  0
 27 29  1  0  0  0  0
 28 29  1  0  0  0  0
 29 26  1  6  0  0  0
 30 28  1  0  0  0  0
 31 27  1  0  0  0  0
 31 33  1  1  0  0  0
 32 36  1  0  0  0  0
 34 35  1  6  0  0  0
 34 32  1  0  0  0  0
 34 31  1  0  0  0  0
 36 33  1  0  0  0  0
 37 34  1  0  0  0  0
 38 37  1  0  0  0  0
 39 43  2  0  0  0  0
 40 42  1  0  0  0  0
 41 40  2  0  0  0  0
 41 39  1  0  0  0  0
 42 38  2  0  0  0  0
 43 38  1  0  0  0  0
M  END
>  <MODEL>
6

>  <REMARK>
 VINA RESULT:      -6.2      2.962      8.235
  Name = 
  11 active torsions:
  status: ('A' for Active; 'I' for Inactive)
    1  A    between atoms: C_1  and  C_34
    2  A    between atoms: C_1  and  C_35
    3  A    between atoms: C_3  and  C_4
    4  A    between atoms: N_6  and  C_12
    5  A    between atoms: N_6  and  C_13
    6  A    between atoms: C_8  and  C_34
    7  A    between atoms: C_11  and  O_14
    8  A    between atoms: C_13  and  C_38
    9  A    between atoms: O_14  and  C_22
   10  A    between atoms: C_19  and  O_25
   11  A    between atoms: C_34  and  C_38
                            x       y       z     vdW  Elec       q    Type
                         _______ _______ _______ _____ _____    ______ ____

>  <TORSDO>
F 11

$$$$
=
 OpenBabel11062410153D

 43 48  0  0  1  0  0  0  0  0999 V2000
  161.1530  207.5860  149.9780 C   0  0  2  0  0  3  0  0  0  0  0  0
  161.1220  201.6360  147.3440 C   0  0  0  0  0  0  0  0  0  0  0  0
  161.1480  206.3380  149.1390 C   0  0  0  0  0  0  0  0  0  0  0  0
  161.2480  204.0420  147.5720 C   0  0  0  0  0  0  0  0  0  0  0  0
  160.8780  201.5170  148.7160 C   0  0  0  0  0  3  0  0  0  0  0  0
  161.1750  200.4700  146.5280 N   0  0  0  0  0  1  0  0  0  0  0  0
  161.0080  203.9280  148.9580 C   0  0  0  0  0  0  0  0  0  0  0  0
  161.3050  202.8970  146.7720 C   0  0  0  0  0  3  0  0  0  0  0  0
  160.8200  202.6580  149.5210 C   0  0  0  0  0  3  0  0  0  0  0  0
  160.7510  204.9940  151.1220 O   0  0  0  0  0  1  0  0  0  0  0  0
  160.9640  205.0840  149.7470 C   0  0  0  0  0  0  0  0  0  0  0  0
  161.3810  206.4110  147.8000 N   0  0  0  0  0  0  0  0  0  0  0  0
  161.4280  205.3050  147.0120 C   0  0  0  0  0  3  0  0  0  0  0  0
  162.3370  208.5370  149.7380 C   0  0  0  0  0  2  0  0  0  0  0  0
  161.5830  212.2590  149.7890 C   0  0  0  0  0  3  0  0  0  0  0  0
  161.1980  212.4840  148.4560 C   0  0  0  0  0  0  0  0  0  0  0  0
  161.5760  210.1360  147.9700 C   0  0  0  0  0  3  0  0  0  0  0  0
  161.9590  210.9800  150.2070 C   0  0  0  0  0  3  0  0  0  0  0  0
  161.9510  209.9140  149.2990 C   0  0  0  0  0  0  0  0  0  0  0  0
  161.2010  211.4170  147.5510 C   0  0  0  0  0  3  0  0  0  0  0  0
  160.8130  213.7490  148.0060 O   0  0  0  0  0  0  0  0  0  0  0  0
  160.2940  213.9780  146.7010 C   0  0  0  0  0  1  0  0  0  0  0  0
  160.7530  207.3610  151.4410 C   0  0  0  0  0  2  0  0  0  0  0  0
  160.5960  208.6670  152.2060 C   0  0  0  0  0  2  0  0  0  0  0  0
  162.1180  207.4720  153.3550 O   0  0  0  0  0  1  0  0  0  0  0  0
  161.4930  208.6740  153.3510 N   0  0  0  0  0  0  0  0  0  0  0  0
  161.1370  209.9000  155.4420 C   0  0  2  0  0  3  0  0  0  0  0  0
  161.1940  207.7590  155.5960 C   0  0  0  0  0  2  0  0  0  0  0  0
  160.6750  208.7430  154.5590 C   0  0  2  0  0  3  0  0  0  0  0  0
  161.6590  208.9090  156.4660 C   0  0  0  0  0  2  0  0  0  0  0  0
  159.9450  210.6750  156.0180 C   0  0  2  0  0  3  0  0  0  0  0  0
  158.2570  212.3150  155.3930 C   0  0  0  0  0  2  0  0  0  0  0  0
  158.6340  209.9580  155.7880 C   0  0  0  0  0  2  0  0  0  0  0  0
  159.7610  212.0620  155.4050 C   0  0  1  0  0  0  0  0  0  0  0  0
  160.4000  213.0100  156.2040 O   0  0  0  0  0  1  0  0  0  0  0  0
  157.5860  211.0450  155.8860 C   0  0  0  0  0  2  0  0  0  0  0  0
  160.2840  212.1040  154.0710 O   0  0  0  0  0  0  0  0  0  0  0  0
  159.6080  212.6170  152.9560 C   0  0  0  0  0  0  0  0  0  0  0  0
  159.0100  214.4430  151.4650 C   0  0  0  0  0  3  0  0  0  0  0  0
  158.1340  212.2220  151.0680 C   0  0  0  0  0  3  0  0  0  0  0  0
  158.2280  213.5690  150.7060 C   0  0  0  0  0  3  0  0  0  0  0  0
  158.8240  211.7480  152.1880 C   0  0  0  0  0  3  0  0  0  0  0  0
  159.6990  213.9700  152.5850 C   0  0  0  0  0  3  0  0  0  0  0  0
  1 14  1  1  0  0  0
  1 23  1  0  0  0  0
  2  5  1  0  0  0  0
  3 11  1  0  0  0  0
  3  1  1  0  0  0  0
  4  7  1  0  0  0  0
  5  9  2  0  0  0  0
  6  2  1  0  0  0  0
  7  9  1  0  0  0  0
  7 11  2  0  0  0  0
  8  2  2  0  0  0  0
  8  4  1  0  0  0  0
 11 10  1  0  0  0  0
 12  3  2  0  0  0  0
 13  4  2  0  0  0  0
 13 12  1  0  0  0  0
 15 18  1  0  0  0  0
 16 15  2  0  0  0  0
 17 19  1  0  0  0  0
 19 14  1  0  0  0  0
 19 18  2  0  0  0  0
 20 17  2  0  0  0  0
 20 16  1  0  0  0  0
 21 16  1  0  0  0  0
 22 21  1  0  0  0  0
 23 24  1  0  0  0  0
 24 26  1  0  0  0  0
 26 25  1  0  0  0  0
 27 31  1  0  0  0  0
 27 30  1  1  0  0  0
 28 30  1  0  0  0  0
 29 26  1  6  0  0  0
 29 27  1  0  0  0  0
 29 28  1  0  0  0  0
 31 33  1  6  0  0  0
 32 34  1  0  0  0  0
 32 36  1  0  0  0  0
 33 36  1  0  0  0  0
 34 31  1  0  0  0  0
 34 35  1  1  0  0  0
 37 34  1  0  0  0  0
 38 37  1  0  0  0  0
 39 43  2  0  0  0  0
 40 42  1  0  0  0  0
 41 40  2  0  0  0  0
 41 39  1  0  0  0  0
 42 38  2  0  0  0  0
 43 38  1  0  0  0  0
M  END
>  <MODEL>
7

>  <REMARK>
 VINA RESULT:      -6.0      1.973      2.956
  Name = 
  11 active torsions:
  status: ('A' for Active; 'I' for Inactive)
    1  A    between atoms: C_1  and  C_34
    2  A    between atoms: C_1  and  C_35
    3  A    between atoms: C_3  and  C_4
    4  A    between atoms: N_6  and  C_12
    5  A    between atoms: N_6  and  C_13
    6  A    between atoms: C_8  and  C_34
    7  A    between atoms: C_11  and  O_14
    8  A    between atoms: C_13  and  C_38
    9  A    between atoms: O_14  and  C_22
   10  A    between atoms: C_19  and  O_25
   11  A    between atoms: C_34  and  C_38
                            x       y       z     vdW  Elec       q    Type
                         _______ _______ _______ _____ _____    ______ ____

>  <TORSDO>
F 11

$$$$
=
 OpenBabel11062410153D

 43 48  0  0  1  0  0  0  0  0999 V2000
  160.9060  212.1130  151.0100 C   0  0  2  0  0  3  0  0  0  0  0  0
  156.7560  211.9560  156.0200 C   0  0  0  0  0  0  0  0  0  0  0  0
  160.1350  211.9370  152.2890 C   0  0  0  0  0  0  0  0  0  0  0  0
  158.7680  211.6960  154.7000 C   0  0  0  0  0  0  0  0  0  0  0  0
  156.0840  212.4580  154.9010 C   0  0  0  0  0  3  0  0  0  0  0  0
  156.0700  211.8250  157.2610 N   0  0  0  0  0  1  0  0  0  0  0  0
  158.0980  212.2090  153.5690 C   0  0  0  0  0  0  0  0  0  0  0  0
  158.0960  211.5740  155.9200 C   0  0  0  0  0  3  0  0  0  0  0  0
  156.7520  212.5830  153.6780 C   0  0  0  0  0  3  0  0  0  0  0  0
  158.1530  212.8600  151.2330 O   0  0  0  0  0  1  0  0  0  0  0  0
  158.7880  212.3360  152.3570 C   0  0  0  0  0  0  0  0  0  0  0  0
  160.7510  211.4510  153.4020 N   0  0  0  0  0  0  0  0  0  0  0  0
  160.1040  211.3180  154.5880 C   0  0  0  0  0  3  0  0  0  0  0  0
  160.4730  213.3010  150.1360 C   0  0  0  0  0  2  0  0  0  0  0  0
  162.6060  213.2910  146.9940 C   0  0  0  0  0  3  0  0  0  0  0  0
  161.6420  213.0390  146.0030 C   0  0  0  0  0  0  0  0  0  0  0  0
  159.9290  212.9430  147.7190 C   0  0  0  0  0  3  0  0  0  0  0  0
  162.2300  213.3710  148.3370 C   0  0  0  0  0  3  0  0  0  0  0  0
  160.8900  213.2030  148.7020 C   0  0  0  0  0  0  0  0  0  0  0  0
  160.3050  212.8620  146.3750 C   0  0  0  0  0  3  0  0  0  0  0  0
  161.9840  212.9560  144.6510 O   0  0  0  0  0  0  0  0  0  0  0  0
  161.0120  212.9200  143.6110 C   0  0  0  0  0  1  0  0  0  0  0  0
  161.2030  210.8030  150.2710 C   0  0  0  0  0  2  0  0  0  0  0  0
  162.3470  210.0260  150.9050 C   0  0  0  0  0  2  0  0  0  0  0  0
  161.4210  208.6210  149.4100 O   0  0  0  0  0  1  0  0  0  0  0  0
  162.4630  208.7220  150.2690 N   0  0  0  0  0  0  0  0  0  0  0  0
  160.8500  207.1630  151.2540 C   0  0  2  0  0  3  0  0  0  0  0  0
  161.9690  208.3670  152.6350 C   0  0  0  0  0  2  0  0  0  0  0  0
  162.2760  207.7050  151.3010 C   0  0  2  0  0  3  0  0  0  0  0  0
  160.5510  207.8350  152.5810 C   0  0  0  0  0  2  0  0  0  0  0  0
  160.8240  205.6380  151.4170 C   0  0  2  0  0  3  0  0  0  0  0  0
  161.5890  203.5940  150.3390 C   0  0  0  0  0  2  0  0  0  0  0  0
  162.0370  205.1230  152.1580 C   0  0  0  0  0  2  0  0  0  0  0  0
  160.8080  204.8800  150.0910 C   0  0  1  0  0  0  0  0  0  0  0  0
  159.4900  204.5800  149.7440 O   0  0  0  0  0  1  0  0  0  0  0  0
  162.1410  203.6700  151.7510 C   0  0  0  0  0  2  0  0  0  0  0  0
  161.4310  205.6490  149.0550 O   0  0  0  0  0  0  0  0  0  0  0  0
  161.3690  205.3590  147.6860 C   0  0  0  0  0  0  0  0  0  0  0  0
  161.8400  203.9300  145.7740 C   0  0  0  0  0  3  0  0  0  0  0  0
  160.6460  206.0130  145.4630 C   0  0  0  0  0  3  0  0  0  0  0  0
  161.2010  204.8440  144.9320 C   0  0  0  0  0  3  0  0  0  0  0  0
  160.7290  206.2670  146.8350 C   0  0  0  0  0  3  0  0  0  0  0  0
  161.9230  204.1850  147.1460 C   0  0  0  0  0  3  0  0  0  0  0  0
  1 14  1  6  0  0  0
  1  3  1  0  0  0  0
  2  6  1  0  0  0  0
  3 11  2  0  0  0  0
  3 12  1  0  0  0  0
  4  8  2  0  0  0  0
  5  2  2  0  0  0  0
  7  9  2  0  0  0  0
  7  4  1  0  0  0  0
  8  2  1  0  0  0  0
  9  5  1  0  0  0  0
 10 11  1  0  0  0  0
 11  7  1  0  0  0  0
 12 13  2  0  0  0  0
 13  4  1  0  0  0  0
 15 18  1  0  0  0  0
 16 20  1  0  0  0  0
 16 15  2  0  0  0  0
 17 19  1  0  0  0  0
 18 19  2  0  0  0  0
 19 14  1  0  0  0  0
 20 17  2  0  0  0  0
 21 16  1  0  0  0  0
 22 21  1  0  0  0  0
 23 24  1  0  0  0  0
 23  1  1  0  0  0  0
 25 26  1  0  0  0  0
 26 24  1  0  0  0  0
 27 29  1  0  0  0  0
 27 31  1  0  0  0  0
 27 30  1  1  0  0  0
 29 26  1  6  0  0  0
 29 28  1  0  0  0  0
 30 28  1  0  0  0  0
 31 33  1  6  0  0  0
 32 36  1  0  0  0  0
 34 35  1  6  0  0  0
 34 32  1  0  0  0  0
 34 31  1  0  0  0  0
 36 33  1  0  0  0  0
 37 34  1  0  0  0  0
 38 37  1  0  0  0  0
 39 43  2  0  0  0  0
 40 42  1  0  0  0  0
 41 40  2  0  0  0  0
 41 39  1  0  0  0  0
 42 38  2  0  0  0  0
 43 38  1  0  0  0  0
M  END
>  <MODEL>
8

>  <REMARK>
 VINA RESULT:      -5.9      2.408      8.093
  Name = 
  11 active torsions:
  status: ('A' for Active; 'I' for Inactive)
    1  A    between atoms: C_1  and  C_34
    2  A    between atoms: C_1  and  C_35
    3  A    between atoms: C_3  and  C_4
    4  A    between atoms: N_6  and  C_12
    5  A    between atoms: N_6  and  C_13
    6  A    between atoms: C_8  and  C_34
    7  A    between atoms: C_11  and  O_14
    8  A    between atoms: C_13  and  C_38
    9  A    between atoms: O_14  and  C_22
   10  A    between atoms: C_19  and  O_25
   11  A    between atoms: C_34  and  C_38
                            x       y       z     vdW  Elec       q    Type
                         _______ _______ _______ _____ _____    ______ ____

>  <TORSDO>
F 11

$$$$
=
 OpenBabel11062410153D

 43 48  0  0  1  0  0  0  0  0999 V2000
  162.2310  210.1700  150.0740 C   0  0  2  0  0  3  0  0  0  0  0  0
  160.1890  207.7290  155.7500 C   0  0  0  0  0  0  0  0  0  0  0  0
  161.8210  209.3720  151.2820 C   0  0  0  0  0  0  0  0  0  0  0  0
  161.1730  207.8900  153.5450 C   0  0  0  0  0  0  0  0  0  0  0  0
  159.8300  209.0790  155.6920 C   0  0  0  0  0  3  0  0  0  0  0  0
  159.8630  206.9570  156.9010 N   0  0  0  0  0  1  0  0  0  0  0  0
  160.8200  209.2550  153.4830 C   0  0  0  0  0  0  0  0  0  0  0  0
  160.8580  207.1340  154.6780 C   0  0  0  0  0  3  0  0  0  0  0  0
  160.1430  209.8410  154.5620 C   0  0  0  0  0  3  0  0  0  0  0  0
  160.8340  211.3570  152.2710 O   0  0  0  0  0  1  0  0  0  0  0  0
  161.1530  210.0020  152.3450 C   0  0  0  0  0  0  0  0  0  0  0  0
  162.1500  208.0540  151.3780 N   0  0  0  0  0  0  0  0  0  0  0  0
  161.8390  207.3080  152.4690 C   0  0  0  0  0  3  0  0  0  0  0  0
  161.4630  211.4840  149.8610 C   0  0  0  0  0  2  0  0  0  0  0  0
  160.6560  212.8080  146.3930 C   0  0  0  0  0  3  0  0  0  0  0  0
  161.9310  213.1770  145.9320 C   0  0  0  0  0  0  0  0  0  0  0  0
  162.8840  212.4530  148.0430 C   0  0  0  0  0  3  0  0  0  0  0  0
  160.5000  212.2630  147.6710 C   0  0  0  0  0  3  0  0  0  0  0  0
  161.6150  212.0800  148.4960 C   0  0  0  0  0  0  0  0  0  0  0  0
  163.0410  213.0000  146.7650 C   0  0  0  0  0  3  0  0  0  0  0  0
  162.1220  213.7200  144.6590 O   0  0  0  0  0  0  0  0  0  0  0  0
  163.2040  213.3430  143.8140 C   0  0  0  0  0  1  0  0  0  0  0  0
  162.4850  209.3250  148.8200 C   0  0  0  0  0  2  0  0  0  0  0  0
  161.3810  208.3090  148.5710 C   0  0  0  0  0  2  0  0  0  0  0  0
  162.3310  206.9910  147.0130 O   0  0  0  0  0  1  0  0  0  0  0  0
  161.9680  207.0020  148.3180 N   0  0  0  0  0  0  0  0  0  0  0  0
  161.5280  204.6050  148.5790 C   0  0  2  0  0  3  0  0  0  0  0  0
  160.3240  205.6380  147.1320 C   0  0  0  0  0  2  0  0  0  0  0  0
  160.9170  206.0010  148.4850 C   0  0  2  0  0  3  0  0  0  0  0  0
  160.9400  204.2570  147.2250 C   0  0  0  0  0  2  0  0  0  0  0  0
  160.8560  203.7720  149.6770 C   0  0  2  0  0  3  0  0  0  0  0  0
  160.7310  201.4970  150.5350 C   0  0  0  0  0  2  0  0  0  0  0  0
  161.7080  203.6750  150.9220 C   0  0  0  0  0  2  0  0  0  0  0  0
  160.5760  202.3280  149.2660 C   0  0  1  0  0  0  0  0  0  0  0  0
  159.2690  202.2280  148.7850 O   0  0  0  0  0  1  0  0  0  0  0  0
  161.2060  202.4360  151.6290 C   0  0  0  0  0  2  0  0  0  0  0  0
  161.5070  201.8910  148.2670 O   0  0  0  0  0  0  0  0  0  0  0  0
  161.1840  201.1100  147.1490 C   0  0  0  0  0  0  0  0  0  0  0  0
  161.2380  199.0210  145.9060 C   0  0  0  0  0  3  0  0  0  0  0  0
  160.0940  200.9460  144.9860 C   0  0  0  0  0  3  0  0  0  0  0  0
  160.4940  199.6100  144.8800 C   0  0  0  0  0  3  0  0  0  0  0  0
  160.4370  201.6920  146.1180 C   0  0  0  0  0  3  0  0  0  0  0  0
  161.5810  199.7670  147.0370 C   0  0  0  0  0  3  0  0  0  0  0  0
  1 23  1  6  0  0  0
  1  3  1  0  0  0  0
  2  6  1  0  0  0  0
  3 12  2  0  0  0  0
  3 11  1  0  0  0  0
  4  8  1  0  0  0  0
  5  2  1  0  0  0  0
  7  4  1  0  0  0  0
  7  9  1  0  0  0  0
  8  2  2  0  0  0  0
  9  5  2  0  0  0  0
 10 11  1  0  0  0  0
 11  7  2  0  0  0  0
 12 13  1  0  0  0  0
 13  4  2  0  0  0  0
 14  1  1  0  0  0  0
 15 18  1  0  0  0  0
 16 15  2  0  0  0  0
 16 20  1  0  0  0  0
 17 19  1  0  0  0  0
 18 19  2  0  0  0  0
 19 14  1  0  0  0  0
 20 17  2  0  0  0  0
 21 16  1  0  0  0  0
 22 21  1  0  0  0  0
 24 23  1  0  0  0  0
 25 26  1  0  0  0  0
 26 24  1  0  0  0  0
 27 30  1  6  0  0  0
 27 31  1  0  0  0  0
 28 30  1  0  0  0  0
 28 29  1  0  0  0  0
 29 26  1  6  0  0  0
 29 27  1  0  0  0  0
 31 33  1  1  0  0  0
 32 36  1  0  0  0  0
 33 36  1  0  0  0  0
 34 35  1  6  0  0  0
 34 31  1  0  0  0  0
 34 32  1  0  0  0  0
 37 34  1  0  0  0  0
 38 37  1  0  0  0  0
 39 43  2  0  0  0  0
 40 42  1  0  0  0  0
 41 40  2  0  0  0  0
 41 39  1  0  0  0  0
 42 38  2  0  0  0  0
 43 38  1  0  0  0  0
M  END
>  <MODEL>
9

>  <REMARK>
 VINA RESULT:      -5.8      3.388      9.146
  Name = 
  11 active torsions:
  status: ('A' for Active; 'I' for Inactive)
    1  A    between atoms: C_1  and  C_34
    2  A    between atoms: C_1  and  C_35
    3  A    between atoms: C_3  and  C_4
    4  A    between atoms: N_6  and  C_12
    5  A    between atoms: N_6  and  C_13
    6  A    between atoms: C_8  and  C_34
    7  A    between atoms: C_11  and  O_14
    8  A    between atoms: C_13  and  C_38
    9  A    between atoms: O_14  and  C_22
   10  A    between atoms: C_19  and  O_25
   11  A    between atoms: C_34  and  C_38
                            x       y       z     vdW  Elec       q    Type
                         _______ _______ _______ _____ _____    ______ ____

>  <TORSDO>
F 11

$$$$
