=
 OpenBabel11052422303D

 31 35  0  0  1  0  0  0  0  0999 V2000
  160.4900  208.9870  155.0640 C   0  0  0  0  0  0  0  0  0  0  0  0
  161.4590  208.4840  151.3770 C   0  0  0  0  0  0  0  0  0  0  0  0
  161.6720  209.7570  150.7720 C   0  0  0  0  0  0  0  0  0  0  0  0
  160.6940  211.9790  151.2370 C   0  0  0  0  0  3  0  0  0  0  0  0
  161.1540  208.2680  152.8260 C   0  0  0  0  0  0  0  0  0  0  0  0
  160.2900  207.6000  155.4950 C   0  0  0  0  0  3  0  0  0  0  0  0
  161.7620  211.0040  151.5980 C   0  0  0  0  0  2  0  0  0  0  0  0
  161.4040  205.9510  151.2280 C   0  0  2  0  0  3  0  0  0  0  0  0
  160.3010  209.9340  155.8700 O   0  0  0  0  0  0  0  0  0  0  0  0
  162.0480  208.6640  148.6320 C   0  0  0  0  0  3  0  0  0  0  0  0
  160.6390  212.5710  150.0460 C   0  0  0  0  0  3  0  0  0  0  0  0
  160.5500  206.0050  152.3510 O   0  0  0  0  0  0  0  0  0  0  0  0
  161.5390  207.3190  150.5770 C   0  0  0  0  0  0  0  0  0  0  0  0
  160.8620  209.2640  153.6720 C   0  0  0  0  0  3  0  0  0  0  0  0
  161.5530  212.2860  148.9240 C   0  0  0  0  0  3  0  0  0  0  0  0
  161.1810  206.8230  153.3020 C   0  0  2  0  0  3  0  0  0  0  0  0
  160.5760  206.5940  154.6670 C   0  0  0  0  0  3  0  0  0  0  0  0
  161.8630  207.4190  149.2220 C   0  0  0  0  0  3  0  0  0  0  0  0
  161.9320  209.8350  149.3810 C   0  0  0  0  0  0  0  0  0  0  0  0
  162.1160  211.1040  148.6450 C   0  0  0  0  0  3  0  0  0  0  0  0
  161.8170  203.1230  151.3580 O   0  0  0  0  0  0  0  0  0  0  0  0
  161.1120  203.5690  150.4120 C   0  0  0  0  0  0  0  0  0  0  0  0
  160.8840  204.9750  150.2780 N   0  0  0  0  0  2  0  0  0  0  0  0
  160.6510  201.1790  149.9220 C   0  0  0  0  0  1  0  0  0  0  0  0
  160.5120  202.6110  149.4340 C   0  0  2  0  0  3  0  0  0  0  0  0
  161.1190  201.7990  147.2810 O   0  0  0  0  0  0  0  0  0  0  0  0
  161.1150  202.7760  148.0760 C   0  0  0  0  0  0  0  0  0  0  0  0
  161.6630  204.0360  147.6780 N   0  0  0  0  0  2  0  0  0  0  0  0
  162.2280  204.2490  146.3560 C   0  0  2  0  0  3  0  0  0  0  0  0
  162.0870  205.6740  145.9790 C   0  0  0  0  0  2  0  0  0  0  0  0
  161.2090  204.6890  145.4890 O   0  0  0  0  0  0  0  0  0  0  0  0
  1  6  1  0  0  0  0
  1  9  2  0  0  0  0
  2  5  1  0  0  0  0
  3  2  1  0  0  0  0
  3  7  1  0  0  0  0
  4  7  1  0  0  0  0
  5 16  1  0  0  0  0
  5 14  2  0  0  0  0
  8 23  1  6  0  0  0
  8 12  1  0  0  0  0
 10 18  2  0  0  0  0
 10 19  1  0  0  0  0
 11  4  2  0  0  0  0
 12 16  1  0  0  0  0
 13  8  1  0  0  0  0
 13  2  2  0  0  0  0
 14  1  1  0  0  0  0
 15 11  1  0  0  0  0
 16 17  1  1  0  0  0
 17  6  2  0  0  0  0
 18 13  1  0  0  0  0
 19  3  2  0  0  0  0
 20 15  2  0  0  0  0
 20 19  1  0  0  0  0
 22 21  2  0  0  0  0
 23 22  1  0  0  0  0
 25 24  1  1  0  0  0
 25 22  1  0  0  0  0
 26 27  2  0  0  0  0
 27 25  1  0  0  0  0
 28 27  1  0  0  0  0
 29 28  1  1  0  0  0
 30 29  1  0  0  0  0
 31 30  1  0  0  0  0
 31 29  1  0  0  0  0
M  END
>  <MODEL>
1

>  <REMARK>
 VINA RESULT:      -9.0      0.000      0.000
  Name = 
  4 active torsions:
  status: ('A' for Active; 'I' for Inactive)
    1  A    between atoms: C_1  and  N_24
    2  A    between atoms: C_9  and  C_22
    3  A    between atoms: C_15  and  N_23
    4  A    between atoms: C_19  and  C_22
                            x       y       z     vdW  Elec       q    Type
                         _______ _______ _______ _____ _____    ______ ____

>  <TORSDO>
F 4

$$$$
=
 OpenBabel11052422303D

 31 35  0  0  1  0  0  0  0  0999 V2000
  161.2820  204.5800  149.4260 C   0  0  0  0  0  0  0  0  0  0  0  0
  161.7260  208.0420  151.0390 C   0  0  0  0  0  0  0  0  0  0  0  0
  161.6730  207.9070  152.4580 C   0  0  0  0  0  0  0  0  0  0  0  0
  160.4950  206.2890  153.9090 C   0  0  0  0  0  3  0  0  0  0  0  0
  161.6800  206.9020  150.0710 C   0  0  0  0  0  0  0  0  0  0  0  0
  161.3340  204.9240  148.0020 C   0  0  0  0  0  3  0  0  0  0  0  0
  161.7250  206.5590  153.1120 C   0  0  0  0  0  2  0  0  0  0  0  0
  161.9820  209.4860  148.9690 C   0  0  2  0  0  3  0  0  0  0  0  0
  161.0970  203.3880  149.7830 O   0  0  0  0  0  0  0  0  0  0  0  0
  161.8540  210.3220  152.6840 C   0  0  0  0  0  3  0  0  0  0  0  0
  160.1790  206.9900  154.9960 C   0  0  0  0  0  3  0  0  0  0  0  0
  161.3130  208.4480  148.2860 O   0  0  0  0  0  0  0  0  0  0  0  0
  161.8340  209.3350  150.4740 C   0  0  0  0  0  0  0  0  0  0  0  0
  161.3940  205.6440  150.4310 C   0  0  0  0  0  3  0  0  0  0  0  0
  160.9370  208.1520  155.4950 C   0  0  0  0  0  3  0  0  0  0  0  0
  161.9700  207.2520  148.6190 C   0  0  2  0  0  3  0  0  0  0  0  0
  161.6190  206.1710  147.6250 C   0  0  0  0  0  3  0  0  0  0  0  0
  161.9290  210.4570  151.3030 C   0  0  0  0  0  3  0  0  0  0  0  0
  161.7030  209.0660  153.2720 C   0  0  0  0  0  0  0  0  0  0  0  0
  161.6020  209.0420  154.7470 C   0  0  0  0  0  3  0  0  0  0  0  0
  163.5520  211.7190  148.1150 O   0  0  0  0  0  0  0  0  0  0  0  0
  162.2970  211.8420  148.0890 C   0  0  0  0  0  0  0  0  0  0  0  0
  161.4550  210.7700  148.5230 N   0  0  0  0  0  2  0  0  0  0  0  0
  161.0490  213.8890  148.7340 C   0  0  0  0  0  1  0  0  0  0  0  0
  161.6970  213.1190  147.5950 C   0  0  2  0  0  3  0  0  0  0  0  0
  161.1470  212.6120  145.3350 O   0  0  0  0  0  0  0  0  0  0  0  0
  160.7190  212.8660  146.4920 C   0  0  0  0  0  0  0  0  0  0  0  0
  159.3130  212.8930  146.7560 N   0  0  0  0  0  2  0  0  0  0  0  0
  158.3290  212.6200  145.7210 C   0  0  2  0  0  3  0  0  0  0  0  0
  157.1580  213.5070  145.9040 C   0  0  0  0  0  2  0  0  0  0  0  0
  157.1410  212.1660  146.3290 O   0  0  0  0  0  0  0  0  0  0  0  0
  1  9  2  0  0  0  0
  1 14  1  0  0  0  0
  2  3  1  0  0  0  0
  3  7  1  0  0  0  0
  3 19  2  0  0  0  0
  4 11  2  0  0  0  0
  5 14  2  0  0  0  0
  5  2  1  0  0  0  0
  6  1  1  0  0  0  0
  7  4  1  0  0  0  0
  8 23  1  6  0  0  0
  8 13  1  0  0  0  0
 10 19  1  0  0  0  0
 11 15  1  0  0  0  0
 12 16  1  0  0  0  0
 12  8  1  0  0  0  0
 13  2  2  0  0  0  0
 13 18  1  0  0  0  0
 16 17  1  6  0  0  0
 16  5  1  0  0  0  0
 17  6  2  0  0  0  0
 18 10  2  0  0  0  0
 19 20  1  0  0  0  0
 20 15  2  0  0  0  0
 22 21  2  0  0  0  0
 22 23  1  0  0  0  0
 25 22  1  0  0  0  0
 25 24  1  1  0  0  0
 26 27  2  0  0  0  0
 27 28  1  0  0  0  0
 27 25  1  0  0  0  0
 29 30  1  0  0  0  0
 29 31  1  0  0  0  0
 29 28  1  1  0  0  0
 30 31  1  0  0  0  0
M  END
>  <MODEL>
2

>  <REMARK>
 VINA RESULT:      -8.6      3.671      7.310
  Name = 
  4 active torsions:
  status: ('A' for Active; 'I' for Inactive)
    1  A    between atoms: C_1  and  N_24
    2  A    between atoms: C_9  and  C_22
    3  A    between atoms: C_15  and  N_23
    4  A    between atoms: C_19  and  C_22
                            x       y       z     vdW  Elec       q    Type
                         _______ _______ _______ _____ _____    ______ ____

>  <TORSDO>
F 4

$$$$
=
 OpenBabel11052422303D

 31 35  0  0  1  0  0  0  0  0999 V2000
  161.2960  204.5340  149.4770 C   0  0  0  0  0  0  0  0  0  0  0  0
  161.7260  208.0120  151.0590 C   0  0  0  0  0  0  0  0  0  0  0  0
  161.6630  207.8910  152.4780 C   0  0  0  0  0  0  0  0  0  0  0  0
  160.4770  206.2860  153.9380 C   0  0  0  0  0  3  0  0  0  0  0  0
  161.6870  206.8630  150.1020 C   0  0  0  0  0  0  0  0  0  0  0  0
  161.3570  204.8630  148.0500 C   0  0  0  0  0  3  0  0  0  0  0  0
  161.7120  206.5500  153.1460 C   0  0  0  0  0  2  0  0  0  0  0  0
  161.9940  209.4350  148.9760 C   0  0  2  0  0  3  0  0  0  0  0  0
  161.1090  203.3450  149.8450 O   0  0  0  0  0  0  0  0  0  0  0  0
  161.8400  210.3080  152.6810 C   0  0  0  0  0  3  0  0  0  0  0  0
  160.1530  206.9980  155.0150 C   0  0  0  0  0  3  0  0  0  0  0  0
  161.3310  208.3900  148.2990 O   0  0  0  0  0  0  0  0  0  0  0  0
  161.8360  209.2990  150.4820 C   0  0  0  0  0  0  0  0  0  0  0  0
  161.4000  205.6080  150.4720 C   0  0  0  0  0  3  0  0  0  0  0  0
  160.9070  208.1660  155.5080 C   0  0  0  0  0  3  0  0  0  0  0  0
  161.9870  207.1980  148.6480 C   0  0  2  0  0  3  0  0  0  0  0  0
  161.6430  206.1070  147.6630 C   0  0  0  0  0  3  0  0  0  0  0  0
  161.9240  210.4290  151.2990 C   0  0  0  0  0  3  0  0  0  0  0  0
  161.6860  209.0580  153.2810 C   0  0  0  0  0  0  0  0  0  0  0  0
  161.5760  209.0490  154.7560 C   0  0  0  0  0  3  0  0  0  0  0  0
  163.5680  211.6790  148.1570 O   0  0  0  0  0  0  0  0  0  0  0  0
  162.3140  211.7920  148.0980 C   0  0  0  0  0  0  0  0  0  0  0  0
  161.4690  210.7140  148.5140 N   0  0  0  0  0  2  0  0  0  0  0  0
  160.7310  213.6410  148.5880 C   0  0  0  0  0  1  0  0  0  0  0  0
  161.7170  213.0630  147.5860 C   0  0  2  0  0  3  0  0  0  0  0  0
  159.8400  212.5910  146.2000 O   0  0  0  0  0  0  0  0  0  0  0  0
  161.0700  212.8590  146.2540 C   0  0  0  0  0  0  0  0  0  0  0  0
  161.8370  212.9870  145.0520 N   0  0  0  0  0  2  0  0  0  0  0  0
  161.2400  212.8300  143.7360 C   0  0  2  0  0  3  0  0  0  0  0  0
  162.2980  212.5240  142.7460 C   0  0  0  0  0  2  0  0  0  0  0  0
  161.7610  213.8180  142.8780 O   0  0  0  0  0  0  0  0  0  0  0  0
  1  9  2  0  0  0  0
  1 14  1  0  0  0  0
  2  3  1  0  0  0  0
  3  7  1  0  0  0  0
  3 19  2  0  0  0  0
  4 11  2  0  0  0  0
  5 14  2  0  0  0  0
  5  2  1  0  0  0  0
  6  1  1  0  0  0  0
  7  4  1  0  0  0  0
  8 23  1  6  0  0  0
  8 13  1  0  0  0  0
 10 19  1  0  0  0  0
 11 15  1  0  0  0  0
 12 16  1  0  0  0  0
 12  8  1  0  0  0  0
 13  2  2  0  0  0  0
 13 18  1  0  0  0  0
 16 17  1  6  0  0  0
 16  5  1  0  0  0  0
 17  6  2  0  0  0  0
 18 10  2  0  0  0  0
 19 20  1  0  0  0  0
 20 15  2  0  0  0  0
 22 21  2  0  0  0  0
 22 23  1  0  0  0  0
 25 22  1  0  0  0  0
 25 24  1  1  0  0  0
 26 27  2  0  0  0  0
 27 25  1  0  0  0  0
 28 27  1  0  0  0  0
 29 28  1  1  0  0  0
 30 31  1  0  0  0  0
 30 29  1  0  0  0  0
 31 29  1  0  0  0  0
M  END
>  <MODEL>
3

>  <REMARK>
 VINA RESULT:      -8.6      3.845      7.255
  Name = 
  4 active torsions:
  status: ('A' for Active; 'I' for Inactive)
    1  A    between atoms: C_1  and  N_24
    2  A    between atoms: C_9  and  C_22
    3  A    between atoms: C_15  and  N_23
    4  A    between atoms: C_19  and  C_22
                            x       y       z     vdW  Elec       q    Type
                         _______ _______ _______ _____ _____    ______ ____

>  <TORSDO>
F 4

$$$$
=
 OpenBabel11052422303D

 31 35  0  0  1  0  0  0  0  0999 V2000
  161.1510  204.3170  150.0390 C   0  0  0  0  0  0  0  0  0  0  0  0
  161.6550  207.9070  151.3190 C   0  0  0  0  0  0  0  0  0  0  0  0
  161.5970  207.9080  152.7430 C   0  0  0  0  0  0  0  0  0  0  0  0
  160.3860  206.4570  154.3370 C   0  0  0  0  0  3  0  0  0  0  0  0
  161.5900  206.6820  150.4630 C   0  0  0  0  0  0  0  0  0  0  0  0
  161.2120  204.5230  148.5890 C   0  0  0  0  0  3  0  0  0  0  0  0
  161.6230  206.6280  153.5220 C   0  0  0  0  0  2  0  0  0  0  0  0
  161.9420  209.1430  149.1220 C   0  0  2  0  0  3  0  0  0  0  0  0
  160.9430  203.1680  150.5070 O   0  0  0  0  0  0  0  0  0  0  0  0
  161.8220  210.3300  152.7400 C   0  0  0  0  0  3  0  0  0  0  0  0
  160.0810  207.2640  155.3520 C   0  0  0  0  0  3  0  0  0  0  0  0
  161.2560  208.0580  148.5380 O   0  0  0  0  0  0  0  0  0  0  0  0
  161.7880  209.1390  150.6340 C   0  0  0  0  0  0  0  0  0  0  0  0
  161.2800  205.4690  150.9390 C   0  0  0  0  0  3  0  0  0  0  0  0
  160.8600  208.4540  155.7410 C   0  0  0  0  0  3  0  0  0  0  0  0
  161.8900  206.8870  148.9860 C   0  0  2  0  0  3  0  0  0  0  0  0
  161.5210  205.7240  148.0970 C   0  0  0  0  0  3  0  0  0  0  0  0
  161.9020  210.3320  151.3530 C   0  0  0  0  0  3  0  0  0  0  0  0
  161.6460  209.1380  153.4440 C   0  0  0  0  0  0  0  0  0  0  0  0
  161.5420  209.2570  154.9150 C   0  0  0  0  0  3  0  0  0  0  0  0
  163.5260  211.4430  148.5000 O   0  0  0  0  0  0  0  0  0  0  0  0
  162.2920  211.4970  148.2480 C   0  0  0  0  0  0  0  0  0  0  0  0
  161.4400  210.3890  148.5540 N   0  0  0  0  0  2  0  0  0  0  0  0
  162.7150  213.8830  147.7060 C   0  0  0  0  0  1  0  0  0  0  0  0
  161.7270  212.7300  147.6200 C   0  0  2  0  0  3  0  0  0  0  0  0
  159.3850  213.1410  147.5150 O   0  0  0  0  0  0  0  0  0  0  0  0
  160.4160  213.1000  148.2370 C   0  0  0  0  0  0  0  0  0  0  0  0
  160.3320  213.3840  149.6370 N   0  0  0  0  0  2  0  0  0  0  0  0
  159.0730  213.7140  150.2830 C   0  0  2  0  0  3  0  0  0  0  0  0
  159.3200  214.0660  151.7000 C   0  0  0  0  0  2  0  0  0  0  0  0
  158.8410  212.7970  151.3270 O   0  0  0  0  0  0  0  0  0  0  0  0
  1  9  2  0  0  0  0
  1 14  1  0  0  0  0
  2  3  1  0  0  0  0
  3 19  2  0  0  0  0
  3  7  1  0  0  0  0
  4 11  2  0  0  0  0
  5 14  2  0  0  0  0
  5  2  1  0  0  0  0
  6  1  1  0  0  0  0
  7  4  1  0  0  0  0
  8 23  1  6  0  0  0
  8 13  1  0  0  0  0
 10 19  1  0  0  0  0
 11 15  1  0  0  0  0
 12 16  1  0  0  0  0
 12  8  1  0  0  0  0
 13  2  2  0  0  0  0
 13 18  1  0  0  0  0
 16 17  1  6  0  0  0
 16  5  1  0  0  0  0
 17  6  2  0  0  0  0
 18 10  2  0  0  0  0
 19 20  1  0  0  0  0
 20 15  2  0  0  0  0
 22 21  2  0  0  0  0
 22 23  1  0  0  0  0
 25 24  1  1  0  0  0
 25 27  1  0  0  0  0
 25 22  1  0  0  0  0
 26 27  2  0  0  0  0
 27 28  1  0  0  0  0
 29 28  1  6  0  0  0
 29 31  1  0  0  0  0
 29 30  1  0  0  0  0
 31 30  1  0  0  0  0
M  END
>  <MODEL>
4

>  <REMARK>
 VINA RESULT:      -8.4      3.221      7.442
  Name = 
  4 active torsions:
  status: ('A' for Active; 'I' for Inactive)
    1  A    between atoms: C_1  and  N_24
    2  A    between atoms: C_9  and  C_22
    3  A    between atoms: C_15  and  N_23
    4  A    between atoms: C_19  and  C_22
                            x       y       z     vdW  Elec       q    Type
                         _______ _______ _______ _____ _____    ______ ____

>  <TORSDO>
F 4

$$$$
=
 OpenBabel11052422303D

 31 35  0  0  1  0  0  0  0  0999 V2000
  161.0580  206.9810  154.1360 C   0  0  0  0  0  0  0  0  0  0  0  0
  161.6250  208.5470  150.6700 C   0  0  0  0  0  0  0  0  0  0  0  0
  161.5650  209.9660  150.7830 C   0  0  0  0  0  0  0  0  0  0  0  0
  160.3240  211.4380  152.3350 C   0  0  0  0  0  3  0  0  0  0  0  0
  161.5390  207.5950  151.8210 C   0  0  0  0  0  0  0  0  0  0  0  0
  161.1270  205.5520  153.8140 C   0  0  0  0  0  3  0  0  0  0  0  0
  161.5650  210.6400  152.1220 C   0  0  0  0  0  2  0  0  0  0  0  0
  161.9390  206.4560  149.2660 C   0  0  2  0  0  3  0  0  0  0  0  0
  160.8290  207.3550  155.3150 O   0  0  0  0  0  0  0  0  0  0  0  0
  161.8330  210.1590  148.3730 C   0  0  0  0  0  3  0  0  0  0  0  0
  160.0310  212.5130  151.6080 C   0  0  0  0  0  3  0  0  0  0  0  0
  161.2340  205.7870  150.2890 O   0  0  0  0  0  0  0  0  0  0  0  0
  161.7820  207.9640  149.3900 C   0  0  0  0  0  0  0  0  0  0  0  0
  161.2070  207.9710  153.0620 C   0  0  0  0  0  3  0  0  0  0  0  0
  160.8310  212.9980  150.4670 C   0  0  0  0  0  3  0  0  0  0  0  0
  161.8460  206.1390  151.5030 C   0  0  2  0  0  3  0  0  0  0  0  0
  161.4570  205.1590  152.5840 C   0  0  0  0  0  3  0  0  0  0  0  0
  161.9160  208.7760  148.2610 C   0  0  0  0  0  3  0  0  0  0  0  0
  161.6340  210.7640  149.6140 C   0  0  0  0  0  0  0  0  0  0  0  0
  161.5300  212.2400  149.6130 C   0  0  0  0  0  3  0  0  0  0  0  0
  163.5460  205.2200  147.2490 O   0  0  0  0  0  0  0  0  0  0  0  0
  162.3160  205.3610  147.0110 C   0  0  0  0  0  0  0  0  0  0  0  0
  161.4610  205.9910  147.9700 N   0  0  0  0  0  2  0  0  0  0  0  0
  160.7180  205.8200  145.1680 C   0  0  0  0  0  1  0  0  0  0  0  0
  161.7580  204.8590  145.7190 C   0  0  2  0  0  3  0  0  0  0  0  0
  160.6290  202.9360  144.8860 O   0  0  0  0  0  0  0  0  0  0  0  0
  161.1900  203.4840  145.8720 C   0  0  0  0  0  0  0  0  0  0  0  0
  161.3000  202.7930  147.1200 N   0  0  0  0  0  2  0  0  0  0  0  0
  160.7920  201.4430  147.3020 C   0  0  2  0  0  3  0  0  0  0  0  0
  160.3350  201.2700  148.6990 C   0  0  0  0  0  2  0  0  0  0  0  0
  161.5810  200.7840  148.2650 O   0  0  0  0  0  0  0  0  0  0  0  0
  1  9  2  0  0  0  0
  2  3  1  0  0  0  0
  2  5  1  0  0  0  0
  3  7  1  0  0  0  0
  5 14  2  0  0  0  0
  6  1  1  0  0  0  0
  7  4  1  0  0  0  0
  8 23  1  6  0  0  0
  8 13  1  0  0  0  0
  8 12  1  0  0  0  0
 10 19  1  0  0  0  0
 11  4  2  0  0  0  0
 12 16  1  0  0  0  0
 13  2  2  0  0  0  0
 14  1  1  0  0  0  0
 15 11  1  0  0  0  0
 16  5  1  0  0  0  0
 16 17  1  1  0  0  0
 17  6  2  0  0  0  0
 18 10  2  0  0  0  0
 18 13  1  0  0  0  0
 19  3  2  0  0  0  0
 20 19  1  0  0  0  0
 20 15  2  0  0  0  0
 22 21  2  0  0  0  0
 22 23  1  0  0  0  0
 25 24  1  1  0  0  0
 25 27  1  0  0  0  0
 25 22  1  0  0  0  0
 26 27  2  0  0  0  0
 27 28  1  0  0  0  0
 29 28  1  1  0  0  0
 29 31  1  0  0  0  0
 29 30  1  0  0  0  0
 31 30  1  0  0  0  0
M  END
>  <MODEL>
5

>  <REMARK>
 VINA RESULT:      -7.9      1.500      2.863
  Name = 
  4 active torsions:
  status: ('A' for Active; 'I' for Inactive)
    1  A    between atoms: C_1  and  N_24
    2  A    between atoms: C_9  and  C_22
    3  A    between atoms: C_15  and  N_23
    4  A    between atoms: C_19  and  C_22
                            x       y       z     vdW  Elec       q    Type
                         _______ _______ _______ _____ _____    ______ ____

>  <TORSDO>
F 4

$$$$
=
 OpenBabel11052422303D

 31 35  0  0  1  0  0  0  0  0999 V2000
  161.6830  207.2900  147.3830 C   0  0  0  0  0  0  0  0  0  0  0  0
  161.4230  205.3570  150.6960 C   0  0  0  0  0  0  0  0  0  0  0  0
  161.3260  203.9620  150.4170 C   0  0  0  0  0  0  0  0  0  0  0  0
  160.3860  202.7360  148.4870 C   0  0  0  0  0  3  0  0  0  0  0  0
  161.6280  206.4210  149.6650 C   0  0  0  0  0  0  0  0  0  0  0  0
  161.7430  208.6730  147.8670 C   0  0  0  0  0  3  0  0  0  0  0  0
  161.5850  203.4260  149.0420 C   0  0  0  0  0  2  0  0  0  0  0  0
  161.5180  207.2740  152.3560 C   0  0  2  0  0  3  0  0  0  0  0  0
  161.6960  207.0510  146.1480 O   0  0  0  0  0  0  0  0  0  0  0  0
  161.0610  203.5170  152.7930 C   0  0  0  0  0  3  0  0  0  0  0  0
  159.8960  201.6160  149.0140 C   0  0  0  0  0  3  0  0  0  0  0  0
  161.0790  208.0860  151.2890 O   0  0  0  0  0  0  0  0  0  0  0  0
  161.3250  205.8000  152.0370 C   0  0  0  0  0  0  0  0  0  0  0  0
  161.5540  206.1920  148.3480 C   0  0  0  0  0  3  0  0  0  0  0  0
  160.4100  200.9700  150.2360 C   0  0  0  0  0  3  0  0  0  0  0  0
  161.9220  207.8160  150.1990 C   0  0  2  0  0  3  0  0  0  0  0  0
  161.8180  208.9210  149.1750 C   0  0  0  0  0  3  0  0  0  0  0  0
  161.1780  204.8730  153.0730 C   0  0  0  0  0  3  0  0  0  0  0  0
  161.1080  203.0500  151.4790 C   0  0  0  0  0  0  0  0  0  0  0  0
  160.9410  201.5930  151.2960 C   0  0  0  0  0  3  0  0  0  0  0  0
  162.0000  209.6060  153.9410 O   0  0  0  0  0  0  0  0  0  0  0  0
  161.0710  208.8340  154.3030 C   0  0  0  0  0  0  0  0  0  0  0  0
  160.7930  207.6400  153.5670 N   0  0  0  0  0  2  0  0  0  0  0  0
  159.5540  207.9550  156.0600 C   0  0  0  0  0  1  0  0  0  0  0  0
  160.2600  209.1830  155.5100 C   0  0  2  0  0  3  0  0  0  0  0  0
  158.6020  210.7680  156.1470 O   0  0  0  0  0  0  0  0  0  0  0  0
  159.2830  210.2740  155.2080 C   0  0  0  0  0  0  0  0  0  0  0  0
  159.1380  210.7640  153.8720 N   0  0  0  0  0  2  0  0  0  0  0  0
  158.2250  211.8450  153.5420 C   0  0  2  0  0  3  0  0  0  0  0  0
  158.6910  212.5290  152.3140 C   0  0  0  0  0  2  0  0  0  0  0  0
  158.9260  213.0660  153.5930 O   0  0  0  0  0  0  0  0  0  0  0  0
  1  6  1  0  0  0  0
  1 14  1  0  0  0  0
  2 13  1  0  0  0  0
  3  2  2  0  0  0  0
  3 19  1  0  0  0  0
  4 11  2  0  0  0  0
  4  7  1  0  0  0  0
  5 16  1  0  0  0  0
  5  2  1  0  0  0  0
  6 17  2  0  0  0  0
  7  3  1  0  0  0  0
  8 23  1  1  0  0  0
  9  1  2  0  0  0  0
 10 18  1  0  0  0  0
 11 15  1  0  0  0  0
 12  8  1  0  0  0  0
 13  8  1  0  0  0  0
 13 18  2  0  0  0  0
 14  5  2  0  0  0  0
 15 20  2  0  0  0  0
 16 17  1  6  0  0  0
 16 12  1  0  0  0  0
 19 10  2  0  0  0  0
 20 19  1  0  0  0  0
 21 22  2  0  0  0  0
 22 25  1  0  0  0  0
 23 22  1  0  0  0  0
 25 24  1  6  0  0  0
 27 25  1  0  0  0  0
 27 26  2  0  0  0  0
 28 27  1  0  0  0  0
 29 31  1  0  0  0  0
 29 28  1  1  0  0  0
 30 29  1  0  0  0  0
 30 31  1  0  0  0  0
M  END
>  <MODEL>
6

>  <REMARK>
 VINA RESULT:      -7.6      2.608      8.070
  Name = 
  4 active torsions:
  status: ('A' for Active; 'I' for Inactive)
    1  A    between atoms: C_1  and  N_24
    2  A    between atoms: C_9  and  C_22
    3  A    between atoms: C_15  and  N_23
    4  A    between atoms: C_19  and  C_22
                            x       y       z     vdW  Elec       q    Type
                         _______ _______ _______ _____ _____    ______ ____

>  <TORSDO>
F 4

$$$$
=
 OpenBabel11052422303D

 31 35  0  0  1  0  0  0  0  0999 V2000
  161.2080  201.3510  150.1780 C   0  0  0  0  0  0  0  0  0  0  0  0
  160.9170  204.9700  148.9120 C   0  0  0  0  0  0  0  0  0  0  0  0
  160.9220  204.9680  147.4870 C   0  0  0  0  0  0  0  0  0  0  0  0
  161.9650  203.4360  145.8510 C   0  0  0  0  0  3  0  0  0  0  0  0
  160.9260  203.7420  149.7670 C   0  0  0  0  0  0  0  0  0  0  0  0
  161.2150  201.5590  151.6290 C   0  0  0  0  0  3  0  0  0  0  0  0
  160.7750  203.6940  146.7110 C   0  0  0  0  0  2  0  0  0  0  0  0
  160.8020  206.2200  151.1170 C   0  0  2  0  0  3  0  0  0  0  0  0
  161.3150  200.1900  149.7040 O   0  0  0  0  0  0  0  0  0  0  0  0
  160.8730  207.4000  147.4950 C   0  0  0  0  0  3  0  0  0  0  0  0
  162.2900  204.2200  144.8250 C   0  0  0  0  0  3  0  0  0  0  0  0
  161.4290  205.0870  151.6760 O   0  0  0  0  0  0  0  0  0  0  0  0
  160.8990  206.2070  149.6000 C   0  0  0  0  0  0  0  0  0  0  0  0
  161.1290  202.5100  149.2820 C   0  0  0  0  0  3  0  0  0  0  0  0
  161.5850  205.4630  144.4630 C   0  0  0  0  0  3  0  0  0  0  0  0
  160.6960  203.9660  151.2540 C   0  0  2  0  0  3  0  0  0  0  0  0
  161.0130  202.7780  152.1310 C   0  0  0  0  0  3  0  0  0  0  0  0
  160.8450  207.4060  148.8840 C   0  0  0  0  0  3  0  0  0  0  0  0
  160.9360  206.2000  146.7860 C   0  0  0  0  0  0  0  0  0  0  0  0
  160.9940  206.3120  145.3130 C   0  0  0  0  0  3  0  0  0  0  0  0
  160.4400  207.2070  153.7780 O   0  0  0  0  0  0  0  0  0  0  0  0
  161.2060  207.8540  153.0130 C   0  0  0  0  0  0  0  0  0  0  0  0
  161.4130  207.4260  151.6640 N   0  0  0  0  0  2  0  0  0  0  0  0
  161.5880  209.2860  155.0050 C   0  0  0  0  0  1  0  0  0  0  0  0
  161.9000  209.0710  153.5330 C   0  0  2  0  0  3  0  0  0  0  0  0
  162.1940  210.5320  151.6760 O   0  0  0  0  0  0  0  0  0  0  0  0
  161.5460  210.2810  152.7270 C   0  0  0  0  0  0  0  0  0  0  0  0
  160.4720  211.1320  153.1370 N   0  0  0  0  0  2  0  0  0  0  0  0
  160.0740  212.2980  152.3660 C   0  0  2  0  0  3  0  0  0  0  0  0
  159.0080  213.0290  153.0870 C   0  0  0  0  0  2  0  0  0  0  0  0
  158.7160  212.1700  152.0120 O   0  0  0  0  0  0  0  0  0  0  0  0
  1  6  1  0  0  0  0
  2 13  1  0  0  0  0
  2  5  1  0  0  0  0
  3  2  2  0  0  0  0
  4  7  1  0  0  0  0
  5 16  1  0  0  0  0
  6 17  2  0  0  0  0
  7  3  1  0  0  0  0
  8 23  1  1  0  0  0
  8 12  1  0  0  0  0
  9  1  2  0  0  0  0
 10 18  1  0  0  0  0
 11  4  2  0  0  0  0
 13  8  1  0  0  0  0
 14  5  2  0  0  0  0
 14  1  1  0  0  0  0
 15 11  1  0  0  0  0
 15 20  2  0  0  0  0
 16 12  1  0  0  0  0
 16 17  1  1  0  0  0
 18 13  2  0  0  0  0
 19  3  1  0  0  0  0
 19 10  2  0  0  0  0
 20 19  1  0  0  0  0
 22 25  1  0  0  0  0
 22 21  2  0  0  0  0
 23 22  1  0  0  0  0
 25 24  1  1  0  0  0
 26 27  2  0  0  0  0
 27 28  1  0  0  0  0
 27 25  1  0  0  0  0
 29 30  1  0  0  0  0
 29 28  1  1  0  0  0
 31 29  1  0  0  0  0
 31 30  1  0  0  0  0
M  END
>  <MODEL>
7

>  <REMARK>
 VINA RESULT:      -7.1      2.406      7.311
  Name = 
  4 active torsions:
  status: ('A' for Active; 'I' for Inactive)
    1  A    between atoms: C_1  and  N_24
    2  A    between atoms: C_9  and  C_22
    3  A    between atoms: C_15  and  N_23
    4  A    between atoms: C_19  and  C_22
                            x       y       z     vdW  Elec       q    Type
                         _______ _______ _______ _____ _____    ______ ____

>  <TORSDO>
F 4

$$$$
=
 OpenBabel11052422303D

 31 35  0  0  1  0  0  0  0  0999 V2000
  161.0960  205.4770  145.8450 C   0  0  0  0  0  0  0  0  0  0  0  0
  161.2660  204.8600  149.6370 C   0  0  0  0  0  0  0  0  0  0  0  0
  161.2230  203.4570  149.8840 C   0  0  0  0  0  0  0  0  0  0  0  0
  160.1730  201.6010  148.6320 C   0  0  0  0  0  3  0  0  0  0  0  0
  161.3100  205.4860  148.2790 C   0  0  0  0  0  0  0  0  0  0  0  0
  161.1230  206.9420  145.7970 C   0  0  0  0  0  3  0  0  0  0  0  0
  161.3790  202.4670  148.7700 C   0  0  0  0  0  2  0  0  0  0  0  0
  161.4110  207.2470  150.4860 C   0  0  2  0  0  3  0  0  0  0  0  0
  161.0040  204.8100  144.7830 O   0  0  0  0  0  0  0  0  0  0  0  0
  161.2140  203.8900  152.2770 C   0  0  0  0  0  3  0  0  0  0  0  0
  159.8020  200.7360  149.5730 C   0  0  0  0  0  3  0  0  0  0  0  0
  160.8260  207.6130  149.2550 O   0  0  0  0  0  0  0  0  0  0  0  0
  161.2730  205.7530  150.7350 C   0  0  0  0  0  0  0  0  0  0  0  0
  161.1230  204.7970  147.1460 C   0  0  0  0  0  3  0  0  0  0  0  0
  160.4670  200.5820  150.8800 C   0  0  0  0  0  3  0  0  0  0  0  0
  161.5740  206.9840  148.2460 C   0  0  2  0  0  3  0  0  0  0  0  0
  161.3090  207.6450  146.9150 C   0  0  0  0  0  3  0  0  0  0  0  0
  161.2790  205.2580  152.0420 C   0  0  0  0  0  3  0  0  0  0  0  0
  161.1600  202.9840  151.2180 C   0  0  0  0  0  0  0  0  0  0  0  0
  161.0610  201.5540  151.5840 C   0  0  0  0  0  3  0  0  0  0  0  0
  162.1490  209.8900  151.2940 O   0  0  0  0  0  0  0  0  0  0  0  0
  161.1910  209.3390  151.9000 C   0  0  0  0  0  0  0  0  0  0  0  0
  160.7850  208.0100  151.5590 N   0  0  0  0  0  2  0  0  0  0  0  0
  160.4690  211.5820  152.6830 C   0  0  0  0  0  1  0  0  0  0  0  0
  160.4780  210.0910  152.9780 C   0  0  2  0  0  3  0  0  0  0  0  0
  161.7720  210.7040  154.8800 O   0  0  0  0  0  0  0  0  0  0  0  0
  161.0790  209.8140  154.3190 C   0  0  0  0  0  0  0  0  0  0  0  0
  160.8510  208.5580  154.9660 N   0  0  0  0  0  2  0  0  0  0  0  0
  161.3870  208.2610  156.2840 C   0  0  2  0  0  3  0  0  0  0  0  0
  160.4720  207.3400  156.9960 C   0  0  0  0  0  2  0  0  0  0  0  0
  160.4830  208.7220  157.2600 O   0  0  0  0  0  0  0  0  0  0  0  0
  1 14  1  0  0  0  0
  2  3  2  0  0  0  0
  2 13  1  0  0  0  0
  3 19  1  0  0  0  0
  4  7  1  0  0  0  0
  4 11  2  0  0  0  0
  5  2  1  0  0  0  0
  6  1  1  0  0  0  0
  6 17  2  0  0  0  0
  7  3  1  0  0  0  0
  8 13  1  0  0  0  0
  8 23  1  1  0  0  0
  9  1  2  0  0  0  0
 11 15  1  0  0  0  0
 12  8  1  0  0  0  0
 13 18  2  0  0  0  0
 14  5  2  0  0  0  0
 15 20  2  0  0  0  0
 16 17  1  6  0  0  0
 16  5  1  0  0  0  0
 16 12  1  0  0  0  0
 18 10  1  0  0  0  0
 19 20  1  0  0  0  0
 19 10  2  0  0  0  0
 21 22  2  0  0  0  0
 22 25  1  0  0  0  0
 23 22  1  0  0  0  0
 25 24  1  6  0  0  0
 25 27  1  0  0  0  0
 27 26  2  0  0  0  0
 27 28  1  0  0  0  0
 29 28  1  6  0  0  0
 29 30  1  0  0  0  0
 29 31  1  0  0  0  0
 30 31  1  0  0  0  0
M  END
>  <MODEL>
8

>  <REMARK>
 VINA RESULT:      -7.0      2.417      8.519
  Name = 
  4 active torsions:
  status: ('A' for Active; 'I' for Inactive)
    1  A    between atoms: C_1  and  N_24
    2  A    between atoms: C_9  and  C_22
    3  A    between atoms: C_15  and  N_23
    4  A    between atoms: C_19  and  C_22
                            x       y       z     vdW  Elec       q    Type
                         _______ _______ _______ _____ _____    ______ ____

>  <TORSDO>
F 4

$$$$
=
 OpenBabel11052422303D

 31 35  0  0  1  0  0  0  0  0999 V2000
  161.1980  201.7620  150.4780 C   0  0  0  0  0  0  0  0  0  0  0  0
  160.9100  205.1690  148.7200 C   0  0  0  0  0  0  0  0  0  0  0  0
  160.8940  204.9670  147.3090 C   0  0  0  0  0  0  0  0  0  0  0  0
  161.9040  203.2110  145.8910 C   0  0  0  0  0  3  0  0  0  0  0  0
  160.9240  204.0740  149.7390 C   0  0  0  0  0  0  0  0  0  0  0  0
  161.2280  202.1720  151.8850 C   0  0  0  0  0  3  0  0  0  0  0  0
  160.7280  203.5980  146.7230 C   0  0  0  0  0  2  0  0  0  0  0  0
  160.8340  206.7180  150.7280 C   0  0  2  0  0  3  0  0  0  0  0  0
  161.2920  200.5450  150.1710 O   0  0  0  0  0  0  0  0  0  0  0  0
  160.8590  207.3760  146.9760 C   0  0  0  0  0  3  0  0  0  0  0  0
  162.2180  203.8410  144.7610 C   0  0  0  0  0  3  0  0  0  0  0  0
  161.4630  205.6700  151.4330 O   0  0  0  0  0  0  0  0  0  0  0  0
  160.9090  206.4910  149.2270 C   0  0  0  0  0  0  0  0  0  0  0  0
  161.1130  202.7840  149.4290 C   0  0  0  0  0  3  0  0  0  0  0  0
  161.5150  205.0270  144.2370 C   0  0  0  0  0  3  0  0  0  0  0  0
  160.7170  204.5060  151.1830 C   0  0  2  0  0  3  0  0  0  0  0  0
  161.0400  203.4510  152.2130 C   0  0  0  0  0  3  0  0  0  0  0  0
  160.8510  207.5780  148.3500 C   0  0  0  0  0  3  0  0  0  0  0  0
  160.9050  206.0880  146.4420 C   0  0  0  0  0  0  0  0  0  0  0  0
  160.9410  205.9910  144.9670 C   0  0  0  0  0  3  0  0  0  0  0  0
  160.2650  208.2380  153.0840 O   0  0  0  0  0  0  0  0  0  0  0  0
  161.1440  208.6850  152.2980 C   0  0  0  0  0  0  0  0  0  0  0  0
  161.4600  207.9840  151.0910 N   0  0  0  0  0  2  0  0  0  0  0  0
  161.5960  210.3460  154.0870 C   0  0  0  0  0  1  0  0  0  0  0  0
  161.8560  209.9530  152.6410 C   0  0  2  0  0  3  0  0  0  0  0  0
  160.7260  211.9840  152.1230 O   0  0  0  0  0  0  0  0  0  0  0  0
  161.4740  211.0580  151.7090 C   0  0  0  0  0  0  0  0  0  0  0  0
  161.9690  211.0720  150.3660 N   0  0  0  0  0  2  0  0  0  0  0  0
  161.6500  212.1440  149.4380 C   0  0  2  0  0  3  0  0  0  0  0  0
  161.5980  211.6070  148.0590 C   0  0  0  0  0  2  0  0  0  0  0  0
  162.7230  212.3030  148.5380 O   0  0  0  0  0  0  0  0  0  0  0  0
  1  6  1  0  0  0  0
  2 13  1  0  0  0  0
  2  5  1  0  0  0  0
  3  2  2  0  0  0  0
  4  7  1  0  0  0  0
  5 16  1  0  0  0  0
  6 17  2  0  0  0  0
  7  3  1  0  0  0  0
  8 23  1  6  0  0  0
  8 12  1  0  0  0  0
  9  1  2  0  0  0  0
 10 18  1  0  0  0  0
 11  4  2  0  0  0  0
 13  8  1  0  0  0  0
 14  5  2  0  0  0  0
 14  1  1  0  0  0  0
 15 11  1  0  0  0  0
 15 20  2  0  0  0  0
 16 12  1  0  0  0  0
 16 17  1  1  0  0  0
 18 13  2  0  0  0  0
 19 10  2  0  0  0  0
 19  3  1  0  0  0  0
 20 19  1  0  0  0  0
 22 25  1  0  0  0  0
 22 21  2  0  0  0  0
 23 22  1  0  0  0  0
 25 24  1  1  0  0  0
 27 26  2  0  0  0  0
 27 25  1  0  0  0  0
 28 27  1  0  0  0  0
 29 28  1  1  0  0  0
 30 31  1  0  0  0  0
 30 29  1  0  0  0  0
 31 29  1  0  0  0  0
M  END
>  <MODEL>
9

>  <REMARK>
 VINA RESULT:      -6.9      2.486      7.047
  Name = 
  4 active torsions:
  status: ('A' for Active; 'I' for Inactive)
    1  A    between atoms: C_1  and  N_24
    2  A    between atoms: C_9  and  C_22
    3  A    between atoms: C_15  and  N_23
    4  A    between atoms: C_19  and  C_22
                            x       y       z     vdW  Elec       q    Type
                         _______ _______ _______ _____ _____    ______ ____

>  <TORSDO>
F 4

$$$$
