=
 OpenBabel11062409323D

 34 38  0  0  1  0  0  0  0  0999 V2000
  160.5990  207.5510  155.0060 O   0  0  0  0  0  0  0  0  0  0  0  0
  160.0340  212.3940  155.0720 C   0  0  0  0  0  2  0  0  0  0  0  0
  160.4170  211.0520  152.9190 C   0  0  0  0  0  2  0  0  0  0  0  0
  160.7210  208.6630  154.4250 C   0  0  0  0  0  0  0  0  0  0  0  0
  161.1120  208.3550  150.7530 C   0  0  0  0  0  2  0  0  0  0  0  0
  161.2360  209.7990  150.9750 N   0  0  0  0  0  0  0  0  0  0  0  0
  160.9440  207.6690  152.0980 C   0  0  2  0  0  3  0  0  0  0  0  0
  161.4010  209.9960  152.4120 C   0  0  2  0  0  3  0  0  0  0  0  0
  161.1360  208.7270  153.0550 N   0  0  0  0  0  0  0  0  0  0  0  0
  162.4760  210.2160  150.3440 C   0  0  0  0  0  1  0  0  0  0  0  0
  160.2900  212.4020  156.5780 C   0  0  0  0  0  2  0  0  0  0  0  0
  159.7040  211.1560  157.2390 C   0  0  2  0  0  3  0  0  0  0  0  0
  160.3740  211.0780  154.4260 C   0  0  0  0  0  0  0  0  0  0  0  0
  160.3360  209.9020  156.6410 C   0  0  0  0  0  2  0  0  0  0  0  0
  160.4300  209.9240  155.1350 C   0  0  0  0  0  0  0  0  0  0  0  0
  162.0140  206.6010  152.2830 C   0  0  0  0  0  2  0  0  0  0  0  0
  162.1220  206.1990  149.4650 F   0  0  0  0  0  0  0  0  0  0  0  0
  160.7340  203.0670  151.8270 C   0  0  0  0  0  3  0  0  0  0  0  0
  161.3530  202.4170  147.7370 N   0  0  0  0  0  0  0  0  0  0  0  0
  161.2900  203.8280  148.1410 C   0  0  0  0  0  2  0  0  0  0  0  0
  161.2840  203.9660  149.6390 C   0  0  0  0  0  0  0  0  0  0  0  0
  161.6090  205.3190  151.6300 C   0  0  0  0  0  0  0  0  0  0  0  0
  160.4030  201.5970  149.8340 C   0  0  0  0  0  2  0  0  0  0  0  0
  160.7900  202.9150  150.4400 C   0  0  0  0  0  0  0  0  0  0  0  0
  160.2120  201.7130  148.3230 C   0  0  0  0  0  2  0  0  0  0  0  0
  161.1380  204.2650  152.4200 C   0  0  0  0  0  3  0  0  0  0  0  0
  161.6770  205.1730  150.2360 C   0  0  0  0  0  0  0  0  0  0  0  0
  161.2940  203.6600  145.6180 C   0  0  0  0  0  1  0  0  0  0  0  0
  161.2590  202.2920  146.2780 C   0  0  2  0  0  3  0  0  0  0  0  0
  160.1090  201.5970  145.8870 O   0  0  0  0  0  1  0  0  0  0  0  0
  158.1850  211.1020  157.1240 C   0  0  0  0  0  2  0  0  0  0  0  0
  157.6260  212.4380  157.2610 N   0  0  0  0  0  2  0  0  0  0  0  0
  156.4740  212.5120  156.3770 C   0  0  0  0  0  2  0  0  0  0  0  0
  156.4810  211.3320  155.4250 C   0  0  0  0  0  1  0  0  0  0  0  0
  2 11  1  0  0  0  0
  3 13  1  0  0  0  0
  4  1  2  0  0  0  0
  4 15  1  0  0  0  0
  5  6  1  0  0  0  0
  5  7  1  0  0  0  0
  6  8  1  0  0  0  0
  7 16  1  1  0  0  0
  7  9  1  0  0  0  0
  8  3  1  1  0  0  0
  8  9  1  0  0  0  0
  9  4  1  0  0  0  0
 10  6  1  0  0  0  0
 11 12  1  0  0  0  0
 12 31  1  6  0  0  0
 13  2  1  0  0  0  0
 13 15  2  0  0  0  0
 14 12  1  0  0  0  0
 15 14  1  0  0  0  0
 17 27  1  0  0  0  0
 18 26  1  0  0  0  0
 19 20  1  0  0  0  0
 19 25  1  0  0  0  0
 20 21  1  0  0  0  0
 21 27  2  0  0  0  0
 21 24  1  0  0  0  0
 22 16  1  0  0  0  0
 22 26  2  0  0  0  0
 23 24  1  0  0  0  0
 24 18  2  0  0  0  0
 25 23  1  0  0  0  0
 27 22  1  0  0  0  0
 29 28  1  6  0  0  0
 29 19  1  0  0  0  0
 30 29  1  0  0  0  0
 31 32  1  0  0  0  0
 33 32  1  0  0  0  0
 34 33  1  0  0  0  0
M  END
>  <MODEL>
1

>  <REMARK>
 VINA RESULT:      -8.5      0.000      0.000
  Name = 
  6 active torsions:
  status: ('A' for Active; 'I' for Inactive)
    1  A    between atoms: C_3  and  N_24
    2  A    between atoms: N_7  and  C_15
    3  A    between atoms: C_8  and  C_17
    4  A    between atoms: C_8  and  C_18
    5  A    between atoms: N_24  and  C_25
    6  A    between atoms: C_25  and  C_27
                            x       y       z     vdW  Elec       q    Type
                         _______ _______ _______ _____ _____    ______ ____

>  <TORSDO>
F 6

$$$$
=
 OpenBabel11062409323D

 34 38  0  0  1  0  0  0  0  0999 V2000
  161.7450  208.8030  148.6610 O   0  0  0  0  0  0  0  0  0  0  0  0
  161.5860  203.9640  148.0810 C   0  0  0  0  0  2  0  0  0  0  0  0
  160.9750  205.1380  150.2800 C   0  0  0  0  0  2  0  0  0  0  0  0
  161.6980  207.6530  149.1740 C   0  0  0  0  0  0  0  0  0  0  0  0
  160.5520  207.6720  152.6980 C   0  0  0  0  0  2  0  0  0  0  0  0
  160.8530  206.2570  152.4590 N   0  0  0  0  0  0  0  0  0  0  0  0
  160.8950  208.4600  151.4440 C   0  0  2  0  0  3  0  0  0  0  0  0
  161.5970  206.1850  151.2060 C   0  0  2  0  0  3  0  0  0  0  0  0
  161.5280  207.4920  150.5870 N   0  0  0  0  0  0  0  0  0  0  0  0
  161.7580  205.8370  153.5150 C   0  0  0  0  0  1  0  0  0  0  0  0
  162.4280  204.0900  146.8130 C   0  0  0  0  0  2  0  0  0  0  0  0
  162.0750  205.3620  146.0460 C   0  0  2  0  0  3  0  0  0  0  0  0
  161.5460  205.2340  148.8870 C   0  0  0  0  0  0  0  0  0  0  0  0
  162.3260  206.5860  146.9230 C   0  0  0  0  0  2  0  0  0  0  0  0
  161.8040  206.4440  148.3330 C   0  0  0  0  0  0  0  0  0  0  0  0
  161.8730  209.5790  151.7760 C   0  0  0  0  0  2  0  0  0  0  0  0
  159.7670  211.4930  151.6380 F   0  0  0  0  0  0  0  0  0  0  0  0
  161.6290  210.9080  155.3130 C   0  0  0  0  0  3  0  0  0  0  0  0
  158.2400  213.3580  155.1120 N   0  0  0  0  0  0  0  0  0  0  0  0
  158.8850  213.0800  153.8220 C   0  0  0  0  0  2  0  0  0  0  0  0
  159.9520  212.0290  153.9610 C   0  0  0  0  0  0  0  0  0  0  0  0
  161.4090  210.3610  152.9610 C   0  0  0  0  0  0  0  0  0  0  0  0
  160.1490  212.5840  156.4270 C   0  0  0  0  0  2  0  0  0  0  0  0
  160.6020  211.8470  155.2000 C   0  0  0  0  0  0  0  0  0  0  0  0
  159.2670  213.7780  156.0660 C   0  0  0  0  0  2  0  0  0  0  0  0
  162.0350  210.1710  154.1970 C   0  0  0  0  0  3  0  0  0  0  0  0
  160.3690  211.2960  152.8400 C   0  0  0  0  0  0  0  0  0  0  0  0
  156.2280  214.3830  156.0810 C   0  0  0  0  0  1  0  0  0  0  0  0
  157.2720  214.4530  154.9810 C   0  0  2  0  0  3  0  0  0  0  0  0
  156.6510  214.4530  153.7260 O   0  0  0  0  0  1  0  0  0  0  0  0
  160.6390  205.3490  145.5350 C   0  0  0  0  0  2  0  0  0  0  0  0
  160.5460  204.5430  144.3280 N   0  0  0  0  0  2  0  0  0  0  0  0
  159.4800  203.5780  144.5400 C   0  0  0  0  0  2  0  0  0  0  0  0
  160.0710  202.2380  144.9330 C   0  0  0  0  0  1  0  0  0  0  0  0
  1  4  2  0  0  0  0
  2 13  1  0  0  0  0
  4  9  1  0  0  0  0
  6  5  1  0  0  0  0
  6 10  1  0  0  0  0
  7 16  1  1  0  0  0
  7  5  1  0  0  0  0
  8  3  1  6  0  0  0
  8  6  1  0  0  0  0
  9  8  1  0  0  0  0
  9  7  1  0  0  0  0
 11  2  1  0  0  0  0
 12 31  1  1  0  0  0
 12 11  1  0  0  0  0
 12 14  1  0  0  0  0
 13  3  1  0  0  0  0
 14 15  1  0  0  0  0
 15 13  2  0  0  0  0
 15  4  1  0  0  0  0
 16 22  1  0  0  0  0
 17 27  1  0  0  0  0
 19 25  1  0  0  0  0
 20 21  1  0  0  0  0
 20 19  1  0  0  0  0
 21 24  2  0  0  0  0
 22 26  1  0  0  0  0
 24 18  1  0  0  0  0
 24 23  1  0  0  0  0
 25 23  1  0  0  0  0
 26 18  2  0  0  0  0
 27 22  2  0  0  0  0
 27 21  1  0  0  0  0
 29 19  1  0  0  0  0
 29 28  1  1  0  0  0
 30 29  1  0  0  0  0
 32 33  1  0  0  0  0
 32 31  1  0  0  0  0
 33 34  1  0  0  0  0
M  END
>  <MODEL>
2

>  <REMARK>
 VINA RESULT:      -7.8      2.779     10.226
  Name = 
  6 active torsions:
  status: ('A' for Active; 'I' for Inactive)
    1  A    between atoms: C_3  and  N_24
    2  A    between atoms: N_7  and  C_15
    3  A    between atoms: C_8  and  C_17
    4  A    between atoms: C_8  and  C_18
    5  A    between atoms: N_24  and  C_25
    6  A    between atoms: C_25  and  C_27
                            x       y       z     vdW  Elec       q    Type
                         _______ _______ _______ _____ _____    ______ ____

>  <TORSDO>
F 6

$$$$
=
 OpenBabel11062409323D

 34 38  0  0  1  0  0  0  0  0999 V2000
  160.4500  209.6020  152.8230 O   0  0  0  0  0  0  0  0  0  0  0  0
  159.0560  214.2250  152.1470 C   0  0  0  0  0  2  0  0  0  0  0  0
  160.1400  212.8000  150.3090 C   0  0  0  0  0  2  0  0  0  0  0  0
  160.5060  210.6600  152.1410 C   0  0  0  0  0  0  0  0  0  0  0  0
  161.7600  210.1120  148.6970 C   0  0  0  0  0  2  0  0  0  0  0  0
  161.5780  211.5670  148.7520 N   0  0  0  0  0  0  0  0  0  0  0  0
  161.4150  209.5280  150.0570 C   0  0  2  0  0  3  0  0  0  0  0  0
  161.3800  211.9190  150.1540 C   0  0  2  0  0  3  0  0  0  0  0  0
  161.2000  210.6840  150.8880 N   0  0  0  0  0  0  0  0  0  0  0  0
  162.8370  212.1620  148.3380 C   0  0  0  0  0  1  0  0  0  0  0  0
  158.9620  214.4170  153.6590 C   0  0  0  0  0  2  0  0  0  0  0  0
  158.4660  213.1440  154.3420 C   0  0  2  0  0  3  0  0  0  0  0  0
  159.7550  212.9500  151.7590 C   0  0  0  0  0  0  0  0  0  0  0  0
  159.4250  211.9910  154.0530 C   0  0  0  0  0  2  0  0  0  0  0  0
  159.8490  211.8970  152.6070 C   0  0  0  0  0  0  0  0  0  0  0  0
  162.5840  208.7120  150.5920 C   0  0  0  0  0  2  0  0  0  0  0  0
  161.9640  206.9680  148.4270 F   0  0  0  0  0  0  0  0  0  0  0  0
  161.7250  205.4390  152.2900 C   0  0  0  0  0  3  0  0  0  0  0  0
  161.2730  202.8410  149.0380 N   0  0  0  0  0  0  0  0  0  0  0  0
  161.1320  204.2680  148.7190 C   0  0  0  0  0  2  0  0  0  0  0  0
  161.5200  205.1280  149.8900 C   0  0  0  0  0  0  0  0  0  0  0  0
  162.1940  207.2840  150.7880 C   0  0  0  0  0  0  0  0  0  0  0  0
  161.0600  203.1820  151.4490 C   0  0  0  0  0  2  0  0  0  0  0  0
  161.4150  204.6200  151.2020 C   0  0  0  0  0  0  0  0  0  0  0  0
  160.4460  202.5400  150.2060 C   0  0  0  0  0  2  0  0  0  0  0  0
  162.1080  206.7670  152.0850 C   0  0  0  0  0  3  0  0  0  0  0  0
  161.8940  206.4660  149.6880 C   0  0  0  0  0  0  0  0  0  0  0  0
  161.2670  200.5770  148.0820 C   0  0  0  0  0  1  0  0  0  0  0  0
  160.7980  202.0130  147.9240 C   0  0  2  0  0  3  0  0  0  0  0  0
  161.2080  202.5200  146.6850 O   0  0  0  0  0  1  0  0  0  0  0  0
  157.0450  212.7820  153.9270 C   0  0  0  0  0  2  0  0  0  0  0  0
  156.1540  212.8650  155.0730 N   0  0  0  0  0  2  0  0  0  0  0  0
  156.1270  211.5500  155.6890 C   0  0  0  0  0  2  0  0  0  0  0  0
  155.3740  210.5800  154.7990 C   0  0  0  0  0  1  0  0  0  0  0  0
  2 11  1  0  0  0  0
  3 13  1  0  0  0  0
  4 15  1  0  0  0  0
  4  1  2  0  0  0  0
  5  6  1  0  0  0  0
  5  7  1  0  0  0  0
  6  8  1  0  0  0  0
  7 16  1  1  0  0  0
  7  9  1  0  0  0  0
  8  3  1  6  0  0  0
  8  9  1  0  0  0  0
  9  4  1  0  0  0  0
 10  6  1  0  0  0  0
 11 12  1  0  0  0  0
 12 31  1  6  0  0  0
 13  2  1  0  0  0  0
 13 15  2  0  0  0  0
 14 12  1  0  0  0  0
 15 14  1  0  0  0  0
 16 22  1  0  0  0  0
 17 27  1  0  0  0  0
 19 25  1  0  0  0  0
 20 19  1  0  0  0  0
 20 21  1  0  0  0  0
 21 24  1  0  0  0  0
 22 26  2  0  0  0  0
 24 23  1  0  0  0  0
 24 18  2  0  0  0  0
 25 23  1  0  0  0  0
 26 18  1  0  0  0  0
 27 21  2  0  0  0  0
 27 22  1  0  0  0  0
 29 28  1  1  0  0  0
 29 19  1  0  0  0  0
 30 29  1  0  0  0  0
 31 32  1  0  0  0  0
 32 33  1  0  0  0  0
 34 33  1  0  0  0  0
M  END
>  <MODEL>
3

>  <REMARK>
 VINA RESULT:      -7.3      1.835      2.691
  Name = 
  6 active torsions:
  status: ('A' for Active; 'I' for Inactive)
    1  A    between atoms: C_3  and  N_24
    2  A    between atoms: N_7  and  C_15
    3  A    between atoms: C_8  and  C_17
    4  A    between atoms: C_8  and  C_18
    5  A    between atoms: N_24  and  C_25
    6  A    between atoms: C_25  and  C_27
                            x       y       z     vdW  Elec       q    Type
                         _______ _______ _______ _____ _____    ______ ____

>  <TORSDO>
F 6

$$$$
=
 OpenBabel11062409323D

 34 38  0  0  1  0  0  0  0  0999 V2000
  161.4780  209.8440  150.0610 O   0  0  0  0  0  0  0  0  0  0  0  0
  161.1710  206.6690  153.7490 C   0  0  0  0  0  2  0  0  0  0  0  0
  160.0980  209.0000  153.8060 C   0  0  0  0  0  2  0  0  0  0  0  0
  161.2320  209.6180  151.2760 C   0  0  0  0  0  0  0  0  0  0  0  0
  159.2360  212.2940  152.8840 C   0  0  0  0  0  2  0  0  0  0  0  0
  159.4990  211.3710  153.9930 N   0  0  0  0  0  0  0  0  0  0  0  0
  159.9330  211.7700  151.6390 C   0  0  2  0  0  3  0  0  0  0  0  0
  160.5290  210.4420  153.5390 C   0  0  2  0  0  3  0  0  0  0  0  0
  160.7010  210.6490  152.1160 N   0  0  0  0  0  0  0  0  0  0  0  0
  160.0800  212.1590  155.0650 C   0  0  0  0  0  1  0  0  0  0  0  0
  162.3120  205.8550  153.1420 C   0  0  0  0  0  2  0  0  0  0  0  0
  162.2440  205.8710  151.6160 C   0  0  2  0  0  3  0  0  0  0  0  0
  161.0070  208.0200  153.1060 C   0  0  0  0  0  0  0  0  0  0  0  0
  162.3400  207.3070  151.1050 C   0  0  0  0  0  2  0  0  0  0  0  0
  161.4720  208.2840  151.8610 C   0  0  0  0  0  0  0  0  0  0  0  0
  160.8630  212.8320  151.0680 C   0  0  0  0  0  2  0  0  0  0  0  0
  162.5590  212.3830  148.8240 F   0  0  0  0  0  0  0  0  0  0  0  0
  158.8540  214.1510  148.1430 C   0  0  0  0  0  3  0  0  0  0  0  0
  161.2180  213.0430  144.8680 N   0  0  0  0  0  0  0  0  0  0  0  0
  161.9270  213.1140  146.1530 C   0  0  0  0  0  2  0  0  0  0  0  0
  160.9670  213.3040  147.2950 C   0  0  0  0  0  0  0  0  0  0  0  0
  160.4720  213.1910  149.6720 C   0  0  0  0  0  0  0  0  0  0  0  0
  159.2690  214.2740  145.6820 C   0  0  0  0  0  2  0  0  0  0  0  0
  159.7210  213.9260  147.0710 C   0  0  0  0  0  0  0  0  0  0  0  0
  160.4380  214.2690  144.6990 C   0  0  0  0  0  2  0  0  0  0  0  0
  159.2290  213.7890  149.4380 C   0  0  0  0  0  3  0  0  0  0  0  0
  161.3460  212.9530  148.6000 C   0  0  0  0  0  0  0  0  0  0  0  0
  163.4580  213.6890  144.0930 C   0  0  0  0  0  1  0  0  0  0  0  0
  162.1710  212.9570  143.7560 C   0  0  2  0  0  3  0  0  0  0  0  0
  161.6300  213.4570  142.5660 O   0  0  0  0  0  1  0  0  0  0  0  0
  160.9860  205.1930  151.0870 C   0  0  0  0  0  2  0  0  0  0  0  0
  160.9910  205.1970  149.6330 N   0  0  0  0  0  2  0  0  0  0  0  0
  160.9650  203.8090  149.2030 C   0  0  0  0  0  2  0  0  0  0  0  0
  161.5790  203.6860  147.8220 C   0  0  0  0  0  1  0  0  0  0  0  0
  1  4  2  0  0  0  0
  4 15  1  0  0  0  0
  4  9  1  0  0  0  0
  5  6  1  0  0  0  0
  6 10  1  0  0  0  0
  7 16  1  1  0  0  0
  7  9  1  0  0  0  0
  7  5  1  0  0  0  0
  8  3  1  6  0  0  0
  8  6  1  0  0  0  0
  9  8  1  0  0  0  0
 11  2  1  0  0  0  0
 12 31  1  1  0  0  0
 12 11  1  0  0  0  0
 13  2  1  0  0  0  0
 13  3  1  0  0  0  0
 14 12  1  0  0  0  0
 14 15  1  0  0  0  0
 15 13  2  0  0  0  0
 18 26  1  0  0  0  0
 19 20  1  0  0  0  0
 20 21  1  0  0  0  0
 21 27  2  0  0  0  0
 22 16  1  0  0  0  0
 23 24  1  0  0  0  0
 24 21  1  0  0  0  0
 24 18  2  0  0  0  0
 25 19  1  0  0  0  0
 25 23  1  0  0  0  0
 26 22  2  0  0  0  0
 27 17  1  0  0  0  0
 27 22  1  0  0  0  0
 29 28  1  1  0  0  0
 29 19  1  0  0  0  0
 30 29  1  0  0  0  0
 32 31  1  0  0  0  0
 33 32  1  0  0  0  0
 34 33  1  0  0  0  0
M  END
>  <MODEL>
4

>  <REMARK>
 VINA RESULT:      -7.2      4.485      8.550
  Name = 
  6 active torsions:
  status: ('A' for Active; 'I' for Inactive)
    1  A    between atoms: C_3  and  N_24
    2  A    between atoms: N_7  and  C_15
    3  A    between atoms: C_8  and  C_17
    4  A    between atoms: C_8  and  C_18
    5  A    between atoms: N_24  and  C_25
    6  A    between atoms: C_25  and  C_27
                            x       y       z     vdW  Elec       q    Type
                         _______ _______ _______ _____ _____    ______ ____

>  <TORSDO>
F 6

$$$$
=
 OpenBabel11062409323D

 34 38  0  0  1  0  0  0  0  0999 V2000
  161.6460  207.3470  149.7650 O   0  0  0  0  0  0  0  0  0  0  0  0
  160.8160  203.4750  152.6090 C   0  0  0  0  0  2  0  0  0  0  0  0
  160.5170  205.8960  153.4070 C   0  0  0  0  0  2  0  0  0  0  0  0
  161.4850  206.8670  150.9190 C   0  0  0  0  0  0  0  0  0  0  0  0
  160.5970  209.4220  153.4520 C   0  0  0  0  0  2  0  0  0  0  0  0
  160.6930  208.1930  154.2460 N   0  0  0  0  0  0  0  0  0  0  0  0
  160.9530  209.0980  152.0100 C   0  0  2  0  0  3  0  0  0  0  0  0
  161.3330  207.1890  153.4020 C   0  0  2  0  0  3  0  0  0  0  0  0
  161.3930  207.7280  152.0600 N   0  0  0  0  0  0  0  0  0  0  0  0
  161.6060  208.4720  155.3410 C   0  0  0  0  0  1  0  0  0  0  0  0
  161.5770  202.5890  151.6250 C   0  0  0  0  0  2  0  0  0  0  0  0
  161.3420  203.0440  150.1860 C   0  0  2  0  0  3  0  0  0  0  0  0
  160.9980  204.9440  152.3400 C   0  0  0  0  0  0  0  0  0  0  0  0
  161.8110  204.4860  150.0120 C   0  0  0  0  0  2  0  0  0  0  0  0
  161.3740  205.4090  151.1240 C   0  0  0  0  0  0  0  0  0  0  0  0
  162.0900  209.9920  151.5330 C   0  0  0  0  0  2  0  0  0  0  0  0
  162.6710  210.1950  148.7520 F   0  0  0  0  0  0  0  0  0  0  0  0
  160.3090  213.1600  150.4700 C   0  0  0  0  0  3  0  0  0  0  0  0
  160.8400  213.1270  146.3160 N   0  0  0  0  0  0  0  0  0  0  0  0
  161.8020  212.3150  147.0730 C   0  0  0  0  0  2  0  0  0  0  0  0
  161.4070  212.2130  148.5210 C   0  0  0  0  0  0  0  0  0  0  0  0
  161.5740  211.1020  150.6760 C   0  0  0  0  0  0  0  0  0  0  0  0
  160.0590  214.3460  148.2850 C   0  0  0  0  0  2  0  0  0  0  0  0
  160.6280  213.2300  149.1120 C   0  0  0  0  0  0  0  0  0  0  0  0
  160.7610  214.4510  146.9320 C   0  0  0  0  0  2  0  0  0  0  0  0
  160.7840  212.1030  151.2500 C   0  0  0  0  0  3  0  0  0  0  0  0
  161.8930  211.1580  149.3110 C   0  0  0  0  0  0  0  0  0  0  0  0
  162.6950  213.8710  144.8880 C   0  0  0  0  0  1  0  0  0  0  0  0
  161.2880  213.3010  144.9300 C   0  0  2  0  0  3  0  0  0  0  0  0
  160.4160  214.1140  144.1970 O   0  0  0  0  0  1  0  0  0  0  0  0
  159.8840  202.8950  149.7650 C   0  0  0  0  0  2  0  0  0  0  0  0
  159.7280  201.7260  148.9130 N   0  0  0  0  0  2  0  0  0  0  0  0
  160.8400  201.7280  147.9770 C   0  0  0  0  0  2  0  0  0  0  0  0
  161.4400  200.3380  147.8890 C   0  0  0  0  0  1  0  0  0  0  0  0
  1  4  2  0  0  0  0
  4 15  1  0  0  0  0
  4  9  1  0  0  0  0
  5  6  1  0  0  0  0
  6 10  1  0  0  0  0
  7 16  1  1  0  0  0
  7  9  1  0  0  0  0
  7  5  1  0  0  0  0
  8  3  1  6  0  0  0
  8  6  1  0  0  0  0
  9  8  1  0  0  0  0
 11  2  1  0  0  0  0
 12 31  1  1  0  0  0
 12 11  1  0  0  0  0
 13  2  1  0  0  0  0
 13  3  1  0  0  0  0
 14 12  1  0  0  0  0
 14 15  1  0  0  0  0
 15 13  2  0  0  0  0
 17 27  1  0  0  0  0
 18 26  1  0  0  0  0
 19 25  1  0  0  0  0
 19 20  1  0  0  0  0
 20 21  1  0  0  0  0
 21 24  1  0  0  0  0
 21 27  2  0  0  0  0
 22 26  2  0  0  0  0
 22 16  1  0  0  0  0
 23 24  1  0  0  0  0
 24 18  2  0  0  0  0
 25 23  1  0  0  0  0
 27 22  1  0  0  0  0
 29 28  1  1  0  0  0
 29 19  1  0  0  0  0
 30 29  1  0  0  0  0
 32 31  1  0  0  0  0
 33 32  1  0  0  0  0
 34 33  1  0  0  0  0
M  END
>  <MODEL>
5

>  <REMARK>
 VINA RESULT:      -7.1      3.713      8.899
  Name = 
  6 active torsions:
  status: ('A' for Active; 'I' for Inactive)
    1  A    between atoms: C_3  and  N_24
    2  A    between atoms: N_7  and  C_15
    3  A    between atoms: C_8  and  C_17
    4  A    between atoms: C_8  and  C_18
    5  A    between atoms: N_24  and  C_25
    6  A    between atoms: C_25  and  C_27
                            x       y       z     vdW  Elec       q    Type
                         _______ _______ _______ _____ _____    ______ ____

>  <TORSDO>
F 6

$$$$
=
 OpenBabel11062409323D

 34 38  0  0  1  0  0  0  0  0999 V2000
  162.0040  207.3140  149.1060 O   0  0  0  0  0  0  0  0  0  0  0  0
  161.5840  203.3290  146.3290 C   0  0  0  0  0  2  0  0  0  0  0  0
  160.8730  203.4070  148.7930 C   0  0  0  0  0  2  0  0  0  0  0  0
  161.8430  206.0670  149.0200 C   0  0  0  0  0  0  0  0  0  0  0  0
  160.4190  204.5650  152.0940 C   0  0  0  0  0  2  0  0  0  0  0  0
  160.6470  203.3990  151.2350 N   0  0  0  0  0  0  0  0  0  0  0  0
  160.9120  205.8070  151.3690 C   0  0  2  0  0  3  0  0  0  0  0  0
  161.4840  203.8440  150.1260 C   0  0  2  0  0  3  0  0  0  0  0  0
  161.5490  205.2890  150.1860 N   0  0  0  0  0  0  0  0  0  0  0  0
  161.4350  202.4560  152.0100 C   0  0  0  0  0  1  0  0  0  0  0  0
  162.5320  203.9460  145.3020 C   0  0  0  0  0  2  0  0  0  0  0  0
  162.3240  205.4550  145.2040 C   0  0  2  0  0  3  0  0  0  0  0  0
  161.5600  204.0810  147.6310 C   0  0  0  0  0  0  0  0  0  0  0  0
  162.5810  206.1060  146.5610 C   0  0  0  0  0  2  0  0  0  0  0  0
  161.9390  205.3790  147.7180 C   0  0  0  0  0  0  0  0  0  0  0  0
  161.9300  206.5490  152.2250 C   0  0  0  0  0  2  0  0  0  0  0  0
  161.0140  209.0450  151.2040 F   0  0  0  0  0  0  0  0  0  0  0  0
  160.4830  208.2880  155.2610 C   0  0  0  0  0  3  0  0  0  0  0  0
  158.7710  211.7240  153.5870 N   0  0  0  0  0  0  0  0  0  0  0  0
  159.8150  211.0870  152.7720 C   0  0  0  0  0  2  0  0  0  0  0  0
  160.2150  209.7550  153.3440 C   0  0  0  0  0  0  0  0  0  0  0  0
  161.2620  207.5780  153.0780 C   0  0  0  0  0  0  0  0  0  0  0  0
  159.3640  210.4950  155.6150 C   0  0  0  0  0  2  0  0  0  0  0  0
  160.0600  209.5060  154.7230 C   0  0  0  0  0  0  0  0  0  0  0  0
  159.2700  211.8690  154.9540 C   0  0  0  0  0  2  0  0  0  0  0  0
  161.0850  207.3300  154.4430 C   0  0  0  0  0  3  0  0  0  0  0  0
  160.8320  208.7950  152.5270 C   0  0  0  0  0  0  0  0  0  0  0  0
  159.3360  213.3980  151.8800 C   0  0  0  0  0  1  0  0  0  0  0  0
  158.4600  213.0630  153.0750 C   0  0  2  0  0  3  0  0  0  0  0  0
  158.5990  214.0440  154.0640 O   0  0  0  0  0  1  0  0  0  0  0  0
  160.9360  205.8150  144.6860 C   0  0  0  0  0  2  0  0  0  0  0  0
  160.8310  205.4900  143.2720 N   0  0  0  0  0  2  0  0  0  0  0  0
  162.1050  205.8320  142.6610 C   0  0  0  0  0  2  0  0  0  0  0  0
  161.8680  206.5650  141.3550 C   0  0  0  0  0  1  0  0  0  0  0  0
  2 13  1  0  0  0  0
  4  1  2  0  0  0  0
  4  9  1  0  0  0  0
  6 10  1  0  0  0  0
  6  5  1  0  0  0  0
  7  5  1  0  0  0  0
  7 16  1  1  0  0  0
  8  3  1  6  0  0  0
  8  9  1  0  0  0  0
  8  6  1  0  0  0  0
  9  7  1  0  0  0  0
 11  2  1  0  0  0  0
 12 31  1  1  0  0  0
 12 11  1  0  0  0  0
 12 14  1  0  0  0  0
 13 15  2  0  0  0  0
 13  3  1  0  0  0  0
 14 15  1  0  0  0  0
 15  4  1  0  0  0  0
 16 22  1  0  0  0  0
 17 27  1  0  0  0  0
 19 25  1  0  0  0  0
 20 21  1  0  0  0  0
 20 19  1  0  0  0  0
 21 24  2  0  0  0  0
 22 26  1  0  0  0  0
 24 18  1  0  0  0  0
 24 23  1  0  0  0  0
 25 23  1  0  0  0  0
 26 18  2  0  0  0  0
 27 22  2  0  0  0  0
 27 21  1  0  0  0  0
 29 28  1  6  0  0  0
 29 19  1  0  0  0  0
 29 30  1  0  0  0  0
 32 31  1  0  0  0  0
 33 32  1  0  0  0  0
 34 33  1  0  0  0  0
M  END
>  <MODEL>
6

>  <REMARK>
 VINA RESULT:      -7.1      2.794      9.914
  Name = 
  6 active torsions:
  status: ('A' for Active; 'I' for Inactive)
    1  A    between atoms: C_3  and  N_24
    2  A    between atoms: N_7  and  C_15
    3  A    between atoms: C_8  and  C_17
    4  A    between atoms: C_8  and  C_18
    5  A    between atoms: N_24  and  C_25
    6  A    between atoms: C_25  and  C_27
                            x       y       z     vdW  Elec       q    Type
                         _______ _______ _______ _____ _____    ______ ____

>  <TORSDO>
F 6

$$$$
=
 OpenBabel11062409323D

 34 38  0  0  1  0  0  0  0  0999 V2000
  160.2640  210.3800  152.2520 O   0  0  0  0  0  0  0  0  0  0  0  0
  160.5800  208.7150  156.8240 C   0  0  0  0  0  2  0  0  0  0  0  0
  161.5640  207.4750  154.8050 C   0  0  0  0  0  2  0  0  0  0  0  0
  160.4830  209.4230  153.0430 C   0  0  0  0  0  0  0  0  0  0  0  0
  162.3320  206.6240  151.4690 C   0  0  0  0  0  2  0  0  0  0  0  0
  162.0710  206.1240  152.8220 N   0  0  0  0  0  0  0  0  0  0  0  0
  161.6910  207.9950  151.3250 C   0  0  2  0  0  3  0  0  0  0  0  0
  161.0890  207.0190  153.4250 C   0  0  2  0  0  3  0  0  0  0  0  0
  160.9510  208.1630  152.5490 N   0  0  0  0  0  0  0  0  0  0  0  0
  161.4310  204.8280  152.6740 C   0  0  0  0  0  1  0  0  0  0  0  0
  159.4870  209.6920  157.2550 C   0  0  0  0  0  2  0  0  0  0  0  0
  159.5990  211.0090  156.4890 C   0  0  2  0  0  3  0  0  0  0  0  0
  160.7120  208.6040  155.3300 C   0  0  0  0  0  0  0  0  0  0  0  0
  159.4650  210.7530  154.9900 C   0  0  0  0  0  2  0  0  0  0  0  0
  160.2750  209.5790  154.4960 C   0  0  0  0  0  0  0  0  0  0  0  0
  160.7400  208.0100  150.1360 C   0  0  0  0  0  2  0  0  0  0  0  0
  159.9890  205.2630  150.2000 F   0  0  0  0  0  0  0  0  0  0  0  0
  162.4170  206.5460  147.0740 C   0  0  0  0  0  3  0  0  0  0  0  0
  160.8970  202.6450  147.0060 N   0  0  0  0  0  0  0  0  0  0  0  0
  160.8310  203.3170  148.3110 C   0  0  0  0  0  2  0  0  0  0  0  0
  161.1940  204.7720  148.1940 C   0  0  0  0  0  0  0  0  0  0  0  0
  161.1690  207.0280  149.0950 C   0  0  0  0  0  0  0  0  0  0  0  0
  162.4670  204.2620  146.0610 C   0  0  0  0  0  2  0  0  0  0  0  0
  162.0380  205.2040  147.1490 C   0  0  0  0  0  0  0  0  0  0  0  0
  162.2470  202.8060  146.4670 C   0  0  0  0  0  2  0  0  0  0  0  0
  161.9880  207.4540  148.0450 C   0  0  0  0  0  3  0  0  0  0  0  0
  160.7750  205.6830  149.1750 C   0  0  0  0  0  0  0  0  0  0  0  0
  161.4830  200.6190  148.2670 C   0  0  0  0  0  1  0  0  0  0  0  0
  160.6380  201.2080  147.1510 C   0  0  2  0  0  3  0  0  0  0  0  0
  160.8650  200.5140  145.9570 O   0  0  0  0  0  1  0  0  0  0  0  0
  160.8960  211.7470  156.7970 C   0  0  0  0  0  2  0  0  0  0  0  0
  160.6050  213.0950  157.2600 N   0  0  0  0  0  2  0  0  0  0  0  0
  159.2490  213.4070  156.8390 C   0  0  0  0  0  2  0  0  0  0  0  0
  159.2790  214.4530  155.7420 C   0  0  0  0  0  1  0  0  0  0  0  0
  1  4  2  0  0  0  0
  2 11  1  0  0  0  0
  3 13  1  0  0  0  0
  4 15  1  0  0  0  0
  5  6  1  0  0  0  0
  6  8  1  0  0  0  0
  7 16  1  6  0  0  0
  7  5  1  0  0  0  0
  7  9  1  0  0  0  0
  8  3  1  1  0  0  0
  9  4  1  0  0  0  0
  9  8  1  0  0  0  0
 10  6  1  0  0  0  0
 12 31  1  6  0  0  0
 12 11  1  0  0  0  0
 13  2  1  0  0  0  0
 14 12  1  0  0  0  0
 15 14  1  0  0  0  0
 15 13  2  0  0  0  0
 18 24  2  0  0  0  0
 18 26  1  0  0  0  0
 19 29  1  0  0  0  0
 19 20  1  0  0  0  0
 21 20  1  0  0  0  0
 21 27  2  0  0  0  0
 22 27  1  0  0  0  0
 22 16  1  0  0  0  0
 23 25  1  0  0  0  0
 23 24  1  0  0  0  0
 24 21  1  0  0  0  0
 25 19  1  0  0  0  0
 26 22  2  0  0  0  0
 27 17  1  0  0  0  0
 29 28  1  1  0  0  0
 30 29  1  0  0  0  0
 31 32  1  0  0  0  0
 33 32  1  0  0  0  0
 34 33  1  0  0  0  0
M  END
>  <MODEL>
7

>  <REMARK>
 VINA RESULT:      -6.8      1.775      3.241
  Name = 
  6 active torsions:
  status: ('A' for Active; 'I' for Inactive)
    1  A    between atoms: C_3  and  N_24
    2  A    between atoms: N_7  and  C_15
    3  A    between atoms: C_8  and  C_17
    4  A    between atoms: C_8  and  C_18
    5  A    between atoms: N_24  and  C_25
    6  A    between atoms: C_25  and  C_27
                            x       y       z     vdW  Elec       q    Type
                         _______ _______ _______ _____ _____    ______ ____

>  <TORSDO>
F 6

$$$$
=
 OpenBabel11062409323D

 34 38  0  0  1  0  0  0  0  0999 V2000
  161.9620  206.6860  148.2650 O   0  0  0  0  0  0  0  0  0  0  0  0
  160.8610  202.1190  149.5730 C   0  0  0  0  0  2  0  0  0  0  0  0
  160.5300  204.1430  151.1160 C   0  0  0  0  0  2  0  0  0  0  0  0
  161.7040  205.8530  149.1750 C   0  0  0  0  0  0  0  0  0  0  0  0
  160.6490  207.4450  152.3510 C   0  0  0  0  0  2  0  0  0  0  0  0
  160.6670  206.0190  152.6900 N   0  0  0  0  0  0  0  0  0  0  0  0
  161.1140  207.6090  150.9130 C   0  0  2  0  0  3  0  0  0  0  0  0
  161.3590  205.3310  151.6050 C   0  0  2  0  0  3  0  0  0  0  0  0
  161.5320  206.2850  150.5300 N   0  0  0  0  0  0  0  0  0  0  0  0
  161.4930  205.8800  153.8760 C   0  0  0  0  0  1  0  0  0  0  0  0
  161.6870  201.5860  148.4050 C   0  0  0  0  0  2  0  0  0  0  0  0
  161.5720  202.5040  147.1900 C   0  0  2  0  0  3  0  0  0  0  0  0
  161.0820  203.5860  149.8270 C   0  0  0  0  0  0  0  0  0  0  0  0
  162.0710  203.9030  147.5450 C   0  0  0  0  0  2  0  0  0  0  0  0
  161.5590  204.4170  148.8690 C   0  0  0  0  0  0  0  0  0  0  0  0
  162.2970  208.5670  150.8470 C   0  0  0  0  0  2  0  0  0  0  0  0
  162.6840  209.6890  148.2570 F   0  0  0  0  0  0  0  0  0  0  0  0
  160.8160  212.0400  151.1390 C   0  0  0  0  0  3  0  0  0  0  0  0
  161.0220  213.4290  147.1930 N   0  0  0  0  0  0  0  0  0  0  0  0
  161.9390  212.3270  147.5150 C   0  0  0  0  0  2  0  0  0  0  0  0
  161.6470  211.7540  148.8740 C   0  0  0  0  0  0  0  0  0  0  0  0
  161.8480  209.9450  150.4850 C   0  0  0  0  0  0  0  0  0  0  0  0
  160.5390  213.9360  149.5350 C   0  0  0  0  0  2  0  0  0  0  0  0
  161.0370  212.5570  149.8600 C   0  0  0  0  0  0  0  0  0  0  0  0
  161.1430  214.4530  148.2310 C   0  0  0  0  0  2  0  0  0  0  0  0
  161.2240  210.7410  151.4510 C   0  0  0  0  0  3  0  0  0  0  0  0
  162.0660  210.4530  149.1950 C   0  0  0  0  0  0  0  0  0  0  0  0
  160.4070  213.6240  144.8230 C   0  0  0  0  0  1  0  0  0  0  0  0
  161.3810  214.0430  145.9100 C   0  0  2  0  0  3  0  0  0  0  0  0
  162.6910  213.7290  145.5300 O   0  0  0  0  0  1  0  0  0  0  0  0
  160.1510  202.5610  146.6410 C   0  0  0  0  0  2  0  0  0  0  0  0
  160.1560  202.2840  145.2140 N   0  0  0  0  0  2  0  0  0  0  0  0
  159.6440  203.4700  144.5470 C   0  0  0  0  0  2  0  0  0  0  0  0
  160.7370  204.5160  144.4480 C   0  0  0  0  0  1  0  0  0  0  0  0
  1  4  2  0  0  0  0
  2 13  1  0  0  0  0
  4  9  1  0  0  0  0
  5  6  1  0  0  0  0
  6 10  1  0  0  0  0
  7 16  1  1  0  0  0
  7  5  1  0  0  0  0
  8  3  1  6  0  0  0
  8  6  1  0  0  0  0
  9  7  1  0  0  0  0
  9  8  1  0  0  0  0
 11  2  1  0  0  0  0
 12 31  1  1  0  0  0
 12 14  1  0  0  0  0
 12 11  1  0  0  0  0
 13  3  1  0  0  0  0
 14 15  1  0  0  0  0
 15  4  1  0  0  0  0
 15 13  2  0  0  0  0
 17 27  1  0  0  0  0
 18 26  1  0  0  0  0
 19 20  1  0  0  0  0
 19 25  1  0  0  0  0
 20 21  1  0  0  0  0
 21 27  2  0  0  0  0
 21 24  1  0  0  0  0
 22 16  1  0  0  0  0
 22 26  2  0  0  0  0
 23 24  1  0  0  0  0
 24 18  2  0  0  0  0
 25 23  1  0  0  0  0
 27 22  1  0  0  0  0
 29 28  1  6  0  0  0
 29 19  1  0  0  0  0
 30 29  1  0  0  0  0
 32 31  1  0  0  0  0
 33 32  1  0  0  0  0
 34 33  1  0  0  0  0
M  END
>  <MODEL>
8

>  <REMARK>
 VINA RESULT:      -6.6      3.757      9.562
  Name = 
  6 active torsions:
  status: ('A' for Active; 'I' for Inactive)
    1  A    between atoms: C_3  and  N_24
    2  A    between atoms: N_7  and  C_15
    3  A    between atoms: C_8  and  C_17
    4  A    between atoms: C_8  and  C_18
    5  A    between atoms: N_24  and  C_25
    6  A    between atoms: C_25  and  C_27
                            x       y       z     vdW  Elec       q    Type
                         _______ _______ _______ _____ _____    ______ ____

>  <TORSDO>
F 6

$$$$
=
 OpenBabel11062409323D

 34 38  0  0  1  0  0  0  0  0999 V2000
  161.9900  207.2870  148.8970 O   0  0  0  0  0  0  0  0  0  0  0  0
  161.5560  203.1820  146.3020 C   0  0  0  0  0  2  0  0  0  0  0  0
  160.8700  203.3670  148.7680 C   0  0  0  0  0  2  0  0  0  0  0  0
  161.8320  206.0370  148.8680 C   0  0  0  0  0  0  0  0  0  0  0  0
  160.4440  204.6670  152.0190 C   0  0  0  0  0  2  0  0  0  0  0  0
  160.6680  203.4650  151.2100 N   0  0  0  0  0  0  0  0  0  0  0  0
  160.9250  205.8770  151.2350 C   0  0  2  0  0  3  0  0  0  0  0  0
  161.4920  203.8630  150.0740 C   0  0  2  0  0  3  0  0  0  0  0  0
  161.5530  205.3100  150.0700 N   0  0  0  0  0  0  0  0  0  0  0  0
  161.4660  202.5590  152.0170 C   0  0  0  0  0  1  0  0  0  0  0  0
  162.4920  203.7560  145.2400 C   0  0  0  0  0  2  0  0  0  0  0  0
  162.2780  205.2600  145.0770 C   0  0  2  0  0  3  0  0  0  0  0  0
  161.5430  203.9910  147.5710 C   0  0  0  0  0  0  0  0  0  0  0  0
  162.5460  205.9700  146.4020 C   0  0  0  0  0  2  0  0  0  0  0  0
  161.9180  205.2930  147.5960 C   0  0  0  0  0  0  0  0  0  0  0  0
  161.9490  206.6590  152.0480 C   0  0  0  0  0  2  0  0  0  0  0  0
  160.5940  207.3690  154.4510 F   0  0  0  0  0  0  0  0  0  0  0  0
  161.1960  210.3430  151.6030 C   0  0  0  0  0  3  0  0  0  0  0  0
  159.6250  211.3880  155.3420 N   0  0  0  0  0  0  0  0  0  0  0  0
  159.5680  209.9560  155.0200 C   0  0  0  0  0  2  0  0  0  0  0  0
  160.3420  209.6470  153.7670 C   0  0  0  0  0  0  0  0  0  0  0  0
  161.4650  208.0450  152.3260 C   0  0  0  0  0  0  0  0  0  0  0  0
  160.0860  212.0620  153.0370 C   0  0  0  0  0  2  0  0  0  0  0  0
  160.5240  210.6470  152.7890 C   0  0  0  0  0  0  0  0  0  0  0  0
  159.1020  212.1430  154.2030 C   0  0  0  0  0  2  0  0  0  0  0  0
  161.6600  209.0470  151.3700 C   0  0  0  0  0  3  0  0  0  0  0  0
  160.7980  208.3420  153.5250 C   0  0  0  0  0  0  0  0  0  0  0  0
  157.3600  211.9880  156.0790 C   0  0  0  0  0  1  0  0  0  0  0  0
  158.7860  211.6900  156.5070 C   0  0  2  0  0  3  0  0  0  0  0  0
  159.2980  212.7570  157.2550 O   0  0  0  0  0  1  0  0  0  0  0  0
  160.8840  205.5910  144.5590 C   0  0  0  0  0  2  0  0  0  0  0  0
  160.8510  205.4790  143.1090 N   0  0  0  0  0  2  0  0  0  0  0  0
  161.9400  206.2910  142.5930 C   0  0  0  0  0  2  0  0  0  0  0  0
  161.9660  206.2150  141.0790 C   0  0  0  0  0  1  0  0  0  0  0  0
  2 13  1  0  0  0  0
  4  1  2  0  0  0  0
  4  9  1  0  0  0  0
  6 10  1  0  0  0  0
  6  5  1  0  0  0  0
  7  5  1  0  0  0  0
  7 16  1  1  0  0  0
  8  3  1  6  0  0  0
  8  6  1  0  0  0  0
  9  8  1  0  0  0  0
  9  7  1  0  0  0  0
 11  2  1  0  0  0  0
 12 31  1  1  0  0  0
 12 11  1  0  0  0  0
 12 14  1  0  0  0  0
 13 15  2  0  0  0  0
 13  3  1  0  0  0  0
 14 15  1  0  0  0  0
 15  4  1  0  0  0  0
 16 22  1  0  0  0  0
 18 24  1  0  0  0  0
 19 29  1  0  0  0  0
 20 19  1  0  0  0  0
 21 20  1  0  0  0  0
 22 27  2  0  0  0  0
 23 25  1  0  0  0  0
 24 23  1  0  0  0  0
 24 21  2  0  0  0  0
 25 19  1  0  0  0  0
 26 18  2  0  0  0  0
 26 22  1  0  0  0  0
 27 21  1  0  0  0  0
 27 17  1  0  0  0  0
 29 28  1  6  0  0  0
 29 30  1  0  0  0  0
 32 31  1  0  0  0  0
 33 32  1  0  0  0  0
 34 33  1  0  0  0  0
M  END
>  <MODEL>
9

>  <REMARK>
 VINA RESULT:      -6.5      2.724     10.254
  Name = 
  6 active torsions:
  status: ('A' for Active; 'I' for Inactive)
    1  A    between atoms: C_3  and  N_24
    2  A    between atoms: N_7  and  C_15
    3  A    between atoms: C_8  and  C_17
    4  A    between atoms: C_8  and  C_18
    5  A    between atoms: N_24  and  C_25
    6  A    between atoms: C_25  and  C_27
                            x       y       z     vdW  Elec       q    Type
                         _______ _______ _______ _____ _____    ______ ____

>  <TORSDO>
F 6

$$$$
