=
 OpenBabel11052422103D

 25 26  0  0  1  0  0  0  0  0999 V2000
  160.8240  203.5870  148.9020 C   0  0  0  0  0  1  0  0  0  0  0  0
  160.3350  206.7670  150.1410 C   0  0  0  0  0  2  0  0  0  0  0  0
  161.5680  204.6040  149.7460 C   0  0  1  0  0  3  0  0  0  0  0  0
  161.6260  205.6020  152.0780 C   0  0  0  0  0  0  0  0  0  0  0  0
  163.1430  205.7630  152.0650 C   0  0  0  0  0  1  0  0  0  0  0  0
  161.2360  205.9690  149.3100 N   0  0  0  0  0  0  0  0  0  0  0  0
  161.1980  205.3330  153.5050 C   0  0  0  0  0  1  0  0  0  0  0  0
  160.8730  206.8640  151.5730 C   0  0  1  0  0  3  0  0  0  0  0  0
  161.2510  204.3810  151.2310 C   0  0  0  0  0  2  0  0  0  0  0  0
  161.9290  206.5730  148.1940 C   0  0  0  0  0  0  0  0  0  0  0  0
  162.6990  207.6420  148.3940 C   0  0  0  0  0  2  0  0  0  0  0  0
  161.8000  206.0440  146.8150 C   0  0  0  0  0  0  0  0  0  0  0  0
  160.6030  206.2550  146.0700 N   0  0  0  0  0  1  0  0  0  0  0  0
  162.7500  205.4180  146.2750 O   0  0  0  0  0  0  0  0  0  0  0  0
  161.5370  208.2140  151.8560 C   0  0  0  0  0  2  0  0  0  0  0  0
  160.2540  209.8980  153.2680 C   0  0  0  0  0  0  0  0  0  0  0  0
  160.5370  209.2640  152.0180 N   0  0  0  0  0  2  0  0  0  0  0  0
  159.6560  211.0060  153.2640 O   0  0  0  0  0  0  0  0  0  0  0  0
  160.6570  209.3020  154.5570 C   0  0  0  0  0  0  0  0  0  0  0  0
  161.3940  208.0990  156.9840 C   0  0  0  0  0  3  0  0  0  0  0  0
  161.7800  209.7690  155.2700 C   0  0  0  0  0  0  0  0  0  0  0  0
  162.1400  209.1680  156.4800 C   0  0  0  0  0  3  0  0  0  0  0  0
  160.2930  207.6200  156.2730 C   0  0  0  0  0  3  0  0  0  0  0  0
  162.5570  210.7650  154.7770 F   0  0  0  0  0  0  0  0  0  0  0  0
  159.9300  208.2150  155.0630 C   0  0  0  0  0  3  0  0  0  0  0  0
  2  8  1  0  0  0  0
  3  1  1  6  0  0  0
  3  9  1  0  0  0  0
  4  7  1  0  0  0  0
  5  4  1  0  0  0  0
  6  3  1  0  0  0  0
  6  2  1  0  0  0  0
  8 15  1  6  0  0  0
  8  4  1  0  0  0  0
  9  4  1  0  0  0  0
 10 11  2  0  0  0  0
 10  6  1  0  0  0  0
 12 10  1  0  0  0  0
 13 12  1  0  0  0  0
 14 12  2  0  0  0  0
 15 17  1  0  0  0  0
 16 19  1  0  0  0  0
 17 16  1  0  0  0  0
 18 16  2  0  0  0  0
 19 25  2  0  0  0  0
 19 21  1  0  0  0  0
 21 22  2  0  0  0  0
 22 20  1  0  0  0  0
 23 20  2  0  0  0  0
 24 21  1  0  0  0  0
 25 23  1  0  0  0  0
M  END
>  <MODEL>
1

>  <REMARK>
 VINA RESULT:      -6.8      0.000      0.000
  Name = 
  5 active torsions:
  status: ('A' for Active; 'I' for Inactive)
    1  A    between atoms: C_1  and  C_5
    2  A    between atoms: C_2  and  C_21
    3  A    between atoms: N_3  and  C_16
    4  A    between atoms: N_15  and  C_21
    5  A    between atoms: C_16  and  C_23
                            x       y       z     vdW  Elec       q    Type
                         _______ _______ _______ _____ _____    ______ ____

>  <TORSDO>
F 5

$$$$
=
 OpenBabel11052422103D

 25 26  0  0  1  0  0  0  0  0999 V2000
  160.8470  203.5880  148.9060 C   0  0  0  0  0  1  0  0  0  0  0  0
  160.3240  206.7630  150.1450 C   0  0  0  0  0  2  0  0  0  0  0  0
  161.5830  204.6170  149.7430 C   0  0  1  0  0  3  0  0  0  0  0  0
  161.6460  205.6190  152.0730 C   0  0  0  0  0  0  0  0  0  0  0  0
  163.1610  205.8010  152.0470 C   0  0  0  0  0  1  0  0  0  0  0  0
  161.2290  205.9770  149.3070 N   0  0  0  0  0  0  0  0  0  0  0  0
  161.2340  205.3460  153.5040 C   0  0  0  0  0  1  0  0  0  0  0  0
  160.8720  206.8700  151.5730 C   0  0  1  0  0  3  0  0  0  0  0  0
  161.2810  204.3910  151.2310 C   0  0  0  0  0  2  0  0  0  0  0  0
  161.9050  206.5890  148.1850 C   0  0  0  0  0  0  0  0  0  0  0  0
  162.6610  207.6690  148.3780 C   0  0  0  0  0  2  0  0  0  0  0  0
  161.7730  206.0560  146.8080 C   0  0  0  0  0  0  0  0  0  0  0  0
  160.5740  206.2660  146.0650 N   0  0  0  0  0  1  0  0  0  0  0  0
  162.7210  205.4280  146.2680 O   0  0  0  0  0  0  0  0  0  0  0  0
  161.5190  208.2290  151.8490 C   0  0  0  0  0  2  0  0  0  0  0  0
  160.4320  210.1230  153.1550 C   0  0  0  0  0  0  0  0  0  0  0  0
  160.5060  209.2660  152.0120 N   0  0  0  0  0  2  0  0  0  0  0  0
  159.7770  211.1940  153.0670 O   0  0  0  0  0  0  0  0  0  0  0  0
  161.1130  209.7970  154.4230 C   0  0  0  0  0  0  0  0  0  0  0  0
  162.4180  209.2560  156.8490 C   0  0  0  0  0  3  0  0  0  0  0  0
  160.7740  208.6530  155.1730 C   0  0  0  0  0  0  0  0  0  0  0  0
  161.4300  208.3860  156.3780 C   0  0  0  0  0  3  0  0  0  0  0  0
  162.7440  210.4010  156.1210 C   0  0  0  0  0  3  0  0  0  0  0  0
  159.7800  207.8230  154.7710 F   0  0  0  0  0  0  0  0  0  0  0  0
  162.0910  210.6730  154.9170 C   0  0  0  0  0  3  0  0  0  0  0  0
  2  8  1  0  0  0  0
  3  1  1  6  0  0  0
  3  9  1  0  0  0  0
  4  7  1  0  0  0  0
  5  4  1  0  0  0  0
  6  3  1  0  0  0  0
  6  2  1  0  0  0  0
  8 15  1  6  0  0  0
  8  4  1  0  0  0  0
  9  4  1  0  0  0  0
 10 11  2  0  0  0  0
 10  6  1  0  0  0  0
 12 10  1  0  0  0  0
 13 12  1  0  0  0  0
 14 12  2  0  0  0  0
 15 17  1  0  0  0  0
 16 19  1  0  0  0  0
 17 16  1  0  0  0  0
 18 16  2  0  0  0  0
 19 25  2  0  0  0  0
 19 21  1  0  0  0  0
 21 22  2  0  0  0  0
 22 20  1  0  0  0  0
 23 20  2  0  0  0  0
 24 21  1  0  0  0  0
 25 23  1  0  0  0  0
M  END
>  <MODEL>
2

>  <REMARK>
 VINA RESULT:      -6.7      0.929      1.376
  Name = 
  5 active torsions:
  status: ('A' for Active; 'I' for Inactive)
    1  A    between atoms: C_1  and  C_5
    2  A    between atoms: C_2  and  C_21
    3  A    between atoms: N_3  and  C_16
    4  A    between atoms: N_15  and  C_21
    5  A    between atoms: C_16  and  C_23
                            x       y       z     vdW  Elec       q    Type
                         _______ _______ _______ _____ _____    ______ ____

>  <TORSDO>
F 5

$$$$
=
 OpenBabel11052422103D

 25 26  0  0  1  0  0  0  0  0999 V2000
  159.3660  212.2800  157.1130 C   0  0  0  0  0  1  0  0  0  0  0  0
  160.8040  210.8790  154.3110 C   0  0  0  0  0  2  0  0  0  0  0  0
  159.3500  210.9590  156.3680 C   0  0  1  0  0  3  0  0  0  0  0  0
  160.7400  208.8750  155.9710 C   0  0  0  0  0  0  0  0  0  0  0  0
  159.5150  207.9700  155.8830 C   0  0  0  0  0  1  0  0  0  0  0  0
  159.5130  211.1870  154.9230 N   0  0  0  0  0  0  0  0  0  0  0  0
  161.8760  208.0650  156.5590 C   0  0  0  0  0  1  0  0  0  0  0  0
  161.1960  209.4230  154.5900 C   0  0  1  0  0  3  0  0  0  0  0  0
  160.4340  210.0300  156.9310 C   0  0  0  0  0  2  0  0  0  0  0  0
  158.3730  211.5230  154.0990 C   0  0  0  0  0  0  0  0  0  0  0  0
  158.5130  211.6000  152.7770 C   0  0  0  0  0  2  0  0  0  0  0  0
  157.0400  211.8020  154.6860 C   0  0  0  0  0  0  0  0  0  0  0  0
  156.6320  213.1440  154.9440 N   0  0  0  0  0  1  0  0  0  0  0  0
  156.2430  210.8640  154.9460 O   0  0  0  0  0  0  0  0  0  0  0  0
  160.9580  208.5130  153.3820 C   0  0  0  0  0  2  0  0  0  0  0  0
  161.9020  208.1730  151.0430 C   0  0  0  0  0  0  0  0  0  0  0  0
  161.7570  208.9430  152.2390 N   0  0  0  0  0  2  0  0  0  0  0  0
  162.2980  208.7480  149.9960 O   0  0  0  0  0  0  0  0  0  0  0  0
  161.5860  206.7310  150.9980 C   0  0  0  0  0  0  0  0  0  0  0  0
  160.9840  203.9900  150.9900 C   0  0  0  0  0  3  0  0  0  0  0  0
  160.8480  206.1680  149.9370 C   0  0  0  0  0  0  0  0  0  0  0  0
  160.5550  204.8010  149.9370 C   0  0  0  0  0  3  0  0  0  0  0  0
  161.6980  204.5450  152.0530 C   0  0  0  0  0  3  0  0  0  0  0  0
  160.3690  206.9420  148.9310 F   0  0  0  0  0  0  0  0  0  0  0  0
  161.9920  205.9100  152.0590 C   0  0  0  0  0  3  0  0  0  0  0  0
  2  8  1  0  0  0  0
  2  6  1  0  0  0  0
  3  9  1  0  0  0  0
  3  1  1  1  0  0  0
  4  7  1  0  0  0  0
  4  9  1  0  0  0  0
  5  4  1  0  0  0  0
  6  3  1  0  0  0  0
  8 15  1  6  0  0  0
  8  4  1  0  0  0  0
 10 12  1  0  0  0  0
 10  6  1  0  0  0  0
 11 10  2  0  0  0  0
 12 13  1  0  0  0  0
 12 14  2  0  0  0  0
 16 17  1  0  0  0  0
 17 15  1  0  0  0  0
 18 16  2  0  0  0  0
 19 16  1  0  0  0  0
 19 25  1  0  0  0  0
 20 23  1  0  0  0  0
 21 19  2  0  0  0  0
 22 21  1  0  0  0  0
 22 20  2  0  0  0  0
 23 25  2  0  0  0  0
 24 21  1  0  0  0  0
M  END
>  <MODEL>
3

>  <REMARK>
 VINA RESULT:      -6.1      2.922      7.316
  Name = 
  5 active torsions:
  status: ('A' for Active; 'I' for Inactive)
    1  A    between atoms: C_1  and  C_5
    2  A    between atoms: C_2  and  C_21
    3  A    between atoms: N_3  and  C_16
    4  A    between atoms: N_15  and  C_21
    5  A    between atoms: C_16  and  C_23
                            x       y       z     vdW  Elec       q    Type
                         _______ _______ _______ _____ _____    ______ ____

>  <TORSDO>
F 5

$$$$
=
 OpenBabel11052422103D

 25 26  0  0  1  0  0  0  0  0999 V2000
  163.0630  203.9640  145.0880 C   0  0  0  0  0  1  0  0  0  0  0  0
  162.2790  204.1390  148.4410 C   0  0  0  0  0  2  0  0  0  0  0  0
  161.9430  204.4870  145.9670 C   0  0  1  0  0  3  0  0  0  0  0  0
  161.3600  206.3980  147.5310 C   0  0  0  0  0  0  0  0  0  0  0  0
  159.8930  206.4060  147.1140 C   0  0  0  0  0  1  0  0  0  0  0  0
  161.7900  203.6360  147.1580 N   0  0  0  0  0  0  0  0  0  0  0  0
  161.7520  207.8170  147.8820 C   0  0  0  0  0  1  0  0  0  0  0  0
  161.6410  205.4950  148.7640 C   0  0  1  0  0  3  0  0  0  0  0  0
  162.2110  205.9520  146.3360 C   0  0  0  0  0  2  0  0  0  0  0  0
  161.0070  202.4220  147.0980 C   0  0  0  0  0  0  0  0  0  0  0  0
  160.4040  202.0790  145.9620 C   0  0  0  0  0  2  0  0  0  0  0  0
  160.8420  201.5410  148.2800 C   0  0  0  0  0  0  0  0  0  0  0  0
  159.7580  201.7430  149.1850 N   0  0  0  0  0  1  0  0  0  0  0  0
  161.6410  200.5910  148.4910 O   0  0  0  0  0  0  0  0  0  0  0  0
  160.5150  205.3790  149.7950 C   0  0  0  0  0  2  0  0  0  0  0  0
  161.2410  205.7150  152.2110 C   0  0  0  0  0  0  0  0  0  0  0  0
  161.0240  204.8820  151.0690 N   0  0  0  0  0  2  0  0  0  0  0  0
  161.3370  205.1770  153.3450 O   0  0  0  0  0  0  0  0  0  0  0  0
  161.3400  207.1840  152.1000 C   0  0  0  0  0  0  0  0  0  0  0  0
  161.4980  209.9830  151.9640 C   0  0  0  0  0  3  0  0  0  0  0  0
  162.3490  207.8030  151.3360 C   0  0  0  0  0  0  0  0  0  0  0  0
  162.4200  209.1980  151.2690 C   0  0  0  0  0  3  0  0  0  0  0  0
  160.5080  209.3760  152.7390 C   0  0  0  0  0  3  0  0  0  0  0  0
  163.2930  207.0670  150.6980 F   0  0  0  0  0  0  0  0  0  0  0  0
  160.4340  207.9840  152.8110 C   0  0  0  0  0  3  0  0  0  0  0  0
  2  8  1  0  0  0  0
  3  1  1  6  0  0  0
  3  9  1  0  0  0  0
  3  6  1  0  0  0  0
  4  7  1  0  0  0  0
  4  8  1  0  0  0  0
  5  4  1  0  0  0  0
  6  2  1  0  0  0  0
  8 15  1  6  0  0  0
  9  4  1  0  0  0  0
 10  6  1  0  0  0  0
 10 12  1  0  0  0  0
 11 10  2  0  0  0  0
 12 14  2  0  0  0  0
 12 13  1  0  0  0  0
 15 17  1  0  0  0  0
 16 18  2  0  0  0  0
 17 16  1  0  0  0  0
 19 16  1  0  0  0  0
 19 25  1  0  0  0  0
 20 23  1  0  0  0  0
 21 19  2  0  0  0  0
 22 21  1  0  0  0  0
 22 20  2  0  0  0  0
 23 25  2  0  0  0  0
 24 21  1  0  0  0  0
M  END
>  <MODEL>
4

>  <REMARK>
 VINA RESULT:      -5.9      2.931      4.751
  Name = 
  5 active torsions:
  status: ('A' for Active; 'I' for Inactive)
    1  A    between atoms: C_1  and  C_5
    2  A    between atoms: C_2  and  C_21
    3  A    between atoms: N_3  and  C_16
    4  A    between atoms: N_15  and  C_21
    5  A    between atoms: C_16  and  C_23
                            x       y       z     vdW  Elec       q    Type
                         _______ _______ _______ _____ _____    ______ ____

>  <TORSDO>
F 5

$$$$
=
 OpenBabel11052422103D

 25 26  0  0  1  0  0  0  0  0999 V2000
  159.9310  212.5110  156.7550 C   0  0  0  0  0  1  0  0  0  0  0  0
  161.0650  210.9130  153.9180 C   0  0  0  0  0  2  0  0  0  0  0  0
  159.7260  211.1920  156.0350 C   0  0  1  0  0  3  0  0  0  0  0  0
  160.8430  208.9530  155.6160 C   0  0  0  0  0  0  0  0  0  0  0  0
  159.5170  208.1970  155.5990 C   0  0  0  0  0  1  0  0  0  0  0  0
  159.8480  211.3800  154.5810 N   0  0  0  0  0  0  0  0  0  0  0  0
  161.9020  208.0230  156.1670 C   0  0  0  0  0  1  0  0  0  0  0  0
  161.2950  209.4250  154.2060 C   0  0  1  0  0  3  0  0  0  0  0  0
  160.7180  210.1480  156.5660 C   0  0  0  0  0  2  0  0  0  0  0  0
  158.7190  211.8370  153.8020 C   0  0  0  0  0  0  0  0  0  0  0  0
  158.8330  211.9600  152.4810 C   0  0  0  0  0  2  0  0  0  0  0  0
  157.4250  212.1900  154.4350 C   0  0  0  0  0  0  0  0  0  0  0  0
  156.4650  211.1770  154.7280 N   0  0  0  0  0  1  0  0  0  0  0  0
  157.1630  213.3830  154.7410 O   0  0  0  0  0  0  0  0  0  0  0  0
  160.8970  208.5340  153.0270 C   0  0  0  0  0  2  0  0  0  0  0  0
  161.8520  207.9220  150.7490 C   0  0  0  0  0  0  0  0  0  0  0  0
  161.7220  208.8160  151.8570 N   0  0  0  0  0  2  0  0  0  0  0  0
  162.2790  208.3730  149.6530 O   0  0  0  0  0  0  0  0  0  0  0  0
  161.4850  206.4960  150.8460 C   0  0  0  0  0  0  0  0  0  0  0  0
  160.7810  203.7800  150.9530 C   0  0  0  0  0  3  0  0  0  0  0  0
  161.9760  205.6740  151.8810 C   0  0  0  0  0  0  0  0  0  0  0  0
  161.6180  204.3230  151.9310 C   0  0  0  0  0  3  0  0  0  0  0  0
  160.3080  204.5850  149.9150 C   0  0  0  0  0  3  0  0  0  0  0  0
  162.8370  206.1590  152.8100 F   0  0  0  0  0  0  0  0  0  0  0  0
  160.6630  205.9340  149.8590 C   0  0  0  0  0  3  0  0  0  0  0  0
  2  8  1  0  0  0  0
  2  6  1  0  0  0  0
  3  9  1  0  0  0  0
  3  1  1  1  0  0  0
  4  7  1  0  0  0  0
  4  9  1  0  0  0  0
  5  4  1  0  0  0  0
  6  3  1  0  0  0  0
  8 15  1  6  0  0  0
  8  4  1  0  0  0  0
 10 12  1  0  0  0  0
 10  6  1  0  0  0  0
 11 10  2  0  0  0  0
 12 13  1  0  0  0  0
 12 14  2  0  0  0  0
 16 19  1  0  0  0  0
 16 17  1  0  0  0  0
 17 15  1  0  0  0  0
 18 16  2  0  0  0  0
 19 21  1  0  0  0  0
 20 22  1  0  0  0  0
 21 22  2  0  0  0  0
 21 24  1  0  0  0  0
 23 20  2  0  0  0  0
 25 23  1  0  0  0  0
 25 19  2  0  0  0  0
M  END
>  <MODEL>
5

>  <REMARK>
 VINA RESULT:      -5.9      2.565      7.168
  Name = 
  5 active torsions:
  status: ('A' for Active; 'I' for Inactive)
    1  A    between atoms: C_1  and  C_5
    2  A    between atoms: C_2  and  C_21
    3  A    between atoms: N_3  and  C_16
    4  A    between atoms: N_15  and  C_21
    5  A    between atoms: C_16  and  C_23
                            x       y       z     vdW  Elec       q    Type
                         _______ _______ _______ _____ _____    ______ ____

>  <TORSDO>
F 5

$$$$
=
 OpenBabel11052422103D

 25 26  0  0  1  0  0  0  0  0999 V2000
  159.6490  210.3350  154.4460 C   0  0  0  0  0  1  0  0  0  0  0  0
  160.3440  208.0670  151.9450 C   0  0  0  0  0  2  0  0  0  0  0  0
  160.8440  209.8630  153.6400 C   0  0  1  0  0  3  0  0  0  0  0  0
  161.9060  210.0600  151.3450 C   0  0  0  0  0  0  0  0  0  0  0  0
  163.3250  209.9920  151.9000 C   0  0  0  0  0  1  0  0  0  0  0  0
  160.7070  208.4360  153.3130 N   0  0  0  0  0  0  0  0  0  0  0  0
  161.9310  210.9360  150.1100 C   0  0  0  0  0  1  0  0  0  0  0  0
  161.3380  208.6710  150.9450 C   0  0  1  0  0  3  0  0  0  0  0  0
  161.0000  210.7310  152.3840 C   0  0  0  0  0  2  0  0  0  0  0  0
  161.1050  207.4220  154.2630 C   0  0  0  0  0  0  0  0  0  0  0  0
  161.5840  206.2580  153.8270 C   0  0  0  0  0  2  0  0  0  0  0  0
  160.9860  207.6330  155.7260 C   0  0  0  0  0  0  0  0  0  0  0  0
  159.7750  207.3100  156.4060 N   0  0  0  0  0  1  0  0  0  0  0  0
  161.9560  208.0810  156.3920 O   0  0  0  0  0  0  0  0  0  0  0  0
  162.3480  207.6410  150.4340 C   0  0  0  0  0  2  0  0  0  0  0  0
  161.6950  206.5000  148.2550 C   0  0  0  0  0  0  0  0  0  0  0  0
  162.3220  207.5630  148.9770 N   0  0  0  0  0  2  0  0  0  0  0  0
  161.4100  206.6770  147.0420 O   0  0  0  0  0  0  0  0  0  0  0  0
  161.3600  205.2110  148.8920 C   0  0  0  0  0  0  0  0  0  0  0  0
  160.6650  202.7970  150.1450 C   0  0  0  0  0  3  0  0  0  0  0  0
  161.5510  203.9840  148.2260 C   0  0  0  0  0  0  0  0  0  0  0  0
  161.2060  202.7850  148.8570 C   0  0  0  0  0  3  0  0  0  0  0  0
  160.4560  204.0110  150.8020 C   0  0  0  0  0  3  0  0  0  0  0  0
  162.0190  203.9440  146.9540 F   0  0  0  0  0  0  0  0  0  0  0  0
  160.7970  205.2120  150.1760 C   0  0  0  0  0  3  0  0  0  0  0  0
  2  6  1  0  0  0  0
  3  1  1  6  0  0  0
  4  5  1  0  0  0  0
  4  9  1  0  0  0  0
  6  3  1  0  0  0  0
  6 10  1  0  0  0  0
  7  4  1  0  0  0  0
  8 15  1  1  0  0  0
  8  4  1  0  0  0  0
  8  2  1  0  0  0  0
  9  3  1  0  0  0  0
 10 12  1  0  0  0  0
 11 10  2  0  0  0  0
 12 14  2  0  0  0  0
 12 13  1  0  0  0  0
 16 19  1  0  0  0  0
 16 17  1  0  0  0  0
 17 15  1  0  0  0  0
 18 16  2  0  0  0  0
 19 25  1  0  0  0  0
 20 23  1  0  0  0  0
 21 22  1  0  0  0  0
 21 19  2  0  0  0  0
 22 20  2  0  0  0  0
 24 21  1  0  0  0  0
 25 23  2  0  0  0  0
M  END
>  <MODEL>
6

>  <REMARK>
 VINA RESULT:      -5.8      2.886      7.093
  Name = 
  5 active torsions:
  status: ('A' for Active; 'I' for Inactive)
    1  A    between atoms: C_1  and  C_5
    2  A    between atoms: C_2  and  C_21
    3  A    between atoms: N_3  and  C_16
    4  A    between atoms: N_15  and  C_21
    5  A    between atoms: C_16  and  C_23
                            x       y       z     vdW  Elec       q    Type
                         _______ _______ _______ _____ _____    ______ ____

>  <TORSDO>
F 5

$$$$
=
 OpenBabel11052422103D

 25 26  0  0  1  0  0  0  0  0999 V2000
  160.1190  212.6300  156.5740 C   0  0  0  0  0  1  0  0  0  0  0  0
  160.9460  210.5810  153.9270 C   0  0  0  0  0  2  0  0  0  0  0  0
  159.8180  211.2250  156.0870 C   0  0  1  0  0  3  0  0  0  0  0  0
  160.8410  208.9100  155.9200 C   0  0  0  0  0  0  0  0  0  0  0  0
  159.5040  208.2090  156.1380 C   0  0  0  0  0  1  0  0  0  0  0  0
  159.8070  211.1860  154.6170 N   0  0  0  0  0  0  0  0  0  0  0  0
  161.9270  208.0360  156.5110 C   0  0  0  0  0  1  0  0  0  0  0  0
  161.1700  209.1470  154.4190 C   0  0  1  0  0  3  0  0  0  0  0  0
  160.8330  210.2390  156.6820 C   0  0  0  0  0  2  0  0  0  0  0  0
  158.6200  211.5610  153.8810 C   0  0  0  0  0  0  0  0  0  0  0  0
  158.6810  211.7090  152.5580 C   0  0  0  0  0  2  0  0  0  0  0  0
  157.3240  211.8010  154.5590 C   0  0  0  0  0  0  0  0  0  0  0  0
  156.8530  213.1310  154.7660 N   0  0  0  0  0  1  0  0  0  0  0  0
  156.6110  210.8370  154.9440 O   0  0  0  0  0  0  0  0  0  0  0  0
  160.6430  208.1020  153.4320 C   0  0  0  0  0  2  0  0  0  0  0  0
  162.0950  206.3100  152.3580 C   0  0  0  0  0  0  0  0  0  0  0  0
  161.4370  206.8800  153.4920 N   0  0  0  0  0  2  0  0  0  0  0  0
  163.0250  205.4820  152.5500 O   0  0  0  0  0  0  0  0  0  0  0  0
  161.7300  206.6740  150.9750 C   0  0  0  0  0  0  0  0  0  0  0  0
  160.9670  207.3250  148.3530 C   0  0  0  0  0  3  0  0  0  0  0  0
  162.1300  207.8980  150.4020 C   0  0  0  0  0  0  0  0  0  0  0  0
  161.7500  208.2150  149.0940 C   0  0  0  0  0  3  0  0  0  0  0  0
  160.5510  206.1210  148.9230 C   0  0  0  0  0  3  0  0  0  0  0  0
  162.8400  208.8060  151.1160 F   0  0  0  0  0  0  0  0  0  0  0  0
  160.9260  205.8000  150.2290 C   0  0  0  0  0  3  0  0  0  0  0  0
  2  8  1  0  0  0  0
  2  6  1  0  0  0  0
  3  1  1  6  0  0  0
  3  9  1  0  0  0  0
  4  5  1  0  0  0  0
  4  7  1  0  0  0  0
  4  9  1  0  0  0  0
  6  3  1  0  0  0  0
  8 15  1  6  0  0  0
  8  4  1  0  0  0  0
 10 12  1  0  0  0  0
 10  6  1  0  0  0  0
 11 10  2  0  0  0  0
 12 13  1  0  0  0  0
 12 14  2  0  0  0  0
 15 17  1  0  0  0  0
 16 18  2  0  0  0  0
 16 17  1  0  0  0  0
 19 16  1  0  0  0  0
 20 23  2  0  0  0  0
 20 22  1  0  0  0  0
 21 19  1  0  0  0  0
 21 24  1  0  0  0  0
 22 21  2  0  0  0  0
 23 25  1  0  0  0  0
 25 19  2  0  0  0  0
M  END
>  <MODEL>
7

>  <REMARK>
 VINA RESULT:      -5.5      2.769      7.311
  Name = 
  5 active torsions:
  status: ('A' for Active; 'I' for Inactive)
    1  A    between atoms: C_1  and  C_5
    2  A    between atoms: C_2  and  C_21
    3  A    between atoms: N_3  and  C_16
    4  A    between atoms: N_15  and  C_21
    5  A    between atoms: C_16  and  C_23
                            x       y       z     vdW  Elec       q    Type
                         _______ _______ _______ _____ _____    ______ ____

>  <TORSDO>
F 5

$$$$
=
 OpenBabel11052422103D

 25 26  0  0  1  0  0  0  0  0999 V2000
  161.0120  203.0840  148.0970 C   0  0  0  0  0  1  0  0  0  0  0  0
  160.1180  206.1580  149.3760 C   0  0  0  0  0  2  0  0  0  0  0  0
  161.5830  204.1370  149.0270 C   0  0  1  0  0  3  0  0  0  0  0  0
  161.3560  205.0550  151.3810 C   0  0  0  0  0  0  0  0  0  0  0  0
  162.8470  205.3590  151.4990 C   0  0  0  0  0  1  0  0  0  0  0  0
  161.1550  205.4790  148.6010 N   0  0  0  0  0  0  0  0  0  0  0  0
  160.8440  204.6970  152.7600 C   0  0  0  0  0  1  0  0  0  0  0  0
  160.5270  206.2570  150.8500 C   0  0  1  0  0  3  0  0  0  0  0  0
  161.1710  203.8340  150.4740 C   0  0  0  0  0  2  0  0  0  0  0  0
  161.8740  206.1850  147.5630 C   0  0  0  0  0  0  0  0  0  0  0  0
  162.6980  207.1790  147.8890 C   0  0  0  0  0  2  0  0  0  0  0  0
  161.7120  205.8420  146.1300 C   0  0  0  0  0  0  0  0  0  0  0  0
  160.4590  206.0390  145.4780 N   0  0  0  0  0  1  0  0  0  0  0  0
  162.6800  205.3910  145.4630 O   0  0  0  0  0  0  0  0  0  0  0  0
  161.0310  207.6530  151.2230 C   0  0  0  0  0  2  0  0  0  0  0  0
  160.7640  208.8610  153.4460 C   0  0  0  0  0  0  0  0  0  0  0  0
  161.2420  207.7650  152.6620 N   0  0  0  0  0  2  0  0  0  0  0  0
  160.6730  208.7190  154.6940 O   0  0  0  0  0  0  0  0  0  0  0  0
  160.3600  210.1430  152.8360 C   0  0  0  0  0  0  0  0  0  0  0  0
  159.5480  212.5970  151.7410 C   0  0  0  0  0  3  0  0  0  0  0  0
  161.2060  210.8410  151.9520 C   0  0  0  0  0  0  0  0  0  0  0  0
  160.7950  212.0610  151.4060 C   0  0  0  0  0  3  0  0  0  0  0  0
  158.7140  211.9190  152.6310 C   0  0  0  0  0  3  0  0  0  0  0  0
  162.4450  210.3760  151.6550 F   0  0  0  0  0  0  0  0  0  0  0  0
  159.1200  210.7010  153.1800 C   0  0  0  0  0  3  0  0  0  0  0  0
  2  8  1  0  0  0  0
  3  1  1  6  0  0  0
  3  9  1  0  0  0  0
  4  5  1  0  0  0  0
  4  7  1  0  0  0  0
  6  3  1  0  0  0  0
  6  2  1  0  0  0  0
  8 15  1  6  0  0  0
  8  4  1  0  0  0  0
  9  4  1  0  0  0  0
 10 11  2  0  0  0  0
 10  6  1  0  0  0  0
 12 10  1  0  0  0  0
 13 12  1  0  0  0  0
 14 12  2  0  0  0  0
 15 17  1  0  0  0  0
 16 18  2  0  0  0  0
 17 16  1  0  0  0  0
 19 25  1  0  0  0  0
 19 16  1  0  0  0  0
 20 23  1  0  0  0  0
 21 19  2  0  0  0  0
 22 20  2  0  0  0  0
 22 21  1  0  0  0  0
 23 25  2  0  0  0  0
 24 21  1  0  0  0  0
M  END
>  <MODEL>
8

>  <REMARK>
 VINA RESULT:      -5.4      1.755      2.699
  Name = 
  5 active torsions:
  status: ('A' for Active; 'I' for Inactive)
    1  A    between atoms: C_1  and  C_5
    2  A    between atoms: C_2  and  C_21
    3  A    between atoms: N_3  and  C_16
    4  A    between atoms: N_15  and  C_21
    5  A    between atoms: C_16  and  C_23
                            x       y       z     vdW  Elec       q    Type
                         _______ _______ _______ _____ _____    ______ ____

>  <TORSDO>
F 5

$$$$
=
 OpenBabel11052422103D

 25 26  0  0  1  0  0  0  0  0999 V2000
  160.5920  202.3740  149.9980 C   0  0  0  0  0  1  0  0  0  0  0  0
  160.0460  205.7700  149.7700 C   0  0  0  0  0  2  0  0  0  0  0  0
  161.3530  203.6650  150.2310 C   0  0  1  0  0  3  0  0  0  0  0  0
  161.5650  205.5860  151.8750 C   0  0  0  0  0  0  0  0  0  0  0  0
  163.0640  205.7390  151.6350 C   0  0  0  0  0  1  0  0  0  0  0  0
  160.9100  204.6970  149.2810 N   0  0  0  0  0  0  0  0  0  0  0  0
  161.2820  205.9670  153.3120 C   0  0  0  0  0  1  0  0  0  0  0  0
  160.7040  206.4920  150.9520 C   0  0  1  0  0  3  0  0  0  0  0  0
  161.1820  204.1140  151.6890 C   0  0  0  0  0  2  0  0  0  0  0  0
  161.4670  204.7560  147.9480 C   0  0  0  0  0  0  0  0  0  0  0  0
  161.9550  203.6520  147.3850 C   0  0  0  0  0  2  0  0  0  0  0  0
  161.5270  206.0250  147.1820 C   0  0  0  0  0  0  0  0  0  0  0  0
  160.6450  206.2460  146.0830 N   0  0  0  0  0  1  0  0  0  0  0  0
  162.3400  206.9310  147.5010 O   0  0  0  0  0  0  0  0  0  0  0  0
  161.3170  207.8350  150.5470 C   0  0  0  0  0  2  0  0  0  0  0  0
  162.0040  209.8870  151.8860 C   0  0  0  0  0  0  0  0  0  0  0  0
  161.9750  208.4720  151.6830 N   0  0  0  0  0  2  0  0  0  0  0  0
  162.2700  210.3290  153.0340 O   0  0  0  0  0  0  0  0  0  0  0  0
  161.7160  210.8400  150.7960 C   0  0  0  0  0  0  0  0  0  0  0  0
  161.1820  212.5950  148.6710 C   0  0  0  0  0  3  0  0  0  0  0  0
  160.8040  211.9020  150.9630 C   0  0  0  0  0  0  0  0  0  0  0  0
  160.5450  212.7750  149.9020 C   0  0  0  0  0  3  0  0  0  0  0  0
  162.0700  211.5330  148.4940 C   0  0  0  0  0  3  0  0  0  0  0  0
  160.1280  212.0670  152.1270 F   0  0  0  0  0  0  0  0  0  0  0  0
  162.3310  210.6570  149.5490 C   0  0  0  0  0  3  0  0  0  0  0  0
  2  8  1  0  0  0  0
  3  1  1  1  0  0  0
  3  9  1  0  0  0  0
  4  7  1  0  0  0  0
  5  4  1  0  0  0  0
  6  2  1  0  0  0  0
  6  3  1  0  0  0  0
  8 15  1  6  0  0  0
  8  4  1  0  0  0  0
  9  4  1  0  0  0  0
 10  6  1  0  0  0  0
 11 10  2  0  0  0  0
 12 14  2  0  0  0  0
 12 10  1  0  0  0  0
 13 12  1  0  0  0  0
 15 17  1  0  0  0  0
 16 18  2  0  0  0  0
 17 16  1  0  0  0  0
 19 21  1  0  0  0  0
 19 16  1  0  0  0  0
 20 22  1  0  0  0  0
 21 24  1  0  0  0  0
 22 21  2  0  0  0  0
 23 20  2  0  0  0  0
 23 25  1  0  0  0  0
 25 19  2  0  0  0  0
M  END
>  <MODEL>
9

>  <REMARK>
 VINA RESULT:      -5.2      2.357      3.879
  Name = 
  5 active torsions:
  status: ('A' for Active; 'I' for Inactive)
    1  A    between atoms: C_1  and  C_5
    2  A    between atoms: C_2  and  C_21
    3  A    between atoms: N_3  and  C_16
    4  A    between atoms: N_15  and  C_21
    5  A    between atoms: C_16  and  C_23
                            x       y       z     vdW  Elec       q    Type
                         _______ _______ _______ _____ _____    ______ ____

>  <TORSDO>
F 5

$$$$
