=
 OpenBabel11062408203D

 32 36  0  0  1  0  0  0  0  0999 V2000
  162.8320  208.5220  151.6400 C   0  0  0  0  0  2  0  0  0  0  0  0
  161.2000  208.9520  149.3730 C   0  0  0  0  0  2  0  0  0  0  0  0
  162.4340  207.3320  150.7620 C   0  0  2  0  0  3  0  0  0  0  0  0
  161.0050  206.4760  148.9500 C   0  0  0  0  0  2  0  0  0  0  0  0
  161.1900  210.0040  150.4060 N   0  0  1  0  0  0  0  0  0  0  0  0
  161.1520  205.0990  149.5550 C   0  0  0  0  0  0  0  0  0  0  0  0
  161.1470  207.5690  149.9970 C   0  0  2  0  0  3  0  0  0  0  0  0
  162.2840  206.0540  151.5730 C   0  0  0  0  0  2  0  0  0  0  0  0
  161.7480  209.6190  151.7300 C   0  0  1  0  0  3  0  0  0  0  0  0
  160.6330  204.0370  148.8270 O   0  0  0  0  0  1  0  0  0  0  0  0
  161.8050  204.8930  150.7300 C   0  0  0  0  0  0  0  0  0  0  0  0
  159.8250  210.1280  155.0430 C   0  0  1  0  0  0  0  0  0  0  0  0
  160.0000  207.1310  153.7050 O   0  0  0  0  0  1  0  0  0  0  0  0
  158.4810  210.2060  155.4140 O   0  0  0  0  0  1  0  0  0  0  0  0
  160.7930  210.5210  156.1530 C   0  0  1  0  0  3  0  0  0  0  0  0
  161.0710  208.0130  153.5470 C   0  0  2  0  0  3  0  0  0  0  0  0
  160.5810  209.0370  155.7900 C   0  0  2  0  0  3  0  0  0  0  0  0
  161.6570  208.4000  154.9030 C   0  0  0  0  0  2  0  0  0  0  0  0
  160.2040  210.4500  153.5780 C   0  0  2  0  0  3  0  0  0  0  0  0
  159.1040  211.2370  152.8800 C   0  0  0  0  0  1  0  0  0  0  0  0
  160.6330  209.2360  152.7230 C   0  0  1  0  0  3  0  0  0  0  0  0
  163.1290  211.1050  156.7790 C   0  0  0  0  0  1  0  0  0  0  0  0
  162.1150  211.1080  155.6530 C   0  0  0  0  0  2  0  0  0  0  0  0
  162.8480  212.2160  147.7700 C   0  0  0  0  0  2  0  0  0  0  0  0
  161.4700  213.5460  148.9340 C   0  0  0  0  0  2  0  0  0  0  0  0
  160.9200  212.4450  149.8520 C   0  0  0  0  0  2  0  0  0  0  0  0
  161.8390  211.2070  149.8750 C   0  0  0  0  0  3  0  0  0  0  0  0
  162.8250  213.3280  148.6300 O   0  0  0  0  0  0  0  0  0  0  0  0
  162.5120  210.9220  148.5240 C   0  0  0  0  0  2  0  0  0  0  0  0
  161.9930  203.5860  151.2960 N   0  0  0  0  0  2  0  0  0  0  0  0
  160.9450  202.6380  151.6410 C   0  0  0  0  0  2  0  0  0  0  0  0
  160.9120  201.3030  150.4150 S   0  0  0  0  0  1  0  0  0  0  0  0
  2  7  1  0  0  0  0
  2  5  1  0  0  0  0
  3  8  1  1  0  0  0
  3  1  1  0  0  0  0
  4  6  1  0  0  0  0
  5 27  1  6  0  0  0
  5  9  1  0  0  0  0
  6 11  2  0  0  0  0
  7  4  1  6  0  0  0
  7  3  1  0  0  0  0
  9  1  1  6  0  0  0
 10  6  1  0  0  0  0
 11 30  1  0  0  0  0
 11  8  1  0  0  0  0
 12 14  1  1  0  0  0
 12 17  1  0  0  0  0
 12 15  1  0  0  0  0
 15 23  1  6  0  0  0
 16 13  1  1  0  0  0
 16 18  1  0  0  0  0
 17 18  1  6  0  0  0
 17 15  1  0  0  0  0
 19 20  1  6  0  0  0
 19 12  1  0  0  0  0
 21  9  1  6  0  0  0
 21 16  1  0  0  0  0
 21 19  1  0  0  0  0
 23 22  1  0  0  0  0
 24 29  1  0  0  0  0
 24 28  1  0  0  0  0
 25 26  1  0  0  0  0
 26 27  1  0  0  0  0
 28 25  1  0  0  0  0
 29 27  1  0  0  0  0
 30 31  1  0  0  0  0
 32 31  1  0  0  0  0
M  END
>  <MODEL>
1

>  <REMARK>
 VINA RESULT:      -4.1      0.000      0.000
  Name = 
  5 active torsions:
  status: ('A' for Active; 'I' for Inactive)
    1  A    between atoms: N_10  and  C_28
    2  A    between atoms: N_14  and  C_21
    3  A    between atoms: N_14  and  C_29
    4  A    between atoms: C_15  and  C_26
    5  A    between atoms: C_24  and  C_27
                            x       y       z     vdW  Elec       q    Type
                         _______ _______ _______ _____ _____    ______ ____

>  <TORSDO>
F 5

$$$$
=
 OpenBabel11062408203D

 32 36  0  0  1  0  0  0  0  0999 V2000
  159.1180  211.6640  141.8830 C   0  0  0  0  0  2  0  0  0  0  0  0
  158.3450  214.3760  142.0690 C   0  0  0  0  0  2  0  0  0  0  0  0
  159.0620  212.3390  143.2570 C   0  0  2  0  0  3  0  0  0  0  0  0
  158.8640  214.4340  144.5340 C   0  0  0  0  0  2  0  0  0  0  0  0
  158.8070  213.9070  140.7500 N   0  0  1  0  0  0  0  0  0  0  0  0
  159.6100  213.7560  145.6600 C   0  0  0  0  0  0  0  0  0  0  0  0
  159.2300  213.8440  143.1820 C   0  0  2  0  0  3  0  0  0  0  0  0
  160.1140  211.7840  144.2050 C   0  0  0  0  0  2  0  0  0  0  0  0
  159.5410  212.6140  140.7410 C   0  0  1  0  0  3  0  0  0  0  0  0
  159.7020  214.4530  146.8580 O   0  0  0  0  0  1  0  0  0  0  0  0
  160.1250  212.5040  145.5340 C   0  0  0  0  0  0  0  0  0  0  0  0
  162.9790  212.3830  138.9920 C   0  0  1  0  0  0  0  0  0  0  0  0
  162.8060  212.2350  142.2710 O   0  0  0  0  0  1  0  0  0  0  0  0
  164.0570  213.2490  138.7940 O   0  0  0  0  0  1  0  0  0  0  0  0
  163.0650  211.0970  138.1780 C   0  0  1  0  0  3  0  0  0  0  0  0
  161.7610  211.7090  141.5080 C   0  0  2  0  0  3  0  0  0  0  0  0
  163.3810  211.0900  139.6880 C   0  0  2  0  0  3  0  0  0  0  0  0
  162.2640  210.5820  140.6070 C   0  0  0  0  0  2  0  0  0  0  0  0
  161.5860  212.9950  139.2690 C   0  0  2  0  0  3  0  0  0  0  0  0
  161.5240  214.4530  138.8390 C   0  0  0  0  0  1  0  0  0  0  0  0
  161.0660  212.8310  140.7170 C   0  0  1  0  0  3  0  0  0  0  0  0
  161.9070  209.1050  137.2420 C   0  0  0  0  0  1  0  0  0  0  0  0
  161.7080  210.4920  137.8170 C   0  0  0  0  0  2  0  0  0  0  0  0
  156.6310  212.5940  137.8970 C   0  0  0  0  0  2  0  0  0  0  0  0
  155.2250  213.2560  139.5120 C   0  0  0  0  0  2  0  0  0  0  0  0
  156.3110  213.6740  140.5120 C   0  0  0  0  0  2  0  0  0  0  0  0
  157.6720  213.8920  139.8200 C   0  0  0  0  0  3  0  0  0  0  0  0
  155.6170  213.5240  138.1890 O   0  0  0  0  0  0  0  0  0  0  0  0
  157.9240  212.9270  138.6530 C   0  0  0  0  0  2  0  0  0  0  0  0
  160.7970  211.8290  146.6090 N   0  0  0  0  0  2  0  0  0  0  0  0
  161.2410  212.4270  147.8590 C   0  0  0  0  0  2  0  0  0  0  0  0
  163.0530  212.4500  147.9060 S   0  0  0  0  0  1  0  0  0  0  0  0
  3  1  1  6  0  0  0
  3  8  1  0  0  0  0
  4  6  1  0  0  0  0
  5 27  1  6  0  0  0
  5  2  1  0  0  0  0
  6 10  1  0  0  0  0
  7  2  1  6  0  0  0
  7  3  1  0  0  0  0
  7  4  1  0  0  0  0
  8 11  1  0  0  0  0
  9  5  1  0  0  0  0
  9  1  1  1  0  0  0
 11  6  2  0  0  0  0
 11 30  1  0  0  0  0
 12 14  1  6  0  0  0
 12 19  1  0  0  0  0
 12 17  1  0  0  0  0
 15 23  1  1  0  0  0
 15 12  1  0  0  0  0
 15 17  1  0  0  0  0
 16 13  1  6  0  0  0
 17 18  1  1  0  0  0
 18 16  1  0  0  0  0
 19 20  1  1  0  0  0
 19 21  1  0  0  0  0
 21  9  1  6  0  0  0
 21 16  1  0  0  0  0
 22 23  1  0  0  0  0
 24 28  1  0  0  0  0
 24 29  1  0  0  0  0
 25 26  1  0  0  0  0
 27 26  1  0  0  0  0
 28 25  1  0  0  0  0
 29 27  1  0  0  0  0
 30 31  1  0  0  0  0
 31 32  1  0  0  0  0
M  END
>  <MODEL>
2

>  <REMARK>
 VINA RESULT:      -3.2      8.348     12.803
  Name = 
  5 active torsions:
  status: ('A' for Active; 'I' for Inactive)
    1  A    between atoms: N_10  and  C_28
    2  A    between atoms: N_14  and  C_21
    3  A    between atoms: N_14  and  C_29
    4  A    between atoms: C_15  and  C_26
    5  A    between atoms: C_24  and  C_27
                            x       y       z     vdW  Elec       q    Type
                         _______ _______ _______ _____ _____    ______ ____

>  <TORSDO>
F 5

$$$$
=
 OpenBabel11062408203D

 32 36  0  0  1  0  0  0  0  0999 V2000
  158.7750  210.8170  152.4480 C   0  0  0  0  0  2  0  0  0  0  0  0
  161.5800  210.5920  152.1840 C   0  0  0  0  0  2  0  0  0  0  0  0
  159.4640  211.3950  151.2080 C   0  0  2  0  0  3  0  0  0  0  0  0
  161.5760  212.0220  150.1090 C   0  0  0  0  0  2  0  0  0  0  0  0
  161.0270  210.4340  153.5410 N   0  0  1  0  0  0  0  0  0  0  0  0
  160.7950  213.0320  149.3020 C   0  0  0  0  0  0  0  0  0  0  0  0
  160.9190  211.7460  151.4520 C   0  0  2  0  0  3  0  0  0  0  0  0
  158.7510  212.6350  150.6900 C   0  0  0  0  0  2  0  0  0  0  0  0
  159.6300  210.9050  153.7320 C   0  0  1  0  0  3  0  0  0  0  0  0
  161.4790  213.6820  148.2820 O   0  0  0  0  0  1  0  0  0  0  0  0
  159.4730  213.2650  149.5210 C   0  0  0  0  0  0  0  0  0  0  0  0
  158.5920  213.3670  156.5230 C   0  0  1  0  0  0  0  0  0  0  0  0
  158.9460  214.4530  153.4400 O   0  0  0  0  0  1  0  0  0  0  0  0
  159.2320  214.3650  157.2610 O   0  0  0  0  0  1  0  0  0  0  0  0
  157.2060  213.0090  157.0470 C   0  0  1  0  0  3  0  0  0  0  0  0
  158.4940  213.1500  153.6580 C   0  0  2  0  0  3  0  0  0  0  0  0
  157.3630  213.8790  155.7810 C   0  0  2  0  0  3  0  0  0  0  0  0
  157.1830  213.1570  154.4410 C   0  0  0  0  0  2  0  0  0  0  0  0
  159.4570  212.2540  155.8860 C   0  0  2  0  0  3  0  0  0  0  0  0
  160.8280  212.1740  156.5390 C   0  0  0  0  0  1  0  0  0  0  0  0
  159.5880  212.3170  154.3460 C   0  0  1  0  0  3  0  0  0  0  0  0
  155.3330  211.3750  157.1570 C   0  0  0  0  0  1  0  0  0  0  0  0
  156.7850  211.5650  156.7680 C   0  0  0  0  0  2  0  0  0  0  0  0
  160.1080  207.1840  155.3280 C   0  0  0  0  0  2  0  0  0  0  0  0
  160.8910  206.5970  153.3120 C   0  0  0  0  0  2  0  0  0  0  0  0
  161.1290  208.0280  152.8080 C   0  0  0  0  0  2  0  0  0  0  0  0
  161.1920  209.0400  153.9690 C   0  0  0  0  0  3  0  0  0  0  0  0
  161.1510  206.4910  154.6890 O   0  0  0  0  0  0  0  0  0  0  0  0
  160.2430  208.7000  155.1270 C   0  0  0  0  0  2  0  0  0  0  0  0
  158.7060  214.1890  148.7320 N   0  0  0  0  0  2  0  0  0  0  0  0
  157.4090  213.9340  148.1260 C   0  0  0  0  0  2  0  0  0  0  0  0
  157.5920  212.7060  146.8050 S   0  0  0  0  0  1  0  0  0  0  0  0
  2  5  1  0  0  0  0
  3  8  1  1  0  0  0
  3  7  1  0  0  0  0
  3  1  1  0  0  0  0
  5  9  1  0  0  0  0
  5 27  1  6  0  0  0
  6 11  2  0  0  0  0
  6  4  1  0  0  0  0
  7  4  1  6  0  0  0
  7  2  1  0  0  0  0
  9  1  1  6  0  0  0
 10  6  1  0  0  0  0
 11  8  1  0  0  0  0
 12 15  1  0  0  0  0
 12 14  1  1  0  0  0
 15 23  1  6  0  0  0
 16 13  1  1  0  0  0
 16 21  1  0  0  0  0
 16 18  1  0  0  0  0
 17 18  1  6  0  0  0
 17 12  1  0  0  0  0
 17 15  1  0  0  0  0
 19 12  1  0  0  0  0
 19 20  1  1  0  0  0
 21  9  1  6  0  0  0
 21 19  1  0  0  0  0
 23 22  1  0  0  0  0
 25 28  1  0  0  0  0
 26 25  1  0  0  0  0
 26 27  1  0  0  0  0
 27 29  1  0  0  0  0
 28 24  1  0  0  0  0
 29 24  1  0  0  0  0
 30 11  1  0  0  0  0
 31 30  1  0  0  0  0
 32 31  1  0  0  0  0
M  END
>  <MODEL>
3

>  <REMARK>
 VINA RESULT:      -2.3      3.608      6.973
  Name = 
  5 active torsions:
  status: ('A' for Active; 'I' for Inactive)
    1  A    between atoms: N_10  and  C_28
    2  A    between atoms: N_14  and  C_21
    3  A    between atoms: N_14  and  C_29
    4  A    between atoms: C_15  and  C_26
    5  A    between atoms: C_24  and  C_27
                            x       y       z     vdW  Elec       q    Type
                         _______ _______ _______ _____ _____    ______ ____

>  <TORSDO>
F 5

$$$$
=
 OpenBabel11062408203D

 32 36  0  0  1  0  0  0  0  0999 V2000
  159.7090  213.6030  153.0390 C   0  0  0  0  0  2  0  0  0  0  0  0
  156.9620  213.2220  152.4950 C   0  0  0  0  0  2  0  0  0  0  0  0
  159.1970  213.7530  151.6030 C   0  0  2  0  0  3  0  0  0  0  0  0
  157.3480  213.4210  150.0130 C   0  0  0  0  0  2  0  0  0  0  0  0
  157.4740  212.6490  153.7530 N   0  0  1  0  0  0  0  0  0  0  0  0
  158.3780  213.3560  148.9100 C   0  0  0  0  0  0  0  0  0  0  0  0
  157.9230  212.9720  151.3470 C   0  0  2  0  0  3  0  0  0  0  0  0
  160.2390  213.3220  150.5820 C   0  0  0  0  0  2  0  0  0  0  0  0
  158.9530  212.5340  153.8600 C   0  0  1  0  0  3  0  0  0  0  0  0
  157.8980  213.3200  147.6070 O   0  0  0  0  0  1  0  0  0  0  0  0
  159.7130  213.3820  149.1660 C   0  0  0  0  0  0  0  0  0  0  0  0
  160.4740  209.1300  154.8720 C   0  0  1  0  0  0  0  0  0  0  0  0
  160.9220  210.2720  151.8220 O   0  0  0  0  0  1  0  0  0  0  0  0
  160.1610  207.7890  154.6400 O   0  0  0  0  0  1  0  0  0  0  0  0
  161.5580  209.3340  155.9250 C   0  0  1  0  0  3  0  0  0  0  0  0
  160.8340  211.1750  152.8840 C   0  0  2  0  0  3  0  0  0  0  0  0
  161.8850  209.4910  154.4250 C   0  0  2  0  0  3  0  0  0  0  0  0
  161.9500  210.9280  153.8960 C   0  0  0  0  0  2  0  0  0  0  0  0
  159.3460  210.1810  154.7520 C   0  0  2  0  0  3  0  0  0  0  0  0
  157.9720  209.5330  154.8380 C   0  0  0  0  0  1  0  0  0  0  0  0
  159.4350  211.1110  153.5200 C   0  0  1  0  0  3  0  0  0  0  0  0
  162.8230  211.0810  157.1640 C   0  0  0  0  0  1  0  0  0  0  0  0
  161.4490  210.6570  156.6860 C   0  0  0  0  0  2  0  0  0  0  0  0
  155.3790  213.1650  156.9060 C   0  0  0  0  0  2  0  0  0  0  0  0
  157.3160  214.2370  157.2520 C   0  0  0  0  0  2  0  0  0  0  0  0
  157.9590  213.8460  155.9150 C   0  0  0  0  0  2  0  0  0  0  0  0
  156.9060  213.3900  154.8850 C   0  0  0  0  0  3  0  0  0  0  0  0
  155.9320  214.4410  157.1140 O   0  0  0  0  0  0  0  0  0  0  0  0
  155.7310  212.6260  155.5130 C   0  0  0  0  0  2  0  0  0  0  0  0
  160.7040  213.3670  148.1260 N   0  0  0  0  0  2  0  0  0  0  0  0
  161.7450  214.3610  147.9140 C   0  0  0  0  0  2  0  0  0  0  0  0
  162.2370  214.3560  146.1690 S   0  0  0  0  0  1  0  0  0  0  0  0
  2  5  1  0  0  0  0
  3  8  1  6  0  0  0
  3  1  1  0  0  0  0
  5  9  1  0  0  0  0
  5 27  1  1  0  0  0
  6 11  2  0  0  0  0
  6  4  1  0  0  0  0
  7  4  1  6  0  0  0
  7  3  1  0  0  0  0
  7  2  1  0  0  0  0
  9  1  1  6  0  0  0
 10  6  1  0  0  0  0
 11  8  1  0  0  0  0
 12 14  1  6  0  0  0
 12 15  1  0  0  0  0
 15 23  1  1  0  0  0
 16 13  1  6  0  0  0
 16 21  1  0  0  0  0
 16 18  1  0  0  0  0
 17 18  1  1  0  0  0
 17 12  1  0  0  0  0
 17 15  1  0  0  0  0
 19 20  1  6  0  0  0
 19 12  1  0  0  0  0
 21  9  1  1  0  0  0
 21 19  1  0  0  0  0
 23 22  1  0  0  0  0
 24 28  1  0  0  0  0
 26 25  1  0  0  0  0
 27 29  1  0  0  0  0
 27 26  1  0  0  0  0
 28 25  1  0  0  0  0
 29 24  1  0  0  0  0
 30 11  1  0  0  0  0
 31 30  1  0  0  0  0
 32 31  1  0  0  0  0
M  END
>  <MODEL>
4

>  <REMARK>
 VINA RESULT:      -2.2      4.677      7.212
  Name = 
  5 active torsions:
  status: ('A' for Active; 'I' for Inactive)
    1  A    between atoms: N_10  and  C_28
    2  A    between atoms: N_14  and  C_21
    3  A    between atoms: N_14  and  C_29
    4  A    between atoms: C_15  and  C_26
    5  A    between atoms: C_24  and  C_27
                            x       y       z     vdW  Elec       q    Type
                         _______ _______ _______ _____ _____    ______ ____

>  <TORSDO>
F 5

$$$$
=
 OpenBabel11062408203D

 32 36  0  0  1  0  0  0  0  0999 V2000
  158.9170  210.9310  151.9870 C   0  0  0  0  0  2  0  0  0  0  0  0
  158.8350  213.4970  153.1690 C   0  0  0  0  0  2  0  0  0  0  0  0
  159.2880  211.0920  153.4640 C   0  0  2  0  0  3  0  0  0  0  0  0
  159.8290  212.6240  155.3130 C   0  0  0  0  0  2  0  0  0  0  0  0
  158.9090  213.4470  151.6970 N   0  0  1  0  0  0  0  0  0  0  0  0
  160.6070  211.4970  155.9500 C   0  0  0  0  0  0  0  0  0  0  0  0
  159.7770  212.4880  153.8000 C   0  0  2  0  0  3  0  0  0  0  0  0
  160.3510  210.0940  153.8940 C   0  0  0  0  0  2  0  0  0  0  0  0
  159.3120  212.1420  151.1110 C   0  0  1  0  0  3  0  0  0  0  0  0
  161.0890  211.7160  157.2340 O   0  0  0  0  0  1  0  0  0  0  0  0
  160.7880  210.3020  155.3270 C   0  0  0  0  0  0  0  0  0  0  0  0
  162.2100  212.5080  148.5820 C   0  0  1  0  0  0  0  0  0  0  0  0
  162.5440  210.4990  151.1630 O   0  0  0  0  0  1  0  0  0  0  0  0
  163.4400  213.1690  148.5640 O   0  0  0  0  0  1  0  0  0  0  0  0
  161.7970  211.9420  147.2280 C   0  0  1  0  0  3  0  0  0  0  0  0
  161.2830  210.6670  150.5860 C   0  0  2  0  0  3  0  0  0  0  0  0
  162.3420  211.0110  148.3320 C   0  0  2  0  0  3  0  0  0  0  0  0
  161.2950  210.2210  149.1250 C   0  0  0  0  0  2  0  0  0  0  0  0
  161.1110  213.0260  149.5390 C   0  0  2  0  0  3  0  0  0  0  0  0
  161.3910  214.4530  149.9860 C   0  0  0  0  0  1  0  0  0  0  0  0
  160.8110  212.1210  150.7560 C   0  0  1  0  0  3  0  0  0  0  0  0
  159.9020  212.5790  145.7480 C   0  0  0  0  0  1  0  0  0  0  0  0
  160.2840  211.8530  147.0220 C   0  0  0  0  0  2  0  0  0  0  0  0
  155.9880  213.5590  149.2370 C   0  0  0  0  0  2  0  0  0  0  0  0
  155.1000  213.7870  151.2820 C   0  0  0  0  0  2  0  0  0  0  0  0
  156.4250  213.6630  152.0480 C   0  0  0  0  0  2  0  0  0  0  0  0
  157.6400  213.9240  151.1350 C   0  0  0  0  0  3  0  0  0  0  0  0
  155.2780  214.4530  150.0580 O   0  0  0  0  0  0  0  0  0  0  0  0
  157.4440  213.4160  149.7000 C   0  0  0  0  0  2  0  0  0  0  0  0
  161.4860  209.2050  155.9370 N   0  0  0  0  0  2  0  0  0  0  0  0
  161.3190  207.7950  155.6200 C   0  0  0  0  0  2  0  0  0  0  0  0
  159.9020  207.1350  156.5360 S   0  0  0  0  0  1  0  0  0  0  0  0
  3  1  1  6  0  0  0
  3  7  1  0  0  0  0
  3  8  1  0  0  0  0
  4  6  1  0  0  0  0
  5 27  1  6  0  0  0
  5  2  1  0  0  0  0
  6 10  1  0  0  0  0
  7  2  1  1  0  0  0
  7  4  1  0  0  0  0
  8 11  1  0  0  0  0
  9  5  1  0  0  0  0
  9  1  1  1  0  0  0
 11 30  1  0  0  0  0
 11  6  2  0  0  0  0
 12 14  1  1  0  0  0
 12 19  1  0  0  0  0
 15 23  1  1  0  0  0
 15 17  1  0  0  0  0
 15 12  1  0  0  0  0
 16 21  1  0  0  0  0
 16 13  1  6  0  0  0
 17 12  1  0  0  0  0
 17 18  1  1  0  0  0
 18 16  1  0  0  0  0
 19 20  1  1  0  0  0
 19 21  1  0  0  0  0
 21  9  1  6  0  0  0
 22 23  1  0  0  0  0
 24 29  1  0  0  0  0
 24 28  1  0  0  0  0
 25 26  1  0  0  0  0
 27 26  1  0  0  0  0
 28 25  1  0  0  0  0
 29 27  1  0  0  0  0
 31 30  1  0  0  0  0
 31 32  1  0  0  0  0
M  END
>  <MODEL>
5

>  <REMARK>
 VINA RESULT:      -1.7      3.644      7.014
  Name = 
  5 active torsions:
  status: ('A' for Active; 'I' for Inactive)
    1  A    between atoms: N_10  and  C_28
    2  A    between atoms: N_14  and  C_21
    3  A    between atoms: N_14  and  C_29
    4  A    between atoms: C_15  and  C_26
    5  A    between atoms: C_24  and  C_27
                            x       y       z     vdW  Elec       q    Type
                         _______ _______ _______ _____ _____    ______ ____

>  <TORSDO>
F 5

$$$$
