=
 OpenBabel11052421553D

 30 33  0  0  0  0  0  0  0  0999 V2000
  161.1810  205.2230  150.1380 C   0  0  0  0  0  3  0  0  0  0  0  0
  160.6870  202.9780  150.9340 C   0  0  0  0  0  0  0  0  0  0  0  0
  161.7810  203.7610  146.2770 N   0  0  0  0  0  0  0  0  0  0  0  0
  161.5360  206.1100  149.1150 C   0  0  0  0  0  0  0  0  0  0  0  0
  162.0930  204.5870  145.2440 C   0  0  0  0  0  3  0  0  0  0  0  0
  160.5510  201.6110  150.6800 C   0  0  0  0  0  3  0  0  0  0  0  0
  160.4730  203.4550  152.2230 O   0  0  0  0  0  1  0  0  0  0  0  0
  161.5910  204.2280  147.5450 C   0  0  0  0  0  0  0  0  0  0  0  0
  160.7610  201.1090  149.3940 C   0  0  0  0  0  3  0  0  0  0  0  0
  161.0370  203.8540  149.8930 C   0  0  0  0  0  0  0  0  0  0  0  0
  161.7280  205.6140  147.8080 C   0  0  0  0  0  0  0  0  0  0  0  0
  162.2240  205.9580  145.4580 C   0  0  0  0  0  3  0  0  0  0  0  0
  162.0380  206.4690  146.7420 C   0  0  0  0  0  3  0  0  0  0  0  0
  161.1080  201.9730  148.3530 C   0  0  0  0  0  3  0  0  0  0  0  0
  161.2500  203.3490  148.5880 C   0  0  0  0  0  0  0  0  0  0  0  0
  162.6200  209.1020  150.8490 O   0  0  0  0  0  0  0  0  0  0  0  0
  162.0550  207.9820  150.7330 C   0  0  0  0  0  0  0  0  0  0  0  0
  161.6830  207.5090  149.4220 N   0  0  0  0  0  0  0  0  0  0  0  0
  162.5800  206.2450  152.4260 N   0  0  0  0  0  0  0  0  0  0  0  0
  160.6920  207.3920  152.7420 N   0  0  0  0  0  2  0  0  0  0  0  0
  161.7690  207.2050  151.9550 C   0  0  0  0  0  0  0  0  0  0  0  0
  162.0180  205.7910  153.5330 N   0  0  0  0  0  0  0  0  0  0  0  0
  160.8790  206.4850  153.7210 C   0  0  0  0  0  3  0  0  0  0  0  0
  161.4200  208.4820  148.3670 C   0  0  0  0  0  2  0  0  0  0  0  0
  162.2130  209.7530  148.6200 C   0  0  0  0  0  2  0  0  0  0  0  0
  161.4120  210.9660  148.1880 C   0  0  0  0  0  2  0  0  0  0  0  0
  162.1800  212.1800  148.4250 N   0  0  0  0  0  0  0  0  0  0  0  0
  161.4780  213.1180  146.3650 N   0  0  0  0  0  1  0  0  0  0  0  0
  162.2110  213.1680  147.5870 C   0  0  0  0  0  0  0  0  0  0  0  0
  162.9860  214.3210  147.8910 N   0  0  0  0  0  1  0  0  0  0  0  0
  2  7  1  0  0  0  0
  3  8  1  0  0  0  0
  4 18  1  0  0  0  0
  4  1  2  0  0  0  0
  5 12  1  0  0  0  0
  5  3  2  0  0  0  0
  6  2  1  0  0  0  0
  8 11  2  0  0  0  0
  8 15  1  0  0  0  0
  9  6  2  0  0  0  0
 10  1  1  0  0  0  0
 10  2  2  0  0  0  0
 11  4  1  0  0  0  0
 12 13  2  0  0  0  0
 13 11  1  0  0  0  0
 14 15  2  0  0  0  0
 14  9  1  0  0  0  0
 15 10  1  0  0  0  0
 17 16  2  0  0  0  0
 17 21  1  0  0  0  0
 18 17  1  0  0  0  0
 19 22  1  0  0  0  0
 20 23  1  0  0  0  0
 21 19  2  0  0  0  0
 21 20  1  0  0  0  0
 22 23  2  0  0  0  0
 24 25  1  0  0  0  0
 24 18  1  0  0  0  0
 26 27  1  0  0  0  0
 26 25  1  0  0  0  0
 28 29  1  0  0  0  0
 29 30  1  0  0  0  0
 29 27  2  0  0  0  0
M  END
>  <MODEL>
1

>  <REMARK>
 VINA RESULT:      -9.2      0.000      0.000
  Name = 
  6 active torsions:
  status: ('A' for Active; 'I' for Inactive)
    1  A    between atoms: C_4  and  N_13
    2  A    between atoms: N_7  and  C_16
    3  A    between atoms: C_8  and  C_12
    4  A    between atoms: N_13  and  C_27
    5  A    between atoms: C_16  and  C_30
    6  A    between atoms: C_27  and  C_30
                            x       y       z     vdW  Elec       q    Type
                         _______ _______ _______ _____ _____    ______ ____

>  <TORSDO>
F 6

$$$$
=
 OpenBabel11052421553D

 30 33  0  0  0  0  0  0  0  0999 V2000
  161.4880  204.6390  148.4790 C   0  0  0  0  0  3  0  0  0  0  0  0
  161.1070  202.3430  147.7730 C   0  0  0  0  0  0  0  0  0  0  0  0
  160.8130  203.5680  152.4530 N   0  0  0  0  0  0  0  0  0  0  0  0
  161.5590  205.6190  149.4760 C   0  0  0  0  0  0  0  0  0  0  0  0
  160.9040  204.4760  153.4600 C   0  0  0  0  0  3  0  0  0  0  0  0
  160.7950  201.0190  148.0920 C   0  0  0  0  0  3  0  0  0  0  0  0
  161.3420  202.6850  146.4450 O   0  0  0  0  0  1  0  0  0  0  0  0
  161.0230  203.9100  151.1500 C   0  0  0  0  0  0  0  0  0  0  0  0
  160.5550  200.6520  149.4180 C   0  0  0  0  0  3  0  0  0  0  0  0
  161.1810  203.3110  148.7880 C   0  0  0  0  0  0  0  0  0  0  0  0
  161.3410  205.2520  150.8210 C   0  0  0  0  0  0  0  0  0  0  0  0
  161.2280  205.8030  153.1800 C   0  0  0  0  0  3  0  0  0  0  0  0
  161.4470  206.1860  151.8590 C   0  0  0  0  0  3  0  0  0  0  0  0
  160.6280  201.6070  150.4340 C   0  0  0  0  0  3  0  0  0  0  0  0
  160.9400  202.9410  150.1330 C   0  0  0  0  0  0  0  0  0  0  0  0
  161.3620  208.7730  147.7010 O   0  0  0  0  0  0  0  0  0  0  0  0
  161.5140  207.5270  147.8190 C   0  0  0  0  0  0  0  0  0  0  0  0
  161.8680  206.9750  149.1030 N   0  0  0  0  0  0  0  0  0  0  0  0
  160.1580  206.4260  146.0550 N   0  0  0  0  0  0  0  0  0  0  0  0
  162.3640  206.1010  145.9520 N   0  0  0  0  0  0  0  0  0  0  0  0
  161.3490  206.6800  146.6210 C   0  0  0  0  0  0  0  0  0  0  0  0
  160.4000  205.6600  145.0060 N   0  0  0  0  0  2  0  0  0  0  0  0
  161.7320  205.4660  144.9460 C   0  0  0  0  0  3  0  0  0  0  0  0
  162.5890  207.8100  150.0580 C   0  0  0  0  0  2  0  0  0  0  0  0
  161.8760  209.1410  150.2290 C   0  0  0  0  0  2  0  0  0  0  0  0
  162.2190  209.7500  151.5750 C   0  0  0  0  0  2  0  0  0  0  0  0
  161.0840  210.5100  152.0810 N   0  0  0  0  0  0  0  0  0  0  0  0
  161.0600  209.2730  154.1030 N   0  0  0  0  0  1  0  0  0  0  0  0
  160.5520  210.2900  153.2420 C   0  0  0  0  0  0  0  0  0  0  0  0
  159.4430  211.0750  153.6640 N   0  0  0  0  0  1  0  0  0  0  0  0
  1 10  2  0  0  0  0
  1  4  1  0  0  0  0
  2  6  2  0  0  0  0
  2 10  1  0  0  0  0
  3  5  2  0  0  0  0
  4 11  2  0  0  0  0
  6  9  1  0  0  0  0
  7  2  1  0  0  0  0
  8  3  1  0  0  0  0
  9 14  2  0  0  0  0
 10 15  1  0  0  0  0
 11  8  1  0  0  0  0
 11 13  1  0  0  0  0
 12  5  1  0  0  0  0
 13 12  2  0  0  0  0
 15 14  1  0  0  0  0
 15  8  2  0  0  0  0
 16 17  2  0  0  0  0
 17 18  1  0  0  0  0
 18  4  1  0  0  0  0
 18 24  1  0  0  0  0
 19 21  2  0  0  0  0
 20 21  1  0  0  0  0
 21 17  1  0  0  0  0
 22 19  1  0  0  0  0
 23 22  1  0  0  0  0
 23 20  2  0  0  0  0
 24 25  1  0  0  0  0
 25 26  1  0  0  0  0
 26 27  1  0  0  0  0
 27 29  2  0  0  0  0
 29 30  1  0  0  0  0
 29 28  1  0  0  0  0
M  END
>  <MODEL>
2

>  <REMARK>
 VINA RESULT:      -9.0      2.677      5.155
  Name = 
  6 active torsions:
  status: ('A' for Active; 'I' for Inactive)
    1  A    between atoms: C_4  and  N_13
    2  A    between atoms: N_7  and  C_16
    3  A    between atoms: C_8  and  C_12
    4  A    between atoms: N_13  and  C_27
    5  A    between atoms: C_16  and  C_30
    6  A    between atoms: C_27  and  C_30
                            x       y       z     vdW  Elec       q    Type
                         _______ _______ _______ _____ _____    ______ ____

>  <TORSDO>
F 6

$$$$
=
 OpenBabel11052421553D

 30 33  0  0  0  0  0  0  0  0999 V2000
  161.4710  204.6690  148.5010 C   0  0  0  0  0  3  0  0  0  0  0  0
  161.1140  202.3550  147.8460 C   0  0  0  0  0  0  0  0  0  0  0  0
  160.8530  203.6700  152.5040 N   0  0  0  0  0  0  0  0  0  0  0  0
  161.5400  205.6700  149.4780 C   0  0  0  0  0  0  0  0  0  0  0  0
  160.9430  204.6000  153.4910 C   0  0  0  0  0  3  0  0  0  0  0  0
  160.8230  201.0340  148.1960 C   0  0  0  0  0  3  0  0  0  0  0  0
  161.3300  202.6730  146.5090 O   0  0  0  0  0  1  0  0  0  0  0  0
  161.0450  203.9890  151.1910 C   0  0  0  0  0  0  0  0  0  0  0  0
  160.6020  200.6900  149.5310 C   0  0  0  0  0  3  0  0  0  0  0  0
  161.1850  203.3440  148.8410 C   0  0  0  0  0  0  0  0  0  0  0  0
  161.3400  205.3280  150.8320 C   0  0  0  0  0  0  0  0  0  0  0  0
  161.2450  205.9250  153.1810 C   0  0  0  0  0  3  0  0  0  0  0  0
  161.4450  206.2840  151.8500 C   0  0  0  0  0  3  0  0  0  0  0  0
  160.6730  201.6670  150.5260 C   0  0  0  0  0  3  0  0  0  0  0  0
  160.9630  202.9990  150.1950 C   0  0  0  0  0  0  0  0  0  0  0  0
  161.2990  208.7750  147.6240 O   0  0  0  0  0  0  0  0  0  0  0  0
  161.4730  207.5360  147.7740 C   0  0  0  0  0  0  0  0  0  0  0  0
  161.8260  207.0230  149.0740 N   0  0  0  0  0  0  0  0  0  0  0  0
  160.1570  206.3830  146.0130 N   0  0  0  0  0  0  0  0  0  0  0  0
  162.3660  206.0650  145.9620 N   0  0  0  0  0  0  0  0  0  0  0  0
  161.3350  206.6570  146.5960 C   0  0  0  0  0  0  0  0  0  0  0  0
  160.4220  205.5900  144.9900 N   0  0  0  0  0  2  0  0  0  0  0  0
  161.7550  205.4000  144.9610 C   0  0  0  0  0  3  0  0  0  0  0  0
  162.5220  207.8940  150.0150 C   0  0  0  0  0  2  0  0  0  0  0  0
  161.5930  209.0030  150.4830 C   0  0  0  0  0  2  0  0  0  0  0  0
  162.3180  210.3340  150.4690 C   0  0  0  0  0  2  0  0  0  0  0  0
  161.4360  211.3750  149.9590 N   0  0  0  0  0  0  0  0  0  0  0  0
  162.9170  211.8640  148.1740 N   0  0  0  0  0  1  0  0  0  0  0  0
  161.7120  212.0770  148.9050 C   0  0  0  0  0  0  0  0  0  0  0  0
  160.7980  213.0770  148.4710 N   0  0  0  0  0  1  0  0  0  0  0  0
  1 10  2  0  0  0  0
  1  4  1  0  0  0  0
  2  6  2  0  0  0  0
  2 10  1  0  0  0  0
  3  5  2  0  0  0  0
  4 11  2  0  0  0  0
  6  9  1  0  0  0  0
  7  2  1  0  0  0  0
  8  3  1  0  0  0  0
  9 14  2  0  0  0  0
 10 15  1  0  0  0  0
 11  8  1  0  0  0  0
 11 13  1  0  0  0  0
 12  5  1  0  0  0  0
 13 12  2  0  0  0  0
 15 14  1  0  0  0  0
 15  8  2  0  0  0  0
 16 17  2  0  0  0  0
 17 18  1  0  0  0  0
 18  4  1  0  0  0  0
 18 24  1  0  0  0  0
 19 21  2  0  0  0  0
 20 21  1  0  0  0  0
 21 17  1  0  0  0  0
 22 19  1  0  0  0  0
 23 22  1  0  0  0  0
 23 20  2  0  0  0  0
 24 25  1  0  0  0  0
 26 25  1  0  0  0  0
 27 26  1  0  0  0  0
 28 29  1  0  0  0  0
 29 27  2  0  0  0  0
 30 29  1  0  0  0  0
M  END
>  <MODEL>
3

>  <REMARK>
 VINA RESULT:      -8.7      1.956      4.549
  Name = 
  6 active torsions:
  status: ('A' for Active; 'I' for Inactive)
    1  A    between atoms: C_4  and  N_13
    2  A    between atoms: N_7  and  C_16
    3  A    between atoms: C_8  and  C_12
    4  A    between atoms: N_13  and  C_27
    5  A    between atoms: C_16  and  C_30
    6  A    between atoms: C_27  and  C_30
                            x       y       z     vdW  Elec       q    Type
                         _______ _______ _______ _____ _____    ______ ____

>  <TORSDO>
F 6

$$$$
=
 OpenBabel11052421553D

 30 33  0  0  0  0  0  0  0  0999 V2000
  160.8040  208.5010  153.4300 C   0  0  0  0  0  3  0  0  0  0  0  0
  160.9680  206.0750  153.3640 C   0  0  0  0  0  0  0  0  0  0  0  0
  162.0980  208.7330  149.4720 N   0  0  0  0  0  0  0  0  0  0  0  0
  160.9410  209.7560  152.8250 C   0  0  0  0  0  0  0  0  0  0  0  0
  162.2140  209.9250  148.8300 C   0  0  0  0  0  3  0  0  0  0  0  0
  161.2780  204.9060  152.6650 C   0  0  0  0  0  3  0  0  0  0  0  0
  160.5260  205.9830  154.6800 O   0  0  0  0  0  1  0  0  0  0  0  0
  161.6840  208.6470  150.7680 C   0  0  0  0  0  0  0  0  0  0  0  0
  161.7230  204.9720  151.3430 C   0  0  0  0  0  3  0  0  0  0  0  0
  161.1060  207.3250  152.7380 C   0  0  0  0  0  0  0  0  0  0  0  0
  161.3690  209.8310  151.4820 C   0  0  0  0  0  0  0  0  0  0  0  0
  161.9010  211.1110  149.4920 C   0  0  0  0  0  3  0  0  0  0  0  0
  161.4770  211.0590  150.8180 C   0  0  0  0  0  3  0  0  0  0  0  0
  161.8610  206.2110  150.7120 C   0  0  0  0  0  3  0  0  0  0  0  0
  161.5560  207.3950  151.3980 C   0  0  0  0  0  0  0  0  0  0  0  0
  161.0620  212.1870  155.5100 O   0  0  0  0  0  0  0  0  0  0  0  0
  160.9000  211.0470  154.9970 C   0  0  0  0  0  0  0  0  0  0  0  0
  160.6270  210.9370  153.5860 N   0  0  0  0  0  0  0  0  0  0  0  0
  162.1230  209.3410  156.3230 N   0  0  0  0  0  0  0  0  0  0  0  0
  159.8950  209.2000  156.3470 N   0  0  0  0  0  2  0  0  0  0  0  0
  160.9690  209.8620  155.8760 C   0  0  0  0  0  0  0  0  0  0  0  0
  161.7970  208.3150  157.0890 N   0  0  0  0  0  0  0  0  0  0  0  0
  160.4520  208.2320  157.1020 C   0  0  0  0  0  3  0  0  0  0  0  0
  159.9880  212.0540  152.8990 C   0  0  0  0  0  2  0  0  0  0  0  0
  158.4830  211.8460  152.8550 C   0  0  0  0  0  2  0  0  0  0  0  0
  157.7970  212.7670  153.8450 C   0  0  0  0  0  2  0  0  0  0  0  0
  156.6500  212.0940  154.4380 N   0  0  0  0  0  0  0  0  0  0  0  0
  157.7190  211.9680  156.5500 N   0  0  0  0  0  1  0  0  0  0  0  0
  156.6150  211.7270  155.6800 C   0  0  0  0  0  0  0  0  0  0  0  0
  155.4570  211.0730  156.1850 N   0  0  0  0  0  1  0  0  0  0  0  0
  2  7  1  0  0  0  0
  3  8  1  0  0  0  0
  4  1  1  0  0  0  0
  4 18  1  0  0  0  0
  5  3  2  0  0  0  0
  5 12  1  0  0  0  0
  6  2  2  0  0  0  0
  8 15  2  0  0  0  0
  8 11  1  0  0  0  0
  9  6  1  0  0  0  0
 10  2  1  0  0  0  0
 10  1  2  0  0  0  0
 11  4  2  0  0  0  0
 12 13  2  0  0  0  0
 13 11  1  0  0  0  0
 14  9  2  0  0  0  0
 14 15  1  0  0  0  0
 15 10  1  0  0  0  0
 17 16  2  0  0  0  0
 17 21  1  0  0  0  0
 18 17  1  0  0  0  0
 19 22  1  0  0  0  0
 20 23  1  0  0  0  0
 21 19  2  0  0  0  0
 21 20  1  0  0  0  0
 22 23  2  0  0  0  0
 24 18  1  0  0  0  0
 25 24  1  0  0  0  0
 25 26  1  0  0  0  0
 26 27  1  0  0  0  0
 27 29  2  0  0  0  0
 29 30  1  0  0  0  0
 29 28  1  0  0  0  0
M  END
>  <MODEL>
4

>  <REMARK>
 VINA RESULT:      -8.0      4.070      6.142
  Name = 
  6 active torsions:
  status: ('A' for Active; 'I' for Inactive)
    1  A    between atoms: C_4  and  N_13
    2  A    between atoms: N_7  and  C_16
    3  A    between atoms: C_8  and  C_12
    4  A    between atoms: N_13  and  C_27
    5  A    between atoms: C_16  and  C_30
    6  A    between atoms: C_27  and  C_30
                            x       y       z     vdW  Elec       q    Type
                         _______ _______ _______ _____ _____    ______ ____

>  <TORSDO>
F 6

$$$$
=
 OpenBabel11052421553D

 30 33  0  0  0  0  0  0  0  0999 V2000
  160.8620  208.1630  153.2310 C   0  0  0  0  0  3  0  0  0  0  0  0
  160.9440  205.7360  153.1020 C   0  0  0  0  0  0  0  0  0  0  0  0
  162.0800  208.4510  149.2520 N   0  0  0  0  0  0  0  0  0  0  0  0
  161.0280  209.4270  152.6540 C   0  0  0  0  0  0  0  0  0  0  0  0
  162.2220  209.6550  148.6370 C   0  0  0  0  0  3  0  0  0  0  0  0
  161.2000  204.5750  152.3680 C   0  0  0  0  0  3  0  0  0  0  0  0
  160.5270  205.6250  154.4250 O   0  0  0  0  0  1  0  0  0  0  0  0
  161.6900  208.3470  150.5550 C   0  0  0  0  0  0  0  0  0  0  0  0
  161.6190  204.6590  151.0390 C   0  0  0  0  0  3  0  0  0  0  0  0
  161.1100  206.9950  152.5040 C   0  0  0  0  0  0  0  0  0  0  0  0
  161.4300  209.5220  151.3040 C   0  0  0  0  0  0  0  0  0  0  0  0
  161.9620  210.8340  149.3350 C   0  0  0  0  0  3  0  0  0  0  0  0
  161.5640  210.7630  150.6680 C   0  0  0  0  0  3  0  0  0  0  0  0
  161.7850  205.9080  150.4350 C   0  0  0  0  0  3  0  0  0  0  0  0
  161.5340  207.0850  151.1560 C   0  0  0  0  0  0  0  0  0  0  0  0
  161.1920  211.7250  155.4510 O   0  0  0  0  0  0  0  0  0  0  0  0
  160.9650  210.6260  154.8780 C   0  0  0  0  0  0  0  0  0  0  0  0
  160.7700  210.5990  153.4500 N   0  0  0  0  0  0  0  0  0  0  0  0
  161.9560  208.7730  156.1990 N   0  0  0  0  0  0  0  0  0  0  0  0
  159.7280  208.8130  156.0710 N   0  0  0  0  0  2  0  0  0  0  0  0
  160.8800  209.4040  155.7030 C   0  0  0  0  0  0  0  0  0  0  0  0
  161.4980  207.7460  156.8940 N   0  0  0  0  0  0  0  0  0  0  0  0
  160.1540  207.7730  156.8150 C   0  0  0  0  0  3  0  0  0  0  0  0
  160.2700  211.7950  152.7810 C   0  0  0  0  0  2  0  0  0  0  0  0
  158.7510  211.7660  152.7270 C   0  0  0  0  0  2  0  0  0  0  0  0
  158.2170  213.1100  152.2700 C   0  0  0  0  0  2  0  0  0  0  0  0
  158.9840  213.5870  151.1270 N   0  0  0  0  0  0  0  0  0  0  0  0
  157.1210  213.3520  149.6810 N   0  0  0  0  0  1  0  0  0  0  0  0
  158.4800  213.6980  149.9380 C   0  0  0  0  0  0  0  0  0  0  0  0
  159.2950  214.1720  148.8730 N   0  0  0  0  0  1  0  0  0  0  0  0
  2  7  1  0  0  0  0
  3  8  1  0  0  0  0
  4  1  1  0  0  0  0
  4 18  1  0  0  0  0
  5  3  2  0  0  0  0
  5 12  1  0  0  0  0
  6  2  2  0  0  0  0
  8 15  2  0  0  0  0
  8 11  1  0  0  0  0
  9  6  1  0  0  0  0
 10  2  1  0  0  0  0
 10  1  2  0  0  0  0
 11  4  2  0  0  0  0
 12 13  2  0  0  0  0
 13 11  1  0  0  0  0
 14  9  2  0  0  0  0
 14 15  1  0  0  0  0
 15 10  1  0  0  0  0
 17 16  2  0  0  0  0
 17 21  1  0  0  0  0
 18 17  1  0  0  0  0
 19 22  1  0  0  0  0
 20 23  1  0  0  0  0
 21 20  1  0  0  0  0
 21 19  2  0  0  0  0
 23 22  2  0  0  0  0
 24 18  1  0  0  0  0
 25 24  1  0  0  0  0
 26 25  1  0  0  0  0
 27 26  1  0  0  0  0
 28 29  1  0  0  0  0
 29 27  2  0  0  0  0
 30 29  1  0  0  0  0
M  END
>  <MODEL>
5

>  <REMARK>
 VINA RESULT:      -7.8      3.314      4.790
  Name = 
  6 active torsions:
  status: ('A' for Active; 'I' for Inactive)
    1  A    between atoms: C_4  and  N_13
    2  A    between atoms: N_7  and  C_16
    3  A    between atoms: C_8  and  C_12
    4  A    between atoms: N_13  and  C_27
    5  A    between atoms: C_16  and  C_30
    6  A    between atoms: C_27  and  C_30
                            x       y       z     vdW  Elec       q    Type
                         _______ _______ _______ _____ _____    ______ ____

>  <TORSDO>
F 6

$$$$
=
 OpenBabel11052421553D

 30 33  0  0  0  0  0  0  0  0999 V2000
  161.2060  204.2480  148.7590 C   0  0  0  0  0  3  0  0  0  0  0  0
  161.5490  203.6100  146.4380 C   0  0  0  0  0  0  0  0  0  0  0  0
  162.3290  208.1690  147.8860 N   0  0  0  0  0  0  0  0  0  0  0  0
  161.2260  205.2010  149.7840 C   0  0  0  0  0  0  0  0  0  0  0  0
  162.3310  209.1380  148.8390 C   0  0  0  0  0  3  0  0  0  0  0  0
  161.9190  203.9530  145.1350 C   0  0  0  0  0  3  0  0  0  0  0  0
  161.1660  202.3020  146.7130 O   0  0  0  0  0  1  0  0  0  0  0  0
  161.9720  206.8830  148.1640 C   0  0  0  0  0  0  0  0  0  0  0  0
  162.3080  205.2600  144.8330 C   0  0  0  0  0  3  0  0  0  0  0  0
  161.5690  204.5820  147.4520 C   0  0  0  0  0  0  0  0  0  0  0  0
  161.5960  206.5300  149.4840 C   0  0  0  0  0  0  0  0  0  0  0  0
  161.9550  208.8350  150.1470 C   0  0  0  0  0  3  0  0  0  0  0  0
  161.5860  207.5290  150.4650 C   0  0  0  0  0  3  0  0  0  0  0  0
  162.3290  206.2330  145.8350 C   0  0  0  0  0  3  0  0  0  0  0  0
  161.9620  205.9080  147.1490 C   0  0  0  0  0  0  0  0  0  0  0  0
  160.9750  203.1490  152.7610 O   0  0  0  0  0  0  0  0  0  0  0  0
  160.8350  203.4240  151.5390 C   0  0  0  0  0  0  0  0  0  0  0  0
  160.8540  204.8030  151.1170 N   0  0  0  0  0  0  0  0  0  0  0  0
  161.5810  201.4230  150.2750 N   0  0  0  0  0  0  0  0  0  0  0  0
  159.4670  202.0630  149.9530 N   0  0  0  0  0  0  0  0  0  0  0  0
  160.6280  202.3170  150.5850 C   0  0  0  0  0  0  0  0  0  0  0  0
  161.0350  200.5780  149.4170 N   0  0  0  0  0  2  0  0  0  0  0  0
  159.7600  200.9670  149.2250 C   0  0  0  0  0  3  0  0  0  0  0  0
  160.4590  205.8390  152.0650 C   0  0  0  0  0  2  0  0  0  0  0  0
  161.4500  205.8990  153.2160 C   0  0  0  0  0  2  0  0  0  0  0  0
  160.9560  206.8560  154.2840 C   0  0  0  0  0  2  0  0  0  0  0  0
  160.8570  208.2020  153.7370 N   0  0  0  0  0  0  0  0  0  0  0  0
  161.5810  209.1670  155.7780 N   0  0  0  0  0  1  0  0  0  0  0  0
  161.1430  209.2630  154.4240 C   0  0  0  0  0  0  0  0  0  0  0  0
  161.0200  210.5440  153.8180 N   0  0  0  0  0  1  0  0  0  0  0  0
  1  4  1  0  0  0  0
  2  7  1  0  0  0  0
  2 10  1  0  0  0  0
  3  8  1  0  0  0  0
  3  5  2  0  0  0  0
  4 18  1  0  0  0  0
  5 12  1  0  0  0  0
  6  2  2  0  0  0  0
  8 11  1  0  0  0  0
  9  6  1  0  0  0  0
  9 14  2  0  0  0  0
 10  1  2  0  0  0  0
 11  4  2  0  0  0  0
 11 13  1  0  0  0  0
 12 13  2  0  0  0  0
 14 15  1  0  0  0  0
 15 10  1  0  0  0  0
 15  8  2  0  0  0  0
 17 16  2  0  0  0  0
 18 17  1  0  0  0  0
 18 24  1  0  0  0  0
 19 21  2  0  0  0  0
 20 21  1  0  0  0  0
 21 17  1  0  0  0  0
 22 19  1  0  0  0  0
 23 22  1  0  0  0  0
 23 20  2  0  0  0  0
 24 25  1  0  0  0  0
 25 26  1  0  0  0  0
 27 26  1  0  0  0  0
 27 29  2  0  0  0  0
 29 28  1  0  0  0  0
 30 29  1  0  0  0  0
M  END
>  <MODEL>
6

>  <REMARK>
 VINA RESULT:      -7.5      2.595      5.586
  Name = 
  6 active torsions:
  status: ('A' for Active; 'I' for Inactive)
    1  A    between atoms: C_4  and  N_13
    2  A    between atoms: N_7  and  C_16
    3  A    between atoms: C_8  and  C_12
    4  A    between atoms: N_13  and  C_27
    5  A    between atoms: C_16  and  C_30
    6  A    between atoms: C_27  and  C_30
                            x       y       z     vdW  Elec       q    Type
                         _______ _______ _______ _____ _____    ______ ____

>  <TORSDO>
F 6

$$$$
=
 OpenBabel11052421553D

 30 33  0  0  0  0  0  0  0  0999 V2000
  158.8200  210.4510  154.6790 C   0  0  0  0  0  3  0  0  0  0  0  0
  157.2590  212.2890  154.3600 C   0  0  0  0  0  0  0  0  0  0  0  0
  160.8100  211.4830  151.1610 N   0  0  0  0  0  0  0  0  0  0  0  0
  159.9190  209.6900  154.2630 C   0  0  0  0  0  0  0  0  0  0  0  0
  161.9020  210.7970  150.7340 C   0  0  0  0  0  3  0  0  0  0  0  0
  156.8120  213.3740  153.6020 C   0  0  0  0  0  3  0  0  0  0  0  0
  156.5940  211.9620  155.5380 O   0  0  0  0  0  1  0  0  0  0  0  0
  160.1480  211.1480  152.3060 C   0  0  0  0  0  0  0  0  0  0  0  0
  157.4630  213.7210  152.4170 C   0  0  0  0  0  3  0  0  0  0  0  0
  158.3680  211.5410  153.9310 C   0  0  0  0  0  0  0  0  0  0  0  0
  160.5970  210.0480  153.0780 C   0  0  0  0  0  0  0  0  0  0  0  0
  162.3850  209.7170  151.4720 C   0  0  0  0  0  3  0  0  0  0  0  0
  161.7300  209.3470  152.6460 C   0  0  0  0  0  3  0  0  0  0  0  0
  158.5680  212.9840  151.9820 C   0  0  0  0  0  3  0  0  0  0  0  0
  159.0310  211.8910  152.7300 C   0  0  0  0  0  0  0  0  0  0  0  0
  160.8910  207.8000  157.1990 O   0  0  0  0  0  0  0  0  0  0  0  0
  160.9720  208.7280  156.3500 C   0  0  0  0  0  0  0  0  0  0  0  0
  160.3380  208.5690  155.0650 N   0  0  0  0  0  0  0  0  0  0  0  0
  163.0850  210.0000  156.6360 N   0  0  0  0  0  0  0  0  0  0  0  0
  161.1980  211.1070  157.0790 N   0  0  0  0  0  0  0  0  0  0  0  0
  161.7450  209.9370  156.6970 C   0  0  0  0  0  0  0  0  0  0  0  0
  163.4180  211.2280  156.9940 N   0  0  0  0  0  2  0  0  0  0  0  0
  162.2780  211.8930  157.2610 C   0  0  0  0  0  3  0  0  0  0  0  0
  160.1290  207.2250  154.5390 C   0  0  0  0  0  2  0  0  0  0  0  0
  161.4640  206.5830  154.2030 C   0  0  0  0  0  2  0  0  0  0  0  0
  161.2760  205.4970  153.1610 C   0  0  0  0  0  2  0  0  0  0  0  0
  160.9760  206.0940  151.8680 N   0  0  0  0  0  0  0  0  0  0  0  0
  161.1790  204.0040  150.7690 N   0  0  0  0  0  1  0  0  0  0  0  0
  160.9310  205.4080  150.7690 C   0  0  0  0  0  0  0  0  0  0  0  0
  160.6300  206.0660  149.5450 N   0  0  0  0  0  1  0  0  0  0  0  0
  2  7  1  0  0  0  0
  3  8  1  0  0  0  0
  4  1  1  0  0  0  0
  4 18  1  0  0  0  0
  5  3  2  0  0  0  0
  5 12  1  0  0  0  0
  6  2  2  0  0  0  0
  8 15  2  0  0  0  0
  8 11  1  0  0  0  0
  9  6  1  0  0  0  0
 10  2  1  0  0  0  0
 10  1  2  0  0  0  0
 11  4  2  0  0  0  0
 12 13  2  0  0  0  0
 13 11  1  0  0  0  0
 14  9  2  0  0  0  0
 14 15  1  0  0  0  0
 15 10  1  0  0  0  0
 17 21  1  0  0  0  0
 17 16  2  0  0  0  0
 18 17  1  0  0  0  0
 19 21  2  0  0  0  0
 19 22  1  0  0  0  0
 20 23  2  0  0  0  0
 21 20  1  0  0  0  0
 22 23  1  0  0  0  0
 24 18  1  0  0  0  0
 25 24  1  0  0  0  0
 26 25  1  0  0  0  0
 27 26  1  0  0  0  0
 29 28  1  0  0  0  0
 29 27  2  0  0  0  0
 30 29  1  0  0  0  0
M  END
>  <MODEL>
7

>  <REMARK>
 VINA RESULT:      -7.4      4.578      8.296
  Name = 
  6 active torsions:
  status: ('A' for Active; 'I' for Inactive)
    1  A    between atoms: C_4  and  N_13
    2  A    between atoms: N_7  and  C_16
    3  A    between atoms: C_8  and  C_12
    4  A    between atoms: N_13  and  C_27
    5  A    between atoms: C_16  and  C_30
    6  A    between atoms: C_27  and  C_30
                            x       y       z     vdW  Elec       q    Type
                         _______ _______ _______ _____ _____    ______ ____

>  <TORSDO>
F 6

$$$$
=
 OpenBabel11052421553D

 30 33  0  0  0  0  0  0  0  0999 V2000
  160.4080  209.8580  152.2310 C   0  0  0  0  0  3  0  0  0  0  0  0
  159.4830  212.1000  152.4140 C   0  0  0  0  0  0  0  0  0  0  0  0
  159.9310  209.2860  156.3350 N   0  0  0  0  0  0  0  0  0  0  0  0
  160.8050  208.6450  152.8060 C   0  0  0  0  0  0  0  0  0  0  0  0
  160.2690  208.1140  156.9340 C   0  0  0  0  0  3  0  0  0  0  0  0
  158.9500  213.1240  153.2020 C   0  0  0  0  0  3  0  0  0  0  0  0
  159.6260  212.2990  151.0450 O   0  0  0  0  0  1  0  0  0  0  0  0
  160.0920  209.4850  154.9950 C   0  0  0  0  0  0  0  0  0  0  0  0
  158.7960  212.9480  154.5780 C   0  0  0  0  0  3  0  0  0  0  0  0
  159.8690  210.8870  153.0080 C   0  0  0  0  0  0  0  0  0  0  0  0
  160.6320  208.4500  154.1930 C   0  0  0  0  0  0  0  0  0  0  0  0
  160.7920  207.0650  156.1780 C   0  0  0  0  0  3  0  0  0  0  0  0
  160.9700  207.2370  154.8070 C   0  0  0  0  0  3  0  0  0  0  0  0
  159.1760  211.7440  155.1770 C   0  0  0  0  0  3  0  0  0  0  0  0
  159.7140  210.7050  154.4030 C   0  0  0  0  0  0  0  0  0  0  0  0
  163.0500  207.0520  150.4490 O   0  0  0  0  0  0  0  0  0  0  0  0
  162.2290  207.9210  150.8470 C   0  0  0  0  0  0  0  0  0  0  0  0
  161.3660  207.6210  151.9620 N   0  0  0  0  0  0  0  0  0  0  0  0
  162.5750  210.3720  150.6670 N   0  0  0  0  0  0  0  0  0  0  0  0
  161.7240  209.3610  148.8680 N   0  0  0  0  0  2  0  0  0  0  0  0
  162.1650  209.2110  150.1320 C   0  0  0  0  0  0  0  0  0  0  0  0
  162.3890  211.2960  149.7410 N   0  0  0  0  0  0  0  0  0  0  0  0
  161.8750  210.6830  148.6570 C   0  0  0  0  0  3  0  0  0  0  0  0
  161.0230  206.2300  152.2390 C   0  0  0  0  0  2  0  0  0  0  0  0
  160.5200  205.5560  150.9740 C   0  0  0  0  0  2  0  0  0  0  0  0
  161.1050  204.1620  150.8550 C   0  0  0  0  0  2  0  0  0  0  0  0
  161.2330  203.7950  149.4520 N   0  0  0  0  0  0  0  0  0  0  0  0
  160.3270  201.6410  149.8530 N   0  0  0  0  0  1  0  0  0  0  0  0
  160.8760  202.6370  148.9920 C   0  0  0  0  0  0  0  0  0  0  0  0
  161.0340  202.3540  147.6070 N   0  0  0  0  0  1  0  0  0  0  0  0
  1  4  2  0  0  0  0
  1 10  1  0  0  0  0
  2 10  2  0  0  0  0
  2  6  1  0  0  0  0
  3  5  1  0  0  0  0
  4 11  1  0  0  0  0
  6  9  2  0  0  0  0
  7  2  1  0  0  0  0
  8  3  2  0  0  0  0
  9 14  1  0  0  0  0
 10 15  1  0  0  0  0
 11 13  2  0  0  0  0
 11  8  1  0  0  0  0
 12  5  2  0  0  0  0
 13 12  1  0  0  0  0
 15  8  1  0  0  0  0
 15 14  2  0  0  0  0
 16 17  2  0  0  0  0
 17 18  1  0  0  0  0
 18 24  1  0  0  0  0
 18  4  1  0  0  0  0
 20 21  1  0  0  0  0
 21 19  2  0  0  0  0
 21 17  1  0  0  0  0
 22 19  1  0  0  0  0
 23 20  1  0  0  0  0
 23 22  2  0  0  0  0
 25 24  1  0  0  0  0
 26 25  1  0  0  0  0
 27 26  1  0  0  0  0
 29 27  2  0  0  0  0
 29 28  1  0  0  0  0
 30 29  1  0  0  0  0
M  END
>  <MODEL>
8

>  <REMARK>
 VINA RESULT:      -7.4      3.282      8.481
  Name = 
  6 active torsions:
  status: ('A' for Active; 'I' for Inactive)
    1  A    between atoms: C_4  and  N_13
    2  A    between atoms: N_7  and  C_16
    3  A    between atoms: C_8  and  C_12
    4  A    between atoms: N_13  and  C_27
    5  A    between atoms: C_16  and  C_30
    6  A    between atoms: C_27  and  C_30
                            x       y       z     vdW  Elec       q    Type
                         _______ _______ _______ _____ _____    ______ ____

>  <TORSDO>
F 6

$$$$
=
 OpenBabel11052421553D

 30 33  0  0  0  0  0  0  0  0999 V2000
  161.4590  205.5010  149.5210 C   0  0  0  0  0  3  0  0  0  0  0  0
  161.1180  203.1180  149.1730 C   0  0  0  0  0  0  0  0  0  0  0  0
  160.8330  205.0290  153.6180 N   0  0  0  0  0  0  0  0  0  0  0  0
  161.5190  206.6210  150.3580 C   0  0  0  0  0  0  0  0  0  0  0  0
  160.9140  206.0800  154.4750 C   0  0  0  0  0  3  0  0  0  0  0  0
  160.8340  201.8520  149.6910 C   0  0  0  0  0  3  0  0  0  0  0  0
  161.3370  203.2600  147.8060 O   0  0  0  0  0  1  0  0  0  0  0  0
  161.0280  205.1750  152.2760 C   0  0  0  0  0  0  0  0  0  0  0  0
  160.6110  201.6840  151.0590 C   0  0  0  0  0  3  0  0  0  0  0  0
  161.1800  204.2300  150.0300 C   0  0  0  0  0  0  0  0  0  0  0  0
  161.3160  206.4570  151.7450 C   0  0  0  0  0  0  0  0  0  0  0  0
  161.2090  207.3550  153.9960 C   0  0  0  0  0  3  0  0  0  0  0  0
  161.4120  207.5390  152.6290 C   0  0  0  0  0  3  0  0  0  0  0  0
  160.6720  202.7840  151.9190 C   0  0  0  0  0  3  0  0  0  0  0  0
  160.9560  204.0630  151.4170 C   0  0  0  0  0  0  0  0  0  0  0  0
  161.3740  209.3940  148.0290 O   0  0  0  0  0  0  0  0  0  0  0  0
  161.5770  208.2030  148.3870 C   0  0  0  0  0  0  0  0  0  0  0  0
  161.7980  207.9110  149.7820 N   0  0  0  0  0  0  0  0  0  0  0  0
  162.7170  206.4700  147.0250 N   0  0  0  0  0  0  0  0  0  0  0  0
  160.5320  206.7380  146.6540 N   0  0  0  0  0  0  0  0  0  0  0  0
  161.6070  207.1510  147.3530 C   0  0  0  0  0  0  0  0  0  0  0  0
  162.3620  205.6070  146.0890 N   0  0  0  0  0  2  0  0  0  0  0  0
  161.0440  205.7710  145.8670 C   0  0  0  0  0  3  0  0  0  0  0  0
  162.3490  208.9510  150.6440 C   0  0  0  0  0  2  0  0  0  0  0  0
  161.3950  210.1310  150.7140 C   0  0  0  0  0  2  0  0  0  0  0  0
  161.3220  210.6640  152.1320 C   0  0  0  0  0  2  0  0  0  0  0  0
  160.0100  211.2450  152.3780 N   0  0  0  0  0  0  0  0  0  0  0  0
  160.1120  210.6900  154.6810 N   0  0  0  0  0  1  0  0  0  0  0  0
  159.4550  211.2560  153.5490 C   0  0  0  0  0  0  0  0  0  0  0  0
  158.1690  211.8430  153.7090 N   0  0  0  0  0  1  0  0  0  0  0  0
  1 10  2  0  0  0  0
  1  4  1  0  0  0  0
  2  6  2  0  0  0  0
  2 10  1  0  0  0  0
  3  5  2  0  0  0  0
  4 11  2  0  0  0  0
  6  9  1  0  0  0  0
  7  2  1  0  0  0  0
  8  3  1  0  0  0  0
  9 14  2  0  0  0  0
 10 15  1  0  0  0  0
 11  8  1  0  0  0  0
 11 13  1  0  0  0  0
 12  5  1  0  0  0  0
 13 12  2  0  0  0  0
 15 14  1  0  0  0  0
 15  8  2  0  0  0  0
 16 17  2  0  0  0  0
 17 18  1  0  0  0  0
 18  4  1  0  0  0  0
 18 24  1  0  0  0  0
 19 21  2  0  0  0  0
 20 21  1  0  0  0  0
 21 17  1  0  0  0  0
 22 19  1  0  0  0  0
 23 22  1  0  0  0  0
 23 20  2  0  0  0  0
 24 25  1  0  0  0  0
 25 26  1  0  0  0  0
 26 27  1  0  0  0  0
 27 29  2  0  0  0  0
 29 30  1  0  0  0  0
 29 28  1  0  0  0  0
M  END
>  <MODEL>
9

>  <REMARK>
 VINA RESULT:      -7.3      2.553      5.185
  Name = 
  6 active torsions:
  status: ('A' for Active; 'I' for Inactive)
    1  A    between atoms: C_4  and  N_13
    2  A    between atoms: N_7  and  C_16
    3  A    between atoms: C_8  and  C_12
    4  A    between atoms: N_13  and  C_27
    5  A    between atoms: C_16  and  C_30
    6  A    between atoms: C_27  and  C_30
                            x       y       z     vdW  Elec       q    Type
                         _______ _______ _______ _____ _____    ______ ____

>  <TORSDO>
F 6

$$$$
