=
 OpenBabel11052423063D

 27 31  0  0  1  0  0  0  0  0999 V2000
  162.0690  208.3380  149.6340 N   0  0  0  0  0  2  0  0  0  0  0  0
  161.1660  207.4460  151.6920 C   0  0  0  0  0  0  0  0  0  0  0  0
  160.6480  209.8930  151.8040 N   0  0  0  0  0  2  0  0  0  0  0  0
  161.1710  207.5160  155.8150 C   0  0  0  0  0  3  0  0  0  0  0  0
  160.7220  209.5620  157.2610 C   0  0  0  0  0  1  0  0  0  0  0  0
  161.4310  206.2720  152.3550 N   0  0  0  0  0  0  0  0  0  0  0  0
  160.7290  209.4770  154.7480 N   0  0  0  0  0  0  0  0  0  0  0  0
  161.6200  212.5340  149.3860 C   0  0  0  0  0  3  0  0  0  0  0  0
  160.4230  210.8850  154.5280 C   0  0  0  0  0  1  0  0  0  0  0  0
  162.4120  211.8390  148.4740 C   0  0  0  0  0  0  0  0  0  0  0  0
  160.9360  208.5220  153.8240 C   0  0  0  0  0  0  0  0  0  0  0  0
  161.0610  207.4620  150.1990 C   0  0  2  0  0  3  0  0  0  0  0  0
  160.8680  208.8690  155.9500 C   0  0  0  0  0  0  0  0  0  0  0  0
  161.2060  207.3340  154.4460 C   0  0  0  0  0  0  0  0  0  0  0  0
  161.9560  209.7590  149.6460 C   0  0  0  0  0  0  0  0  0  0  0  0
  160.9290  208.6300  152.4250 C   0  0  0  0  0  0  0  0  0  0  0  0
  161.0170  211.8520  150.4430 C   0  0  0  0  0  3  0  0  0  0  0  0
  161.4640  206.1860  153.7150 C   0  0  0  0  0  3  0  0  0  0  0  0
  163.0290  212.5160  147.4320 O   0  0  0  0  0  1  0  0  0  0  0  0
  162.5740  210.4590  148.6030 C   0  0  0  0  0  3  0  0  0  0  0  0
  161.1840  210.4700  150.6020 C   0  0  0  0  0  0  0  0  0  0  0  0
  161.2340  203.5850  148.3400 C   0  0  0  0  0  3  0  0  0  0  0  0
  161.1290  206.1010  149.5700 C   0  0  0  0  0  0  0  0  0  0  0  0
  160.7770  204.9490  150.2890 C   0  0  0  0  0  3  0  0  0  0  0  0
  160.8310  203.6940  149.6750 C   0  0  0  0  0  3  0  0  0  0  0  0
  161.5810  204.7320  147.6200 C   0  0  0  0  0  3  0  0  0  0  0  0
  161.5270  205.9870  148.2330 C   0  0  0  0  0  3  0  0  0  0  0  0
  1 15  1  0  0  0  0
  1 12  1  0  0  0  0
  2  6  2  0  0  0  0
  2 16  1  0  0  0  0
  3 16  1  0  0  0  0
  4 13  2  0  0  0  0
  6 18  1  0  0  0  0
  7 13  1  0  0  0  0
  8 17  1  0  0  0  0
  9  7  1  0  0  0  0
 10 20  1  0  0  0  0
 10  8  2  0  0  0  0
 11 14  1  0  0  0  0
 11  7  1  0  0  0  0
 12 23  1  6  0  0  0
 12  2  1  0  0  0  0
 13  5  1  0  0  0  0
 14  4  1  0  0  0  0
 15 21  1  0  0  0  0
 16 11  2  0  0  0  0
 17 21  2  0  0  0  0
 18 14  2  0  0  0  0
 19 10  1  0  0  0  0
 20 15  2  0  0  0  0
 21  3  1  0  0  0  0
 22 25  1  0  0  0  0
 23 24  1  0  0  0  0
 25 24  2  0  0  0  0
 26 27  1  0  0  0  0
 26 22  2  0  0  0  0
 27 23  2  0  0  0  0
M  END
>  <MODEL>
1

>  <REMARK>
 VINA RESULT:      -8.3      0.000      0.000
  Name = 
  1 active torsions:
  status: ('A' for Active; 'I' for Inactive)
    1  A    between atoms: C_9  and  C_15
                            x       y       z     vdW  Elec       q    Type
                         _______ _______ _______ _____ _____    ______ ____

>  <TORSDO>
F 1

$$$$
=
 OpenBabel11052423063D

 27 31  0  0  1  0  0  0  0  0999 V2000
  160.8280  211.2160  152.2190 N   0  0  0  0  0  2  0  0  0  0  0  0
  161.4200  208.9030  152.6080 C   0  0  0  0  0  0  0  0  0  0  0  0
  162.0600  209.3080  150.2210 N   0  0  0  0  0  2  0  0  0  0  0  0
  160.9160  204.9520  151.5380 C   0  0  0  0  0  3  0  0  0  0  0  0
  161.3010  203.9880  149.2140 C   0  0  0  0  0  1  0  0  0  0  0  0
  161.0090  208.0220  153.5780 N   0  0  0  0  0  0  0  0  0  0  0  0
  161.5960  206.3870  149.9070 N   0  0  0  0  0  0  0  0  0  0  0  0
  161.5420  212.3910  148.2220 C   0  0  0  0  0  3  0  0  0  0  0  0
  162.0060  206.8930  148.6030 C   0  0  0  0  0  1  0  0  0  0  0  0
  160.8290  213.2080  149.0970 C   0  0  0  0  0  0  0  0  0  0  0  0
  161.4490  207.0770  151.0520 C   0  0  0  0  0  0  0  0  0  0  0  0
  161.7080  210.3300  152.9570 C   0  0  2  0  0  3  0  0  0  0  0  0
  161.2760  205.1050  150.2010 C   0  0  0  0  0  0  0  0  0  0  0  0
  161.0380  206.2310  152.0460 C   0  0  0  0  0  0  0  0  0  0  0  0
  161.0190  211.5270  150.8410 C   0  0  0  0  0  0  0  0  0  0  0  0
  161.6330  208.4480  151.2880 C   0  0  0  0  0  0  0  0  0  0  0  0
  161.9710  211.1320  148.6430 C   0  0  0  0  0  3  0  0  0  0  0  0
  160.8050  206.6960  153.3310 C   0  0  0  0  0  3  0  0  0  0  0  0
  160.3840  214.4530  148.6770 O   0  0  0  0  0  1  0  0  0  0  0  0
  160.5750  212.7780  150.4000 C   0  0  0  0  0  3  0  0  0  0  0  0
  161.7080  210.6730  149.9390 C   0  0  0  0  0  0  0  0  0  0  0  0
  161.4790  211.2200  157.1610 C   0  0  0  0  0  3  0  0  0  0  0  0
  161.6390  210.6210  154.4280 C   0  0  0  0  0  0  0  0  0  0  0  0
  162.7250  210.3510  155.2750 C   0  0  0  0  0  3  0  0  0  0  0  0
  162.6440  210.6490  156.6380 C   0  0  0  0  0  3  0  0  0  0  0  0
  160.3970  211.4950  156.3190 C   0  0  0  0  0  3  0  0  0  0  0  0
  160.4780  211.1970  154.9550 C   0  0  0  0  0  3  0  0  0  0  0  0
  1 12  1  0  0  0  0
  2 12  1  0  0  0  0
  2  6  1  0  0  0  0
  3 16  1  0  0  0  0
  4 14  1  0  0  0  0
  5 13  1  0  0  0  0
  7 13  1  0  0  0  0
  7 11  1  0  0  0  0
  8 17  2  0  0  0  0
  8 10  1  0  0  0  0
  9  7  1  0  0  0  0
 10 20  2  0  0  0  0
 11 16  1  0  0  0  0
 11 14  2  0  0  0  0
 12 23  1  1  0  0  0
 13  4  2  0  0  0  0
 14 18  1  0  0  0  0
 15  1  1  0  0  0  0
 16  2  2  0  0  0  0
 17 21  1  0  0  0  0
 18  6  2  0  0  0  0
 19 10  1  0  0  0  0
 20 15  1  0  0  0  0
 21  3  1  0  0  0  0
 21 15  2  0  0  0  0
 23 27  2  0  0  0  0
 23 24  1  0  0  0  0
 24 25  2  0  0  0  0
 25 22  1  0  0  0  0
 26 22  2  0  0  0  0
 27 26  1  0  0  0  0
M  END
>  <MODEL>
2

>  <REMARK>
 VINA RESULT:      -8.2      1.498      5.765
  Name = 
  1 active torsions:
  status: ('A' for Active; 'I' for Inactive)
    1  A    between atoms: C_9  and  C_15
                            x       y       z     vdW  Elec       q    Type
                         _______ _______ _______ _____ _____    ______ ____

>  <TORSDO>
F 1

$$$$
=
 OpenBabel11052423063D

 27 31  0  0  1  0  0  0  0  0999 V2000
  161.2430  208.6470  148.1740 N   0  0  0  0  0  2  0  0  0  0  0  0
  161.5970  209.4410  150.4310 C   0  0  0  0  0  0  0  0  0  0  0  0
  162.0060  206.9750  150.5760 N   0  0  0  0  0  2  0  0  0  0  0  0
  160.5110  209.2420  154.4030 C   0  0  0  0  0  3  0  0  0  0  0  0
  160.5130  207.1360  155.8340 C   0  0  0  0  0  1  0  0  0  0  0  0
  161.1970  210.6030  151.0470 N   0  0  0  0  0  0  0  0  0  0  0  0
  161.1670  207.3000  153.4120 N   0  0  0  0  0  0  0  0  0  0  0  0
  161.6340  204.4480  147.8860 C   0  0  0  0  0  3  0  0  0  0  0  0
  161.4840  205.8910  153.2230 C   0  0  0  0  0  1  0  0  0  0  0  0
  161.1260  205.1990  146.8270 C   0  0  0  0  0  0  0  0  0  0  0  0
  161.2330  208.2910  152.5040 C   0  0  0  0  0  0  0  0  0  0  0  0
  162.0900  209.4690  149.0170 C   0  0  2  0  0  3  0  0  0  0  0  0
  160.7330  207.8750  154.5580 C   0  0  0  0  0  0  0  0  0  0  0  0
  160.8400  209.4680  153.0810 C   0  0  0  0  0  0  0  0  0  0  0  0
  161.3130  207.2230  148.1580 C   0  0  0  0  0  0  0  0  0  0  0  0
  161.6040  208.2270  151.1520 C   0  0  0  0  0  0  0  0  0  0  0  0
  161.9560  205.0750  149.0900 C   0  0  0  0  0  3  0  0  0  0  0  0
  160.8110  210.6470  152.3540 C   0  0  0  0  0  3  0  0  0  0  0  0
  160.7870  204.5760  145.6340 O   0  0  0  0  0  1  0  0  0  0  0  0
  160.9720  206.5780  146.9640 C   0  0  0  0  0  3  0  0  0  0  0  0
  161.7890  206.4560  149.2540 C   0  0  0  0  0  0  0  0  0  0  0  0
  162.4310  213.4130  147.3320 C   0  0  0  0  0  3  0  0  0  0  0  0
  162.2230  210.8500  148.4460 C   0  0  0  0  0  0  0  0  0  0  0  0
  163.4560  211.5200  148.4410 C   0  0  0  0  0  3  0  0  0  0  0  0
  163.5590  212.7990  147.8860 C   0  0  0  0  0  3  0  0  0  0  0  0
  161.2020  212.7470  147.3310 C   0  0  0  0  0  3  0  0  0  0  0  0
  161.0990  211.4680  147.8860 C   0  0  0  0  0  3  0  0  0  0  0  0
  1 12  1  0  0  0  0
  2  6  2  0  0  0  0
  2 16  1  0  0  0  0
  3 16  1  0  0  0  0
  4 13  2  0  0  0  0
  6 18  1  0  0  0  0
  7 13  1  0  0  0  0
  8 17  1  0  0  0  0
  9  7  1  0  0  0  0
 10 20  1  0  0  0  0
 10  8  2  0  0  0  0
 11 14  1  0  0  0  0
 11  7  1  0  0  0  0
 12 23  1  6  0  0  0
 12  2  1  0  0  0  0
 13  5  1  0  0  0  0
 14  4  1  0  0  0  0
 15  1  1  0  0  0  0
 15 21  1  0  0  0  0
 16 11  2  0  0  0  0
 17 21  2  0  0  0  0
 18 14  2  0  0  0  0
 19 10  1  0  0  0  0
 20 15  2  0  0  0  0
 21  3  1  0  0  0  0
 22 25  1  0  0  0  0
 24 23  1  0  0  0  0
 25 24  2  0  0  0  0
 26 22  2  0  0  0  0
 26 27  1  0  0  0  0
 27 23  2  0  0  0  0
M  END
>  <MODEL>
3

>  <REMARK>
 VINA RESULT:      -7.7      2.150      5.378
  Name = 
  1 active torsions:
  status: ('A' for Active; 'I' for Inactive)
    1  A    between atoms: C_9  and  C_15
                            x       y       z     vdW  Elec       q    Type
                         _______ _______ _______ _____ _____    ______ ____

>  <TORSDO>
F 1

$$$$
=
 OpenBabel11052423063D

 27 31  0  0  1  0  0  0  0  0999 V2000
  160.5120  209.9160  152.6370 N   0  0  0  0  0  2  0  0  0  0  0  0
  161.2580  207.6560  152.2050 C   0  0  0  0  0  0  0  0  0  0  0  0
  162.0340  208.9520  150.2080 N   0  0  0  0  0  2  0  0  0  0  0  0
  161.1510  204.3700  149.7170 C   0  0  0  0  0  3  0  0  0  0  0  0
  161.7790  204.3610  147.2500 C   0  0  0  0  0  1  0  0  0  0  0  0
  160.8500  206.4580  152.7400 N   0  0  0  0  0  0  0  0  0  0  0  0
  161.8300  206.3390  148.8000 N   0  0  0  0  0  0  0  0  0  0  0  0
  161.4170  212.5290  149.4410 C   0  0  0  0  0  3  0  0  0  0  0  0
  162.2920  207.3140  147.8200 C   0  0  0  0  0  1  0  0  0  0  0  0
  160.5790  212.9260  150.4810 C   0  0  0  0  0  0  0  0  0  0  0  0
  161.5460  206.5450  150.0990 C   0  0  0  0  0  0  0  0  0  0  0  0
  161.4040  208.8620  153.0810 C   0  0  2  0  0  3  0  0  0  0  0  0
  161.5940  205.0270  148.5700 C   0  0  0  0  0  0  0  0  0  0  0  0
  161.1330  205.3710  150.6680 C   0  0  0  0  0  0  0  0  0  0  0  0
  160.7770  210.7270  151.4950 C   0  0  0  0  0  0  0  0  0  0  0  0
  161.6010  207.7370  150.8380 C   0  0  0  0  0  0  0  0  0  0  0  0
  161.9140  211.2260  149.4090 C   0  0  0  0  0  3  0  0  0  0  0  0
  160.7710  205.3120  152.0040 C   0  0  0  0  0  3  0  0  0  0  0  0
  160.0670  214.2150  150.5070 O   0  0  0  0  0  1  0  0  0  0  0  0
  160.2660  212.0300  151.5030 C   0  0  0  0  0  3  0  0  0  0  0  0
  161.5960  210.3050  150.4150 C   0  0  0  0  0  0  0  0  0  0  0  0
  160.7720  208.0470  157.2580 C   0  0  0  0  0  3  0  0  0  0  0  0
  161.2060  208.5800  154.5410 C   0  0  0  0  0  0  0  0  0  0  0  0
  161.8930  209.3110  155.5230 C   0  0  0  0  0  3  0  0  0  0  0  0
  161.6760  209.0430  156.8780 C   0  0  0  0  0  3  0  0  0  0  0  0
  160.0820  207.3200  156.2820 C   0  0  0  0  0  3  0  0  0  0  0  0
  160.2980  207.5880  154.9270 C   0  0  0  0  0  3  0  0  0  0  0  0
  1 12  1  0  0  0  0
  2  6  1  0  0  0  0
  2 12  1  0  0  0  0
  3 21  1  0  0  0  0
  3 16  1  0  0  0  0
  4 14  1  0  0  0  0
  5 13  1  0  0  0  0
  7 11  1  0  0  0  0
  8 10  1  0  0  0  0
  9  7  1  0  0  0  0
 10 19  1  0  0  0  0
 10 20  2  0  0  0  0
 11 14  2  0  0  0  0
 11 16  1  0  0  0  0
 12 23  1  1  0  0  0
 13  7  1  0  0  0  0
 13  4  2  0  0  0  0
 14 18  1  0  0  0  0
 15 20  1  0  0  0  0
 15  1  1  0  0  0  0
 16  2  2  0  0  0  0
 17  8  2  0  0  0  0
 17 21  1  0  0  0  0
 18  6  2  0  0  0  0
 21 15  2  0  0  0  0
 23 27  2  0  0  0  0
 23 24  1  0  0  0  0
 24 25  2  0  0  0  0
 25 22  1  0  0  0  0
 26 22  2  0  0  0  0
 27 26  1  0  0  0  0
M  END
>  <MODEL>
4

>  <REMARK>
 VINA RESULT:      -7.6      1.442      5.690
  Name = 
  1 active torsions:
  status: ('A' for Active; 'I' for Inactive)
    1  A    between atoms: C_9  and  C_15
                            x       y       z     vdW  Elec       q    Type
                         _______ _______ _______ _____ _____    ______ ____

>  <TORSDO>
F 1

$$$$
=
 OpenBabel11052423063D

 27 31  0  0  1  0  0  0  0  0999 V2000
  161.9810  209.0640  150.5110 N   0  0  0  0  0  2  0  0  0  0  0  0
  160.8430  208.7120  152.6160 C   0  0  0  0  0  0  0  0  0  0  0  0
  160.2230  211.0500  151.9650 N   0  0  0  0  0  2  0  0  0  0  0  0
  160.2870  209.9200  156.5190 C   0  0  0  0  0  3  0  0  0  0  0  0
  159.5710  212.2480  157.2600 C   0  0  0  0  0  1  0  0  0  0  0  0
  161.0590  207.7900  153.6110 N   0  0  0  0  0  0  0  0  0  0  0  0
  159.9210  211.4720  154.8950 N   0  0  0  0  0  0  0  0  0  0  0  0
  161.4140  212.9830  149.0310 C   0  0  0  0  0  3  0  0  0  0  0  0
  159.5950  212.7370  154.2490 C   0  0  0  0  0  1  0  0  0  0  0  0
  162.3480  212.1230  148.4550 C   0  0  0  0  0  0  0  0  0  0  0  0
  160.2870  210.3160  154.3110 C   0  0  0  0  0  0  0  0  0  0  0  0
  160.9390  208.3070  151.1780 C   0  0  2  0  0  3  0  0  0  0  0  0
  159.9190  211.2320  156.2270 C   0  0  0  0  0  0  0  0  0  0  0  0
  160.5140  209.3690  155.2730 C   0  0  0  0  0  0  0  0  0  0  0  0
  161.8150  210.4210  150.1060 C   0  0  0  0  0  0  0  0  0  0  0  0
  160.4650  210.0320  152.9480 C   0  0  0  0  0  0  0  0  0  0  0  0
  160.7000  212.5770  150.1590 C   0  0  0  0  0  3  0  0  0  0  0  0
  160.9120  208.0860  154.9340 C   0  0  0  0  0  3  0  0  0  0  0  0
  163.0740  212.5290  147.3450 O   0  0  0  0  0  1  0  0  0  0  0  0
  162.5420  210.8490  148.9890 C   0  0  0  0  0  3  0  0  0  0  0  0
  160.8950  211.3100  150.7220 C   0  0  0  0  0  0  0  0  0  0  0  0
  161.4650  204.0800  150.5670 C   0  0  0  0  0  3  0  0  0  0  0  0
  161.1430  206.8340  150.9740 C   0  0  0  0  0  0  0  0  0  0  0  0
  161.7740  206.0450  151.9480 C   0  0  0  0  0  3  0  0  0  0  0  0
  161.9360  204.6720  151.7430 C   0  0  0  0  0  3  0  0  0  0  0  0
  160.8310  204.8630  149.5960 C   0  0  0  0  0  3  0  0  0  0  0  0
  160.6690  206.2360  149.8010 C   0  0  0  0  0  3  0  0  0  0  0  0
  1 12  1  0  0  0  0
  2 16  2  0  0  0  0
  2  6  1  0  0  0  0
  3 16  1  0  0  0  0
  6 18  2  0  0  0  0
  7 13  1  0  0  0  0
  8 17  1  0  0  0  0
  9  7  1  0  0  0  0
 10 20  1  0  0  0  0
 10  8  2  0  0  0  0
 11  7  1  0  0  0  0
 11 14  2  0  0  0  0
 12 23  1  1  0  0  0
 12  2  1  0  0  0  0
 13  4  2  0  0  0  0
 13  5  1  0  0  0  0
 14  4  1  0  0  0  0
 15  1  1  0  0  0  0
 15 21  1  0  0  0  0
 16 11  1  0  0  0  0
 17 21  2  0  0  0  0
 18 14  1  0  0  0  0
 19 10  1  0  0  0  0
 20 15  2  0  0  0  0
 21  3  1  0  0  0  0
 22 25  1  0  0  0  0
 23 24  1  0  0  0  0
 25 24  2  0  0  0  0
 26 27  1  0  0  0  0
 26 22  2  0  0  0  0
 27 23  2  0  0  0  0
M  END
>  <MODEL>
5

>  <REMARK>
 VINA RESULT:      -7.2      1.298      1.816
  Name = 
  1 active torsions:
  status: ('A' for Active; 'I' for Inactive)
    1  A    between atoms: C_9  and  C_15
                            x       y       z     vdW  Elec       q    Type
                         _______ _______ _______ _____ _____    ______ ____

>  <TORSDO>
F 1

$$$$
=
 OpenBabel11052423063D

 27 31  0  0  1  0  0  0  0  0999 V2000
  161.1770  208.6010  149.2470 N   0  0  0  0  0  2  0  0  0  0  0  0
  161.3790  210.0960  151.1380 C   0  0  0  0  0  0  0  0  0  0  0  0
  161.8240  207.8260  152.0980 N   0  0  0  0  0  2  0  0  0  0  0  0
  160.0580  211.1510  154.8990 C   0  0  0  0  0  3  0  0  0  0  0  0
  160.0120  209.6220  156.9340 C   0  0  0  0  0  1  0  0  0  0  0  0
  160.9220  211.3780  151.3220 N   0  0  0  0  0  0  0  0  0  0  0  0
  160.8080  209.0190  154.6270 N   0  0  0  0  0  0  0  0  0  0  0  0
  161.6620  204.5530  150.3590 C   0  0  0  0  0  3  0  0  0  0  0  0
  161.1620  207.6370  154.9230 C   0  0  0  0  0  1  0  0  0  0  0  0
  161.2060  204.9010  149.0900 C   0  0  0  0  0  0  0  0  0  0  0  0
  160.9120  209.6650  153.4510 C   0  0  0  0  0  0  0  0  0  0  0  0
  161.9560  209.6830  149.8200 C   0  0  2  0  0  3  0  0  0  0  0  0
  160.2950  209.9170  155.5010 C   0  0  0  0  0  0  0  0  0  0  0  0
  160.4620  210.9500  153.5940 C   0  0  0  0  0  0  0  0  0  0  0  0
  161.2740  207.2530  149.6990 C   0  0  0  0  0  0  0  0  0  0  0  0
  161.3640  209.1810  152.2140 C   0  0  0  0  0  0  0  0  0  0  0  0
  161.8990  205.5470  151.3090 C   0  0  0  0  0  3  0  0  0  0  0  0
  160.4560  211.8280  152.5220 C   0  0  0  0  0  3  0  0  0  0  0  0
  160.9510  203.9150  148.1480 O   0  0  0  0  0  1  0  0  0  0  0  0
  161.0180  206.2440  148.7630 C   0  0  0  0  0  3  0  0  0  0  0  0
  161.6970  206.8990  151.0070 C   0  0  0  0  0  0  0  0  0  0  0  0
  162.3960  212.9470  147.0510 C   0  0  0  0  0  3  0  0  0  0  0  0
  162.0980  210.8100  148.8390 C   0  0  0  0  0  0  0  0  0  0  0  0
  161.0350  211.1860  148.0040 C   0  0  0  0  0  3  0  0  0  0  0  0
  161.1850  212.2510  147.1110 C   0  0  0  0  0  3  0  0  0  0  0  0
  163.4560  212.5790  147.8860 C   0  0  0  0  0  3  0  0  0  0  0  0
  163.3060  211.5130  148.7780 C   0  0  0  0  0  3  0  0  0  0  0  0
  1 15  1  0  0  0  0
  1 12  1  0  0  0  0
  2  6  2  0  0  0  0
  2 16  1  0  0  0  0
  3 16  1  0  0  0  0
  4 13  2  0  0  0  0
  6 18  1  0  0  0  0
  7  9  1  0  0  0  0
  7 13  1  0  0  0  0
  8 17  1  0  0  0  0
 10  8  2  0  0  0  0
 11 14  1  0  0  0  0
 11  7  1  0  0  0  0
 12 23  1  6  0  0  0
 12  2  1  0  0  0  0
 13  5  1  0  0  0  0
 14  4  1  0  0  0  0
 15 21  1  0  0  0  0
 16 11  2  0  0  0  0
 18 14  2  0  0  0  0
 19 10  1  0  0  0  0
 20 10  1  0  0  0  0
 20 15  2  0  0  0  0
 21 17  2  0  0  0  0
 21  3  1  0  0  0  0
 22 25  2  0  0  0  0
 22 26  1  0  0  0  0
 24 23  2  0  0  0  0
 25 24  1  0  0  0  0
 26 27  2  0  0  0  0
 27 23  1  0  0  0  0
M  END
>  <MODEL>
6

>  <REMARK>
 VINA RESULT:      -6.9      2.073      5.233
  Name = 
  1 active torsions:
  status: ('A' for Active; 'I' for Inactive)
    1  A    between atoms: C_9  and  C_15
                            x       y       z     vdW  Elec       q    Type
                         _______ _______ _______ _____ _____    ______ ____

>  <TORSDO>
F 1

$$$$
=
 OpenBabel11052423063D

 27 31  0  0  1  0  0  0  0  0999 V2000
  162.3250  208.9670  148.3290 N   0  0  0  0  0  2  0  0  0  0  0  0
  161.4950  207.4360  150.0080 C   0  0  0  0  0  0  0  0  0  0  0  0
  160.8520  209.6980  150.8680 N   0  0  0  0  0  2  0  0  0  0  0  0
  161.5470  206.2300  153.9510 C   0  0  0  0  0  3  0  0  0  0  0  0
  161.0110  207.7030  155.9560 C   0  0  0  0  0  1  0  0  0  0  0  0
  161.8290  206.1310  150.2760 N   0  0  0  0  0  0  0  0  0  0  0  0
  160.9910  208.3980  153.5400 N   0  0  0  0  0  0  0  0  0  0  0  0
  161.6560  213.0040  149.3880 C   0  0  0  0  0  3  0  0  0  0  0  0
  160.6100  209.7870  153.7640 C   0  0  0  0  0  1  0  0  0  0  0  0
  162.4720  212.6670  148.3100 C   0  0  0  0  0  0  0  0  0  0  0  0
  161.2360  207.7880  152.3670 C   0  0  0  0  0  0  0  0  0  0  0  0
  161.3700  207.9070  148.5920 C   0  0  2  0  0  3  0  0  0  0  0  0
  161.1770  207.4580  154.4960 C   0  0  0  0  0  0  0  0  0  0  0  0
  161.5750  206.4810  152.5930 C   0  0  0  0  0  0  0  0  0  0  0  0
  162.1390  210.3070  148.7790 C   0  0  0  0  0  0  0  0  0  0  0  0
  161.2060  208.3220  151.0700 C   0  0  0  0  0  0  0  0  0  0  0  0
  161.1030  211.9980  150.1810 C   0  0  0  0  0  3  0  0  0  0  0  0
  161.8830  205.6300  151.5440 C   0  0  0  0  0  3  0  0  0  0  0  0
  163.0400  213.6650  147.5310 O   0  0  0  0  0  1  0  0  0  0  0  0
  162.7060  211.3260  148.0060 C   0  0  0  0  0  3  0  0  0  0  0  0
  161.3420  210.6460  149.9050 C   0  0  0  0  0  0  0  0  0  0  0  0
  161.8080  204.7870  145.6620 C   0  0  0  0  0  3  0  0  0  0  0  0
  161.5010  206.8120  147.5740 C   0  0  0  0  0  0  0  0  0  0  0  0
  160.4590  206.5200  146.6810 C   0  0  0  0  0  3  0  0  0  0  0  0
  160.6120  205.5090  145.7280 C   0  0  0  0  0  3  0  0  0  0  0  0
  162.8510  205.0790  146.5470 C   0  0  0  0  0  3  0  0  0  0  0  0
  162.6980  206.0900  147.4990 C   0  0  0  0  0  3  0  0  0  0  0  0
  1 12  1  0  0  0  0
  1 15  1  0  0  0  0
  2  6  2  0  0  0  0
  2 16  1  0  0  0  0
  3 16  1  0  0  0  0
  4 13  2  0  0  0  0
  6 18  1  0  0  0  0
  7  9  1  0  0  0  0
  7 13  1  0  0  0  0
  8 17  1  0  0  0  0
 10  8  2  0  0  0  0
 11 14  1  0  0  0  0
 11  7  1  0  0  0  0
 12 23  1  6  0  0  0
 12  2  1  0  0  0  0
 13  5  1  0  0  0  0
 14  4  1  0  0  0  0
 15 21  1  0  0  0  0
 16 11  2  0  0  0  0
 18 14  2  0  0  0  0
 19 10  1  0  0  0  0
 20 10  1  0  0  0  0
 20 15  2  0  0  0  0
 21 17  2  0  0  0  0
 21  3  1  0  0  0  0
 22 25  2  0  0  0  0
 22 26  1  0  0  0  0
 24 23  2  0  0  0  0
 25 24  1  0  0  0  0
 26 27  2  0  0  0  0
 27 23  1  0  0  0  0
M  END
>  <MODEL>
7

>  <REMARK>
 VINA RESULT:      -6.7      1.388      1.971
  Name = 
  1 active torsions:
  status: ('A' for Active; 'I' for Inactive)
    1  A    between atoms: C_9  and  C_15
                            x       y       z     vdW  Elec       q    Type
                         _______ _______ _______ _____ _____    ______ ____

>  <TORSDO>
F 1

$$$$
=
 OpenBabel11052423063D

 27 31  0  0  1  0  0  0  0  0999 V2000
  161.3440  210.5730  151.5690 N   0  0  0  0  0  2  0  0  0  0  0  0
  160.0470  210.4130  153.6040 C   0  0  0  0  0  0  0  0  0  0  0  0
  159.0730  212.3860  152.4080 N   0  0  0  0  0  2  0  0  0  0  0  0
  158.7990  212.2300  157.0900 C   0  0  0  0  0  3  0  0  0  0  0  0
  157.5640  214.4510  157.2410 C   0  0  0  0  0  1  0  0  0  0  0  0
  160.3140  209.7770  154.7920 N   0  0  0  0  0  0  0  0  0  0  0  0
  158.3410  213.3110  155.1390 N   0  0  0  0  0  0  0  0  0  0  0  0
  160.2190  213.9030  149.2220 C   0  0  0  0  0  3  0  0  0  0  0  0
  157.8600  214.3220  154.2070 C   0  0  0  0  0  1  0  0  0  0  0  0
  161.3630  213.1650  148.9240 C   0  0  0  0  0  0  0  0  0  0  0  0
  158.9910  212.1670  154.8550 C   0  0  0  0  0  0  0  0  0  0  0  0
  160.3940  209.7590  152.3030 C   0  0  2  0  0  3  0  0  0  0  0  0
  158.2240  213.3470  156.4870 C   0  0  0  0  0  0  0  0  0  0  0  0
  159.2770  211.5030  156.0170 C   0  0  0  0  0  0  0  0  0  0  0  0
  160.9710  211.7540  150.8630 C   0  0  0  0  0  0  0  0  0  0  0  0
  159.3850  211.6610  153.6070 C   0  0  0  0  0  0  0  0  0  0  0  0
  159.4640  213.5880  150.3520 C   0  0  0  0  0  3  0  0  0  0  0  0
  159.9520  210.2930  156.0010 C   0  0  0  0  0  3  0  0  0  0  0  0
  162.1280  213.4870  147.8120 O   0  0  0  0  0  1  0  0  0  0  0  0
  161.7320  212.0940  149.7390 C   0  0  0  0  0  3  0  0  0  0  0  0
  159.8290  212.5300  151.1940 C   0  0  0  0  0  0  0  0  0  0  0  0
  161.8320  205.7190  152.6490 C   0  0  0  0  0  3  0  0  0  0  0  0
  160.9000  208.3540  152.4460 C   0  0  0  0  0  0  0  0  0  0  0  0
  160.6180  207.5910  153.5890 C   0  0  0  0  0  3  0  0  0  0  0  0
  161.0850  206.2770  153.6910 C   0  0  0  0  0  3  0  0  0  0  0  0
  162.1110  206.4740  151.5060 C   0  0  0  0  0  3  0  0  0  0  0  0
  161.6440  207.7880  151.4040 C   0  0  0  0  0  3  0  0  0  0  0  0
  1 12  1  0  0  0  0
  2 16  2  0  0  0  0
  2  6  1  0  0  0  0
  3 16  1  0  0  0  0
  6 18  2  0  0  0  0
  7 13  1  0  0  0  0
  8 17  1  0  0  0  0
  9  7  1  0  0  0  0
 10  8  2  0  0  0  0
 10 20  1  0  0  0  0
 11  7  1  0  0  0  0
 11 14  2  0  0  0  0
 12 23  1  1  0  0  0
 12  2  1  0  0  0  0
 13  4  2  0  0  0  0
 13  5  1  0  0  0  0
 14  4  1  0  0  0  0
 15 21  1  0  0  0  0
 15  1  1  0  0  0  0
 16 11  1  0  0  0  0
 17 21  2  0  0  0  0
 18 14  1  0  0  0  0
 19 10  1  0  0  0  0
 20 15  2  0  0  0  0
 21  3  1  0  0  0  0
 22 25  1  0  0  0  0
 23 24  1  0  0  0  0
 24 25  2  0  0  0  0
 26 22  2  0  0  0  0
 27 26  1  0  0  0  0
 27 23  2  0  0  0  0
M  END
>  <MODEL>
8

>  <REMARK>
 VINA RESULT:      -5.7      2.267      3.904
  Name = 
  1 active torsions:
  status: ('A' for Active; 'I' for Inactive)
    1  A    between atoms: C_9  and  C_15
                            x       y       z     vdW  Elec       q    Type
                         _______ _______ _______ _____ _____    ______ ____

>  <TORSDO>
F 1

$$$$
=
 OpenBabel11052423063D

 27 31  0  0  1  0  0  0  0  0999 V2000
  161.5060  205.6880  152.7580 N   0  0  0  0  0  2  0  0  0  0  0  0
  161.3200  208.0460  152.2520 C   0  0  0  0  0  0  0  0  0  0  0  0
  160.7760  206.9090  150.0890 N   0  0  0  0  0  2  0  0  0  0  0  0
  162.6030  211.2290  149.9650 C   0  0  0  0  0  3  0  0  0  0  0  0
  162.5540  211.3390  147.4230 C   0  0  0  0  0  1  0  0  0  0  0  0
  161.8190  209.1470  152.9050 N   0  0  0  0  0  0  0  0  0  0  0  0
  161.7830  209.4200  148.8530 N   0  0  0  0  0  0  0  0  0  0  0  0
  160.8560  203.2730  149.3510 C   0  0  0  0  0  3  0  0  0  0  0  0
  161.3740  208.5460  147.7610 C   0  0  0  0  0  1  0  0  0  0  0  0
  161.3490  202.7300  150.5360 C   0  0  0  0  0  0  0  0  0  0  0  0
  161.7260  209.1740  150.1750 C   0  0  0  0  0  0  0  0  0  0  0  0
  160.7550  206.8990  153.0310 C   0  0  2  0  0  3  0  0  0  0  0  0
  162.3100  210.6610  148.7270 C   0  0  0  0  0  0  0  0  0  0  0  0
  162.2180  210.2510  150.8620 C   0  0  0  0  0  0  0  0  0  0  0  0
  161.3530  204.9340  151.5580 C   0  0  0  0  0  0  0  0  0  0  0  0
  161.2810  208.0220  150.8400 C   0  0  0  0  0  0  0  0  0  0  0  0
  160.6360  204.6480  149.2560 C   0  0  0  0  0  3  0  0  0  0  0  0
  162.2760  210.2500  152.2460 C   0  0  0  0  0  3  0  0  0  0  0  0
  161.5880  201.3670  150.6280 O   0  0  0  0  0  1  0  0  0  0  0  0
  161.5910  203.5570  151.6320 C   0  0  0  0  0  3  0  0  0  0  0  0
  160.8920  205.4980  150.3390 C   0  0  0  0  0  0  0  0  0  0  0  0
  160.4560  207.6280  157.2610 C   0  0  0  0  0  3  0  0  0  0  0  0
  160.6730  207.1490  154.5080 C   0  0  0  0  0  0  0  0  0  0  0  0
  161.6880  207.8410  155.1870 C   0  0  0  0  0  3  0  0  0  0  0  0
  161.5800  208.0790  156.5600 C   0  0  0  0  0  3  0  0  0  0  0  0
  159.4410  206.9430  156.5870 C   0  0  0  0  0  3  0  0  0  0  0  0
  159.5490  206.7050  155.2140 C   0  0  0  0  0  3  0  0  0  0  0  0
  1 12  1  0  0  0  0
  2  6  1  0  0  0  0
  2 12  1  0  0  0  0
  3 21  1  0  0  0  0
  3 16  1  0  0  0  0
  4 14  1  0  0  0  0
  5 13  1  0  0  0  0
  7 11  1  0  0  0  0
  8 10  1  0  0  0  0
  9  7  1  0  0  0  0
 10 19  1  0  0  0  0
 10 20  2  0  0  0  0
 11 16  1  0  0  0  0
 11 14  2  0  0  0  0
 12 23  1  1  0  0  0
 13  7  1  0  0  0  0
 13  4  2  0  0  0  0
 14 18  1  0  0  0  0
 15 20  1  0  0  0  0
 15  1  1  0  0  0  0
 16  2  2  0  0  0  0
 17  8  2  0  0  0  0
 17 21  1  0  0  0  0
 18  6  2  0  0  0  0
 21 15  2  0  0  0  0
 23 24  2  0  0  0  0
 23 27  1  0  0  0  0
 24 25  1  0  0  0  0
 25 22  2  0  0  0  0
 26 22  1  0  0  0  0
 27 26  2  0  0  0  0
M  END
>  <MODEL>
9

>  <REMARK>
 VINA RESULT:      -5.5      2.634      6.791
  Name = 
  1 active torsions:
  status: ('A' for Active; 'I' for Inactive)
    1  A    between atoms: C_9  and  C_15
                            x       y       z     vdW  Elec       q    Type
                         _______ _______ _______ _____ _____    ______ ____

>  <TORSDO>
F 1

$$$$
