=
 OpenBabel11052422103D

 25 29  0  0  1  0  0  0  0  0999 V2000
  160.9760  204.7030  150.0460 C   0  0  0  0  0  0  0  0  0  0  0  0
  160.9690  205.6960  151.0530 C   0  0  0  0  0  0  0  0  0  0  0  0
  160.9990  202.9760  151.7520 C   0  0  0  0  0  3  0  0  0  0  0  0
  161.0020  203.9530  152.7470 C   0  0  0  0  0  3  0  0  0  0  0  0
  160.9840  203.3500  150.4090 C   0  0  0  0  0  3  0  0  0  0  0  0
  160.9840  205.3080  152.4080 C   0  0  0  0  0  0  0  0  0  0  0  0
  160.9570  205.0470  148.6100 C   0  0  0  0  0  0  0  0  0  0  0  0
  160.9060  205.7850  145.9040 C   0  0  0  0  0  3  0  0  0  0  0  0
  161.3720  204.1340  147.6170 C   0  0  0  0  0  0  0  0  0  0  0  0
  161.3430  204.5110  146.2710 C   0  0  0  0  0  3  0  0  0  0  0  0
  160.4850  206.6890  146.8820 C   0  0  0  0  0  3  0  0  0  0  0  0
  161.8120  202.7490  147.9580 C   0  0  0  0  0  1  0  0  0  0  0  0
  160.5080  206.3190  148.2280 C   0  0  0  0  0  3  0  0  0  0  0  0
  160.9730  206.2810  153.4520 N   0  0  0  0  0  0  0  0  0  0  0  0
  161.6350  207.3230  154.2900 C   0  0  0  0  0  2  0  0  0  0  0  0
  160.3090  207.0480  154.5460 C   0  0  0  0  0  2  0  0  0  0  0  0
  160.8780  207.1490  150.6950 C   0  0  0  0  0  2  0  0  0  0  0  0
  162.1990  209.1550  149.9870 C   0  0  2  0  0  3  0  0  0  0  0  0
  162.7390  208.7090  151.2980 C   0  0  1  0  0  3  0  0  0  0  0  0
  162.0540  210.0060  151.1790 N   0  0  0  0  0  0  0  0  0  0  0  0
  162.2490  207.6780  150.3060 C   0  0  1  0  0  3  0  0  0  0  0  0
  158.9110  210.3330  153.3200 C   0  0  0  0  0  1  0  0  0  0  0  0
  160.3190  210.4810  152.8690 C   0  0  0  0  0  0  0  0  0  0  0  0
  161.1480  211.1780  153.5760 N   0  0  0  0  0  2  0  0  0  0  0  0
  160.7440  209.8540  151.6600 N   0  0  0  0  0  2  0  0  0  0  0  0
  1  5  2  0  0  0  0
  1  2  1  0  0  0  0
  2  6  2  0  0  0  0
  3  4  2  0  0  0  0
  5  3  1  0  0  0  0
  6  4  1  0  0  0  0
  6 14  1  0  0  0  0
  7  1  1  0  0  0  0
  8 10  2  0  0  0  0
  8 11  1  0  0  0  0
  9 12  1  0  0  0  0
  9  7  2  0  0  0  0
 10  9  1  0  0  0  0
 11 13  2  0  0  0  0
 13  7  1  0  0  0  0
 14 15  1  0  0  0  0
 14 16  1  0  0  0  0
 15 16  1  0  0  0  0
 17  2  1  0  0  0  0
 18 21  1  0  0  0  0
 18 20  1  1  0  0  0
 18 19  1  0  0  0  0
 19 20  1  1  0  0  0
 20 25  1  0  0  0  0
 21 17  1  1  0  0  0
 21 19  1  0  0  0  0
 23 22  1  0  0  0  0
 23 24  2  0  0  0  0
 25 23  1  0  0  0  0
M  END
>  <MODEL>
1

>  <REMARK>
 VINA RESULT:      -7.5      0.000      0.000
  Name = 
  5 active torsions:
  status: ('A' for Active; 'I' for Inactive)
    1  A    between atoms: C_1  and  C_5
    2  A    between atoms: C_3  and  C_16
    3  A    between atoms: N_13  and  C_24
    4  A    between atoms: N_15  and  N_25
    5  A    between atoms: C_16  and  C_23
                            x       y       z     vdW  Elec       q    Type
                         _______ _______ _______ _____ _____    ______ ____

>  <TORSDO>
F 5

$$$$
=
 OpenBabel11052422103D

 25 29  0  0  1  0  0  0  0  0999 V2000
  159.9430  209.2760  155.1790 C   0  0  0  0  0  0  0  0  0  0  0  0
  160.3830  208.4960  154.0840 C   0  0  0  0  0  0  0  0  0  0  0  0
  160.4850  207.4560  156.6910 C   0  0  0  0  0  3  0  0  0  0  0  0
  160.9110  206.6810  155.6130 C   0  0  0  0  0  3  0  0  0  0  0  0
  160.0060  208.7480  156.4740 C   0  0  0  0  0  3  0  0  0  0  0  0
  160.8650  207.1910  154.3130 C   0  0  0  0  0  0  0  0  0  0  0  0
  159.4300  210.6500  155.0020 C   0  0  0  0  0  0  0  0  0  0  0  0
  158.3790  213.2250  154.6380 C   0  0  0  0  0  3  0  0  0  0  0  0
  160.1380  211.7790  155.4690 C   0  0  0  0  0  0  0  0  0  0  0  0
  159.6060  213.0580  155.2830 C   0  0  0  0  0  3  0  0  0  0  0  0
  157.6790  212.1130  154.1660 C   0  0  0  0  0  3  0  0  0  0  0  0
  161.4700  211.6520  156.1310 C   0  0  0  0  0  1  0  0  0  0  0  0
  158.2060  210.8320  154.3440 C   0  0  0  0  0  3  0  0  0  0  0  0
  161.3210  206.3760  153.2350 N   0  0  0  0  0  0  0  0  0  0  0  0
  162.3460  205.9740  152.2280 C   0  0  0  0  0  2  0  0  0  0  0  0
  161.1580  205.2740  152.2410 C   0  0  0  0  0  2  0  0  0  0  0  0
  160.4030  209.0640  152.6970 C   0  0  0  0  0  2  0  0  0  0  0  0
  162.6280  209.5490  151.6550 C   0  0  2  0  0  3  0  0  0  0  0  0
  161.6680  210.5560  151.1350 C   0  0  1  0  0  3  0  0  0  0  0  0
  162.2600  209.5590  150.2300 N   0  0  0  0  0  0  0  0  0  0  0  0
  161.5360  210.0700  152.5610 C   0  0  1  0  0  3  0  0  0  0  0  0
  160.5090  206.4570  148.8610 C   0  0  0  0  0  1  0  0  0  0  0  0
  161.5100  207.5440  149.0190 C   0  0  0  0  0  0  0  0  0  0  0  0
  162.5460  207.5780  148.2470 N   0  0  0  0  0  2  0  0  0  0  0  0
  161.3170  208.5400  150.0220 N   0  0  0  0  0  2  0  0  0  0  0  0
  1  5  1  0  0  0  0
  2  6  1  0  0  0  0
  2  1  2  0  0  0  0
  4  3  1  0  0  0  0
  5  3  2  0  0  0  0
  6  4  2  0  0  0  0
  7  1  1  0  0  0  0
  7  9  1  0  0  0  0
  8 10  1  0  0  0  0
  9 12  1  0  0  0  0
 10  9  2  0  0  0  0
 11 13  1  0  0  0  0
 11  8  2  0  0  0  0
 13  7  2  0  0  0  0
 14  6  1  0  0  0  0
 15 16  1  0  0  0  0
 15 14  1  0  0  0  0
 16 14  1  0  0  0  0
 17  2  1  0  0  0  0
 18 20  1  6  0  0  0
 18 21  1  0  0  0  0
 19 20  1  6  0  0  0
 19 18  1  0  0  0  0
 19 21  1  0  0  0  0
 21 17  1  6  0  0  0
 22 23  1  0  0  0  0
 23 25  1  0  0  0  0
 24 23  2  0  0  0  0
 25 20  1  0  0  0  0
M  END
>  <MODEL>
2

>  <REMARK>
 VINA RESULT:      -7.4      2.085      6.769
  Name = 
  5 active torsions:
  status: ('A' for Active; 'I' for Inactive)
    1  A    between atoms: C_1  and  C_5
    2  A    between atoms: C_3  and  C_16
    3  A    between atoms: N_13  and  C_24
    4  A    between atoms: N_15  and  N_25
    5  A    between atoms: C_16  and  C_23
                            x       y       z     vdW  Elec       q    Type
                         _______ _______ _______ _____ _____    ______ ____

>  <TORSDO>
F 5

$$$$
=
 OpenBabel11052422103D

 25 29  0  0  1  0  0  0  0  0999 V2000
  161.2280  203.8160  147.8800 C   0  0  0  0  0  0  0  0  0  0  0  0
  161.1770  204.4360  149.1500 C   0  0  0  0  0  0  0  0  0  0  0  0
  161.1810  201.6350  148.9450 C   0  0  0  0  0  3  0  0  0  0  0  0
  161.1410  202.2430  150.1990 C   0  0  0  0  0  3  0  0  0  0  0  0
  161.2230  202.4190  147.7920 C   0  0  0  0  0  3  0  0  0  0  0  0
  161.1360  203.6360  150.3100 C   0  0  0  0  0  0  0  0  0  0  0  0
  161.2700  204.6010  146.6300 C   0  0  0  0  0  0  0  0  0  0  0  0
  161.2680  206.1210  144.2710 C   0  0  0  0  0  3  0  0  0  0  0  0
  162.4610  204.7650  145.8890 C   0  0  0  0  0  0  0  0  0  0  0  0
  162.4500  205.5240  144.7160 C   0  0  0  0  0  3  0  0  0  0  0  0
  160.0860  205.9540  144.9940 C   0  0  0  0  0  3  0  0  0  0  0  0
  163.7400  204.1170  146.3050 C   0  0  0  0  0  1  0  0  0  0  0  0
  160.0870  205.1940  146.1660 C   0  0  0  0  0  3  0  0  0  0  0  0
  161.0800  204.2250  151.6080 N   0  0  0  0  0  0  0  0  0  0  0  0
  160.7390  204.1860  153.0600 C   0  0  0  0  0  2  0  0  0  0  0  0
  161.3090  205.3420  152.5710 C   0  0  0  0  0  2  0  0  0  0  0  0
  161.1000  205.9290  149.2720 C   0  0  0  0  0  2  0  0  0  0  0  0
  161.8180  208.0660  148.1820 C   0  0  2  0  0  3  0  0  0  0  0  0
  162.9490  207.5960  149.0230 C   0  0  1  0  0  3  0  0  0  0  0  0
  162.2390  208.8390  149.3610 N   0  0  0  0  0  0  0  0  0  0  0  0
  162.0810  206.5830  148.3120 C   0  0  1  0  0  3  0  0  0  0  0  0
  160.4770  208.8860  152.7460 C   0  0  0  0  0  1  0  0  0  0  0  0
  161.4760  209.1730  151.6840 C   0  0  0  0  0  0  0  0  0  0  0  0
  162.4600  209.9730  151.9310 N   0  0  0  0  0  2  0  0  0  0  0  0
  161.3400  208.5610  150.4020 N   0  0  0  0  0  2  0  0  0  0  0  0
  1  2  1  0  0  0  0
  2 17  1  0  0  0  0
  2  6  2  0  0  0  0
  3  4  2  0  0  0  0
  4  6  1  0  0  0  0
  5  1  2  0  0  0  0
  5  3  1  0  0  0  0
  6 14  1  0  0  0  0
  7  1  1  0  0  0  0
  8 10  2  0  0  0  0
  8 11  1  0  0  0  0
  9 12  1  0  0  0  0
  9  7  2  0  0  0  0
 10  9  1  0  0  0  0
 11 13  2  0  0  0  0
 13  7  1  0  0  0  0
 14 16  1  0  0  0  0
 14 15  1  0  0  0  0
 16 15  1  0  0  0  0
 18 21  1  0  0  0  0
 18 19  1  0  0  0  0
 18 20  1  1  0  0  0
 19 20  1  1  0  0  0
 20 25  1  0  0  0  0
 21 19  1  0  0  0  0
 21 17  1  1  0  0  0
 23 24  2  0  0  0  0
 23 22  1  0  0  0  0
 25 23  1  0  0  0  0
M  END
>  <MODEL>
3

>  <REMARK>
 VINA RESULT:      -7.4      1.577      2.454
  Name = 
  5 active torsions:
  status: ('A' for Active; 'I' for Inactive)
    1  A    between atoms: C_1  and  C_5
    2  A    between atoms: C_3  and  C_16
    3  A    between atoms: N_13  and  C_24
    4  A    between atoms: N_15  and  N_25
    5  A    between atoms: C_16  and  C_23
                            x       y       z     vdW  Elec       q    Type
                         _______ _______ _______ _____ _____    ______ ____

>  <TORSDO>
F 5

$$$$
=
 OpenBabel11052422103D

 25 29  0  0  1  0  0  0  0  0999 V2000
  161.7200  206.3420  148.2140 C   0  0  0  0  0  0  0  0  0  0  0  0
  161.3080  205.5540  149.3140 C   0  0  0  0  0  0  0  0  0  0  0  0
  162.5910  208.0150  149.7410 C   0  0  0  0  0  3  0  0  0  0  0  0
  162.1780  207.2460  150.8270 C   0  0  0  0  0  3  0  0  0  0  0  0
  162.3650  207.5640  148.4410 C   0  0  0  0  0  3  0  0  0  0  0  0
  161.5410  206.0190  150.6240 C   0  0  0  0  0  0  0  0  0  0  0  0
  161.5060  205.9070  146.8190 C   0  0  0  0  0  0  0  0  0  0  0  0
  161.0300  205.1350  144.1630 C   0  0  0  0  0  3  0  0  0  0  0  0
  162.4380  205.0940  146.1370 C   0  0  0  0  0  0  0  0  0  0  0  0
  162.1920  204.7160  144.8140 C   0  0  0  0  0  3  0  0  0  0  0  0
  160.1000  205.9300  144.8360 C   0  0  0  0  0  3  0  0  0  0  0  0
  163.6760  204.5920  146.8020 C   0  0  0  0  0  1  0  0  0  0  0  0
  160.3370  206.3110  146.1590 C   0  0  0  0  0  3  0  0  0  0  0  0
  161.1430  205.2510  151.7580 N   0  0  0  0  0  0  0  0  0  0  0  0
  161.1390  204.9680  153.2230 C   0  0  0  0  0  2  0  0  0  0  0  0
  160.4200  204.1190  152.4090 C   0  0  0  0  0  2  0  0  0  0  0  0
  160.6890  204.2050  149.1010 C   0  0  0  0  0  2  0  0  0  0  0  0
  160.6720  201.8280  149.8890 C   0  0  2  0  0  3  0  0  0  0  0  0
  162.0360  202.1140  149.3720 C   0  0  1  0  0  3  0  0  0  0  0  0
  161.1690  201.1440  148.6850 N   0  0  0  0  0  0  0  0  0  0  0  0
  161.2680  203.2030  150.0870 C   0  0  1  0  0  3  0  0  0  0  0  0
  159.9720  201.8430  145.1290 C   0  0  0  0  0  1  0  0  0  0  0  0
  160.6200  201.1600  146.2790 C   0  0  0  0  0  0  0  0  0  0  0  0
  161.1920  200.0140  146.1040 N   0  0  0  0  0  2  0  0  0  0  0  0
  160.6050  201.7760  147.5660 N   0  0  0  0  0  2  0  0  0  0  0  0
  1  5  2  0  0  0  0
  1  2  1  0  0  0  0
  2  6  2  0  0  0  0
  3  4  2  0  0  0  0
  5  3  1  0  0  0  0
  6  4  1  0  0  0  0
  6 14  1  0  0  0  0
  7  1  1  0  0  0  0
  8 10  2  0  0  0  0
  8 11  1  0  0  0  0
  9 12  1  0  0  0  0
  9  7  2  0  0  0  0
 10  9  1  0  0  0  0
 11 13  2  0  0  0  0
 13  7  1  0  0  0  0
 14 16  1  0  0  0  0
 14 15  1  0  0  0  0
 16 15  1  0  0  0  0
 17  2  1  0  0  0  0
 18 20  1  6  0  0  0
 18 21  1  0  0  0  0
 19 20  1  6  0  0  0
 19 18  1  0  0  0  0
 19 21  1  0  0  0  0
 21 17  1  6  0  0  0
 22 23  1  0  0  0  0
 23 25  1  0  0  0  0
 24 23  2  0  0  0  0
 25 20  1  0  0  0  0
M  END
>  <MODEL>
4

>  <REMARK>
 VINA RESULT:      -7.4      3.169      5.987
  Name = 
  5 active torsions:
  status: ('A' for Active; 'I' for Inactive)
    1  A    between atoms: C_1  and  C_5
    2  A    between atoms: C_3  and  C_16
    3  A    between atoms: N_13  and  C_24
    4  A    between atoms: N_15  and  N_25
    5  A    between atoms: C_16  and  C_23
                            x       y       z     vdW  Elec       q    Type
                         _______ _______ _______ _____ _____    ______ ____

>  <TORSDO>
F 5

$$$$
=
 OpenBabel11052422103D

 25 29  0  0  1  0  0  0  0  0999 V2000
  161.3080  205.4890  151.7000 C   0  0  0  0  0  0  0  0  0  0  0  0
  161.3030  204.8180  150.4540 C   0  0  0  0  0  0  0  0  0  0  0  0
  160.8470  203.3900  152.8280 C   0  0  0  0  0  3  0  0  0  0  0  0
  160.8330  202.7280  151.6020 C   0  0  0  0  0  3  0  0  0  0  0  0
  161.0850  204.7630  152.8760 C   0  0  0  0  0  3  0  0  0  0  0  0
  161.0620  203.4300  150.4150 C   0  0  0  0  0  0  0  0  0  0  0  0
  161.5580  206.9400  151.8040 C   0  0  0  0  0  0  0  0  0  0  0  0
  162.0580  209.6990  151.9170 C   0  0  0  0  0  3  0  0  0  0  0  0
  161.1640  207.6880  152.9340 C   0  0  0  0  0  0  0  0  0  0  0  0
  161.4170  209.0620  152.9810 C   0  0  0  0  0  3  0  0  0  0  0  0
  162.4590  208.9630  150.8000 C   0  0  0  0  0  3  0  0  0  0  0  0
  160.5090  207.0460  154.1110 C   0  0  0  0  0  1  0  0  0  0  0  0
  162.2130  207.5890  150.7470 C   0  0  0  0  0  3  0  0  0  0  0  0
  161.0540  202.7190  149.1790 N   0  0  0  0  0  0  0  0  0  0  0  0
  161.0500  201.4570  148.3840 C   0  0  0  0  0  2  0  0  0  0  0  0
  161.0430  202.6470  147.6880 C   0  0  0  0  0  2  0  0  0  0  0  0
  161.6190  205.5550  149.1860 C   0  0  0  0  0  2  0  0  0  0  0  0
  160.7610  207.3170  147.6280 C   0  0  2  0  0  3  0  0  0  0  0  0
  160.0900  206.0420  147.2660 C   0  0  1  0  0  3  0  0  0  0  0  0
  161.0290  206.6790  146.3290 N   0  0  0  0  0  0  0  0  0  0  0  0
  160.4000  206.3330  148.7170 C   0  0  1  0  0  3  0  0  0  0  0  0
  163.9070  204.2600  145.6720 C   0  0  0  0  0  1  0  0  0  0  0  0
  162.5740  204.9100  145.5720 C   0  0  0  0  0  0  0  0  0  0  0  0
  161.7100  204.4710  144.7170 N   0  0  0  0  0  2  0  0  0  0  0  0
  162.2610  206.0120  146.4220 N   0  0  0  0  0  2  0  0  0  0  0  0
  1  7  1  0  0  0  0
  1  5  1  0  0  0  0
  2  1  2  0  0  0  0
  3  5  2  0  0  0  0
  4  3  1  0  0  0  0
  6  2  1  0  0  0  0
  6  4  2  0  0  0  0
  7  9  1  0  0  0  0
  8 10  1  0  0  0  0
  9 10  2  0  0  0  0
  9 12  1  0  0  0  0
 11  8  2  0  0  0  0
 13 11  1  0  0  0  0
 13  7  2  0  0  0  0
 14  6  1  0  0  0  0
 15 14  1  0  0  0  0
 16 15  1  0  0  0  0
 16 14  1  0  0  0  0
 17  2  1  0  0  0  0
 18 20  1  6  0  0  0
 18 21  1  0  0  0  0
 19 20  1  6  0  0  0
 19 18  1  0  0  0  0
 19 21  1  0  0  0  0
 20 25  1  0  0  0  0
 21 17  1  6  0  0  0
 23 22  1  0  0  0  0
 23 25  1  0  0  0  0
 24 23  2  0  0  0  0
M  END
>  <MODEL>
5

>  <REMARK>
 VINA RESULT:      -7.2      2.867      6.090
  Name = 
  5 active torsions:
  status: ('A' for Active; 'I' for Inactive)
    1  A    between atoms: C_1  and  C_5
    2  A    between atoms: C_3  and  C_16
    3  A    between atoms: N_13  and  C_24
    4  A    between atoms: N_15  and  N_25
    5  A    between atoms: C_16  and  C_23
                            x       y       z     vdW  Elec       q    Type
                         _______ _______ _______ _____ _____    ______ ____

>  <TORSDO>
F 5

$$$$
=
 OpenBabel11052422103D

 25 29  0  0  1  0  0  0  0  0999 V2000
  161.4020  207.7660  151.0480 C   0  0  0  0  0  0  0  0  0  0  0  0
  160.9460  208.7130  151.9940 C   0  0  0  0  0  0  0  0  0  0  0  0
  162.3110  209.5630  149.6920 C   0  0  0  0  0  3  0  0  0  0  0  0
  161.8550  210.5000  150.6190 C   0  0  0  0  0  3  0  0  0  0  0  0
  162.0880  208.2040  149.9080 C   0  0  0  0  0  3  0  0  0  0  0  0
  161.1760  210.0850  151.7680 C   0  0  0  0  0  0  0  0  0  0  0  0
  161.1930  206.3160  151.2310 C   0  0  0  0  0  0  0  0  0  0  0  0
  160.8120  203.5700  151.6650 C   0  0  0  0  0  3  0  0  0  0  0  0
  160.6640  205.5010  150.2060 C   0  0  0  0  0  0  0  0  0  0  0  0
  160.4770  204.1340  150.4320 C   0  0  0  0  0  3  0  0  0  0  0  0
  161.3450  204.3690  152.6780 C   0  0  0  0  0  3  0  0  0  0  0  0
  160.3250  206.0520  148.8610 C   0  0  0  0  0  1  0  0  0  0  0  0
  161.5370  205.7360  152.4600 C   0  0  0  0  0  3  0  0  0  0  0  0
  160.7350  211.0690  152.7020 N   0  0  0  0  0  0  0  0  0  0  0  0
  159.8520  212.2020  153.1050 C   0  0  0  0  0  2  0  0  0  0  0  0
  160.7860  211.7670  154.0210 C   0  0  0  0  0  2  0  0  0  0  0  0
  160.2810  208.2690  153.2630 C   0  0  0  0  0  2  0  0  0  0  0  0
  161.3980  208.8530  155.4260 C   0  0  2  0  0  3  0  0  0  0  0  0
  160.6960  207.5590  155.6260 C   0  0  1  0  0  3  0  0  0  0  0  0
  160.2560  208.7620  156.3500 N   0  0  0  0  0  0  0  0  0  0  0  0
  161.3290  207.8630  154.2870 C   0  0  1  0  0  3  0  0  0  0  0  0
  157.3420  211.0280  155.3810 C   0  0  0  0  0  1  0  0  0  0  0  0
  158.5070  210.4880  156.1300 C   0  0  0  0  0  0  0  0  0  0  0  0
  158.9460  211.1170  157.1700 N   0  0  0  0  0  2  0  0  0  0  0  0
  159.1290  209.2800  155.6940 N   0  0  0  0  0  2  0  0  0  0  0  0
  1  7  1  0  0  0  0
  1  2  1  0  0  0  0
  2 17  1  0  0  0  0
  3  5  1  0  0  0  0
  3  4  2  0  0  0  0
  4  6  1  0  0  0  0
  5  1  2  0  0  0  0
  6  2  2  0  0  0  0
  6 14  1  0  0  0  0
  7 13  1  0  0  0  0
  8 11  1  0  0  0  0
  9 10  1  0  0  0  0
  9  7  2  0  0  0  0
 10  8  2  0  0  0  0
 12  9  1  0  0  0  0
 13 11  2  0  0  0  0
 14 15  1  0  0  0  0
 14 16  1  0  0  0  0
 15 16  1  0  0  0  0
 18 19  1  0  0  0  0
 18 20  1  6  0  0  0
 19 20  1  6  0  0  0
 21 17  1  6  0  0  0
 21 18  1  0  0  0  0
 21 19  1  0  0  0  0
 22 23  1  0  0  0  0
 23 24  2  0  0  0  0
 25 23  1  0  0  0  0
 25 20  1  0  0  0  0
M  END
>  <MODEL>
6

>  <REMARK>
 VINA RESULT:      -7.1      1.887      4.720
  Name = 
  5 active torsions:
  status: ('A' for Active; 'I' for Inactive)
    1  A    between atoms: C_1  and  C_5
    2  A    between atoms: C_3  and  C_16
    3  A    between atoms: N_13  and  C_24
    4  A    between atoms: N_15  and  N_25
    5  A    between atoms: C_16  and  C_23
                            x       y       z     vdW  Elec       q    Type
                         _______ _______ _______ _____ _____    ______ ____

>  <TORSDO>
F 5

$$$$
=
 OpenBabel11052422103D

 25 29  0  0  1  0  0  0  0  0999 V2000
  161.0380  203.7020  150.3420 C   0  0  0  0  0  0  0  0  0  0  0  0
  161.0410  205.1140  150.4230 C   0  0  0  0  0  0  0  0  0  0  0  0
  161.1970  203.5650  152.7600 C   0  0  0  0  0  3  0  0  0  0  0  0
  161.2090  204.9560  152.8430 C   0  0  0  0  0  3  0  0  0  0  0  0
  161.1100  202.9410  151.5160 C   0  0  0  0  0  3  0  0  0  0  0  0
  161.1290  205.7350  151.6850 C   0  0  0  0  0  0  0  0  0  0  0  0
  160.9450  202.9940  149.0490 C   0  0  0  0  0  0  0  0  0  0  0  0
  160.8320  201.7030  146.5610 C   0  0  0  0  0  3  0  0  0  0  0  0
  160.1810  201.8180  148.8930 C   0  0  0  0  0  0  0  0  0  0  0  0
  160.1310  201.1810  147.6500 C   0  0  0  0  0  3  0  0  0  0  0  0
  161.5820  202.8710  146.7060 C   0  0  0  0  0  3  0  0  0  0  0  0
  159.3850  201.2430  150.0180 C   0  0  0  0  0  1  0  0  0  0  0  0
  161.6350  203.5150  147.9450 C   0  0  0  0  0  3  0  0  0  0  0  0
  161.1300  207.1560  151.8070 N   0  0  0  0  0  0  0  0  0  0  0  0
  161.8230  208.4770  151.8250 C   0  0  0  0  0  2  0  0  0  0  0  0
  160.4570  208.4720  152.0120 C   0  0  0  0  0  2  0  0  0  0  0  0
  160.8840  205.9520  149.1900 C   0  0  0  0  0  2  0  0  0  0  0  0
  162.7270  206.6370  147.6390 C   0  0  2  0  0  3  0  0  0  0  0  0
  161.8880  207.8380  147.8880 C   0  0  1  0  0  3  0  0  0  0  0  0
  161.9470  207.2380  146.5450 N   0  0  0  0  0  0  0  0  0  0  0  0
  162.1040  206.8390  149.0020 C   0  0  1  0  0  3  0  0  0  0  0  0
  159.3500  204.9000  145.0110 C   0  0  0  0  0  1  0  0  0  0  0  0
  160.5630  205.7480  145.1480 C   0  0  0  0  0  0  0  0  0  0  0  0
  161.4000  205.8320  144.1660 N   0  0  0  0  0  2  0  0  0  0  0  0
  160.7920  206.4610  146.3620 N   0  0  0  0  0  2  0  0  0  0  0  0
  1  2  2  0  0  0  0
  1  5  1  0  0  0  0
  2  6  1  0  0  0  0
  3  4  1  0  0  0  0
  5  3  2  0  0  0  0
  6 14  1  0  0  0  0
  6  4  2  0  0  0  0
  7  1  1  0  0  0  0
  8 11  2  0  0  0  0
  8 10  1  0  0  0  0
  9  7  1  0  0  0  0
  9 12  1  0  0  0  0
 10  9  2  0  0  0  0
 11 13  1  0  0  0  0
 13  7  2  0  0  0  0
 14 15  1  0  0  0  0
 14 16  1  0  0  0  0
 15 16  1  0  0  0  0
 17  2  1  0  0  0  0
 18 20  1  6  0  0  0
 18 19  1  0  0  0  0
 18 21  1  0  0  0  0
 19 20  1  6  0  0  0
 19 21  1  0  0  0  0
 21 17  1  6  0  0  0
 22 23  1  0  0  0  0
 23 25  1  0  0  0  0
 24 23  2  0  0  0  0
 25 20  1  0  0  0  0
M  END
>  <MODEL>
7

>  <REMARK>
 VINA RESULT:      -6.9      2.731      4.498
  Name = 
  5 active torsions:
  status: ('A' for Active; 'I' for Inactive)
    1  A    between atoms: C_1  and  C_5
    2  A    between atoms: C_3  and  C_16
    3  A    between atoms: N_13  and  C_24
    4  A    between atoms: N_15  and  N_25
    5  A    between atoms: C_16  and  C_23
                            x       y       z     vdW  Elec       q    Type
                         _______ _______ _______ _____ _____    ______ ____

>  <TORSDO>
F 5

$$$$
=
 OpenBabel11052422103D

 25 29  0  0  1  0  0  0  0  0999 V2000
  161.2150  204.5080  151.2940 C   0  0  0  0  0  0  0  0  0  0  0  0
  161.5870  205.8300  150.9560 C   0  0  0  0  0  0  0  0  0  0  0  0
  160.8340  205.2050  153.5880 C   0  0  0  0  0  3  0  0  0  0  0  0
  161.2090  206.5070  153.2600 C   0  0  0  0  0  3  0  0  0  0  0  0
  160.8360  204.2110  152.6090 C   0  0  0  0  0  3  0  0  0  0  0  0
  161.5820  206.8270  151.9520 C   0  0  0  0  0  0  0  0  0  0  0  0
  161.1980  203.4220  150.2940 C   0  0  0  0  0  0  0  0  0  0  0  0
  161.1520  201.4180  148.3310 C   0  0  0  0  0  3  0  0  0  0  0  0
  161.5650  202.0980  150.6210 C   0  0  0  0  0  0  0  0  0  0  0  0
  161.5390  201.1070  149.6360 C   0  0  0  0  0  3  0  0  0  0  0  0
  160.7790  202.7230  148.0040 C   0  0  0  0  0  3  0  0  0  0  0  0
  161.9500  201.7100  152.0100 C   0  0  0  0  0  1  0  0  0  0  0  0
  160.7990  203.7190  148.9840 C   0  0  0  0  0  3  0  0  0  0  0  0
  161.9460  208.1720  151.6480 N   0  0  0  0  0  0  0  0  0  0  0  0
  162.2410  209.5800  152.0430 C   0  0  0  0  0  2  0  0  0  0  0  0
  162.3270  209.2650  150.7040 C   0  0  0  0  0  2  0  0  0  0  0  0
  161.9190  206.1930  149.5400 C   0  0  0  0  0  2  0  0  0  0  0  0
  161.2650  207.7020  147.6510 C   0  0  2  0  0  3  0  0  0  0  0  0
  160.3350  206.5440  147.6350 C   0  0  1  0  0  3  0  0  0  0  0  0
  161.2830  206.7500  146.5290 N   0  0  0  0  0  0  0  0  0  0  0  0
  160.8300  207.0810  148.9590 C   0  0  1  0  0  3  0  0  0  0  0  0
  163.8340  203.9590  146.0100 C   0  0  0  0  0  1  0  0  0  0  0  0
  162.6460  204.8260  145.8000 C   0  0  0  0  0  0  0  0  0  0  0  0
  161.8710  204.6160  144.7860 N   0  0  0  0  0  2  0  0  0  0  0  0
  162.3710  205.8840  146.7180 N   0  0  0  0  0  2  0  0  0  0  0  0
  1  5  1  0  0  0  0
  2  1  2  0  0  0  0
  2  6  1  0  0  0  0
  4  3  1  0  0  0  0
  5  3  2  0  0  0  0
  6  4  2  0  0  0  0
  7  9  1  0  0  0  0
  7  1  1  0  0  0  0
  8 10  1  0  0  0  0
  9 12  1  0  0  0  0
 10  9  2  0  0  0  0
 11  8  2  0  0  0  0
 11 13  1  0  0  0  0
 13  7  2  0  0  0  0
 14  6  1  0  0  0  0
 14 15  1  0  0  0  0
 16 14  1  0  0  0  0
 16 15  1  0  0  0  0
 17  2  1  0  0  0  0
 18 20  1  6  0  0  0
 18 21  1  0  0  0  0
 19 20  1  6  0  0  0
 19 18  1  0  0  0  0
 19 21  1  0  0  0  0
 20 25  1  0  0  0  0
 21 17  1  6  0  0  0
 23 22  1  0  0  0  0
 23 25  1  0  0  0  0
 24 23  2  0  0  0  0
M  END
>  <MODEL>
8

>  <REMARK>
 VINA RESULT:      -6.9      2.712      4.974
  Name = 
  5 active torsions:
  status: ('A' for Active; 'I' for Inactive)
    1  A    between atoms: C_1  and  C_5
    2  A    between atoms: C_3  and  C_16
    3  A    between atoms: N_13  and  C_24
    4  A    between atoms: N_15  and  N_25
    5  A    between atoms: C_16  and  C_23
                            x       y       z     vdW  Elec       q    Type
                         _______ _______ _______ _____ _____    ______ ____

>  <TORSDO>
F 5

$$$$
=
 OpenBabel11052422103D

 25 29  0  0  1  0  0  0  0  0999 V2000
  161.6190  210.0890  151.3080 C   0  0  0  0  0  0  0  0  0  0  0  0
  161.3420  208.7720  150.8720 C   0  0  0  0  0  0  0  0  0  0  0  0
  162.2690  210.6970  149.0490 C   0  0  0  0  0  3  0  0  0  0  0  0
  162.0050  209.3970  148.6190 C   0  0  0  0  0  3  0  0  0  0  0  0
  162.0740  211.0410  150.3870 C   0  0  0  0  0  3  0  0  0  0  0  0
  161.5410  208.4340  149.5190 C   0  0  0  0  0  0  0  0  0  0  0  0
  161.4270  210.5040  152.7120 C   0  0  0  0  0  0  0  0  0  0  0  0
  161.1450  211.2640  155.3980 C   0  0  0  0  0  3  0  0  0  0  0  0
  160.2960  211.2390  153.1280 C   0  0  0  0  0  0  0  0  0  0  0  0
  160.1640  211.6140  154.4680 C   0  0  0  0  0  3  0  0  0  0  0  0
  162.2610  210.5290  154.9950 C   0  0  0  0  0  3  0  0  0  0  0  0
  159.2040  211.6040  152.1770 C   0  0  0  0  0  1  0  0  0  0  0  0
  162.3990  210.1480  153.6580 C   0  0  0  0  0  3  0  0  0  0  0  0
  161.2680  207.1180  149.0420 N   0  0  0  0  0  0  0  0  0  0  0  0
  161.6770  205.8420  148.3870 C   0  0  0  0  0  2  0  0  0  0  0  0
  160.3690  205.9500  148.8070 C   0  0  0  0  0  2  0  0  0  0  0  0
  160.7760  207.7560  151.8190 C   0  0  0  0  0  2  0  0  0  0  0  0
  162.2950  206.4800  153.3470 C   0  0  2  0  0  3  0  0  0  0  0  0
  161.2050  205.5580  152.9360 C   0  0  1  0  0  3  0  0  0  0  0  0
  161.3260  205.9880  154.3380 N   0  0  0  0  0  0  0  0  0  0  0  0
  161.7280  206.5770  151.9490 C   0  0  1  0  0  3  0  0  0  0  0  0
  159.1590  208.6040  156.0770 C   0  0  0  0  0  1  0  0  0  0  0  0
  160.1260  207.4920  155.8830 C   0  0  0  0  0  0  0  0  0  0  0  0
  160.7210  206.9750  156.9070 N   0  0  0  0  0  2  0  0  0  0  0  0
  160.3880  207.0070  154.5670 N   0  0  0  0  0  2  0  0  0  0  0  0
  1  7  1  0  0  0  0
  2  1  1  0  0  0  0
  2 17  1  0  0  0  0
  3  5  1  0  0  0  0
  4  3  2  0  0  0  0
  4  6  1  0  0  0  0
  5  1  2  0  0  0  0
  6  2  2  0  0  0  0
  7  9  2  0  0  0  0
  7 13  1  0  0  0  0
  9 10  1  0  0  0  0
 10  8  2  0  0  0  0
 11  8  1  0  0  0  0
 12  9  1  0  0  0  0
 13 11  2  0  0  0  0
 14  6  1  0  0  0  0
 15 16  1  0  0  0  0
 15 14  1  0  0  0  0
 16 14  1  0  0  0  0
 18 20  1  1  0  0  0
 19 18  1  0  0  0  0
 19 20  1  1  0  0  0
 20 25  1  0  0  0  0
 21 17  1  1  0  0  0
 21 19  1  0  0  0  0
 21 18  1  0  0  0  0
 23 22  1  0  0  0  0
 23 24  2  0  0  0  0
 25 23  1  0  0  0  0
M  END
>  <MODEL>
9

>  <REMARK>
 VINA RESULT:      -6.8      2.201      6.542
  Name = 
  5 active torsions:
  status: ('A' for Active; 'I' for Inactive)
    1  A    between atoms: C_1  and  C_5
    2  A    between atoms: C_3  and  C_16
    3  A    between atoms: N_13  and  C_24
    4  A    between atoms: N_15  and  N_25
    5  A    between atoms: C_16  and  C_23
                            x       y       z     vdW  Elec       q    Type
                         _______ _______ _______ _____ _____    ______ ____

>  <TORSDO>
F 5

$$$$
