=
 OpenBabel11052423093D

 27 30  0  0  1  0  0  0  0  0999 V2000
  160.8940  205.2660  148.7380 C   0  0  1  0  0  3  0  0  0  0  0  0
  160.9950  206.1780  149.9340 C   0  0  0  0  0  0  0  0  0  0  0  0
  161.3050  208.8700  153.2830 C   0  0  0  0  0  2  0  0  0  0  0  0
  160.1870  209.1540  155.4990 O   0  0  0  0  0  1  0  0  0  0  0  0
  161.0620  207.5610  149.7270 C   0  0  0  0  0  3  0  0  0  0  0  0
  161.1810  205.9980  153.7280 C   0  0  0  0  0  2  0  0  0  0  0  0
  160.6220  206.9730  154.7260 C   0  0  0  0  0  3  0  0  0  0  0  0
  161.0210  205.6730  151.2430 C   0  0  0  0  0  3  0  0  0  0  0  0
  160.6880  208.2950  154.5300 C   0  0  0  0  0  0  0  0  0  0  0  0
  161.1750  207.9320  152.1170 C   0  0  0  0  0  0  0  0  0  0  0  0
  161.1050  206.5440  152.3320 C   0  0  0  0  0  0  0  0  0  0  0  0
  161.1570  208.4360  150.8130 C   0  0  0  0  0  3  0  0  0  0  0  0
  161.6890  205.6760  147.4650 C   0  0  2  0  0  0  0  0  0  0  0  0
  163.1000  203.7810  147.1740 O   0  0  0  0  0  0  0  0  0  0  0  0
  160.9370  202.8980  145.4230 O   0  0  0  0  0  1  0  0  0  0  0  0
  160.8800  205.1540  144.6250 C   0  0  0  0  0  2  0  0  0  0  0  0
  162.8800  206.5320  147.8760 C   0  0  0  0  0  1  0  0  0  0  0  0
  161.6890  204.0680  145.3270 C   0  0  1  0  0  3  0  0  0  0  0  0
  159.9550  205.8550  145.5990 C   0  0  0  0  0  2  0  0  0  0  0  0
  160.8130  206.6020  146.6050 C   0  0  0  0  0  2  0  0  0  0  0  0
  162.2120  204.4670  146.6870 C   0  0  0  0  0  0  0  0  0  0  0  0
  160.9370  201.0950  149.8110 C   0  0  0  0  0  3  0  0  0  0  0  0
  160.8990  203.8040  149.0950 C   0  0  0  0  0  0  0  0  0  0  0  0
  160.3200  202.8430  148.2540 C   0  0  0  0  0  3  0  0  0  0  0  0
  160.3390  201.4920  148.6110 C   0  0  0  0  0  3  0  0  0  0  0  0
  161.5190  202.0490  150.6510 C   0  0  0  0  0  3  0  0  0  0  0  0
  161.5000  203.4000  150.2920 C   0  0  0  0  0  3  0  0  0  0  0  0
  1 23  1  1  0  0  0
  1  2  1  0  0  0  0
  2  8  1  0  0  0  0
  3  9  1  0  0  0  0
  5  2  2  0  0  0  0
  5 12  1  0  0  0  0
  6  7  1  0  0  0  0
  8 11  2  0  0  0  0
  9  7  2  0  0  0  0
  9  4  1  0  0  0  0
 10 11  1  0  0  0  0
 10  3  1  0  0  0  0
 11  6  1  0  0  0  0
 12 10  2  0  0  0  0
 13 17  1  1  0  0  0
 13  1  1  0  0  0  0
 16 18  1  0  0  0  0
 16 19  1  0  0  0  0
 18 15  1  1  0  0  0
 18 21  1  0  0  0  0
 19 20  1  0  0  0  0
 20 13  1  0  0  0  0
 21 14  2  0  0  0  0
 21 13  1  0  0  0  0
 22 26  1  0  0  0  0
 23 27  1  0  0  0  0
 24 25  1  0  0  0  0
 24 23  2  0  0  0  0
 25 22  2  0  0  0  0
 27 26  2  0  0  0  0
M  END
>  <MODEL>
1

>  <REMARK>
 VINA RESULT:     -10.0      0.000      0.000
  Name = 
  3 active torsions:
  status: ('A' for Active; 'I' for Inactive)
    1  A    between atoms: C_1  and  C_15
    2  A    between atoms: C_2  and  C_15
    3  A    between atoms: C_9  and  C_15
                            x       y       z     vdW  Elec       q    Type
                         _______ _______ _______ _____ _____    ______ ____

>  <TORSDO>
F 3

$$$$
=
 OpenBabel11052423093D

 27 30  0  0  1  0  0  0  0  0999 V2000
  160.9070  205.0540  148.7050 C   0  0  1  0  0  3  0  0  0  0  0  0
  160.9160  205.6050  150.1080 C   0  0  0  0  0  0  0  0  0  0  0  0
  160.9330  207.0740  154.1570 C   0  0  0  0  0  2  0  0  0  0  0  0
  162.0210  208.9420  155.4100 O   0  0  0  0  0  1  0  0  0  0  0  0
  161.0680  204.7200  151.1810 C   0  0  0  0  0  3  0  0  0  0  0  0
  160.6010  208.9240  151.9360 C   0  0  0  0  0  2  0  0  0  0  0  0
  161.2760  209.3420  153.2130 C   0  0  0  0  0  3  0  0  0  0  0  0
  160.7760  206.9780  150.3590 C   0  0  0  0  0  3  0  0  0  0  0  0
  161.4200  208.4970  154.2410 C   0  0  0  0  0  0  0  0  0  0  0  0
  160.9490  206.5660  152.7440 C   0  0  0  0  0  0  0  0  0  0  0  0
  160.7980  207.4600  151.6690 C   0  0  0  0  0  0  0  0  0  0  0  0
  161.0810  205.1960  152.4960 C   0  0  0  0  0  3  0  0  0  0  0  0
  161.6830  205.8590  147.6220 C   0  0  2  0  0  0  0  0  0  0  0  0
  163.4740  204.3680  147.1360 O   0  0  0  0  0  0  0  0  0  0  0  0
  161.6640  203.4630  145.0310 O   0  0  0  0  0  1  0  0  0  0  0  0
  161.1920  205.7820  144.6650 C   0  0  0  0  0  2  0  0  0  0  0  0
  162.6400  206.8240  148.3100 C   0  0  0  0  0  1  0  0  0  0  0  0
  162.1610  204.7510  145.2350 C   0  0  1  0  0  3  0  0  0  0  0  0
  160.0780  206.0800  145.6480 C   0  0  0  0  0  2  0  0  0  0  0  0
  160.6940  206.7560  146.8610 C   0  0  0  0  0  2  0  0  0  0  0  0
  162.4980  204.9560  146.6930 C   0  0  0  0  0  0  0  0  0  0  0  0
  161.2280  200.7640  148.4820 C   0  0  0  0  0  3  0  0  0  0  0  0
  161.0280  203.5550  148.6460 C   0  0  0  0  0  0  0  0  0  0  0  0
  161.6340  202.8280  149.6810 C   0  0  0  0  0  3  0  0  0  0  0  0
  161.7340  201.4370  149.5990 C   0  0  0  0  0  3  0  0  0  0  0  0
  160.6200  201.4850  147.4490 C   0  0  0  0  0  3  0  0  0  0  0  0
  160.5210  202.8770  147.5320 C   0  0  0  0  0  3  0  0  0  0  0  0
  1 23  1  1  0  0  0
  1  2  1  0  0  0  0
  2  8  2  0  0  0  0
  2  5  1  0  0  0  0
  3  9  1  0  0  0  0
  5 12  2  0  0  0  0
  6  7  1  0  0  0  0
  7  9  2  0  0  0  0
  8 11  1  0  0  0  0
  9  4  1  0  0  0  0
 10  3  1  0  0  0  0
 11  6  1  0  0  0  0
 11 10  2  0  0  0  0
 12 10  1  0  0  0  0
 13 17  1  1  0  0  0
 13  1  1  0  0  0  0
 16 18  1  0  0  0  0
 16 19  1  0  0  0  0
 18 15  1  1  0  0  0
 18 21  1  0  0  0  0
 19 20  1  0  0  0  0
 20 13  1  0  0  0  0
 21 14  2  0  0  0  0
 21 13  1  0  0  0  0
 22 25  1  0  0  0  0
 23 24  1  0  0  0  0
 25 24  2  0  0  0  0
 26 27  1  0  0  0  0
 26 22  2  0  0  0  0
 27 23  2  0  0  0  0
M  END
>  <MODEL>
2

>  <REMARK>
 VINA RESULT:      -9.3      0.851      1.841
  Name = 
  3 active torsions:
  status: ('A' for Active; 'I' for Inactive)
    1  A    between atoms: C_1  and  C_15
    2  A    between atoms: C_2  and  C_15
    3  A    between atoms: C_9  and  C_15
                            x       y       z     vdW  Elec       q    Type
                         _______ _______ _______ _____ _____    ______ ____

>  <TORSDO>
F 3

$$$$
=
 OpenBabel11052423093D

 27 30  0  0  1  0  0  0  0  0999 V2000
  161.6310  208.4700  153.5990 C   0  0  1  0  0  3  0  0  0  0  0  0
  161.3860  207.5990  152.3940 C   0  0  0  0  0  0  0  0  0  0  0  0
  160.6750  205.2040  148.8850 C   0  0  0  0  0  2  0  0  0  0  0  0
  161.4890  203.0250  147.9750 O   0  0  0  0  0  1  0  0  0  0  0  0
  161.3720  208.1900  151.1250 C   0  0  0  0  0  3  0  0  0  0  0  0
  160.6880  203.9660  151.5180 C   0  0  0  0  0  2  0  0  0  0  0  0
  161.1240  203.2120  150.2920 C   0  0  0  0  0  3  0  0  0  0  0  0
  161.1750  206.2180  152.5160 C   0  0  0  0  0  3  0  0  0  0  0  0
  161.1090  203.7750  149.0780 C   0  0  0  0  0  0  0  0  0  0  0  0
  160.9450  206.0350  150.1070 C   0  0  0  0  0  0  0  0  0  0  0  0
  160.9600  205.4350  151.3790 C   0  0  0  0  0  0  0  0  0  0  0  0
  161.1480  207.4120  149.9840 C   0  0  0  0  0  3  0  0  0  0  0  0
  161.5350  210.0100  153.3940 C   0  0  2  0  0  0  0  0  0  0  0  0
  159.3600  210.2140  152.4500 O   0  0  0  0  0  0  0  0  0  0  0  0
  158.5910  210.6330  155.2350 O   0  0  0  0  0  1  0  0  0  0  0  0
  160.5440  212.0080  155.3980 C   0  0  0  0  0  2  0  0  0  0  0  0
  162.1760  210.3740  152.0610 C   0  0  0  0  0  1  0  0  0  0  0  0
  159.5050  211.3700  154.4820 C   0  0  1  0  0  3  0  0  0  0  0  0
  161.6470  211.0250  155.7350 C   0  0  0  0  0  2  0  0  0  0  0  0
  162.4010  210.7100  154.4540 C   0  0  0  0  0  2  0  0  0  0  0  0
  160.0900  210.5100  153.3850 C   0  0  0  0  0  0  0  0  0  0  0  0
  159.9800  206.9130  157.2600 C   0  0  0  0  0  3  0  0  0  0  0  0
  161.0360  207.9210  154.8680 C   0  0  0  0  0  0  0  0  0  0  0  0
  159.7210  207.4360  154.9100 C   0  0  0  0  0  3  0  0  0  0  0  0
  159.1950  206.9330  156.1030 C   0  0  0  0  0  3  0  0  0  0  0  0
  161.2920  207.3930  157.2230 C   0  0  0  0  0  3  0  0  0  0  0  0
  161.8180  207.8950  156.0280 C   0  0  0  0  0  3  0  0  0  0  0  0
  1  2  1  6  0  0  0
  1 23  1  0  0  0  0
  2  8  1  0  0  0  0
  3  9  1  0  0  0  0
  3 10  1  0  0  0  0
  4  9  1  0  0  0  0
  5  2  2  0  0  0  0
  7  6  1  0  0  0  0
  9  7  2  0  0  0  0
 10 11  1  0  0  0  0
 11  6  1  0  0  0  0
 11  8  2  0  0  0  0
 12 10  2  0  0  0  0
 12  5  1  0  0  0  0
 13 17  1  6  0  0  0
 13  1  1  0  0  0  0
 13 20  1  0  0  0  0
 14 21  2  0  0  0  0
 16 19  1  0  0  0  0
 18 15  1  1  0  0  0
 18 16  1  0  0  0  0
 20 19  1  0  0  0  0
 21 13  1  0  0  0  0
 21 18  1  0  0  0  0
 23 24  2  0  0  0  0
 23 27  1  0  0  0  0
 24 25  1  0  0  0  0
 25 22  2  0  0  0  0
 26 22  1  0  0  0  0
 27 26  2  0  0  0  0
M  END
>  <MODEL>
3

>  <REMARK>
 VINA RESULT:      -8.8      1.966      7.783
  Name = 
  3 active torsions:
  status: ('A' for Active; 'I' for Inactive)
    1  A    between atoms: C_1  and  C_15
    2  A    between atoms: C_2  and  C_15
    3  A    between atoms: C_9  and  C_15
                            x       y       z     vdW  Elec       q    Type
                         _______ _______ _______ _____ _____    ______ ____

>  <TORSDO>
F 3

$$$$
=
 OpenBabel11052423093D

 27 30  0  0  1  0  0  0  0  0999 V2000
  160.2080  209.0380  153.8800 C   0  0  1  0  0  3  0  0  0  0  0  0
  160.6010  207.7530  153.1960 C   0  0  0  0  0  0  0  0  0  0  0  0
  161.7510  204.0380  151.3440 C   0  0  0  0  0  2  0  0  0  0  0  0
  161.0040  202.6720  149.3900 O   0  0  0  0  0  1  0  0  0  0  0  0
  160.8320  206.6150  153.9770 C   0  0  0  0  0  3  0  0  0  0  0  0
  161.2890  206.4010  149.7100 C   0  0  0  0  0  2  0  0  0  0  0  0
  161.0170  205.0170  149.1870 C   0  0  0  0  0  3  0  0  0  0  0  0
  160.7400  207.6750  151.8020 C   0  0  0  0  0  3  0  0  0  0  0  0
  161.2400  203.9280  149.9320 C   0  0  0  0  0  0  0  0  0  0  0  0
  161.3290  205.3280  151.9870 C   0  0  0  0  0  0  0  0  0  0  0  0
  161.0960  206.4690  151.1970 C   0  0  0  0  0  0  0  0  0  0  0  0
  161.1990  205.4060  153.3770 C   0  0  0  0  0  3  0  0  0  0  0  0
  160.7680  209.2800  155.3110 C   0  0  2  0  0  0  0  0  0  0  0  0
  162.5180  210.8310  154.8640 O   0  0  0  0  0  0  0  0  0  0  0  0
  160.4340  212.7900  155.4500 O   0  0  0  0  0  1  0  0  0  0  0  0
  159.8170  211.3500  157.2600 C   0  0  0  0  0  2  0  0  0  0  0  0
  161.7820  208.1920  155.6390 C   0  0  0  0  0  1  0  0  0  0  0  0
  160.9050  211.7710  156.2780 C   0  0  1  0  0  3  0  0  0  0  0  0
  158.8620  210.3620  156.6230 C   0  0  0  0  0  2  0  0  0  0  0  0
  159.6340  209.0860  156.3320 C   0  0  0  0  0  2  0  0  0  0  0  0
  161.4600  210.6380  155.4460 C   0  0  0  0  0  0  0  0  0  0  0  0
  160.0740  212.4560  151.2620 C   0  0  0  0  0  3  0  0  0  0  0  0
  160.1800  210.2260  152.9570 C   0  0  0  0  0  0  0  0  0  0  0  0
  161.2310  210.4860  152.0650 C   0  0  0  0  0  3  0  0  0  0  0  0
  161.1780  211.5980  151.2200 C   0  0  0  0  0  3  0  0  0  0  0  0
  159.0230  212.2000  152.1480 C   0  0  0  0  0  3  0  0  0  0  0  0
  159.0760  211.0860  152.9920 C   0  0  0  0  0  3  0  0  0  0  0  0
  1 23  1  6  0  0  0
  1 13  1  0  0  0  0
  2  1  1  0  0  0  0
  2  5  1  0  0  0  0
  3 10  1  0  0  0  0
  4  9  1  0  0  0  0
  6 11  1  0  0  0  0
  7  6  1  0  0  0  0
  7  9  2  0  0  0  0
  8  2  2  0  0  0  0
  9  3  1  0  0  0  0
 10 12  1  0  0  0  0
 11  8  1  0  0  0  0
 11 10  2  0  0  0  0
 12  5  2  0  0  0  0
 13 21  1  0  0  0  0
 13 17  1  1  0  0  0
 13 20  1  0  0  0  0
 14 21  2  0  0  0  0
 18 15  1  6  0  0  0
 18 16  1  0  0  0  0
 19 16  1  0  0  0  0
 20 19  1  0  0  0  0
 21 18  1  0  0  0  0
 22 26  1  0  0  0  0
 23 27  1  0  0  0  0
 24 23  2  0  0  0  0
 25 22  2  0  0  0  0
 25 24  1  0  0  0  0
 26 27  2  0  0  0  0
M  END
>  <MODEL>
4

>  <REMARK>
 VINA RESULT:      -8.3      2.462      8.699
  Name = 
  3 active torsions:
  status: ('A' for Active; 'I' for Inactive)
    1  A    between atoms: C_1  and  C_15
    2  A    between atoms: C_2  and  C_15
    3  A    between atoms: C_9  and  C_15
                            x       y       z     vdW  Elec       q    Type
                         _______ _______ _______ _____ _____    ______ ____

>  <TORSDO>
F 3

$$$$
=
 OpenBabel11052423093D

 27 30  0  0  1  0  0  0  0  0999 V2000
  159.4310  210.4570  154.7190 C   0  0  1  0  0  3  0  0  0  0  0  0
  160.1960  209.6870  153.6730 C   0  0  0  0  0  0  0  0  0  0  0  0
  162.3850  207.4000  150.7520 C   0  0  0  0  0  2  0  0  0  0  0  0
  162.4270  207.1930  148.2630 O   0  0  0  0  0  1  0  0  0  0  0  0
  160.3850  208.3120  153.8480 C   0  0  0  0  0  3  0  0  0  0  0  0
  162.0130  210.2620  150.3830 C   0  0  0  0  0  2  0  0  0  0  0  0
  162.1180  209.3250  149.2110 C   0  0  0  0  0  3  0  0  0  0  0  0
  160.7190  210.3180  152.5330 C   0  0  0  0  0  3  0  0  0  0  0  0
  162.3020  208.0100  149.3780 C   0  0  0  0  0  0  0  0  0  0  0  0
  161.6030  208.1940  151.7590 C   0  0  0  0  0  0  0  0  0  0  0  0
  161.4150  209.5760  151.5760 C   0  0  0  0  0  0  0  0  0  0  0  0
  161.0890  207.5670  152.8980 C   0  0  0  0  0  3  0  0  0  0  0  0
  160.1380  210.6910  156.0860 C   0  0  2  0  0  0  0  0  0  0  0  0
  159.5340  208.7110  157.2610 O   0  0  0  0  0  0  0  0  0  0  0  0
  162.0850  207.7510  156.2140 O   0  0  0  0  0  1  0  0  0  0  0  0
  162.9460  209.9100  156.7850 C   0  0  0  0  0  2  0  0  0  0  0  0
  159.2300  211.5280  156.9780 C   0  0  0  0  0  1  0  0  0  0  0  0
  161.8580  208.8670  157.0180 C   0  0  1  0  0  3  0  0  0  0  0  0
  162.6370  210.7540  155.5660 C   0  0  0  0  0  2  0  0  0  0  0  0
  161.3850  211.5620  155.8610 C   0  0  0  0  0  2  0  0  0  0  0  0
  160.4530  209.3830  156.8130 C   0  0  0  0  0  0  0  0  0  0  0  0
  157.1290  213.7410  153.1480 C   0  0  0  0  0  3  0  0  0  0  0  0
  158.6440  211.6120  154.1610 C   0  0  0  0  0  0  0  0  0  0  0  0
  159.2600  212.6230  153.4090 C   0  0  0  0  0  3  0  0  0  0  0  0
  158.5050  213.6850  152.9050 C   0  0  0  0  0  3  0  0  0  0  0  0
  156.5090  212.7340  153.8950 C   0  0  0  0  0  3  0  0  0  0  0  0
  157.2660  211.6720  154.3990 C   0  0  0  0  0  3  0  0  0  0  0  0
  1  2  1  6  0  0  0
  1 13  1  0  0  0  0
  2  5  1  0  0  0  0
  3 10  1  0  0  0  0
  4  9  1  0  0  0  0
  6 11  1  0  0  0  0
  7  9  2  0  0  0  0
  7  6  1  0  0  0  0
  8  2  2  0  0  0  0
  9  3  1  0  0  0  0
 10 12  1  0  0  0  0
 11 10  2  0  0  0  0
 11  8  1  0  0  0  0
 12  5  2  0  0  0  0
 13 21  1  0  0  0  0
 13 17  1  1  0  0  0
 16 18  1  0  0  0  0
 18 15  1  6  0  0  0
 19 20  1  0  0  0  0
 19 16  1  0  0  0  0
 20 13  1  0  0  0  0
 21 18  1  0  0  0  0
 21 14  2  0  0  0  0
 22 26  1  0  0  0  0
 23 27  1  0  0  0  0
 23  1  1  0  0  0  0
 24 23  2  0  0  0  0
 25 22  2  0  0  0  0
 25 24  1  0  0  0  0
 26 27  2  0  0  0  0
M  END
>  <MODEL>
5

>  <REMARK>
 VINA RESULT:      -7.9      3.824      9.328
  Name = 
  3 active torsions:
  status: ('A' for Active; 'I' for Inactive)
    1  A    between atoms: C_1  and  C_15
    2  A    between atoms: C_2  and  C_15
    3  A    between atoms: C_9  and  C_15
                            x       y       z     vdW  Elec       q    Type
                         _______ _______ _______ _____ _____    ______ ____

>  <TORSDO>
F 3

$$$$
=
 OpenBabel11052423093D

 27 30  0  0  1  0  0  0  0  0999 V2000
  161.5900  204.8440  149.5410 C   0  0  1  0  0  3  0  0  0  0  0  0
  161.7130  206.1440  150.2940 C   0  0  0  0  0  0  0  0  0  0  0  0
  162.1190  209.9020  152.3590 C   0  0  0  0  0  2  0  0  0  0  0  0
  160.7510  211.2630  153.9450 O   0  0  0  0  0  1  0  0  0  0  0  0
  162.1580  207.2820  149.6110 C   0  0  0  0  0  3  0  0  0  0  0  0
  161.2070  207.5410  153.7940 C   0  0  0  0  0  2  0  0  0  0  0  0
  160.7500  208.9210  154.1790 C   0  0  0  0  0  3  0  0  0  0  0  0
  161.3920  206.2360  151.6570 C   0  0  0  0  0  3  0  0  0  0  0  0
  161.1770  210.0100  153.5280 C   0  0  0  0  0  0  0  0  0  0  0  0
  161.9560  208.5960  151.6350 C   0  0  0  0  0  0  0  0  0  0  0  0
  161.5060  207.4560  152.3250 C   0  0  0  0  0  0  0  0  0  0  0  0
  162.2840  208.5040  150.2790 C   0  0  0  0  0  3  0  0  0  0  0  0
  160.6840  203.7440  150.1670 C   0  0  2  0  0  0  0  0  0  0  0  0
  159.7790  202.7260  148.2150 O   0  0  0  0  0  0  0  0  0  0  0  0
  162.0460  200.9180  148.5510 O   0  0  0  0  0  1  0  0  0  0  0  0
  161.5210  200.9560  150.8870 C   0  0  0  0  0  2  0  0  0  0  0  0
  159.3300  204.3510  150.5110 C   0  0  0  0  0  1  0  0  0  0  0  0
  161.0250  201.1860  149.4630 C   0  0  1  0  0  3  0  0  0  0  0  0
  162.2700  202.1680  151.4030 C   0  0  0  0  0  2  0  0  0  0  0  0
  161.2810  203.3150  151.5180 C   0  0  0  0  0  2  0  0  0  0  0  0
  160.4560  202.5640  149.2200 C   0  0  0  0  0  0  0  0  0  0  0  0
  161.2970  205.3880  145.2780 C   0  0  0  0  0  3  0  0  0  0  0  0
  161.5030  205.0190  148.0480 C   0  0  0  0  0  0  0  0  0  0  0  0
  162.3330  204.3000  147.1770 C   0  0  0  0  0  3  0  0  0  0  0  0
  162.2310  204.4840  145.7950 C   0  0  0  0  0  3  0  0  0  0  0  0
  160.4650  206.1050  146.1430 C   0  0  0  0  0  3  0  0  0  0  0  0
  160.5680  205.9190  147.5250 C   0  0  0  0  0  3  0  0  0  0  0  0
  1 23  1  6  0  0  0
  1 13  1  0  0  0  0
  1  2  1  0  0  0  0
  2  8  1  0  0  0  0
  3  9  1  0  0  0  0
  5 12  1  0  0  0  0
  5  2  2  0  0  0  0
  6  7  1  0  0  0  0
  8 11  2  0  0  0  0
  9  4  1  0  0  0  0
  9  7  2  0  0  0  0
 10 11  1  0  0  0  0
 10  3  1  0  0  0  0
 11  6  1  0  0  0  0
 12 10  2  0  0  0  0
 13 17  1  1  0  0  0
 13 20  1  0  0  0  0
 14 21  2  0  0  0  0
 16 19  1  0  0  0  0
 18 15  1  6  0  0  0
 18 16  1  0  0  0  0
 19 20  1  0  0  0  0
 21 18  1  0  0  0  0
 21 13  1  0  0  0  0
 22 25  2  0  0  0  0
 22 26  1  0  0  0  0
 24 23  2  0  0  0  0
 25 24  1  0  0  0  0
 26 27  2  0  0  0  0
 27 23  1  0  0  0  0
M  END
>  <MODEL>
6

>  <REMARK>
 VINA RESULT:      -7.9      1.434      3.846
  Name = 
  3 active torsions:
  status: ('A' for Active; 'I' for Inactive)
    1  A    between atoms: C_1  and  C_15
    2  A    between atoms: C_2  and  C_15
    3  A    between atoms: C_9  and  C_15
                            x       y       z     vdW  Elec       q    Type
                         _______ _______ _______ _____ _____    ______ ____

>  <TORSDO>
F 3

$$$$
=
 OpenBabel11052423093D

 27 30  0  0  1  0  0  0  0  0999 V2000
  160.4380  209.5500  153.1770 C   0  0  1  0  0  3  0  0  0  0  0  0
  160.8300  208.4730  152.1990 C   0  0  0  0  0  0  0  0  0  0  0  0
  161.9560  205.3210  149.4880 C   0  0  0  0  0  2  0  0  0  0  0  0
  161.4510  204.6870  147.1250 O   0  0  0  0  0  1  0  0  0  0  0  0
  160.8170  207.1390  152.6210 C   0  0  0  0  0  3  0  0  0  0  0  0
  162.0030  208.0920  148.6020 C   0  0  0  0  0  2  0  0  0  0  0  0
  161.7070  206.9670  147.6500 C   0  0  0  0  0  3  0  0  0  0  0  0
  161.2070  208.7780  150.8820 C   0  0  0  0  0  3  0  0  0  0  0  0
  161.6960  205.6900  148.0510 C   0  0  0  0  0  0  0  0  0  0  0  0
  161.5430  206.4190  150.4260 C   0  0  0  0  0  0  0  0  0  0  0  0
  161.5570  207.7580  149.9960 C   0  0  0  0  0  0  0  0  0  0  0  0
  161.1760  206.1140  151.7400 C   0  0  0  0  0  3  0  0  0  0  0  0
  161.3140  209.7030  154.4540 C   0  0  2  0  0  0  0  0  0  0  0  0
  160.8300  211.9480  155.0790 O   0  0  0  0  0  0  0  0  0  0  0  0
  158.8020  210.6620  156.7400 O   0  0  0  0  0  1  0  0  0  0  0  0
  160.4890  209.0440  157.2600 C   0  0  0  0  0  2  0  0  0  0  0  0
  162.7270  210.0950  154.0430 C   0  0  0  0  0  1  0  0  0  0  0  0
  160.1810  210.4510  156.7590 C   0  0  1  0  0  3  0  0  0  0  0  0
  160.3720  208.0310  156.1390 C   0  0  0  0  0  2  0  0  0  0  0  0
  161.4640  208.3280  155.1250 C   0  0  0  0  0  2  0  0  0  0  0  0
  160.7770  210.7720  155.4080 C   0  0  0  0  0  0  0  0  0  0  0  0
  159.1790  213.1970  151.2610 C   0  0  0  0  0  3  0  0  0  0  0  0
  159.9790  210.8240  152.5180 C   0  0  0  0  0  0  0  0  0  0  0  0
  158.7060  211.3570  152.7620 C   0  0  0  0  0  3  0  0  0  0  0  0
  158.3070  212.5410  152.1350 C   0  0  0  0  0  3  0  0  0  0  0  0
  160.4510  212.6700  151.0170 C   0  0  0  0  0  3  0  0  0  0  0  0
  160.8500  211.4870  151.6450 C   0  0  0  0  0  3  0  0  0  0  0  0
  1  2  1  6  0  0  0
  1 13  1  0  0  0  0
  2  5  1  0  0  0  0
  3 10  1  0  0  0  0
  4  9  1  0  0  0  0
  6 11  1  0  0  0  0
  7  9  2  0  0  0  0
  7  6  1  0  0  0  0
  8  2  2  0  0  0  0
  9  3  1  0  0  0  0
 10 12  1  0  0  0  0
 11 10  2  0  0  0  0
 11  8  1  0  0  0  0
 12  5  2  0  0  0  0
 13 17  1  6  0  0  0
 13 20  1  0  0  0  0
 13 21  1  0  0  0  0
 14 21  2  0  0  0  0
 18 15  1  6  0  0  0
 18 16  1  0  0  0  0
 19 16  1  0  0  0  0
 20 19  1  0  0  0  0
 21 18  1  0  0  0  0
 22 25  1  0  0  0  0
 23 24  1  0  0  0  0
 23  1  1  0  0  0  0
 25 24  2  0  0  0  0
 26 22  2  0  0  0  0
 26 27  1  0  0  0  0
 27 23  2  0  0  0  0
M  END
>  <MODEL>
7

>  <REMARK>
 VINA RESULT:      -7.7      2.437      8.752
  Name = 
  3 active torsions:
  status: ('A' for Active; 'I' for Inactive)
    1  A    between atoms: C_1  and  C_15
    2  A    between atoms: C_2  and  C_15
    3  A    between atoms: C_9  and  C_15
                            x       y       z     vdW  Elec       q    Type
                         _______ _______ _______ _____ _____    ______ ____

>  <TORSDO>
F 3

$$$$
=
 OpenBabel11052423093D

 27 30  0  0  1  0  0  0  0  0999 V2000
  160.3380  209.0020  152.8130 C   0  0  1  0  0  3  0  0  0  0  0  0
  160.8240  208.4810  151.4850 C   0  0  0  0  0  0  0  0  0  0  0  0
  162.2550  207.0940  147.6660 C   0  0  0  0  0  2  0  0  0  0  0  0
  163.2060  204.9780  146.7390 O   0  0  0  0  0  1  0  0  0  0  0  0
  161.6940  209.2720  150.7250 C   0  0  0  0  0  3  0  0  0  0  0  0
  160.4360  205.4460  149.2280 C   0  0  0  0  0  2  0  0  0  0  0  0
  161.4660  204.8360  148.3180 C   0  0  0  0  0  3  0  0  0  0  0  0
  160.4260  207.2270  150.9970 C   0  0  0  0  0  3  0  0  0  0  0  0
  162.2960  205.5910  147.5890 C   0  0  0  0  0  0  0  0  0  0  0  0
  161.7730  207.5670  149.0080 C   0  0  0  0  0  0  0  0  0  0  0  0
  160.9010  206.7670  149.7680 C   0  0  0  0  0  0  0  0  0  0  0  0
  162.1640  208.8200  149.4880 C   0  0  0  0  0  3  0  0  0  0  0  0
  161.1630  208.6110  154.0740 C   0  0  2  0  0  0  0  0  0  0  0  0
  162.8860  210.2520  154.0230 O   0  0  0  0  0  0  0  0  0  0  0  0
  161.0590  211.6960  155.7830 O   0  0  0  0  0  1  0  0  0  0  0  0
  160.7020  209.5930  156.8690 C   0  0  0  0  0  2  0  0  0  0  0  0
  162.1560  207.5190  153.6990 C   0  0  0  0  0  1  0  0  0  0  0  0
  161.6140  210.4320  155.9810 C   0  0  1  0  0  3  0  0  0  0  0  0
  159.5920  208.9550  156.0580 C   0  0  0  0  0  2  0  0  0  0  0  0
  160.2250  207.9580  155.1020 C   0  0  0  0  0  2  0  0  0  0  0  0
  161.9440  209.7930  154.6520 C   0  0  0  0  0  0  0  0  0  0  0  0
  158.8300  213.0350  152.6820 C   0  0  0  0  0  3  0  0  0  0  0  0
  159.8270  210.4170  152.7540 C   0  0  0  0  0  0  0  0  0  0  0  0
  160.4970  211.4070  152.0210 C   0  0  0  0  0  3  0  0  0  0  0  0
  160.0000  212.7130  151.9860 C   0  0  0  0  0  3  0  0  0  0  0  0
  158.1580  212.0500  153.4110 C   0  0  0  0  0  3  0  0  0  0  0  0
  158.6550  210.7440  153.4460 C   0  0  0  0  0  3  0  0  0  0  0  0
  1  2  1  6  0  0  0
  1 13  1  0  0  0  0
  3 10  1  0  0  0  0
  4  9  1  0  0  0  0
  5  2  2  0  0  0  0
  6 11  1  0  0  0  0
  7  6  1  0  0  0  0
  8  2  1  0  0  0  0
  9  3  1  0  0  0  0
  9  7  2  0  0  0  0
 10 12  2  0  0  0  0
 10 11  1  0  0  0  0
 11  8  2  0  0  0  0
 12  5  1  0  0  0  0
 13 17  1  6  0  0  0
 13 21  1  0  0  0  0
 13 20  1  0  0  0  0
 14 21  2  0  0  0  0
 18 15  1  6  0  0  0
 18 16  1  0  0  0  0
 19 16  1  0  0  0  0
 20 19  1  0  0  0  0
 21 18  1  0  0  0  0
 22 26  1  0  0  0  0
 23  1  1  0  0  0  0
 23 27  1  0  0  0  0
 24 23  2  0  0  0  0
 25 24  1  0  0  0  0
 25 22  2  0  0  0  0
 26 27  2  0  0  0  0
M  END
>  <MODEL>
8

>  <REMARK>
 VINA RESULT:      -7.7      2.299      8.454
  Name = 
  3 active torsions:
  status: ('A' for Active; 'I' for Inactive)
    1  A    between atoms: C_1  and  C_15
    2  A    between atoms: C_2  and  C_15
    3  A    between atoms: C_9  and  C_15
                            x       y       z     vdW  Elec       q    Type
                         _______ _______ _______ _____ _____    ______ ____

>  <TORSDO>
F 3

$$$$
=
 OpenBabel11052423093D

 27 30  0  0  1  0  0  0  0  0999 V2000
  160.6830  209.4440  153.0050 C   0  0  1  0  0  3  0  0  0  0  0  0
  160.9110  208.0160  152.5800 C   0  0  0  0  0  0  0  0  0  0  0  0
  161.5890  203.9090  151.4710 C   0  0  0  0  0  2  0  0  0  0  0  0
  160.5880  202.2660  149.8770 O   0  0  0  0  0  1  0  0  0  0  0  0
  161.0910  207.0370  153.5640 C   0  0  0  0  0  3  0  0  0  0  0  0
  161.2300  205.9350  149.4130 C   0  0  0  0  0  2  0  0  0  0  0  0
  160.7990  204.5100  149.1990 C   0  0  0  0  0  3  0  0  0  0  0  0
  160.9450  207.6490  151.2260 C   0  0  0  0  0  3  0  0  0  0  0  0
  160.9730  203.5730  150.1380 C   0  0  0  0  0  0  0  0  0  0  0  0
  161.3310  205.3370  151.8570 C   0  0  0  0  0  0  0  0  0  0  0  0
  161.1480  206.3160  150.8630 C   0  0  0  0  0  0  0  0  0  0  0  0
  161.3050  205.7030  153.2060 C   0  0  0  0  0  3  0  0  0  0  0  0
  161.2020  209.8560  154.4130 C   0  0  2  0  0  0  0  0  0  0  0  0
  160.4050  212.0940  154.5600 O   0  0  0  0  0  0  0  0  0  0  0  0
  158.1350  210.8110  155.8750 O   0  0  0  0  0  1  0  0  0  0  0  0
  159.7610  209.4730  157.0140 C   0  0  0  0  0  2  0  0  0  0  0  0
  162.6380  210.3480  154.2900 C   0  0  0  0  0  1  0  0  0  0  0  0
  159.4790  210.7610  156.2480 C   0  0  1  0  0  3  0  0  0  0  0  0
  160.0050  208.3180  156.0640 C   0  0  0  0  0  2  0  0  0  0  0  0
  161.2870  208.6030  155.3010 C   0  0  0  0  0  2  0  0  0  0  0  0
  160.3640  210.9710  155.0420 C   0  0  0  0  0  0  0  0  0  0  0  0
  161.3010  212.2630  149.8070 C   0  0  0  0  0  3  0  0  0  0  0  0
  160.8830  210.4410  151.8950 C   0  0  0  0  0  0  0  0  0  0  0  0
  160.0450  211.5560  151.7530 C   0  0  0  0  0  3  0  0  0  0  0  0
  160.2530  212.4650  150.7120 C   0  0  0  0  0  3  0  0  0  0  0  0
  162.1410  211.1540  149.9460 C   0  0  0  0  0  3  0  0  0  0  0  0
  161.9320  210.2460  150.9890 C   0  0  0  0  0  3  0  0  0  0  0  0
  1 23  1  6  0  0  0
  1 13  1  0  0  0  0
  2  1  1  0  0  0  0
  2  5  1  0  0  0  0
  3 10  1  0  0  0  0
  4  9  1  0  0  0  0
  6 11  1  0  0  0  0
  7  6  1  0  0  0  0
  7  9  2  0  0  0  0
  8  2  2  0  0  0  0
  9  3  1  0  0  0  0
 10 12  1  0  0  0  0
 11  8  1  0  0  0  0
 11 10  2  0  0  0  0
 12  5  2  0  0  0  0
 13 17  1  6  0  0  0
 13 21  1  0  0  0  0
 13 20  1  0  0  0  0
 14 21  2  0  0  0  0
 18 15  1  6  0  0  0
 18 16  1  0  0  0  0
 19 16  1  0  0  0  0
 20 19  1  0  0  0  0
 21 18  1  0  0  0  0
 22 26  2  0  0  0  0
 22 25  1  0  0  0  0
 24 23  1  0  0  0  0
 25 24  2  0  0  0  0
 26 27  1  0  0  0  0
 27 23  2  0  0  0  0
M  END
>  <MODEL>
9

>  <REMARK>
 VINA RESULT:      -7.7      2.387      8.385
  Name = 
  3 active torsions:
  status: ('A' for Active; 'I' for Inactive)
    1  A    between atoms: C_1  and  C_15
    2  A    between atoms: C_2  and  C_15
    3  A    between atoms: C_9  and  C_15
                            x       y       z     vdW  Elec       q    Type
                         _______ _______ _______ _____ _____    ______ ____

>  <TORSDO>
F 3

$$$$
