=
 OpenBabel11062407563D

 34 39  0  0  1  0  0  0  0  0999 V2000
  161.0490  205.3300  151.3490 C   0  0  1  0  0  3  0  0  0  0  0  0
  161.8450  206.6630  149.2740 C   0  0  2  0  0  3  0  0  0  0  0  0
  161.4530  207.7030  151.6100 C   0  0  0  0  0  0  0  0  0  0  0  0
  161.4570  210.1030  151.7870 C   0  0  0  0  0  0  0  0  0  0  0  0
  160.6760  204.4350  149.0160 C   0  0  0  0  0  2  0  0  0  0  0  0
  160.6570  205.9340  148.6530 C   0  0  0  0  0  2  0  0  0  0  0  0
  161.8830  209.1670  149.7190 C   0  0  0  0  0  0  0  0  0  0  0  0
  161.8820  206.4990  150.8290 C   0  0  1  0  0  3  0  0  0  0  0  0
  161.7180  211.1130  150.9590 C   0  0  0  0  0  3  0  0  0  0  0  0
  161.1850  204.1190  150.4380 C   0  0  0  0  0  2  0  0  0  0  0  0
  161.6030  206.3250  153.6740 C   0  0  0  0  0  2  0  0  0  0  0  0
  161.3700  205.0440  152.8280 C   0  0  0  0  0  2  0  0  0  0  0  0
  162.0560  208.0890  148.6870 C   0  0  0  0  0  2  0  0  0  0  0  0
  161.2760  210.0740  153.2430 C   0  0  0  0  0  3  0  0  0  0  0  0
  161.0980  208.8810  153.8680 C   0  0  0  0  0  0  0  0  0  0  0  0
  161.9740  210.4940  149.6270 C   0  0  0  0  0  0  0  0  0  0  0  0
  161.5490  208.8850  151.0660 C   0  0  0  0  0  0  0  0  0  0  0  0
  160.9730  207.5790  153.0420 C   0  0  1  0  0  3  0  0  0  0  0  0
  160.0510  211.4600  156.1280 C   0  0  0  0  0  2  0  0  0  0  0  0
  161.0170  211.0680  157.2400 C   0  0  0  0  0  2  0  0  0  0  0  0
  160.8620  208.8620  155.2920 N   0  0  0  0  0  0  0  0  0  0  0  0
  162.2440  210.3820  156.6470 C   0  0  0  0  0  2  0  0  0  0  0  0
  159.5160  208.9480  155.8460 C   0  0  0  0  0  2  0  0  0  0  0  0
  161.9600  208.9350  156.2530 C   0  0  0  0  0  2  0  0  0  0  0  0
  158.9930  210.3890  155.8340 C   0  0  0  0  0  2  0  0  0  0  0  0
  162.2630  211.2500  148.3760 C   0  0  0  0  0  2  0  0  0  0  0  0
  162.0500  212.7310  148.6070 C   0  0  0  0  0  2  0  0  0  0  0  0
  160.7650  213.1660  147.9360 C   0  0  0  0  0  2  0  0  0  0  0  0
  160.4640  212.2390  146.7760 C   0  0  0  0  0  2  0  0  0  0  0  0
  160.1980  214.3940  145.2050 O   0  0  0  0  0  0  0  0  0  0  0  0
  160.3330  212.2160  144.0910 O   0  0  0  0  0  0  0  0  0  0  0  0
  160.8520  213.0420  145.2350 S   0  0  0  0  0  0  0  0  0  0  0  0
  162.9820  213.0600  143.7350 O   0  0  0  0  0  1  0  0  0  0  0  0
  162.6140  213.2350  145.0690 C   0  0  0  0  0  2  0  0  0  0  0  0
  1 10  1  6  0  0  0
  1 12  1  0  0  0  0
  2  6  1  1  0  0  0
  2  8  1  0  0  0  0
  3 18  1  0  0  0  0
  4 14  1  0  0  0  0
  5 10  1  0  0  0  0
  6  5  1  0  0  0  0
  7 17  1  0  0  0  0
  8  1  1  0  0  0  0
  8  3  1  1  0  0  0
  9  4  2  0  0  0  0
 12 11  1  0  0  0  0
 13  2  1  0  0  0  0
 13  7  1  0  0  0  0
 14 15  2  0  0  0  0
 15 21  1  0  0  0  0
 16  7  2  0  0  0  0
 16  9  1  0  0  0  0
 17  3  2  0  0  0  0
 17  4  1  0  0  0  0
 18 11  1  1  0  0  0
 18 15  1  0  0  0  0
 19 20  1  0  0  0  0
 21 23  1  0  0  0  0
 21 24  1  0  0  0  0
 22 20  1  0  0  0  0
 24 22  1  0  0  0  0
 25 23  1  0  0  0  0
 25 19  1  0  0  0  0
 26 27  1  0  0  0  0
 26 16  1  0  0  0  0
 28 27  1  0  0  0  0
 29 28  1  0  0  0  0
 30 32  2  0  0  0  0
 31 32  2  0  0  0  0
 32 29  1  0  0  0  0
 33 34  1  0  0  0  0
 34 32  1  0  0  0  0
M  END
>  <MODEL>
1

>  <REMARK>
 VINA RESULT:      -8.7      0.000      0.000
  Name = 
  7 active torsions:
  status: ('A' for Active; 'I' for Inactive)
    1  A    between atoms: C_3  and  C_13
    2  A    between atoms: C_3  and  C_17
    3  A    between atoms: N_12  and  C_28
    4  A    between atoms: C_13  and  C_33
    5  A    between atoms: C_14  and  S_34
    6  A    between atoms: C_17  and  C_29
    7  A    between atoms: C_33  and  S_34
                            x       y       z     vdW  Elec       q    Type
                         _______ _______ _______ _____ _____    ______ ____

>  <TORSDO>
F 7

$$$$
=
 OpenBabel11062407563D

 34 39  0  0  1  0  0  0  0  0999 V2000
  161.6060  210.1690  151.0370 C   0  0  1  0  0  3  0  0  0  0  0  0
  161.2710  208.0160  149.6360 C   0  0  2  0  0  3  0  0  0  0  0  0
  161.2290  208.0920  152.2210 C   0  0  0  0  0  0  0  0  0  0  0  0
  161.2610  205.9990  153.4090 C   0  0  0  0  0  0  0  0  0  0  0  0
  162.4020  210.0480  148.6420 C   0  0  0  0  0  2  0  0  0  0  0  0
  162.5350  208.5460  148.9660 C   0  0  0  0  0  2  0  0  0  0  0  0
  161.2200  205.9360  151.1000 C   0  0  0  0  0  0  0  0  0  0  0  0
  160.9260  208.8070  150.9410 C   0  0  1  0  0  3  0  0  0  0  0  0
  161.1960  204.7140  153.0640 C   0  0  0  0  0  3  0  0  0  0  0  0
  161.6160  210.8680  149.6850 C   0  0  0  0  0  2  0  0  0  0  0  0
  160.6380  210.1780  153.4380 C   0  0  0  0  0  2  0  0  0  0  0  0
  160.9950  211.0090  152.1750 C   0  0  0  0  0  2  0  0  0  0  0  0
  161.2200  206.4610  149.6930 C   0  0  0  0  0  2  0  0  0  0  0  0
  161.1530  206.6520  154.7190 C   0  0  0  0  0  3  0  0  0  0  0  0
  161.1700  208.0080  154.7910 C   0  0  0  0  0  0  0  0  0  0  0  0
  161.1870  204.6900  151.5740 C   0  0  0  0  0  0  0  0  0  0  0  0
  161.2750  206.7880  152.2300 C   0  0  0  0  0  0  0  0  0  0  0  0
  161.4170  208.8530  153.5190 C   0  0  1  0  0  3  0  0  0  0  0  0
  160.0600  211.2680  155.7910 C   0  0  0  0  0  2  0  0  0  0  0  0
  161.2070  211.5090  156.7660 C   0  0  0  0  0  2  0  0  0  0  0  0
  161.1240  208.6430  156.0870 N   0  0  0  0  0  0  0  0  0  0  0  0
  162.4340  210.7110  156.3350 C   0  0  0  0  0  2  0  0  0  0  0  0
  159.8610  208.8860  156.7750 C   0  0  0  0  0  2  0  0  0  0  0  0
  162.3140  209.2320  156.6950 C   0  0  0  0  0  2  0  0  0  0  0  0
  159.1390  210.1140  156.2080 C   0  0  0  0  0  2  0  0  0  0  0  0
  161.1700  203.4560  150.7400 C   0  0  0  0  0  2  0  0  0  0  0  0
  160.4310  203.7180  149.4440 C   0  0  0  0  0  2  0  0  0  0  0  0
  161.2050  203.1180  148.2910 C   0  0  0  0  0  2  0  0  0  0  0  0
  161.9560  204.2150  147.5630 C   0  0  0  0  0  2  0  0  0  0  0  0
  160.9930  202.7750  145.5180 O   0  0  0  0  0  0  0  0  0  0  0  0
  163.0400  204.0560  145.1090 O   0  0  0  0  0  0  0  0  0  0  0  0
  161.7090  204.0630  145.8060 S   0  0  0  0  0  0  0  0  0  0  0  0
  160.4510  206.3010  146.2510 O   0  0  0  0  0  1  0  0  0  0  0  0
  160.7370  205.4260  145.2020 C   0  0  0  0  0  2  0  0  0  0  0  0
  1 10  1  6  0  0  0
  1 12  1  0  0  0  0
  2  6  1  1  0  0  0
  2 13  1  0  0  0  0
  2  8  1  0  0  0  0
  3 17  2  0  0  0  0
  3 18  1  0  0  0  0
  4 14  1  0  0  0  0
  5  6  1  0  0  0  0
  5 10  1  0  0  0  0
  7 16  2  0  0  0  0
  7 17  1  0  0  0  0
  8  1  1  0  0  0  0
  8  3  1  1  0  0  0
  9  4  2  0  0  0  0
 12 11  1  0  0  0  0
 13  7  1  0  0  0  0
 14 15  2  0  0  0  0
 15 21  1  0  0  0  0
 16  9  1  0  0  0  0
 17  4  1  0  0  0  0
 18 11  1  6  0  0  0
 18 15  1  0  0  0  0
 19 25  1  0  0  0  0
 19 20  1  0  0  0  0
 21 24  1  0  0  0  0
 21 23  1  0  0  0  0
 22 24  1  0  0  0  0
 22 20  1  0  0  0  0
 25 23  1  0  0  0  0
 26 16  1  0  0  0  0
 27 26  1  0  0  0  0
 28 27  1  0  0  0  0
 29 28  1  0  0  0  0
 30 32  2  0  0  0  0
 31 32  2  0  0  0  0
 32 29  1  0  0  0  0
 34 32  1  0  0  0  0
 34 33  1  0  0  0  0
M  END
>  <MODEL>
2

>  <REMARK>
 VINA RESULT:      -7.4      3.089      5.582
  Name = 
  7 active torsions:
  status: ('A' for Active; 'I' for Inactive)
    1  A    between atoms: C_3  and  C_13
    2  A    between atoms: C_3  and  C_17
    3  A    between atoms: N_12  and  C_28
    4  A    between atoms: C_13  and  C_33
    5  A    between atoms: C_14  and  S_34
    6  A    between atoms: C_17  and  C_29
    7  A    between atoms: C_33  and  S_34
                            x       y       z     vdW  Elec       q    Type
                         _______ _______ _______ _____ _____    ______ ____

>  <TORSDO>
F 7

$$$$
=
 OpenBabel11062407563D

 34 39  0  0  1  0  0  0  0  0999 V2000
  161.0320  205.9860  152.6620 C   0  0  1  0  0  3  0  0  0  0  0  0
  162.0270  206.7580  150.3980 C   0  0  2  0  0  3  0  0  0  0  0  0
  161.2760  208.3640  152.2800 C   0  0  0  0  0  0  0  0  0  0  0  0
  161.1330  210.7110  151.7660 C   0  0  0  0  0  0  0  0  0  0  0  0
  161.0180  204.4530  150.6550 C   0  0  0  0  0  2  0  0  0  0  0  0
  160.9710  205.7850  149.8800 C   0  0  0  0  0  2  0  0  0  0  0  0
  161.8780  209.2810  150.1120 C   0  0  0  0  0  0  0  0  0  0  0  0
  161.8660  207.0330  151.9290 C   0  0  1  0  0  3  0  0  0  0  0  0
  161.4510  211.4720  150.7190 C   0  0  0  0  0  3  0  0  0  0  0  0
  161.3490  204.5870  152.1550 C   0  0  0  0  0  2  0  0  0  0  0  0
  161.2210  207.6280  154.6550 C   0  0  0  0  0  2  0  0  0  0  0  0
  161.1680  206.1480  154.1880 C   0  0  0  0  0  2  0  0  0  0  0  0
  162.2410  207.9790  149.4570 C   0  0  0  0  0  2  0  0  0  0  0  0
  160.7630  211.0690  153.1400 C   0  0  0  0  0  3  0  0  0  0  0  0
  160.5650  210.0850  154.0550 C   0  0  0  0  0  0  0  0  0  0  0  0
  161.9130  210.5330  149.6570 C   0  0  0  0  0  0  0  0  0  0  0  0
  161.3830  209.3540  151.4370 C   0  0  0  0  0  0  0  0  0  0  0  0
  160.6170  208.5990  153.6250 C   0  0  1  0  0  3  0  0  0  0  0  0
  157.8940  212.1770  155.2150 C   0  0  0  0  0  2  0  0  0  0  0  0
  158.7100  212.8410  156.3180 C   0  0  0  0  0  2  0  0  0  0  0  0
  160.1430  210.4400  155.3890 N   0  0  0  0  0  0  0  0  0  0  0  0
  160.1900  212.8360  155.9460 C   0  0  0  0  0  2  0  0  0  0  0  0
  158.9070  209.9210  155.9640 C   0  0  0  0  0  2  0  0  0  0  0  0
  160.8330  211.4680  156.1630 C   0  0  0  0  0  2  0  0  0  0  0  0
  157.6810  210.6740  155.4360 C   0  0  0  0  0  2  0  0  0  0  0  0
  162.3270  210.9360  148.2830 C   0  0  0  0  0  2  0  0  0  0  0  0
  162.8350  212.3630  148.2950 C   0  0  0  0  0  2  0  0  0  0  0  0
  161.9370  213.2260  147.4370 C   0  0  0  0  0  2  0  0  0  0  0  0
  160.8760  212.3600  146.7890 C   0  0  0  0  0  2  0  0  0  0  0  0
  159.6830  214.4470  145.6050 O   0  0  0  0  0  0  0  0  0  0  0  0
  159.2740  212.2360  144.6340 O   0  0  0  0  0  0  0  0  0  0  0  0
  160.3030  213.1180  145.2830 S   0  0  0  0  0  0  0  0  0  0  0  0
  161.6550  212.3570  143.1900 O   0  0  0  0  0  1  0  0  0  0  0  0
  161.6640  213.3590  144.1600 C   0  0  0  0  0  2  0  0  0  0  0  0
  1 10  1  6  0  0  0
  1 12  1  0  0  0  0
  2 13  1  6  0  0  0
  2  8  1  0  0  0  0
  3 18  1  0  0  0  0
  4 14  1  0  0  0  0
  5 10  1  0  0  0  0
  6  2  1  0  0  0  0
  6  5  1  0  0  0  0
  7 17  1  0  0  0  0
  8  3  1  6  0  0  0
  8  1  1  0  0  0  0
  9  4  2  0  0  0  0
 12 11  1  0  0  0  0
 13  7  1  0  0  0  0
 14 15  2  0  0  0  0
 15 21  1  0  0  0  0
 16  7  2  0  0  0  0
 16  9  1  0  0  0  0
 17  4  1  0  0  0  0
 17  3  2  0  0  0  0
 18 15  1  0  0  0  0
 18 11  1  1  0  0  0
 19 25  1  0  0  0  0
 19 20  1  0  0  0  0
 21 23  1  0  0  0  0
 21 24  1  0  0  0  0
 22 24  1  0  0  0  0
 22 20  1  0  0  0  0
 25 23  1  0  0  0  0
 26 27  1  0  0  0  0
 26 16  1  0  0  0  0
 28 27  1  0  0  0  0
 29 28  1  0  0  0  0
 31 32  2  0  0  0  0
 32 30  2  0  0  0  0
 32 29  1  0  0  0  0
 33 34  1  0  0  0  0
 34 32  1  0  0  0  0
M  END
>  <MODEL>
3

>  <REMARK>
 VINA RESULT:      -7.4      1.062      1.487
  Name = 
  7 active torsions:
  status: ('A' for Active; 'I' for Inactive)
    1  A    between atoms: C_3  and  C_13
    2  A    between atoms: C_3  and  C_17
    3  A    between atoms: N_12  and  C_28
    4  A    between atoms: C_13  and  C_33
    5  A    between atoms: C_14  and  S_34
    6  A    between atoms: C_17  and  C_29
    7  A    between atoms: C_33  and  S_34
                            x       y       z     vdW  Elec       q    Type
                         _______ _______ _______ _____ _____    ______ ____

>  <TORSDO>
F 7

$$$$
=
 OpenBabel11062407563D

 34 39  0  0  1  0  0  0  0  0999 V2000
  160.1650  209.4360  155.9390 C   0  0  1  0  0  3  0  0  0  0  0  0
  161.1790  207.2660  154.9530 C   0  0  2  0  0  3  0  0  0  0  0  0
  160.7940  209.4380  153.6010 C   0  0  0  0  0  0  0  0  0  0  0  0
  161.0330  209.3310  151.2090 C   0  0  0  0  0  0  0  0  0  0  0  0
  159.8040  207.2090  157.0740 C   0  0  0  0  0  2  0  0  0  0  0  0
  159.9520  206.6710  155.6360 C   0  0  0  0  0  2  0  0  0  0  0  0
  161.4510  207.4140  152.4280 C   0  0  0  0  0  0  0  0  0  0  0  0
  161.1330  208.8290  154.9270 C   0  0  1  0  0  3  0  0  0  0  0  0
  161.4310  208.4050  150.3380 C   0  0  0  0  0  3  0  0  0  0  0  0
  160.2160  208.6830  157.2600 C   0  0  0  0  0  2  0  0  0  0  0  0
  160.7160  211.6550  154.7230 C   0  0  0  0  0  2  0  0  0  0  0  0
  160.3910  210.9550  156.0710 C   0  0  0  0  0  2  0  0  0  0  0  0
  161.5590  206.5280  153.6350 C   0  0  0  0  0  2  0  0  0  0  0  0
  160.7880  210.7680  151.0420 C   0  0  0  0  0  3  0  0  0  0  0  0
  160.4640  211.5190  152.1270 C   0  0  0  0  0  0  0  0  0  0  0  0
  161.6800  207.1720  151.1370 C   0  0  0  0  0  0  0  0  0  0  0  0
  161.0330  208.7640  152.5090 C   0  0  0  0  0  0  0  0  0  0  0  0
  160.2430  210.8460  153.5020 C   0  0  1  0  0  3  0  0  0  0  0  0
  157.5510  213.1750  150.8500 C   0  0  0  0  0  2  0  0  0  0  0  0
  158.3260  214.2100  150.0410 C   0  0  0  0  0  2  0  0  0  0  0  0
  160.1660  212.9200  151.9480 N   0  0  0  0  0  0  0  0  0  0  0  0
  159.6890  213.6480  149.6460 C   0  0  0  0  0  2  0  0  0  0  0  0
  159.1990  213.6110  152.7930 C   0  0  0  0  0  2  0  0  0  0  0  0
  160.6800  213.6740  150.8070 C   0  0  0  0  0  2  0  0  0  0  0  0
  157.7590  213.3060  152.3650 C   0  0  0  0  0  2  0  0  0  0  0  0
  162.0980  205.8580  150.5710 C   0  0  0  0  0  2  0  0  0  0  0  0
  160.8760  205.0450  150.1970 C   0  0  0  0  0  2  0  0  0  0  0  0
  161.1250  204.3340  148.8850 C   0  0  0  0  0  2  0  0  0  0  0  0
  161.2740  205.3580  147.7780 C   0  0  0  0  0  2  0  0  0  0  0  0
  161.4040  203.1070  146.3280 O   0  0  0  0  0  0  0  0  0  0  0  0
  163.2780  204.6710  146.1220 O   0  0  0  0  0  0  0  0  0  0  0  0
  161.7870  204.5580  146.2710 S   0  0  0  0  0  0  0  0  0  0  0  0
  160.2760  206.4410  145.2910 O   0  0  0  0  0  1  0  0  0  0  0  0
  160.9960  205.3220  144.8710 C   0  0  0  0  0  2  0  0  0  0  0  0
  1 12  1  1  0  0  0
  1 10  1  0  0  0  0
  2 13  1  6  0  0  0
  2  6  1  0  0  0  0
  4 17  1  0  0  0  0
  5 10  1  0  0  0  0
  6  5  1  0  0  0  0
  7 17  1  0  0  0  0
  7 13  1  0  0  0  0
  8  3  1  6  0  0  0
  8  2  1  0  0  0  0
  8  1  1  0  0  0  0
  9 16  1  0  0  0  0
  9  4  2  0  0  0  0
 11 12  1  0  0  0  0
 14  4  1  0  0  0  0
 14 15  2  0  0  0  0
 15 18  1  0  0  0  0
 16  7  2  0  0  0  0
 17  3  2  0  0  0  0
 18  3  1  0  0  0  0
 18 11  1  1  0  0  0
 19 25  1  0  0  0  0
 20 19  1  0  0  0  0
 21 15  1  0  0  0  0
 21 23  1  0  0  0  0
 22 20  1  0  0  0  0
 22 24  1  0  0  0  0
 24 21  1  0  0  0  0
 25 23  1  0  0  0  0
 26 16  1  0  0  0  0
 27 26  1  0  0  0  0
 28 27  1  0  0  0  0
 29 28  1  0  0  0  0
 31 32  2  0  0  0  0
 32 30  2  0  0  0  0
 32 29  1  0  0  0  0
 34 33  1  0  0  0  0
 34 32  1  0  0  0  0
M  END
>  <MODEL>
4

>  <REMARK>
 VINA RESULT:      -7.0      3.533      6.382
  Name = 
  7 active torsions:
  status: ('A' for Active; 'I' for Inactive)
    1  A    between atoms: C_3  and  C_13
    2  A    between atoms: C_3  and  C_17
    3  A    between atoms: N_12  and  C_28
    4  A    between atoms: C_13  and  C_33
    5  A    between atoms: C_14  and  S_34
    6  A    between atoms: C_17  and  C_29
    7  A    between atoms: C_33  and  S_34
                            x       y       z     vdW  Elec       q    Type
                         _______ _______ _______ _____ _____    ______ ____

>  <TORSDO>
F 7

$$$$
=
 OpenBabel11062407563D

 34 39  0  0  1  0  0  0  0  0999 V2000
  161.6600  210.1280  151.0650 C   0  0  1  0  0  3  0  0  0  0  0  0
  161.3120  208.1880  149.3840 C   0  0  2  0  0  3  0  0  0  0  0  0
  161.2340  207.9180  151.9550 C   0  0  0  0  0  0  0  0  0  0  0  0
  161.2170  205.6840  152.8510 C   0  0  0  0  0  0  0  0  0  0  0  0
  162.4880  210.3160  148.6860 C   0  0  0  0  0  2  0  0  0  0  0  0
  162.5940  208.7820  148.8070 C   0  0  0  0  0  2  0  0  0  0  0  0
  161.2080  205.9320  150.5540 C   0  0  0  0  0  0  0  0  0  0  0  0
  160.9600  208.8030  150.7790 C   0  0  1  0  0  3  0  0  0  0  0  0
  161.1370  204.4580  152.3360 C   0  0  0  0  0  3  0  0  0  0  0  0
  161.6990  211.0020  149.8200 C   0  0  0  0  0  2  0  0  0  0  0  0
  160.6570  209.8320  153.4340 C   0  0  0  0  0  2  0  0  0  0  0  0
  161.0440  210.8180  152.2980 C   0  0  0  0  0  2  0  0  0  0  0  0
  161.2370  206.6410  149.2310 C   0  0  0  0  0  2  0  0  0  0  0  0
  161.0990  206.1570  154.2360 C   0  0  0  0  0  3  0  0  0  0  0  0
  161.1360  207.4910  154.4890 C   0  0  0  0  0  0  0  0  0  0  0  0
  161.1490  204.6350  150.8560 C   0  0  0  0  0  0  0  0  0  0  0  0
  161.2600  206.6230  151.7890 C   0  0  0  0  0  0  0  0  0  0  0  0
  161.4140  208.4940  153.3450 C   0  0  1  0  0  3  0  0  0  0  0  0
  159.9670  210.5680  155.9130 C   0  0  0  0  0  2  0  0  0  0  0  0
  161.1120  210.6990  156.9120 C   0  0  0  0  0  2  0  0  0  0  0  0
  161.0800  207.9470  155.8580 N   0  0  0  0  0  0  0  0  0  0  0  0
  162.3530  209.9880  156.3800 C   0  0  0  0  0  2  0  0  0  0  0  0
  159.8140  208.0740  156.5710 C   0  0  0  0  0  2  0  0  0  0  0  0
  162.2600  208.4720  156.5400 C   0  0  0  0  0  2  0  0  0  0  0  0
  159.0690  209.3520  156.1720 C   0  0  0  0  0  2  0  0  0  0  0  0
  161.1260  203.5240  149.8630 C   0  0  0  0  0  2  0  0  0  0  0  0
  160.8470  202.2110  150.5650 C   0  0  0  0  0  2  0  0  0  0  0  0
  160.6360  201.1230  149.5350 C   0  0  0  0  0  2  0  0  0  0  0  0
  159.8220  201.6730  148.3810 C   0  0  0  0  0  2  0  0  0  0  0  0
  159.7020  201.1650  145.7530 O   0  0  0  0  0  0  0  0  0  0  0  0
  161.6190  200.2540  146.9750 O   0  0  0  0  0  0  0  0  0  0  0  0
  160.6940  201.4310  146.8480 S   0  0  0  0  0  0  0  0  0  0  0  0
  161.1980  203.4140  145.2340 O   0  0  0  0  0  1  0  0  0  0  0  0
  161.6420  202.8830  146.4450 C   0  0  0  0  0  2  0  0  0  0  0  0
  1 10  1  6  0  0  0
  1 12  1  0  0  0  0
  2  6  1  1  0  0  0
  2  8  1  0  0  0  0
  3 18  1  0  0  0  0
  4 14  1  0  0  0  0
  5  6  1  0  0  0  0
  5 10  1  0  0  0  0
  7 16  2  0  0  0  0
  7 17  1  0  0  0  0
  8  1  1  0  0  0  0
  8  3  1  1  0  0  0
  9  4  2  0  0  0  0
 12 11  1  0  0  0  0
 13  2  1  0  0  0  0
 13  7  1  0  0  0  0
 14 15  2  0  0  0  0
 15 21  1  0  0  0  0
 16  9  1  0  0  0  0
 17  3  2  0  0  0  0
 17  4  1  0  0  0  0
 18 11  1  1  0  0  0
 18 15  1  0  0  0  0
 19 25  1  0  0  0  0
 19 20  1  0  0  0  0
 21 24  1  0  0  0  0
 21 23  1  0  0  0  0
 22 24  1  0  0  0  0
 22 20  1  0  0  0  0
 25 23  1  0  0  0  0
 26 27  1  0  0  0  0
 26 16  1  0  0  0  0
 28 27  1  0  0  0  0
 29 28  1  0  0  0  0
 30 32  2  0  0  0  0
 32 31  2  0  0  0  0
 32 29  1  0  0  0  0
 33 34  1  0  0  0  0
 34 32  1  0  0  0  0
M  END
>  <MODEL>
5

>  <REMARK>
 VINA RESULT:      -7.0      4.009      6.514
  Name = 
  7 active torsions:
  status: ('A' for Active; 'I' for Inactive)
    1  A    between atoms: C_3  and  C_13
    2  A    between atoms: C_3  and  C_17
    3  A    between atoms: N_12  and  C_28
    4  A    between atoms: C_13  and  C_33
    5  A    between atoms: C_14  and  S_34
    6  A    between atoms: C_17  and  C_29
    7  A    between atoms: C_33  and  S_34
                            x       y       z     vdW  Elec       q    Type
                         _______ _______ _______ _____ _____    ______ ____

>  <TORSDO>
F 7

$$$$
=
 OpenBabel11062407563D

 34 39  0  0  1  0  0  0  0  0999 V2000
  160.9950  213.7360  149.3250 C   0  0  1  0  0  3  0  0  0  0  0  0
  161.9370  211.4530  148.5440 C   0  0  2  0  0  3  0  0  0  0  0  0
  160.7140  211.8310  150.7910 C   0  0  0  0  0  0  0  0  0  0  0  0
  160.7830  210.0610  152.4210 C   0  0  0  0  0  0  0  0  0  0  0  0
  162.7840  213.6170  147.5460 C   0  0  0  0  0  2  0  0  0  0  0  0
  163.1660  212.3210  148.2910 C   0  0  0  0  0  2  0  0  0  0  0  0
  161.8080  209.6990  150.3820 C   0  0  0  0  0  0  0  0  0  0  0  0
  160.8370  212.2180  149.3500 C   0  0  1  0  0  3  0  0  0  0  0  0
  161.2390  208.8090  152.4400 C   0  0  0  0  0  3  0  0  0  0  0  0
  161.4200  214.2150  147.9450 C   0  0  0  0  0  2  0  0  0  0  0  0
  159.0870  213.6890  151.0750 C   0  0  0  0  0  2  0  0  0  0  0  0
  159.7300  214.4280  149.8690 C   0  0  0  0  0  2  0  0  0  0  0  0
  162.2980  210.0080  148.9970 C   0  0  0  0  0  2  0  0  0  0  0  0
  159.9200  210.7860  153.3600 C   0  0  0  0  0  3  0  0  0  0  0  0
  159.5270  212.0520  153.0620 C   0  0  0  0  0  0  0  0  0  0  0  0
  161.9100  208.5980  151.1260 C   0  0  0  0  0  0  0  0  0  0  0  0
  161.1100  210.6460  151.1710 C   0  0  0  0  0  0  0  0  0  0  0  0
  160.0770  212.7620  151.8030 C   0  0  1  0  0  3  0  0  0  0  0  0
  158.8630  211.4640  156.5360 C   0  0  0  0  0  2  0  0  0  0  0  0
  157.3820  211.8160  156.4530 C   0  0  0  0  0  2  0  0  0  0  0  0
  158.7270  212.7820  154.0160 N   0  0  0  0  0  0  0  0  0  0  0  0
  156.8610  211.5510  155.0440 C   0  0  0  0  0  2  0  0  0  0  0  0
  159.3360  213.5550  155.0930 C   0  0  0  0  0  2  0  0  0  0  0  0
  157.2740  212.6450  154.0620 C   0  0  0  0  0  2  0  0  0  0  0  0
  159.7880  212.6530  156.2460 C   0  0  0  0  0  2  0  0  0  0  0  0
  162.6140  207.3490  150.7180 C   0  0  0  0  0  2  0  0  0  0  0  0
  161.6340  206.1950  150.6760 C   0  0  0  0  0  2  0  0  0  0  0  0
  160.6930  206.3750  149.5040 C   0  0  0  0  0  2  0  0  0  0  0  0
  160.8420  205.2040  148.5540 C   0  0  0  0  0  2  0  0  0  0  0  0
  162.3310  206.9430  147.1600 O   0  0  0  0  0  0  0  0  0  0  0  0
  160.2330  206.2030  146.1350 O   0  0  0  0  0  0  0  0  0  0  0  0
  161.4090  205.7730  146.9650 S   0  0  0  0  0  0  0  0  0  0  0  0
  163.6530  204.7030  146.1880 O   0  0  0  0  0  1  0  0  0  0  0  0
  162.2800  204.4700  146.1210 C   0  0  0  0  0  2  0  0  0  0  0  0
  1 10  1  6  0  0  0
  1  8  1  0  0  0  0
  1 12  1  0  0  0  0
  2  6  1  1  0  0  0
  2 13  1  0  0  0  0
  2  8  1  0  0  0  0
  3 17  2  0  0  0  0
  3 18  1  0  0  0  0
  4  9  2  0  0  0  0
  4 14  1  0  0  0  0
  5 10  1  0  0  0  0
  5  6  1  0  0  0  0
  7 16  2  0  0  0  0
  7 17  1  0  0  0  0
  8  3  1  1  0  0  0
 12 11  1  0  0  0  0
 13  7  1  0  0  0  0
 15 14  2  0  0  0  0
 15 21  1  0  0  0  0
 16  9  1  0  0  0  0
 17  4  1  0  0  0  0
 18 11  1  6  0  0  0
 18 15  1  0  0  0  0
 20 19  1  0  0  0  0
 21 24  1  0  0  0  0
 21 23  1  0  0  0  0
 22 20  1  0  0  0  0
 23 25  1  0  0  0  0
 24 22  1  0  0  0  0
 25 19  1  0  0  0  0
 26 16  1  0  0  0  0
 27 26  1  0  0  0  0
 28 27  1  0  0  0  0
 29 28  1  0  0  0  0
 31 32  2  0  0  0  0
 32 30  2  0  0  0  0
 32 29  1  0  0  0  0
 34 33  1  0  0  0  0
 34 32  1  0  0  0  0
M  END
>  <MODEL>
6

>  <REMARK>
 VINA RESULT:      -6.7      3.109      6.077
  Name = 
  7 active torsions:
  status: ('A' for Active; 'I' for Inactive)
    1  A    between atoms: C_3  and  C_13
    2  A    between atoms: C_3  and  C_17
    3  A    between atoms: N_12  and  C_28
    4  A    between atoms: C_13  and  C_33
    5  A    between atoms: C_14  and  S_34
    6  A    between atoms: C_17  and  C_29
    7  A    between atoms: C_33  and  S_34
                            x       y       z     vdW  Elec       q    Type
                         _______ _______ _______ _____ _____    ______ ____

>  <TORSDO>
F 7

$$$$
=
 OpenBabel11062407563D

 34 39  0  0  1  0  0  0  0  0999 V2000
  161.1590  204.5430  151.5290 C   0  0  1  0  0  3  0  0  0  0  0  0
  160.9070  207.0730  152.0270 C   0  0  2  0  0  3  0  0  0  0  0  0
  161.4920  206.0980  149.7040 C   0  0  0  0  0  0  0  0  0  0  0  0
  162.2170  207.6260  147.9930 C   0  0  0  0  0  0  0  0  0  0  0  0
  161.3460  205.4200  153.8910 C   0  0  0  0  0  2  0  0  0  0  0  0
  161.8410  206.6920  153.1720 C   0  0  0  0  0  2  0  0  0  0  0  0
  161.6190  208.5000  150.0460 C   0  0  0  0  0  0  0  0  0  0  0  0
  160.7500  205.9110  150.9910 C   0  0  1  0  0  3  0  0  0  0  0  0
  162.3170  208.9510  147.8870 C   0  0  0  0  0  3  0  0  0  0  0  0
  160.6990  204.3650  152.9690 C   0  0  0  0  0  2  0  0  0  0  0  0
  160.8310  203.7850  149.0750 C   0  0  0  0  0  2  0  0  0  0  0  0
  160.6980  203.4210  150.5790 C   0  0  0  0  0  2  0  0  0  0  0  0
  161.1710  208.5060  151.4790 C   0  0  0  0  0  2  0  0  0  0  0  0
  162.3130  206.5690  146.9790 C   0  0  0  0  0  3  0  0  0  0  0  0
  162.0870  205.2790  147.3400 C   0  0  0  0  0  0  0  0  0  0  0  0
  161.9440  209.4970  149.2230 C   0  0  0  0  0  0  0  0  0  0  0  0
  161.7880  207.3050  149.3060 C   0  0  1  0  0  3  0  0  0  0  0  0
  161.8440  204.9160  148.8240 C   0  0  0  0  0  0  0  0  0  0  0  0
  159.9520  204.2240  144.6580 C   0  0  0  0  0  2  0  0  0  0  0  0
  160.1740  202.7330  144.8860 C   0  0  0  0  0  2  0  0  0  0  0  0
  162.2400  204.2370  146.3520 N   0  0  0  0  0  0  0  0  0  0  0  0
  160.5220  202.4750  146.3500 C   0  0  0  0  0  2  0  0  0  0  0  0
  162.5000  204.5430  144.9510 C   0  0  0  0  0  2  0  0  0  0  0  0
  161.9710  202.8360  146.6680 C   0  0  0  0  0  2  0  0  0  0  0  0
  161.2210  204.9680  144.2220 C   0  0  0  0  0  2  0  0  0  0  0  0
  161.9590  210.9420  149.5880 C   0  0  0  0  0  2  0  0  0  0  0  0
  162.4950  211.7610  148.4330 C   0  0  0  0  0  2  0  0  0  0  0  0
  161.5070  212.8540  148.0880 C   0  0  0  0  0  2  0  0  0  0  0  0
  160.4530  212.3020  147.1500 C   0  0  0  0  0  2  0  0  0  0  0  0
  159.3680  214.1670  145.5610 O   0  0  0  0  0  0  0  0  0  0  0  0
  160.3390  212.2030  144.4660 O   0  0  0  0  0  0  0  0  0  0  0  0
  160.4960  213.1770  145.6000 S   0  0  0  0  0  0  0  0  0  0  0  0
  163.0110  213.1690  144.9190 O   0  0  0  0  0  1  0  0  0  0  0  0
  162.0440  214.0390  145.4240 C   0  0  0  0  0  2  0  0  0  0  0  0
  1 12  1  6  0  0  0
  1 10  1  0  0  0  0
  2 13  1  6  0  0  0
  2  6  1  0  0  0  0
  6  5  1  0  0  0  0
  7 13  1  0  0  0  0
  8  3  1  6  0  0  0
  8  1  1  0  0  0  0
  8  2  1  0  0  0  0
  9  4  2  0  0  0  0
  9 16  1  0  0  0  0
 10  5  1  0  0  0  0
 11 12  1  0  0  0  0
 14 15  2  0  0  0  0
 14  4  1  0  0  0  0
 15 18  1  0  0  0  0
 16 26  1  0  0  0  0
 16  7  2  0  0  0  0
 17  4  1  6  0  0  0
 17  3  1  0  0  0  0
 17  7  1  0  0  0  0
 18 11  1  0  0  0  0
 18  3  2  0  0  0  0
 19 20  1  0  0  0  0
 20 22  1  0  0  0  0
 21 24  1  0  0  0  0
 21 15  1  0  0  0  0
 22 24  1  0  0  0  0
 23 21  1  0  0  0  0
 25 19  1  0  0  0  0
 25 23  1  0  0  0  0
 27 26  1  0  0  0  0
 28 27  1  0  0  0  0
 29 28  1  0  0  0  0
 30 32  2  0  0  0  0
 31 32  2  0  0  0  0
 32 29  1  0  0  0  0
 33 34  1  0  0  0  0
 34 32  1  0  0  0  0
M  END
>  <MODEL>
7

>  <REMARK>
 VINA RESULT:      -6.7      2.914      6.482
  Name = 
  7 active torsions:
  status: ('A' for Active; 'I' for Inactive)
    1  A    between atoms: C_3  and  C_13
    2  A    between atoms: C_3  and  C_17
    3  A    between atoms: N_12  and  C_28
    4  A    between atoms: C_13  and  C_33
    5  A    between atoms: C_14  and  S_34
    6  A    between atoms: C_17  and  C_29
    7  A    between atoms: C_33  and  S_34
                            x       y       z     vdW  Elec       q    Type
                         _______ _______ _______ _____ _____    ______ ____

>  <TORSDO>
F 7

$$$$
=
 OpenBabel11062407563D

 34 39  0  0  1  0  0  0  0  0999 V2000
  161.4090  208.8370  153.3110 C   0  0  1  0  0  3  0  0  0  0  0  0
  161.6180  206.4480  152.3290 C   0  0  2  0  0  3  0  0  0  0  0  0
  161.7260  208.6160  150.9210 C   0  0  0  0  0  0  0  0  0  0  0  0
  161.6340  208.4060  148.5250 C   0  0  0  0  0  0  0  0  0  0  0  0
  160.5510  206.8340  154.5890 C   0  0  0  0  0  2  0  0  0  0  0  0
  160.3610  206.2550  153.1720 C   0  0  0  0  0  2  0  0  0  0  0  0
  161.6160  206.4700  149.7850 C   0  0  0  0  0  0  0  0  0  0  0  0
  162.0280  207.9550  152.2300 C   0  0  1  0  0  3  0  0  0  0  0  0
  161.6350  207.3910  147.6630 C   0  0  0  0  0  3  0  0  0  0  0  0
  161.3970  208.1230  154.6540 C   0  0  0  0  0  2  0  0  0  0  0  0
  162.4350  210.7730  151.9320 C   0  0  0  0  0  2  0  0  0  0  0  0
  162.0840  210.2220  153.3410 C   0  0  0  0  0  2  0  0  0  0  0  0
  161.6030  205.6110  151.0160 C   0  0  0  0  0  2  0  0  0  0  0  0
  161.8020  209.8490  148.3140 C   0  0  0  0  0  3  0  0  0  0  0  0
  161.8450  210.6790  149.3900 C   0  0  0  0  0  0  0  0  0  0  0  0
  161.6070  206.1520  148.4910 C   0  0  0  0  0  0  0  0  0  0  0  0
  161.6240  207.8850  149.8440 C   0  0  0  0  0  0  0  0  0  0  0  0
  161.6030  210.1220  150.8130 C   0  0  1  0  0  3  0  0  0  0  0  0
  160.1020  212.8700  147.1500 C   0  0  0  0  0  2  0  0  0  0  0  0
  161.3350  213.6780  146.7610 C   0  0  0  0  0  2  0  0  0  0  0  0
  161.9500  212.1020  149.1740 N   0  0  0  0  0  0  0  0  0  0  0  0
  162.5880  212.8180  146.9080 C   0  0  0  0  0  2  0  0  0  0  0  0
  160.9020  213.0200  149.6020 C   0  0  0  0  0  2  0  0  0  0  0  0
  163.0220  212.6780  148.3650 C   0  0  0  0  0  2  0  0  0  0  0  0
  159.7190  213.0170  148.6280 C   0  0  0  0  0  2  0  0  0  0  0  0
  161.5510  204.7640  147.9490 C   0  0  0  0  0  2  0  0  0  0  0  0
  161.2170  204.8000  146.4720 C   0  0  0  0  0  2  0  0  0  0  0  0
  161.5310  203.4570  145.8510 C   0  0  0  0  0  2  0  0  0  0  0  0
  162.0240  202.5090  146.9250 C   0  0  0  0  0  2  0  0  0  0  0  0
  161.5390  199.8840  147.1680 O   0  0  0  0  0  0  0  0  0  0  0  0
  159.8060  201.2400  146.0920 O   0  0  0  0  0  0  0  0  0  0  0  0
  160.8340  201.2100  147.1870 S   0  0  0  0  0  0  0  0  0  0  0  0
  160.9820  201.5050  149.7720 O   0  0  0  0  0  1  0  0  0  0  0  0
  160.0260  201.4260  148.7590 C   0  0  0  0  0  2  0  0  0  0  0  0
  1 12  1  1  0  0  0
  1 10  1  0  0  0  0
  2 13  1  6  0  0  0
  2  6  1  0  0  0  0
  4 17  1  0  0  0  0
  5 10  1  0  0  0  0
  6  5  1  0  0  0  0
  7 17  1  0  0  0  0
  7 13  1  0  0  0  0
  8  3  1  6  0  0  0
  8  2  1  0  0  0  0
  8  1  1  0  0  0  0
  9 16  1  0  0  0  0
  9  4  2  0  0  0  0
 11 12  1  0  0  0  0
 14  4  1  0  0  0  0
 14 15  2  0  0  0  0
 15 18  1  0  0  0  0
 16  7  2  0  0  0  0
 17  3  2  0  0  0  0
 18  3  1  0  0  0  0
 18 11  1  1  0  0  0
 19 25  1  0  0  0  0
 20 22  1  0  0  0  0
 20 19  1  0  0  0  0
 21 15  1  0  0  0  0
 21 23  1  0  0  0  0
 22 24  1  0  0  0  0
 24 21  1  0  0  0  0
 25 23  1  0  0  0  0
 26 16  1  0  0  0  0
 27 26  1  0  0  0  0
 28 27  1  0  0  0  0
 28 29  1  0  0  0  0
 29 32  1  0  0  0  0
 30 32  2  0  0  0  0
 31 32  2  0  0  0  0
 32 34  1  0  0  0  0
 34 33  1  0  0  0  0
M  END
>  <MODEL>
8

>  <REMARK>
 VINA RESULT:      -6.3      4.648      7.638
  Name = 
  7 active torsions:
  status: ('A' for Active; 'I' for Inactive)
    1  A    between atoms: C_3  and  C_13
    2  A    between atoms: C_3  and  C_17
    3  A    between atoms: N_12  and  C_28
    4  A    between atoms: C_13  and  C_33
    5  A    between atoms: C_14  and  S_34
    6  A    between atoms: C_17  and  C_29
    7  A    between atoms: C_33  and  S_34
                            x       y       z     vdW  Elec       q    Type
                         _______ _______ _______ _____ _____    ______ ____

>  <TORSDO>
F 7

$$$$
=
 OpenBabel11062407563D

 34 39  0  0  1  0  0  0  0  0999 V2000
  161.1580  204.2410  151.0960 C   0  0  1  0  0  3  0  0  0  0  0  0
  160.7220  206.4630  152.3550 C   0  0  2  0  0  3  0  0  0  0  0  0
  161.4490  206.3120  149.8770 C   0  0  0  0  0  0  0  0  0  0  0  0
  162.1290  208.3430  148.7790 C   0  0  0  0  0  0  0  0  0  0  0  0
  161.2060  204.3280  153.6200 C   0  0  0  0  0  2  0  0  0  0  0  0
  161.6400  205.7860  153.3690 C   0  0  0  0  0  2  0  0  0  0  0  0
  161.4050  208.4840  150.9680 C   0  0  0  0  0  0  0  0  0  0  0  0
  160.6780  205.6870  150.9980 C   0  0  1  0  0  3  0  0  0  0  0  0
  162.1440  209.6350  149.1030 C   0  0  0  0  0  3  0  0  0  0  0  0
  160.6630  203.5900  152.3790 C   0  0  0  0  0  2  0  0  0  0  0  0
  160.9650  204.2900  148.5150 C   0  0  0  0  0  2  0  0  0  0  0  0
  160.8060  203.4580  149.8170 C   0  0  0  0  0  2  0  0  0  0  0  0
  160.9090  208.0080  152.3030 C   0  0  0  0  0  2  0  0  0  0  0  0
  162.3300  207.6710  147.4900 C   0  0  0  0  0  3  0  0  0  0  0  0
  162.1770  206.3230  147.4110 C   0  0  0  0  0  0  0  0  0  0  0  0
  161.6910  209.7060  150.5210 C   0  0  0  0  0  0  0  0  0  0  0  0
  161.6780  207.5970  149.8980 C   0  0  1  0  0  3  0  0  0  0  0  0
  161.9090  205.4930  148.6880 C   0  0  0  0  0  0  0  0  0  0  0  0
  160.0030  204.5330  145.1920 C   0  0  0  0  0  2  0  0  0  0  0  0
  160.9970  203.4140  144.9000 C   0  0  0  0  0  2  0  0  0  0  0  0
  162.4340  205.6600  146.1540 N   0  0  0  0  0  0  0  0  0  0  0  0
  161.9540  203.2480  146.0770 C   0  0  0  0  0  2  0  0  0  0  0  0
  161.9510  206.2030  144.8900 C   0  0  0  0  0  2  0  0  0  0  0  0
  163.0320  204.3290  146.0980 C   0  0  0  0  0  2  0  0  0  0  0  0
  160.4630  205.9040  144.6810 C   0  0  0  0  0  2  0  0  0  0  0  0
  161.5970  210.9580  151.3260 C   0  0  0  0  0  2  0  0  0  0  0  0
  160.2530  211.0240  152.0220 C   0  0  0  0  0  2  0  0  0  0  0  0
  160.4120  211.7120  153.3600 C   0  0  0  0  0  2  0  0  0  0  0  0
  159.8950  210.8050  154.4580 C   0  0  0  0  0  2  0  0  0  0  0  0
  161.0780  211.1090  156.8430 O   0  0  0  0  0  0  0  0  0  0  0  0
  162.5400  210.7020  154.9200 O   0  0  0  0  0  0  0  0  0  0  0  0
  161.2230  210.3530  155.5540 S   0  0  0  0  0  0  0  0  0  0  0  0
  159.8530  208.1920  156.0440 O   0  0  0  0  0  1  0  0  0  0  0  0
  161.1760  208.6050  155.8860 C   0  0  0  0  0  2  0  0  0  0  0  0
  1 12  1  6  0  0  0
  1 10  1  0  0  0  0
  2 13  1  6  0  0  0
  2  6  1  0  0  0  0
  3 17  1  0  0  0  0
  4  9  2  0  0  0  0
  6  5  1  0  0  0  0
  7 13  1  0  0  0  0
  8  3  1  6  0  0  0
  8  1  1  0  0  0  0
  8  2  1  0  0  0  0
  9 16  1  0  0  0  0
 10  5  1  0  0  0  0
 11 18  1  0  0  0  0
 11 12  1  0  0  0  0
 14  4  1  0  0  0  0
 15 14  2  0  0  0  0
 15 18  1  0  0  0  0
 16  7  2  0  0  0  0
 16 26  1  0  0  0  0
 17  4  1  6  0  0  0
 17  7  1  0  0  0  0
 18  3  2  0  0  0  0
 20 19  1  0  0  0  0
 20 22  1  0  0  0  0
 21 15  1  0  0  0  0
 22 24  1  0  0  0  0
 23 21  1  0  0  0  0
 24 21  1  0  0  0  0
 25 23  1  0  0  0  0
 25 19  1  0  0  0  0
 26 27  1  0  0  0  0
 27 28  1  0  0  0  0
 28 29  1  0  0  0  0
 29 32  1  0  0  0  0
 31 32  2  0  0  0  0
 32 34  1  0  0  0  0
 32 30  2  0  0  0  0
 34 33  1  0  0  0  0
M  END
>  <MODEL>
9

>  <REMARK>
 VINA RESULT:      -6.2      4.685      7.930
  Name = 
  7 active torsions:
  status: ('A' for Active; 'I' for Inactive)
    1  A    between atoms: C_3  and  C_13
    2  A    between atoms: C_3  and  C_17
    3  A    between atoms: N_12  and  C_28
    4  A    between atoms: C_13  and  C_33
    5  A    between atoms: C_14  and  S_34
    6  A    between atoms: C_17  and  C_29
    7  A    between atoms: C_33  and  S_34
                            x       y       z     vdW  Elec       q    Type
                         _______ _______ _______ _____ _____    ______ ____

>  <TORSDO>
F 7

$$$$
