=
 OpenBabel11062408023D

 34 37  0  0  1  0  0  0  0  0999 V2000
  161.1280  208.5000  152.0010 C   0  0  2  0  0  3  0  0  0  0  0  0
  161.5470  209.7700  149.9420 N   0  0  0  0  0  0  0  0  0  0  0  0
  161.2550  210.8870  151.9930 O   0  0  0  0  0  1  0  0  0  0  0  0
  161.4220  207.2290  151.1890 C   0  0  1  0  0  3  0  0  0  0  0  0
  162.1100  208.6580  149.3870 O   0  0  0  0  0  0  0  0  0  0  0  0
  161.2560  207.5860  149.7070 C   0  0  1  0  0  3  0  0  0  0  0  0
  161.7960  209.7450  151.3940 C   0  0  1  0  0  3  0  0  0  0  0  0
  161.1940  204.0560  148.3350 C   0  0  0  0  0  0  0  0  0  0  0  0
  161.9290  204.1940  147.1540 C   0  0  0  0  0  3  0  0  0  0  0  0
  161.4920  206.4160  148.8030 C   0  0  0  0  0  0  0  0  0  0  0  0
  162.4520  205.4400  146.7970 C   0  0  0  0  0  3  0  0  0  0  0  0
  160.9800  205.1650  149.1600 C   0  0  0  0  0  3  0  0  0  0  0  0
  162.2360  206.5490  147.6210 C   0  0  0  0  0  3  0  0  0  0  0  0
  160.5410  202.4950  148.7810 Cl  0  0  0  0  0  0  0  0  0  0  0  0
  162.5600  205.5560  152.1000 C   0  0  0  0  0  1  0  0  0  0  0  0
  162.7240  206.7720  151.4340 O   0  0  0  0  0  0  0  0  0  0  0  0
  161.3570  208.3420  153.5060 C   0  0  0  0  0  2  0  0  0  0  0  0
  160.5540  207.1930  154.1070 C   0  0  0  0  0  2  0  0  0  0  0  0
  160.2500  207.4680  155.5680 C   0  0  0  0  0  2  0  0  0  0  0  0
  159.9740  208.9460  155.7780 C   0  0  0  0  0  2  0  0  0  0  0  0
  162.0860  209.0550  157.0450 C   0  0  0  0  0  2  0  0  0  0  0  0
  160.6130  209.4030  157.0720 C   0  0  0  0  0  3  0  0  0  0  0  0
  161.6400  210.4740  156.7660 C   0  0  0  0  0  2  0  0  0  0  0  0
  162.2700  210.9030  149.3760 C   0  0  0  0  0  2  0  0  0  0  0  0
  161.5210  211.4680  148.1780 C   0  0  0  0  0  2  0  0  0  0  0  0
  162.1970  212.7140  147.6200 C   0  0  0  0  0  2  0  0  0  0  0  0
  161.2450  213.5040  146.7330 C   0  0  0  0  0  2  0  0  0  0  0  0
  159.4430  212.1360  145.0560 O   0  0  0  0  0  0  0  0  0  0  0  0
  161.5060  213.2180  145.3280 N   0  0  0  0  0  0  0  0  0  0  0  0
  160.5150  212.5430  144.5320 C   0  0  0  0  0  0  0  0  0  0  0  0
  162.1860  212.3370  142.6930 C   0  0  0  0  0  2  0  0  0  0  0  0
  162.9140  213.5170  143.3190 C   0  0  0  0  0  2  0  0  0  0  0  0
  162.8740  213.3900  144.8380 C   0  0  0  0  0  2  0  0  0  0  0  0
  160.7060  212.3880  143.0540 C   0  0  0  0  0  2  0  0  0  0  0  0
  1 17  1  1  0  0  0
  2  7  1  0  0  0  0
  4 16  1  6  0  0  0
  4  1  1  0  0  0  0
  5  6  1  0  0  0  0
  5  2  1  0  0  0  0
  6 10  1  6  0  0  0
  6  4  1  0  0  0  0
  7  3  1  1  0  0  0
  7  1  1  0  0  0  0
  8 14  1  0  0  0  0
  8 12  1  0  0  0  0
  9  8  2  0  0  0  0
 10 12  2  0  0  0  0
 11  9  1  0  0  0  0
 11 13  2  0  0  0  0
 13 10  1  0  0  0  0
 16 15  1  0  0  0  0
 17 18  1  0  0  0  0
 18 19  1  0  0  0  0
 19 20  1  0  0  0  0
 20 22  1  0  0  0  0
 21 22  1  0  0  0  0
 23 21  1  0  0  0  0
 23 22  1  0  0  0  0
 24  2  1  0  0  0  0
 25 24  1  0  0  0  0
 26 25  1  0  0  0  0
 27 26  1  0  0  0  0
 29 27  1  0  0  0  0
 30 28  2  0  0  0  0
 30 29  1  0  0  0  0
 31 34  1  0  0  0  0
 31 32  1  0  0  0  0
 32 33  1  0  0  0  0
 33 29  1  0  0  0  0
 34 30  1  0  0  0  0
M  END
>  <MODEL>
1

>  <REMARK>
 VINA RESULT:      -7.6      0.000      0.000
  Name = 
  12 active torsions:
  status: ('A' for Active; 'I' for Inactive)
    1  A    between atoms: C_2  and  C_15
    2  A    between atoms: C_2  and  C_25
    3  A    between atoms: C_3  and  N_13
    4  A    between atoms: C_3  and  C_17
    5  A    between atoms: C_4  and  C_15
    6  A    between atoms: N_5  and  C_18
    7  A    between atoms: C_6  and  C_9
    8  A    between atoms: C_9  and  C_25
    9  A    between atoms: C_12  and  C_28
   10  A    between atoms: C_17  and  C_29
   11  A    between atoms: C_18  and  C_29
   12  A    between atoms: C_21  and  O_32
                            x       y       z     vdW  Elec       q    Type
                         _______ _______ _______ _____ _____    ______ ____

>  <TORSDO>
F 12

$$$$
=
 OpenBabel11062408023D

 34 37  0  0  1  0  0  0  0  0999 V2000
  161.1980  208.7450  151.7130 C   0  0  2  0  0  3  0  0  0  0  0  0
  161.6450  209.5370  149.4320 N   0  0  0  0  0  0  0  0  0  0  0  0
  161.5010  211.0640  151.2170 O   0  0  0  0  0  1  0  0  0  0  0  0
  161.3710  207.3170  151.1720 C   0  0  1  0  0  3  0  0  0  0  0  0
  162.1050  208.2950  149.1060 O   0  0  0  0  0  0  0  0  0  0  0  0
  161.1850  207.3800  149.6510 C   0  0  1  0  0  3  0  0  0  0  0  0
  161.9370  209.7850  150.8550 C   0  0  1  0  0  3  0  0  0  0  0  0
  162.0490  204.6930  147.1250 C   0  0  0  0  0  0  0  0  0  0  0  0
  161.5320  203.5470  147.7370 C   0  0  0  0  0  3  0  0  0  0  0  0
  161.3050  206.0370  149.0010 C   0  0  0  0  0  0  0  0  0  0  0  0
  160.8960  203.6430  148.9780 C   0  0  0  0  0  3  0  0  0  0  0  0
  161.9320  205.9360  147.7550 C   0  0  0  0  0  3  0  0  0  0  0  0
  160.7810  204.8860  149.6090 C   0  0  0  0  0  3  0  0  0  0  0  0
  162.8430  204.5710  145.5710 Cl  0  0  0  0  0  0  0  0  0  0  0  0
  162.4200  205.8550  152.4710 C   0  0  0  0  0  1  0  0  0  0  0  0
  162.6430  206.8180  151.4840 O   0  0  0  0  0  0  0  0  0  0  0  0
  161.4620  208.8760  153.2160 C   0  0  0  0  0  2  0  0  0  0  0  0
  160.2650  209.4340  153.9770 C   0  0  0  0  0  2  0  0  0  0  0  0
  160.6720  210.6560  154.7800 C   0  0  0  0  0  2  0  0  0  0  0  0
  160.0010  211.8980  154.2220 C   0  0  0  0  0  2  0  0  0  0  0  0
  157.7370  212.6420  153.5910 C   0  0  0  0  0  2  0  0  0  0  0  0
  158.7330  211.5060  153.4930 C   0  0  0  0  0  3  0  0  0  0  0  0
  158.5290  212.4390  152.3170 C   0  0  0  0  0  2  0  0  0  0  0  0
  162.4320  210.4710  148.6370 C   0  0  0  0  0  2  0  0  0  0  0  0
  161.5250  211.4940  147.9660 C   0  0  0  0  0  2  0  0  0  0  0  0
  162.3090  212.6880  147.4370 C   0  0  0  0  0  2  0  0  0  0  0  0
  161.4290  213.5820  146.5740 C   0  0  0  0  0  2  0  0  0  0  0  0
  159.4990  212.1900  145.0700 O   0  0  0  0  0  0  0  0  0  0  0  0
  161.5910  213.2460  145.1660 N   0  0  0  0  0  0  0  0  0  0  0  0
  160.5390  212.5610  144.4610 C   0  0  0  0  0  0  0  0  0  0  0  0
  162.0780  212.2680  142.5230 C   0  0  0  0  0  2  0  0  0  0  0  0
  162.8630  213.4550  143.0570 C   0  0  0  0  0  2  0  0  0  0  0  0
  162.9250  213.3800  144.5790 C   0  0  0  0  0  2  0  0  0  0  0  0
  160.6270  212.3550  142.9810 C   0  0  0  0  0  2  0  0  0  0  0  0
  1 17  1  1  0  0  0
  2  7  1  0  0  0  0
  4 16  1  6  0  0  0
  4  1  1  0  0  0  0
  5  2  1  0  0  0  0
  5  6  1  0  0  0  0
  6 10  1  6  0  0  0
  6  4  1  0  0  0  0
  7  3  1  1  0  0  0
  7  1  1  0  0  0  0
  8  9  2  0  0  0  0
  8 12  1  0  0  0  0
  9 11  1  0  0  0  0
 10 13  1  0  0  0  0
 11 13  2  0  0  0  0
 12 10  2  0  0  0  0
 14  8  1  0  0  0  0
 16 15  1  0  0  0  0
 17 18  1  0  0  0  0
 18 19  1  0  0  0  0
 20 19  1  0  0  0  0
 22 21  1  0  0  0  0
 22 20  1  0  0  0  0
 23 22  1  0  0  0  0
 23 21  1  0  0  0  0
 24  2  1  0  0  0  0
 25 24  1  0  0  0  0
 26 25  1  0  0  0  0
 27 26  1  0  0  0  0
 29 27  1  0  0  0  0
 30 28  2  0  0  0  0
 30 29  1  0  0  0  0
 31 34  1  0  0  0  0
 31 32  1  0  0  0  0
 32 33  1  0  0  0  0
 33 29  1  0  0  0  0
 34 30  1  0  0  0  0
M  END
>  <MODEL>
2

>  <REMARK>
 VINA RESULT:      -7.5      1.714      2.268
  Name = 
  12 active torsions:
  status: ('A' for Active; 'I' for Inactive)
    1  A    between atoms: C_2  and  C_15
    2  A    between atoms: C_2  and  C_25
    3  A    between atoms: C_3  and  N_13
    4  A    between atoms: C_3  and  C_17
    5  A    between atoms: C_4  and  C_15
    6  A    between atoms: N_5  and  C_18
    7  A    between atoms: C_6  and  C_9
    8  A    between atoms: C_9  and  C_25
    9  A    between atoms: C_12  and  C_28
   10  A    between atoms: C_17  and  C_29
   11  A    between atoms: C_18  and  C_29
   12  A    between atoms: C_21  and  O_32
                            x       y       z     vdW  Elec       q    Type
                         _______ _______ _______ _____ _____    ______ ____

>  <TORSDO>
F 12

$$$$
=
 OpenBabel11062408023D

 34 37  0  0  1  0  0  0  0  0999 V2000
  162.4110  207.3260  151.2640 C   0  0  2  0  0  3  0  0  0  0  0  0
  162.1720  209.4420  150.0430 N   0  0  0  0  0  0  0  0  0  0  0  0
  162.7530  207.4680  148.9020 O   0  0  0  0  0  1  0  0  0  0  0  0
  161.8440  208.0550  152.4910 C   0  0  1  0  0  3  0  0  0  0  0  0
  161.3820  209.9170  151.0480 O   0  0  0  0  0  0  0  0  0  0  0  0
  162.0210  209.5590  152.2500 C   0  0  1  0  0  3  0  0  0  0  0  0
  161.9770  207.9850  149.9440 C   0  0  1  0  0  3  0  0  0  0  0  0
  160.0140  212.0870  154.2330 C   0  0  0  0  0  0  0  0  0  0  0  0
  160.5850  211.9730  155.5040 C   0  0  0  0  0  3  0  0  0  0  0  0
  161.5260  210.3870  153.3960 C   0  0  0  0  0  0  0  0  0  0  0  0
  161.6300  211.0710  155.7230 C   0  0  0  0  0  3  0  0  0  0  0  0
  160.4870  211.2980  153.1800 C   0  0  0  0  0  3  0  0  0  0  0  0
  162.1020  210.2810  154.6710 C   0  0  0  0  0  3  0  0  0  0  0  0
  158.7070  213.2170  153.9600 Cl  0  0  0  0  0  0  0  0  0  0  0  0
  160.4170  207.1360  153.9210 C   0  0  0  0  0  1  0  0  0  0  0  0
  160.4870  207.7490  152.6690 O   0  0  0  0  0  0  0  0  0  0  0  0
  162.2120  205.8080  151.2960 C   0  0  0  0  0  2  0  0  0  0  0  0
  160.8930  205.3730  150.6680 C   0  0  0  0  0  2  0  0  0  0  0  0
  161.1290  204.2660  149.6570 C   0  0  0  0  0  2  0  0  0  0  0  0
  160.8170  202.9150  150.2760 C   0  0  0  0  0  2  0  0  0  0  0  0
  161.0120  202.1080  147.9540 C   0  0  0  0  0  2  0  0  0  0  0  0
  160.2050  202.0070  149.2310 C   0  0  0  0  0  3  0  0  0  0  0  0
  161.1990  200.9200  148.8740 C   0  0  0  0  0  2  0  0  0  0  0  0
  161.6630  210.0530  148.8200 C   0  0  0  0  0  2  0  0  0  0  0  0
  162.2430  211.4490  148.6420 C   0  0  0  0  0  2  0  0  0  0  0  0
  161.4820  212.2510  147.5930 C   0  0  0  0  0  2  0  0  0  0  0  0
  161.0370  213.5970  148.1490 C   0  0  0  0  0  2  0  0  0  0  0  0
  160.0940  213.8500  150.7890 O   0  0  0  0  0  0  0  0  0  0  0  0
  159.6260  213.5540  148.5100 N   0  0  0  0  0  0  0  0  0  0  0  0
  159.2270  213.7270  149.8820 C   0  0  0  0  0  0  0  0  0  0  0  0
  156.9020  213.0930  149.2460 C   0  0  0  0  0  2  0  0  0  0  0  0
  157.2520  213.5120  147.8260 C   0  0  0  0  0  2  0  0  0  0  0  0
  158.6770  213.0740  147.5050 C   0  0  0  0  0  2  0  0  0  0  0  0
  157.7770  213.8450  150.2410 C   0  0  0  0  0  2  0  0  0  0  0  0
  1 17  1  6  0  0  0
  1  4  1  0  0  0  0
  2  5  1  0  0  0  0
  4 16  1  6  0  0  0
  5  6  1  0  0  0  0
  6  4  1  0  0  0  0
  6 10  1  1  0  0  0
  7  3  1  6  0  0  0
  7  2  1  0  0  0  0
  7  1  1  0  0  0  0
  8  9  1  0  0  0  0
  9 11  2  0  0  0  0
 10 13  2  0  0  0  0
 12 10  1  0  0  0  0
 12  8  2  0  0  0  0
 13 11  1  0  0  0  0
 14  8  1  0  0  0  0
 16 15  1  0  0  0  0
 18 17  1  0  0  0  0
 19 20  1  0  0  0  0
 19 18  1  0  0  0  0
 21 23  1  0  0  0  0
 21 22  1  0  0  0  0
 22 20  1  0  0  0  0
 23 22  1  0  0  0  0
 24  2  1  0  0  0  0
 25 24  1  0  0  0  0
 26 27  1  0  0  0  0
 26 25  1  0  0  0  0
 27 29  1  0  0  0  0
 29 30  1  0  0  0  0
 30 34  1  0  0  0  0
 30 28  2  0  0  0  0
 31 34  1  0  0  0  0
 32 31  1  0  0  0  0
 33 32  1  0  0  0  0
 33 29  1  0  0  0  0
M  END
>  <MODEL>
3

>  <REMARK>
 VINA RESULT:      -7.4      3.253      6.760
  Name = 
  12 active torsions:
  status: ('A' for Active; 'I' for Inactive)
    1  A    between atoms: C_2  and  C_15
    2  A    between atoms: C_2  and  C_25
    3  A    between atoms: C_3  and  N_13
    4  A    between atoms: C_3  and  C_17
    5  A    between atoms: C_4  and  C_15
    6  A    between atoms: N_5  and  C_18
    7  A    between atoms: C_6  and  C_9
    8  A    between atoms: C_9  and  C_25
    9  A    between atoms: C_12  and  C_28
   10  A    between atoms: C_17  and  C_29
   11  A    between atoms: C_18  and  C_29
   12  A    between atoms: C_21  and  O_32
                            x       y       z     vdW  Elec       q    Type
                         _______ _______ _______ _____ _____    ______ ____

>  <TORSDO>
F 12

$$$$
=
 OpenBabel11062408023D

 34 37  0  0  1  0  0  0  0  0999 V2000
  161.1230  208.1120  152.4710 C   0  0  2  0  0  3  0  0  0  0  0  0
  161.5240  209.5600  150.5280 N   0  0  0  0  0  0  0  0  0  0  0  0
  161.2910  210.4880  152.6780 O   0  0  0  0  0  1  0  0  0  0  0  0
  161.3790  206.9170  151.5400 C   0  0  1  0  0  3  0  0  0  0  0  0
  162.0570  208.4950  149.8630 O   0  0  0  0  0  0  0  0  0  0  0  0
  161.1910  207.4110  150.1010 C   0  0  1  0  0  3  0  0  0  0  0  0
  161.8000  209.3970  151.9660 C   0  0  1  0  0  3  0  0  0  0  0  0
  161.1070  204.0040  148.4470 C   0  0  0  0  0  0  0  0  0  0  0  0
  161.7590  204.2570  147.2360 C   0  0  0  0  0  3  0  0  0  0  0  0
  161.3890  206.3250  149.0890 C   0  0  0  0  0  0  0  0  0  0  0  0
  162.2320  205.5410  146.9510 C   0  0  0  0  0  3  0  0  0  0  0  0
  160.9270  205.0360  149.3730 C   0  0  0  0  0  3  0  0  0  0  0  0
  162.0500  206.5730  147.8770 C   0  0  0  0  0  3  0  0  0  0  0  0
  160.5170  202.3960  148.8020 Cl  0  0  0  0  0  0  0  0  0  0  0  0
  162.5100  205.2000  152.3740 C   0  0  0  0  0  1  0  0  0  0  0  0
  162.6780  206.4200  151.7160 O   0  0  0  0  0  0  0  0  0  0  0  0
  161.3780  207.8140  153.9510 C   0  0  0  0  0  2  0  0  0  0  0  0
  160.1200  207.3660  154.6860 C   0  0  0  0  0  2  0  0  0  0  0  0
  159.9860  208.1070  156.0040 C   0  0  0  0  0  2  0  0  0  0  0  0
  159.5560  209.5420  155.7580 C   0  0  0  0  0  2  0  0  0  0  0  0
  161.7070  210.6680  156.1870 C   0  0  0  0  0  2  0  0  0  0  0  0
  160.2980  210.4630  156.7020 C   0  0  0  0  0  3  0  0  0  0  0  0
  160.6600  211.7390  155.9690 C   0  0  0  0  0  2  0  0  0  0  0  0
  162.2560  210.7270  150.0540 C   0  0  0  0  0  2  0  0  0  0  0  0
  161.9350  210.9980  148.5900 C   0  0  0  0  0  2  0  0  0  0  0  0
  162.1430  212.4610  148.2230 C   0  0  0  0  0  2  0  0  0  0  0  0
  161.3450  212.8340  146.9810 C   0  0  0  0  0  2  0  0  0  0  0  0
  159.2340  212.1040  145.2670 O   0  0  0  0  0  0  0  0  0  0  0  0
  159.9370  213.0040  147.3150 N   0  0  0  0  0  0  0  0  0  0  0  0
  158.9190  212.5720  146.3950 C   0  0  0  0  0  0  0  0  0  0  0  0
  157.2070  213.6870  147.8220 C   0  0  0  0  0  2  0  0  0  0  0  0
  158.1940  213.5720  148.9730 C   0  0  0  0  0  2  0  0  0  0  0  0
  159.6040  213.8500  148.4620 C   0  0  0  0  0  2  0  0  0  0  0  0
  157.4760  212.5940  146.7950 C   0  0  0  0  0  2  0  0  0  0  0  0
  1 17  1  1  0  0  0
  2  7  1  0  0  0  0
  4 16  1  6  0  0  0
  4  1  1  0  0  0  0
  5  6  1  0  0  0  0
  5  2  1  0  0  0  0
  6 10  1  6  0  0  0
  6  4  1  0  0  0  0
  7  1  1  0  0  0  0
  7  3  1  1  0  0  0
  8 14  1  0  0  0  0
  8 12  1  0  0  0  0
  9  8  2  0  0  0  0
 10 12  2  0  0  0  0
 11  9  1  0  0  0  0
 11 13  2  0  0  0  0
 13 10  1  0  0  0  0
 16 15  1  0  0  0  0
 17 18  1  0  0  0  0
 18 19  1  0  0  0  0
 20 19  1  0  0  0  0
 20 22  1  0  0  0  0
 21 22  1  0  0  0  0
 23 21  1  0  0  0  0
 23 22  1  0  0  0  0
 24  2  1  0  0  0  0
 25 24  1  0  0  0  0
 26 25  1  0  0  0  0
 27 29  1  0  0  0  0
 27 26  1  0  0  0  0
 28 30  2  0  0  0  0
 29 33  1  0  0  0  0
 30 34  1  0  0  0  0
 30 29  1  0  0  0  0
 31 32  1  0  0  0  0
 33 32  1  0  0  0  0
 34 31  1  0  0  0  0
M  END
>  <MODEL>
4

>  <REMARK>
 VINA RESULT:      -7.4      1.559      2.325
  Name = 
  12 active torsions:
  status: ('A' for Active; 'I' for Inactive)
    1  A    between atoms: C_2  and  C_15
    2  A    between atoms: C_2  and  C_25
    3  A    between atoms: C_3  and  N_13
    4  A    between atoms: C_3  and  C_17
    5  A    between atoms: C_4  and  C_15
    6  A    between atoms: N_5  and  C_18
    7  A    between atoms: C_6  and  C_9
    8  A    between atoms: C_9  and  C_25
    9  A    between atoms: C_12  and  C_28
   10  A    between atoms: C_17  and  C_29
   11  A    between atoms: C_18  and  C_29
   12  A    between atoms: C_21  and  O_32
                            x       y       z     vdW  Elec       q    Type
                         _______ _______ _______ _____ _____    ______ ____

>  <TORSDO>
F 12

$$$$
=
 OpenBabel11062408023D

 34 37  0  0  1  0  0  0  0  0999 V2000
  161.2690  208.8300  151.7660 C   0  0  2  0  0  3  0  0  0  0  0  0
  161.6660  209.6540  149.4880 N   0  0  0  0  0  0  0  0  0  0  0  0
  161.5500  211.1570  151.2950 O   0  0  0  0  0  1  0  0  0  0  0  0
  161.4390  207.4110  151.2040 C   0  0  1  0  0  3  0  0  0  0  0  0
  162.1270  208.4190  149.1370 O   0  0  0  0  0  0  0  0  0  0  0  0
  161.2230  207.4920  149.6880 C   0  0  1  0  0  3  0  0  0  0  0  0
  161.9850  209.8850  150.9070 C   0  0  1  0  0  3  0  0  0  0  0  0
  162.1190  204.8300  147.1460 C   0  0  0  0  0  0  0  0  0  0  0  0
  161.5550  203.6860  147.7180 C   0  0  0  0  0  3  0  0  0  0  0  0
  161.3370  206.1580  149.0180 C   0  0  0  0  0  0  0  0  0  0  0  0
  160.8770  203.7750  148.9370 C   0  0  0  0  0  3  0  0  0  0  0  0
  162.0060  206.0650  147.7930 C   0  0  0  0  0  3  0  0  0  0  0  0
  160.7660  205.0090  149.5850 C   0  0  0  0  0  3  0  0  0  0  0  0
  162.9660  204.7180  145.6200 Cl  0  0  0  0  0  0  0  0  0  0  0  0
  162.5060  205.8310  152.3400 C   0  0  0  0  0  1  0  0  0  0  0  0
  162.7190  206.9140  151.4850 O   0  0  0  0  0  0  0  0  0  0  0  0
  161.5610  208.9440  153.2650 C   0  0  0  0  0  2  0  0  0  0  0  0
  160.4920  208.2800  154.1260 C   0  0  0  0  0  2  0  0  0  0  0  0
  160.0850  209.1980  155.2630 C   0  0  0  0  0  2  0  0  0  0  0  0
  160.1920  210.6490  154.8310 C   0  0  0  0  0  2  0  0  0  0  0  0
  158.9420  212.5780  153.9390 C   0  0  0  0  0  2  0  0  0  0  0  0
  158.8100  211.1980  154.5470 C   0  0  0  0  0  3  0  0  0  0  0  0
  158.6480  211.3870  153.0520 C   0  0  0  0  0  2  0  0  0  0  0  0
  162.4330  210.6020  148.6890 C   0  0  0  0  0  2  0  0  0  0  0  0
  161.5010  211.5700  147.9730 C   0  0  0  0  0  2  0  0  0  0  0  0
  161.8470  213.0220  148.2750 C   0  0  0  0  0  2  0  0  0  0  0  0
  160.8390  213.9700  147.6400 C   0  0  0  0  0  2  0  0  0  0  0  0
  158.7250  213.1190  145.9870 O   0  0  0  0  0  0  0  0  0  0  0  0
  159.4970  213.6830  148.1280 N   0  0  0  0  0  0  0  0  0  0  0  0
  158.4810  213.2180  147.2200 C   0  0  0  0  0  0  0  0  0  0  0  0
  156.7900  213.4880  149.0300 C   0  0  0  0  0  2  0  0  0  0  0  0
  157.9370  213.3790  150.0220 C   0  0  0  0  0  2  0  0  0  0  0  0
  159.1500  214.1270  149.4790 C   0  0  0  0  0  2  0  0  0  0  0  0
  157.1500  212.7680  147.7360 C   0  0  0  0  0  2  0  0  0  0  0  0
  1 17  1  1  0  0  0
  2  7  1  0  0  0  0
  4 16  1  6  0  0  0
  4  1  1  0  0  0  0
  5  2  1  0  0  0  0
  5  6  1  0  0  0  0
  6 10  1  6  0  0  0
  6  4  1  0  0  0  0
  7  3  1  1  0  0  0
  7  1  1  0  0  0  0
  8  9  2  0  0  0  0
  8 12  1  0  0  0  0
  9 11  1  0  0  0  0
 10 13  1  0  0  0  0
 11 13  2  0  0  0  0
 12 10  2  0  0  0  0
 14  8  1  0  0  0  0
 16 15  1  0  0  0  0
 17 18  1  0  0  0  0
 18 19  1  0  0  0  0
 20 19  1  0  0  0  0
 21 22  1  0  0  0  0
 22 20  1  0  0  0  0
 23 21  1  0  0  0  0
 23 22  1  0  0  0  0
 24  2  1  0  0  0  0
 25 26  1  0  0  0  0
 25 24  1  0  0  0  0
 27 29  1  0  0  0  0
 27 26  1  0  0  0  0
 28 30  2  0  0  0  0
 29 33  1  0  0  0  0
 30 34  1  0  0  0  0
 30 29  1  0  0  0  0
 31 32  1  0  0  0  0
 33 32  1  0  0  0  0
 34 31  1  0  0  0  0
M  END
>  <MODEL>
5

>  <REMARK>
 VINA RESULT:      -7.4      2.248      3.276
  Name = 
  12 active torsions:
  status: ('A' for Active; 'I' for Inactive)
    1  A    between atoms: C_2  and  C_15
    2  A    between atoms: C_2  and  C_25
    3  A    between atoms: C_3  and  N_13
    4  A    between atoms: C_3  and  C_17
    5  A    between atoms: C_4  and  C_15
    6  A    between atoms: N_5  and  C_18
    7  A    between atoms: C_6  and  C_9
    8  A    between atoms: C_9  and  C_25
    9  A    between atoms: C_12  and  C_28
   10  A    between atoms: C_17  and  C_29
   11  A    between atoms: C_18  and  C_29
   12  A    between atoms: C_21  and  O_32
                            x       y       z     vdW  Elec       q    Type
                         _______ _______ _______ _____ _____    ______ ____

>  <TORSDO>
F 12

$$$$
=
 OpenBabel11062408023D

 34 37  0  0  1  0  0  0  0  0999 V2000
  162.4400  207.5580  150.6170 C   0  0  2  0  0  3  0  0  0  0  0  0
  162.1860  209.8270  149.7120 N   0  0  0  0  0  0  0  0  0  0  0  0
  162.6960  208.0250  148.2870 O   0  0  0  0  0  1  0  0  0  0  0  0
  161.9300  208.1150  151.9560 C   0  0  1  0  0  3  0  0  0  0  0  0
  161.4420  210.1640  150.8050 O   0  0  0  0  0  0  0  0  0  0  0  0
  162.1200  209.6360  151.9190 C   0  0  1  0  0  3  0  0  0  0  0  0
  161.9670  208.4000  149.4200 C   0  0  1  0  0  3  0  0  0  0  0  0
  162.0490  210.7340  155.5440 C   0  0  0  0  0  0  0  0  0  0  0  0
  160.8850  211.5080  155.5860 C   0  0  0  0  0  3  0  0  0  0  0  0
  161.6810  210.3010  153.1870 C   0  0  0  0  0  0  0  0  0  0  0  0
  160.1140  211.6760  154.4320 C   0  0  0  0  0  3  0  0  0  0  0  0
  162.4430  210.1280  154.3470 C   0  0  0  0  0  3  0  0  0  0  0  0
  160.5100  211.0720  153.2350 C   0  0  0  0  0  3  0  0  0  0  0  0
  163.0120  210.5230  156.9890 Cl  0  0  0  0  0  0  0  0  0  0  0  0
  160.5420  207.0380  153.3110 C   0  0  0  0  0  1  0  0  0  0  0  0
  160.5770  207.8000  152.1420 O   0  0  0  0  0  0  0  0  0  0  0  0
  162.2200  206.0530  150.4460 C   0  0  0  0  0  2  0  0  0  0  0  0
  160.9860  205.7290  149.6120 C   0  0  0  0  0  2  0  0  0  0  0  0
  160.8550  204.2290  149.4230 C   0  0  0  0  0  2  0  0  0  0  0  0
  161.5770  203.7930  148.1600 C   0  0  0  0  0  2  0  0  0  0  0  0
  162.7490  204.9770  146.3430 C   0  0  0  0  0  2  0  0  0  0  0  0
  161.4440  204.8680  147.1030 C   0  0  0  0  0  3  0  0  0  0  0  0
  161.5780  204.2360  145.7330 C   0  0  0  0  0  2  0  0  0  0  0  0
  161.6420  210.6060  148.6080 C   0  0  0  0  0  2  0  0  0  0  0  0
  162.0480  212.0680  148.7360 C   0  0  0  0  0  2  0  0  0  0  0  0
  162.7370  212.5800  147.4780 C   0  0  0  0  0  2  0  0  0  0  0  0
  161.8510  213.5670  146.7310 C   0  0  0  0  0  2  0  0  0  0  0  0
  159.6770  212.2170  145.5560 O   0  0  0  0  0  0  0  0  0  0  0  0
  161.7840  213.2190  145.3180 N   0  0  0  0  0  0  0  0  0  0  0  0
  160.6190  212.5580  144.7900 C   0  0  0  0  0  0  0  0  0  0  0  0
  161.8320  212.2130  142.6410 C   0  0  0  0  0  2  0  0  0  0  0  0
  162.7200  213.3830  143.0360 C   0  0  0  0  0  2  0  0  0  0  0  0
  163.0140  213.3150  144.5310 C   0  0  0  0  0  2  0  0  0  0  0  0
  160.4720  212.3410  143.3160 C   0  0  0  0  0  2  0  0  0  0  0  0
  1 17  1  6  0  0  0
  1  4  1  0  0  0  0
  2  5  1  0  0  0  0
  4 16  1  6  0  0  0
  5  6  1  0  0  0  0
  6  4  1  0  0  0  0
  6 10  1  1  0  0  0
  7  3  1  6  0  0  0
  7  2  1  0  0  0  0
  7  1  1  0  0  0  0
  8  9  1  0  0  0  0
  8 14  1  0  0  0  0
 10 13  2  0  0  0  0
 10 12  1  0  0  0  0
 11  9  2  0  0  0  0
 12  8  2  0  0  0  0
 13 11  1  0  0  0  0
 16 15  1  0  0  0  0
 18 17  1  0  0  0  0
 19 18  1  0  0  0  0
 20 19  1  0  0  0  0
 21 22  1  0  0  0  0
 22 20  1  0  0  0  0
 23 21  1  0  0  0  0
 23 22  1  0  0  0  0
 24 25  1  0  0  0  0
 24  2  1  0  0  0  0
 26 25  1  0  0  0  0
 27 26  1  0  0  0  0
 29 27  1  0  0  0  0
 30 29  1  0  0  0  0
 30 28  2  0  0  0  0
 31 32  1  0  0  0  0
 31 34  1  0  0  0  0
 32 33  1  0  0  0  0
 33 29  1  0  0  0  0
 34 30  1  0  0  0  0
M  END
>  <MODEL>
6

>  <REMARK>
 VINA RESULT:      -7.3      2.395      6.091
  Name = 
  12 active torsions:
  status: ('A' for Active; 'I' for Inactive)
    1  A    between atoms: C_2  and  C_15
    2  A    between atoms: C_2  and  C_25
    3  A    between atoms: C_3  and  N_13
    4  A    between atoms: C_3  and  C_17
    5  A    between atoms: C_4  and  C_15
    6  A    between atoms: N_5  and  C_18
    7  A    between atoms: C_6  and  C_9
    8  A    between atoms: C_9  and  C_25
    9  A    between atoms: C_12  and  C_28
   10  A    between atoms: C_17  and  C_29
   11  A    between atoms: C_18  and  C_29
   12  A    between atoms: C_21  and  O_32
                            x       y       z     vdW  Elec       q    Type
                         _______ _______ _______ _____ _____    ______ ____

>  <TORSDO>
F 12

$$$$
=
 OpenBabel11062408023D

 34 37  0  0  1  0  0  0  0  0999 V2000
  162.3960  207.4930  150.7510 C   0  0  2  0  0  3  0  0  0  0  0  0
  162.2180  209.7520  149.8050 N   0  0  0  0  0  0  0  0  0  0  0  0
  162.6900  207.9130  148.4150 O   0  0  0  0  0  1  0  0  0  0  0  0
  161.8890  208.0870  152.0740 C   0  0  1  0  0  3  0  0  0  0  0  0
  161.4720  210.1290  150.8840 O   0  0  0  0  0  0  0  0  0  0  0  0
  162.1230  209.6010  152.0140 C   0  0  1  0  0  3  0  0  0  0  0  0
  161.9600  208.3270  149.5350 C   0  0  1  0  0  3  0  0  0  0  0  0
  162.0030  210.7070  155.6350 C   0  0  0  0  0  0  0  0  0  0  0  0
  160.9020  211.5680  155.6360 C   0  0  0  0  0  3  0  0  0  0  0  0
  161.6900  210.3000  153.2660 C   0  0  0  0  0  0  0  0  0  0  0  0
  160.1890  211.7930  154.4550 C   0  0  0  0  0  3  0  0  0  0  0  0
  162.3940  210.0710  154.4520 C   0  0  0  0  0  3  0  0  0  0  0  0
  160.5810  211.1590  153.2720 C   0  0  0  0  0  3  0  0  0  0  0  0
  162.8940  210.4250  157.1140 Cl  0  0  0  0  0  0  0  0  0  0  0  0
  160.4550  207.0810  153.4370 C   0  0  0  0  0  1  0  0  0  0  0  0
  160.5250  207.8140  152.2510 O   0  0  0  0  0  0  0  0  0  0  0  0
  162.1350  205.9920  150.6020 C   0  0  0  0  0  2  0  0  0  0  0  0
  160.9830  205.6860  149.6520 C   0  0  0  0  0  2  0  0  0  0  0  0
  160.8320  204.1860  149.4710 C   0  0  0  0  0  2  0  0  0  0  0  0
  161.5810  203.7290  148.2320 C   0  0  0  0  0  2  0  0  0  0  0  0
  162.8110  204.8300  146.4000 C   0  0  0  0  0  2  0  0  0  0  0  0
  161.5060  204.8040  147.1680 C   0  0  0  0  0  3  0  0  0  0  0  0
  161.5950  204.1550  145.8010 C   0  0  0  0  0  2  0  0  0  0  0  0
  161.7070  210.5280  148.6820 C   0  0  0  0  0  2  0  0  0  0  0  0
  162.3390  211.9130  148.6610 C   0  0  0  0  0  2  0  0  0  0  0  0
  162.2090  212.5770  147.2960 C   0  0  0  0  0  2  0  0  0  0  0  0
  161.2630  213.7680  147.3540 C   0  0  0  0  0  2  0  0  0  0  0  0
  159.1280  213.6780  149.1880 O   0  0  0  0  0  0  0  0  0  0  0  0
  159.9100  213.3590  147.0000 N   0  0  0  0  0  0  0  0  0  0  0  0
  158.8670  213.3740  147.9920 C   0  0  0  0  0  0  0  0  0  0  0  0
  157.3690  212.2000  146.3830 C   0  0  0  0  0  2  0  0  0  0  0  0
  158.2530  212.7450  145.2720 C   0  0  0  0  0  2  0  0  0  0  0  0
  159.7120  212.6930  145.7120 C   0  0  0  0  0  2  0  0  0  0  0  0
  157.4450  213.1110  147.6030 C   0  0  0  0  0  2  0  0  0  0  0  0
  1 17  1  6  0  0  0
  1  4  1  0  0  0  0
  2  5  1  0  0  0  0
  4 16  1  6  0  0  0
  5  6  1  0  0  0  0
  6  4  1  0  0  0  0
  6 10  1  1  0  0  0
  7  3  1  6  0  0  0
  7  2  1  0  0  0  0
  7  1  1  0  0  0  0
  8  9  1  0  0  0  0
  8 14  1  0  0  0  0
 10 13  2  0  0  0  0
 10 12  1  0  0  0  0
 11  9  2  0  0  0  0
 12  8  2  0  0  0  0
 13 11  1  0  0  0  0
 16 15  1  0  0  0  0
 18 17  1  0  0  0  0
 19 18  1  0  0  0  0
 20 19  1  0  0  0  0
 21 22  1  0  0  0  0
 22 20  1  0  0  0  0
 23 21  1  0  0  0  0
 23 22  1  0  0  0  0
 24  2  1  0  0  0  0
 25 24  1  0  0  0  0
 26 27  1  0  0  0  0
 26 25  1  0  0  0  0
 29 27  1  0  0  0  0
 29 30  1  0  0  0  0
 30 28  2  0  0  0  0
 31 34  1  0  0  0  0
 32 33  1  0  0  0  0
 32 31  1  0  0  0  0
 33 29  1  0  0  0  0
 34 30  1  0  0  0  0
M  END
>  <MODEL>
7

>  <REMARK>
 VINA RESULT:      -7.3      2.795      6.442
  Name = 
  12 active torsions:
  status: ('A' for Active; 'I' for Inactive)
    1  A    between atoms: C_2  and  C_15
    2  A    between atoms: C_2  and  C_25
    3  A    between atoms: C_3  and  N_13
    4  A    between atoms: C_3  and  C_17
    5  A    between atoms: C_4  and  C_15
    6  A    between atoms: N_5  and  C_18
    7  A    between atoms: C_6  and  C_9
    8  A    between atoms: C_9  and  C_25
    9  A    between atoms: C_12  and  C_28
   10  A    between atoms: C_17  and  C_29
   11  A    between atoms: C_18  and  C_29
   12  A    between atoms: C_21  and  O_32
                            x       y       z     vdW  Elec       q    Type
                         _______ _______ _______ _____ _____    ______ ____

>  <TORSDO>
F 12

$$$$
=
 OpenBabel11062408023D

 34 37  0  0  1  0  0  0  0  0999 V2000
  160.9440  207.5660  152.5600 C   0  0  2  0  0  3  0  0  0  0  0  0
  161.4880  209.0680  150.6960 N   0  0  0  0  0  0  0  0  0  0  0  0
  161.2190  209.9200  152.8730 O   0  0  0  0  0  1  0  0  0  0  0  0
  161.1760  206.3980  151.5900 C   0  0  1  0  0  3  0  0  0  0  0  0
  161.9920  208.0060  150.0050 O   0  0  0  0  0  0  0  0  0  0  0  0
  161.0670  206.9580  150.1660 C   0  0  1  0  0  3  0  0  0  0  0  0
  161.7010  208.8350  152.1340 C   0  0  1  0  0  3  0  0  0  0  0  0
  161.9330  205.3040  146.8710 C   0  0  0  0  0  0  0  0  0  0  0  0
  161.5880  203.9730  147.1190 C   0  0  0  0  0  3  0  0  0  0  0  0
  161.2500  205.9050  149.1180 C   0  0  0  0  0  0  0  0  0  0  0  0
  161.0680  203.6040  148.3630 C   0  0  0  0  0  3  0  0  0  0  0  0
  161.7600  206.2700  147.8680 C   0  0  0  0  0  3  0  0  0  0  0  0
  160.8970  204.5690  149.3610 C   0  0  0  0  0  3  0  0  0  0  0  0
  162.5820  205.7640  145.3120 Cl  0  0  0  0  0  0  0  0  0  0  0  0
  162.1870  204.5160  152.1910 C   0  0  0  0  0  1  0  0  0  0  0  0
  162.4420  205.8290  151.7900 O   0  0  0  0  0  0  0  0  0  0  0  0
  161.1280  207.1950  154.0340 C   0  0  0  0  0  2  0  0  0  0  0  0
  159.8920  207.4930  154.8750 C   0  0  0  0  0  2  0  0  0  0  0  0
  160.2130  207.3610  156.3520 C   0  0  0  0  0  2  0  0  0  0  0  0
  160.6340  208.7050  156.9190 C   0  0  0  0  0  2  0  0  0  0  0  0
  159.4430  210.8530  157.1390 C   0  0  0  0  0  2  0  0  0  0  0  0
  159.9450  209.8170  156.1560 C   0  0  0  0  0  3  0  0  0  0  0  0
  160.7140  211.1070  156.3570 C   0  0  0  0  0  2  0  0  0  0  0  0
  162.2930  210.2160  150.2970 C   0  0  0  0  0  2  0  0  0  0  0  0
  162.0040  210.5920  148.8500 C   0  0  0  0  0  2  0  0  0  0  0  0
  161.6960  212.0760  148.6980 C   0  0  0  0  0  2  0  0  0  0  0  0
  162.3570  212.6480  147.4510 C   0  0  0  0  0  2  0  0  0  0  0  0
  163.0460  213.2770  144.7950 O   0  0  0  0  0  0  0  0  0  0  0  0
  161.3870  212.7580  146.3690 N   0  0  0  0  0  0  0  0  0  0  0  0
  161.8290  213.0500  145.0310 C   0  0  0  0  0  0  0  0  0  0  0  0
  159.4490  213.3400  144.3480 C   0  0  0  0  0  2  0  0  0  0  0  0
  159.0760  212.4750  145.5430 C   0  0  0  0  0  2  0  0  0  0  0  0
  159.9700  212.8300  146.7250 C   0  0  0  0  0  2  0  0  0  0  0  0
  160.8630  213.0070  143.8870 C   0  0  0  0  0  2  0  0  0  0  0  0
  1 17  1  1  0  0  0
  2  7  1  0  0  0  0
  4 16  1  1  0  0  0
  4  1  1  0  0  0  0
  5  6  1  0  0  0  0
  5  2  1  0  0  0  0
  6 10  1  6  0  0  0
  6  4  1  0  0  0  0
  7  1  1  0  0  0  0
  7  3  1  1  0  0  0
  8  9  2  0  0  0  0
  8 12  1  0  0  0  0
  9 11  1  0  0  0  0
 10 13  1  0  0  0  0
 11 13  2  0  0  0  0
 12 10  2  0  0  0  0
 14  8  1  0  0  0  0
 16 15  1  0  0  0  0
 17 18  1  0  0  0  0
 18 19  1  0  0  0  0
 19 20  1  0  0  0  0
 22 23  1  0  0  0  0
 22 20  1  0  0  0  0
 22 21  1  0  0  0  0
 23 21  1  0  0  0  0
 24  2  1  0  0  0  0
 25 24  1  0  0  0  0
 26 25  1  0  0  0  0
 27 26  1  0  0  0  0
 28 30  2  0  0  0  0
 29 33  1  0  0  0  0
 29 27  1  0  0  0  0
 30 29  1  0  0  0  0
 31 32  1  0  0  0  0
 32 33  1  0  0  0  0
 34 31  1  0  0  0  0
 34 30  1  0  0  0  0
M  END
>  <MODEL>
8

>  <REMARK>
 VINA RESULT:      -7.2      1.492      2.104
  Name = 
  12 active torsions:
  status: ('A' for Active; 'I' for Inactive)
    1  A    between atoms: C_2  and  C_15
    2  A    between atoms: C_2  and  C_25
    3  A    between atoms: C_3  and  N_13
    4  A    between atoms: C_3  and  C_17
    5  A    between atoms: C_4  and  C_15
    6  A    between atoms: N_5  and  C_18
    7  A    between atoms: C_6  and  C_9
    8  A    between atoms: C_9  and  C_25
    9  A    between atoms: C_12  and  C_28
   10  A    between atoms: C_17  and  C_29
   11  A    between atoms: C_18  and  C_29
   12  A    between atoms: C_21  and  O_32
                            x       y       z     vdW  Elec       q    Type
                         _______ _______ _______ _____ _____    ______ ____

>  <TORSDO>
F 12

$$$$
=
 OpenBabel11062408023D

 34 37  0  0  1  0  0  0  0  0999 V2000
  160.9870  207.4160  152.3440 C   0  0  2  0  0  3  0  0  0  0  0  0
  161.5370  209.0050  150.5540 N   0  0  0  0  0  0  0  0  0  0  0  0
  161.2200  209.7590  152.7610 O   0  0  0  0  0  1  0  0  0  0  0  0
  161.2540  206.2940  151.3290 C   0  0  1  0  0  3  0  0  0  0  0  0
  162.0690  207.9810  149.8280 O   0  0  0  0  0  0  0  0  0  0  0  0
  161.1580  206.9130  149.9290 C   0  0  1  0  0  3  0  0  0  0  0  0
  161.7310  208.7130  151.9850 C   0  0  1  0  0  3  0  0  0  0  0  0
  161.2080  203.6200  148.0580 C   0  0  0  0  0  0  0  0  0  0  0  0
  161.7820  203.9920  146.8390 C   0  0  0  0  0  3  0  0  0  0  0  0
  161.3740  205.9090  148.8400 C   0  0  0  0  0  0  0  0  0  0  0  0
  162.1580  205.3200  146.6180 C   0  0  0  0  0  3  0  0  0  0  0  0
  161.0090  204.5770  149.0590 C   0  0  0  0  0  3  0  0  0  0  0  0
  161.9560  206.2770  147.6180 C   0  0  0  0  0  3  0  0  0  0  0  0
  160.7400  201.9570  148.3330 Cl  0  0  0  0  0  0  0  0  0  0  0  0
  162.2820  204.4490  152.0070 C   0  0  0  0  0  1  0  0  0  0  0  0
  162.5250  205.7370  151.5260 O   0  0  0  0  0  0  0  0  0  0  0  0
  161.1540  206.9860  153.8040 C   0  0  0  0  0  2  0  0  0  0  0  0
  160.1960  207.7100  154.7440 C   0  0  0  0  0  2  0  0  0  0  0  0
  160.9160  208.1240  156.0140 C   0  0  0  0  0  2  0  0  0  0  0  0
  160.6640  209.5930  156.3050 C   0  0  0  0  0  2  0  0  0  0  0  0
  158.7070  211.0610  156.6140 C   0  0  0  0  0  2  0  0  0  0  0  0
  159.3270  210.0030  155.7250 C   0  0  0  0  0  3  0  0  0  0  0  0
  159.3870  211.4620  155.3220 C   0  0  0  0  0  2  0  0  0  0  0  0
  162.3300  210.1810  150.2180 C   0  0  0  0  0  2  0  0  0  0  0  0
  162.1020  210.5790  148.7660 C   0  0  0  0  0  2  0  0  0  0  0  0
  161.8000  212.0650  148.6240 C   0  0  0  0  0  2  0  0  0  0  0  0
  162.1330  212.5610  147.2240 C   0  0  0  0  0  2  0  0  0  0  0  0
  162.1210  212.9890  144.4410 O   0  0  0  0  0  0  0  0  0  0  0  0
  160.9170  212.7000  146.4330 N   0  0  0  0  0  0  0  0  0  0  0  0
  160.9990  212.8820  145.0070 C   0  0  0  0  0  0  0  0  0  0  0  0
  158.5500  213.3430  144.9620 C   0  0  0  0  0  2  0  0  0  0  0  0
  158.4540  212.5780  146.2720 C   0  0  0  0  0  2  0  0  0  0  0  0
  159.6570  212.9130  147.1460 C   0  0  0  0  0  2  0  0  0  0  0  0
  159.7590  212.8640  144.1670 C   0  0  0  0  0  2  0  0  0  0  0  0
  1 17  1  1  0  0  0
  2  7  1  0  0  0  0
  4 16  1  1  0  0  0
  4  1  1  0  0  0  0
  5  6  1  0  0  0  0
  5  2  1  0  0  0  0
  6 10  1  6  0  0  0
  6  4  1  0  0  0  0
  7  1  1  0  0  0  0
  7  3  1  1  0  0  0
  8 14  1  0  0  0  0
  8 12  1  0  0  0  0
  9  8  2  0  0  0  0
 10 12  2  0  0  0  0
 11  9  1  0  0  0  0
 11 13  2  0  0  0  0
 13 10  1  0  0  0  0
 16 15  1  0  0  0  0
 17 18  1  0  0  0  0
 18 19  1  0  0  0  0
 19 20  1  0  0  0  0
 22 20  1  0  0  0  0
 22 21  1  0  0  0  0
 23 22  1  0  0  0  0
 23 21  1  0  0  0  0
 24  2  1  0  0  0  0
 25 24  1  0  0  0  0
 26 25  1  0  0  0  0
 27 26  1  0  0  0  0
 28 30  2  0  0  0  0
 29 33  1  0  0  0  0
 29 27  1  0  0  0  0
 30 29  1  0  0  0  0
 31 32  1  0  0  0  0
 32 33  1  0  0  0  0
 34 31  1  0  0  0  0
 34 30  1  0  0  0  0
M  END
>  <MODEL>
9

>  <REMARK>
 VINA RESULT:      -7.1      1.305      1.945
  Name = 
  12 active torsions:
  status: ('A' for Active; 'I' for Inactive)
    1  A    between atoms: C_2  and  C_15
    2  A    between atoms: C_2  and  C_25
    3  A    between atoms: C_3  and  N_13
    4  A    between atoms: C_3  and  C_17
    5  A    between atoms: C_4  and  C_15
    6  A    between atoms: N_5  and  C_18
    7  A    between atoms: C_6  and  C_9
    8  A    between atoms: C_9  and  C_25
    9  A    between atoms: C_12  and  C_28
   10  A    between atoms: C_17  and  C_29
   11  A    between atoms: C_18  and  C_29
   12  A    between atoms: C_21  and  O_32
                            x       y       z     vdW  Elec       q    Type
                         _______ _______ _______ _____ _____    ______ ____

>  <TORSDO>
F 12

$$$$
