=
 OpenBabel11062409453D

 34 39  0  0  1  0  0  0  0  0999 V2000
  160.8310  211.0590  152.7970 C   0  0  2  0  0  3  0  0  0  0  0  0
  160.1120  213.5350  150.1560 C   0  0  0  0  0  3  0  0  0  0  0  0
  158.8690  213.1530  152.1680 C   0  0  0  0  0  2  0  0  0  0  0  0
  160.1720  211.8230  155.2220 C   0  0  0  0  0  0  0  0  0  0  0  0
  159.3450  212.7800  155.6920 N   0  0  0  0  0  0  0  0  0  0  0  0
  161.0910  211.1080  156.0400 N   0  0  0  0  0  1  0  0  0  0  0  0
  159.2280  212.7770  153.5250 N   0  0  0  0  0  0  0  0  0  0  0  0
  160.0940  211.8110  153.8410 C   0  0  0  0  0  0  0  0  0  0  0  0
  158.7740  213.3390  154.6320 N   0  0  0  0  0  0  0  0  0  0  0  0
  161.0610  213.4600  149.0410 C   0  0  0  0  0  3  0  0  0  0  0  0
  161.8460  212.4570  148.6420 C   0  0  0  0  0  0  0  0  0  0  0  0
  161.8760  211.1230  149.2660 C   0  0  0  0  0  3  0  0  0  0  0  0
  159.9620  212.7430  151.2140 C   0  0  2  0  0  3  0  0  0  0  0  0
  161.4480  210.7400  150.4650 C   0  0  0  0  0  3  0  0  0  0  0  0
  160.7920  211.5330  151.5230 C   0  0  0  0  0  0  0  0  0  0  0  0
  162.6630  212.6660  147.4790 N   0  0  0  0  0  0  0  0  0  0  0  0
  162.1590  213.3190  146.3750 O   0  0  0  0  0  0  0  0  0  0  0  0
  163.8460  212.2680  147.4560 O   0  0  0  0  0  0  0  0  0  0  0  0
  160.9220  208.6810  153.3020 N   0  0  0  0  0  0  0  0  0  0  0  0
  161.5440  209.7970  153.1020 C   0  0  0  0  0  3  0  0  0  0  0  0
  161.6540  207.4550  153.5890 C   0  0  0  0  0  2  0  0  0  0  0  0
  161.0450  206.1690  150.0020 C   0  0  0  0  0  2  0  0  0  0  0  0
  161.2810  205.0920  152.7840 C   0  0  0  0  0  2  0  0  0  0  0  0
  160.6800  202.4370  149.4430 C   0  0  0  0  0  0  0  0  0  0  0  0
  160.7200  203.8190  149.2270 C   0  0  0  0  0  3  0  0  0  0  0  0
  160.9270  204.6990  150.2930 C   0  0  0  0  0  0  0  0  0  0  0  0
  161.0500  202.8060  151.8120 C   0  0  0  0  0  3  0  0  0  0  0  0
  161.1180  204.1860  151.5960 C   0  0  0  0  0  0  0  0  0  0  0  0
  160.8330  201.9350  150.7420 C   0  0  0  0  0  3  0  0  0  0  0  0
  161.6890  206.5110  152.3860 C   0  0  1  0  0  3  0  0  0  0  0  0
  160.8170  207.0220  151.2440 C   0  0  0  0  0  2  0  0  0  0  0  0
  160.4150  201.5070  148.3020 C   0  0  2  0  0  3  0  0  0  0  0  0
  161.5140  200.6420  148.1280 O   0  0  0  0  0  0  0  0  0  0  0  0
  161.4050  201.7060  147.2170 C   0  0  0  0  0  2  0  0  0  0  0  0
  1 20  1  6  0  0  0
  1  8  1  0  0  0  0
  3  7  1  0  0  0  0
  4  5  1  0  0  0  0
  4  6  1  0  0  0  0
  7  8  1  0  0  0  0
  7  9  1  0  0  0  0
  8  4  2  0  0  0  0
  9  5  2  0  0  0  0
 10  2  2  0  0  0  0
 11 10  1  0  0  0  0
 11 12  2  0  0  0  0
 12 14  1  0  0  0  0
 13  2  1  1  0  0  0
 13 15  1  0  0  0  0
 13  3  1  0  0  0  0
 14 15  2  0  0  0  0
 15  1  1  0  0  0  0
 16 11  1  0  0  0  0
 17 16  2  0  0  0  0
 18 16  2  0  0  0  0
 19 21  1  0  0  0  0
 20 19  2  0  0  0  0
 22 26  1  0  0  0  0
 22 31  1  0  0  0  0
 24 29  1  0  0  0  0
 25 24  2  0  0  0  0
 25 26  1  0  0  0  0
 26 28  2  0  0  0  0
 28 27  1  0  0  0  0
 28 23  1  0  0  0  0
 29 27  2  0  0  0  0
 30 23  1  0  0  0  0
 30 21  1  1  0  0  0
 31 30  1  0  0  0  0
 32 24  1  1  0  0  0
 33 32  1  0  0  0  0
 34 33  1  0  0  0  0
 34 32  1  0  0  0  0
M  END
>  <MODEL>
1

>  <REMARK>
 VINA RESULT:      -9.1      0.000      0.000
  Name = 
  5 active torsions:
  status: ('A' for Active; 'I' for Inactive)
    1  A    between atoms: C_1  and  C_9
    2  A    between atoms: N_3  and  C_25
    3  A    between atoms: C_7  and  C_11
    4  A    between atoms: N_8  and  C_18
    5  A    between atoms: C_18  and  C_30
                            x       y       z     vdW  Elec       q    Type
                         _______ _______ _______ _____ _____    ______ ____

>  <TORSDO>
F 5

$$$$
=
 OpenBabel11062409453D

 34 39  0  0  1  0  0  0  0  0999 V2000
  160.4700  211.5130  152.0260 C   0  0  2  0  0  3  0  0  0  0  0  0
  157.4620  213.4450  152.9440 C   0  0  0  0  0  3  0  0  0  0  0  0
  159.2540  214.1380  151.5130 C   0  0  0  0  0  2  0  0  0  0  0  0
  161.3730  211.9790  149.6040 C   0  0  0  0  0  0  0  0  0  0  0  0
  161.1810  212.9880  148.7290 N   0  0  0  0  0  0  0  0  0  0  0  0
  162.0060  210.7520  149.2610 N   0  0  0  0  0  1  0  0  0  0  0  0
  160.1110  213.4550  150.5580 N   0  0  0  0  0  0  0  0  0  0  0  0
  160.7000  212.2750  150.7750 C   0  0  0  0  0  0  0  0  0  0  0  0
  160.4150  213.8810  149.3440 N   0  0  0  0  0  0  0  0  0  0  0  0
  156.5940  212.7230  153.8800 C   0  0  0  0  0  2  0  0  0  0  0  0
  156.8740  211.7260  154.7220 C   0  0  0  0  0  0  0  0  0  0  0  0
  158.2150  211.1490  154.9140 C   0  0  0  0  0  3  0  0  0  0  0  0
  158.6750  213.1440  152.4880 C   0  0  0  0  0  0  0  0  0  0  0  0
  159.2870  211.2200  154.1320 C   0  0  0  0  0  3  0  0  0  0  0  0
  159.4620  211.9190  152.8430 C   0  0  0  0  0  0  0  0  0  0  0  0
  155.8100  211.2290  155.5510 N   0  0  0  0  0  0  0  0  0  0  0  0
  155.1170  210.0930  155.1970 O   0  0  0  0  0  0  0  0  0  0  0  0
  155.5070  211.8160  156.6110 O   0  0  0  0  0  0  0  0  0  0  0  0
  161.0090  209.1480  152.2050 N   0  0  0  0  0  0  0  0  0  0  0  0
  161.3390  210.3800  152.4180 C   0  0  0  0  0  3  0  0  0  0  0  0
  161.8920  208.0560  152.5930 C   0  0  0  0  0  2  0  0  0  0  0  0
  161.1530  206.1680  149.3090 C   0  0  0  0  0  2  0  0  0  0  0  0
  161.4460  205.5980  152.2320 C   0  0  0  0  0  2  0  0  0  0  0  0
  160.6940  202.4070  149.4350 C   0  0  0  0  0  0  0  0  0  0  0  0
  160.7570  203.7270  148.9750 C   0  0  0  0  0  3  0  0  0  0  0  0
  161.0120  204.7770  149.8610 C   0  0  0  0  0  0  0  0  0  0  0  0
  161.1390  203.1820  151.6900 C   0  0  0  0  0  3  0  0  0  0  0  0
  161.2300  204.5000  151.2300 C   0  0  0  0  0  0  0  0  0  0  0  0
  160.8730  202.1410  150.7980 C   0  0  0  0  0  3  0  0  0  0  0  0
  161.8720  206.9130  151.5770 C   0  0  1  0  0  3  0  0  0  0  0  0
  160.9780  207.2340  150.3850 C   0  0  0  0  0  2  0  0  0  0  0  0
  160.3760  201.2960  148.4840 C   0  0  2  0  0  3  0  0  0  0  0  0
  161.5330  200.5260  148.2500 O   0  0  0  0  0  0  0  0  0  0  0  0
  161.1650  201.4260  147.2370 C   0  0  0  0  0  2  0  0  0  0  0  0
  1 20  1  1  0  0  0
  1 15  1  0  0  0  0
  2 10  1  0  0  0  0
  3 13  1  0  0  0  0
  4  8  2  0  0  0  0
  5  9  2  0  0  0  0
  5  4  1  0  0  0  0
  6  4  1  0  0  0  0
  7  8  1  0  0  0  0
  7  3  1  0  0  0  0
  8  1  1  0  0  0  0
  9  7  1  0  0  0  0
 10 11  1  0  0  0  0
 11 12  2  0  0  0  0
 11 16  1  0  0  0  0
 13 15  1  0  0  0  0
 13  2  2  0  0  0  0
 14 12  1  0  0  0  0
 15 14  2  0  0  0  0
 16 18  2  0  0  0  0
 17 16  2  0  0  0  0
 19 20  2  0  0  0  0
 19 21  1  0  0  0  0
 22 26  1  0  0  0  0
 22 31  1  0  0  0  0
 24 29  1  0  0  0  0
 25 24  2  0  0  0  0
 25 26  1  0  0  0  0
 26 28  2  0  0  0  0
 28 27  1  0  0  0  0
 28 23  1  0  0  0  0
 29 27  2  0  0  0  0
 30 23  1  0  0  0  0
 30 21  1  1  0  0  0
 31 30  1  0  0  0  0
 32 24  1  1  0  0  0
 33 32  1  0  0  0  0
 34 33  1  0  0  0  0
 34 32  1  0  0  0  0
M  END
>  <MODEL>
2

>  <REMARK>
 VINA RESULT:      -8.9      3.320      4.820
  Name = 
  5 active torsions:
  status: ('A' for Active; 'I' for Inactive)
    1  A    between atoms: C_1  and  C_9
    2  A    between atoms: N_3  and  C_25
    3  A    between atoms: C_7  and  C_11
    4  A    between atoms: N_8  and  C_18
    5  A    between atoms: C_18  and  C_30
                            x       y       z     vdW  Elec       q    Type
                         _______ _______ _______ _____ _____    ______ ____

>  <TORSDO>
F 5

$$$$
=
 OpenBabel11062409453D

 34 39  0  0  1  0  0  0  0  0999 V2000
  160.6830  210.0080  152.9560 C   0  0  2  0  0  3  0  0  0  0  0  0
  160.1300  212.8470  150.6630 C   0  0  0  0  0  3  0  0  0  0  0  0
  158.7800  212.2050  152.5340 C   0  0  0  0  0  2  0  0  0  0  0  0
  159.9060  210.4320  155.4290 C   0  0  0  0  0  0  0  0  0  0  0  0
  159.0660  211.3270  155.9880 N   0  0  0  0  0  0  0  0  0  0  0  0
  160.7730  209.5920  156.1810 N   0  0  0  0  0  1  0  0  0  0  0  0
  159.0620  211.6350  153.8400 N   0  0  0  0  0  0  0  0  0  0  0  0
  159.9010  210.6170  154.0580 C   0  0  0  0  0  0  0  0  0  0  0  0
  158.5570  212.0420  154.9910 N   0  0  0  0  0  0  0  0  0  0  0  0
  161.1370  212.9130  149.5980 C   0  0  0  0  0  3  0  0  0  0  0  0
  161.9300  211.9630  149.1000 C   0  0  0  0  0  0  0  0  0  0  0  0
  161.9130  210.5540  149.5280 C   0  0  0  0  0  3  0  0  0  0  0  0
  159.9170  211.9150  151.5880 C   0  0  2  0  0  3  0  0  0  0  0  0
  161.4180  210.0120  150.6360 C   0  0  0  0  0  3  0  0  0  0  0  0
  160.7160  210.6590  151.7620 C   0  0  0  0  0  0  0  0  0  0  0  0
  162.8100  212.3200  148.0200 N   0  0  0  0  0  0  0  0  0  0  0  0
  162.3020  212.7200  146.8050 O   0  0  0  0  0  0  0  0  0  0  0  0
  164.0490  212.2820  148.1740 O   0  0  0  0  0  0  0  0  0  0  0  0
  160.7610  207.5770  152.9160 N   0  0  0  0  0  0  0  0  0  0  0  0
  161.3650  208.7030  153.1140 C   0  0  0  0  0  3  0  0  0  0  0  0
  161.4640  206.3110  153.0690 C   0  0  0  0  0  2  0  0  0  0  0  0
  161.4670  205.7620  149.2490 C   0  0  0  0  0  2  0  0  0  0  0  0
  161.1310  204.1760  151.7640 C   0  0  0  0  0  2  0  0  0  0  0  0
  161.0290  202.2400  147.9150 C   0  0  0  0  0  0  0  0  0  0  0  0
  161.1760  203.6300  147.9850 C   0  0  0  0  0  3  0  0  0  0  0  0
  161.2250  204.2780  149.2220 C   0  0  0  0  0  0  0  0  0  0  0  0
  160.9720  202.1350  150.3380 C   0  0  0  0  0  3  0  0  0  0  0  0
  161.1460  203.5210  150.4120 C   0  0  0  0  0  0  0  0  0  0  0  0
  160.9140  201.4970  149.0970 C   0  0  0  0  0  3  0  0  0  0  0  0
  161.6750  205.6050  151.7280 C   0  0  1  0  0  3  0  0  0  0  0  0
  161.0550  206.3880  150.5760 C   0  0  0  0  0  2  0  0  0  0  0  0
  160.9340  201.5610  146.5850 C   0  0  2  0  0  3  0  0  0  0  0  0
  161.0800  202.5120  145.5560 O   0  0  0  0  0  0  0  0  0  0  0  0
  159.7730  202.0680  145.8160 C   0  0  0  0  0  2  0  0  0  0  0  0
  1 20  1  6  0  0  0
  1  8  1  0  0  0  0
  3  7  1  0  0  0  0
  4  5  1  0  0  0  0
  4  6  1  0  0  0  0
  7  8  1  0  0  0  0
  7  9  1  0  0  0  0
  8  4  2  0  0  0  0
  9  5  2  0  0  0  0
 10  2  2  0  0  0  0
 11 12  2  0  0  0  0
 11 10  1  0  0  0  0
 12 14  1  0  0  0  0
 13  2  1  1  0  0  0
 13 15  1  0  0  0  0
 13  3  1  0  0  0  0
 14 15  2  0  0  0  0
 15  1  1  0  0  0  0
 16 18  2  0  0  0  0
 16 11  1  0  0  0  0
 17 16  2  0  0  0  0
 19 21  1  0  0  0  0
 19 20  2  0  0  0  0
 22 31  1  0  0  0  0
 24 25  2  0  0  0  0
 24 29  1  0  0  0  0
 25 26  1  0  0  0  0
 26 22  1  0  0  0  0
 26 28  2  0  0  0  0
 27 28  1  0  0  0  0
 28 23  1  0  0  0  0
 29 27  2  0  0  0  0
 30 23  1  0  0  0  0
 30 21  1  1  0  0  0
 31 30  1  0  0  0  0
 32 24  1  1  0  0  0
 33 34  1  0  0  0  0
 33 32  1  0  0  0  0
 34 32  1  0  0  0  0
M  END
>  <MODEL>
3

>  <REMARK>
 VINA RESULT:      -8.9      1.162      1.331
  Name = 
  5 active torsions:
  status: ('A' for Active; 'I' for Inactive)
    1  A    between atoms: C_1  and  C_9
    2  A    between atoms: N_3  and  C_25
    3  A    between atoms: C_7  and  C_11
    4  A    between atoms: N_8  and  C_18
    5  A    between atoms: C_18  and  C_30
                            x       y       z     vdW  Elec       q    Type
                         _______ _______ _______ _____ _____    ______ ____

>  <TORSDO>
F 5

$$$$
=
 OpenBabel11062409453D

 34 39  0  0  1  0  0  0  0  0999 V2000
  160.9170  211.4290  151.2670 C   0  0  2  0  0  3  0  0  0  0  0  0
  158.4020  214.1110  151.5910 C   0  0  0  0  0  3  0  0  0  0  0  0
  160.3030  214.0690  150.1340 C   0  0  0  0  0  2  0  0  0  0  0  0
  161.9010  211.1390  148.8490 C   0  0  0  0  0  0  0  0  0  0  0  0
  161.9340  211.9440  147.7670 N   0  0  0  0  0  0  0  0  0  0  0  0
  162.2520  209.7600  148.8140 N   0  0  0  0  0  1  0  0  0  0  0  0
  160.9900  213.0240  149.3940 N   0  0  0  0  0  0  0  0  0  0  0  0
  161.3080  211.8260  149.8920 C   0  0  0  0  0  0  0  0  0  0  0  0
  161.3800  213.0930  148.1330 N   0  0  0  0  0  0  0  0  0  0  0  0
  157.3970  213.8180  152.6180 C   0  0  0  0  0  2  0  0  0  0  0  0
  157.4520  212.9990  153.6700 C   0  0  0  0  0  0  0  0  0  0  0  0
  158.6350  212.2080  154.0500 C   0  0  0  0  0  3  0  0  0  0  0  0
  159.5200  213.4650  151.2720 C   0  0  0  0  0  0  0  0  0  0  0  0
  159.6980  211.8730  153.3250 C   0  0  0  0  0  3  0  0  0  0  0  0
  160.0210  212.2120  151.9250 C   0  0  0  0  0  0  0  0  0  0  0  0
  156.3050  212.9390  154.5350 N   0  0  0  0  0  0  0  0  0  0  0  0
  156.3460  212.2100  155.7030 O   0  0  0  0  0  0  0  0  0  0  0  0
  155.2590  213.5550  154.2440 O   0  0  0  0  0  0  0  0  0  0  0  0
  160.9130  209.1150  152.0130 N   0  0  0  0  0  0  0  0  0  0  0  0
  161.5180  210.2550  151.9390 C   0  0  0  0  0  3  0  0  0  0  0  0
  161.5360  207.9750  152.6730 C   0  0  0  0  0  2  0  0  0  0  0  0
  160.8070  204.1890  152.4970 C   0  0  0  0  0  2  0  0  0  0  0  0
  161.4540  206.4580  150.6570 C   0  0  0  0  0  2  0  0  0  0  0  0
  160.7080  202.5090  149.1000 C   0  0  0  0  0  0  0  0  0  0  0  0
  160.6910  202.7200  150.4840 C   0  0  0  0  0  3  0  0  0  0  0  0
  160.9170  203.9940  151.0110 C   0  0  0  0  0  0  0  0  0  0  0  0
  161.1870  204.8630  148.7580 C   0  0  0  0  0  3  0  0  0  0  0  0
  161.1440  205.0830  150.1380 C   0  0  0  0  0  0  0  0  0  0  0  0
  160.9700  203.5840  148.2410 C   0  0  0  0  0  3  0  0  0  0  0  0
  161.0320  206.6430  152.1160 C   0  0  1  0  0  3  0  0  0  0  0  0
  161.5000  205.4640  152.9640 C   0  0  0  0  0  2  0  0  0  0  0  0
  160.5080  201.1330  148.5480 C   0  0  2  0  0  3  0  0  0  0  0  0
  161.7540  200.4850  148.4270 O   0  0  0  0  0  0  0  0  0  0  0  0
  161.1890  200.9840  147.2410 C   0  0  0  0  0  2  0  0  0  0  0  0
  1 15  1  0  0  0  0
  1 20  1  1  0  0  0
  2 10  1  0  0  0  0
  3 13  1  0  0  0  0
  4  8  2  0  0  0  0
  5  9  2  0  0  0  0
  5  4  1  0  0  0  0
  6  4  1  0  0  0  0
  7  8  1  0  0  0  0
  7  3  1  0  0  0  0
  8  1  1  0  0  0  0
  9  7  1  0  0  0  0
 10 11  1  0  0  0  0
 11 12  2  0  0  0  0
 11 16  1  0  0  0  0
 13  2  2  0  0  0  0
 13 15  1  0  0  0  0
 14 12  1  0  0  0  0
 15 14  2  0  0  0  0
 16 17  2  0  0  0  0
 18 16  2  0  0  0  0
 19 21  1  0  0  0  0
 20 19  2  0  0  0  0
 22 31  1  0  0  0  0
 23 30  1  0  0  0  0
 24 25  1  0  0  0  0
 25 26  2  0  0  0  0
 26 22  1  0  0  0  0
 27 28  2  0  0  0  0
 28 23  1  0  0  0  0
 28 26  1  0  0  0  0
 29 27  1  0  0  0  0
 29 24  2  0  0  0  0
 30 21  1  1  0  0  0
 30 31  1  0  0  0  0
 32 24  1  1  0  0  0
 33 32  1  0  0  0  0
 34 33  1  0  0  0  0
 34 32  1  0  0  0  0
M  END
>  <MODEL>
4

>  <REMARK>
 VINA RESULT:      -8.9      2.996      4.798
  Name = 
  5 active torsions:
  status: ('A' for Active; 'I' for Inactive)
    1  A    between atoms: C_1  and  C_9
    2  A    between atoms: N_3  and  C_25
    3  A    between atoms: C_7  and  C_11
    4  A    between atoms: N_8  and  C_18
    5  A    between atoms: C_18  and  C_30
                            x       y       z     vdW  Elec       q    Type
                         _______ _______ _______ _____ _____    ______ ____

>  <TORSDO>
F 5

$$$$
=
 OpenBabel11062409453D

 34 39  0  0  1  0  0  0  0  0999 V2000
  161.8380  208.4110  150.9660 C   0  0  2  0  0  3  0  0  0  0  0  0
  161.0990  204.9640  149.8720 C   0  0  0  0  0  3  0  0  0  0  0  0
  161.5570  205.7150  152.1000 C   0  0  0  0  0  2  0  0  0  0  0  0
  160.9660  209.0060  153.3710 C   0  0  0  0  0  0  0  0  0  0  0  0
  160.5860  208.2530  154.4240 N   0  0  0  0  0  0  0  0  0  0  0  0
  160.7490  210.4100  153.2900 N   0  0  0  0  0  1  0  0  0  0  0  0
  161.2580  206.9280  152.8420 N   0  0  0  0  0  0  0  0  0  0  0  0
  161.4040  208.1670  152.3630 C   0  0  0  0  0  0  0  0  0  0  0  0
  160.7860  206.9880  154.0750 N   0  0  0  0  0  0  0  0  0  0  0  0
  160.9130  204.8630  148.4210 C   0  0  0  0  0  3  0  0  0  0  0  0
  161.3330  205.6630  147.4390 C   0  0  0  0  0  0  0  0  0  0  0  0
  162.1600  206.8650  147.6390 C   0  0  0  0  0  3  0  0  0  0  0  0
  161.4980  205.9900  150.6190 C   0  0  2  0  0  3  0  0  0  0  0  0
  162.3700  207.5730  148.7440 C   0  0  0  0  0  3  0  0  0  0  0  0
  161.8530  207.3550  150.1090 C   0  0  0  0  0  0  0  0  0  0  0  0
  161.0200  205.2890  146.0870 N   0  0  0  0  0  0  0  0  0  0  0  0
  161.3490  204.0390  145.6110 O   0  0  0  0  0  0  0  0  0  0  0  0
  160.4350  206.0890  145.3270 O   0  0  0  0  0  0  0  0  0  0  0  0
  161.5880  210.5050  149.7540 N   0  0  0  0  0  0  0  0  0  0  0  0
  162.3020  209.7430  150.5160 C   0  0  0  0  0  3  0  0  0  0  0  0
  162.0690  211.8150  149.3380 C   0  0  0  0  0  2  0  0  0  0  0  0
  162.7600  213.2550  145.8250 C   0  0  0  0  0  2  0  0  0  0  0  0
  160.4670  212.1900  147.4240 C   0  0  0  0  0  2  0  0  0  0  0  0
  159.9040  213.4400  143.3380 C   0  0  0  0  0  0  0  0  0  0  0  0
  161.1630  213.5760  143.9340 C   0  0  0  0  0  3  0  0  0  0  0  0
  161.3730  213.1660  145.2540 C   0  0  0  0  0  0  0  0  0  0  0  0
  159.0460  212.4800  145.3940 C   0  0  0  0  0  3  0  0  0  0  0  0
  160.3090  212.5900  145.9850 C   0  0  0  0  0  0  0  0  0  0  0  0
  158.8440  212.9030  144.0780 C   0  0  0  0  0  3  0  0  0  0  0  0
  161.9320  212.0250  147.8290 C   0  0  1  0  0  3  0  0  0  0  0  0
  162.7600  213.2120  147.3480 C   0  0  0  0  0  2  0  0  0  0  0  0
  159.6800  213.9230  141.9400 C   0  0  2  0  0  3  0  0  0  0  0  0
  158.7130  213.1160  141.3080 O   0  0  0  0  0  0  0  0  0  0  0  0
  160.0520  212.8800  140.9550 C   0  0  0  0  0  2  0  0  0  0  0  0
  1 20  1  1  0  0  0
  1  8  1  0  0  0  0
  3  7  1  0  0  0  0
  4  5  1  0  0  0  0
  6  4  1  0  0  0  0
  7  9  1  0  0  0  0
  8  7  1  0  0  0  0
  8  4  2  0  0  0  0
  9  5  2  0  0  0  0
 10  2  2  0  0  0  0
 11 12  2  0  0  0  0
 11 10  1  0  0  0  0
 12 14  1  0  0  0  0
 13  2  1  1  0  0  0
 13  3  1  0  0  0  0
 14 15  2  0  0  0  0
 15 13  1  0  0  0  0
 15  1  1  0  0  0  0
 16 11  1  0  0  0  0
 17 16  2  0  0  0  0
 18 16  2  0  0  0  0
 19 20  2  0  0  0  0
 21 19  1  0  0  0  0
 22 31  1  0  0  0  0
 23 30  1  0  0  0  0
 24 25  2  0  0  0  0
 24 29  1  0  0  0  0
 25 26  1  0  0  0  0
 26 22  1  0  0  0  0
 26 28  2  0  0  0  0
 27 28  1  0  0  0  0
 28 23  1  0  0  0  0
 29 27  2  0  0  0  0
 30 21  1  1  0  0  0
 31 30  1  0  0  0  0
 32 24  1  1  0  0  0
 33 32  1  0  0  0  0
 34 33  1  0  0  0  0
 34 32  1  0  0  0  0
M  END
>  <MODEL>
5

>  <REMARK>
 VINA RESULT:      -8.8      3.705      8.402
  Name = 
  5 active torsions:
  status: ('A' for Active; 'I' for Inactive)
    1  A    between atoms: C_1  and  C_9
    2  A    between atoms: N_3  and  C_25
    3  A    between atoms: C_7  and  C_11
    4  A    between atoms: N_8  and  C_18
    5  A    between atoms: C_18  and  C_30
                            x       y       z     vdW  Elec       q    Type
                         _______ _______ _______ _____ _____    ______ ____

>  <TORSDO>
F 5

$$$$
=
 OpenBabel11062409453D

 34 39  0  0  1  0  0  0  0  0999 V2000
  160.6650  211.0790  152.7710 C   0  0  2  0  0  3  0  0  0  0  0  0
  160.0950  213.9440  150.5150 C   0  0  0  0  0  3  0  0  0  0  0  0
  158.8750  213.3930  152.5010 C   0  0  0  0  0  2  0  0  0  0  0  0
  160.1360  211.5550  155.2990 C   0  0  0  0  0  0  0  0  0  0  0  0
  159.4060  212.5030  155.9230 N   0  0  0  0  0  0  0  0  0  0  0  0
  161.0100  210.6620  155.9790 N   0  0  0  0  0  1  0  0  0  0  0  0
  159.2340  212.8070  153.7810 N   0  0  0  0  0  0  0  0  0  0  0  0
  160.0220  211.7380  153.9330 C   0  0  0  0  0  0  0  0  0  0  0  0
  158.8590  213.2470  154.9700 N   0  0  0  0  0  0  0  0  0  0  0  0
  161.0060  213.9450  149.3650 C   0  0  0  0  0  3  0  0  0  0  0  0
  161.6910  212.9450  148.8070 C   0  0  0  0  0  0  0  0  0  0  0  0
  161.6220  211.5400  149.2450 C   0  0  0  0  0  3  0  0  0  0  0  0
  159.9040  213.0290  151.4610 C   0  0  2  0  0  3  0  0  0  0  0  0
  161.1930  211.0330  150.3960 C   0  0  0  0  0  3  0  0  0  0  0  0
  160.6350  211.7250  151.5740 C   0  0  0  0  0  0  0  0  0  0  0  0
  162.4940  213.2430  147.6520 N   0  0  0  0  0  0  0  0  0  0  0  0
  162.2180  214.3450  146.8730 O   0  0  0  0  0  0  0  0  0  0  0  0
  163.4590  212.5130  147.3470 O   0  0  0  0  0  0  0  0  0  0  0  0
  160.5740  208.6490  152.8090 N   0  0  0  0  0  0  0  0  0  0  0  0
  161.2740  209.7330  152.8770 C   0  0  0  0  0  3  0  0  0  0  0  0
  161.2050  207.3390  152.9070 C   0  0  0  0  0  2  0  0  0  0  0  0
  161.1610  204.2430  150.6040 C   0  0  0  0  0  2  0  0  0  0  0  0
  161.5510  207.2030  150.4100 C   0  0  0  0  0  2  0  0  0  0  0  0
  161.6300  204.7410  146.8740 C   0  0  0  0  0  0  0  0  0  0  0  0
  161.4650  204.1420  148.1290 C   0  0  0  0  0  3  0  0  0  0  0  0
  161.4240  204.9210  149.2880 C   0  0  0  0  0  0  0  0  0  0  0  0
  161.7200  206.9190  147.9380 C   0  0  0  0  0  3  0  0  0  0  0  0
  161.5280  206.3270  149.1900 C   0  0  0  0  0  0  0  0  0  0  0  0
  161.7710  206.1310  146.7860 C   0  0  0  0  0  3  0  0  0  0  0  0
  160.9870  206.5010  151.6460 C   0  0  1  0  0  3  0  0  0  0  0  0
  161.5820  205.1040  151.7890 C   0  0  0  0  0  2  0  0  0  0  0  0
  161.7180  203.8930  145.6450 C   0  0  2  0  0  3  0  0  0  0  0  0
  161.5830  204.7030  144.4990 O   0  0  0  0  0  0  0  0  0  0  0  0
  160.4550  203.9530  144.8710 C   0  0  0  0  0  2  0  0  0  0  0  0
  1 20  1  6  0  0  0
  1  8  1  0  0  0  0
  3  7  1  0  0  0  0
  4  5  1  0  0  0  0
  4  6  1  0  0  0  0
  7  8  1  0  0  0  0
  7  9  1  0  0  0  0
  8  4  2  0  0  0  0
  9  5  2  0  0  0  0
 10  2  2  0  0  0  0
 11 12  2  0  0  0  0
 11 10  1  0  0  0  0
 12 14  1  0  0  0  0
 13  2  1  1  0  0  0
 13 15  1  0  0  0  0
 13  3  1  0  0  0  0
 14 15  2  0  0  0  0
 15  1  1  0  0  0  0
 16 11  1  0  0  0  0
 17 16  2  0  0  0  0
 18 16  2  0  0  0  0
 19 20  2  0  0  0  0
 19 21  1  0  0  0  0
 22 31  1  0  0  0  0
 23 30  1  0  0  0  0
 24 25  1  0  0  0  0
 25 26  2  0  0  0  0
 26 22  1  0  0  0  0
 27 28  2  0  0  0  0
 28 26  1  0  0  0  0
 28 23  1  0  0  0  0
 29 24  2  0  0  0  0
 29 27  1  0  0  0  0
 30 31  1  0  0  0  0
 30 21  1  1  0  0  0
 32 24  1  1  0  0  0
 33 34  1  0  0  0  0
 33 32  1  0  0  0  0
 34 32  1  0  0  0  0
M  END
>  <MODEL>
6

>  <REMARK>
 VINA RESULT:      -8.8      1.577      2.262
  Name = 
  5 active torsions:
  status: ('A' for Active; 'I' for Inactive)
    1  A    between atoms: C_1  and  C_9
    2  A    between atoms: N_3  and  C_25
    3  A    between atoms: C_7  and  C_11
    4  A    between atoms: N_8  and  C_18
    5  A    between atoms: C_18  and  C_30
                            x       y       z     vdW  Elec       q    Type
                         _______ _______ _______ _____ _____    ______ ____

>  <TORSDO>
F 5

$$$$
=
 OpenBabel11062409453D

 34 39  0  0  1  0  0  0  0  0999 V2000
  161.0990  206.4390  150.4620 C   0  0  2  0  0  3  0  0  0  0  0  0
  161.3470  204.5940  147.2750 C   0  0  0  0  0  3  0  0  0  0  0  0
  161.0080  206.9470  147.5700 C   0  0  0  0  0  2  0  0  0  0  0  0
  162.0570  208.8830  150.3890 C   0  0  0  0  0  0  0  0  0  0  0  0
  162.3330  209.7330  149.3790 N   0  0  0  0  0  0  0  0  0  0  0  0
  162.4660  209.1030  151.7340 N   0  0  0  0  0  1  0  0  0  0  0  0
  161.4760  207.9250  148.5380 N   0  0  0  0  0  0  0  0  0  0  0  0
  161.5020  207.7320  149.8600 C   0  0  0  0  0  0  0  0  0  0  0  0
  161.9570  209.1240  148.2600 N   0  0  0  0  0  0  0  0  0  0  0  0
  161.5110  203.1500  147.4720 C   0  0  0  0  0  3  0  0  0  0  0  0
  161.2020  202.3820  148.5180 C   0  0  0  0  0  0  0  0  0  0  0  0
  160.5500  202.8680  149.7460 C   0  0  0  0  0  3  0  0  0  0  0  0
  161.0990  205.5600  148.1550 C   0  0  2  0  0  3  0  0  0  0  0  0
  160.4460  204.1080  150.2150 C   0  0  0  0  0  3  0  0  0  0  0  0
  160.9350  205.3730  149.6330 C   0  0  0  0  0  0  0  0  0  0  0  0
  161.4540  200.9700  148.4130 N   0  0  0  0  0  0  0  0  0  0  0  0
  161.5720  200.3700  147.1790 O   0  0  0  0  0  0  0  0  0  0  0  0
  161.5800  200.2710  149.4390 O   0  0  0  0  0  0  0  0  0  0  0  0
  161.7640  206.2880  152.7970 N   0  0  0  0  0  0  0  0  0  0  0  0
  160.8230  206.3060  151.9110 C   0  0  0  0  0  3  0  0  0  0  0  0
  161.4580  206.1680  154.2160 C   0  0  0  0  0  2  0  0  0  0  0  0
  160.0820  208.7150  156.7680 C   0  0  0  0  0  2  0  0  0  0  0  0
  160.5700  208.4980  153.8240 C   0  0  0  0  0  2  0  0  0  0  0  0
  159.0090  212.1340  155.5300 C   0  0  0  0  0  0  0  0  0  0  0  0
  159.2480  211.0310  156.3580 C   0  0  0  0  0  3  0  0  0  0  0  0
  159.7650  209.8450  155.8290 C   0  0  0  0  0  0  0  0  0  0  0  0
  159.8060  210.8640  153.6240 C   0  0  0  0  0  3  0  0  0  0  0  0
  160.0700  209.7680  154.4510 C   0  0  0  0  0  0  0  0  0  0  0  0
  159.2780  212.0410  154.1590 C   0  0  0  0  0  3  0  0  0  0  0  0
  161.1430  207.5220  154.8530 C   0  0  1  0  0  3  0  0  0  0  0  0
  160.2000  207.3800  156.0430 C   0  0  0  0  0  2  0  0  0  0  0  0
  158.4140  213.3830  156.0990 C   0  0  2  0  0  3  0  0  0  0  0  0
  158.5520  214.4390  155.1750 O   0  0  0  0  0  0  0  0  0  0  0  0
  159.4460  214.4350  156.2590 C   0  0  0  0  0  2  0  0  0  0  0  0
  1 20  1  6  0  0  0
  2 10  2  0  0  0  0
  3 13  1  0  0  0  0
  3  7  1  0  0  0  0
  4  6  1  0  0  0  0
  5  4  1  0  0  0  0
  7  8  1  0  0  0  0
  8  4  2  0  0  0  0
  8  1  1  0  0  0  0
  9  7  1  0  0  0  0
  9  5  2  0  0  0  0
 10 11  1  0  0  0  0
 11 12  2  0  0  0  0
 12 14  1  0  0  0  0
 13  2  1  1  0  0  0
 13 15  1  0  0  0  0
 15 14  2  0  0  0  0
 15  1  1  0  0  0  0
 16 11  1  0  0  0  0
 16 18  2  0  0  0  0
 17 16  2  0  0  0  0
 19 21  1  0  0  0  0
 20 19  2  0  0  0  0
 23 28  1  0  0  0  0
 23 30  1  0  0  0  0
 24 25  1  0  0  0  0
 26 25  2  0  0  0  0
 26 22  1  0  0  0  0
 27 29  1  0  0  0  0
 27 28  2  0  0  0  0
 28 26  1  0  0  0  0
 29 24  2  0  0  0  0
 30 21  1  6  0  0  0
 30 31  1  0  0  0  0
 31 22  1  0  0  0  0
 32 24  1  6  0  0  0
 32 34  1  0  0  0  0
 33 32  1  0  0  0  0
 33 34  1  0  0  0  0
M  END
>  <MODEL>
7

>  <REMARK>
 VINA RESULT:      -8.5      3.640      8.899
  Name = 
  5 active torsions:
  status: ('A' for Active; 'I' for Inactive)
    1  A    between atoms: C_1  and  C_9
    2  A    between atoms: N_3  and  C_25
    3  A    between atoms: C_7  and  C_11
    4  A    between atoms: N_8  and  C_18
    5  A    between atoms: C_18  and  C_30
                            x       y       z     vdW  Elec       q    Type
                         _______ _______ _______ _____ _____    ______ ____

>  <TORSDO>
F 5

$$$$
=
 OpenBabel11062409453D

 34 39  0  0  1  0  0  0  0  0999 V2000
  160.6750  210.0320  153.1100 C   0  0  2  0  0  3  0  0  0  0  0  0
  161.2290  206.5370  152.0610 C   0  0  0  0  0  3  0  0  0  0  0  0
  161.2240  207.4010  154.2950 C   0  0  0  0  0  2  0  0  0  0  0  0
  159.4600  210.3010  155.4220 C   0  0  0  0  0  0  0  0  0  0  0  0
  159.2710  209.4660  156.4650 N   0  0  0  0  0  0  0  0  0  0  0  0
  158.7920  211.5500  155.2860 N   0  0  0  0  0  1  0  0  0  0  0  0
  160.4750  208.4430  154.9780 N   0  0  0  0  0  0  0  0  0  0  0  0
  160.2350  209.6580  154.4750 C   0  0  0  0  0  0  0  0  0  0  0  0
  159.9120  208.3410  156.1690 N   0  0  0  0  0  0  0  0  0  0  0  0
  161.2070  206.3770  150.6040 C   0  0  0  0  0  3  0  0  0  0  0  0
  161.4120  207.2710  149.6340 C   0  0  0  0  0  0  0  0  0  0  0  0
  161.7690  208.6820  149.8630 C   0  0  0  0  0  3  0  0  0  0  0  0
  161.1970  207.6380  152.8070 C   0  0  2  0  0  3  0  0  0  0  0  0
  161.6370  209.4200  150.9600 C   0  0  0  0  0  3  0  0  0  0  0  0
  161.1130  209.0420  152.2870 C   0  0  0  0  0  0  0  0  0  0  0  0
  161.3550  206.8110  148.2740 N   0  0  0  0  0  0  0  0  0  0  0  0
  160.2190  206.2030  147.7860 O   0  0  0  0  0  0  0  0  0  0  0  0
  162.3310  206.9670  147.5110 O   0  0  0  0  0  0  0  0  0  0  0  0
  159.6630  212.0260  152.1530 N   0  0  0  0  0  0  0  0  0  0  0  0
  160.7000  211.4430  152.6590 C   0  0  0  0  0  3  0  0  0  0  0  0
  159.7170  213.4190  151.7290 C   0  0  0  0  0  2  0  0  0  0  0  0
  157.7460  213.3280  148.4130 C   0  0  0  0  0  2  0  0  0  0  0  0
  160.5530  212.9770  149.3880 C   0  0  0  0  0  2  0  0  0  0  0  0
  159.6400  212.7250  145.1840 C   0  0  0  0  0  0  0  0  0  0  0  0
  158.6050  212.9290  146.1040 C   0  0  0  0  0  3  0  0  0  0  0  0
  158.8780  213.0260  147.4710 C   0  0  0  0  0  0  0  0  0  0  0  0
  161.2420  212.7100  147.0060 C   0  0  0  0  0  3  0  0  0  0  0  0
  160.2130  212.9400  147.9260 C   0  0  0  0  0  0  0  0  0  0  0  0
  160.9580  212.6030  145.6430 C   0  0  0  0  0  3  0  0  0  0  0  0
  159.4290  213.5760  150.2350 C   0  0  1  0  0  3  0  0  0  0  0  0
  158.0840  212.9660  149.8540 C   0  0  0  0  0  2  0  0  0  0  0  0
  159.3310  212.5780  143.7280 C   0  0  2  0  0  3  0  0  0  0  0  0
  160.5310  212.5060  142.9930 O   0  0  0  0  0  0  0  0  0  0  0  0
  159.8500  213.7340  142.9590 C   0  0  0  0  0  2  0  0  0  0  0  0
  1 20  1  1  0  0  0
  1  8  1  0  0  0  0
  3  7  1  0  0  0  0
  4  5  1  0  0  0  0
  6  4  1  0  0  0  0
  7  9  1  0  0  0  0
  8  7  1  0  0  0  0
  8  4  2  0  0  0  0
  9  5  2  0  0  0  0
 10  2  2  0  0  0  0
 11 12  2  0  0  0  0
 11 10  1  0  0  0  0
 12 14  1  0  0  0  0
 13  2  1  1  0  0  0
 13  3  1  0  0  0  0
 14 15  2  0  0  0  0
 15 13  1  0  0  0  0
 15  1  1  0  0  0  0
 16 11  1  0  0  0  0
 17 16  2  0  0  0  0
 18 16  2  0  0  0  0
 19 20  2  0  0  0  0
 21 19  1  0  0  0  0
 22 31  1  0  0  0  0
 23 30  1  0  0  0  0
 24 29  2  0  0  0  0
 24 25  1  0  0  0  0
 25 26  2  0  0  0  0
 26 28  1  0  0  0  0
 26 22  1  0  0  0  0
 27 28  2  0  0  0  0
 28 23  1  0  0  0  0
 29 27  1  0  0  0  0
 30 21  1  1  0  0  0
 31 30  1  0  0  0  0
 32 24  1  1  0  0  0
 33 32  1  0  0  0  0
 34 33  1  0  0  0  0
 34 32  1  0  0  0  0
M  END
>  <MODEL>
8

>  <REMARK>
 VINA RESULT:      -7.7      2.906      7.400
  Name = 
  5 active torsions:
  status: ('A' for Active; 'I' for Inactive)
    1  A    between atoms: C_1  and  C_9
    2  A    between atoms: N_3  and  C_25
    3  A    between atoms: C_7  and  C_11
    4  A    between atoms: N_8  and  C_18
    5  A    between atoms: C_18  and  C_30
                            x       y       z     vdW  Elec       q    Type
                         _______ _______ _______ _____ _____    ______ ____

>  <TORSDO>
F 5

$$$$
=
 OpenBabel11062409453D

 34 39  0  0  1  0  0  0  0  0999 V2000
  160.2290  212.0500  151.5900 C   0  0  2  0  0  3  0  0  0  0  0  0
  159.2250  214.2810  148.8260 C   0  0  0  0  0  3  0  0  0  0  0  0
  157.9040  213.6160  150.7100 C   0  0  0  0  0  2  0  0  0  0  0  0
  159.1580  212.6380  153.9140 C   0  0  0  0  0  0  0  0  0  0  0  0
  158.0830  213.3710  154.2720 N   0  0  0  0  0  0  0  0  0  0  0  0
  160.1290  212.1640  154.8390 N   0  0  0  0  0  1  0  0  0  0  0  0
  158.1970  213.3380  152.1060 N   0  0  0  0  0  0  0  0  0  0  0  0
  159.2300  212.6060  152.5340 C   0  0  0  0  0  0  0  0  0  0  0  0
  157.5090  213.7770  153.1460 N   0  0  0  0  0  0  0  0  0  0  0  0
  160.2770  214.4330  147.8150 C   0  0  0  0  0  3  0  0  0  0  0  0
  161.3140  213.6450  147.5240 C   0  0  0  0  0  0  0  0  0  0  0  0
  161.5940  212.3580  148.1830 C   0  0  0  0  0  3  0  0  0  0  0  0
  159.1570  213.4770  149.8830 C   0  0  2  0  0  3  0  0  0  0  0  0
  161.1450  211.8850  149.3410 C   0  0  0  0  0  3  0  0  0  0  0  0
  160.2130  212.5000  150.3060 C   0  0  0  0  0  0  0  0  0  0  0  0
  162.1760  214.0410  146.4440 N   0  0  0  0  0  0  0  0  0  0  0  0
  161.6790  214.1940  145.1690 O   0  0  0  0  0  0  0  0  0  0  0  0
  163.3880  214.2630  146.6500 O   0  0  0  0  0  0  0  0  0  0  0  0
  160.8550  209.7460  152.0540 N   0  0  0  0  0  0  0  0  0  0  0  0
  161.1840  210.9950  151.9980 C   0  0  0  0  0  3  0  0  0  0  0  0
  161.8220  208.7310  152.4500 C   0  0  0  0  0  2  0  0  0  0  0  0
  161.5270  206.9070  149.0620 C   0  0  0  0  0  2  0  0  0  0  0  0
  161.3690  206.2920  151.9860 C   0  0  0  0  0  2  0  0  0  0  0  0
  160.9520  203.1590  149.0560 C   0  0  0  0  0  0  0  0  0  0  0  0
  161.1180  204.4830  148.6320 C   0  0  0  0  0  3  0  0  0  0  0  0
  161.2680  205.5140  149.5640 C   0  0  0  0  0  0  0  0  0  0  0  0
  161.0800  203.8930  151.3640 C   0  0  0  0  0  3  0  0  0  0  0  0
  161.2730  205.2130  150.9450 C   0  0  0  0  0  0  0  0  0  0  0  0
  160.9210  202.8710  150.4260 C   0  0  0  0  0  3  0  0  0  0  0  0
  161.9230  207.6020  151.4230 C   0  0  1  0  0  3  0  0  0  0  0  0
  161.2240  207.9640  150.1170 C   0  0  0  0  0  2  0  0  0  0  0  0
  160.7480  202.0700  148.0510 C   0  0  2  0  0  3  0  0  0  0  0  0
  160.1560  200.9530  148.6750 O   0  0  0  0  0  0  0  0  0  0  0  0
  161.5330  200.8650  148.4120 C   0  0  0  0  0  2  0  0  0  0  0  0
  1 20  1  6  0  0  0
  1  8  1  0  0  0  0
  3  7  1  0  0  0  0
  4  5  1  0  0  0  0
  4  6  1  0  0  0  0
  7  8  1  0  0  0  0
  7  9  1  0  0  0  0
  8  4  2  0  0  0  0
  9  5  2  0  0  0  0
 10  2  2  0  0  0  0
 11 10  1  0  0  0  0
 11 12  2  0  0  0  0
 12 14  1  0  0  0  0
 13  2  1  1  0  0  0
 13 15  1  0  0  0  0
 13  3  1  0  0  0  0
 14 15  2  0  0  0  0
 15  1  1  0  0  0  0
 16 18  2  0  0  0  0
 16 11  1  0  0  0  0
 17 16  2  0  0  0  0
 19 21  1  0  0  0  0
 20 19  2  0  0  0  0
 22 26  1  0  0  0  0
 22 31  1  0  0  0  0
 24 29  1  0  0  0  0
 25 24  2  0  0  0  0
 25 26  1  0  0  0  0
 26 28  2  0  0  0  0
 28 27  1  0  0  0  0
 28 23  1  0  0  0  0
 29 27  2  0  0  0  0
 30 23  1  0  0  0  0
 30 21  1  1  0  0  0
 31 30  1  0  0  0  0
 32 34  1  0  0  0  0
 32 33  1  0  0  0  0
 32 24  1  1  0  0  0
 34 33  1  0  0  0  0
M  END
>  <MODEL>
9

>  <REMARK>
 VINA RESULT:      -7.7      1.273      1.596
  Name = 
  5 active torsions:
  status: ('A' for Active; 'I' for Inactive)
    1  A    between atoms: C_1  and  C_9
    2  A    between atoms: N_3  and  C_25
    3  A    between atoms: C_7  and  C_11
    4  A    between atoms: N_8  and  C_18
    5  A    between atoms: C_18  and  C_30
                            x       y       z     vdW  Elec       q    Type
                         _______ _______ _______ _____ _____    ______ ____

>  <TORSDO>
F 5

$$$$
