=
 OpenBabel11062408293D

 32 37  0  0  1  0  0  0  0  0999 V2000
  161.3200  208.2800  150.9810 C   0  0  1  0  0  3  0  0  0  0  0  0
  161.2540  206.2000  149.6190 C   0  0  1  0  0  3  0  0  0  0  0  0
  161.9950  209.6430  151.1320 C   0  0  0  0  0  2  0  0  0  0  0  0
  161.9430  207.5410  149.7910 C   0  0  1  0  0  3  0  0  0  0  0  0
  161.7980  205.4990  148.3790 C   0  0  1  0  0  3  0  0  0  0  0  0
  160.4710  201.6230  151.3260 C   0  0  0  0  0  2  0  0  0  0  0  0
  161.4570  205.3290  150.8580 C   0  0  1  0  0  3  0  0  0  0  0  0
  160.7750  201.9820  149.1050 C   0  0  0  0  0  2  0  0  0  0  0  0
  161.3840  203.3670  149.3040 C   0  0  1  0  0  3  0  0  0  0  0  0
  161.7630  208.3490  148.4960 C   0  0  2  0  0  3  0  0  0  0  0  0
  161.0910  204.2350  148.1620 N   0  0  0  0  0  2  0  0  0  0  0  0
  162.3480  207.6840  147.3900 O   0  0  0  0  0  0  0  0  0  0  0  0
  162.4010  209.7270  148.6550 C   0  0  0  0  0  2  0  0  0  0  0  0
  160.8260  206.0320  152.0610 C   0  0  0  0  0  2  0  0  0  0  0  0
  161.4380  207.4280  152.2630 C   0  0  2  0  0  3  0  0  0  0  0  0
  160.8120  203.9660  150.5990 C   0  0  1  0  0  3  0  0  0  0  0  0
  161.7070  206.4380  147.1630 C   0  0  2  0  0  3  0  0  0  0  0  0
  161.8030  210.4610  149.8550 C   0  0  0  0  0  2  0  0  0  0  0  0
  161.1420  201.1490  150.1800 O   0  0  0  0  0  0  0  0  0  0  0  0
  161.0310  202.9850  151.7480 C   0  0  0  0  0  2  0  0  0  0  0  0
  159.6560  207.7860  155.7840 C   0  0  1  0  0  3  0  0  0  0  0  0
  161.2000  211.1230  156.4320 O   0  0  0  0  0  1  0  0  0  0  0  0
  159.3480  206.8150  156.7200 F   0  0  0  0  0  0  0  0  0  0  0  0
  159.9330  210.2850  154.4550 C   0  0  0  0  0  2  0  0  0  0  0  0
  160.8160  208.0930  153.4660 C   0  0  0  0  0  0  0  0  0  0  0  0
  160.3590  208.9280  156.4500 C   0  0  0  0  0  3  0  0  0  0  0  0
  160.5990  209.4280  153.4140 C   0  0  0  0  0  3  0  0  0  0  0  0
  160.5040  207.1880  154.6520 C   0  0  1  0  0  3  0  0  0  0  0  0
  161.7710  206.5380  155.1940 C   0  0  0  0  0  1  0  0  0  0  0  0
  160.5140  210.0860  155.8170 C   0  0  0  0  0  0  0  0  0  0  0  0
  160.3190  206.5720  146.5180 C   0  0  0  0  0  2  0  0  0  0  0  0
  160.3400  206.2050  145.1710 O   0  0  0  0  0  1  0  0  0  0  0  0
  1  3  1  1  0  0  0
  1 15  1  0  0  0  0
  2  4  1  0  0  0  0
  2  7  1  0  0  0  0
  4  1  1  0  0  0  0
  5  2  1  0  0  0  0
  6 20  1  0  0  0  0
  7 14  1  0  0  0  0
  8  9  1  0  0  0  0
  8 19  1  0  0  0  0
  9 16  1  0  0  0  0
 10 13  1  0  0  0  0
 10  4  1  0  0  0  0
 11  5  1  0  0  0  0
 11  9  1  0  0  0  0
 12 10  1  0  0  0  0
 13 18  1  0  0  0  0
 14 15  1  0  0  0  0
 15 25  1  0  0  0  0
 16  7  1  0  0  0  0
 16 20  1  0  0  0  0
 17 12  1  0  0  0  0
 17  5  1  0  0  0  0
 18  3  1  0  0  0  0
 19  6  1  0  0  0  0
 21 26  1  0  0  0  0
 21 23  1  0  0  0  0
 24 30  1  0  0  0  0
 25 28  1  0  0  0  0
 27 25  2  0  0  0  0
 27 24  1  0  0  0  0
 28 29  1  0  0  0  0
 28 21  1  0  0  0  0
 30 22  1  0  0  0  0
 30 26  2  0  0  0  0
 31 17  1  0  0  0  0
 32 31  1  0  0  0  0
M  END
>  <MODEL>
1

>  <REMARK>
 VINA RESULT:      -9.3      0.000      0.000
  Name = 
  2 active torsions:
  status: ('A' for Active; 'I' for Inactive)
    1  A    between atoms: C_13  and  C_29
    2  A    between atoms: C_16  and  C_27
                            x       y       z     vdW  Elec       q    Type
                         _______ _______ _______ _____ _____    ______ ____

>  <TORSDO>
F 2

$$$$
=
 OpenBabel11062408293D

 32 37  0  0  1  0  0  0  0  0999 V2000
  161.3280  209.3750  151.0580 C   0  0  1  0  0  3  0  0  0  0  0  0
  161.3280  207.0790  150.1010 C   0  0  1  0  0  3  0  0  0  0  0  0
  161.9960  210.7470  150.9880 C   0  0  0  0  0  2  0  0  0  0  0  0
  162.0100  208.4340  150.0570 C   0  0  1  0  0  3  0  0  0  0  0  0
  161.9330  206.1650  149.0410 C   0  0  1  0  0  3  0  0  0  0  0  0
  160.4520  202.8880  152.5810 C   0  0  0  0  0  2  0  0  0  0  0  0
  161.4670  206.4520  151.4880 C   0  0  1  0  0  3  0  0  0  0  0  0
  160.8700  202.8340  150.3500 C   0  0  0  0  0  2  0  0  0  0  0  0
  161.4700  204.2370  150.3210 C   0  0  1  0  0  3  0  0  0  0  0  0
  161.8970  208.9880  148.6280 C   0  0  2  0  0  3  0  0  0  0  0  0
  161.2370  204.8770  149.0250 N   0  0  0  0  0  2  0  0  0  0  0  0
  162.5370  208.1350  147.6950 O   0  0  0  0  0  0  0  0  0  0  0  0
  162.5280  210.3760  148.5630 C   0  0  0  0  0  2  0  0  0  0  0  0
  160.7760  207.3600  152.5070 C   0  0  0  0  0  2  0  0  0  0  0  0
  161.3790  208.7740  152.4790 C   0  0  2  0  0  3  0  0  0  0  0  0
  160.8330  205.0600  151.4530 C   0  0  1  0  0  3  0  0  0  0  0  0
  161.9060  206.8630  147.6690 C   0  0  2  0  0  3  0  0  0  0  0  0
  161.8710  211.3140  149.5750 C   0  0  0  0  0  2  0  0  0  0  0  0
  161.1800  202.2170  151.5780 O   0  0  0  0  0  0  0  0  0  0  0  0
  160.9920  204.3090  152.7720 C   0  0  0  0  0  2  0  0  0  0  0  0
  160.6210  210.4590  155.9840 C   0  0  1  0  0  3  0  0  0  0  0  0
  159.1450  213.5050  154.4080 O   0  0  0  0  0  1  0  0  0  0  0  0
  161.3370  210.3970  157.1670 F   0  0  0  0  0  0  0  0  0  0  0  0
  158.6490  211.0900  154.0350 C   0  0  0  0  0  2  0  0  0  0  0  0
  160.6980  209.6440  153.5060 C   0  0  0  0  0  0  0  0  0  0  0  0
  160.3030  211.8850  155.6590 C   0  0  0  0  0  3  0  0  0  0  0  0
  159.5340  210.2440  153.1610 C   0  0  0  0  0  3  0  0  0  0  0  0
  161.4040  209.7840  154.8490 C   0  0  1  0  0  3  0  0  0  0  0  0
  162.7840  210.4110  154.6800 C   0  0  0  0  0  1  0  0  0  0  0  0
  159.4030  212.1790  154.7260 C   0  0  0  0  0  0  0  0  0  0  0  0
  160.5530  206.8660  146.9410 C   0  0  0  0  0  2  0  0  0  0  0  0
  160.6290  206.2070  145.7130 O   0  0  0  0  0  1  0  0  0  0  0  0
  1  3  1  1  0  0  0
  1 15  1  0  0  0  0
  2  7  1  0  0  0  0
  4  2  1  0  0  0  0
  4  1  1  0  0  0  0
  5  2  1  0  0  0  0
  6 20  1  0  0  0  0
  7 14  1  0  0  0  0
  8 19  1  0  0  0  0
  9  8  1  0  0  0  0
  9 16  1  0  0  0  0
 10  4  1  0  0  0  0
 11  5  1  0  0  0  0
 11  9  1  0  0  0  0
 12 10  1  0  0  0  0
 13 10  1  0  0  0  0
 13 18  1  0  0  0  0
 15 14  1  0  0  0  0
 15 25  1  0  0  0  0
 16  7  1  0  0  0  0
 16 20  1  0  0  0  0
 17 12  1  0  0  0  0
 17  5  1  0  0  0  0
 18  3  1  0  0  0  0
 19  6  1  0  0  0  0
 21 23  1  0  0  0  0
 22 30  1  0  0  0  0
 24 30  1  0  0  0  0
 25 28  1  0  0  0  0
 26 21  1  0  0  0  0
 27 25  2  0  0  0  0
 27 24  1  0  0  0  0
 28 21  1  0  0  0  0
 29 28  1  0  0  0  0
 30 26  2  0  0  0  0
 31 17  1  0  0  0  0
 32 31  1  0  0  0  0
M  END
>  <MODEL>
2

>  <REMARK>
 VINA RESULT:      -8.4      1.587      1.905
  Name = 
  2 active torsions:
  status: ('A' for Active; 'I' for Inactive)
    1  A    between atoms: C_13  and  C_29
    2  A    between atoms: C_16  and  C_27
                            x       y       z     vdW  Elec       q    Type
                         _______ _______ _______ _____ _____    ______ ____

>  <TORSDO>
F 2

$$$$
=
 OpenBabel11062408293D

 32 37  0  0  1  0  0  0  0  0999 V2000
  161.2310  205.7510  150.9620 C   0  0  1  0  0  3  0  0  0  0  0  0
  161.3120  208.2260  151.1940 C   0  0  1  0  0  3  0  0  0  0  0  0
  161.6260  204.4300  151.6210 C   0  0  0  0  0  2  0  0  0  0  0  0
  161.7300  206.9130  151.8300 C   0  0  1  0  0  3  0  0  0  0  0  0
  161.7160  209.3850  152.0990 C   0  0  1  0  0  3  0  0  0  0  0  0
  161.8710  211.4820  147.5110 C   0  0  0  0  0  2  0  0  0  0  0  0
  161.9480  208.3800  149.8130 C   0  0  1  0  0  3  0  0  0  0  0  0
  161.6190  212.2020  149.6500 C   0  0  0  0  0  2  0  0  0  0  0  0
  161.9560  210.8450  150.2590 C   0  0  1  0  0  3  0  0  0  0  0  0
  161.1170  206.8390  153.2380 C   0  0  2  0  0  3  0  0  0  0  0  0
  161.2570  210.6540  151.5310 N   0  0  0  0  0  2  0  0  0  0  0  0
  161.5810  207.8990  154.0550 O   0  0  0  0  0  0  0  0  0  0  0  0
  161.4750  205.5040  153.8860 C   0  0  0  0  0  2  0  0  0  0  0  0
  161.4530  207.2450  148.9160 C   0  0  0  0  0  2  0  0  0  0  0  0
  161.7910  205.8750  149.5280 C   0  0  2  0  0  3  0  0  0  0  0  0
  161.5580  209.7500  149.2540 C   0  0  1  0  0  3  0  0  0  0  0  0
  161.1780  209.1520  153.5220 C   0  0  2  0  0  3  0  0  0  0  0  0
  161.0050  204.3400  153.0140 C   0  0  0  0  0  2  0  0  0  0  0  0
  162.3680  212.3870  148.4710 O   0  0  0  0  0  0  0  0  0  0  0  0
  162.2120  210.0420  147.9060 C   0  0  0  0  0  2  0  0  0  0  0  0
  160.8310  204.0060  146.1690 C   0  0  1  0  0  3  0  0  0  0  0  0
  161.5810  200.6440  147.6090 O   0  0  0  0  0  1  0  0  0  0  0  0
  161.0030  204.4070  144.8560 F   0  0  0  0  0  0  0  0  0  0  0  0
  160.1510  202.4930  148.4780 C   0  0  0  0  0  2  0  0  0  0  0  0
  161.3130  204.7720  148.6170 C   0  0  0  0  0  0  0  0  0  0  0  0
  161.3530  202.6150  146.3460 C   0  0  0  0  0  3  0  0  0  0  0  0
  160.7570  203.6750  149.1830 C   0  0  0  0  0  3  0  0  0  0  0  0
  161.5210  204.9920  147.1230 C   0  0  1  0  0  3  0  0  0  0  0  0
  163.0010  205.1390  146.7920 C   0  0  0  0  0  1  0  0  0  0  0  0
  161.0590  201.9190  147.4400 C   0  0  0  0  0  0  0  0  0  0  0  0
  159.6880  209.4590  153.7390 C   0  0  0  0  0  2  0  0  0  0  0  0
  159.5060  210.5060  154.6430 O   0  0  0  0  0  1  0  0  0  0  0  0
  1  3  1  1  0  0  0
  1  4  1  0  0  0  0
  2  4  1  0  0  0  0
  2  5  1  0  0  0  0
  3 18  1  0  0  0  0
  4 10  1  0  0  0  0
  5 17  1  0  0  0  0
  6 20  1  0  0  0  0
  6 19  1  0  0  0  0
  7  2  1  0  0  0  0
  8  9  1  0  0  0  0
  9 11  1  0  0  0  0
 10 13  1  0  0  0  0
 10 12  1  0  0  0  0
 11  5  1  0  0  0  0
 14 15  1  0  0  0  0
 14  7  1  0  0  0  0
 15  1  1  0  0  0  0
 16  7  1  0  0  0  0
 16  9  1  0  0  0  0
 17 31  1  0  0  0  0
 17 12  1  0  0  0  0
 18 13  1  0  0  0  0
 19  8  1  0  0  0  0
 20 16  1  0  0  0  0
 21 26  1  0  0  0  0
 21 28  1  0  0  0  0
 23 21  1  0  0  0  0
 24 27  1  0  0  0  0
 25 27  2  0  0  0  0
 25 15  1  0  0  0  0
 26 30  2  0  0  0  0
 28 25  1  0  0  0  0
 29 28  1  0  0  0  0
 30 22  1  0  0  0  0
 30 24  1  0  0  0  0
 31 32  1  0  0  0  0
M  END
>  <MODEL>
3

>  <REMARK>
 VINA RESULT:      -7.5      3.235      8.090
  Name = 
  2 active torsions:
  status: ('A' for Active; 'I' for Inactive)
    1  A    between atoms: C_13  and  C_29
    2  A    between atoms: C_16  and  C_27
                            x       y       z     vdW  Elec       q    Type
                         _______ _______ _______ _____ _____    ______ ____

>  <TORSDO>
F 2

$$$$
=
 OpenBabel11062408293D

 32 37  0  0  1  0  0  0  0  0999 V2000
  160.4610  208.1750  154.3280 C   0  0  1  0  0  3  0  0  0  0  0  0
  159.8980  210.5930  154.1740 C   0  0  1  0  0  3  0  0  0  0  0  0
  161.1300  207.1110  155.1970 C   0  0  0  0  0  2  0  0  0  0  0  0
  160.5890  209.5390  155.0180 C   0  0  1  0  0  3  0  0  0  0  0  0
  159.9340  211.9350  154.8970 C   0  0  1  0  0  3  0  0  0  0  0  0
  159.8670  213.3190  150.0450 C   0  0  0  0  0  2  0  0  0  0  0  0
  160.5670  210.7070  152.8040 C   0  0  1  0  0  3  0  0  0  0  0  0
  159.2970  214.2480  152.0370 C   0  0  0  0  0  2  0  0  0  0  0  0
  159.9230  213.1270  152.8600 C   0  0  1  0  0  3  0  0  0  0  0  0
  159.9210  209.5110  156.4030 C   0  0  2  0  0  3  0  0  0  0  0  0
  159.2100  212.9460  154.1250 N   0  0  0  0  0  2  0  0  0  0  0  0
  160.0460  210.7610  157.0570 O   0  0  0  0  0  0  0  0  0  0  0  0
  160.5600  208.4220  157.2610 C   0  0  0  0  0  2  0  0  0  0  0  0
  160.4360  209.3650  152.0820 C   0  0  0  0  0  2  0  0  0  0  0  0
  161.0670  208.2330  152.9100 C   0  0  2  0  0  3  0  0  0  0  0  0
  159.8830  211.8340  152.0270 C   0  0  1  0  0  3  0  0  0  0  0  0
  159.3780  211.7770  156.3240 C   0  0  2  0  0  3  0  0  0  0  0  0
  160.4590  207.0630  156.5690 C   0  0  0  0  0  2  0  0  0  0  0  0
  160.0540  214.4500  150.8660 O   0  0  0  0  0  0  0  0  0  0  0  0
  160.5330  212.0900  150.6690 C   0  0  0  0  0  2  0  0  0  0  0  0
  160.6440  205.7290  149.8680 C   0  0  1  0  0  3  0  0  0  0  0  0
  162.5290  203.0140  151.6030 O   0  0  0  0  0  1  0  0  0  0  0  0
  160.6180  205.9880  148.5090 F   0  0  0  0  0  0  0  0  0  0  0  0
  160.6030  204.3950  152.3790 C   0  0  0  0  0  2  0  0  0  0  0  0
  160.9450  206.9250  152.1680 C   0  0  0  0  0  0  0  0  0  0  0  0
  161.6060  204.6190  150.1540 C   0  0  0  0  0  3  0  0  0  0  0  0
  160.8100  205.7910  152.8960 C   0  0  0  0  0  3  0  0  0  0  0  0
  161.0060  207.0020  150.6470 C   0  0  1  0  0  3  0  0  0  0  0  0
  162.3380  207.5770  150.1810 C   0  0  0  0  0  1  0  0  0  0  0  0
  161.6070  204.0160  151.3390 C   0  0  0  0  0  0  0  0  0  0  0  0
  157.8470  211.7140  156.4470 C   0  0  0  0  0  2  0  0  0  0  0  0
  157.3420  212.8150  157.1410 O   0  0  0  0  0  1  0  0  0  0  0  0
  1  4  1  0  0  0  0
  1  3  1  1  0  0  0
  2  5  1  0  0  0  0
  2  4  1  0  0  0  0
  3 18  1  0  0  0  0
  4 10  1  0  0  0  0
  5 17  1  0  0  0  0
  6 20  1  0  0  0  0
  6 19  1  0  0  0  0
  7  2  1  0  0  0  0
  8  9  1  0  0  0  0
  9 11  1  0  0  0  0
 10 12  1  0  0  0  0
 10 13  1  0  0  0  0
 11  5  1  0  0  0  0
 14  7  1  0  0  0  0
 14 15  1  0  0  0  0
 15  1  1  0  0  0  0
 16  7  1  0  0  0  0
 16  9  1  0  0  0  0
 17 31  1  0  0  0  0
 17 12  1  0  0  0  0
 18 13  1  0  0  0  0
 19  8  1  0  0  0  0
 20 16  1  0  0  0  0
 21 26  1  0  0  0  0
 21 28  1  0  0  0  0
 23 21  1  0  0  0  0
 24 27  1  0  0  0  0
 25 27  2  0  0  0  0
 25 15  1  0  0  0  0
 26 30  2  0  0  0  0
 28 25  1  0  0  0  0
 29 28  1  0  0  0  0
 30 22  1  0  0  0  0
 30 24  1  0  0  0  0
 31 32  1  0  0  0  0
M  END
>  <MODEL>
4

>  <REMARK>
 VINA RESULT:      -7.3      3.385      8.427
  Name = 
  2 active torsions:
  status: ('A' for Active; 'I' for Inactive)
    1  A    between atoms: C_13  and  C_29
    2  A    between atoms: C_16  and  C_27
                            x       y       z     vdW  Elec       q    Type
                         _______ _______ _______ _____ _____    ______ ____

>  <TORSDO>
F 2

$$$$
=
 OpenBabel11062408293D

 32 37  0  0  1  0  0  0  0  0999 V2000
  160.5640  207.8540  153.3590 C   0  0  1  0  0  3  0  0  0  0  0  0
  160.4760  210.2140  152.5820 C   0  0  1  0  0  3  0  0  0  0  0  0
  160.8750  206.9520  154.5530 C   0  0  0  0  0  2  0  0  0  0  0  0
  160.8140  209.3140  153.7550 C   0  0  1  0  0  3  0  0  0  0  0  0
  160.6260  211.6740  152.9960 C   0  0  1  0  0  3  0  0  0  0  0  0
  161.6360  211.8370  148.0540 C   0  0  0  0  0  2  0  0  0  0  0  0
  161.3780  209.9030  151.3890 C   0  0  1  0  0  3  0  0  0  0  0  0
  160.9090  213.2890  149.6410 C   0  0  0  0  0  2  0  0  0  0  0  0
  161.1760  212.3270  150.7950 C   0  0  1  0  0  3  0  0  0  0  0  0
  159.9250  209.7120  154.9450 C   0  0  2  0  0  3  0  0  0  0  0  0
  160.2360  212.5560  151.8940 N   0  0  0  0  0  2  0  0  0  0  0  0
  160.1570  211.0550  155.3310 O   0  0  0  0  0  0  0  0  0  0  0  0
  160.2030  208.7880  156.1280 C   0  0  0  0  0  2  0  0  0  0  0  0
  161.1360  208.4560  150.9560 C   0  0  0  0  0  2  0  0  0  0  0  0
  161.4040  207.4840  152.1170 C   0  0  2  0  0  3  0  0  0  0  0  0
  161.0490  210.8890  150.2660 C   0  0  1  0  0  3  0  0  0  0  0  0
  159.8150  211.9430  154.2760 C   0  0  2  0  0  3  0  0  0  0  0  0
  159.9810  207.3280  155.7340 C   0  0  0  0  0  2  0  0  0  0  0  0
  161.8790  213.0980  148.6370 O   0  0  0  0  0  0  0  0  0  0  0  0
  161.9560  210.7180  149.0490 C   0  0  0  0  0  2  0  0  0  0  0  0
  160.6180  204.4610  149.6800 C   0  0  1  0  0  3  0  0  0  0  0  0
  162.6160  202.0560  151.7200 O   0  0  0  0  0  1  0  0  0  0  0  0
  160.4560  204.4540  148.3060 F   0  0  0  0  0  0  0  0  0  0  0  0
  160.8090  203.6370  152.3950 C   0  0  0  0  0  2  0  0  0  0  0  0
  161.1800  206.0630  151.6620 C   0  0  0  0  0  0  0  0  0  0  0  0
  161.5810  203.3880  150.0830 C   0  0  0  0  0  3  0  0  0  0  0  0
  161.0980  205.0970  152.6060 C   0  0  0  0  0  3  0  0  0  0  0  0
  161.0840  205.8440  150.1570 C   0  0  1  0  0  3  0  0  0  0  0  0
  162.3720  206.2650  149.4580 C   0  0  0  0  0  1  0  0  0  0  0  0
  161.6920  203.0250  151.3560 C   0  0  0  0  0  0  0  0  0  0  0  0
  158.3000  212.1170  154.0900 C   0  0  0  0  0  2  0  0  0  0  0  0
  157.6770  212.5000  155.2790 O   0  0  0  0  0  1  0  0  0  0  0  0
  1  4  1  0  0  0  0
  1  3  1  1  0  0  0
  2  5  1  0  0  0  0
  2  4  1  0  0  0  0
  3 18  1  0  0  0  0
  4 10  1  0  0  0  0
  5 17  1  0  0  0  0
  6 19  1  0  0  0  0
  6 20  1  0  0  0  0
  7  2  1  0  0  0  0
  8  9  1  0  0  0  0
  9 11  1  0  0  0  0
 10 12  1  0  0  0  0
 10 13  1  0  0  0  0
 11  5  1  0  0  0  0
 14  7  1  0  0  0  0
 14 15  1  0  0  0  0
 15  1  1  0  0  0  0
 16  9  1  0  0  0  0
 16  7  1  0  0  0  0
 17 12  1  0  0  0  0
 18 13  1  0  0  0  0
 19  8  1  0  0  0  0
 20 16  1  0  0  0  0
 21 26  1  0  0  0  0
 21 28  1  0  0  0  0
 23 21  1  0  0  0  0
 24 27  1  0  0  0  0
 25 15  1  0  0  0  0
 25 27  2  0  0  0  0
 26 30  2  0  0  0  0
 28 25  1  0  0  0  0
 29 28  1  0  0  0  0
 30 22  1  0  0  0  0
 30 24  1  0  0  0  0
 31 17  1  0  0  0  0
 31 32  1  0  0  0  0
M  END
>  <MODEL>
5

>  <REMARK>
 VINA RESULT:      -6.7      3.104      7.714
  Name = 
  2 active torsions:
  status: ('A' for Active; 'I' for Inactive)
    1  A    between atoms: C_13  and  C_29
    2  A    between atoms: C_16  and  C_27
                            x       y       z     vdW  Elec       q    Type
                         _______ _______ _______ _____ _____    ______ ____

>  <TORSDO>
F 2

$$$$
=
 OpenBabel11062408293D

 32 37  0  0  1  0  0  0  0  0999 V2000
  161.5930  207.3840  151.0330 C   0  0  1  0  0  3  0  0  0  0  0  0
  161.1580  209.8320  151.1180 C   0  0  1  0  0  3  0  0  0  0  0  0
  162.1290  206.1920  151.8250 C   0  0  0  0  0  2  0  0  0  0  0  0
  161.7180  208.6510  151.8890 C   0  0  1  0  0  3  0  0  0  0  0  0
  161.1860  211.0780  151.9960 C   0  0  1  0  0  3  0  0  0  0  0  0
  161.6370  213.0090  147.3550 C   0  0  0  0  0  2  0  0  0  0  0  0
  161.9560  210.0640  149.8360 C   0  0  1  0  0  3  0  0  0  0  0  0
  160.9250  213.7350  149.3860 C   0  0  0  0  0  2  0  0  0  0  0  0
  161.4200  212.4930  150.1220 C   0  0  1  0  0  3  0  0  0  0  0  0
  160.9220  208.5030  153.1960 C   0  0  2  0  0  3  0  0  0  0  0  0
  160.5840  212.2090  151.2890 N   0  0  0  0  0  2  0  0  0  0  0  0
  161.0420  209.6610  154.0030 O   0  0  0  0  0  0  0  0  0  0  0  0
  161.4280  207.2890  153.9720 C   0  0  0  0  0  2  0  0  0  0  0  0
  161.8330  208.8230  148.9510 C   0  0  0  0  0  2  0  0  0  0  0  0
  162.3320  207.5700  149.6900 C   0  0  2  0  0  3  0  0  0  0  0  0
  161.4000  211.3080  149.1420 C   0  0  1  0  0  3  0  0  0  0  0  0
  160.4920  210.7890  153.3400 C   0  0  2  0  0  3  0  0  0  0  0  0
  161.3310  206.0260  153.1170 C   0  0  0  0  0  2  0  0  0  0  0  0
  161.7970  214.0260  148.3180 O   0  0  0  0  0  0  0  0  0  0  0  0
  162.1850  211.6800  147.8860 C   0  0  0  0  0  2  0  0  0  0  0  0
  161.2880  203.9470  148.4710 C   0  0  1  0  0  3  0  0  0  0  0  0
  161.3750  204.9330  144.8720 O   0  0  0  0  0  1  0  0  0  0  0  0
  160.4410  203.0270  149.0630 F   0  0  0  0  0  0  0  0  0  0  0  0
  163.0810  205.2180  146.6670 C   0  0  0  0  0  2  0  0  0  0  0  0
  162.2210  206.3640  148.7910 C   0  0  0  0  0  0  0  0  0  0  0  0
  160.9190  204.1230  147.0310 C   0  0  0  0  0  3  0  0  0  0  0  0
  162.9740  206.3360  147.6670 C   0  0  0  0  0  3  0  0  0  0  0  0
  161.2420  205.2810  149.2310 C   0  0  1  0  0  3  0  0  0  0  0  0
  159.8200  205.8260  149.3070 C   0  0  0  0  0  1  0  0  0  0  0  0
  161.7450  204.7440  146.1950 C   0  0  0  0  0  0  0  0  0  0  0  0
  158.9550  210.7980  153.3200 C   0  0  0  0  0  2  0  0  0  0  0  0
  158.4270  211.0830  154.5800 O   0  0  0  0  0  1  0  0  0  0  0  0
  1  3  1  1  0  0  0
  1  4  1  0  0  0  0
  2  4  1  0  0  0  0
  2  5  1  0  0  0  0
  3 18  1  0  0  0  0
  4 10  1  0  0  0  0
  5 17  1  0  0  0  0
  6 20  1  0  0  0  0
  6 19  1  0  0  0  0
  7  2  1  0  0  0  0
  8  9  1  0  0  0  0
  9 11  1  0  0  0  0
 10 13  1  0  0  0  0
 10 12  1  0  0  0  0
 11  5  1  0  0  0  0
 14 15  1  0  0  0  0
 14  7  1  0  0  0  0
 15  1  1  0  0  0  0
 16  7  1  0  0  0  0
 16  9  1  0  0  0  0
 17 12  1  0  0  0  0
 18 13  1  0  0  0  0
 19  8  1  0  0  0  0
 20 16  1  0  0  0  0
 21 23  1  0  0  0  0
 21 28  1  0  0  0  0
 22 30  1  0  0  0  0
 24 27  1  0  0  0  0
 25 28  1  0  0  0  0
 25 15  1  0  0  0  0
 26 21  1  0  0  0  0
 27 25  2  0  0  0  0
 28 29  1  0  0  0  0
 30 24  1  0  0  0  0
 30 26  2  0  0  0  0
 31 17  1  0  0  0  0
 31 32  1  0  0  0  0
M  END
>  <MODEL>
6

>  <REMARK>
 VINA RESULT:      -6.6      3.056      8.030
  Name = 
  2 active torsions:
  status: ('A' for Active; 'I' for Inactive)
    1  A    between atoms: C_13  and  C_29
    2  A    between atoms: C_16  and  C_27
                            x       y       z     vdW  Elec       q    Type
                         _______ _______ _______ _____ _____    ______ ____

>  <TORSDO>
F 2

$$$$
=
 OpenBabel11062408293D

 32 37  0  0  1  0  0  0  0  0999 V2000
  161.6810  207.7930  150.8600 C   0  0  1  0  0  3  0  0  0  0  0  0
  161.3490  205.8420  149.3550 C   0  0  1  0  0  3  0  0  0  0  0  0
  162.4390  209.1080  151.0360 C   0  0  0  0  0  2  0  0  0  0  0  0
  162.1230  207.1320  149.5480 C   0  0  1  0  0  3  0  0  0  0  0  0
  161.7080  205.2260  148.0070 C   0  0  1  0  0  3  0  0  0  0  0  0
  160.5310  201.1730  150.7740 C   0  0  0  0  0  2  0  0  0  0  0  0
  161.6490  204.8600  150.4870 C   0  0  1  0  0  3  0  0  0  0  0  0
  160.5930  201.7070  148.5680 C   0  0  0  0  0  2  0  0  0  0  0  0
  161.2930  203.0420  148.8020 C   0  0  1  0  0  3  0  0  0  0  0  0
  161.8360  208.0550  148.3530 C   0  0  2  0  0  3  0  0  0  0  0  0
  160.9160  204.0160  147.7760 N   0  0  0  0  0  2  0  0  0  0  0  0
  162.2530  207.4610  147.1360 O   0  0  0  0  0  0  0  0  0  0  0  0
  162.5590  209.3850  148.5440 C   0  0  0  0  0  2  0  0  0  0  0  0
  161.1990  205.4850  151.8090 C   0  0  0  0  0  2  0  0  0  0  0  0
  161.9030  206.8310  152.0470 C   0  0  2  0  0  3  0  0  0  0  0  0
  160.9070  203.5530  150.2000 C   0  0  1  0  0  3  0  0  0  0  0  0
  161.5260  206.2680  146.8880 C   0  0  2  0  0  3  0  0  0  0  0  0
  162.1440  210.0390  149.8610 C   0  0  0  0  0  2  0  0  0  0  0  0
  161.0380  200.7700  149.5220 O   0  0  0  0  0  0  0  0  0  0  0  0
  161.2060  202.4690  151.2330 C   0  0  0  0  0  2  0  0  0  0  0  0
  160.9820  209.5750  154.7530 C   0  0  1  0  0  3  0  0  0  0  0  0
  158.5820  207.3110  156.5000 O   0  0  0  0  0  1  0  0  0  0  0  0
  160.8850  210.9480  154.6200 F   0  0  0  0  0  0  0  0  0  0  0  0
  160.9560  206.9430  155.8310 C   0  0  0  0  0  2  0  0  0  0  0  0
  161.4600  207.4170  153.3640 C   0  0  0  0  0  0  0  0  0  0  0  0
  159.7580  209.0430  155.4310 C   0  0  0  0  0  3  0  0  0  0  0  0
  161.3140  206.5780  154.4170 C   0  0  0  0  0  3  0  0  0  0  0  0
  161.1960  208.9180  153.3820 C   0  0  1  0  0  3  0  0  0  0  0  0
  160.0810  209.2890  152.4100 C   0  0  0  0  0  1  0  0  0  0  0  0
  159.7360  207.8030  155.9080 C   0  0  0  0  0  0  0  0  0  0  0  0
  160.0810  206.5160  146.4270 C   0  0  0  0  0  2  0  0  0  0  0  0
  159.9120  206.2030  145.0770 O   0  0  0  0  0  1  0  0  0  0  0  0
  1  3  1  1  0  0  0
  1 15  1  0  0  0  0
  2  4  1  0  0  0  0
  2  7  1  0  0  0  0
  4  1  1  0  0  0  0
  5  2  1  0  0  0  0
  6 20  1  0  0  0  0
  7 14  1  0  0  0  0
  8  9  1  0  0  0  0
  8 19  1  0  0  0  0
  9 16  1  0  0  0  0
 10 13  1  0  0  0  0
 10  4  1  0  0  0  0
 11  5  1  0  0  0  0
 11  9  1  0  0  0  0
 12 10  1  0  0  0  0
 13 18  1  0  0  0  0
 14 15  1  0  0  0  0
 15 25  1  0  0  0  0
 16  7  1  0  0  0  0
 16 20  1  0  0  0  0
 17 12  1  0  0  0  0
 17  5  1  0  0  0  0
 18  3  1  0  0  0  0
 19  6  1  0  0  0  0
 21 26  1  0  0  0  0
 23 21  1  0  0  0  0
 24 30  1  0  0  0  0
 25 28  1  0  0  0  0
 25 27  2  0  0  0  0
 26 30  2  0  0  0  0
 27 24  1  0  0  0  0
 28 21  1  0  0  0  0
 29 28  1  0  0  0  0
 30 22  1  0  0  0  0
 31 17  1  0  0  0  0
 32 31  1  0  0  0  0
M  END
>  <MODEL>
7

>  <REMARK>
 VINA RESULT:      -6.5      1.375      1.884
  Name = 
  2 active torsions:
  status: ('A' for Active; 'I' for Inactive)
    1  A    between atoms: C_13  and  C_29
    2  A    between atoms: C_16  and  C_27
                            x       y       z     vdW  Elec       q    Type
                         _______ _______ _______ _____ _____    ______ ____

>  <TORSDO>
F 2

$$$$
