=
 OpenBabel11062407543D

 34 40  0  0  1  0  0  0  0  0999 V2000
  161.0690  206.7210  153.7440 C   0  0  0  0  0  0  0  0  0  0  0  0
  161.5040  208.9850  152.7630 C   0  0  0  0  0  0  0  0  0  0  0  0
  161.5240  206.9790  151.3420 N   0  0  0  0  0  0  0  0  0  0  0  0
  161.7300  207.2440  148.8830 C   0  0  0  0  0  0  0  0  0  0  0  0
  160.8770  208.7640  155.0950 C   0  0  0  0  0  3  0  0  0  0  0  0
  161.2300  209.5670  154.0840 C   0  0  0  0  0  3  0  0  0  0  0  0
  161.7000  209.1710  150.3780 C   0  0  0  0  0  0  0  0  0  0  0  0
  161.7940  207.5060  152.6810 C   0  0  2  0  0  3  0  0  0  0  0  0
  161.7760  210.0470  149.1890 C   0  0  0  0  0  0  0  0  0  0  0  0
  161.9960  208.1080  147.6850 C   0  0  0  0  0  2  0  0  0  0  0  0
  160.7170  207.3040  154.8970 C   0  0  0  0  0  3  0  0  0  0  0  0
  161.3300  205.5660  151.1360 C   0  0  0  0  0  0  0  0  0  0  0  0
  160.8470  205.2820  153.5320 C   0  0  0  0  0  3  0  0  0  0  0  0
  161.5300  209.7290  151.6950 N   0  0  0  0  0  0  0  0  0  0  0  0
  161.6070  205.9560  148.7580 N   0  0  0  0  0  0  0  0  0  0  0  0
  161.3870  205.0610  149.8730 C   0  0  0  0  0  0  0  0  0  0  0  0
  161.8720  209.5410  147.9910 N   0  0  0  0  0  0  0  0  0  0  0  0
  161.6750  207.8430  150.2140 C   0  0  0  0  0  0  0  0  0  0  0  0
  160.9850  204.7390  152.3190 C   0  0  0  0  0  3  0  0  0  0  0  0
  160.9290  201.7880  147.9790 C   0  0  0  0  0  0  0  0  0  0  0  0
  160.8020  200.8860  149.0380 C   0  0  0  0  0  3  0  0  0  0  0  0
  161.2170  203.6180  149.5600 C   0  0  0  0  0  0  0  0  0  0  0  0
  160.8710  201.3440  150.3550 C   0  0  0  0  0  3  0  0  0  0  0  0
  161.1280  203.1470  148.2390 C   0  0  0  0  0  3  0  0  0  0  0  0
  161.0720  202.7030  150.6140 C   0  0  0  0  0  3  0  0  0  0  0  0
  160.8540  201.3370  146.6690 O   0  0  0  0  0  1  0  0  0  0  0  0
  161.6560  211.5270  149.3420 C   0  0  0  0  0  2  0  0  0  0  0  0
  163.7010  213.0930  147.8470 C   0  0  0  0  0  1  0  0  0  0  0  0
  161.4140  212.1490  148.0400 N   0  0  0  0  0  0  0  0  0  0  0  0
  162.2090  213.3820  147.8880 C   0  0  1  0  0  3  0  0  0  0  0  0
  160.4010  214.4360  149.3380 C   0  0  0  0  0  2  0  0  0  0  0  0
  159.5430  213.8540  148.2230 C   0  0  0  0  0  2  0  0  0  0  0  0
  159.9670  212.4070  147.9140 C   0  0  0  0  0  2  0  0  0  0  0  0
  161.8790  214.4530  148.9380 C   0  0  0  0  0  2  0  0  0  0  0  0
  1 11  2  0  0  0  0
  2  6  1  0  0  0  0
  3  8  1  0  0  0  0
  4 18  1  0  0  0  0
  6  5  2  0  0  0  0
  7 14  1  0  0  0  0
  8  2  1  6  0  0  0
  8  1  1  0  0  0  0
  9 27  1  0  0  0  0
  9  7  1  0  0  0  0
 10 17  1  0  0  0  0
 10  4  1  0  0  0  0
 11  5  1  0  0  0  0
 12  3  1  0  0  0  0
 12 19  1  0  0  0  0
 13  1  1  0  0  0  0
 14  2  2  0  0  0  0
 15  4  2  0  0  0  0
 15 16  1  0  0  0  0
 16 12  2  0  0  0  0
 17  9  2  0  0  0  0
 18  7  2  0  0  0  0
 18  3  1  0  0  0  0
 19 13  2  0  0  0  0
 20 24  2  0  0  0  0
 20 21  1  0  0  0  0
 21 23  2  0  0  0  0
 22 16  1  0  0  0  0
 22 25  2  0  0  0  0
 23 25  1  0  0  0  0
 24 22  1  0  0  0  0
 26 20  1  0  0  0  0
 29 27  1  0  0  0  0
 30 28  1  1  0  0  0
 30 29  1  0  0  0  0
 30 34  1  0  0  0  0
 32 31  1  0  0  0  0
 33 29  1  0  0  0  0
 33 32  1  0  0  0  0
 34 31  1  0  0  0  0
M  END
>  <MODEL>
1

>  <REMARK>
 VINA RESULT:      -9.3      0.000      0.000
  Name = 
  3 active torsions:
  status: ('A' for Active; 'I' for Inactive)
    1  A    between atoms: C_3  and  N_13
    2  A    between atoms: C_3  and  C_17
    3  A    between atoms: C_12  and  C_28
                            x       y       z     vdW  Elec       q    Type
                         _______ _______ _______ _____ _____    ______ ____

>  <TORSDO>
F 3

$$$$
=
 OpenBabel11062407543D

 34 40  0  0  1  0  0  0  0  0999 V2000
  161.7600  207.4460  147.8540 C   0  0  0  0  0  0  0  0  0  0  0  0
  161.5470  208.0700  150.2720 C   0  0  0  0  0  0  0  0  0  0  0  0
  161.2370  205.7410  149.5470 N   0  0  0  0  0  0  0  0  0  0  0  0
  160.9600  203.9700  151.2630 C   0  0  0  0  0  0  0  0  0  0  0  0
  162.2420  209.7230  148.6390 C   0  0  0  0  0  3  0  0  0  0  0  0
  161.9410  209.4390  149.9120 C   0  0  0  0  0  3  0  0  0  0  0  0
  161.2740  206.3090  151.8800 C   0  0  0  0  0  0  0  0  0  0  0  0
  161.0860  207.1470  149.1690 C   0  0  2  0  0  3  0  0  0  0  0  0
  161.2490  205.8990  153.3000 C   0  0  0  0  0  0  0  0  0  0  0  0
  160.7450  203.5650  152.6920 C   0  0  0  0  0  3  0  0  0  0  0  0
  162.2240  208.6740  147.5920 C   0  0  0  0  0  3  0  0  0  0  0  0
  161.2580  204.7100  148.5400 C   0  0  0  0  0  0  0  0  0  0  0  0
  161.8060  206.3920  146.8290 C   0  0  0  0  0  3  0  0  0  0  0  0
  161.5620  207.6710  151.5110 N   0  0  0  0  0  0  0  0  0  0  0  0
  160.9290  203.0850  150.3110 N   0  0  0  0  0  0  0  0  0  0  0  0
  161.0920  203.4110  148.9110 C   0  0  0  0  0  0  0  0  0  0  0  0
  161.0460  204.6540  153.6330 N   0  0  0  0  0  0  0  0  0  0  0  0
  161.1390  205.3800  150.9260 C   0  0  1  0  0  3  0  0  0  0  0  0
  161.5550  205.1170  147.1440 C   0  0  0  0  0  3  0  0  0  0  0  0
  160.4850  201.3030  145.7970 C   0  0  0  0  0  0  0  0  0  0  0  0
  161.0100  200.0750  146.2030 C   0  0  0  0  0  3  0  0  0  0  0  0
  161.0810  202.2800  147.9460 C   0  0  0  0  0  0  0  0  0  0  0  0
  161.5610  199.9400  147.4800 C   0  0  0  0  0  3  0  0  0  0  0  0
  160.5140  202.3970  146.6660 C   0  0  0  0  0  3  0  0  0  0  0  0
  161.5910  201.0350  148.3480 C   0  0  0  0  0  3  0  0  0  0  0  0
  159.9310  201.4380  144.5310 O   0  0  0  0  0  1  0  0  0  0  0  0
  161.5450  206.8960  154.3710 C   0  0  0  0  0  2  0  0  0  0  0  0
  161.0610  209.7680  153.7510 C   0  0  0  0  0  1  0  0  0  0  0  0
  160.3250  207.6140  154.7390 N   0  0  0  0  0  0  0  0  0  0  0  0
  160.6090  209.0370  155.0050 C   0  0  1  0  0  3  0  0  0  0  0  0
  161.4460  208.1960  157.2580 C   0  0  0  0  0  2  0  0  0  0  0  0
  160.0400  207.6120  157.2610 C   0  0  0  0  0  2  0  0  0  0  0  0
  159.7290  206.9430  155.9110 C   0  0  0  0  0  2  0  0  0  0  0  0
  161.5960  209.2550  156.1620 C   0  0  0  0  0  2  0  0  0  0  0  0
  2 14  2  0  0  0  0
  3 18  1  0  0  0  0
  4 10  1  0  0  0  0
  5  6  2  0  0  0  0
  6  2  1  0  0  0  0
  7  9  2  0  0  0  0
  8  1  1  6  0  0  0
  8  3  1  0  0  0  0
  8  2  1  0  0  0  0
  9 17  1  0  0  0  0
  9 27  1  0  0  0  0
 10 17  2  0  0  0  0
 11  1  2  0  0  0  0
 11  5  1  0  0  0  0
 12 16  2  0  0  0  0
 12  3  1  0  0  0  0
 13 19  2  0  0  0  0
 13  1  1  0  0  0  0
 14  7  1  0  0  0  0
 15  4  2  0  0  0  0
 16 15  1  0  0  0  0
 18  4  1  1  0  0  0
 18  7  1  0  0  0  0
 19 12  1  0  0  0  0
 20 21  2  0  0  0  0
 20 24  1  0  0  0  0
 21 23  1  0  0  0  0
 22 25  1  0  0  0  0
 22 16  1  0  0  0  0
 23 25  2  0  0  0  0
 24 22  2  0  0  0  0
 26 20  1  0  0  0  0
 27 29  1  0  0  0  0
 29 30  1  0  0  0  0
 29 33  1  0  0  0  0
 30 28  1  6  0  0  0
 30 34  1  0  0  0  0
 31 32  1  0  0  0  0
 33 32  1  0  0  0  0
 34 31  1  0  0  0  0
M  END
>  <MODEL>
2

>  <REMARK>
 VINA RESULT:      -9.2      2.414      5.778
  Name = 
  3 active torsions:
  status: ('A' for Active; 'I' for Inactive)
    1  A    between atoms: C_3  and  N_13
    2  A    between atoms: C_3  and  C_17
    3  A    between atoms: C_12  and  C_28
                            x       y       z     vdW  Elec       q    Type
                         _______ _______ _______ _____ _____    ______ ____

>  <TORSDO>
F 3

$$$$
=
 OpenBabel11062407543D

 34 40  0  0  1  0  0  0  0  0999 V2000
  160.8340  212.6160  150.2180 C   0  0  0  0  0  0  0  0  0  0  0  0
  161.8000  210.5960  149.0920 C   0  0  0  0  0  0  0  0  0  0  0  0
  161.0260  210.4820  151.4230 N   0  0  0  0  0  0  0  0  0  0  0  0
  160.9780  208.2820  152.5730 C   0  0  0  0  0  0  0  0  0  0  0  0
  161.4460  212.6420  147.8400 C   0  0  0  0  0  3  0  0  0  0  0  0
  161.8900  211.3790  147.8530 C   0  0  0  0  0  3  0  0  0  0  0  0
  161.7270  208.5010  150.2610 C   0  0  0  0  0  0  0  0  0  0  0  0
  161.6160  211.3390  150.3940 C   0  0  2  0  0  3  0  0  0  0  0  0
  161.9070  207.0330  150.2210 C   0  0  0  0  0  0  0  0  0  0  0  0
  161.3320  206.8240  152.6070 C   0  0  0  0  0  3  0  0  0  0  0  0
  160.8300  213.2530  149.0410 C   0  0  0  0  0  3  0  0  0  0  0  0
  160.3900  211.0580  152.5810 C   0  0  0  0  0  0  0  0  0  0  0  0
  160.1630  213.2000  151.3900 C   0  0  0  0  0  3  0  0  0  0  0  0
  161.9080  209.2990  149.0760 N   0  0  0  0  0  0  0  0  0  0  0  0
  160.4560  208.8630  153.6120 N   0  0  0  0  0  0  0  0  0  0  0  0
  160.1250  210.2710  153.6590 C   0  0  0  0  0  0  0  0  0  0  0  0
  161.6870  206.3030  151.2790 N   0  0  0  0  0  0  0  0  0  0  0  0
  161.2820  209.0760  151.3850 C   0  0  1  0  0  3  0  0  0  0  0  0
  159.9700  212.4790  152.5000 C   0  0  0  0  0  3  0  0  0  0  0  0
  157.5330  211.4610  156.1830 C   0  0  0  0  0  0  0  0  0  0  0  0
  158.3530  211.8220  157.2540 C   0  0  0  0  0  3  0  0  0  0  0  0
  159.4880  210.7750  154.9040 C   0  0  0  0  0  0  0  0  0  0  0  0
  159.7380  211.6710  157.1530 C   0  0  0  0  0  3  0  0  0  0  0  0
  158.0980  210.9480  155.0130 C   0  0  0  0  0  3  0  0  0  0  0  0
  160.3020  211.1560  155.9820 C   0  0  0  0  0  3  0  0  0  0  0  0
  156.1570  211.6160  156.2790 O   0  0  0  0  0  1  0  0  0  0  0  0
  162.2600  206.3600  148.9360 C   0  0  0  0  0  2  0  0  0  0  0  0
  161.2060  203.6090  149.3740 C   0  0  0  0  0  1  0  0  0  0  0  0
  161.0530  205.8380  148.2940 N   0  0  0  0  0  0  0  0  0  0  0  0
  161.1610  204.3840  148.0680 C   0  0  1  0  0  3  0  0  0  0  0  0
  162.5940  205.0510  146.0710 C   0  0  0  0  0  2  0  0  0  0  0  0
  161.3330  205.8500  145.7730 C   0  0  0  0  0  2  0  0  0  0  0  0
  160.8420  206.5780  147.0360 C   0  0  0  0  0  2  0  0  0  0  0  0
  162.3310  203.9970  147.1500 C   0  0  0  0  0  2  0  0  0  0  0  0
  1  8  1  0  0  0  0
  1 13  1  0  0  0  0
  3 12  1  0  0  0  0
  4 10  1  0  0  0  0
  4 15  2  0  0  0  0
  5  6  2  0  0  0  0
  5 11  1  0  0  0  0
  6  2  1  0  0  0  0
  8  2  1  6  0  0  0
  8  3  1  0  0  0  0
  9  7  2  0  0  0  0
  9 17  1  0  0  0  0
 11  1  2  0  0  0  0
 12 16  2  0  0  0  0
 13 19  2  0  0  0  0
 14  2  2  0  0  0  0
 14  7  1  0  0  0  0
 15 16  1  0  0  0  0
 16 22  1  0  0  0  0
 17 10  2  0  0  0  0
 18  7  1  6  0  0  0
 18  3  1  0  0  0  0
 18  4  1  0  0  0  0
 19 12  1  0  0  0  0
 20 26  1  0  0  0  0
 20 21  1  0  0  0  0
 22 24  1  0  0  0  0
 22 25  2  0  0  0  0
 23 21  2  0  0  0  0
 24 20  2  0  0  0  0
 25 23  1  0  0  0  0
 27  9  1  0  0  0  0
 29 27  1  0  0  0  0
 30 29  1  0  0  0  0
 30 28  1  1  0  0  0
 31 34  1  0  0  0  0
 32 31  1  0  0  0  0
 32 33  1  0  0  0  0
 33 29  1  0  0  0  0
 34 30  1  0  0  0  0
M  END
>  <MODEL>
3

>  <REMARK>
 VINA RESULT:      -8.5      3.324      8.063
  Name = 
  3 active torsions:
  status: ('A' for Active; 'I' for Inactive)
    1  A    between atoms: C_3  and  N_13
    2  A    between atoms: C_3  and  C_17
    3  A    between atoms: C_12  and  C_28
                            x       y       z     vdW  Elec       q    Type
                         _______ _______ _______ _____ _____    ______ ____

>  <TORSDO>
F 3

$$$$
=
 OpenBabel11062407543D

 34 40  0  0  1  0  0  0  0  0999 V2000
  161.2840  205.3040  152.2070 C   0  0  0  0  0  0  0  0  0  0  0  0
  161.2130  207.6810  152.9980 C   0  0  0  0  0  0  0  0  0  0  0  0
  161.6430  207.1590  150.6340 N   0  0  0  0  0  0  0  0  0  0  0  0
  161.7570  209.0150  148.9900 C   0  0  0  0  0  0  0  0  0  0  0  0
  160.6760  205.8700  154.5190 C   0  0  0  0  0  3  0  0  0  0  0  0
  160.8370  207.1850  154.3290 C   0  0  0  0  0  3  0  0  0  0  0  0
  161.3340  209.4280  151.3570 C   0  0  0  0  0  0  0  0  0  0  0  0
  161.8110  206.7030  152.0150 C   0  0  2  0  0  3  0  0  0  0  0  0
  161.2060  210.8680  151.0440 C   0  0  0  0  0  0  0  0  0  0  0  0
  161.8170  210.4840  148.6890 C   0  0  0  0  0  2  0  0  0  0  0  0
  160.8310  204.9070  153.4030 C   0  0  0  0  0  3  0  0  0  0  0  0
  161.7540  206.2310  149.5380 C   0  0  0  0  0  0  0  0  0  0  0  0
  161.3730  204.3560  151.0860 C   0  0  0  0  0  3  0  0  0  0  0  0
  161.0650  208.9360  152.6840 N   0  0  0  0  0  0  0  0  0  0  0  0
  161.9110  208.1360  148.0450 N   0  0  0  0  0  0  0  0  0  0  0  0
  161.9010  206.7080  148.2710 C   0  0  0  0  0  0  0  0  0  0  0  0
  161.3930  211.3070  149.8300 N   0  0  0  0  0  0  0  0  0  0  0  0
  161.5920  208.5630  150.3690 C   0  0  0  0  0  0  0  0  0  0  0  0
  161.6090  204.7860  149.8420 C   0  0  0  0  0  3  0  0  0  0  0  0
  161.1140  204.7100  145.1250 C   0  0  0  0  0  0  0  0  0  0  0  0
  162.3440  204.0910  144.8910 C   0  0  0  0  0  3  0  0  0  0  0  0
  162.0400  205.8320  147.0780 C   0  0  0  0  0  0  0  0  0  0  0  0
  163.4190  204.3300  145.7490 C   0  0  0  0  0  3  0  0  0  0  0  0
  160.9620  205.5700  146.2160 C   0  0  0  0  0  3  0  0  0  0  0  0
  163.2660  205.1910  146.8400 C   0  0  0  0  0  3  0  0  0  0  0  0
  160.0420  204.4700  144.2770 O   0  0  0  0  0  1  0  0  0  0  0  0
  160.7740  211.8270  152.1030 C   0  0  0  0  0  2  0  0  0  0  0  0
  159.5650  214.4160  151.2620 C   0  0  0  0  0  1  0  0  0  0  0  0
  159.3320  212.0610  152.0110 N   0  0  0  0  0  0  0  0  0  0  0  0
  159.0050  213.4680  152.3100 C   0  0  1  0  0  3  0  0  0  0  0  0
  159.2860  212.7590  154.7400 C   0  0  0  0  0  2  0  0  0  0  0  0
  158.2500  211.7420  154.2830 C   0  0  0  0  0  2  0  0  0  0  0  0
  158.6530  211.1290  152.9310 C   0  0  0  0  0  2  0  0  0  0  0  0
  159.4160  213.9000  153.7270 C   0  0  0  0  0  2  0  0  0  0  0  0
  1 11  2  0  0  0  0
  2  6  1  0  0  0  0
  3  8  1  0  0  0  0
  4 18  1  0  0  0  0
  6  5  2  0  0  0  0
  7 14  1  0  0  0  0
  8  1  1  6  0  0  0
  8  2  1  0  0  0  0
  9  7  1  0  0  0  0
  9 27  1  0  0  0  0
 10  4  1  0  0  0  0
 10 17  1  0  0  0  0
 11  5  1  0  0  0  0
 12 19  1  0  0  0  0
 12  3  1  0  0  0  0
 13  1  1  0  0  0  0
 14  2  2  0  0  0  0
 15 16  1  0  0  0  0
 15  4  2  0  0  0  0
 16 12  2  0  0  0  0
 17  9  2  0  0  0  0
 18  3  1  0  0  0  0
 18  7  2  0  0  0  0
 19 13  2  0  0  0  0
 20 24  1  0  0  0  0
 21 20  2  0  0  0  0
 21 23  1  0  0  0  0
 22 16  1  0  0  0  0
 23 25  2  0  0  0  0
 24 22  2  0  0  0  0
 25 22  1  0  0  0  0
 26 20  1  0  0  0  0
 29 27  1  0  0  0  0
 29 30  1  0  0  0  0
 29 33  1  0  0  0  0
 30 28  1  6  0  0  0
 30 34  1  0  0  0  0
 32 31  1  0  0  0  0
 33 32  1  0  0  0  0
 34 31  1  0  0  0  0
M  END
>  <MODEL>
4

>  <REMARK>
 VINA RESULT:      -7.8      2.407      3.646
  Name = 
  3 active torsions:
  status: ('A' for Active; 'I' for Inactive)
    1  A    between atoms: C_3  and  N_13
    2  A    between atoms: C_3  and  C_17
    3  A    between atoms: C_12  and  C_28
                            x       y       z     vdW  Elec       q    Type
                         _______ _______ _______ _____ _____    ______ ____

>  <TORSDO>
F 3

$$$$
=
 OpenBabel11062407543D

 34 40  0  0  1  0  0  0  0  0999 V2000
  161.8560  208.2690  148.6210 C   0  0  0  0  0  0  0  0  0  0  0  0
  161.6210  209.0830  150.9800 C   0  0  0  0  0  0  0  0  0  0  0  0
  161.3190  206.7030  150.4390 N   0  0  0  0  0  0  0  0  0  0  0  0
  161.0260  205.0730  152.2880 C   0  0  0  0  0  0  0  0  0  0  0  0
  162.3300  210.6010  149.2270 C   0  0  0  0  0  3  0  0  0  0  0  0
  162.0180  210.4190  150.5160 C   0  0  0  0  0  3  0  0  0  0  0  0
  161.3340  207.4540  152.7200 C   0  0  0  0  0  0  0  0  0  0  0  0
  161.1700  208.0750  149.9490 C   0  0  2  0  0  3  0  0  0  0  0  0
  161.2970  207.1580  154.1680 C   0  0  0  0  0  0  0  0  0  0  0  0
  160.7990  204.7830  153.7420 C   0  0  0  0  0  3  0  0  0  0  0  0
  162.3220  209.4730  148.2670 C   0  0  0  0  0  3  0  0  0  0  0  0
  161.3490  205.5960  149.5170 C   0  0  0  0  0  0  0  0  0  0  0  0
  161.9110  207.1370  147.6830 C   0  0  0  0  0  3  0  0  0  0  0  0
  161.6250  208.7830  152.2470 N   0  0  0  0  0  0  0  0  0  0  0  0
  161.0050  204.1160  151.4090 N   0  0  0  0  0  0  0  0  0  0  0  0
  161.1790  204.3300  149.9890 C   0  0  0  0  0  0  0  0  0  0  0  0
  161.0910  205.9430  154.5970 N   0  0  0  0  0  0  0  0  0  0  0  0
  161.2080  206.4520  151.8420 C   0  0  1  0  0  3  0  0  0  0  0  0
  161.6580  205.8910  148.0970 C   0  0  0  0  0  3  0  0  0  0  0  0
  161.0060  202.0630  146.9320 C   0  0  0  0  0  0  0  0  0  0  0  0
  161.0880  200.8050  147.5320 C   0  0  0  0  0  3  0  0  0  0  0  0
  161.1780  203.1250  149.1170 C   0  0  0  0  0  0  0  0  0  0  0  0
  161.2050  200.7000  148.9200 C   0  0  0  0  0  3  0  0  0  0  0  0
  161.0440  203.2160  147.7210 C   0  0  0  0  0  3  0  0  0  0  0  0
  161.2430  201.8540  149.7080 C   0  0  0  0  0  3  0  0  0  0  0  0
  160.8850  202.1690  145.5540 O   0  0  0  0  0  1  0  0  0  0  0  0
  161.5830  208.2370  155.1590 C   0  0  0  0  0  2  0  0  0  0  0  0
  163.2400  210.7040  154.9630 C   0  0  0  0  0  1  0  0  0  0  0  0
  161.0800  209.5190  154.6650 N   0  0  0  0  0  0  0  0  0  0  0  0
  161.7650  210.6460  155.3260 C   0  0  1  0  0  3  0  0  0  0  0  0
  160.1850  210.1510  157.2600 C   0  0  0  0  0  2  0  0  0  0  0  0
  159.1780  210.3330  156.1330 C   0  0  0  0  0  2  0  0  0  0  0  0
  159.6210  209.5570  154.8810 C   0  0  0  0  0  2  0  0  0  0  0  0
  161.5650  210.6700  156.8490 C   0  0  0  0  0  2  0  0  0  0  0  0
  2 14  2  0  0  0  0
  3 18  1  0  0  0  0
  4 10  1  0  0  0  0
  5  6  2  0  0  0  0
  6  2  1  0  0  0  0
  7  9  2  0  0  0  0
  8  1  1  6  0  0  0
  8  3  1  0  0  0  0
  8  2  1  0  0  0  0
  9 17  1  0  0  0  0
  9 27  1  0  0  0  0
 10 17  2  0  0  0  0
 11  1  2  0  0  0  0
 11  5  1  0  0  0  0
 12 16  2  0  0  0  0
 12  3  1  0  0  0  0
 13 19  2  0  0  0  0
 13  1  1  0  0  0  0
 14  7  1  0  0  0  0
 15  4  2  0  0  0  0
 16 15  1  0  0  0  0
 18  4  1  1  0  0  0
 18  7  1  0  0  0  0
 19 12  1  0  0  0  0
 20 21  2  0  0  0  0
 20 24  1  0  0  0  0
 21 23  1  0  0  0  0
 22 25  1  0  0  0  0
 22 16  1  0  0  0  0
 23 25  2  0  0  0  0
 24 22  2  0  0  0  0
 26 20  1  0  0  0  0
 29 33  1  0  0  0  0
 29 27  1  0  0  0  0
 29 30  1  0  0  0  0
 30 28  1  1  0  0  0
 30 34  1  0  0  0  0
 32 31  1  0  0  0  0
 33 32  1  0  0  0  0
 34 31  1  0  0  0  0
M  END
>  <MODEL>
5

>  <REMARK>
 VINA RESULT:      -7.6      2.121      5.162
  Name = 
  3 active torsions:
  status: ('A' for Active; 'I' for Inactive)
    1  A    between atoms: C_3  and  N_13
    2  A    between atoms: C_3  and  C_17
    3  A    between atoms: C_12  and  C_28
                            x       y       z     vdW  Elec       q    Type
                         _______ _______ _______ _____ _____    ______ ____

>  <TORSDO>
F 3

$$$$
=
 OpenBabel11062407543D

 34 40  0  0  1  0  0  0  0  0999 V2000
  161.9090  208.8080  148.8780 C   0  0  0  0  0  0  0  0  0  0  0  0
  161.5110  210.2540  150.8850 C   0  0  0  0  0  0  0  0  0  0  0  0
  161.2410  207.8140  151.0250 N   0  0  0  0  0  0  0  0  0  0  0  0
  160.8150  206.7720  153.2370 C   0  0  0  0  0  0  0  0  0  0  0  0
  162.3460  211.2240  148.8250 C   0  0  0  0  0  3  0  0  0  0  0  0
  161.9440  211.4100  150.0890 C   0  0  0  0  0  3  0  0  0  0  0  0
  161.0980  209.1830  152.9930 C   0  0  0  0  0  0  0  0  0  0  0  0
  161.1310  208.9870  150.1560 C   0  0  2  0  0  3  0  0  0  0  0  0
  160.9590  209.3090  154.4600 C   0  0  0  0  0  0  0  0  0  0  0  0
  160.4850  206.9030  154.6950 C   0  0  0  0  0  3  0  0  0  0  0  0
  162.4020  209.8690  148.2280 C   0  0  0  0  0  3  0  0  0  0  0  0
  161.3330  206.4910  150.4610 C   0  0  0  0  0  0  0  0  0  0  0  0
  162.0270  207.4570  148.3070 C   0  0  0  0  0  3  0  0  0  0  0  0
  161.4260  210.3270  152.1820 N   0  0  0  0  0  0  0  0  0  0  0  0
  160.8530  205.6040  152.6670 N   0  0  0  0  0  0  0  0  0  0  0  0
  161.1270  205.4080  151.2610 C   0  0  0  0  0  0  0  0  0  0  0  0
  160.7200  208.2630  155.2010 N   0  0  0  0  0  0  0  0  0  0  0  0
  161.0320  207.9700  152.4300 C   0  0  1  0  0  3  0  0  0  0  0  0
  161.7420  206.3750  149.0400 C   0  0  0  0  0  3  0  0  0  0  0  0
  160.8920  202.3350  149.0220 C   0  0  0  0  0  0  0  0  0  0  0  0
  161.2190  201.3240  149.9280 C   0  0  0  0  0  3  0  0  0  0  0  0
  161.1830  204.0060  150.7700 C   0  0  0  0  0  0  0  0  0  0  0  0
  161.5180  201.6450  151.2540 C   0  0  0  0  0  3  0  0  0  0  0  0
  160.8680  203.6680  149.4430 C   0  0  0  0  0  3  0  0  0  0  0  0
  161.4940  202.9780  151.6730 C   0  0  0  0  0  3  0  0  0  0  0  0
  160.5890  202.0180  147.7060 O   0  0  0  0  0  1  0  0  0  0  0  0
  161.1780  210.6300  155.1190 C   0  0  0  0  0  2  0  0  0  0  0  0
  158.2270  210.2340  155.0490 C   0  0  0  0  0  1  0  0  0  0  0  0
  160.3100  210.7560  156.2910 N   0  0  0  0  0  0  0  0  0  0  0  0
  158.9720  211.2420  155.9080 C   0  0  1  0  0  3  0  0  0  0  0  0
  160.0960  213.5250  155.8160 C   0  0  0  0  0  2  0  0  0  0  0  0
  160.4570  213.1070  157.2350 C   0  0  0  0  0  2  0  0  0  0  0  0
  160.9680  211.6560  157.2580 C   0  0  0  0  0  2  0  0  0  0  0  0
  158.9940  212.6290  155.2460 C   0  0  0  0  0  2  0  0  0  0  0  0
  2 14  2  0  0  0  0
  3 18  1  0  0  0  0
  4 10  1  0  0  0  0
  5  6  2  0  0  0  0
  6  2  1  0  0  0  0
  7  9  2  0  0  0  0
  8  1  1  6  0  0  0
  8  2  1  0  0  0  0
  8  3  1  0  0  0  0
  9 27  1  0  0  0  0
  9 17  1  0  0  0  0
 10 17  2  0  0  0  0
 11  5  1  0  0  0  0
 11  1  2  0  0  0  0
 12  3  1  0  0  0  0
 12 16  2  0  0  0  0
 13  1  1  0  0  0  0
 13 19  2  0  0  0  0
 14  7  1  0  0  0  0
 15  4  2  0  0  0  0
 16 15  1  0  0  0  0
 18  7  1  1  0  0  0
 18  4  1  0  0  0  0
 19 12  1  0  0  0  0
 20 24  2  0  0  0  0
 20 21  1  0  0  0  0
 21 23  2  0  0  0  0
 22 16  1  0  0  0  0
 22 25  2  0  0  0  0
 23 25  1  0  0  0  0
 24 22  1  0  0  0  0
 26 20  1  0  0  0  0
 27 29  1  0  0  0  0
 29 33  1  0  0  0  0
 30 28  1  6  0  0  0
 30 29  1  0  0  0  0
 31 32  1  0  0  0  0
 32 33  1  0  0  0  0
 34 31  1  0  0  0  0
 34 30  1  0  0  0  0
M  END
>  <MODEL>
6

>  <REMARK>
 VINA RESULT:      -7.2      2.146      5.294
  Name = 
  3 active torsions:
  status: ('A' for Active; 'I' for Inactive)
    1  A    between atoms: C_3  and  N_13
    2  A    between atoms: C_3  and  C_17
    3  A    between atoms: C_12  and  C_28
                            x       y       z     vdW  Elec       q    Type
                         _______ _______ _______ _____ _____    ______ ____

>  <TORSDO>
F 3

$$$$
=
 OpenBabel11062407543D

 34 40  0  0  1  0  0  0  0  0999 V2000
  160.7660  204.9540  153.0580 C   0  0  0  0  0  0  0  0  0  0  0  0
  160.9970  204.7950  150.5680 C   0  0  0  0  0  0  0  0  0  0  0  0
  161.1120  206.9740  151.7010 N   0  0  0  0  0  0  0  0  0  0  0  0
  161.7100  208.9900  150.3810 C   0  0  0  0  0  0  0  0  0  0  0  0
  160.8400  202.7820  151.9130 C   0  0  0  0  0  3  0  0  0  0  0  0
  160.9380  203.3320  150.6960 C   0  0  0  0  0  3  0  0  0  0  0  0
  161.5700  206.7820  149.3510 C   0  0  0  0  0  0  0  0  0  0  0  0
  160.5280  205.6320  151.7340 C   0  0  2  0  0  3  0  0  0  0  0  0
  161.9950  207.3940  148.0730 C   0  0  0  0  0  0  0  0  0  0  0  0
  161.9560  209.6520  149.0570 C   0  0  0  0  0  2  0  0  0  0  0  0
  160.8310  203.6190  153.1360 C   0  0  0  0  0  3  0  0  0  0  0  0
  161.1440  207.7880  152.8890 C   0  0  0  0  0  0  0  0  0  0  0  0
  160.8230  205.7800  154.2740 C   0  0  0  0  0  3  0  0  0  0  0  0
  161.4120  205.3560  149.4690 N   0  0  0  0  0  0  0  0  0  0  0  0
  161.6710  209.6890  151.4760 N   0  0  0  0  0  0  0  0  0  0  0  0
  161.4020  209.1210  152.7790 C   0  0  0  0  0  0  0  0  0  0  0  0
  162.1950  208.6800  147.9810 N   0  0  0  0  0  0  0  0  0  0  0  0
  161.4450  207.5540  150.4370 C   0  0  0  0  0  0  0  0  0  0  0  0
  160.9820  207.1050  154.1960 C   0  0  0  0  0  3  0  0  0  0  0  0
  162.4410  210.8380  156.0160 C   0  0  0  0  0  0  0  0  0  0  0  0
  161.4050  211.7610  156.1700 C   0  0  0  0  0  3  0  0  0  0  0  0
  161.4400  210.0450  153.9430 C   0  0  0  0  0  0  0  0  0  0  0  0
  160.3810  211.8240  155.2220 C   0  0  0  0  0  3  0  0  0  0  0  0
  162.4550  209.9810  154.9130 C   0  0  0  0  0  3  0  0  0  0  0  0
  160.3960  210.9670  154.1180 C   0  0  0  0  0  3  0  0  0  0  0  0
  163.4560  210.7700  156.9600 O   0  0  0  0  0  1  0  0  0  0  0  0
  162.2830  206.5290  146.8910 C   0  0  0  0  0  2  0  0  0  0  0  0
  162.3310  203.5780  147.2850 C   0  0  0  0  0  1  0  0  0  0  0  0
  161.1430  205.6530  146.6200 N   0  0  0  0  0  0  0  0  0  0  0  0
  161.5950  204.3190  146.1810 C   0  0  1  0  0  3  0  0  0  0  0  0
  161.9560  205.4530  143.9300 C   0  0  0  0  0  2  0  0  0  0  0  0
  160.4940  205.8000  144.1720 C   0  0  0  0  0  2  0  0  0  0  0  0
  160.2880  206.3050  145.6100 C   0  0  0  0  0  2  0  0  0  0  0  0
  162.4230  204.3530  144.8860 C   0  0  0  0  0  2  0  0  0  0  0  0
  1 11  2  0  0  0  0
  1 13  1  0  0  0  0
  2  6  1  0  0  0  0
  3  8  1  0  0  0  0
  3 12  1  0  0  0  0
  4 18  1  0  0  0  0
  4 15  2  0  0  0  0
  5 11  1  0  0  0  0
  6  5  2  0  0  0  0
  7 14  1  0  0  0  0
  7 18  2  0  0  0  0
  8  2  1  6  0  0  0
  8  1  1  0  0  0  0
  9  7  1  0  0  0  0
 10  4  1  0  0  0  0
 12 19  1  0  0  0  0
 14  2  2  0  0  0  0
 15 16  1  0  0  0  0
 16 12  2  0  0  0  0
 16 22  1  0  0  0  0
 17  9  2  0  0  0  0
 17 10  1  0  0  0  0
 18  3  1  0  0  0  0
 19 13  2  0  0  0  0
 20 21  1  0  0  0  0
 20 26  1  0  0  0  0
 22 25  2  0  0  0  0
 22 24  1  0  0  0  0
 23 21  2  0  0  0  0
 24 20  2  0  0  0  0
 25 23  1  0  0  0  0
 27  9  1  0  0  0  0
 29 27  1  0  0  0  0
 30 29  1  0  0  0  0
 30 28  1  1  0  0  0
 31 32  1  0  0  0  0
 31 34  1  0  0  0  0
 32 33  1  0  0  0  0
 33 29  1  0  0  0  0
 34 30  1  0  0  0  0
M  END
>  <MODEL>
7

>  <REMARK>
 VINA RESULT:      -7.1      3.297      7.190
  Name = 
  3 active torsions:
  status: ('A' for Active; 'I' for Inactive)
    1  A    between atoms: C_3  and  N_13
    2  A    between atoms: C_3  and  C_17
    3  A    between atoms: C_12  and  C_28
                            x       y       z     vdW  Elec       q    Type
                         _______ _______ _______ _____ _____    ______ ____

>  <TORSDO>
F 3

$$$$
=
 OpenBabel11062407543D

 34 40  0  0  1  0  0  0  0  0999 V2000
  161.1610  204.4330  151.4490 C   0  0  0  0  0  0  0  0  0  0  0  0
  161.3810  206.5700  152.7400 C   0  0  0  0  0  0  0  0  0  0  0  0
  161.5730  206.5610  150.2890 N   0  0  0  0  0  0  0  0  0  0  0  0
  161.7360  208.7250  149.0830 C   0  0  0  0  0  0  0  0  0  0  0  0
  160.7940  204.5100  153.8770 C   0  0  0  0  0  3  0  0  0  0  0  0
  161.0650  205.8180  153.9620 C   0  0  0  0  0  3  0  0  0  0  0  0
  161.5420  208.6260  151.5130 C   0  0  0  0  0  0  0  0  0  0  0  0
  161.8040  205.7950  151.5150 C   0  0  2  0  0  3  0  0  0  0  0  0
  161.5290  210.1050  151.5340 C   0  0  0  0  0  0  0  0  0  0  0  0
  161.9130  210.2150  149.1030 C   0  0  0  0  0  2  0  0  0  0  0  0
  160.7670  203.8140  152.5690 C   0  0  0  0  0  3  0  0  0  0  0  0
  161.5070  205.8970  149.0120 C   0  0  0  0  0  0  0  0  0  0  0  0
  161.0690  203.7570  150.1460 C   0  0  0  0  0  3  0  0  0  0  0  0
  161.3310  207.8710  152.7210 N   0  0  0  0  0  0  0  0  0  0  0  0
  161.7290  208.0720  147.9590 N   0  0  0  0  0  0  0  0  0  0  0  0
  161.6000  206.6340  147.8700 C   0  0  0  0  0  0  0  0  0  0  0  0
  161.6620  210.7910  150.4320 N   0  0  0  0  0  0  0  0  0  0  0  0
  161.6360  207.9880  150.3410 C   0  0  0  0  0  0  0  0  0  0  0  0
  161.2480  204.4360  149.0080 C   0  0  0  0  0  3  0  0  0  0  0  0
  160.4150  204.8270  144.7330 C   0  0  0  0  0  0  0  0  0  0  0  0
  161.5770  204.8540  143.9580 C   0  0  0  0  0  3  0  0  0  0  0  0
  161.5590  206.0400  146.5080 C   0  0  0  0  0  0  0  0  0  0  0  0
  162.7320  205.4620  144.4550 C   0  0  0  0  0  3  0  0  0  0  0  0
  160.4090  205.4100  146.0030 C   0  0  0  0  0  3  0  0  0  0  0  0
  162.7240  206.0470  145.7250 C   0  0  0  0  0  3  0  0  0  0  0  0
  159.2680  204.2190  144.2440 O   0  0  0  0  0  1  0  0  0  0  0  0
  161.2760  210.8320  152.8130 C   0  0  0  0  0  2  0  0  0  0  0  0
  158.7390  212.1770  152.0210 C   0  0  0  0  0  1  0  0  0  0  0  0
  159.9620  210.4700  153.3450 N   0  0  0  0  0  0  0  0  0  0  0  0
  159.0740  211.6470  153.4060 C   0  0  1  0  0  3  0  0  0  0  0  0
  160.3780  212.2140  155.5180 C   0  0  0  0  0  2  0  0  0  0  0  0
  159.9170  210.8040  155.8590 C   0  0  0  0  0  2  0  0  0  0  0  0
  160.1530  209.8550  154.6720 C   0  0  0  0  0  2  0  0  0  0  0  0
  159.6070  212.7640  154.3160 C   0  0  0  0  0  2  0  0  0  0  0  0
  1 11  2  0  0  0  0
  2  6  1  0  0  0  0
  3 18  1  0  0  0  0
  3  8  1  0  0  0  0
  4 10  1  0  0  0  0
  4 18  1  0  0  0  0
  5  6  2  0  0  0  0
  7  9  1  0  0  0  0
  7 14  1  0  0  0  0
  8  1  1  6  0  0  0
  8  2  1  0  0  0  0
  9 27  1  0  0  0  0
 10 17  1  0  0  0  0
 11  5  1  0  0  0  0
 12  3  1  0  0  0  0
 13  1  1  0  0  0  0
 14  2  2  0  0  0  0
 15  4  2  0  0  0  0
 16 15  1  0  0  0  0
 16 12  2  0  0  0  0
 17  9  2  0  0  0  0
 18  7  2  0  0  0  0
 19 12  1  0  0  0  0
 19 13  2  0  0  0  0
 20 24  1  0  0  0  0
 21 23  1  0  0  0  0
 21 20  2  0  0  0  0
 22 16  1  0  0  0  0
 23 25  2  0  0  0  0
 24 22  2  0  0  0  0
 25 22  1  0  0  0  0
 26 20  1  0  0  0  0
 27 29  1  0  0  0  0
 29 30  1  0  0  0  0
 29 33  1  0  0  0  0
 30 28  1  6  0  0  0
 30 34  1  0  0  0  0
 31 32  1  0  0  0  0
 33 32  1  0  0  0  0
 34 31  1  0  0  0  0
M  END
>  <MODEL>
8

>  <REMARK>
 VINA RESULT:      -7.0      2.324      4.447
  Name = 
  3 active torsions:
  status: ('A' for Active; 'I' for Inactive)
    1  A    between atoms: C_3  and  N_13
    2  A    between atoms: C_3  and  C_17
    3  A    between atoms: C_12  and  C_28
                            x       y       z     vdW  Elec       q    Type
                         _______ _______ _______ _____ _____    ______ ____

>  <TORSDO>
F 3

$$$$
=
 OpenBabel11062407543D

 34 40  0  0  1  0  0  0  0  0999 V2000
  161.1420  206.4540  153.5150 C   0  0  0  0  0  0  0  0  0  0  0  0
  161.6400  208.7560  152.6590 C   0  0  0  0  0  0  0  0  0  0  0  0
  161.6050  206.8320  151.1300 N   0  0  0  0  0  0  0  0  0  0  0  0
  161.8190  207.2260  148.6880 C   0  0  0  0  0  0  0  0  0  0  0  0
  161.0070  208.4230  154.9760 C   0  0  0  0  0  3  0  0  0  0  0  0
  161.3820  209.2710  154.0110 C   0  0  0  0  0  3  0  0  0  0  0  0
  161.8410  209.0680  150.2880 C   0  0  0  0  0  0  0  0  0  0  0  0
  161.8890  207.2760  152.4950 C   0  0  2  0  0  3  0  0  0  0  0  0
  161.9410  210.0060  149.1490 C   0  0  0  0  0  0  0  0  0  0  0  0
  162.1080  208.1480  147.5400 C   0  0  0  0  0  2  0  0  0  0  0  0
  160.8070  206.9810  154.6980 C   0  0  0  0  0  3  0  0  0  0  0  0
  161.3720  205.4380  150.8460 C   0  0  0  0  0  0  0  0  0  0  0  0
  160.8810  205.0350  153.2240 C   0  0  0  0  0  3  0  0  0  0  0  0
  161.6860  209.5570  151.6340 N   0  0  0  0  0  0  0  0  0  0  0  0
  161.6590  205.9510  148.4930 N   0  0  0  0  0  0  0  0  0  0  0  0
  161.4150  205.0020  149.5570 C   0  0  0  0  0  0  0  0  0  0  0  0
  162.0230  209.5640  147.9240 N   0  0  0  0  0  0  0  0  0  0  0  0
  161.7800  207.7520  150.0510 C   0  0  0  0  0  0  0  0  0  0  0  0
  161.0050  204.5560  151.9820 C   0  0  0  0  0  3  0  0  0  0  0  0
  160.7840  201.2500  149.7160 C   0  0  0  0  0  0  0  0  0  0  0  0
  160.9120  200.9030  148.3700 C   0  0  0  0  0  3  0  0  0  0  0  0
  161.2060  203.5840  149.1650 C   0  0  0  0  0  0  0  0  0  0  0  0
  161.1950  201.8870  147.4200 C   0  0  0  0  0  3  0  0  0  0  0  0
  160.9370  202.5810  150.1120 C   0  0  0  0  0  3  0  0  0  0  0  0
  161.3470  203.2190  147.8170 C   0  0  0  0  0  3  0  0  0  0  0  0
  160.5090  200.2720  150.6620 O   0  0  0  0  0  1  0  0  0  0  0  0
  161.8620  211.4780  149.3840 C   0  0  0  0  0  2  0  0  0  0  0  0
  160.7520  212.7040  146.9080 C   0  0  0  0  0  1  0  0  0  0  0  0
  160.4780  211.9340  149.2510 N   0  0  0  0  0  0  0  0  0  0  0  0
  160.3870  213.0850  148.3330 C   0  0  1  0  0  3  0  0  0  0  0  0
  161.2120  214.4300  150.3320 C   0  0  0  0  0  2  0  0  0  0  0  0
  159.9930  213.7560  150.9480 C   0  0  0  0  0  2  0  0  0  0  0  0
  159.9660  212.2590  150.5960 C   0  0  0  0  0  2  0  0  0  0  0  0
  161.1920  214.3050  148.8060 C   0  0  0  0  0  2  0  0  0  0  0  0
  1 11  2  0  0  0  0
  2  6  1  0  0  0  0
  3  8  1  0  0  0  0
  4 18  1  0  0  0  0
  6  5  2  0  0  0  0
  7 14  1  0  0  0  0
  8  2  1  6  0  0  0
  8  1  1  0  0  0  0
  9 27  1  0  0  0  0
  9  7  1  0  0  0  0
 10 17  1  0  0  0  0
 10  4  1  0  0  0  0
 11  5  1  0  0  0  0
 12  3  1  0  0  0  0
 12 19  1  0  0  0  0
 13  1  1  0  0  0  0
 14  2  2  0  0  0  0
 15  4  2  0  0  0  0
 15 16  1  0  0  0  0
 16 12  2  0  0  0  0
 17  9  2  0  0  0  0
 18  7  2  0  0  0  0
 18  3  1  0  0  0  0
 19 13  2  0  0  0  0
 20 24  1  0  0  0  0
 20 26  1  0  0  0  0
 21 20  2  0  0  0  0
 22 16  1  0  0  0  0
 22 24  2  0  0  0  0
 23 25  2  0  0  0  0
 23 21  1  0  0  0  0
 25 22  1  0  0  0  0
 29 27  1  0  0  0  0
 29 33  1  0  0  0  0
 30 28  1  6  0  0  0
 30 34  1  0  0  0  0
 30 29  1  0  0  0  0
 31 32  1  0  0  0  0
 33 32  1  0  0  0  0
 34 31  1  0  0  0  0
M  END
>  <MODEL>
9

>  <REMARK>
 VINA RESULT:      -7.0      1.056      1.501
  Name = 
  3 active torsions:
  status: ('A' for Active; 'I' for Inactive)
    1  A    between atoms: C_3  and  N_13
    2  A    between atoms: C_3  and  C_17
    3  A    between atoms: C_12  and  C_28
                            x       y       z     vdW  Elec       q    Type
                         _______ _______ _______ _____ _____    ______ ____

>  <TORSDO>
F 3

$$$$
