=
 OpenBabel11062409543D

 43 48  0  0  1  0  0  0  0  0999 V2000
  161.2600  204.2120  148.3160 C   0  0  0  0  0  0  0  0  0  0  0  0
  161.6590  208.3750  151.1230 C   0  0  0  0  0  0  0  0  0  0  0  0
  162.5280  210.4570  149.5120 C   0  0  2  0  0  3  0  0  0  0  0  0
  161.2100  205.7970  150.1390 C   0  0  0  0  0  0  0  0  0  0  0  0
  161.6780  205.2190  147.4460 C   0  0  0  0  0  3  0  0  0  0  0  0
  161.0880  202.8240  147.8150 C   0  0  0  0  0  1  0  0  0  0  0  0
  161.6040  206.8320  149.2510 C   0  0  0  0  0  0  0  0  0  0  0  0
  161.0310  204.4970  149.6640 C   0  0  0  0  0  3  0  0  0  0  0  0
  161.8520  206.5250  147.9150 C   0  0  0  0  0  3  0  0  0  0  0  0
  162.1730  209.2020  148.9160 O   0  0  0  0  0  0  0  0  0  0  0  0
  161.8090  208.1250  149.7480 C   0  0  0  0  0  0  0  0  0  0  0  0
  161.2920  207.3430  151.9990 C   0  0  0  0  0  3  0  0  0  0  0  0
  162.1010  209.7440  151.5770 C   0  0  1  0  0  3  0  0  0  0  0  0
  161.7160  210.7180  150.6320 O   0  0  0  0  0  0  0  0  0  0  0  0
  161.0430  206.0630  151.4990 C   0  0  0  0  0  3  0  0  0  0  0  0
  162.4560  211.5820  148.5430 C   0  0  0  0  0  0  0  0  0  0  0  0
  159.8920  214.0000  147.1720 N   0  0  0  0  0  2  0  0  0  0  0  0
  161.2000  212.1690  148.1960 N   0  0  0  0  0  2  0  0  0  0  0  0
  163.5290  212.0650  148.0870 O   0  0  0  0  0  0  0  0  0  0  0  0
  161.0660  213.5460  147.8310 C   0  0  0  0  0  0  0  0  0  0  0  0
  161.9800  214.3710  148.1190 O   0  0  0  0  0  0  0  0  0  0  0  0
  158.6280  214.2030  146.4940 C   0  0  2  0  0  3  0  0  0  0  0  0
  157.5770  212.5960  145.2300 O   0  0  0  0  0  0  0  0  0  0  0  0
  159.5430  213.6270  144.1500 C   0  0  0  0  0  0  0  0  0  0  0  0
  157.5120  213.5370  147.2480 C   0  0  0  0  0  3  0  0  0  0  0  0
  158.6240  213.4790  145.2330 N   0  0  0  0  0  0  0  0  0  0  0  0
  160.4950  214.4530  144.2330 O   0  0  0  0  0  0  0  0  0  0  0  0
  156.9320  212.6320  146.4540 C   0  0  0  0  0  3  0  0  0  0  0  0
  159.4000  212.7610  142.9360 C   0  0  2  0  0  3  0  0  0  0  0  0
  160.7970  213.3970  139.7980 O   0  0  0  0  0  0  0  0  0  0  0  0
  161.2090  211.8060  141.5660 C   0  0  0  0  0  3  0  0  0  0  0  0
  160.5210  212.9510  140.9410 C   0  0  0  0  0  0  0  0  0  0  0  0
  160.4780  211.6650  142.9030 C   0  0  0  0  0  3  0  0  0  0  0  0
  159.5660  213.5200  141.7520 O   0  0  0  0  0  0  0  0  0  0  0  0
  161.7810  210.1380  153.0330 C   0  0  0  0  0  2  0  0  0  0  0  0
  160.6590  210.9920  153.1470 O   0  0  0  0  0  0  0  0  0  0  0  0
  160.1390  209.3650  154.6600 O   0  0  0  0  0  0  0  0  0  0  0  0
  160.2130  209.3350  156.0550 C   0  0  2  0  0  3  0  0  0  0  0  0
  160.7380  211.4240  155.5020 C   0  0  0  0  0  2  0  0  0  0  0  0
  160.0420  210.7230  154.3800 C   0  0  1  0  0  3  0  0  0  0  0  0
  160.8460  210.4960  156.5400 O   0  0  0  0  0  0  0  0  0  0  0  0
  160.1010  207.0220  156.6440 O   0  0  0  0  0  1  0  0  0  0  0  0
  160.9760  208.1010  156.5020 C   0  0  0  0  0  2  0  0  0  0  0  0
  1  8  1  0  0  0  0
  2 13  1  0  0  0  0
  2 12  1  0  0  0  0
  3 16  1  6  0  0  0
  3 14  1  0  0  0  0
  4 15  1  0  0  0  0
  5  9  1  0  0  0  0
  5  1  2  0  0  0  0
  6  1  1  0  0  0  0
  7 11  1  0  0  0  0
  7  4  1  0  0  0  0
  8  4  2  0  0  0  0
  9  7  2  0  0  0  0
 10  3  1  0  0  0  0
 10 11  1  0  0  0  0
 11  2  2  0  0  0  0
 13 35  1  1  0  0  0
 14 13  1  0  0  0  0
 15 12  2  0  0  0  0
 17 20  1  0  0  0  0
 18 16  1  0  0  0  0
 19 16  2  0  0  0  0
 20 21  2  0  0  0  0
 20 18  1  0  0  0  0
 22 17  1  1  0  0  0
 22 25  1  0  0  0  0
 23 26  1  0  0  0  0
 23 28  1  0  0  0  0
 24 27  2  0  0  0  0
 24 26  1  0  0  0  0
 26 22  1  0  0  0  0
 28 25  2  0  0  0  0
 29 24  1  1  0  0  0
 30 32  2  0  0  0  0
 31 33  2  0  0  0  0
 32 31  1  0  0  0  0
 32 34  1  0  0  0  0
 33 29  1  0  0  0  0
 34 29  1  0  0  0  0
 35 36  1  0  0  0  0
 37 38  1  0  0  0  0
 38 43  1  6  0  0  0
 38 41  1  0  0  0  0
 39 41  1  0  0  0  0
 40 36  1  6  0  0  0
 40 37  1  0  0  0  0
 40 39  1  0  0  0  0
 43 42  1  0  0  0  0
M  END
>  <MODEL>
1

>  <REMARK>
 VINA RESULT:      -9.6      0.000      0.000
  Name = 
  7 active torsions:
  status: ('A' for Active; 'I' for Inactive)
    1  A    between atoms: C_1  and  O_32
    2  A    between atoms: C_1  and  C_34
    3  A    between atoms: C_2  and  C_13
    4  A    between atoms: N_3  and  C_4
    5  A    between atoms: C_11  and  C_14
    6  A    between atoms: C_19  and  C_37
    7  A    between atoms: O_32  and  C_35
                            x       y       z     vdW  Elec       q    Type
                         _______ _______ _______ _____ _____    ______ ____

>  <TORSDO>
F 7

$$$$
=
 OpenBabel11062409543D

 43 48  0  0  1  0  0  0  0  0999 V2000
  161.4090  204.1390  147.1420 C   0  0  0  0  0  0  0  0  0  0  0  0
  161.4900  207.9170  150.4710 C   0  0  0  0  0  0  0  0  0  0  0  0
  162.4450  210.1940  149.2130 C   0  0  2  0  0  3  0  0  0  0  0  0
  161.1760  205.4800  149.1390 C   0  0  0  0  0  0  0  0  0  0  0  0
  161.8760  205.2510  146.4440 C   0  0  0  0  0  3  0  0  0  0  0  0
  161.3080  202.8230  146.4590 C   0  0  0  0  0  1  0  0  0  0  0  0
  161.6210  206.6230  148.4240 C   0  0  0  0  0  0  0  0  0  0  0  0
  161.0640  204.2490  148.4910 C   0  0  0  0  0  3  0  0  0  0  0  0
  161.9840  206.4900  147.0850 C   0  0  0  0  0  3  0  0  0  0  0  0
  162.1670  209.0220  148.4360 O   0  0  0  0  0  0  0  0  0  0  0  0
  161.7570  207.8450  149.0940 C   0  0  0  0  0  0  0  0  0  0  0  0
  161.0720  206.7790  151.1770 C   0  0  0  0  0  3  0  0  0  0  0  0
  161.8640  209.2220  151.1290 C   0  0  1  0  0  3  0  0  0  0  0  0
  161.5380  210.3050  150.2830 O   0  0  0  0  0  0  0  0  0  0  0  0
  160.8920  205.5700  150.5020 C   0  0  0  0  0  3  0  0  0  0  0  0
  162.4300  211.4320  148.3880 C   0  0  0  0  0  0  0  0  0  0  0  0
  159.9700  214.0740  147.2630 N   0  0  0  0  0  2  0  0  0  0  0  0
  161.2000  212.0940  148.0850 N   0  0  0  0  0  2  0  0  0  0  0  0
  163.5280  211.9360  148.0240 O   0  0  0  0  0  0  0  0  0  0  0  0
  161.1120  213.5080  147.8910 C   0  0  0  0  0  0  0  0  0  0  0  0
  162.0380  214.2650  148.3020 O   0  0  0  0  0  0  0  0  0  0  0  0
  158.7310  214.3960  146.5830 C   0  0  2  0  0  3  0  0  0  0  0  0
  157.5300  212.8930  145.3270 O   0  0  0  0  0  0  0  0  0  0  0  0
  159.5860  213.7230  144.2430 C   0  0  0  0  0  0  0  0  0  0  0  0
  157.5560  213.8450  147.3400 C   0  0  0  0  0  3  0  0  0  0  0  0
  158.6570  213.6700  145.3260 N   0  0  0  0  0  0  0  0  0  0  0  0
  160.6150  214.4530  144.3230 O   0  0  0  0  0  0  0  0  0  0  0  0
  156.8910  212.9970  146.5500 C   0  0  0  0  0  3  0  0  0  0  0  0
  159.3600  212.8690  143.0330 C   0  0  2  0  0  3  0  0  0  0  0  0
  161.0460  213.1570  139.9870 O   0  0  0  0  0  0  0  0  0  0  0  0
  161.0410  211.5610  141.7980 C   0  0  0  0  0  3  0  0  0  0  0  0
  160.6200  212.7980  141.1140 C   0  0  0  0  0  0  0  0  0  0  0  0
  160.2140  211.5910  143.0850 C   0  0  0  0  0  3  0  0  0  0  0  0
  159.7400  213.5550  141.8530 O   0  0  0  0  0  0  0  0  0  0  0  0
  161.4170  209.4260  152.5900 C   0  0  0  0  0  2  0  0  0  0  0  0
  162.3140  210.2220  153.3430 O   0  0  0  0  0  0  0  0  0  0  0  0
  160.5090  211.4170  154.0670 O   0  0  0  0  0  0  0  0  0  0  0  0
  159.5880  211.1800  155.0900 C   0  0  2  0  0  3  0  0  0  0  0  0
  161.0960  209.5580  155.2960 C   0  0  0  0  0  2  0  0  0  0  0  0
  161.6220  210.6890  154.4720 C   0  0  1  0  0  3  0  0  0  0  0  0
  159.7900  209.9030  155.6490 O   0  0  0  0  0  0  0  0  0  0  0  0
  158.2100  211.5560  153.1740 O   0  0  0  0  0  1  0  0  0  0  0  0
  158.1760  211.2920  154.5460 C   0  0  0  0  0  2  0  0  0  0  0  0
  1  8  1  0  0  0  0
  2 13  1  0  0  0  0
  2 12  1  0  0  0  0
  3 16  1  6  0  0  0
  3 14  1  0  0  0  0
  4 15  1  0  0  0  0
  5  9  1  0  0  0  0
  5  1  2  0  0  0  0
  6  1  1  0  0  0  0
  7 11  1  0  0  0  0
  7  4  1  0  0  0  0
  8  4  2  0  0  0  0
  9  7  2  0  0  0  0
 10 11  1  0  0  0  0
 10  3  1  0  0  0  0
 11  2  2  0  0  0  0
 13 35  1  1  0  0  0
 14 13  1  0  0  0  0
 15 12  2  0  0  0  0
 17 20  1  0  0  0  0
 18 16  1  0  0  0  0
 19 16  2  0  0  0  0
 20 18  1  0  0  0  0
 20 21  2  0  0  0  0
 22 17  1  1  0  0  0
 22 25  1  0  0  0  0
 23 28  1  0  0  0  0
 24 27  2  0  0  0  0
 24 26  1  0  0  0  0
 26 23  1  0  0  0  0
 26 22  1  0  0  0  0
 28 25  2  0  0  0  0
 29 33  1  0  0  0  0
 29 24  1  1  0  0  0
 30 32  2  0  0  0  0
 31 33  2  0  0  0  0
 32 31  1  0  0  0  0
 32 34  1  0  0  0  0
 34 29  1  0  0  0  0
 35 36  1  0  0  0  0
 37 40  1  0  0  0  0
 37 38  1  0  0  0  0
 38 43  1  6  0  0  0
 38 41  1  0  0  0  0
 39 41  1  0  0  0  0
 40 36  1  6  0  0  0
 40 39  1  0  0  0  0
 42 43  1  0  0  0  0
M  END
>  <MODEL>
2

>  <REMARK>
 VINA RESULT:      -9.3      0.880      1.481
  Name = 
  7 active torsions:
  status: ('A' for Active; 'I' for Inactive)
    1  A    between atoms: C_1  and  O_32
    2  A    between atoms: C_1  and  C_34
    3  A    between atoms: C_2  and  C_13
    4  A    between atoms: N_3  and  C_4
    5  A    between atoms: C_11  and  C_14
    6  A    between atoms: C_19  and  C_37
    7  A    between atoms: O_32  and  C_35
                            x       y       z     vdW  Elec       q    Type
                         _______ _______ _______ _____ _____    ______ ____

>  <TORSDO>
F 7

$$$$
=
 OpenBabel11062409543D

 43 48  0  0  1  0  0  0  0  0999 V2000
  160.9430  202.6180  148.7130 C   0  0  0  0  0  0  0  0  0  0  0  0
  161.7130  207.5750  149.1520 C   0  0  0  0  0  0  0  0  0  0  0  0
  160.8940  208.3860  151.6720 C   0  0  2  0  0  3  0  0  0  0  0  0
  161.5720  204.9150  148.3050 C   0  0  0  0  0  0  0  0  0  0  0  0
  160.5330  202.9540  150.0020 C   0  0  0  0  0  3  0  0  0  0  0  0
  160.8040  201.2190  148.2310 C   0  0  0  0  0  1  0  0  0  0  0  0
  161.1850  205.2560  149.6280 C   0  0  0  0  0  0  0  0  0  0  0  0
  161.4580  203.5970  147.8610 C   0  0  0  0  0  3  0  0  0  0  0  0
  160.6510  204.2720  150.4560 C   0  0  0  0  0  3  0  0  0  0  0  0
  160.9360  206.9870  151.3580 O   0  0  0  0  0  0  0  0  0  0  0  0
  161.2770  206.5880  150.0510 C   0  0  0  0  0  0  0  0  0  0  0  0
  162.0730  207.2350  147.8380 C   0  0  0  0  0  3  0  0  0  0  0  0
  161.5790  208.9950  149.6440 C   0  0  1  0  0  3  0  0  0  0  0  0
  161.9290  209.0720  151.0090 O   0  0  0  0  0  0  0  0  0  0  0  0
  162.0250  205.9020  147.4280 C   0  0  0  0  0  3  0  0  0  0  0  0
  160.9600  208.6350  153.1370 C   0  0  0  0  0  0  0  0  0  0  0  0
  159.5660  211.0660  155.6770 N   0  0  0  0  0  2  0  0  0  0  0  0
  160.3640  209.8020  153.7080 N   0  0  0  0  0  2  0  0  0  0  0  0
  161.4820  207.7610  153.8820 O   0  0  0  0  0  0  0  0  0  0  0  0
  159.8270  209.8260  155.0330 C   0  0  0  0  0  0  0  0  0  0  0  0
  159.5560  208.7430  155.6280 O   0  0  0  0  0  0  0  0  0  0  0  0
  159.4160  212.4380  156.1170 C   0  0  2  0  0  3  0  0  0  0  0  0
  157.6040  213.7570  155.6090 O   0  0  0  0  0  0  0  0  0  0  0  0
  159.1720  213.4030  153.7360 C   0  0  0  0  0  0  0  0  0  0  0  0
  158.4450  212.5220  157.2610 C   0  0  0  0  0  3  0  0  0  0  0  0
  158.7470  213.2140  155.0860 N   0  0  0  0  0  0  0  0  0  0  0  0
  160.2330  212.8560  153.3210 O   0  0  0  0  0  0  0  0  0  0  0  0
  157.4300  213.3160  156.9100 C   0  0  0  0  0  3  0  0  0  0  0  0
  158.3260  214.2140  152.8020 C   0  0  2  0  0  3  0  0  0  0  0  0
  158.5880  214.2470  149.3190 O   0  0  0  0  0  0  0  0  0  0  0  0
  156.9870  213.3870  150.9080 C   0  0  0  0  0  3  0  0  0  0  0  0
  158.2350  214.0670  150.5120 C   0  0  0  0  0  0  0  0  0  0  0  0
  157.0310  213.4700  152.4350 C   0  0  0  0  0  3  0  0  0  0  0  0
  159.0070  214.4530  151.5830 O   0  0  0  0  0  0  0  0  0  0  0  0
  162.2180  210.1010  148.7810 C   0  0  0  0  0  2  0  0  0  0  0  0
  161.9130  211.4080  149.2320 O   0  0  0  0  0  0  0  0  0  0  0  0
  161.5530  212.0480  147.0710 O   0  0  0  0  0  0  0  0  0  0  0  0
  161.4330  213.3100  146.4840 C   0  0  2  0  0  3  0  0  0  0  0  0
  161.9810  213.7180  148.6010 C   0  0  0  0  0  2  0  0  0  0  0  0
  162.2910  212.3060  148.2200 C   0  0  1  0  0  3  0  0  0  0  0  0
  161.4140  214.3140  147.4730 O   0  0  0  0  0  0  0  0  0  0  0  0
  159.4540  212.1740  145.7740 O   0  0  0  0  0  1  0  0  0  0  0  0
  160.1620  213.3730  145.6560 C   0  0  0  0  0  2  0  0  0  0  0  0
  1  5  1  0  0  0  0
  2 13  1  0  0  0  0
  2 11  1  0  0  0  0
  3 16  1  1  0  0  0
  4  7  1  0  0  0  0
  5  9  2  0  0  0  0
  6  1  1  0  0  0  0
  7 11  2  0  0  0  0
  7  9  1  0  0  0  0
  8  4  1  0  0  0  0
  8  1  2  0  0  0  0
 10  3  1  0  0  0  0
 11 10  1  0  0  0  0
 12  2  2  0  0  0  0
 13 35  1  6  0  0  0
 13 14  1  0  0  0  0
 14  3  1  0  0  0  0
 15 12  1  0  0  0  0
 15  4  2  0  0  0  0
 16 18  1  0  0  0  0
 16 19  2  0  0  0  0
 18 20  1  0  0  0  0
 20 21  2  0  0  0  0
 20 17  1  0  0  0  0
 22 17  1  6  0  0  0
 22 25  1  0  0  0  0
 23 28  1  0  0  0  0
 24 26  1  0  0  0  0
 26 23  1  0  0  0  0
 26 22  1  0  0  0  0
 27 24  2  0  0  0  0
 28 25  2  0  0  0  0
 29 24  1  1  0  0  0
 30 32  2  0  0  0  0
 31 33  2  0  0  0  0
 32 31  1  0  0  0  0
 32 34  1  0  0  0  0
 33 29  1  0  0  0  0
 34 29  1  0  0  0  0
 35 36  1  0  0  0  0
 37 40  1  0  0  0  0
 38 43  1  1  0  0  0
 38 37  1  0  0  0  0
 38 41  1  0  0  0  0
 40 39  1  0  0  0  0
 40 36  1  1  0  0  0
 41 39  1  0  0  0  0
 43 42  1  0  0  0  0
M  END
>  <MODEL>
3

>  <REMARK>
 VINA RESULT:      -9.2      3.061      7.598
  Name = 
  7 active torsions:
  status: ('A' for Active; 'I' for Inactive)
    1  A    between atoms: C_1  and  O_32
    2  A    between atoms: C_1  and  C_34
    3  A    between atoms: C_2  and  C_13
    4  A    between atoms: N_3  and  C_4
    5  A    between atoms: C_11  and  C_14
    6  A    between atoms: C_19  and  C_37
    7  A    between atoms: O_32  and  C_35
                            x       y       z     vdW  Elec       q    Type
                         _______ _______ _______ _____ _____    ______ ____

>  <TORSDO>
F 7

$$$$
=
 OpenBabel11062409543D

 43 48  0  0  1  0  0  0  0  0999 V2000
  160.8780  202.4180  148.8320 C   0  0  0  0  0  0  0  0  0  0  0  0
  161.1800  206.7460  151.3900 C   0  0  0  0  0  0  0  0  0  0  0  0
  162.2770  208.6830  149.7390 C   0  0  2  0  0  3  0  0  0  0  0  0
  160.7220  204.1240  150.5370 C   0  0  0  0  0  0  0  0  0  0  0  0
  161.4140  203.3490  147.9430 C   0  0  0  0  0  3  0  0  0  0  0  0
  160.6980  201.0050  148.4080 C   0  0  0  0  0  1  0  0  0  0  0  0
  161.2370  205.0820  149.6260 C   0  0  0  0  0  0  0  0  0  0  0  0
  160.5360  202.8010  150.1310 C   0  0  0  0  0  3  0  0  0  0  0  0
  161.5960  204.6770  148.3420 C   0  0  0  0  0  3  0  0  0  0  0  0
  161.9290  207.4030  149.1940 O   0  0  0  0  0  0  0  0  0  0  0  0
  161.4470  206.3990  150.0550 C   0  0  0  0  0  0  0  0  0  0  0  0
  160.6920  205.7880  152.2920 C   0  0  0  0  0  3  0  0  0  0  0  0
  161.6320  208.1270  151.7960 C   0  0  1  0  0  3  0  0  0  0  0  0
  161.3750  209.0470  150.7570 O   0  0  0  0  0  0  0  0  0  0  0  0
  160.4400  204.4870  151.8550 C   0  0  0  0  0  3  0  0  0  0  0  0
  162.3390  209.7420  148.6970 C   0  0  0  0  0  0  0  0  0  0  0  0
  160.5830  212.9700  147.8060 N   0  0  0  0  0  2  0  0  0  0  0  0
  161.3550  210.7760  148.6440 N   0  0  0  0  0  2  0  0  0  0  0  0
  163.3210  209.7600  147.9040 O   0  0  0  0  0  0  0  0  0  0  0  0
  161.6420  212.0920  148.1630 C   0  0  0  0  0  0  0  0  0  0  0  0
  162.8400  212.4910  148.0800 O   0  0  0  0  0  0  0  0  0  0  0  0
  159.3460  213.6530  147.4880 C   0  0  2  0  0  3  0  0  0  0  0  0
  157.8340  212.9090  145.9260 O   0  0  0  0  0  0  0  0  0  0  0  0
  159.8800  213.9110  144.9760 C   0  0  0  0  0  0  0  0  0  0  0  0
  158.1790  212.9540  148.1250 C   0  0  0  0  0  3  0  0  0  0  0  0
  159.0550  213.5100  146.0710 N   0  0  0  0  0  0  0  0  0  0  0  0
  161.0040  214.4480  145.1900 O   0  0  0  0  0  0  0  0  0  0  0  0
  157.3310  212.5660  147.1690 C   0  0  0  0  0  3  0  0  0  0  0  0
  159.4260  213.6480  143.5730 C   0  0  2  0  0  3  0  0  0  0  0  0
  161.4150  213.8520  140.7090 O   0  0  0  0  0  0  0  0  0  0  0  0
  160.4020  212.0580  141.9660 C   0  0  0  0  0  3  0  0  0  0  0  0
  160.7280  213.4690  141.6890 C   0  0  0  0  0  0  0  0  0  0  0  0
  159.5360  212.1540  143.2230 C   0  0  0  0  0  3  0  0  0  0  0  0
  160.2400  214.3360  142.6400 O   0  0  0  0  0  0  0  0  0  0  0  0
  161.1940  208.6290  153.1860 C   0  0  0  0  0  2  0  0  0  0  0  0
  161.0810  210.0380  153.2610 O   0  0  0  0  0  0  0  0  0  0  0  0
  160.4550  209.3060  155.3300 O   0  0  0  0  0  0  0  0  0  0  0  0
  161.0540  209.4450  156.5850 C   0  0  2  0  0  3  0  0  0  0  0  0
  162.3040  210.6770  155.2200 C   0  0  0  0  0  2  0  0  0  0  0  0
  160.9670  210.3840  154.6180 C   0  0  1  0  0  3  0  0  0  0  0  0
  162.3240  210.0410  156.4630 O   0  0  0  0  0  0  0  0  0  0  0  0
  160.0970  207.2760  156.8900 O   0  0  0  0  0  1  0  0  0  0  0  0
  161.1790  208.0850  157.2480 C   0  0  0  0  0  2  0  0  0  0  0  0
  1  8  1  0  0  0  0
  2 13  1  0  0  0  0
  2 12  1  0  0  0  0
  3 16  1  6  0  0  0
  3 14  1  0  0  0  0
  4 15  1  0  0  0  0
  5  9  1  0  0  0  0
  5  1  2  0  0  0  0
  6  1  1  0  0  0  0
  7 11  1  0  0  0  0
  7  4  1  0  0  0  0
  8  4  2  0  0  0  0
  9  7  2  0  0  0  0
 10  3  1  0  0  0  0
 10 11  1  0  0  0  0
 11  2  2  0  0  0  0
 13 35  1  1  0  0  0
 14 13  1  0  0  0  0
 15 12  2  0  0  0  0
 17 20  1  0  0  0  0
 18 16  1  0  0  0  0
 19 16  2  0  0  0  0
 20 18  1  0  0  0  0
 21 20  2  0  0  0  0
 22 17  1  6  0  0  0
 22 25  1  0  0  0  0
 23 26  1  0  0  0  0
 23 28  1  0  0  0  0
 24 27  2  0  0  0  0
 24 26  1  0  0  0  0
 26 22  1  0  0  0  0
 28 25  2  0  0  0  0
 29 24  1  1  0  0  0
 30 32  2  0  0  0  0
 31 33  2  0  0  0  0
 32 31  1  0  0  0  0
 32 34  1  0  0  0  0
 33 29  1  0  0  0  0
 34 29  1  0  0  0  0
 35 36  1  0  0  0  0
 37 38  1  0  0  0  0
 38 43  1  6  0  0  0
 39 41  1  0  0  0  0
 40 36  1  6  0  0  0
 40 39  1  0  0  0  0
 40 37  1  0  0  0  0
 41 38  1  0  0  0  0
 42 43  1  0  0  0  0
M  END
>  <MODEL>
4

>  <REMARK>
 VINA RESULT:      -8.3      1.157      1.499
  Name = 
  7 active torsions:
  status: ('A' for Active; 'I' for Inactive)
    1  A    between atoms: C_1  and  O_32
    2  A    between atoms: C_1  and  C_34
    3  A    between atoms: C_2  and  C_13
    4  A    between atoms: N_3  and  C_4
    5  A    between atoms: C_11  and  C_14
    6  A    between atoms: C_19  and  C_37
    7  A    between atoms: O_32  and  C_35
                            x       y       z     vdW  Elec       q    Type
                         _______ _______ _______ _____ _____    ______ ____

>  <TORSDO>
F 7

$$$$
=
 OpenBabel11062409543D

 43 48  0  0  1  0  0  0  0  0999 V2000
  155.5860  212.3840  156.2410 C   0  0  0  0  0  0  0  0  0  0  0  0
  158.6650  212.9100  152.2900 C   0  0  0  0  0  0  0  0  0  0  0  0
  160.8020  211.1700  152.5860 C   0  0  2  0  0  3  0  0  0  0  0  0
  156.5840  213.0690  154.1490 C   0  0  0  0  0  0  0  0  0  0  0  0
  156.6210  211.4710  156.4410 C   0  0  0  0  0  3  0  0  0  0  0  0
  154.5140  212.5250  157.2600 C   0  0  0  0  0  1  0  0  0  0  0  0
  157.6230  212.1190  154.3330 C   0  0  0  0  0  0  0  0  0  0  0  0
  155.5680  213.1870  155.0990 C   0  0  0  0  0  3  0  0  0  0  0  0
  157.6390  211.3430  155.4890 C   0  0  0  0  0  3  0  0  0  0  0  0
  159.6960  211.0930  153.4960 O   0  0  0  0  0  0  0  0  0  0  0  0
  158.6520  212.0330  153.3870 C   0  0  0  0  0  0  0  0  0  0  0  0
  157.6470  213.8620  152.1260 C   0  0  0  0  0  3  0  0  0  0  0  0
  159.9180  212.8680  151.4510 C   0  0  1  0  0  3  0  0  0  0  0  0
  160.3590  211.5360  151.3010 O   0  0  0  0  0  0  0  0  0  0  0  0
  156.5970  213.9200  153.0430 C   0  0  0  0  0  3  0  0  0  0  0  0
  161.5720  209.8990  152.5290 C   0  0  0  0  0  0  0  0  0  0  0  0
  161.2750  206.4540  151.0000 N   0  0  0  0  0  2  0  0  0  0  0  0
  161.0130  208.7310  151.9260 N   0  0  0  0  0  2  0  0  0  0  0  0
  162.7620  209.8880  152.9500 O   0  0  0  0  0  0  0  0  0  0  0  0
  161.8120  207.7400  151.2730 C   0  0  0  0  0  0  0  0  0  0  0  0
  162.9930  208.0140  150.9120 O   0  0  0  0  0  0  0  0  0  0  0  0
  160.5130  205.2290  150.8590 C   0  0  2  0  0  3  0  0  0  0  0  0
  161.4370  203.2030  150.2920 O   0  0  0  0  0  0  0  0  0  0  0  0
  161.2410  204.8000  148.4200 C   0  0  0  0  0  0  0  0  0  0  0  0
  160.7090  204.3460  152.0590 C   0  0  0  0  0  3  0  0  0  0  0  0
  161.0740  204.4220  149.7870 N   0  0  0  0  0  0  0  0  0  0  0  0
  160.8950  205.9520  148.0320 O   0  0  0  0  0  0  0  0  0  0  0  0
  161.2270  203.1810  151.6600 C   0  0  0  0  0  3  0  0  0  0  0  0
  161.8750  203.8400  147.4610 C   0  0  2  0  0  3  0  0  0  0  0  0
  160.1970  201.4080  145.5970 O   0  0  0  0  0  0  0  0  0  0  0  0
  161.2930  203.4990  145.0920 C   0  0  0  0  0  3  0  0  0  0  0  0
  160.8190  202.4280  145.9890 C   0  0  0  0  0  0  0  0  0  0  0  0
  161.9980  204.4550  146.0560 C   0  0  0  0  0  3  0  0  0  0  0  0
  161.0840  202.6730  147.3170 O   0  0  0  0  0  0  0  0  0  0  0  0
  159.9070  213.6650  150.1310 C   0  0  0  0  0  2  0  0  0  0  0  0
  160.6570  213.0510  149.1010 O   0  0  0  0  0  0  0  0  0  0  0  0
  160.8350  212.9990  146.8260 O   0  0  0  0  0  0  0  0  0  0  0  0
  159.9370  213.3500  145.8150 C   0  0  2  0  0  3  0  0  0  0  0  0
  158.9300  213.9510  147.7050 C   0  0  0  0  0  2  0  0  0  0  0  0
  160.3970  213.7500  147.9100 C   0  0  1  0  0  3  0  0  0  0  0  0
  158.6770  213.6640  146.3620 O   0  0  0  0  0  0  0  0  0  0  0  0
  159.3630  212.6920  143.5910 O   0  0  0  0  0  1  0  0  0  0  0  0
  159.8040  212.2080  144.8250 C   0  0  0  0  0  2  0  0  0  0  0  0
  1  5  1  0  0  0  0
  1  6  1  0  0  0  0
  2 11  1  0  0  0  0
  3 16  1  6  0  0  0
  3 10  1  0  0  0  0
  4  7  1  0  0  0  0
  4  8  1  0  0  0  0
  7  9  1  0  0  0  0
  8  1  2  0  0  0  0
  9  5  2  0  0  0  0
 11 10  1  0  0  0  0
 11  7  2  0  0  0  0
 12  2  2  0  0  0  0
 12 15  1  0  0  0  0
 13 35  1  6  0  0  0
 13  2  1  0  0  0  0
 14 13  1  0  0  0  0
 14  3  1  0  0  0  0
 15  4  2  0  0  0  0
 16 19  2  0  0  0  0
 17 20  1  0  0  0  0
 18 16  1  0  0  0  0
 20 18  1  0  0  0  0
 21 20  2  0  0  0  0
 22 17  1  1  0  0  0
 22 25  1  0  0  0  0
 23 28  1  0  0  0  0
 24 26  1  0  0  0  0
 26 23  1  0  0  0  0
 26 22  1  0  0  0  0
 27 24  2  0  0  0  0
 28 25  2  0  0  0  0
 29 24  1  1  0  0  0
 30 32  2  0  0  0  0
 31 32  1  0  0  0  0
 31 33  2  0  0  0  0
 32 34  1  0  0  0  0
 33 29  1  0  0  0  0
 34 29  1  0  0  0  0
 36 35  1  0  0  0  0
 37 40  1  0  0  0  0
 38 43  1  6  0  0  0
 38 41  1  0  0  0  0
 38 37  1  0  0  0  0
 39 40  1  0  0  0  0
 40 36  1  1  0  0  0
 41 39  1  0  0  0  0
 42 43  1  0  0  0  0
M  END
>  <MODEL>
5

>  <REMARK>
 VINA RESULT:      -8.1      3.723      9.370
  Name = 
  7 active torsions:
  status: ('A' for Active; 'I' for Inactive)
    1  A    between atoms: C_1  and  O_32
    2  A    between atoms: C_1  and  C_34
    3  A    between atoms: C_2  and  C_13
    4  A    between atoms: N_3  and  C_4
    5  A    between atoms: C_11  and  C_14
    6  A    between atoms: C_19  and  C_37
    7  A    between atoms: O_32  and  C_35
                            x       y       z     vdW  Elec       q    Type
                         _______ _______ _______ _____ _____    ______ ____

>  <TORSDO>
F 7

$$$$
=
 OpenBabel11062409543D

 43 48  0  0  1  0  0  0  0  0999 V2000
  156.6400  213.5540  154.1210 C   0  0  0  0  0  0  0  0  0  0  0  0
  160.3830  211.6680  151.3290 C   0  0  0  0  0  0  0  0  0  0  0  0
  161.2810  209.3250  152.5060 C   0  0  2  0  0  3  0  0  0  0  0  0
  158.2850  213.1790  152.3910 C   0  0  0  0  0  0  0  0  0  0  0  0
  157.0290  212.3740  154.7530 C   0  0  0  0  0  3  0  0  0  0  0  0
  155.5740  214.4000  154.7190 C   0  0  0  0  0  1  0  0  0  0  0  0
  158.6620  211.9600  153.0130 C   0  0  0  0  0  0  0  0  0  0  0  0
  157.2700  213.9620  152.9440 C   0  0  0  0  0  3  0  0  0  0  0  0
  158.0400  211.5800  154.2010 C   0  0  0  0  0  3  0  0  0  0  0  0
  160.1050  209.9670  153.0160 O   0  0  0  0  0  0  0  0  0  0  0  0
  159.7020  211.1990  152.4640 C   0  0  0  0  0  0  0  0  0  0  0  0
  160.0210  212.8850  150.7320 C   0  0  0  0  0  3  0  0  0  0  0  0
  161.6100  210.8780  150.9460 C   0  0  1  0  0  3  0  0  0  0  0  0
  161.3710  209.4970  151.1120 O   0  0  0  0  0  0  0  0  0  0  0  0
  158.9560  213.6230  151.2500 C   0  0  0  0  0  3  0  0  0  0  0  0
  161.3290  207.8800  152.8550 C   0  0  0  0  0  0  0  0  0  0  0  0
  161.0660  204.5220  151.1360 N   0  0  0  0  0  2  0  0  0  0  0  0
  161.0330  206.8800  151.8780 N   0  0  0  0  0  2  0  0  0  0  0  0
  161.7140  207.5440  154.0090 O   0  0  0  0  0  0  0  0  0  0  0  0
  161.6320  205.5810  151.8960 C   0  0  0  0  0  0  0  0  0  0  0  0
  162.6840  205.3760  152.5680 O   0  0  0  0  0  0  0  0  0  0  0  0
  160.2940  203.6190  150.3060 C   0  0  2  0  0  3  0  0  0  0  0  0
  161.2220  202.1510  148.8010 O   0  0  0  0  0  0  0  0  0  0  0  0
  161.2400  204.5100  148.0760 C   0  0  0  0  0  0  0  0  0  0  0  0
  160.3550  202.2210  150.8520 C   0  0  0  0  0  3  0  0  0  0  0  0
  160.9350  203.4730  149.0100 N   0  0  0  0  0  0  0  0  0  0  0  0
  160.9590  205.7120  148.3470 O   0  0  0  0  0  0  0  0  0  0  0  0
  160.8830  201.4160  149.9240 C   0  0  0  0  0  3  0  0  0  0  0  0
  161.9400  204.1700  146.7960 C   0  0  2  0  0  3  0  0  0  0  0  0
  160.8850  205.0680  143.5900 O   0  0  0  0  0  0  0  0  0  0  0  0
  162.6900  205.7330  145.0480 C   0  0  0  0  0  3  0  0  0  0  0  0
  161.4800  204.9690  144.6930 C   0  0  0  0  0  0  0  0  0  0  0  0
  163.0120  205.2180  146.4520 C   0  0  0  0  0  3  0  0  0  0  0  0
  161.0310  204.1580  145.7100 O   0  0  0  0  0  0  0  0  0  0  0  0
  162.2830  211.2310  149.6040 C   0  0  0  0  0  2  0  0  0  0  0  0
  161.4460  211.0090  148.4850 O   0  0  0  0  0  0  0  0  0  0  0  0
  162.4880  212.5380  147.1490 O   0  0  0  0  0  0  0  0  0  0  0  0
  162.0480  213.2430  146.0250 C   0  0  2  0  0  3  0  0  0  0  0  0
  160.2500  212.1550  146.7540 C   0  0  0  0  0  2  0  0  0  0  0  0
  161.3040  212.2330  147.8110 C   0  0  1  0  0  3  0  0  0  0  0  0
  160.7750  212.7900  145.6260 O   0  0  0  0  0  0  0  0  0  0  0  0
  162.3610  212.8280  143.6930 O   0  0  0  0  0  1  0  0  0  0  0  0
  163.0400  213.0700  144.8900 C   0  0  0  0  0  2  0  0  0  0  0  0
  1  6  1  0  0  0  0
  1  5  1  0  0  0  0
  2 11  1  0  0  0  0
  3 16  1  6  0  0  0
  3 10  1  0  0  0  0
  4  8  1  0  0  0  0
  4  7  1  0  0  0  0
  7  9  1  0  0  0  0
  8  1  2  0  0  0  0
  9  5  2  0  0  0  0
 11  7  2  0  0  0  0
 11 10  1  0  0  0  0
 12 15  1  0  0  0  0
 12  2  2  0  0  0  0
 13 35  1  6  0  0  0
 13 14  1  0  0  0  0
 13  2  1  0  0  0  0
 14  3  1  0  0  0  0
 15  4  2  0  0  0  0
 16 19  2  0  0  0  0
 17 20  1  0  0  0  0
 18 20  1  0  0  0  0
 18 16  1  0  0  0  0
 20 21  2  0  0  0  0
 22 25  1  0  0  0  0
 22 17  1  1  0  0  0
 23 26  1  0  0  0  0
 23 28  1  0  0  0  0
 24 27  2  0  0  0  0
 24 26  1  0  0  0  0
 26 22  1  0  0  0  0
 28 25  2  0  0  0  0
 29 24  1  1  0  0  0
 30 32  2  0  0  0  0
 31 33  2  0  0  0  0
 32 31  1  0  0  0  0
 32 34  1  0  0  0  0
 33 29  1  0  0  0  0
 34 29  1  0  0  0  0
 36 35  1  0  0  0  0
 37 40  1  0  0  0  0
 38 43  1  6  0  0  0
 38 37  1  0  0  0  0
 39 40  1  0  0  0  0
 40 36  1  6  0  0  0
 41 38  1  0  0  0  0
 41 39  1  0  0  0  0
 42 43  1  0  0  0  0
M  END
>  <MODEL>
6

>  <REMARK>
 VINA RESULT:      -7.9      3.718      9.129
  Name = 
  7 active torsions:
  status: ('A' for Active; 'I' for Inactive)
    1  A    between atoms: C_1  and  O_32
    2  A    between atoms: C_1  and  C_34
    3  A    between atoms: C_2  and  C_13
    4  A    between atoms: N_3  and  C_4
    5  A    between atoms: C_11  and  C_14
    6  A    between atoms: C_19  and  C_37
    7  A    between atoms: O_32  and  C_35
                            x       y       z     vdW  Elec       q    Type
                         _______ _______ _______ _____ _____    ______ ____

>  <TORSDO>
F 7

$$$$
=
 OpenBabel11062409543D

 43 48  0  0  1  0  0  0  0  0999 V2000
  160.9190  202.2560  149.1490 C   0  0  0  0  0  0  0  0  0  0  0  0
  161.0970  206.6590  151.5870 C   0  0  0  0  0  0  0  0  0  0  0  0
  162.2280  208.5590  149.9150 C   0  0  2  0  0  3  0  0  0  0  0  0
  160.6920  204.0090  150.7960 C   0  0  0  0  0  0  0  0  0  0  0  0
  161.4750  203.1660  148.2510 C   0  0  0  0  0  3  0  0  0  0  0  0
  160.7670  200.8290  148.7610 C   0  0  0  0  0  1  0  0  0  0  0  0
  161.2270  204.9460  149.8750 C   0  0  0  0  0  0  0  0  0  0  0  0
  160.5320  202.6730  150.4240 C   0  0  0  0  0  3  0  0  0  0  0  0
  161.6310  204.5070  148.6150 C   0  0  0  0  0  3  0  0  0  0  0  0
  161.9100  207.2600  149.3970 O   0  0  0  0  0  0  0  0  0  0  0  0
  161.4100  206.2760  150.2720 C   0  0  0  0  0  0  0  0  0  0  0  0
  160.5890  205.7230  152.5010 C   0  0  0  0  0  3  0  0  0  0  0  0
  161.5220  208.0560  151.9660 C   0  0  1  0  0  3  0  0  0  0  0  0
  161.2900  208.9430  150.8920 O   0  0  0  0  0  0  0  0  0  0  0  0
  160.3640  204.4070  152.0940 C   0  0  0  0  0  3  0  0  0  0  0  0
  162.3130  209.5870  148.8440 C   0  0  0  0  0  0  0  0  0  0  0  0
  160.8950  213.0020  148.0530 N   0  0  0  0  0  2  0  0  0  0  0  0
  161.4670  210.7380  148.8650 N   0  0  0  0  0  2  0  0  0  0  0  0
  163.2010  209.4690  147.9550 O   0  0  0  0  0  0  0  0  0  0  0  0
  161.8660  212.0000  148.3240 C   0  0  0  0  0  0  0  0  0  0  0  0
  163.0890  212.2410  148.1090 O   0  0  0  0  0  0  0  0  0  0  0  0
  159.7270  213.8340  147.8450 C   0  0  2  0  0  3  0  0  0  0  0  0
  157.9770  213.2670  146.4680 O   0  0  0  0  0  0  0  0  0  0  0  0
  160.0210  213.9850  145.2860 C   0  0  0  0  0  0  0  0  0  0  0  0
  158.5550  213.3000  148.6190 C   0  0  0  0  0  3  0  0  0  0  0  0
  159.2730  213.7090  146.4700 N   0  0  0  0  0  0  0  0  0  0  0  0
  161.2210  214.3760  145.3680 O   0  0  0  0  0  0  0  0  0  0  0  0
  157.5690  213.0100  147.7650 C   0  0  0  0  0  3  0  0  0  0  0  0
  159.3920  213.7610  143.9450 C   0  0  2  0  0  3  0  0  0  0  0  0
  161.0220  213.9710  140.8630 O   0  0  0  0  0  0  0  0  0  0  0  0
  160.1180  212.1790  142.2030 C   0  0  0  0  0  3  0  0  0  0  0  0
  160.4490  213.5870  141.9130 C   0  0  0  0  0  0  0  0  0  0  0  0
  159.4150  212.2730  143.5590 C   0  0  0  0  0  3  0  0  0  0  0  0
  160.1050  214.4470  142.9310 O   0  0  0  0  0  0  0  0  0  0  0  0
  161.0350  208.5940  153.3260 C   0  0  0  0  0  2  0  0  0  0  0  0
  161.9010  208.2720  154.3970 O   0  0  0  0  0  0  0  0  0  0  0  0
  161.4960  210.4280  155.0270 O   0  0  0  0  0  0  0  0  0  0  0  0
  160.5240  210.9850  155.8620 C   0  0  2  0  0  3  0  0  0  0  0  0
  160.2330  208.7860  156.0380 C   0  0  0  0  0  2  0  0  0  0  0  0
  161.5780  209.1140  155.4740 C   0  0  1  0  0  3  0  0  0  0  0  0
  159.5860  210.0060  156.2490 O   0  0  0  0  0  0  0  0  0  0  0  0
  158.4530  211.8550  155.0470 O   0  0  0  0  0  1  0  0  0  0  0  0
  159.8210  212.1230  155.1450 C   0  0  0  0  0  2  0  0  0  0  0  0
  1  8  1  0  0  0  0
  2 13  1  0  0  0  0
  2 12  1  0  0  0  0
  3 16  1  6  0  0  0
  3 14  1  0  0  0  0
  4 15  1  0  0  0  0
  5  9  1  0  0  0  0
  5  1  2  0  0  0  0
  6  1  1  0  0  0  0
  7 11  1  0  0  0  0
  7  4  1  0  0  0  0
  8  4  2  0  0  0  0
  9  7  2  0  0  0  0
 10  3  1  0  0  0  0
 10 11  1  0  0  0  0
 11  2  2  0  0  0  0
 13 35  1  1  0  0  0
 14 13  1  0  0  0  0
 15 12  2  0  0  0  0
 16 18  1  0  0  0  0
 17 20  1  0  0  0  0
 19 16  2  0  0  0  0
 20 18  1  0  0  0  0
 21 20  2  0  0  0  0
 22 17  1  6  0  0  0
 22 25  1  0  0  0  0
 23 26  1  0  0  0  0
 23 28  1  0  0  0  0
 24 27  2  0  0  0  0
 24 26  1  0  0  0  0
 26 22  1  0  0  0  0
 28 25  2  0  0  0  0
 29 24  1  1  0  0  0
 30 32  2  0  0  0  0
 31 33  2  0  0  0  0
 32 31  1  0  0  0  0
 32 34  1  0  0  0  0
 33 29  1  0  0  0  0
 34 29  1  0  0  0  0
 35 36  1  0  0  0  0
 37 40  1  0  0  0  0
 37 38  1  0  0  0  0
 38 43  1  6  0  0  0
 38 41  1  0  0  0  0
 39 41  1  0  0  0  0
 40 36  1  6  0  0  0
 40 39  1  0  0  0  0
 42 43  1  0  0  0  0
M  END
>  <MODEL>
7

>  <REMARK>
 VINA RESULT:      -7.8      1.358      2.133
  Name = 
  7 active torsions:
  status: ('A' for Active; 'I' for Inactive)
    1  A    between atoms: C_1  and  O_32
    2  A    between atoms: C_1  and  C_34
    3  A    between atoms: C_2  and  C_13
    4  A    between atoms: N_3  and  C_4
    5  A    between atoms: C_11  and  C_14
    6  A    between atoms: C_19  and  C_37
    7  A    between atoms: O_32  and  C_35
                            x       y       z     vdW  Elec       q    Type
                         _______ _______ _______ _____ _____    ______ ____

>  <TORSDO>
F 7

$$$$
=
 OpenBabel11062409543D

 43 48  0  0  1  0  0  0  0  0999 V2000
  161.0240  202.2700  146.8340 C   0  0  0  0  0  0  0  0  0  0  0  0
  161.7370  207.0790  148.1480 C   0  0  0  0  0  0  0  0  0  0  0  0
  161.1410  207.3660  150.8400 C   0  0  2  0  0  3  0  0  0  0  0  0
  161.5680  204.6240  146.8220 C   0  0  0  0  0  0  0  0  0  0  0  0
  160.7300  202.3400  148.1950 C   0  0  0  0  0  3  0  0  0  0  0  0
  160.8680  200.9840  146.1070 C   0  0  0  0  0  1  0  0  0  0  0  0
  161.3000  204.6940  148.2140 C   0  0  0  0  0  0  0  0  0  0  0  0
  161.4380  203.4110  146.1440 C   0  0  0  0  0  3  0  0  0  0  0  0
  160.8640  203.5520  148.8820 C   0  0  0  0  0  3  0  0  0  0  0  0
  161.1800  206.0560  150.2600 O   0  0  0  0  0  0  0  0  0  0  0  0
  161.4050  205.9240  148.8760 C   0  0  0  0  0  0  0  0  0  0  0  0
  161.9790  207.0080  146.7680 C   0  0  0  0  0  3  0  0  0  0  0  0
  161.6220  208.3740  148.9140 C   0  0  1  0  0  3  0  0  0  0  0  0
  162.0960  208.2030  150.2330 O   0  0  0  0  0  0  0  0  0  0  0  0
  161.9190  205.7760  146.1150 C   0  0  0  0  0  3  0  0  0  0  0  0
  161.3370  207.3360  152.3130 C   0  0  0  0  0  0  0  0  0  0  0  0
  160.4320  209.3980  155.3510 N   0  0  0  0  0  2  0  0  0  0  0  0
  160.9300  208.4370  153.1290 N   0  0  0  0  0  2  0  0  0  0  0  0
  161.7990  206.2890  152.8460 O   0  0  0  0  0  0  0  0  0  0  0  0
  160.4930  208.2760  154.4810 C   0  0  0  0  0  0  0  0  0  0  0  0
  160.1330  207.1390  154.9020 O   0  0  0  0  0  0  0  0  0  0  0  0
  160.4820  210.6750  156.0340 C   0  0  2  0  0  3  0  0  0  0  0  0
  158.8160  212.2550  155.9230 O   0  0  0  0  0  0  0  0  0  0  0  0
  160.1990  212.0800  153.8870 C   0  0  0  0  0  0  0  0  0  0  0  0
  159.6070  210.6550  157.2550 C   0  0  0  0  0  3  0  0  0  0  0  0
  159.8450  211.6950  155.2160 N   0  0  0  0  0  0  0  0  0  0  0  0
  161.1550  211.5050  153.2910 O   0  0  0  0  0  0  0  0  0  0  0  0
  158.6760  211.6060  157.1380 C   0  0  0  0  0  3  0  0  0  0  0  0
  159.4000  213.1350  153.1850 C   0  0  2  0  0  3  0  0  0  0  0  0
  158.0250  212.8650  149.9860 O   0  0  0  0  0  0  0  0  0  0  0  0
  157.1410  212.9030  152.2310 C   0  0  0  0  0  3  0  0  0  0  0  0
  158.2200  212.9260  151.2260 C   0  0  0  0  0  0  0  0  0  0  0  0
  157.9080  213.0370  153.5480 C   0  0  0  0  0  3  0  0  0  0  0  0
  159.4780  212.9770  151.7800 O   0  0  0  0  0  0  0  0  0  0  0  0
  162.1570  209.6470  148.2270 C   0  0  0  0  0  2  0  0  0  0  0  0
  161.5160  210.8300  148.6660 O   0  0  0  0  0  0  0  0  0  0  0  0
  162.5100  211.9310  146.9320 O   0  0  0  0  0  0  0  0  0  0  0  0
  162.6360  213.2930  146.6460 C   0  0  2  0  0  3  0  0  0  0  0  0
  161.6940  213.2190  148.6600 C   0  0  0  0  0  2  0  0  0  0  0  0
  162.3350  211.9140  148.3100 C   0  0  1  0  0  3  0  0  0  0  0  0
  161.8900  214.0600  147.5630 O   0  0  0  0  0  0  0  0  0  0  0  0
  161.0000  212.8390  144.9650 O   0  0  0  0  0  1  0  0  0  0  0  0
  162.1620  213.5680  145.2310 C   0  0  0  0  0  2  0  0  0  0  0  0
  1  5  1  0  0  0  0
  2 11  1  0  0  0  0
  2 13  1  0  0  0  0
  3 16  1  1  0  0  0
  4  7  1  0  0  0  0
  5  9  2  0  0  0  0
  6  1  1  0  0  0  0
  7 11  2  0  0  0  0
  7  9  1  0  0  0  0
  8  4  1  0  0  0  0
  8  1  2  0  0  0  0
 10  3  1  0  0  0  0
 11 10  1  0  0  0  0
 12  2  2  0  0  0  0
 13 35  1  6  0  0  0
 13 14  1  0  0  0  0
 14  3  1  0  0  0  0
 15 12  1  0  0  0  0
 15  4  2  0  0  0  0
 16 19  2  0  0  0  0
 16 18  1  0  0  0  0
 18 20  1  0  0  0  0
 20 21  2  0  0  0  0
 20 17  1  0  0  0  0
 22 17  1  6  0  0  0
 22 25  1  0  0  0  0
 23 28  1  0  0  0  0
 24 26  1  0  0  0  0
 26 23  1  0  0  0  0
 26 22  1  0  0  0  0
 27 24  2  0  0  0  0
 28 25  2  0  0  0  0
 29 33  1  0  0  0  0
 29 24  1  1  0  0  0
 30 32  2  0  0  0  0
 31 33  2  0  0  0  0
 32 34  1  0  0  0  0
 32 31  1  0  0  0  0
 34 29  1  0  0  0  0
 35 36  1  0  0  0  0
 37 40  1  0  0  0  0
 38 43  1  6  0  0  0
 38 37  1  0  0  0  0
 38 41  1  0  0  0  0
 40 39  1  0  0  0  0
 40 36  1  6  0  0  0
 41 39  1  0  0  0  0
 42 43  1  0  0  0  0
M  END
>  <MODEL>
8

>  <REMARK>
 VINA RESULT:      -7.8      3.218      7.994
  Name = 
  7 active torsions:
  status: ('A' for Active; 'I' for Inactive)
    1  A    between atoms: C_1  and  O_32
    2  A    between atoms: C_1  and  C_34
    3  A    between atoms: C_2  and  C_13
    4  A    between atoms: N_3  and  C_4
    5  A    between atoms: C_11  and  C_14
    6  A    between atoms: C_19  and  C_37
    7  A    between atoms: O_32  and  C_35
                            x       y       z     vdW  Elec       q    Type
                         _______ _______ _______ _____ _____    ______ ____

>  <TORSDO>
F 7

$$$$
=
 OpenBabel11062409543D

 43 48  0  0  1  0  0  0  0  0999 V2000
  161.9080  213.6540  147.5500 C   0  0  0  0  0  0  0  0  0  0  0  0
  159.9860  212.4160  152.0370 C   0  0  0  0  0  0  0  0  0  0  0  0
  160.1920  209.6720  152.3700 C   0  0  2  0  0  3  0  0  0  0  0  0
  160.9120  213.7290  149.7510 C   0  0  0  0  0  0  0  0  0  0  0  0
  162.0620  212.2730  147.6620 C   0  0  0  0  0  3  0  0  0  0  0  0
  162.3330  214.3500  146.3070 C   0  0  0  0  0  1  0  0  0  0  0  0
  161.0960  212.3280  149.8820 C   0  0  0  0  0  0  0  0  0  0  0  0
  161.3290  214.3840  148.5910 C   0  0  0  0  0  3  0  0  0  0  0  0
  161.6530  211.6120  148.8250 C   0  0  0  0  0  3  0  0  0  0  0  0
  160.8220  210.2970  151.2440 O   0  0  0  0  0  0  0  0  0  0  0  0
  160.6460  211.6800  151.0390 C   0  0  0  0  0  0  0  0  0  0  0  0
  159.7870  213.7970  151.8910 C   0  0  0  0  0  3  0  0  0  0  0  0
  159.3650  211.5910  153.1370 C   0  0  1  0  0  3  0  0  0  0  0  0
  160.2220  210.5250  153.4890 O   0  0  0  0  0  0  0  0  0  0  0  0
  160.2750  214.4530  150.7600 C   0  0  0  0  0  3  0  0  0  0  0  0
  160.8060  208.3580  152.7010 C   0  0  0  0  0  0  0  0  0  0  0  0
  161.1930  204.9260  151.1610 N   0  0  0  0  0  2  0  0  0  0  0  0
  160.5960  207.2200  151.8620 N   0  0  0  0  0  2  0  0  0  0  0  0
  161.5820  208.2800  153.6920 O   0  0  0  0  0  0  0  0  0  0  0  0
  161.5670  206.1810  151.7130 C   0  0  0  0  0  0  0  0  0  0  0  0
  162.7700  206.3840  152.0460 O   0  0  0  0  0  0  0  0  0  0  0  0
  160.5620  203.7460  150.6040 C   0  0  2  0  0  3  0  0  0  0  0  0
  161.6370  202.2380  149.2450 O   0  0  0  0  0  0  0  0  0  0  0  0
  161.0600  204.3730  148.1510 C   0  0  0  0  0  0  0  0  0  0  0  0
  160.9860  202.5170  151.3560 C   0  0  0  0  0  3  0  0  0  0  0  0
  161.0870  203.4910  149.2730 N   0  0  0  0  0  0  0  0  0  0  0  0
  160.5470  205.5230  148.2580 O   0  0  0  0  0  0  0  0  0  0  0  0
  161.5840  201.6750  150.5080 C   0  0  0  0  0  3  0  0  0  0  0  0
  161.6870  203.9460  146.8590 C   0  0  2  0  0  3  0  0  0  0  0  0
  160.9900  205.2830  143.7080 O   0  0  0  0  0  0  0  0  0  0  0  0
  162.8620  205.3710  145.2300 C   0  0  0  0  0  3  0  0  0  0  0  0
  161.5070  204.9660  144.8090 C   0  0  0  0  0  0  0  0  0  0  0  0
  163.0010  204.7040  146.6000 C   0  0  0  0  0  3  0  0  0  0  0  0
  160.8370  204.2360  145.7640 O   0  0  0  0  0  0  0  0  0  0  0  0
  158.7990  212.3520  154.3530 C   0  0  0  0  0  2  0  0  0  0  0  0
  158.1590  211.5080  155.2920 O   0  0  0  0  0  0  0  0  0  0  0  0
  159.7680  210.3630  156.4350 O   0  0  0  0  0  0  0  0  0  0  0  0
  160.9100  210.7940  157.1140 C   0  0  2  0  0  3  0  0  0  0  0  0
  159.8690  212.6640  156.5080 C   0  0  0  0  0  2  0  0  0  0  0  0
  158.9500  211.4860  156.4520 C   0  0  1  0  0  3  0  0  0  0  0  0
  161.1120  212.1740  156.9120 O   0  0  0  0  0  0  0  0  0  0  0  0
  162.7240  210.6830  155.5620 O   0  0  0  0  0  1  0  0  0  0  0  0
  162.1200  210.0150  156.6310 C   0  0  0  0  0  2  0  0  0  0  0  0
  1  5  2  0  0  0  0
  1  8  1  0  0  0  0
  2 13  1  0  0  0  0
  3 16  1  1  0  0  0
  3 14  1  0  0  0  0
  4  7  1  0  0  0  0
  4 15  1  0  0  0  0
  5  9  1  0  0  0  0
  6  1  1  0  0  0  0
  7 11  1  0  0  0  0
  8  4  2  0  0  0  0
  9  7  2  0  0  0  0
 10  3  1  0  0  0  0
 11 10  1  0  0  0  0
 11  2  2  0  0  0  0
 12  2  1  0  0  0  0
 13 14  1  0  0  0  0
 13 35  1  1  0  0  0
 15 12  2  0  0  0  0
 16 19  2  0  0  0  0
 17 20  1  0  0  0  0
 18 16  1  0  0  0  0
 20 18  1  0  0  0  0
 20 21  2  0  0  0  0
 22 17  1  1  0  0  0
 22 25  1  0  0  0  0
 23 26  1  0  0  0  0
 23 28  1  0  0  0  0
 24 27  2  0  0  0  0
 24 26  1  0  0  0  0
 26 22  1  0  0  0  0
 28 25  2  0  0  0  0
 29 24  1  1  0  0  0
 30 32  2  0  0  0  0
 31 33  2  0  0  0  0
 32 31  1  0  0  0  0
 32 34  1  0  0  0  0
 33 29  1  0  0  0  0
 34 29  1  0  0  0  0
 35 36  1  0  0  0  0
 37 40  1  0  0  0  0
 37 38  1  0  0  0  0
 38 43  1  6  0  0  0
 39 41  1  0  0  0  0
 40 36  1  6  0  0  0
 40 39  1  0  0  0  0
 41 38  1  0  0  0  0
 42 43  1  0  0  0  0
M  END
>  <MODEL>
9

>  <REMARK>
 VINA RESULT:      -7.4      4.253      7.663
  Name = 
  7 active torsions:
  status: ('A' for Active; 'I' for Inactive)
    1  A    between atoms: C_1  and  O_32
    2  A    between atoms: C_1  and  C_34
    3  A    between atoms: C_2  and  C_13
    4  A    between atoms: N_3  and  C_4
    5  A    between atoms: C_11  and  C_14
    6  A    between atoms: C_19  and  C_37
    7  A    between atoms: O_32  and  C_35
                            x       y       z     vdW  Elec       q    Type
                         _______ _______ _______ _____ _____    ______ ____

>  <TORSDO>
F 7

$$$$
