=
 OpenBabel11052422213D

 25 26  0  0  1  0  0  0  0  0999 V2000
  161.0840  205.5910  149.6460 C   0  0  1  0  0  3  0  0  0  0  0  0
  160.2500  206.1290  147.3280 C   0  0  0  0  0  2  0  0  0  0  0  0
  162.3000  204.6850  147.6230 C   0  0  0  0  0  2  0  0  0  0  0  0
  161.1730  204.6200  144.3230 O   0  0  0  0  0  0  0  0  0  0  0  0
  161.4320  205.2000  145.3630 C   0  0  0  0  0  0  0  0  0  0  0  0
  162.6570  204.8480  146.1430 C   0  0  0  0  0  2  0  0  0  0  0  0
  161.5100  205.8840  148.1870 C   0  0  0  0  0  0  0  0  0  0  0  0
  160.5660  206.3200  145.8430 C   0  0  0  0  0  2  0  0  0  0  0  0
  162.4050  207.1320  148.1650 C   0  0  0  0  0  2  0  0  0  0  0  0
  161.6440  208.3000  148.2710 O   0  0  0  0  0  1  0  0  0  0  0  0
  161.7750  203.7580  151.0100 O   0  0  0  0  0  0  0  0  0  0  0  0
  161.1200  204.1310  150.0000 C   0  0  0  0  0  0  0  0  0  0  0  0
  160.4220  203.2050  149.2210 O   0  0  0  0  0  0  0  0  0  0  0  0
  160.4280  201.8190  149.5220 C   0  0  0  0  0  1  0  0  0  0  0  0
  161.8810  206.3560  150.5980 N   0  0  0  0  0  2  0  0  0  0  0  0
  160.9510  207.0110  151.5030 C   0  0  0  0  0  2  0  0  0  0  0  0
  161.6110  207.2300  152.8510 C   0  0  0  0  0  2  0  0  0  0  0  0
  161.0640  206.3000  153.8260 N   0  0  0  0  0  2  0  0  0  0  0  0
  160.4080  207.0920  154.8540 C   0  0  0  0  0  2  0  0  0  0  0  0
  161.2840  208.2690  155.2480 C   0  0  0  0  0  2  0  0  0  0  0  0
  160.4530  209.4210  155.5580 N   0  0  0  0  0  2  0  0  0  0  0  0
  160.3370  211.7120  154.7910 C   0  0  0  0  0  2  0  0  0  0  0  0
  159.1120  210.9800  154.2900 C   0  0  1  0  0  3  0  0  0  0  0  0
  158.8550  211.3660  152.8490 C   0  0  0  0  0  1  0  0  0  0  0  0
  160.4430  210.2600  154.3740 C   0  0  2  0  0  3  0  0  0  0  0  0
  1 12  1  1  0  0  0
  1 15  1  0  0  0  0
  2  7  1  0  0  0  0
  3  7  1  0  0  0  0
  4  5  2  0  0  0  0
  5  8  1  0  0  0  0
  5  6  1  0  0  0  0
  6  3  1  0  0  0  0
  7  1  1  0  0  0  0
  8  2  1  0  0  0  0
  9  7  1  0  0  0  0
  9 10  1  0  0  0  0
 12 11  2  0  0  0  0
 13 14  1  0  0  0  0
 13 12  1  0  0  0  0
 15 16  1  0  0  0  0
 16 17  1  0  0  0  0
 17 18  1  0  0  0  0
 18 19  1  0  0  0  0
 19 20  1  0  0  0  0
 20 21  1  0  0  0  0
 23 24  1  6  0  0  0
 23 25  1  0  0  0  0
 23 22  1  0  0  0  0
 25 22  1  0  0  0  0
 25 21  1  1  0  0  0
M  END
>  <MODEL>
1

>  <REMARK>
 VINA RESULT:      -5.9      0.000      0.000
  Name = 
  12 active torsions:
  status: ('A' for Active; 'I' for Inactive)
    1  A    between atoms: C_1  and  N_3
    2  A    between atoms: C_1  and  C_18
    3  A    between atoms: C_1  and  C_24
    4  A    between atoms: N_3  and  C_16
    5  A    between atoms: C_6  and  C_15
    6  A    between atoms: C_6  and  N_21
    7  A    between atoms: O_13  and  C_24
    8  A    between atoms: C_15  and  N_20
    9  A    between atoms: C_16  and  C_23
   10  A    between atoms: C_17  and  C_18
   11  A    between atoms: N_20  and  C_23
   12  A    between atoms: N_21  and  C_25
                            x       y       z     vdW  Elec       q    Type
                         _______ _______ _______ _____ _____    ______ ____

>  <TORSDO>
F 12

$$$$
=
 OpenBabel11052422213D

 25 26  0  0  1  0  0  0  0  0999 V2000
  161.1820  206.0040  149.8320 C   0  0  1  0  0  3  0  0  0  0  0  0
  160.2800  206.3010  147.4960 C   0  0  0  0  0  2  0  0  0  0  0  0
  162.2870  204.8190  147.8910 C   0  0  0  0  0  2  0  0  0  0  0  0
  161.0340  204.4150  144.6610 O   0  0  0  0  0  0  0  0  0  0  0  0
  161.3530  205.1020  145.6170 C   0  0  0  0  0  0  0  0  0  0  0  0
  162.5930  204.7940  146.3910 C   0  0  0  0  0  2  0  0  0  0  0  0
  161.5620  206.1070  148.3350 C   0  0  0  0  0  0  0  0  0  0  0  0
  160.5470  206.3040  145.9890 C   0  0  0  0  0  2  0  0  0  0  0  0
  162.5000  207.3070  148.1370 C   0  0  0  0  0  2  0  0  0  0  0  0
  161.7780  208.5000  148.0340 O   0  0  0  0  0  1  0  0  0  0  0  0
  161.8480  204.2720  151.3340 O   0  0  0  0  0  0  0  0  0  0  0  0
  161.1350  204.5920  150.3440 C   0  0  0  0  0  0  0  0  0  0  0  0
  160.3020  203.6530  149.7320 O   0  0  0  0  0  0  0  0  0  0  0  0
  160.4960  202.2580  149.9000 C   0  0  0  0  0  1  0  0  0  0  0  0
  162.0680  206.8090  150.6650 N   0  0  0  0  0  2  0  0  0  0  0  0
  161.2730  207.8990  151.2060 C   0  0  0  0  0  2  0  0  0  0  0  0
  162.1530  209.1080  151.4520 C   0  0  0  0  0  2  0  0  0  0  0  0
  161.3400  210.3130  151.4940 N   0  0  0  0  0  2  0  0  0  0  0  0
  160.4500  210.1890  152.6380 C   0  0  0  0  0  2  0  0  0  0  0  0
  160.9580  211.0360  153.7920 C   0  0  0  0  0  2  0  0  0  0  0  0
  161.1010  210.2140  154.9820 N   0  0  0  0  0  2  0  0  0  0  0  0
  160.0130  208.3340  156.0460 C   0  0  0  0  0  2  0  0  0  0  0  0
  161.1920  207.8150  155.2530 C   0  0  1  0  0  3  0  0  0  0  0  0
  160.7820  206.5590  154.5140 C   0  0  0  0  0  1  0  0  0  0  0  0
  160.3790  208.9810  154.7270 C   0  0  2  0  0  3  0  0  0  0  0  0
  1 12  1  1  0  0  0
  1 15  1  0  0  0  0
  2  7  1  0  0  0  0
  3  7  1  0  0  0  0
  4  5  2  0  0  0  0
  5  8  1  0  0  0  0
  5  6  1  0  0  0  0
  6  3  1  0  0  0  0
  7  1  1  0  0  0  0
  8  2  1  0  0  0  0
  9  7  1  0  0  0  0
 10  9  1  0  0  0  0
 12 11  2  0  0  0  0
 13 14  1  0  0  0  0
 13 12  1  0  0  0  0
 15 16  1  0  0  0  0
 16 17  1  0  0  0  0
 17 18  1  0  0  0  0
 18 19  1  0  0  0  0
 19 20  1  0  0  0  0
 20 21  1  0  0  0  0
 23 24  1  6  0  0  0
 23 22  1  0  0  0  0
 25 21  1  1  0  0  0
 25 23  1  0  0  0  0
 25 22  1  0  0  0  0
M  END
>  <MODEL>
2

>  <REMARK>
 VINA RESULT:      -5.8      1.207      2.159
  Name = 
  12 active torsions:
  status: ('A' for Active; 'I' for Inactive)
    1  A    between atoms: C_1  and  N_3
    2  A    between atoms: C_1  and  C_18
    3  A    between atoms: C_1  and  C_24
    4  A    between atoms: N_3  and  C_16
    5  A    between atoms: C_6  and  C_15
    6  A    between atoms: C_6  and  N_21
    7  A    between atoms: O_13  and  C_24
    8  A    between atoms: C_15  and  N_20
    9  A    between atoms: C_16  and  C_23
   10  A    between atoms: C_17  and  C_18
   11  A    between atoms: N_20  and  C_23
   12  A    between atoms: N_21  and  C_25
                            x       y       z     vdW  Elec       q    Type
                         _______ _______ _______ _____ _____    ______ ____

>  <TORSDO>
F 12

$$$$
=
 OpenBabel11052422213D

 25 26  0  0  1  0  0  0  0  0999 V2000
  161.9410  205.9250  149.0470 C   0  0  1  0  0  3  0  0  0  0  0  0
  162.7350  205.0060  146.8370 C   0  0  0  0  0  2  0  0  0  0  0  0
  160.5620  206.2880  146.9590 C   0  0  0  0  0  2  0  0  0  0  0  0
  161.5480  205.7850  143.6520 O   0  0  0  0  0  0  0  0  0  0  0  0
  161.3890  205.4060  144.8000 C   0  0  0  0  0  0  0  0  0  0  0  0
  160.1660  205.7970  145.5640 C   0  0  0  0  0  2  0  0  0  0  0  0
  161.4910  205.3050  147.7020 C   0  0  0  0  0  0  0  0  0  0  0  0
  162.3820  204.4910  145.4400 C   0  0  0  0  0  2  0  0  0  0  0  0
  160.7260  204.0030  147.9810 C   0  0  0  0  0  2  0  0  0  0  0  0
  161.6040  202.9280  148.1510 O   0  0  0  0  0  1  0  0  0  0  0  0
  162.8570  207.9410  148.1540 O   0  0  0  0  0  0  0  0  0  0  0  0
  162.0820  207.4200  149.0020 C   0  0  0  0  0  0  0  0  0  0  0  0
  161.3530  208.2190  149.8850 O   0  0  0  0  0  0  0  0  0  0  0  0
  161.9870  209.1160  150.7820 C   0  0  0  0  0  1  0  0  0  0  0  0
  161.0520  205.5400  150.1370 N   0  0  0  0  0  2  0  0  0  0  0  0
  161.8900  205.0540  151.2210 C   0  0  0  0  0  2  0  0  0  0  0  0
  161.1440  205.1590  152.5370 C   0  0  0  0  0  2  0  0  0  0  0  0
  161.8190  206.1020  153.4140 N   0  0  0  0  0  2  0  0  0  0  0  0
  160.8930  207.1970  153.6590 C   0  0  0  0  0  2  0  0  0  0  0  0
  160.5910  207.3080  155.1430 C   0  0  0  0  0  2  0  0  0  0  0  0
  160.5680  208.7060  155.5400 N   0  0  0  0  0  2  0  0  0  0  0  0
  161.9440  210.5530  154.8000 C   0  0  0  0  0  2  0  0  0  0  0  0
  160.4950  210.9060  154.5450 C   0  0  1  0  0  3  0  0  0  0  0  0
  160.3710  211.5450  153.1780 C   0  0  0  0  0  1  0  0  0  0  0  0
  160.9680  209.4760  154.3760 C   0  0  2  0  0  3  0  0  0  0  0  0
  1 12  1  6  0  0  0
  1 15  1  0  0  0  0
  2  7  1  0  0  0  0
  3  7  1  0  0  0  0
  4  5  2  0  0  0  0
  5  8  1  0  0  0  0
  5  6  1  0  0  0  0
  6  3  1  0  0  0  0
  7  9  1  0  0  0  0
  7  1  1  0  0  0  0
  8  2  1  0  0  0  0
  9 10  1  0  0  0  0
 11 12  2  0  0  0  0
 12 13  1  0  0  0  0
 13 14  1  0  0  0  0
 15 16  1  0  0  0  0
 16 17  1  0  0  0  0
 17 18  1  0  0  0  0
 18 19  1  0  0  0  0
 19 20  1  0  0  0  0
 20 21  1  0  0  0  0
 23 24  1  6  0  0  0
 23 22  1  0  0  0  0
 25 23  1  0  0  0  0
 25 22  1  0  0  0  0
 25 21  1  1  0  0  0
M  END
>  <MODEL>
3

>  <REMARK>
 VINA RESULT:      -5.8      1.360      2.976
  Name = 
  12 active torsions:
  status: ('A' for Active; 'I' for Inactive)
    1  A    between atoms: C_1  and  N_3
    2  A    between atoms: C_1  and  C_18
    3  A    between atoms: C_1  and  C_24
    4  A    between atoms: N_3  and  C_16
    5  A    between atoms: C_6  and  C_15
    6  A    between atoms: C_6  and  N_21
    7  A    between atoms: O_13  and  C_24
    8  A    between atoms: C_15  and  N_20
    9  A    between atoms: C_16  and  C_23
   10  A    between atoms: C_17  and  C_18
   11  A    between atoms: N_20  and  C_23
   12  A    between atoms: N_21  and  C_25
                            x       y       z     vdW  Elec       q    Type
                         _______ _______ _______ _____ _____    ______ ____

>  <TORSDO>
F 12

$$$$
=
 OpenBabel11052422213D

 25 26  0  0  1  0  0  0  0  0999 V2000
  161.1740  209.1380  153.5490 C   0  0  1  0  0  3  0  0  0  0  0  0
  159.4230  209.6860  155.2790 C   0  0  0  0  0  2  0  0  0  0  0  0
  159.3760  210.8380  153.0320 C   0  0  0  0  0  2  0  0  0  0  0  0
  156.4380  211.4280  154.8160 O   0  0  0  0  0  0  0  0  0  0  0  0
  157.6500  211.3250  154.7370 C   0  0  0  0  0  0  0  0  0  0  0  0
  158.3840  211.8780  153.5590 C   0  0  0  0  0  2  0  0  0  0  0  0
  160.2880  210.2620  154.1360 C   0  0  0  0  0  0  0  0  0  0  0  0
  158.4310  210.7020  155.8490 C   0  0  0  0  0  2  0  0  0  0  0  0
  161.1890  211.3810  154.6800 C   0  0  0  0  0  2  0  0  0  0  0  0
  162.3890  210.8650  155.1780 O   0  0  0  0  0  1  0  0  0  0  0  0
  161.5340  207.8060  155.4980 O   0  0  0  0  0  0  0  0  0  0  0  0
  161.0950  207.8480  154.3170 C   0  0  0  0  0  0  0  0  0  0  0  0
  160.5310  206.7160  153.7250 O   0  0  0  0  0  0  0  0  0  0  0  0
  161.3060  205.5690  153.4150 C   0  0  0  0  0  1  0  0  0  0  0  0
  160.8740  208.9010  152.1420 N   0  0  0  0  0  2  0  0  0  0  0  0
  162.1340  208.9680  151.4190 C   0  0  0  0  0  2  0  0  0  0  0  0
  162.2760  207.7580  150.5160 C   0  0  0  0  0  2  0  0  0  0  0  0
  160.9830  207.1170  150.3410 N   0  0  0  0  0  2  0  0  0  0  0  0
  160.9930  206.4830  149.0320 C   0  0  0  0  0  2  0  0  0  0  0  0
  162.0700  207.1020  148.1570 C   0  0  0  0  0  2  0  0  0  0  0  0
  161.9350  206.6200  146.7930 N   0  0  0  0  0  2  0  0  0  0  0  0
  163.1930  204.6670  146.1170 C   0  0  0  0  0  2  0  0  0  0  0  0
  161.8340  204.6110  145.4550 C   0  0  1  0  0  3  0  0  0  0  0  0
  161.2940  203.1990  145.5420 C   0  0  0  0  0  1  0  0  0  0  0  0
  161.9710  205.1710  146.8570 C   0  0  2  0  0  3  0  0  0  0  0  0
  1 15  1  6  0  0  0
  1  7  1  0  0  0  0
  1 12  1  0  0  0  0
  2  8  1  0  0  0  0
  3  6  1  0  0  0  0
  3  7  1  0  0  0  0
  5  4  2  0  0  0  0
  5  8  1  0  0  0  0
  6  5  1  0  0  0  0
  7  9  1  0  0  0  0
  7  2  1  0  0  0  0
  9 10  1  0  0  0  0
 12 11  2  0  0  0  0
 13 12  1  0  0  0  0
 14 13  1  0  0  0  0
 16 15  1  0  0  0  0
 17 16  1  0  0  0  0
 18 17  1  0  0  0  0
 19 18  1  0  0  0  0
 20 19  1  0  0  0  0
 21 20  1  0  0  0  0
 22 25  1  0  0  0  0
 23 24  1  1  0  0  0
 23 22  1  0  0  0  0
 23 25  1  0  0  0  0
 25 21  1  6  0  0  0
M  END
>  <MODEL>
4

>  <REMARK>
 VINA RESULT:      -5.7      3.157      8.312
  Name = 
  12 active torsions:
  status: ('A' for Active; 'I' for Inactive)
    1  A    between atoms: C_1  and  N_3
    2  A    between atoms: C_1  and  C_18
    3  A    between atoms: C_1  and  C_24
    4  A    between atoms: N_3  and  C_16
    5  A    between atoms: C_6  and  C_15
    6  A    between atoms: C_6  and  N_21
    7  A    between atoms: O_13  and  C_24
    8  A    between atoms: C_15  and  N_20
    9  A    between atoms: C_16  and  C_23
   10  A    between atoms: C_17  and  C_18
   11  A    between atoms: N_20  and  C_23
   12  A    between atoms: N_21  and  C_25
                            x       y       z     vdW  Elec       q    Type
                         _______ _______ _______ _____ _____    ______ ____

>  <TORSDO>
F 12

$$$$
=
 OpenBabel11052422213D

 25 26  0  0  1  0  0  0  0  0999 V2000
  161.1080  209.0730  153.4500 C   0  0  1  0  0  3  0  0  0  0  0  0
  159.4200  209.6660  155.2270 C   0  0  0  0  0  2  0  0  0  0  0  0
  159.3090  210.7820  152.9650 C   0  0  0  0  0  2  0  0  0  0  0  0
  156.4370  211.4290  154.8340 O   0  0  0  0  0  0  0  0  0  0  0  0
  157.6450  211.3120  154.7170 C   0  0  0  0  0  0  0  0  0  0  0  0
  158.3440  211.8390  153.5070 C   0  0  0  0  0  2  0  0  0  0  0  0
  160.2510  210.2150  154.0470 C   0  0  0  0  0  0  0  0  0  0  0  0
  158.4560  210.7000  155.8130 C   0  0  0  0  0  2  0  0  0  0  0  0
  161.1800  211.3340  154.5430 C   0  0  0  0  0  2  0  0  0  0  0  0
  161.8520  210.9530  155.7090 O   0  0  0  0  0  1  0  0  0  0  0  0
  161.5350  207.8070  155.4280 O   0  0  0  0  0  0  0  0  0  0  0  0
  161.0670  207.8070  154.2580 C   0  0  0  0  0  0  0  0  0  0  0  0
  160.5060  206.6490  153.7140 O   0  0  0  0  0  0  0  0  0  0  0  0
  161.2930  205.5100  153.4040 C   0  0  0  0  0  1  0  0  0  0  0  0
  160.7380  208.7960  152.0670 N   0  0  0  0  0  2  0  0  0  0  0  0
  161.9230  209.0220  151.2550 C   0  0  0  0  0  2  0  0  0  0  0  0
  162.4140  207.7080  150.6810 C   0  0  0  0  0  2  0  0  0  0  0  0
  161.3560  207.0800  149.9070 N   0  0  0  0  0  2  0  0  0  0  0  0
  161.8460  206.9400  148.5440 C   0  0  0  0  0  2  0  0  0  0  0  0
  161.4170  205.6020  147.9670 C   0  0  0  0  0  2  0  0  0  0  0  0
  160.6810  204.8460  148.9660 N   0  0  0  0  0  2  0  0  0  0  0  0
  161.1490  202.6880  147.9780 C   0  0  0  0  0  2  0  0  0  0  0  0
  160.4010  202.4660  149.2740 C   0  0  1  0  0  3  0  0  0  0  0  0
  161.0430  201.3220  150.0300 C   0  0  0  0  0  1  0  0  0  0  0  0
  161.4000  203.6000  149.1600 C   0  0  2  0  0  3  0  0  0  0  0  0
  1 15  1  6  0  0  0
  1  7  1  0  0  0  0
  1 12  1  0  0  0  0
  2  8  1  0  0  0  0
  3  6  1  0  0  0  0
  3  7  1  0  0  0  0
  5  4  2  0  0  0  0
  5  8  1  0  0  0  0
  6  5  1  0  0  0  0
  7  9  1  0  0  0  0
  7  2  1  0  0  0  0
  9 10  1  0  0  0  0
 12 11  2  0  0  0  0
 13 12  1  0  0  0  0
 14 13  1  0  0  0  0
 16 15  1  0  0  0  0
 17 16  1  0  0  0  0
 18 17  1  0  0  0  0
 19 18  1  0  0  0  0
 20 19  1  0  0  0  0
 20 21  1  0  0  0  0
 22 25  1  0  0  0  0
 22 23  1  0  0  0  0
 23 24  1  1  0  0  0
 25 21  1  6  0  0  0
 25 23  1  0  0  0  0
M  END
>  <MODEL>
5

>  <REMARK>
 VINA RESULT:      -5.7      3.131      8.155
  Name = 
  12 active torsions:
  status: ('A' for Active; 'I' for Inactive)
    1  A    between atoms: C_1  and  N_3
    2  A    between atoms: C_1  and  C_18
    3  A    between atoms: C_1  and  C_24
    4  A    between atoms: N_3  and  C_16
    5  A    between atoms: C_6  and  C_15
    6  A    between atoms: C_6  and  N_21
    7  A    between atoms: O_13  and  C_24
    8  A    between atoms: C_15  and  N_20
    9  A    between atoms: C_16  and  C_23
   10  A    between atoms: C_17  and  C_18
   11  A    between atoms: N_20  and  C_23
   12  A    between atoms: N_21  and  C_25
                            x       y       z     vdW  Elec       q    Type
                         _______ _______ _______ _____ _____    ______ ____

>  <TORSDO>
F 12

$$$$
=
 OpenBabel11052422213D

 25 26  0  0  1  0  0  0  0  0999 V2000
  161.1300  205.7380  149.7540 C   0  0  1  0  0  3  0  0  0  0  0  0
  160.2680  206.1890  147.4280 C   0  0  0  0  0  2  0  0  0  0  0  0
  162.3190  204.7510  147.7520 C   0  0  0  0  0  2  0  0  0  0  0  0
  161.1490  204.5630  144.4720 O   0  0  0  0  0  0  0  0  0  0  0  0
  161.4230  205.1820  145.4860 C   0  0  0  0  0  0  0  0  0  0  0  0
  162.6570  204.8570  146.2640 C   0  0  0  0  0  2  0  0  0  0  0  0
  161.5380  205.9740  148.2800 C   0  0  0  0  0  0  0  0  0  0  0  0
  160.5660  206.3210  145.9330 C   0  0  0  0  0  2  0  0  0  0  0  0
  162.4350  207.2180  148.1990 C   0  0  0  0  0  2  0  0  0  0  0  0
  161.6760  208.3910  148.2390 O   0  0  0  0  0  1  0  0  0  0  0  0
  161.8070  203.9090  151.1300 O   0  0  0  0  0  0  0  0  0  0  0  0
  161.1130  204.2890  150.1490 C   0  0  0  0  0  0  0  0  0  0  0  0
  160.3250  203.3800  149.4380 O   0  0  0  0  0  0  0  0  0  0  0  0
  160.4640  201.9780  149.6050 C   0  0  0  0  0  1  0  0  0  0  0  0
  161.9760  206.4950  150.6690 N   0  0  0  0  0  2  0  0  0  0  0  0
  161.0930  207.1990  151.5850 C   0  0  0  0  0  2  0  0  0  0  0  0
  161.4990  208.6570  151.6770 C   0  0  0  0  0  2  0  0  0  0  0  0
  160.4540  209.4210  152.3400 N   0  0  0  0  0  2  0  0  0  0  0  0
  161.0890  210.5840  152.9390 C   0  0  0  0  0  2  0  0  0  0  0  0
  160.1660  211.7880  152.8540 C   0  0  0  0  0  2  0  0  0  0  0  0
  158.7810  211.3480  152.8580 N   0  0  0  0  0  2  0  0  0  0  0  0
  158.3850  211.8680  155.1870 C   0  0  0  0  0  2  0  0  0  0  0  0
  157.0770  211.4250  154.5690 C   0  0  1  0  0  3  0  0  0  0  0  0
  155.9660  212.3370  155.0440 C   0  0  0  0  0  1  0  0  0  0  0  0
  158.0630  212.2370  153.7540 C   0  0  2  0  0  3  0  0  0  0  0  0
  1 12  1  1  0  0  0
  1 15  1  0  0  0  0
  2  7  1  0  0  0  0
  3  7  1  0  0  0  0
  4  5  2  0  0  0  0
  5  8  1  0  0  0  0
  5  6  1  0  0  0  0
  6  3  1  0  0  0  0
  7  1  1  0  0  0  0
  8  2  1  0  0  0  0
  9 10  1  0  0  0  0
  9  7  1  0  0  0  0
 12 11  2  0  0  0  0
 13 14  1  0  0  0  0
 13 12  1  0  0  0  0
 15 16  1  0  0  0  0
 16 17  1  0  0  0  0
 17 18  1  0  0  0  0
 18 19  1  0  0  0  0
 20 21  1  0  0  0  0
 20 19  1  0  0  0  0
 23 24  1  1  0  0  0
 23 22  1  0  0  0  0
 25 21  1  6  0  0  0
 25 23  1  0  0  0  0
 25 22  1  0  0  0  0
M  END
>  <MODEL>
6

>  <REMARK>
 VINA RESULT:      -5.7      1.494      1.982
  Name = 
  12 active torsions:
  status: ('A' for Active; 'I' for Inactive)
    1  A    between atoms: C_1  and  N_3
    2  A    between atoms: C_1  and  C_18
    3  A    between atoms: C_1  and  C_24
    4  A    between atoms: N_3  and  C_16
    5  A    between atoms: C_6  and  C_15
    6  A    between atoms: C_6  and  N_21
    7  A    between atoms: O_13  and  C_24
    8  A    between atoms: C_15  and  N_20
    9  A    between atoms: C_16  and  C_23
   10  A    between atoms: C_17  and  C_18
   11  A    between atoms: N_20  and  C_23
   12  A    between atoms: N_21  and  C_25
                            x       y       z     vdW  Elec       q    Type
                         _______ _______ _______ _____ _____    ______ ____

>  <TORSDO>
F 12

$$$$
=
 OpenBabel11052422213D

 25 26  0  0  1  0  0  0  0  0999 V2000
  160.9680  205.3570  149.5410 C   0  0  1  0  0  3  0  0  0  0  0  0
  160.1240  205.9960  147.2520 C   0  0  0  0  0  2  0  0  0  0  0  0
  162.0520  204.3800  147.4760 C   0  0  0  0  0  2  0  0  0  0  0  0
  160.8400  204.4550  144.2070 O   0  0  0  0  0  0  0  0  0  0  0  0
  161.1730  204.9980  145.2470 C   0  0  0  0  0  0  0  0  0  0  0  0
  162.3840  204.5330  145.9900 C   0  0  0  0  0  2  0  0  0  0  0  0
  161.3800  205.6330  148.0750 C   0  0  0  0  0  0  0  0  0  0  0  0
  160.4170  206.1790  145.7620 C   0  0  0  0  0  2  0  0  0  0  0  0
  162.3760  206.8020  148.0440 C   0  0  0  0  0  2  0  0  0  0  0  0
  161.7110  208.0320  148.0400 O   0  0  0  0  0  1  0  0  0  0  0  0
  161.8120  203.5450  150.8440 O   0  0  0  0  0  0  0  0  0  0  0  0
  161.0340  203.9050  149.9200 C   0  0  0  0  0  0  0  0  0  0  0  0
  160.2310  202.9730  149.2600 O   0  0  0  0  0  0  0  0  0  0  0  0
  160.4940  201.5800  149.3240 C   0  0  0  0  0  1  0  0  0  0  0  0
  161.7540  206.1550  150.4760 N   0  0  0  0  0  2  0  0  0  0  0  0
  160.8290  206.7050  151.4520 C   0  0  0  0  0  2  0  0  0  0  0  0
  161.4290  207.9410  152.0930 C   0  0  0  0  0  2  0  0  0  0  0  0
  162.3340  208.5930  151.1590 N   0  0  0  0  0  2  0  0  0  0  0  0
  162.2950  210.0180  151.4480 C   0  0  0  0  0  2  0  0  0  0  0  0
  161.3650  210.7250  150.4780 C   0  0  0  0  0  2  0  0  0  0  0  0
  162.0100  210.8560  149.1820 N   0  0  0  0  0  2  0  0  0  0  0  0
  160.9530  212.2210  147.4880 C   0  0  0  0  0  2  0  0  0  0  0  0
  162.4500  212.4190  147.3930 C   0  0  1  0  0  3  0  0  0  0  0  0
  162.7480  213.8910  147.2010 C   0  0  0  0  0  1  0  0  0  0  0  0
  161.7960  212.2240  148.7460 C   0  0  2  0  0  3  0  0  0  0  0  0
  1 12  1  1  0  0  0
  1 15  1  0  0  0  0
  2  7  1  0  0  0  0
  3  7  1  0  0  0  0
  4  5  2  0  0  0  0
  5  8  1  0  0  0  0
  5  6  1  0  0  0  0
  6  3  1  0  0  0  0
  7  1  1  0  0  0  0
  8  2  1  0  0  0  0
  9  7  1  0  0  0  0
 10  9  1  0  0  0  0
 12 11  2  0  0  0  0
 13 14  1  0  0  0  0
 13 12  1  0  0  0  0
 15 16  1  0  0  0  0
 16 17  1  0  0  0  0
 18 19  1  0  0  0  0
 18 17  1  0  0  0  0
 20 19  1  0  0  0  0
 21 20  1  0  0  0  0
 22 25  1  0  0  0  0
 23 24  1  1  0  0  0
 23 22  1  0  0  0  0
 23 25  1  0  0  0  0
 25 21  1  6  0  0  0
M  END
>  <MODEL>
7

>  <REMARK>
 VINA RESULT:      -5.4      2.706      3.578
  Name = 
  12 active torsions:
  status: ('A' for Active; 'I' for Inactive)
    1  A    between atoms: C_1  and  N_3
    2  A    between atoms: C_1  and  C_18
    3  A    between atoms: C_1  and  C_24
    4  A    between atoms: N_3  and  C_16
    5  A    between atoms: C_6  and  C_15
    6  A    between atoms: C_6  and  N_21
    7  A    between atoms: O_13  and  C_24
    8  A    between atoms: C_15  and  N_20
    9  A    between atoms: C_16  and  C_23
   10  A    between atoms: C_17  and  C_18
   11  A    between atoms: N_20  and  C_23
   12  A    between atoms: N_21  and  C_25
                            x       y       z     vdW  Elec       q    Type
                         _______ _______ _______ _____ _____    ______ ____

>  <TORSDO>
F 12

$$$$
=
 OpenBabel11052422213D

 25 26  0  0  1  0  0  0  0  0999 V2000
  161.6830  204.7550  148.5810 C   0  0  1  0  0  3  0  0  0  0  0  0
  160.9190  204.9800  146.1890 C   0  0  0  0  0  2  0  0  0  0  0  0
  161.0470  202.6960  147.2590 C   0  0  0  0  0  2  0  0  0  0  0  0
  159.3520  202.5720  144.2130 O   0  0  0  0  0  0  0  0  0  0  0  0
  160.2630  202.9570  144.9260 C   0  0  0  0  0  0  0  0  0  0  0  0
  160.9180  202.0220  145.8900 C   0  0  0  0  0  2  0  0  0  0  0  0
  161.6990  204.0920  147.1830 C   0  0  0  0  0  0  0  0  0  0  0  0
  160.7860  204.3510  144.8010 C   0  0  0  0  0  2  0  0  0  0  0  0
  163.1540  203.9440  146.7140 C   0  0  0  0  0  2  0  0  0  0  0  0
  163.5500  205.0380  145.9390 O   0  0  0  0  0  1  0  0  0  0  0  0
  160.1800  206.6020  148.7400 O   0  0  0  0  0  0  0  0  0  0  0  0
  161.3670  206.2230  148.5470 C   0  0  0  0  0  0  0  0  0  0  0  0
  162.3840  207.1520  148.3150 O   0  0  0  0  0  0  0  0  0  0  0  0
  162.1840  208.5440  148.5040 C   0  0  0  0  0  1  0  0  0  0  0  0
  160.7700  204.0670  149.4870 N   0  0  0  0  0  2  0  0  0  0  0  0
  161.4870  203.8500  150.7330 C   0  0  0  0  0  2  0  0  0  0  0  0
  160.9560  204.7840  151.8030 C   0  0  0  0  0  2  0  0  0  0  0  0
  161.9870  205.7370  152.1830 N   0  0  0  0  0  2  0  0  0  0  0  0
  161.3220  206.8410  152.8570 C   0  0  0  0  0  2  0  0  0  0  0  0
  161.0110  207.9500  151.8670 C   0  0  0  0  0  2  0  0  0  0  0  0
  161.4640  209.2260  152.3950 N   0  0  0  0  0  2  0  0  0  0  0  0
  160.4100  211.4030  152.3430 C   0  0  0  0  0  2  0  0  0  0  0  0
  160.6640  211.0310  153.7870 C   0  0  1  0  0  3  0  0  0  0  0  0
  159.4490  211.3910  154.6160 C   0  0  0  0  0  1  0  0  0  0  0  0
  160.2750  209.9620  152.7870 C   0  0  2  0  0  3  0  0  0  0  0  0
  1 12  1  6  0  0  0
  1 15  1  0  0  0  0
  2  7  1  0  0  0  0
  4  5  2  0  0  0  0
  5  6  1  0  0  0  0
  6  3  1  0  0  0  0
  7  3  1  0  0  0  0
  7  1  1  0  0  0  0
  8  5  1  0  0  0  0
  8  2  1  0  0  0  0
  9  7  1  0  0  0  0
 10  9  1  0  0  0  0
 12 11  2  0  0  0  0
 13 14  1  0  0  0  0
 13 12  1  0  0  0  0
 15 16  1  0  0  0  0
 16 17  1  0  0  0  0
 17 18  1  0  0  0  0
 18 19  1  0  0  0  0
 20 21  1  0  0  0  0
 20 19  1  0  0  0  0
 22 25  1  0  0  0  0
 22 23  1  0  0  0  0
 23 24  1  1  0  0  0
 25 21  1  6  0  0  0
 25 23  1  0  0  0  0
M  END
>  <MODEL>
8

>  <REMARK>
 VINA RESULT:      -5.4      1.927      3.113
  Name = 
  12 active torsions:
  status: ('A' for Active; 'I' for Inactive)
    1  A    between atoms: C_1  and  N_3
    2  A    between atoms: C_1  and  C_18
    3  A    between atoms: C_1  and  C_24
    4  A    between atoms: N_3  and  C_16
    5  A    between atoms: C_6  and  C_15
    6  A    between atoms: C_6  and  N_21
    7  A    between atoms: O_13  and  C_24
    8  A    between atoms: C_15  and  N_20
    9  A    between atoms: C_16  and  C_23
   10  A    between atoms: C_17  and  C_18
   11  A    between atoms: N_20  and  C_23
   12  A    between atoms: N_21  and  C_25
                            x       y       z     vdW  Elec       q    Type
                         _______ _______ _______ _____ _____    ______ ____

>  <TORSDO>
F 12

$$$$
=
 OpenBabel11052422213D

 25 26  0  0  1  0  0  0  0  0999 V2000
  161.4500  202.6460  147.8040 C   0  0  1  0  0  3  0  0  0  0  0  0
  160.6060  204.3510  149.4590 C   0  0  0  0  0  2  0  0  0  0  0  0
  161.9530  202.3730  150.2670 C   0  0  0  0  0  2  0  0  0  0  0  0
  161.5670  204.7540  152.7870 O   0  0  0  0  0  0  0  0  0  0  0  0
  161.1430  204.0850  151.8600 C   0  0  0  0  0  0  0  0  0  0  0  0
  161.5390  202.6520  151.7140 C   0  0  0  0  0  2  0  0  0  0  0  0
  160.9070  202.8520  149.2390 C   0  0  0  0  0  0  0  0  0  0  0  0
  160.1670  204.6690  150.8900 C   0  0  0  0  0  2  0  0  0  0  0  0
  159.6190  202.0330  149.4110 C   0  0  0  0  0  2  0  0  0  0  0  0
  159.8610  200.8570  150.1270 O   0  0  0  0  0  1  0  0  0  0  0  0
  161.5940  200.2910  147.4430 O   0  0  0  0  0  0  0  0  0  0  0  0
  160.9930  201.3640  147.1670 C   0  0  0  0  0  0  0  0  0  0  0  0
  159.9080  201.3680  146.2890 O   0  0  0  0  0  0  0  0  0  0  0  0
  160.0800  201.4800  144.8850 C   0  0  0  0  0  1  0  0  0  0  0  0
  161.1240  203.7770  146.9420 N   0  0  0  0  0  2  0  0  0  0  0  0
  162.3790  204.2890  146.4180 C   0  0  0  0  0  2  0  0  0  0  0  0
  162.3360  205.8040  146.3660 C   0  0  0  0  0  2  0  0  0  0  0  0
  160.9840  206.2700  146.6270 N   0  0  0  0  0  2  0  0  0  0  0  0
  161.0430  207.1210  147.8050 C   0  0  0  0  0  2  0  0  0  0  0  0
  162.4870  207.4520  148.1410 C   0  0  0  0  0  2  0  0  0  0  0  0
  162.7010  207.3320  149.5740 N   0  0  0  0  0  2  0  0  0  0  0  0
  161.9610  209.4130  150.5590 C   0  0  0  0  0  2  0  0  0  0  0  0
  161.9700  208.3520  151.6380 C   0  0  1  0  0  3  0  0  0  0  0  0
  160.7140  208.4800  152.4740 C   0  0  0  0  0  1  0  0  0  0  0  0
  161.5790  207.9880  150.2200 C   0  0  2  0  0  3  0  0  0  0  0  0
  1 15  1  6  0  0  0
  1  7  1  0  0  0  0
  2  8  1  0  0  0  0
  3  6  1  0  0  0  0
  5  4  2  0  0  0  0
  6  5  1  0  0  0  0
  7  9  1  0  0  0  0
  7  2  1  0  0  0  0
  7  3  1  0  0  0  0
  8  5  1  0  0  0  0
  9 10  1  0  0  0  0
 12 11  2  0  0  0  0
 12  1  1  0  0  0  0
 13 12  1  0  0  0  0
 14 13  1  0  0  0  0
 16 15  1  0  0  0  0
 17 16  1  0  0  0  0
 17 18  1  0  0  0  0
 18 19  1  0  0  0  0
 19 20  1  0  0  0  0
 20 21  1  0  0  0  0
 22 23  1  0  0  0  0
 23 24  1  1  0  0  0
 25 21  1  6  0  0  0
 25 22  1  0  0  0  0
 25 23  1  0  0  0  0
M  END
>  <MODEL>
9

>  <REMARK>
 VINA RESULT:      -5.3      2.915      5.584
  Name = 
  12 active torsions:
  status: ('A' for Active; 'I' for Inactive)
    1  A    between atoms: C_1  and  N_3
    2  A    between atoms: C_1  and  C_18
    3  A    between atoms: C_1  and  C_24
    4  A    between atoms: N_3  and  C_16
    5  A    between atoms: C_6  and  C_15
    6  A    between atoms: C_6  and  N_21
    7  A    between atoms: O_13  and  C_24
    8  A    between atoms: C_15  and  N_20
    9  A    between atoms: C_16  and  C_23
   10  A    between atoms: C_17  and  C_18
   11  A    between atoms: N_20  and  C_23
   12  A    between atoms: N_21  and  C_25
                            x       y       z     vdW  Elec       q    Type
                         _______ _______ _______ _____ _____    ______ ____

>  <TORSDO>
F 12

$$$$
