=
 OpenBabel11062410553D

 32 36  0  0  1  0  0  0  0  0999 V2000
  161.3430  209.2420  155.1940 C   0  0  2  0  0  3  0  0  0  0  0  0
  161.1480  206.2700  151.0550 C   0  0  0  0  0  0  0  0  0  0  0  0
  162.6230  210.0000  148.2940 O   0  0  0  0  0  0  0  0  0  0  0  0
  160.8760  203.7930  150.5270 C   0  0  0  0  0  0  0  0  0  0  0  0
  161.0860  202.6730  149.5990 C   0  0  0  0  0  0  0  0  0  0  0  0
  160.8380  207.1590  153.3060 C   0  0  0  0  0  0  0  0  0  0  0  0
  161.3210  208.6710  151.4810 C   0  0  0  0  0  3  0  0  0  0  0  0
  161.3850  200.5830  147.7970 C   0  0  0  0  0  3  0  0  0  0  0  0
  160.9230  209.6280  153.7680 C   0  0  0  0  0  2  0  0  0  0  0  0
  162.1510  208.9350  148.7120 C   0  0  0  0  0  0  0  0  0  0  0  0
  161.3740  207.5890  150.5870 C   0  0  0  0  0  0  0  0  0  0  0  0
  161.6520  207.8080  149.1520 C   0  0  0  0  0  0  0  0  0  0  0  0
  161.9060  205.3810  148.8330 C   0  0  2  0  0  3  0  0  0  0  0  0
  160.9920  200.3390  149.0760 N   0  0  0  0  0  0  0  0  0  0  0  0
  160.7420  207.9270  155.6170 C   0  0  0  0  0  3  0  0  0  0  0  0
  161.0650  208.4610  152.8340 C   0  0  0  0  0  0  0  0  0  0  0  0
  160.8340  201.3470  149.9760 C   0  0  0  0  0  3  0  0  0  0  0  0
  160.5520  206.9420  154.7330 C   0  0  0  0  0  3  0  0  0  0  0  0
  161.4370  206.6860  148.1910 C   0  0  1  0  0  3  0  0  0  0  0  0
  161.7340  204.2790  147.8860 N   0  0  0  0  0  2  0  0  0  0  0  0
  160.8810  206.0800  152.4220 C   0  0  0  0  0  3  0  0  0  0  0  0
  160.3520  203.5590  151.6500 O   0  0  0  0  0  0  0  0  0  0  0  0
  161.6410  201.8920  147.3800 C   0  0  0  0  0  3  0  0  0  0  0  0
  161.2340  205.1440  150.1350 N   0  0  0  0  0  0  0  0  0  0  0  0
  161.4990  202.9370  148.2950 C   0  0  0  0  0  0  0  0  0  0  0  0
  159.9470  206.4000  146.4090 C   0  0  0  0  0  1  0  0  0  0  0  0
  160.0240  206.5990  147.8460 N   0  0  0  0  0  2  0  0  0  0  0  0
  160.9550  210.3250  156.1840 C   0  0  0  0  0  2  0  0  0  0  0  0
  160.1030  211.3840  155.5040 C   0  0  0  0  0  2  0  0  0  0  0  0
  158.7070  211.3400  156.0300 C   0  0  0  0  0  0  0  0  0  0  0  0
  157.5590  211.2840  155.0820 C   0  0  0  0  0  1  0  0  0  0  0  0
  158.5000  211.3720  157.2320 O   0  0  0  0  0  0  0  0  0  0  0  0
  1 15  1  0  0  0  0
  1 28  1  1  0  0  0
  2 21  1  0  0  0  0
  3 10  2  0  0  0  0
  4 22  2  0  0  0  0
  5 17  1  0  0  0  0
  5  4  1  0  0  0  0
  6 18  1  0  0  0  0
  7 16  2  0  0  0  0
  8 14  1  0  0  0  0
  9  1  1  0  0  0  0
 10 12  2  0  0  0  0
 11  2  2  0  0  0  0
 11  7  1  0  0  0  0
 12 11  1  0  0  0  0
 13 20  1  6  0  0  0
 13 24  1  0  0  0  0
 14 17  2  0  0  0  0
 16  6  1  0  0  0  0
 16  9  1  0  0  0  0
 18 15  2  0  0  0  0
 19 27  1  1  0  0  0
 19 13  1  0  0  0  0
 19 12  1  0  0  0  0
 20 25  1  0  0  0  0
 21  6  2  0  0  0  0
 23  8  2  0  0  0  0
 23 25  1  0  0  0  0
 24  4  1  0  0  0  0
 24  2  1  0  0  0  0
 25  5  2  0  0  0  0
 26 27  1  0  0  0  0
 29 30  1  0  0  0  0
 29 28  1  0  0  0  0
 30 32  2  0  0  0  0
 31 30  1  0  0  0  0
M  END
>  <MODEL>
1

>  <REMARK>
 VINA RESULT:      -8.3      0.000      0.000
  Name = 
  4 active torsions:
  status: ('A' for Active; 'I' for Inactive)
    1  A    between atoms: C_1  and  C_10
    2  A    between atoms: C_2  and  C_24
    3  A    between atoms: C_10  and  C_24
    4  A    between atoms: N_25  and  C_26
                            x       y       z     vdW  Elec       q    Type
                         _______ _______ _______ _____ _____    ______ ____

>  <TORSDO>
F 4

$$$$
=
 OpenBabel11062410553D

 32 36  0  0  1  0  0  0  0  0999 V2000
  160.7050  201.7280  148.9850 C   0  0  2  0  0  3  0  0  0  0  0  0
  161.0500  206.0710  151.6350 C   0  0  0  0  0  0  0  0  0  0  0  0
  161.1520  208.6100  147.4810 O   0  0  0  0  0  0  0  0  0  0  0  0
  160.8180  206.8220  154.0580 C   0  0  0  0  0  0  0  0  0  0  0  0
  160.5450  207.8970  155.0220 C   0  0  0  0  0  0  0  0  0  0  0  0
  161.0800  203.7140  151.0030 C   0  0  0  0  0  0  0  0  0  0  0  0
  161.3800  205.4100  149.3050 C   0  0  0  0  0  3  0  0  0  0  0  0
  160.1390  209.9530  156.8420 C   0  0  0  0  0  3  0  0  0  0  0  0
  161.5010  202.9940  148.6330 C   0  0  0  0  0  2  0  0  0  0  0  0
  161.2510  208.2370  148.6570 C   0  0  0  0  0  0  0  0  0  0  0  0
  161.2580  206.4170  150.2760 C   0  0  0  0  0  0  0  0  0  0  0  0
  161.3540  207.8430  149.9000 C   0  0  0  0  0  0  0  0  0  0  0  0
  160.5920  208.4850  152.1510 C   0  0  2  0  0  3  0  0  0  0  0  0
  160.1780  208.6600  157.2610 N   0  0  0  0  0  0  0  0  0  0  0  0
  160.8640  201.3550  150.4360 C   0  0  0  0  0  3  0  0  0  0  0  0
  161.2820  204.0670  149.6600 C   0  0  0  0  0  0  0  0  0  0  0  0
  160.3800  207.6350  156.3890 C   0  0  0  0  0  3  0  0  0  0  0  0
  160.9920  202.2940  151.3780 C   0  0  0  0  0  3  0  0  0  0  0  0
  161.4900  208.8700  150.9760 C   0  0  1  0  0  3  0  0  0  0  0  0
  160.6890  209.5030  153.1970 N   0  0  0  0  0  2  0  0  0  0  0  0
  160.9650  204.7090  151.9750 C   0  0  0  0  0  3  0  0  0  0  0  0
  161.0170  205.6550  154.4920 O   0  0  0  0  0  0  0  0  0  0  0  0
  160.3040  210.2560  155.4880 C   0  0  0  0  0  3  0  0  0  0  0  0
  160.8910  207.1160  152.6380 N   0  0  0  0  0  0  0  0  0  0  0  0
  160.4970  209.2160  154.5770 C   0  0  0  0  0  0  0  0  0  0  0  0
  163.1250  210.3210  151.8130 C   0  0  0  0  0  1  0  0  0  0  0  0
  162.8800  208.9480  151.4080 N   0  0  0  0  0  2  0  0  0  0  0  0
  161.1240  200.5640  148.1070 C   0  0  0  0  0  2  0  0  0  0  0  0
  161.4680  201.0520  146.7090 C   0  0  0  0  0  2  0  0  0  0  0  0
  160.8220  200.1810  145.6840 C   0  0  0  0  0  0  0  0  0  0  0  0
  161.1860  198.7380  145.6020 C   0  0  0  0  0  1  0  0  0  0  0  0
  160.0140  200.6480  144.8980 O   0  0  0  0  0  0  0  0  0  0  0  0
  1 28  1  6  0  0  0
  1 15  1  0  0  0  0
  2 21  1  0  0  0  0
  2 24  1  0  0  0  0
  3 10  2  0  0  0  0
  4 22  2  0  0  0  0
  4  5  1  0  0  0  0
  5 17  1  0  0  0  0
  6 18  1  0  0  0  0
  6 21  2  0  0  0  0
  7 16  2  0  0  0  0
  7 11  1  0  0  0  0
  8 14  1  0  0  0  0
  9  1  1  0  0  0  0
  9 16  1  0  0  0  0
 10 12  2  0  0  0  0
 11  2  2  0  0  0  0
 12 11  1  0  0  0  0
 12 19  1  0  0  0  0
 13 24  1  0  0  0  0
 13 20  1  1  0  0  0
 15 18  2  0  0  0  0
 16  6  1  0  0  0  0
 17 14  2  0  0  0  0
 19 27  1  1  0  0  0
 19 13  1  0  0  0  0
 20 25  1  0  0  0  0
 23  8  2  0  0  0  0
 24  4  1  0  0  0  0
 25  5  2  0  0  0  0
 25 23  1  0  0  0  0
 27 26  1  0  0  0  0
 29 28  1  0  0  0  0
 30 29  1  0  0  0  0
 31 30  1  0  0  0  0
 32 30  2  0  0  0  0
M  END
>  <MODEL>
2

>  <REMARK>
 VINA RESULT:      -7.4      2.685      8.542
  Name = 
  4 active torsions:
  status: ('A' for Active; 'I' for Inactive)
    1  A    between atoms: C_1  and  C_10
    2  A    between atoms: C_2  and  C_24
    3  A    between atoms: C_10  and  C_24
    4  A    between atoms: N_25  and  C_26
                            x       y       z     vdW  Elec       q    Type
                         _______ _______ _______ _____ _____    ______ ____

>  <TORSDO>
F 4

$$$$
=
 OpenBabel11062410553D

 32 36  0  0  1  0  0  0  0  0999 V2000
  160.8100  203.3700  147.4580 C   0  0  2  0  0  3  0  0  0  0  0  0
  161.1620  206.8280  151.1880 C   0  0  0  0  0  0  0  0  0  0  0  0
  161.5710  210.3740  147.8760 O   0  0  0  0  0  0  0  0  0  0  0  0
  160.8270  206.9170  153.7120 C   0  0  0  0  0  0  0  0  0  0  0  0
  160.5400  207.7070  154.9170 C   0  0  0  0  0  0  0  0  0  0  0  0
  161.1440  204.7260  149.9490 C   0  0  0  0  0  0  0  0  0  0  0  0
  161.5920  206.7970  148.7820 C   0  0  0  0  0  3  0  0  0  0  0  0
  160.1080  209.2210  157.2030 C   0  0  0  0  0  3  0  0  0  0  0  0
  161.6660  204.6440  147.4920 C   0  0  0  0  0  2  0  0  0  0  0  0
  161.5940  209.6970  148.9120 C   0  0  0  0  0  0  0  0  0  0  0  0
  161.4530  207.5130  149.9820 C   0  0  0  0  0  0  0  0  0  0  0  0
  161.6180  208.9820  150.0070 C   0  0  0  0  0  0  0  0  0  0  0  0
  160.7590  209.0360  152.3140 C   0  0  2  0  0  3  0  0  0  0  0  0
  160.0810  207.8630  157.2610 N   0  0  0  0  0  0  0  0  0  0  0  0
  160.8780  202.6160  148.7610 C   0  0  0  0  0  3  0  0  0  0  0  0
  161.4300  205.4140  148.7590 C   0  0  0  0  0  0  0  0  0  0  0  0
  160.2940  207.0990  156.1550 C   0  0  0  0  0  3  0  0  0  0  0  0
  160.9880  203.2630  149.9250 C   0  0  0  0  0  3  0  0  0  0  0  0
  161.7310  209.6770  151.3240 C   0  0  1  0  0  3  0  0  0  0  0  0
  160.8360  209.7330  153.5970 N   0  0  0  0  0  2  0  0  0  0  0  0
  161.0130  205.4310  151.1460 C   0  0  0  0  0  3  0  0  0  0  0  0
  160.9620  205.6680  153.8250 O   0  0  0  0  0  0  0  0  0  0  0  0
  160.3550  209.8660  155.9880 C   0  0  0  0  0  3  0  0  0  0  0  0
  160.9860  207.5740  152.4270 N   0  0  0  0  0  0  0  0  0  0  0  0
  160.5610  209.0980  154.8400 C   0  0  0  0  0  0  0  0  0  0  0  0
  163.2930  210.6530  152.7690 C   0  0  0  0  0  1  0  0  0  0  0  0
  163.0980  209.5720  151.8190 N   0  0  0  0  0  2  0  0  0  0  0  0
  161.2350  202.4630  146.3180 C   0  0  0  0  0  2  0  0  0  0  0  0
  161.2000  201.0080  146.7570 C   0  0  0  0  0  2  0  0  0  0  0  0
  160.7770  200.1360  145.6220 C   0  0  0  0  0  0  0  0  0  0  0  0
  161.2160  198.7140  145.5780 C   0  0  0  0  0  1  0  0  0  0  0  0
  160.0930  200.5890  144.7180 O   0  0  0  0  0  0  0  0  0  0  0  0
  1 28  1  6  0  0  0
  1  9  1  0  0  0  0
  1 15  1  0  0  0  0
  2 24  1  0  0  0  0
  3 10  2  0  0  0  0
  4 22  2  0  0  0  0
  4  5  1  0  0  0  0
  5 17  1  0  0  0  0
  6 21  2  0  0  0  0
  7 11  1  0  0  0  0
  8 14  1  0  0  0  0
  9 16  1  0  0  0  0
 10 12  2  0  0  0  0
 11 12  1  0  0  0  0
 11  2  2  0  0  0  0
 12 19  1  0  0  0  0
 13 24  1  0  0  0  0
 13 20  1  1  0  0  0
 15 18  2  0  0  0  0
 16  7  2  0  0  0  0
 16  6  1  0  0  0  0
 17 14  2  0  0  0  0
 18  6  1  0  0  0  0
 19 27  1  1  0  0  0
 19 13  1  0  0  0  0
 20 25  1  0  0  0  0
 21  2  1  0  0  0  0
 23  8  2  0  0  0  0
 24  4  1  0  0  0  0
 25  5  2  0  0  0  0
 25 23  1  0  0  0  0
 27 26  1  0  0  0  0
 28 29  1  0  0  0  0
 30 29  1  0  0  0  0
 31 30  1  0  0  0  0
 32 30  2  0  0  0  0
M  END
>  <MODEL>
3

>  <REMARK>
 VINA RESULT:      -6.9      2.747      8.554
  Name = 
  4 active torsions:
  status: ('A' for Active; 'I' for Inactive)
    1  A    between atoms: C_1  and  C_10
    2  A    between atoms: C_2  and  C_24
    3  A    between atoms: C_10  and  C_24
    4  A    between atoms: N_25  and  C_26
                            x       y       z     vdW  Elec       q    Type
                         _______ _______ _______ _____ _____    ______ ____

>  <TORSDO>
F 4

$$$$
=
 OpenBabel11062410553D

 32 36  0  0  1  0  0  0  0  0999 V2000
  160.8450  203.5520  147.5080 C   0  0  2  0  0  3  0  0  0  0  0  0
  161.1520  207.0450  151.2100 C   0  0  0  0  0  0  0  0  0  0  0  0
  161.5920  210.5610  147.8700 O   0  0  0  0  0  0  0  0  0  0  0  0
  160.7900  207.1560  153.7290 C   0  0  0  0  0  0  0  0  0  0  0  0
  160.4890  207.9570  154.9240 C   0  0  0  0  0  0  0  0  0  0  0  0
  161.1500  204.9310  149.9900 C   0  0  0  0  0  0  0  0  0  0  0  0
  161.6080  206.9920  148.8090 C   0  0  0  0  0  3  0  0  0  0  0  0
  160.0300  209.4910  157.1910 C   0  0  0  0  0  3  0  0  0  0  0  0
  161.6980  204.8280  147.5400 C   0  0  0  0  0  2  0  0  0  0  0  0
  161.6050  209.8930  148.9120 C   0  0  0  0  0  0  0  0  0  0  0  0
  161.4550  207.7190  150.0010 C   0  0  0  0  0  0  0  0  0  0  0  0
  161.6180  209.1880  150.0140 C   0  0  0  0  0  0  0  0  0  0  0  0
  160.7340  209.2620  152.3110 C   0  0  2  0  0  3  0  0  0  0  0  0
  160.0040  208.1340  157.2610 N   0  0  0  0  0  0  0  0  0  0  0  0
  160.9000  202.8100  148.8190 C   0  0  0  0  0  3  0  0  0  0  0  0
  161.4480  205.6080  148.7970 C   0  0  0  0  0  0  0  0  0  0  0  0
  160.2310  207.3600  156.1650 C   0  0  0  0  0  3  0  0  0  0  0  0
  160.9970  203.4680  149.9780 C   0  0  0  0  0  3  0  0  0  0  0  0
  161.7160  209.8960  151.3260 C   0  0  1  0  0  3  0  0  0  0  0  0
  160.7960  209.9710  153.5890 N   0  0  0  0  0  2  0  0  0  0  0  0
  161.0050  205.6470  151.1790 C   0  0  0  0  0  3  0  0  0  0  0  0
  160.9260  205.9080  153.8550 O   0  0  0  0  0  0  0  0  0  0  0  0
  160.2900  210.1250  155.9730 C   0  0  0  0  0  3  0  0  0  0  0  0
  160.9620  207.8020  152.4400 N   0  0  0  0  0  0  0  0  0  0  0  0
  160.5090  209.3470  154.8350 C   0  0  0  0  0  0  0  0  0  0  0  0
  163.1370  210.5910  153.0510 C   0  0  0  0  0  1  0  0  0  0  0  0
  163.0780  209.7970  151.8360 N   0  0  0  0  0  2  0  0  0  0  0  0
  161.2830  202.6350  146.3810 C   0  0  0  0  0  2  0  0  0  0  0  0
  161.7980  203.4500  145.2060 C   0  0  0  0  0  2  0  0  0  0  0  0
  160.6870  204.2390  144.5980 C   0  0  0  0  0  0  0  0  0  0  0  0
  160.8200  205.7150  144.4530 C   0  0  0  0  0  1  0  0  0  0  0  0
  159.6610  203.6840  144.2400 O   0  0  0  0  0  0  0  0  0  0  0  0
  1 28  1  6  0  0  0
  1  9  1  0  0  0  0
  1 15  1  0  0  0  0
  2 24  1  0  0  0  0
  3 10  2  0  0  0  0
  4 22  2  0  0  0  0
  4  5  1  0  0  0  0
  5 17  1  0  0  0  0
  6 21  2  0  0  0  0
  7 11  1  0  0  0  0
  8 14  1  0  0  0  0
  9 16  1  0  0  0  0
 10 12  2  0  0  0  0
 11 12  1  0  0  0  0
 11  2  2  0  0  0  0
 12 19  1  0  0  0  0
 13 24  1  0  0  0  0
 13 20  1  1  0  0  0
 15 18  2  0  0  0  0
 16  7  2  0  0  0  0
 16  6  1  0  0  0  0
 17 14  2  0  0  0  0
 18  6  1  0  0  0  0
 19 27  1  1  0  0  0
 19 13  1  0  0  0  0
 20 25  1  0  0  0  0
 21  2  1  0  0  0  0
 23  8  2  0  0  0  0
 24  4  1  0  0  0  0
 25  5  2  0  0  0  0
 25 23  1  0  0  0  0
 27 26  1  0  0  0  0
 29 28  1  0  0  0  0
 30 29  1  0  0  0  0
 31 30  1  0  0  0  0
 32 30  2  0  0  0  0
M  END
>  <MODEL>
4

>  <REMARK>
 VINA RESULT:      -6.5      2.814      8.180
  Name = 
  4 active torsions:
  status: ('A' for Active; 'I' for Inactive)
    1  A    between atoms: C_1  and  C_10
    2  A    between atoms: C_2  and  C_24
    3  A    between atoms: C_10  and  C_24
    4  A    between atoms: N_25  and  C_26
                            x       y       z     vdW  Elec       q    Type
                         _______ _______ _______ _____ _____    ______ ____

>  <TORSDO>
F 4

$$$$
