=
 OpenBabel11052422173D

 25 29  0  0  1  0  0  0  0  0999 V2000
  161.2290  206.5270  151.5500 N   0  0  0  0  0  0  0  0  0  0  0  0
  160.6290  207.7620  152.0530 C   0  0  2  0  0  3  0  0  0  0  0  0
  161.2930  205.5510  153.7120 N   0  0  0  0  0  0  0  0  0  0  0  0
  161.1500  206.0600  150.2110 C   0  0  0  0  0  0  0  0  0  0  0  0
  162.0960  209.4880  151.8100 N   0  0  0  0  0  0  0  0  0  0  0  0
  160.9990  204.8780  147.6960 C   0  0  0  0  0  3  0  0  0  0  0  0
  161.1610  206.8570  154.2980 C   0  0  0  0  0  3  0  0  0  0  0  0
  161.2900  204.6870  150.0800 C   0  0  0  0  0  0  0  0  0  0  0  0
  161.2130  204.0770  148.8260 C   0  0  0  0  0  3  0  0  0  0  0  0
  161.0840  209.3290  154.0010 C   0  0  2  0  0  0  0  0  0  0  0  0
  160.3010  209.8690  155.1270 C   0  0  0  0  0  2  0  0  0  0  0  0
  160.9810  208.9020  151.2710 O   0  0  0  0  0  0  0  0  0  0  0  0
  160.8570  206.2690  147.8280 C   0  0  0  0  0  3  0  0  0  0  0  0
  161.3600  205.4060  152.4220 C   0  0  0  0  0  0  0  0  0  0  0  0
  161.5250  203.8050  151.6260 S   0  0  0  0  0  0  0  0  0  0  0  0
  161.6420  209.4480  155.2850 O   0  0  0  0  0  0  0  0  0  0  0  0
  160.9290  206.8690  149.0920 C   0  0  0  0  0  3  0  0  0  0  0  0
  161.7050  210.2750  152.9900 C   0  0  0  0  0  2  0  0  0  0  0  0
  160.8740  207.9260  153.5390 C   0  0  0  0  0  0  0  0  0  0  0  0
  162.6930  210.3790  150.8120 C   0  0  0  0  0  2  0  0  0  0  0  0
  161.8230  210.5630  149.5630 C   0  0  2  0  0  3  0  0  0  0  0  0
  162.2630  209.7280  148.5260 O   0  0  0  0  0  1  0  0  0  0  0  0
  161.8010  211.9720  149.1520 N   0  0  0  0  0  0  0  0  0  0  0  0
  160.7610  212.6470  149.9090 C   0  0  0  0  0  1  0  0  0  0  0  0
  161.4600  212.0930  147.7390 C   0  0  0  0  0  1  0  0  0  0  0  0
  1  2  1  0  0  0  0
  1 14  1  0  0  0  0
  2 12  1  6  0  0  0
  2 19  1  0  0  0  0
  3  7  1  0  0  0  0
  4  1  1  0  0  0  0
  5 18  1  0  0  0  0
  6 13  2  0  0  0  0
  6  9  1  0  0  0  0
  8  4  1  0  0  0  0
  8 15  1  0  0  0  0
  9  8  2  0  0  0  0
 10 18  1  6  0  0  0
 10 11  1  0  0  0  0
 10 16  1  0  0  0  0
 11 16  1  0  0  0  0
 12  5  1  0  0  0  0
 13 17  1  0  0  0  0
 14  3  2  0  0  0  0
 15 14  1  0  0  0  0
 17  4  2  0  0  0  0
 19 10  1  0  0  0  0
 19  7  2  0  0  0  0
 20  5  1  0  0  0  0
 21 22  1  6  0  0  0
 21 20  1  0  0  0  0
 23 21  1  0  0  0  0
 23 24  1  0  0  0  0
 25 23  1  0  0  0  0
M  END
>  <MODEL>
1

>  <REMARK>
 VINA RESULT:      -7.5      0.000      0.000
  Name = 
  3 active torsions:
  status: ('A' for Active; 'I' for Inactive)
    1  A    between atoms: N_2  and  C_21
    2  A    between atoms: N_6  and  C_15
    3  A    between atoms: C_15  and  C_21
                            x       y       z     vdW  Elec       q    Type
                         _______ _______ _______ _____ _____    ______ ____

>  <TORSDO>
F 3

$$$$
=
 OpenBabel11052422173D

 25 29  0  0  1  0  0  0  0  0999 V2000
  161.2580  204.4410  150.5190 N   0  0  0  0  0  0  0  0  0  0  0  0
  160.7140  205.7750  150.2670 C   0  0  2  0  0  3  0  0  0  0  0  0
  161.6250  204.9080  152.8170 N   0  0  0  0  0  0  0  0  0  0  0  0
  161.0080  203.2880  149.7290 C   0  0  0  0  0  0  0  0  0  0  0  0
  162.1120  206.9310  148.8880 N   0  0  0  0  0  0  0  0  0  0  0  0
  160.5380  200.8740  148.4250 C   0  0  0  0  0  3  0  0  0  0  0  0
  161.5540  206.3160  152.5350 C   0  0  0  0  0  3  0  0  0  0  0  0
  161.1480  202.0900  150.4140 C   0  0  0  0  0  0  0  0  0  0  0  0
  160.9120  200.8710  149.7760 C   0  0  0  0  0  3  0  0  0  0  0  0
  161.4040  208.1490  150.8550 C   0  0  2  0  0  0  0  0  0  0  0  0
  160.7710  209.2950  151.5310 C   0  0  0  0  0  2  0  0  0  0  0  0
  160.9420  206.2180  148.9300 O   0  0  0  0  0  0  0  0  0  0  0  0
  160.3950  202.0860  147.7310 C   0  0  0  0  0  3  0  0  0  0  0  0
  161.5210  204.0330  151.8600 C   0  0  0  0  0  0  0  0  0  0  0  0
  161.6000  202.2620  152.1430 S   0  0  0  0  0  0  0  0  0  0  0  0
  162.1270  208.9560  151.7490 O   0  0  0  0  0  0  0  0  0  0  0  0
  160.6280  203.3050  148.3840 C   0  0  0  0  0  3  0  0  0  0  0  0
  161.8710  208.2830  149.4170 C   0  0  0  0  0  2  0  0  0  0  0  0
  161.1540  206.7580  151.3330 C   0  0  0  0  0  0  0  0  0  0  0  0
  162.5570  207.0300  147.4960 C   0  0  0  0  0  2  0  0  0  0  0  0
  162.2490  205.7770  146.6680 C   0  0  2  0  0  3  0  0  0  0  0  0
  163.4100  205.0160  146.4710 O   0  0  0  0  0  1  0  0  0  0  0  0
  161.6170  206.1420  145.3950 N   0  0  0  0  0  0  0  0  0  0  0  0
  160.1890  206.2830  145.6230 C   0  0  0  0  0  1  0  0  0  0  0  0
  161.7980  205.0850  144.4070 C   0  0  0  0  0  1  0  0  0  0  0  0
  1 14  1  0  0  0  0
  2 12  1  6  0  0  0
  2  1  1  0  0  0  0
  2 19  1  0  0  0  0
  4  8  1  0  0  0  0
  4  1  1  0  0  0  0
  5 12  1  0  0  0  0
  5 18  1  0  0  0  0
  6  9  1  0  0  0  0
  7  3  1  0  0  0  0
  8 15  1  0  0  0  0
  9  8  2  0  0  0  0
 10 18  1  6  0  0  0
 10 19  1  0  0  0  0
 10 11  1  0  0  0  0
 10 16  1  0  0  0  0
 11 16  1  0  0  0  0
 13 17  1  0  0  0  0
 13  6  2  0  0  0  0
 14 15  1  0  0  0  0
 14  3  2  0  0  0  0
 17  4  2  0  0  0  0
 19  7  2  0  0  0  0
 20  5  1  0  0  0  0
 21 22  1  6  0  0  0
 21 20  1  0  0  0  0
 23 24  1  0  0  0  0
 23 21  1  0  0  0  0
 25 23  1  0  0  0  0
M  END
>  <MODEL>
2

>  <REMARK>
 VINA RESULT:      -7.1      2.618      4.166
  Name = 
  3 active torsions:
  status: ('A' for Active; 'I' for Inactive)
    1  A    between atoms: N_2  and  C_21
    2  A    between atoms: N_6  and  C_15
    3  A    between atoms: C_15  and  C_21
                            x       y       z     vdW  Elec       q    Type
                         _______ _______ _______ _____ _____    ______ ____

>  <TORSDO>
F 3

$$$$
=
 OpenBabel11052422173D

 25 29  0  0  1  0  0  0  0  0999 V2000
  161.4240  206.0640  150.1080 N   0  0  0  0  0  0  0  0  0  0  0  0
  162.2130  206.9990  150.9090 C   0  0  2  0  0  3  0  0  0  0  0  0
  161.4760  207.4830  148.2060 N   0  0  0  0  0  0  0  0  0  0  0  0
  161.3060  204.6700  150.3500 C   0  0  0  0  0  0  0  0  0  0  0  0
  160.9390  207.8290  152.6060 N   0  0  0  0  0  0  0  0  0  0  0  0
  161.0530  201.9050  150.5390 C   0  0  0  0  0  3  0  0  0  0  0  0
  161.8200  208.5930  149.0520 C   0  0  0  0  0  3  0  0  0  0  0  0
  160.9950  203.9230  149.2240 C   0  0  0  0  0  0  0  0  0  0  0  0
  160.8680  202.5350  149.3000 C   0  0  0  0  0  3  0  0  0  0  0  0
  162.1520  209.5020  151.3480 C   0  0  2  0  0  0  0  0  0  0  0  0
  163.1070  210.6180  151.2300 C   0  0  0  0  0  2  0  0  0  0  0  0
  161.9160  206.9170  152.3020 O   0  0  0  0  0  0  0  0  0  0  0  0
  161.3680  202.6600  151.6800 C   0  0  0  0  0  3  0  0  0  0  0  0
  161.2560  206.3060  148.7120 C   0  0  0  0  0  0  0  0  0  0  0  0
  160.8240  204.8780  147.7130 S   0  0  0  0  0  0  0  0  0  0  0  0
  161.7500  210.7540  150.8540 O   0  0  0  0  0  0  0  0  0  0  0  0
  161.5000  204.0530  151.5900 C   0  0  0  0  0  3  0  0  0  0  0  0
  161.5410  209.1680  152.6960 C   0  0  0  0  0  2  0  0  0  0  0  0
  162.1470  208.4020  150.3390 C   0  0  0  0  0  0  0  0  0  0  0  0
  160.3470  207.4770  153.8990 C   0  0  0  0  0  2  0  0  0  0  0  0
  160.8300  208.3670  155.0510 C   0  0  2  0  0  3  0  0  0  0  0  0
  161.7690  207.6880  155.8400 O   0  0  0  0  0  1  0  0  0  0  0  0
  159.6920  208.8410  155.8480 N   0  0  0  0  0  0  0  0  0  0  0  0
  159.3630  210.1870  155.4100 C   0  0  0  0  0  1  0  0  0  0  0  0
  160.0490  208.9180  157.2610 C   0  0  0  0  0  1  0  0  0  0  0  0
  1  4  1  0  0  0  0
  1  2  1  0  0  0  0
  2 19  1  6  0  0  0
  2 12  1  0  0  0  0
  3 14  2  0  0  0  0
  3  7  1  0  0  0  0
  4 17  1  0  0  0  0
  5 18  1  0  0  0  0
  5 20  1  0  0  0  0
  6 13  1  0  0  0  0
  7 19  2  0  0  0  0
  8  9  1  0  0  0  0
  8  4  2  0  0  0  0
  9  6  2  0  0  0  0
 10 11  1  1  0  0  0
 10 18  1  0  0  0  0
 12  5  1  0  0  0  0
 14  1  1  0  0  0  0
 15 14  1  0  0  0  0
 15  8  1  0  0  0  0
 16 11  1  0  0  0  0
 16 10  1  0  0  0  0
 17 13  2  0  0  0  0
 19 10  1  0  0  0  0
 20 21  1  0  0  0  0
 21 22  1  1  0  0  0
 21 23  1  0  0  0  0
 23 25  1  0  0  0  0
 24 23  1  0  0  0  0
M  END
>  <MODEL>
3

>  <REMARK>
 VINA RESULT:      -7.0      2.144      4.748
  Name = 
  3 active torsions:
  status: ('A' for Active; 'I' for Inactive)
    1  A    between atoms: N_2  and  C_21
    2  A    between atoms: N_6  and  C_15
    3  A    between atoms: C_15  and  C_21
                            x       y       z     vdW  Elec       q    Type
                         _______ _______ _______ _____ _____    ______ ____

>  <TORSDO>
F 3

$$$$
=
 OpenBabel11052422173D

 25 29  0  0  1  0  0  0  0  0999 V2000
  161.3820  207.0600  150.1700 N   0  0  0  0  0  0  0  0  0  0  0  0
  160.6220  206.3550  149.1380 C   0  0  2  0  0  3  0  0  0  0  0  0
  161.9480  208.8320  148.6970 N   0  0  0  0  0  0  0  0  0  0  0  0
  161.2100  206.8990  151.5710 C   0  0  0  0  0  0  0  0  0  0  0  0
  161.6610  204.3960  148.6150 N   0  0  0  0  0  0  0  0  0  0  0  0
  160.9470  206.8630  154.3410 C   0  0  0  0  0  3  0  0  0  0  0  0
  161.6380  207.9890  147.5740 C   0  0  0  0  0  3  0  0  0  0  0  0
  161.6050  207.9980  152.3200 C   0  0  0  0  0  0  0  0  0  0  0  0
  161.4770  207.9980  153.7100 C   0  0  0  0  0  3  0  0  0  0  0  0
  161.0220  205.7370  146.7060 C   0  0  2  0  0  0  0  0  0  0  0  0
  160.3130  205.9510  145.4320 C   0  0  0  0  0  2  0  0  0  0  0  0
  160.6220  204.9410  149.3230 O   0  0  0  0  0  0  0  0  0  0  0  0
  160.5470  205.7510  153.5830 C   0  0  0  0  0  3  0  0  0  0  0  0
  161.8590  208.3790  149.9120 C   0  0  0  0  0  0  0  0  0  0  0  0
  162.2300  209.3780  151.3570 S   0  0  0  0  0  0  0  0  0  0  0  0
  161.7200  206.0570  145.5290 O   0  0  0  0  0  0  0  0  0  0  0  0
  160.6750  205.7650  152.1870 C   0  0  0  0  0  3  0  0  0  0  0  0
  161.2890  204.3250  147.1940 C   0  0  0  0  0  2  0  0  0  0  0  0
  161.0370  206.8020  147.7500 C   0  0  0  0  0  0  0  0  0  0  0  0
  161.9180  203.0440  149.1150 C   0  0  0  0  0  2  0  0  0  0  0  0
  160.8400  202.5370  150.0810 C   0  0  2  0  0  3  0  0  0  0  0  0
  161.3260  202.5100  151.3950 O   0  0  0  0  0  1  0  0  0  0  0  0
  160.3460  201.2200  149.6580 N   0  0  0  0  0  0  0  0  0  0  0  0
  161.2120  200.7320  148.5980 C   0  0  0  0  0  1  0  0  0  0  0  0
  159.0000  201.3270  149.1070 C   0  0  0  0  0  1  0  0  0  0  0  0
  1  4  1  0  0  0  0
  2 19  1  6  0  0  0
  2 12  1  0  0  0  0
  2  1  1  0  0  0  0
  3 14  2  0  0  0  0
  4 17  2  0  0  0  0
  4  8  1  0  0  0  0
  5 20  1  0  0  0  0
  5 12  1  0  0  0  0
  7 19  2  0  0  0  0
  7  3  1  0  0  0  0
  8  9  2  0  0  0  0
  9  6  1  0  0  0  0
 10 11  1  6  0  0  0
 10 18  1  0  0  0  0
 10 19  1  0  0  0  0
 11 16  1  0  0  0  0
 13  6  2  0  0  0  0
 14  1  1  0  0  0  0
 14 15  1  0  0  0  0
 15  8  1  0  0  0  0
 16 10  1  0  0  0  0
 17 13  1  0  0  0  0
 18  5  1  0  0  0  0
 20 21  1  0  0  0  0
 21 22  1  1  0  0  0
 23 21  1  0  0  0  0
 24 23  1  0  0  0  0
 25 23  1  0  0  0  0
M  END
>  <MODEL>
4

>  <REMARK>
 VINA RESULT:      -6.9      3.093      7.225
  Name = 
  3 active torsions:
  status: ('A' for Active; 'I' for Inactive)
    1  A    between atoms: N_2  and  C_21
    2  A    between atoms: N_6  and  C_15
    3  A    between atoms: C_15  and  C_21
                            x       y       z     vdW  Elec       q    Type
                         _______ _______ _______ _____ _____    ______ ____

>  <TORSDO>
F 3

$$$$
=
 OpenBabel11052422173D

 25 29  0  0  1  0  0  0  0  0999 V2000
  161.1800  204.2880  149.2930 N   0  0  0  0  0  0  0  0  0  0  0  0
  160.6290  205.2700  150.2270 C   0  0  2  0  0  3  0  0  0  0  0  0
  161.1060  202.5500  150.9080 N   0  0  0  0  0  0  0  0  0  0  0  0
  161.1300  204.3820  147.8770 C   0  0  0  0  0  0  0  0  0  0  0  0
  162.1970  206.8550  150.6960 N   0  0  0  0  0  0  0  0  0  0  0  0
  161.0140  204.2770  145.0980 C   0  0  0  0  0  3  0  0  0  0  0  0
  161.0210  203.5340  151.9530 C   0  0  0  0  0  3  0  0  0  0  0  0
  161.1990  203.1600  147.2260 C   0  0  0  0  0  0  0  0  0  0  0  0
  161.1390  203.0890  145.8330 C   0  0  0  0  0  3  0  0  0  0  0  0
  161.0920  205.9280  152.6380 C   0  0  2  0  0  0  0  0  0  0  0  0
  160.2950  206.0410  153.8720 C   0  0  0  0  0  2  0  0  0  0  0  0
  161.0740  206.5970  149.9550 O   0  0  0  0  0  0  0  0  0  0  0  0
  160.9430  205.5140  145.7580 C   0  0  0  0  0  3  0  0  0  0  0  0
  161.2160  202.9110  149.6640 C   0  0  0  0  0  0  0  0  0  0  0  0
  161.3240  201.7350  148.3110 S   0  0  0  0  0  0  0  0  0  0  0  0
  161.6040  205.5050  153.8760 O   0  0  0  0  0  0  0  0  0  0  0  0
  160.9980  205.5730  147.1570 C   0  0  0  0  0  3  0  0  0  0  0  0
  161.8030  207.1480  152.0830 C   0  0  0  0  0  2  0  0  0  0  0  0
  160.8240  204.8300  151.6640 C   0  0  0  0  0  0  0  0  0  0  0  0
  162.8820  208.0210  150.1320 C   0  0  0  0  0  2  0  0  0  0  0  0
  161.9210  209.1040  149.6270 C   0  0  2  0  0  3  0  0  0  0  0  0
  161.9170  209.1480  148.2260 O   0  0  0  0  0  1  0  0  0  0  0  0
  162.2610  210.4080  150.2100 N   0  0  0  0  0  0  0  0  0  0  0  0
  161.4030  210.6260  151.3610 C   0  0  0  0  0  1  0  0  0  0  0  0
  161.9970  211.4830  149.2590 C   0  0  0  0  0  1  0  0  0  0  0  0
  1 14  1  0  0  0  0
  1  2  1  0  0  0  0
  2 12  1  1  0  0  0
  2 19  1  0  0  0  0
  3  7  1  0  0  0  0
  4  1  1  0  0  0  0
  5 18  1  0  0  0  0
  6 13  2  0  0  0  0
  6  9  1  0  0  0  0
  8  4  1  0  0  0  0
  8 15  1  0  0  0  0
  9  8  2  0  0  0  0
 10 18  1  6  0  0  0
 10 11  1  0  0  0  0
 10 16  1  0  0  0  0
 11 16  1  0  0  0  0
 12  5  1  0  0  0  0
 13 17  1  0  0  0  0
 14  3  2  0  0  0  0
 15 14  1  0  0  0  0
 17  4  2  0  0  0  0
 19  7  2  0  0  0  0
 19 10  1  0  0  0  0
 20  5  1  0  0  0  0
 21 22  1  6  0  0  0
 21 20  1  0  0  0  0
 21 23  1  0  0  0  0
 23 24  1  0  0  0  0
 25 23  1  0  0  0  0
M  END
>  <MODEL>
5

>  <REMARK>
 VINA RESULT:      -6.7      2.164      3.076
  Name = 
  3 active torsions:
  status: ('A' for Active; 'I' for Inactive)
    1  A    between atoms: N_2  and  C_21
    2  A    between atoms: N_6  and  C_15
    3  A    between atoms: C_15  and  C_21
                            x       y       z     vdW  Elec       q    Type
                         _______ _______ _______ _____ _____    ______ ____

>  <TORSDO>
F 3

$$$$
=
 OpenBabel11052422173D

 25 29  0  0  1  0  0  0  0  0999 V2000
  161.2280  205.4280  148.6400 N   0  0  0  0  0  0  0  0  0  0  0  0
  160.6390  206.5100  149.4270 C   0  0  2  0  0  3  0  0  0  0  0  0
  161.4550  204.0240  150.5400 N   0  0  0  0  0  0  0  0  0  0  0  0
  161.0700  205.2490  147.2400 C   0  0  0  0  0  0  0  0  0  0  0  0
  162.0530  208.2960  149.4650 N   0  0  0  0  0  0  0  0  0  0  0  0
  160.7750  204.6150  144.5460 C   0  0  0  0  0  3  0  0  0  0  0  0
  161.3370  205.1740  151.3950 C   0  0  0  0  0  3  0  0  0  0  0  0
  161.2280  203.9390  146.8140 C   0  0  0  0  0  0  0  0  0  0  0  0
  161.0800  203.6030  145.4670 C   0  0  0  0  0  3  0  0  0  0  0  0
  161.1920  207.6490  151.6310 C   0  0  2  0  0  0  0  0  0  0  0  0
  160.4750  207.9160  152.8900 C   0  0  0  0  0  2  0  0  0  0  0  0
  160.9160  207.7990  148.8840 O   0  0  0  0  0  0  0  0  0  0  0  0
  160.6150  205.9420  144.9760 C   0  0  0  0  0  3  0  0  0  0  0  0
  161.4390  204.1540  149.2460 C   0  0  0  0  0  0  0  0  0  0  0  0
  161.5820  202.7610  148.1220 S   0  0  0  0  0  0  0  0  0  0  0  0
  161.8320  207.5160  152.8740 O   0  0  0  0  0  0  0  0  0  0  0  0
  160.7600  206.2660  146.3330 C   0  0  0  0  0  3  0  0  0  0  0  0
  161.7260  208.8060  150.8050 C   0  0  0  0  0  2  0  0  0  0  0  0
  160.9790  206.3670  150.8970 C   0  0  0  0  0  0  0  0  0  0  0  0
  162.5650  209.3950  148.6430 C   0  0  0  0  0  2  0  0  0  0  0  0
  161.6240  210.6040  148.5880 C   0  0  2  0  0  3  0  0  0  0  0  0
  161.0160  210.7020  147.3290 O   0  0  0  0  0  1  0  0  0  0  0  0
  162.3430  211.8350  148.9410 N   0  0  0  0  0  0  0  0  0  0  0  0
  161.3710  212.9090  149.0530 C   0  0  0  0  0  1  0  0  0  0  0  0
  163.2810  212.2040  147.8860 C   0  0  0  0  0  1  0  0  0  0  0  0
  1 14  1  0  0  0  0
  1  2  1  0  0  0  0
  2 12  1  6  0  0  0
  2 19  1  0  0  0  0
  3  7  1  0  0  0  0
  4  1  1  0  0  0  0
  5 18  1  0  0  0  0
  6 13  2  0  0  0  0
  6  9  1  0  0  0  0
  8  4  1  0  0  0  0
  8 15  1  0  0  0  0
  9  8  2  0  0  0  0
 10 18  1  6  0  0  0
 10 16  1  0  0  0  0
 10 11  1  0  0  0  0
 12  5  1  0  0  0  0
 13 17  1  0  0  0  0
 14  3  2  0  0  0  0
 15 14  1  0  0  0  0
 16 11  1  0  0  0  0
 17  4  2  0  0  0  0
 19  7  2  0  0  0  0
 19 10  1  0  0  0  0
 20  5  1  0  0  0  0
 21 22  1  6  0  0  0
 21 20  1  0  0  0  0
 21 23  1  0  0  0  0
 23 24  1  0  0  0  0
 25 23  1  0  0  0  0
M  END
>  <MODEL>
6

>  <REMARK>
 VINA RESULT:      -6.6      1.967      2.815
  Name = 
  3 active torsions:
  status: ('A' for Active; 'I' for Inactive)
    1  A    between atoms: N_2  and  C_21
    2  A    between atoms: N_6  and  C_15
    3  A    between atoms: C_15  and  C_21
                            x       y       z     vdW  Elec       q    Type
                         _______ _______ _______ _____ _____    ______ ____

>  <TORSDO>
F 3

$$$$
=
 OpenBabel11052422173D

 25 29  0  0  1  0  0  0  0  0999 V2000
  161.4180  207.4430  151.1850 N   0  0  0  0  0  0  0  0  0  0  0  0
  162.0610  206.1660  150.8740 C   0  0  2  0  0  3  0  0  0  0  0  0
  160.9340  206.7810  153.4120 N   0  0  0  0  0  0  0  0  0  0  0  0
  161.6460  208.6660  150.5000 C   0  0  0  0  0  0  0  0  0  0  0  0
  160.8310  205.0390  149.3230 N   0  0  0  0  0  0  0  0  0  0  0  0
  162.0450  211.1950  149.4100 C   0  0  0  0  0  3  0  0  0  0  0  0
  161.1120  205.4050  153.0340 C   0  0  0  0  0  3  0  0  0  0  0  0
  161.3860  209.7970  151.2580 C   0  0  0  0  0  0  0  0  0  0  0  0
  161.5840  211.0730  150.7280 C   0  0  0  0  0  3  0  0  0  0  0  0
  161.4860  203.7180  151.2410 C   0  0  2  0  0  0  0  0  0  0  0  0
  162.1450  202.5620  151.8740 C   0  0  0  0  0  2  0  0  0  0  0  0
  161.9480  205.8140  149.4970 O   0  0  0  0  0  0  0  0  0  0  0  0
  162.3080  210.0500  148.6410 C   0  0  0  0  0  3  0  0  0  0  0  0
  161.0440  207.7310  152.5310 C   0  0  0  0  0  0  0  0  0  0  0  0
  160.8350  209.4680  152.9350 S   0  0  0  0  0  0  0  0  0  0  0  0
  160.7600  202.8030  152.0210 O   0  0  0  0  0  0  0  0  0  0  0  0
  162.1110  208.7730  149.1860 C   0  0  0  0  0  3  0  0  0  0  0  0
  161.1220  203.6680  149.7680 C   0  0  0  0  0  2  0  0  0  0  0  0
  161.6160  205.0800  151.8340 C   0  0  0  0  0  0  0  0  0  0  0  0
  160.4830  205.0210  147.9000 C   0  0  0  0  0  2  0  0  0  0  0  0
  161.4580  205.8180  147.0250 C   0  0  2  0  0  3  0  0  0  0  0  0
  160.8310  206.9530  146.4930 O   0  0  0  0  0  1  0  0  0  0  0  0
  162.0210  204.9650  145.9710 N   0  0  0  0  0  0  0  0  0  0  0  0
  161.5150  205.4330  144.6930 C   0  0  0  0  0  1  0  0  0  0  0  0
  161.5810  203.5840  146.1350 C   0  0  0  0  0  1  0  0  0  0  0  0
  1 14  1  0  0  0  0
  2 12  1  6  0  0  0
  2  1  1  0  0  0  0
  2 19  1  0  0  0  0
  4  1  1  0  0  0  0
  4  8  1  0  0  0  0
  5 12  1  0  0  0  0
  5 18  1  0  0  0  0
  6  9  1  0  0  0  0
  7  3  1  0  0  0  0
  8 15  1  0  0  0  0
  9  8  2  0  0  0  0
 10 18  1  6  0  0  0
 10 19  1  0  0  0  0
 10 11  1  0  0  0  0
 10 16  1  0  0  0  0
 11 16  1  0  0  0  0
 13 17  1  0  0  0  0
 13  6  2  0  0  0  0
 14 15  1  0  0  0  0
 14  3  2  0  0  0  0
 17  4  2  0  0  0  0
 19  7  2  0  0  0  0
 20  5  1  0  0  0  0
 21 22  1  6  0  0  0
 21 20  1  0  0  0  0
 23 25  1  0  0  0  0
 23 21  1  0  0  0  0
 24 23  1  0  0  0  0
M  END
>  <MODEL>
7

>  <REMARK>
 VINA RESULT:      -6.4      2.736      5.564
  Name = 
  3 active torsions:
  status: ('A' for Active; 'I' for Inactive)
    1  A    between atoms: N_2  and  C_21
    2  A    between atoms: N_6  and  C_15
    3  A    between atoms: C_15  and  C_21
                            x       y       z     vdW  Elec       q    Type
                         _______ _______ _______ _____ _____    ______ ____

>  <TORSDO>
F 3

$$$$
=
 OpenBabel11052422173D

 25 29  0  0  1  0  0  0  0  0999 V2000
  161.3940  206.8820  150.0660 N   0  0  0  0  0  0  0  0  0  0  0  0
  162.1590  208.0960  150.3480 C   0  0  2  0  0  3  0  0  0  0  0  0
  161.4880  207.2370  147.7210 N   0  0  0  0  0  0  0  0  0  0  0  0
  161.2760  205.7650  150.9350 C   0  0  0  0  0  0  0  0  0  0  0  0
  160.8390  209.6080  151.4260 N   0  0  0  0  0  0  0  0  0  0  0  0
  161.0280  203.4120  152.4010 C   0  0  0  0  0  3  0  0  0  0  0  0
  161.8070  208.6200  147.9510 C   0  0  0  0  0  3  0  0  0  0  0  0
  160.9950  204.5710  150.2880 C   0  0  0  0  0  0  0  0  0  0  0  0
  160.8720  203.3810  151.0080 C   0  0  0  0  0  3  0  0  0  0  0  0
  162.0770  210.5090  149.5520 C   0  0  2  0  0  0  0  0  0  0  0  0
  163.0300  211.4520  148.9420 C   0  0  0  0  0  2  0  0  0  0  0  0
  161.8270  208.6760  151.6080 O   0  0  0  0  0  0  0  0  0  0  0  0
  161.3120  204.6210  153.0560 C   0  0  0  0  0  3  0  0  0  0  0  0
  161.2600  206.4340  148.7190 C   0  0  0  0  0  0  0  0  0  0  0  0
  160.8590  204.6980  148.5030 S   0  0  0  0  0  0  0  0  0  0  0  0
  161.6830  211.3740  148.5180 O   0  0  0  0  0  0  0  0  0  0  0  0
  161.4410  205.8080  152.3230 C   0  0  0  0  0  3  0  0  0  0  0  0
  161.4340  210.8410  150.8870 C   0  0  0  0  0  2  0  0  0  0  0  0
  162.1020  209.0630  149.1820 C   0  0  0  0  0  0  0  0  0  0  0  0
  160.2170  209.8990  152.7200 C   0  0  0  0  0  2  0  0  0  0  0  0
  161.1250  209.5880  153.9150 C   0  0  2  0  0  3  0  0  0  0  0  0
  160.4720  208.7470  154.8270 O   0  0  0  0  0  1  0  0  0  0  0  0
  161.5820  210.8290  154.5530 N   0  0  0  0  0  0  0  0  0  0  0  0
  162.2210  210.4820  155.8100 C   0  0  0  0  0  1  0  0  0  0  0  0
  160.4510  211.6960  154.8640 C   0  0  0  0  0  1  0  0  0  0  0  0
  1  2  1  0  0  0  0
  1  4  1  0  0  0  0
  2 19  1  6  0  0  0
  2 12  1  0  0  0  0
  3  7  1  0  0  0  0
  3 14  2  0  0  0  0
  4 17  1  0  0  0  0
  5 12  1  0  0  0  0
  5 20  1  0  0  0  0
  6 13  1  0  0  0  0
  7 19  2  0  0  0  0
  8  4  2  0  0  0  0
  8  9  1  0  0  0  0
  9  6  2  0  0  0  0
 10 11  1  1  0  0  0
 10 18  1  0  0  0  0
 14  1  1  0  0  0  0
 15 14  1  0  0  0  0
 15  8  1  0  0  0  0
 16 11  1  0  0  0  0
 16 10  1  0  0  0  0
 17 13  2  0  0  0  0
 18  5  1  0  0  0  0
 19 10  1  0  0  0  0
 20 21  1  0  0  0  0
 21 23  1  0  0  0  0
 21 22  1  1  0  0  0
 23 25  1  0  0  0  0
 23 24  1  0  0  0  0
M  END
>  <MODEL>
8

>  <REMARK>
 VINA RESULT:      -6.4      1.829      4.631
  Name = 
  3 active torsions:
  status: ('A' for Active; 'I' for Inactive)
    1  A    between atoms: N_2  and  C_21
    2  A    between atoms: N_6  and  C_15
    3  A    between atoms: C_15  and  C_21
                            x       y       z     vdW  Elec       q    Type
                         _______ _______ _______ _____ _____    ______ ____

>  <TORSDO>
F 3

$$$$
=
 OpenBabel11052422173D

 25 29  0  0  1  0  0  0  0  0999 V2000
  161.3480  208.7650  151.2860 N   0  0  0  0  0  0  0  0  0  0  0  0
  161.9970  210.0340  150.9600 C   0  0  2  0  0  3  0  0  0  0  0  0
  161.7500  207.8790  149.1210 N   0  0  0  0  0  0  0  0  0  0  0  0
  161.1710  208.2440  152.5960 C   0  0  0  0  0  0  0  0  0  0  0  0
  160.4560  211.7120  150.9640 N   0  0  0  0  0  0  0  0  0  0  0  0
  160.8520  206.9620  155.0450 C   0  0  0  0  0  3  0  0  0  0  0  0
  161.9560  209.2120  148.6220 C   0  0  0  0  0  3  0  0  0  0  0  0
  161.0520  206.8630  152.6450 C   0  0  0  0  0  0  0  0  0  0  0  0
  160.8950  206.2040  153.8660 C   0  0  0  0  0  3  0  0  0  0  0  0
  161.8920  211.6700  149.0180 C   0  0  2  0  0  0  0  0  0  0  0  0
  162.8680  212.2750  148.0940 C   0  0  0  0  0  2  0  0  0  0  0  0
  161.4590  211.1320  151.6950 O   0  0  0  0  0  0  0  0  0  0  0  0
  160.9730  208.3600  154.9950 C   0  0  0  0  0  3  0  0  0  0  0  0
  161.4300  207.6780  150.3650 C   0  0  0  0  0  0  0  0  0  0  0  0
  161.1610  206.0420  151.0530 S   0  0  0  0  0  0  0  0  0  0  0  0
  161.6000  211.8300  147.6530 O   0  0  0  0  0  0  0  0  0  0  0  0
  161.1370  209.0110  153.7640 C   0  0  0  0  0  3  0  0  0  0  0  0
  161.0510  212.5570  149.9170 C   0  0  0  0  0  2  0  0  0  0  0  0
  162.0500  210.2540  149.4610 C   0  0  0  0  0  0  0  0  0  0  0  0
  159.6420  212.5460  151.8520 C   0  0  0  0  0  2  0  0  0  0  0  0
  159.3790  211.9020  153.2190 C   0  0  2  0  0  3  0  0  0  0  0  0
  158.2060  211.1350  153.1870 O   0  0  0  0  0  1  0  0  0  0  0  0
  159.3310  212.9250  154.2710 N   0  0  0  0  0  0  0  0  0  0  0  0
  160.0490  212.4170  155.4270 C   0  0  0  0  0  1  0  0  0  0  0  0
  157.9550  213.1720  154.6860 C   0  0  0  0  0  1  0  0  0  0  0  0
  1  4  1  0  0  0  0
  2 19  1  6  0  0  0
  2  1  1  0  0  0  0
  2 12  1  0  0  0  0
  3 14  2  0  0  0  0
  4  8  2  0  0  0  0
  4 17  1  0  0  0  0
  5 12  1  0  0  0  0
  5 20  1  0  0  0  0
  7  3  1  0  0  0  0
  7 19  2  0  0  0  0
  8  9  1  0  0  0  0
  9  6  2  0  0  0  0
 10 11  1  1  0  0  0
 10 19  1  0  0  0  0
 10 18  1  0  0  0  0
 13  6  1  0  0  0  0
 14 15  1  0  0  0  0
 14  1  1  0  0  0  0
 15  8  1  0  0  0  0
 16 11  1  0  0  0  0
 16 10  1  0  0  0  0
 17 13  2  0  0  0  0
 18  5  1  0  0  0  0
 20 21  1  0  0  0  0
 21 22  1  6  0  0  0
 21 23  1  0  0  0  0
 23 25  1  0  0  0  0
 23 24  1  0  0  0  0
M  END
>  <MODEL>
9

>  <REMARK>
 VINA RESULT:      -6.1      2.252      5.280
  Name = 
  3 active torsions:
  status: ('A' for Active; 'I' for Inactive)
    1  A    between atoms: N_2  and  C_21
    2  A    between atoms: N_6  and  C_15
    3  A    between atoms: C_15  and  C_21
                            x       y       z     vdW  Elec       q    Type
                         _______ _______ _______ _____ _____    ______ ____

>  <TORSDO>
F 3

$$$$
