=
 OpenBabel11062409463D

 34 39  0  0  1  0  0  0  0  0999 V2000
  160.1060  211.7960  153.0040 N   0  0  0  0  0  0  0  0  0  0  0  0
  157.7350  214.3000  154.7740 C   0  0  0  0  0  2  0  0  0  0  0  0
  158.9090  214.4530  152.5660 C   0  0  0  0  0  2  0  0  0  0  0  0
  161.1500  209.8010  151.9510 C   0  0  1  0  0  3  0  0  0  0  0  0
  161.0000  210.6540  153.2300 C   0  0  0  0  0  2  0  0  0  0  0  0
  160.8060  211.8870  150.6480 C   0  0  0  0  0  0  0  0  0  0  0  0
  160.6940  212.9710  149.3740 S   0  0  0  0  0  0  0  0  0  0  0  0
  161.5930  210.6210  150.7250 C   0  0  0  0  0  2  0  0  0  0  0  0
  159.5820  213.6840  151.4750 C   0  0  0  0  0  0  0  0  0  0  0  0
  160.1660  212.4450  151.7280 C   0  0  0  0  0  0  0  0  0  0  0  0
  159.7900  214.1590  150.1810 C   0  0  0  0  0  3  0  0  0  0  0  0
  157.0660  213.4420  155.8540 C   0  0  0  0  0  2  0  0  0  0  0  0
  156.5110  212.1160  155.3160 C   0  0  1  0  0  3  0  0  0  0  0  0
  157.5880  211.0530  155.0230 C   0  0  0  0  0  2  0  0  0  0  0  0
  158.4000  213.4990  153.6520 C   0  0  1  0  0  3  0  0  0  0  0  0
  159.0260  211.5430  155.2240 C   0  0  0  0  0  2  0  0  0  0  0  0
  159.5080  212.5210  154.1370 C   0  0  1  0  0  3  0  0  0  0  0  0
  155.4860  211.5640  156.2480 C   0  0  0  0  0  0  0  0  0  0  0  0
  154.9560  210.3020  156.0150 O   0  0  0  0  0  0  0  0  0  0  0  0
  155.0970  212.2310  157.2440 O   0  0  0  0  0  1  0  0  0  0  0  0
  162.0120  208.6820  152.1690 O   0  0  0  0  0  0  0  0  0  0  0  0
  161.2320  205.0780  152.4720 C   0  0  0  0  0  3  0  0  0  0  0  0
  161.6310  206.9720  150.4470 C   0  0  0  0  0  3  0  0  0  0  0  0
  160.7670  202.9790  149.4530 C   0  0  0  0  0  0  0  0  0  0  0  0
  160.8560  203.3670  150.7990 C   0  0  0  0  0  3  0  0  0  0  0  0
  161.1420  204.6930  151.1330 C   0  0  0  0  0  0  0  0  0  0  0  0
  161.2560  205.2630  148.7730 C   0  0  0  0  0  3  0  0  0  0  0  0
  161.3430  205.6480  150.1130 C   0  0  0  0  0  0  0  0  0  0  0  0
  160.9690  203.9340  148.4460 C   0  0  0  0  0  3  0  0  0  0  0  0
  161.7230  207.3610  151.7940 C   0  0  0  0  0  0  0  0  0  0  0  0
  161.5210  206.4080  152.7990 C   0  0  0  0  0  3  0  0  0  0  0  0
  160.4650  201.5800  149.1030 C   0  0  0  0  0  0  0  0  0  0  0  0
  159.3230  201.1000  149.3300 O   0  0  0  0  0  0  0  0  0  0  0  0
  161.4600  200.7550  148.5020 N   0  0  0  0  0  1  0  0  0  0  0  0
  1  5  1  0  0  0  0
  1 17  1  0  0  0  0
  2 12  1  0  0  0  0
  4 21  1  1  0  0  0
  4  5  1  0  0  0  0
  6  8  1  0  0  0  0
  6 10  2  0  0  0  0
  7 11  1  0  0  0  0
  7  6  1  0  0  0  0
  8  4  1  0  0  0  0
  9 10  1  0  0  0  0
  9  3  1  0  0  0  0
 10  1  1  0  0  0  0
 11  9  2  0  0  0  0
 13 12  1  0  0  0  0
 13 18  1  1  0  0  0
 14 16  1  0  0  0  0
 14 13  1  0  0  0  0
 15  3  1  6  0  0  0
 15 17  1  0  0  0  0
 15  2  1  0  0  0  0
 17 16  1  1  0  0  0
 18 20  1  0  0  0  0
 19 18  2  0  0  0  0
 22 31  1  0  0  0  0
 23 30  1  0  0  0  0
 24 25  2  0  0  0  0
 25 26  1  0  0  0  0
 26 22  2  0  0  0  0
 27 28  1  0  0  0  0
 28 23  2  0  0  0  0
 28 26  1  0  0  0  0
 29 27  2  0  0  0  0
 29 24  1  0  0  0  0
 30 21  1  0  0  0  0
 30 31  2  0  0  0  0
 32 33  2  0  0  0  0
 32 24  1  0  0  0  0
 34 32  1  0  0  0  0
M  END
>  <MODEL>
1

>  <REMARK>
 VINA RESULT:      -8.9      0.000      0.000
  Name = 
  4 active torsions:
  status: ('A' for Active; 'I' for Inactive)
    1  A    between atoms: C_3  and  C_25
    2  A    between atoms: C_7  and  C_11
    3  A    between atoms: C_8  and  O_18
    4  A    between atoms: O_18  and  C_30
                            x       y       z     vdW  Elec       q    Type
                         _______ _______ _______ _____ _____    ______ ____

>  <TORSDO>
F 4

$$$$
=
 OpenBabel11062409463D

 34 39  0  0  1  0  0  0  0  0999 V2000
  159.9770  210.2400  154.4420 N   0  0  0  0  0  0  0  0  0  0  0  0
  158.5760  213.8530  154.3800 C   0  0  0  0  0  2  0  0  0  0  0  0
  160.0910  212.7230  156.0250 C   0  0  0  0  0  2  0  0  0  0  0  0
  161.0760  208.0740  153.9140 C   0  0  1  0  0  3  0  0  0  0  0  0
  159.7580  208.8790  153.9360 C   0  0  0  0  0  2  0  0  0  0  0  0
  161.8100  209.4240  155.8640 C   0  0  0  0  0  0  0  0  0  0  0  0
  162.7020  209.9930  157.1650 S   0  0  0  0  0  0  0  0  0  0  0  0
  161.7960  208.0530  155.2750 C   0  0  0  0  0  2  0  0  0  0  0  0
  161.0300  211.5820  156.2490 C   0  0  0  0  0  0  0  0  0  0  0  0
  160.9250  210.4100  155.5020 C   0  0  0  0  0  0  0  0  0  0  0  0
  161.9880  211.5290  157.2610 C   0  0  0  0  0  3  0  0  0  0  0  0
  158.0780  214.0100  152.9390 C   0  0  0  0  0  2  0  0  0  0  0  0
  159.1110  213.5740  151.8910 C   0  0  1  0  0  3  0  0  0  0  0  0
  159.2710  212.0460  151.7580 C   0  0  0  0  0  2  0  0  0  0  0  0
  159.5550  212.6950  154.5900 C   0  0  1  0  0  3  0  0  0  0  0  0
  158.4440  211.2380  152.7640 C   0  0  0  0  0  2  0  0  0  0  0  0
  158.9840  211.3000  154.2040 C   0  0  1  0  0  3  0  0  0  0  0  0
  158.7910  214.1740  150.5630 C   0  0  0  0  0  0  0  0  0  0  0  0
  157.4710  214.4510  150.2360 O   0  0  0  0  0  1  0  0  0  0  0  0
  159.7080  214.4320  149.7380 O   0  0  0  0  0  0  0  0  0  0  0  0
  160.8700  206.7510  153.4130 O   0  0  0  0  0  0  0  0  0  0  0  0
  161.4910  207.0120  149.7750 C   0  0  0  0  0  3  0  0  0  0  0  0
  160.8840  205.0310  151.6600 C   0  0  0  0  0  3  0  0  0  0  0  0
  161.3640  204.0070  147.6100 C   0  0  0  0  0  0  0  0  0  0  0  0
  161.5070  205.3410  148.0210 C   0  0  0  0  0  3  0  0  0  0  0  0
  161.3490  205.6850  149.3660 C   0  0  0  0  0  0  0  0  0  0  0  0
  160.8990  203.3580  149.9090 C   0  0  0  0  0  3  0  0  0  0  0  0
  161.0440  204.6860  150.3170 C   0  0  0  0  0  0  0  0  0  0  0  0
  161.0590  203.0220  148.5610 C   0  0  0  0  0  3  0  0  0  0  0  0
  161.0250  206.3670  152.0720 C   0  0  0  0  0  0  0  0  0  0  0  0
  161.3300  207.3490  151.1230 C   0  0  0  0  0  3  0  0  0  0  0  0
  161.5310  203.6460  146.1920 C   0  0  0  0  0  0  0  0  0  0  0  0
  162.2460  204.3550  145.4350 O   0  0  0  0  0  0  0  0  0  0  0  0
  160.8870  202.4910  145.6590 N   0  0  0  0  0  1  0  0  0  0  0  0
  1 10  1  0  0  0  0
  3  9  1  0  0  0  0
  4 21  1  1  0  0  0
  4  5  1  0  0  0  0
  4  8  1  0  0  0  0
  5  1  1  0  0  0  0
  6  7  1  0  0  0  0
  7 11  1  0  0  0  0
  8  6  1  0  0  0  0
  9 11  2  0  0  0  0
 10  6  2  0  0  0  0
 10  9  1  0  0  0  0
 12  2  1  0  0  0  0
 13 18  1  6  0  0  0
 13 12  1  0  0  0  0
 14 13  1  0  0  0  0
 14 16  1  0  0  0  0
 15  2  1  1  0  0  0
 15  3  1  0  0  0  0
 17 16  1  6  0  0  0
 17  1  1  0  0  0  0
 17 15  1  0  0  0  0
 19 18  1  0  0  0  0
 20 18  2  0  0  0  0
 22 31  1  0  0  0  0
 23 30  1  0  0  0  0
 24 25  2  0  0  0  0
 24 29  1  0  0  0  0
 25 26  1  0  0  0  0
 26 22  2  0  0  0  0
 26 28  1  0  0  0  0
 27 28  1  0  0  0  0
 28 23  2  0  0  0  0
 29 27  2  0  0  0  0
 30 21  1  0  0  0  0
 31 30  2  0  0  0  0
 32 24  1  0  0  0  0
 33 32  2  0  0  0  0
 34 32  1  0  0  0  0
M  END
>  <MODEL>
2

>  <REMARK>
 VINA RESULT:      -8.6      3.048      4.342
  Name = 
  4 active torsions:
  status: ('A' for Active; 'I' for Inactive)
    1  A    between atoms: C_3  and  C_25
    2  A    between atoms: C_7  and  C_11
    3  A    between atoms: C_8  and  O_18
    4  A    between atoms: O_18  and  C_30
                            x       y       z     vdW  Elec       q    Type
                         _______ _______ _______ _____ _____    ______ ____

>  <TORSDO>
F 4

$$$$
=
 OpenBabel11062409463D

 34 39  0  0  1  0  0  0  0  0999 V2000
  161.3540  210.2150  151.3220 N   0  0  0  0  0  0  0  0  0  0  0  0
  161.6620  206.6300  152.7650 C   0  0  0  0  0  2  0  0  0  0  0  0
  160.7470  208.7250  153.7920 C   0  0  0  0  0  2  0  0  0  0  0  0
  160.8520  212.2210  149.9430 C   0  0  1  0  0  3  0  0  0  0  0  0
  161.8820  211.1260  150.2990 C   0  0  0  0  0  2  0  0  0  0  0  0
  160.0200  212.0470  152.2770 C   0  0  0  0  0  0  0  0  0  0  0  0
  159.1760  212.3430  153.6950 S   0  0  0  0  0  0  0  0  0  0  0  0
  160.3450  212.9980  151.1720 C   0  0  0  0  0  2  0  0  0  0  0  0
  160.2030  210.0900  153.5210 C   0  0  0  0  0  0  0  0  0  0  0  0
  160.5390  210.7780  152.3570 C   0  0  0  0  0  0  0  0  0  0  0  0
  159.4350  210.8300  154.4190 C   0  0  0  0  0  3  0  0  0  0  0  0
  161.9100  205.7730  151.5180 C   0  0  0  0  0  2  0  0  0  0  0  0
  160.9170  206.0560  150.3820 C   0  0  1  0  0  3  0  0  0  0  0  0
  161.1780  207.3750  149.6280 C   0  0  0  0  0  2  0  0  0  0  0  0
  161.0830  208.0170  152.4740 C   0  0  1  0  0  3  0  0  0  0  0  0
  162.3190  208.2170  150.2110 C   0  0  0  0  0  2  0  0  0  0  0  0
  161.9700  208.8970  151.5470 C   0  0  1  0  0  3  0  0  0  0  0  0
  160.8840  204.9140  149.4220 C   0  0  0  0  0  0  0  0  0  0  0  0
  160.8120  203.6150  149.9050 O   0  0  0  0  0  1  0  0  0  0  0  0
  160.9200  205.1190  148.1800 O   0  0  0  0  0  0  0  0  0  0  0  0
  161.3570  213.1050  148.9400 O   0  0  0  0  0  0  0  0  0  0  0  0
  159.6800  212.3590  145.7280 C   0  0  0  0  0  3  0  0  0  0  0  0
  162.2000  213.1810  146.6340 C   0  0  0  0  0  3  0  0  0  0  0  0
  161.5110  212.6540  142.5200 C   0  0  0  0  0  0  0  0  0  0  0  0
  160.4810  212.4190  143.4420 C   0  0  0  0  0  3  0  0  0  0  0  0
  160.7050  212.5940  144.8100 C   0  0  0  0  0  0  0  0  0  0  0  0
  163.0020  213.2420  144.3500 C   0  0  0  0  0  3  0  0  0  0  0  0
  161.9750  213.0090  145.2680 C   0  0  0  0  0  0  0  0  0  0  0  0
  162.7700  213.0650  142.9830 C   0  0  0  0  0  3  0  0  0  0  0  0
  161.1680  212.9440  147.5590 C   0  0  0  0  0  0  0  0  0  0  0  0
  159.9120  212.5340  147.0970 C   0  0  0  0  0  3  0  0  0  0  0  0
  161.2730  212.4690  141.0780 C   0  0  0  0  0  0  0  0  0  0  0  0
  160.7730  213.4000  140.3920 O   0  0  0  0  0  0  0  0  0  0  0  0
  161.6050  211.2370  140.4420 N   0  0  0  0  0  1  0  0  0  0  0  0
  1 17  1  0  0  0  0
  1 10  1  0  0  0  0
  4 21  1  6  0  0  0
  4  5  1  0  0  0  0
  4  8  1  0  0  0  0
  5  1  1  0  0  0  0
  6 10  2  0  0  0  0
  6  7  1  0  0  0  0
  7 11  1  0  0  0  0
  8  6  1  0  0  0  0
  9  3  1  0  0  0  0
  9 11  2  0  0  0  0
 10  9  1  0  0  0  0
 12  2  1  0  0  0  0
 13 18  1  6  0  0  0
 13 12  1  0  0  0  0
 14 16  1  0  0  0  0
 14 13  1  0  0  0  0
 15  2  1  1  0  0  0
 15  3  1  0  0  0  0
 17 16  1  6  0  0  0
 17 15  1  0  0  0  0
 18 19  1  0  0  0  0
 20 18  2  0  0  0  0
 22 31  1  0  0  0  0
 23 30  1  0  0  0  0
 24 29  1  0  0  0  0
 24 25  2  0  0  0  0
 25 26  1  0  0  0  0
 26 28  1  0  0  0  0
 26 22  2  0  0  0  0
 27 28  1  0  0  0  0
 28 23  2  0  0  0  0
 29 27  2  0  0  0  0
 30 21  1  0  0  0  0
 31 30  2  0  0  0  0
 32 24  1  0  0  0  0
 33 32  2  0  0  0  0
 34 32  1  0  0  0  0
M  END
>  <MODEL>
3

>  <REMARK>
 VINA RESULT:      -8.6      5.042      8.637
  Name = 
  4 active torsions:
  status: ('A' for Active; 'I' for Inactive)
    1  A    between atoms: C_3  and  C_25
    2  A    between atoms: C_7  and  C_11
    3  A    between atoms: C_8  and  O_18
    4  A    between atoms: O_18  and  C_30
                            x       y       z     vdW  Elec       q    Type
                         _______ _______ _______ _____ _____    ______ ____

>  <TORSDO>
F 4

$$$$
=
 OpenBabel11062409463D

 34 39  0  0  1  0  0  0  0  0999 V2000
  160.5610  211.7620  151.7210 N   0  0  0  0  0  0  0  0  0  0  0  0
  158.3300  214.0690  153.8960 C   0  0  0  0  0  2  0  0  0  0  0  0
  159.3610  214.4520  151.6440 C   0  0  0  0  0  2  0  0  0  0  0  0
  161.5180  209.8880  150.3990 C   0  0  1  0  0  3  0  0  0  0  0  0
  161.4580  210.6010  151.7680 C   0  0  0  0  0  2  0  0  0  0  0  0
  161.1090  212.1000  149.3480 C   0  0  0  0  0  0  0  0  0  0  0  0
  160.9240  213.3130  148.2050 S   0  0  0  0  0  0  0  0  0  0  0  0
  161.8880  210.8320  149.2400 C   0  0  0  0  0  2  0  0  0  0  0  0
  159.9550  213.8020  150.4380 C   0  0  0  0  0  0  0  0  0  0  0  0
  160.5440  212.5420  150.5200 C   0  0  0  0  0  0  0  0  0  0  0  0
  160.0830  214.4100  149.1900 C   0  0  0  0  0  3  0  0  0  0  0  0
  157.7240  213.1030  154.9210 C   0  0  0  0  0  2  0  0  0  0  0  0
  157.1250  211.8420  154.2830 C   0  0  1  0  0  3  0  0  0  0  0  0
  158.1720  210.8140  153.8100 C   0  0  0  0  0  2  0  0  0  0  0  0
  158.9150  213.3900  152.6550 C   0  0  1  0  0  3  0  0  0  0  0  0
  159.6240  211.2780  153.9680 C   0  0  0  0  0  2  0  0  0  0  0  0
  160.0430  212.3640  152.9610 C   0  0  1  0  0  3  0  0  0  0  0  0
  156.1570  211.1950  155.2160 C   0  0  0  0  0  0  0  0  0  0  0  0
  155.2610  210.2520  154.7300 O   0  0  0  0  0  0  0  0  0  0  0  0
  156.1460  211.4960  156.4400 O   0  0  0  0  0  1  0  0  0  0  0  0
  162.3830  208.7510  150.4410 O   0  0  0  0  0  0  0  0  0  0  0  0
  162.2980  206.3670  147.6130 C   0  0  0  0  0  3  0  0  0  0  0  0
  161.6750  206.4010  150.3440 C   0  0  0  0  0  3  0  0  0  0  0  0
  161.0990  202.8940  148.0970 C   0  0  0  0  0  0  0  0  0  0  0  0
  161.6030  204.0500  147.4820 C   0  0  0  0  0  3  0  0  0  0  0  0
  161.7970  205.2170  148.2250 C   0  0  0  0  0  0  0  0  0  0  0  0
  160.9810  204.0840  150.2150 C   0  0  0  0  0  3  0  0  0  0  0  0
  161.4840  205.2340  149.6020 C   0  0  0  0  0  0  0  0  0  0  0  0
  160.7890  202.9210  149.4650 C   0  0  0  0  0  3  0  0  0  0  0  0
  162.1790  207.5600  149.7290 C   0  0  0  0  0  0  0  0  0  0  0  0
  162.4870  207.5330  148.3640 C   0  0  0  0  0  3  0  0  0  0  0  0
  160.8950  201.6650  147.3120 C   0  0  0  0  0  0  0  0  0  0  0  0
  160.3870  201.7220  146.1600 O   0  0  0  0  0  0  0  0  0  0  0  0
  161.2700  200.3960  147.8440 N   0  0  0  0  0  1  0  0  0  0  0  0
  1  5  1  0  0  0  0
  1 17  1  0  0  0  0
  2 12  1  0  0  0  0
  4 21  1  1  0  0  0
  4  5  1  0  0  0  0
  6 10  2  0  0  0  0
  7 11  1  0  0  0  0
  7  6  1  0  0  0  0
  8  6  1  0  0  0  0
  8  4  1  0  0  0  0
  9 10  1  0  0  0  0
  9  3  1  0  0  0  0
 10  1  1  0  0  0  0
 11  9  2  0  0  0  0
 13 12  1  0  0  0  0
 13 18  1  1  0  0  0
 14 16  1  0  0  0  0
 14 13  1  0  0  0  0
 15  3  1  6  0  0  0
 15 17  1  0  0  0  0
 15  2  1  0  0  0  0
 17 16  1  1  0  0  0
 18 20  1  0  0  0  0
 19 18  2  0  0  0  0
 22 26  2  0  0  0  0
 22 31  1  0  0  0  0
 24 29  1  0  0  0  0
 25 24  2  0  0  0  0
 25 26  1  0  0  0  0
 26 28  1  0  0  0  0
 28 27  1  0  0  0  0
 28 23  2  0  0  0  0
 29 27  2  0  0  0  0
 30 23  1  0  0  0  0
 30 21  1  0  0  0  0
 31 30  2  0  0  0  0
 32 34  1  0  0  0  0
 32 24  1  0  0  0  0
 33 32  2  0  0  0  0
M  END
>  <MODEL>
4

>  <REMARK>
 VINA RESULT:      -8.4      1.362      1.994
  Name = 
  4 active torsions:
  status: ('A' for Active; 'I' for Inactive)
    1  A    between atoms: C_3  and  C_25
    2  A    between atoms: C_7  and  C_11
    3  A    between atoms: C_8  and  O_18
    4  A    between atoms: O_18  and  C_30
                            x       y       z     vdW  Elec       q    Type
                         _______ _______ _______ _____ _____    ______ ____

>  <TORSDO>
F 4

$$$$
=
 OpenBabel11062409463D

 34 39  0  0  1  0  0  0  0  0999 V2000
  160.8410  211.5790  151.1880 N   0  0  0  0  0  0  0  0  0  0  0  0
  158.8830  214.4080  152.9740 C   0  0  0  0  0  2  0  0  0  0  0  0
  159.9640  214.3520  150.7140 C   0  0  0  0  0  2  0  0  0  0  0  0
  161.5810  209.4410  150.1590 C   0  0  1  0  0  3  0  0  0  0  0  0
  161.5960  210.3400  151.4140 C   0  0  0  0  0  2  0  0  0  0  0  0
  161.4380  211.5160  148.8040 C   0  0  0  0  0  0  0  0  0  0  0  0
  161.4020  212.5710  147.5000 S   0  0  0  0  0  0  0  0  0  0  0  0
  162.0640  210.1640  148.8890 C   0  0  0  0  0  2  0  0  0  0  0  0
  160.4850  213.4750  149.6220 C   0  0  0  0  0  0  0  0  0  0  0  0
  160.9220  212.1790  149.8910 C   0  0  0  0  0  0  0  0  0  0  0  0
  160.6900  213.8840  148.3050 C   0  0  0  0  0  3  0  0  0  0  0  0
  158.1630  213.6710  154.1090 C   0  0  0  0  0  2  0  0  0  0  0  0
  157.4240  212.4100  153.6390 C   0  0  1  0  0  3  0  0  0  0  0  0
  158.3460  211.2130  153.3360 C   0  0  0  0  0  2  0  0  0  0  0  0
  159.3920  213.4990  151.8520 C   0  0  1  0  0  3  0  0  0  0  0  0
  159.8420  211.5240  153.4600 C   0  0  0  0  0  2  0  0  0  0  0  0
  160.3910  212.4040  152.3220 C   0  0  1  0  0  3  0  0  0  0  0  0
  156.3820  212.0160  154.6320 C   0  0  0  0  0  0  0  0  0  0  0  0
  156.2700  210.6870  155.0170 O   0  0  0  0  0  0  0  0  0  0  0  0
  155.6060  212.8780  155.1240 O   0  0  0  0  0  1  0  0  0  0  0  0
  162.3060  208.2290  150.3770 O   0  0  0  0  0  0  0  0  0  0  0  0
  161.0460  204.7590  150.1260 C   0  0  0  0  0  3  0  0  0  0  0  0
  162.2200  206.6870  148.4670 C   0  0  0  0  0  3  0  0  0  0  0  0
  161.1960  202.9160  146.9150 C   0  0  0  0  0  0  0  0  0  0  0  0
  160.9510  203.2130  148.2640 C   0  0  0  0  0  3  0  0  0  0  0  0
  161.2890  204.4650  148.7830 C   0  0  0  0  0  0  0  0  0  0  0  0
  162.1260  205.1430  146.6040 C   0  0  0  0  0  3  0  0  0  0  0  0
  161.8800  205.4370  147.9470 C   0  0  0  0  0  0  0  0  0  0  0  0
  161.7850  203.8880  146.0920 C   0  0  0  0  0  3  0  0  0  0  0  0
  161.9770  206.9840  149.8190 C   0  0  0  0  0  0  0  0  0  0  0  0
  161.3890  206.0150  150.6390 C   0  0  0  0  0  3  0  0  0  0  0  0
  160.8390  201.5950  146.3680 C   0  0  0  0  0  0  0  0  0  0  0  0
  161.2060  200.5430  146.9560 O   0  0  0  0  0  0  0  0  0  0  0  0
  160.0740  201.4920  145.1690 N   0  0  0  0  0  1  0  0  0  0  0  0
  1  5  1  0  0  0  0
  1 17  1  0  0  0  0
  2 12  1  0  0  0  0
  4 21  1  1  0  0  0
  4  5  1  0  0  0  0
  6  8  1  0  0  0  0
  6 10  2  0  0  0  0
  7 11  1  0  0  0  0
  7  6  1  0  0  0  0
  8  4  1  0  0  0  0
  9 10  1  0  0  0  0
  9  3  1  0  0  0  0
 10  1  1  0  0  0  0
 11  9  2  0  0  0  0
 13 12  1  0  0  0  0
 13 18  1  1  0  0  0
 14 16  1  0  0  0  0
 14 13  1  0  0  0  0
 15  3  1  6  0  0  0
 15 17  1  0  0  0  0
 15  2  1  0  0  0  0
 17 16  1  1  0  0  0
 18 19  2  0  0  0  0
 18 20  1  0  0  0  0
 22 31  1  0  0  0  0
 23 30  1  0  0  0  0
 24 25  2  0  0  0  0
 25 26  1  0  0  0  0
 26 22  2  0  0  0  0
 27 28  1  0  0  0  0
 28 23  2  0  0  0  0
 28 26  1  0  0  0  0
 29 27  2  0  0  0  0
 29 24  1  0  0  0  0
 30 21  1  0  0  0  0
 30 31  2  0  0  0  0
 32 24  1  0  0  0  0
 32 33  2  0  0  0  0
 34 32  1  0  0  0  0
M  END
>  <MODEL>
5

>  <REMARK>
 VINA RESULT:      -8.2      1.696      2.227
  Name = 
  4 active torsions:
  status: ('A' for Active; 'I' for Inactive)
    1  A    between atoms: C_3  and  C_25
    2  A    between atoms: C_7  and  C_11
    3  A    between atoms: C_8  and  O_18
    4  A    between atoms: O_18  and  C_30
                            x       y       z     vdW  Elec       q    Type
                         _______ _______ _______ _____ _____    ______ ____

>  <TORSDO>
F 4

$$$$
=
 OpenBabel11062409463D

 34 39  0  0  1  0  0  0  0  0999 V2000
  159.5500  211.9500  152.8700 N   0  0  0  0  0  0  0  0  0  0  0  0
  160.4840  209.1030  155.3290 C   0  0  0  0  0  2  0  0  0  0  0  0
  158.6590  210.8160  155.4400 C   0  0  0  0  0  2  0  0  0  0  0  0
  158.9280  213.3090  150.8840 C   0  0  1  0  0  3  0  0  0  0  0  0
  160.0700  212.7930  151.7860 C   0  0  0  0  0  2  0  0  0  0  0  0
  157.4620  213.2490  152.8880 C   0  0  0  0  0  0  0  0  0  0  0  0
  156.1430  213.4400  153.9050 S   0  0  0  0  0  0  0  0  0  0  0  0
  157.8180  214.0320  151.6680 C   0  0  0  0  0  2  0  0  0  0  0  0
  157.8320  211.7830  154.6570 C   0  0  0  0  0  0  0  0  0  0  0  0
  158.3010  212.3240  153.4610 C   0  0  0  0  0  0  0  0  0  0  0  0
  156.6130  212.3110  155.0820 C   0  0  0  0  0  3  0  0  0  0  0  0
  161.3970  208.2020  154.4890 C   0  0  0  0  0  2  0  0  0  0  0  0
  160.8090  207.8600  153.1130 C   0  0  1  0  0  3  0  0  0  0  0  0
  160.8720  209.0140  152.0930 C   0  0  0  0  0  2  0  0  0  0  0  0
  159.6260  210.0720  154.5120 C   0  0  1  0  0  3  0  0  0  0  0  0
  161.4180  210.3280  152.6650 C   0  0  0  0  0  2  0  0  0  0  0  0
  160.4420  211.0460  153.6140 C   0  0  1  0  0  3  0  0  0  0  0  0
  161.4680  206.6440  152.5530 C   0  0  0  0  0  0  0  0  0  0  0  0
  162.3990  206.7780  151.5320 O   0  0  0  0  0  0  0  0  0  0  0  0
  161.1880  205.4990  152.9980 O   0  0  0  0  0  1  0  0  0  0  0  0
  159.4300  214.1230  149.8220 O   0  0  0  0  0  0  0  0  0  0  0  0
  158.5380  212.7280  146.5130 C   0  0  0  0  0  3  0  0  0  0  0  0
  160.7750  213.8320  147.7870 C   0  0  0  0  0  3  0  0  0  0  0  0
  161.0500  212.5460  143.7940 C   0  0  0  0  0  0  0  0  0  0  0  0
  159.8390  212.4240  144.4910 C   0  0  0  0  0  3  0  0  0  0  0  0
  159.7430  212.8510  145.8180 C   0  0  0  0  0  0  0  0  0  0  0  0
  162.0770  213.5290  145.7680 C   0  0  0  0  0  3  0  0  0  0  0  0
  160.8700  213.4080  146.4610 C   0  0  0  0  0  0  0  0  0  0  0  0
  162.1650  213.0990  144.4410 C   0  0  0  0  0  3  0  0  0  0  0  0
  159.5630  213.7090  148.4880 C   0  0  0  0  0  0  0  0  0  0  0  0
  158.4510  213.1570  147.8420 C   0  0  0  0  0  3  0  0  0  0  0  0
  161.1490  212.0950  142.3950 C   0  0  0  0  0  0  0  0  0  0  0  0
  162.2760  211.9010  141.8670 O   0  0  0  0  0  0  0  0  0  0  0  0
  159.9710  211.8730  141.6220 N   0  0  0  0  0  1  0  0  0  0  0  0
  1 10  1  0  0  0  0
  1 17  1  0  0  0  0
  4 21  1  6  0  0  0
  4  8  1  0  0  0  0
  4  5  1  0  0  0  0
  5  1  1  0  0  0  0
  6 10  2  0  0  0  0
  6  7  1  0  0  0  0
  7 11  1  0  0  0  0
  8  6  1  0  0  0  0
  9 11  2  0  0  0  0
  9  3  1  0  0  0  0
 10  9  1  0  0  0  0
 12  2  1  0  0  0  0
 13 18  1  6  0  0  0
 13 12  1  0  0  0  0
 14 16  1  0  0  0  0
 14 13  1  0  0  0  0
 15  2  1  1  0  0  0
 15  3  1  0  0  0  0
 17 16  1  6  0  0  0
 17 15  1  0  0  0  0
 18 20  1  0  0  0  0
 19 18  2  0  0  0  0
 22 31  1  0  0  0  0
 23 30  1  0  0  0  0
 24 29  1  0  0  0  0
 24 25  2  0  0  0  0
 25 26  1  0  0  0  0
 26 28  1  0  0  0  0
 26 22  2  0  0  0  0
 27 28  1  0  0  0  0
 28 23  2  0  0  0  0
 29 27  2  0  0  0  0
 30 21  1  0  0  0  0
 31 30  2  0  0  0  0
 32 24  1  0  0  0  0
 33 32  2  0  0  0  0
 34 32  1  0  0  0  0
M  END
>  <MODEL>
6

>  <REMARK>
 VINA RESULT:      -7.4      4.398      7.814
  Name = 
  4 active torsions:
  status: ('A' for Active; 'I' for Inactive)
    1  A    between atoms: C_3  and  C_25
    2  A    between atoms: C_7  and  C_11
    3  A    between atoms: C_8  and  O_18
    4  A    between atoms: O_18  and  C_30
                            x       y       z     vdW  Elec       q    Type
                         _______ _______ _______ _____ _____    ______ ____

>  <TORSDO>
F 4

$$$$
=
 OpenBabel11062409463D

 34 39  0  0  1  0  0  0  0  0999 V2000
  160.6590  209.0750  153.5580 N   0  0  0  0  0  0  0  0  0  0  0  0
  160.0480  212.6960  152.3150 C   0  0  0  0  0  2  0  0  0  0  0  0
  160.4320  211.8120  154.6280 C   0  0  0  0  0  2  0  0  0  0  0  0
  161.5100  206.7720  153.9400 C   0  0  1  0  0  3  0  0  0  0  0  0
  160.4790  207.6610  153.2100 C   0  0  0  0  0  2  0  0  0  0  0  0
  161.4740  208.4310  155.7870 C   0  0  0  0  0  0  0  0  0  0  0  0
  161.7470  209.1840  157.2610 S   0  0  0  0  0  0  0  0  0  0  0  0
  161.5100  206.9740  155.4660 C   0  0  0  0  0  2  0  0  0  0  0  0
  160.9650  210.6740  155.4360 C   0  0  0  0  0  0  0  0  0  0  0  0
  161.0260  209.3870  154.9070 C   0  0  0  0  0  0  0  0  0  0  0  0
  161.3280  210.7560  156.7800 C   0  0  0  0  0  3  0  0  0  0  0  0
  160.3000  212.5930  150.8060 C   0  0  0  0  0  2  0  0  0  0  0  0
  161.6140  211.8780  150.4590 C   0  0  1  0  0  3  0  0  0  0  0  0
  161.5670  210.3480  150.6390 C   0  0  0  0  0  2  0  0  0  0  0  0
  160.6200  211.5350  153.1320 C   0  0  1  0  0  3  0  0  0  0  0  0
  160.2520  209.8240  151.2270 C   0  0  0  0  0  2  0  0  0  0  0  0
  160.0720  210.1370  152.7230 C   0  0  1  0  0  3  0  0  0  0  0  0
  162.0420  212.2190  149.0710 C   0  0  0  0  0  0  0  0  0  0  0  0
  162.0130  213.5410  148.6500 O   0  0  0  0  0  1  0  0  0  0  0  0
  162.4310  211.3180  148.2800 O   0  0  0  0  0  0  0  0  0  0  0  0
  161.3460  205.3940  153.5970 O   0  0  0  0  0  0  0  0  0  0  0  0
  161.3830  205.3340  149.8980 C   0  0  0  0  0  3  0  0  0  0  0  0
  161.1030  203.5270  152.0200 C   0  0  0  0  0  3  0  0  0  0  0  0
  160.9500  202.1510  148.0500 C   0  0  0  0  0  0  0  0  0  0  0  0
  161.1410  203.5150  148.3160 C   0  0  0  0  0  3  0  0  0  0  0  0
  161.1930  203.9760  149.6340 C   0  0  0  0  0  0  0  0  0  0  0  0
  160.8610  201.7080  150.4400 C   0  0  0  0  0  3  0  0  0  0  0  0
  161.0530  203.0660  150.7040 C   0  0  0  0  0  0  0  0  0  0  0  0
  160.8100  201.2540  149.1190 C   0  0  0  0  0  3  0  0  0  0  0  0
  161.2920  204.8940  152.2870 C   0  0  0  0  0  0  0  0  0  0  0  0
  161.4320  205.7890  151.2200 C   0  0  0  0  0  3  0  0  0  0  0  0
  160.8950  201.6670  146.6600 C   0  0  0  0  0  0  0  0  0  0  0  0
  160.9130  200.4310  146.4150 O   0  0  0  0  0  0  0  0  0  0  0  0
  160.8220  202.5890  145.5750 N   0  0  0  0  0  1  0  0  0  0  0  0
  1 10  1  0  0  0  0
  3  9  1  0  0  0  0
  4 21  1  1  0  0  0
  4  8  1  0  0  0  0
  5  1  1  0  0  0  0
  5  4  1  0  0  0  0
  6  7  1  0  0  0  0
  8  6  1  0  0  0  0
  9 11  2  0  0  0  0
 10  9  1  0  0  0  0
 10  6  2  0  0  0  0
 11  7  1  0  0  0  0
 12  2  1  0  0  0  0
 13 18  1  6  0  0  0
 13 14  1  0  0  0  0
 13 12  1  0  0  0  0
 14 16  1  0  0  0  0
 15  2  1  6  0  0  0
 15  3  1  0  0  0  0
 17 16  1  6  0  0  0
 17 15  1  0  0  0  0
 17  1  1  0  0  0  0
 19 18  1  0  0  0  0
 20 18  2  0  0  0  0
 22 31  1  0  0  0  0
 23 30  1  0  0  0  0
 24 25  2  0  0  0  0
 24 29  1  0  0  0  0
 25 26  1  0  0  0  0
 26 22  2  0  0  0  0
 26 28  1  0  0  0  0
 27 28  1  0  0  0  0
 28 23  2  0  0  0  0
 29 27  2  0  0  0  0
 30 21  1  0  0  0  0
 31 30  2  0  0  0  0
 32 24  1  0  0  0  0
 33 32  2  0  0  0  0
 34 32  1  0  0  0  0
M  END
>  <MODEL>
7

>  <REMARK>
 VINA RESULT:      -7.4      3.458      5.243
  Name = 
  4 active torsions:
  status: ('A' for Active; 'I' for Inactive)
    1  A    between atoms: C_3  and  C_25
    2  A    between atoms: C_7  and  C_11
    3  A    between atoms: C_8  and  O_18
    4  A    between atoms: O_18  and  C_30
                            x       y       z     vdW  Elec       q    Type
                         _______ _______ _______ _____ _____    ______ ____

>  <TORSDO>
F 4

$$$$
=
 OpenBabel11062409463D

 34 39  0  0  1  0  0  0  0  0999 V2000
  159.7560  211.4300  153.5370 N   0  0  0  0  0  0  0  0  0  0  0  0
  158.2450  214.4530  151.6390 C   0  0  0  0  0  2  0  0  0  0  0  0
  158.5650  214.0670  154.0940 C   0  0  0  0  0  2  0  0  0  0  0  0
  161.2080  209.5990  154.3820 C   0  0  1  0  0  3  0  0  0  0  0  0
  160.0640  209.9990  153.4250 C   0  0  0  0  0  2  0  0  0  0  0  0
  160.4200  211.3950  155.9050 C   0  0  0  0  0  0  0  0  0  0  0  0
  160.2500  212.3910  157.2440 S   0  0  0  0  0  0  0  0  0  0  0  0
  160.9420  209.9980  155.8450 C   0  0  0  0  0  2  0  0  0  0  0  0
  159.3050  213.2840  155.1290 C   0  0  0  0  0  0  0  0  0  0  0  0
  159.8260  212.0250  154.8380 C   0  0  0  0  0  0  0  0  0  0  0  0
  159.4410  213.6620  156.4640 C   0  0  0  0  0  3  0  0  0  0  0  0
  158.7170  214.2310  150.1970 C   0  0  0  0  0  2  0  0  0  0  0  0
  160.2200  213.9360  150.0920 C   0  0  1  0  0  3  0  0  0  0  0  0
  160.6180  212.5130  150.5290 C   0  0  0  0  0  2  0  0  0  0  0  0
  159.0270  213.6620  152.6900 C   0  0  1  0  0  3  0  0  0  0  0  0
  159.4580  211.6790  151.0860 C   0  0  0  0  0  2  0  0  0  0  0  0
  158.9920  212.1200  152.4850 C   0  0  1  0  0  3  0  0  0  0  0  0
  160.7070  214.2030  148.7070 C   0  0  0  0  0  0  0  0  0  0  0  0
  162.0550  214.4530  148.4910 O   0  0  0  0  0  1  0  0  0  0  0  0
  159.9080  214.2000  147.7330 O   0  0  0  0  0  0  0  0  0  0  0  0
  161.5200  208.2080  154.2700 O   0  0  0  0  0  0  0  0  0  0  0  0
  161.1260  205.3010  152.0160 C   0  0  0  0  0  3  0  0  0  0  0  0
  161.6030  208.0550  151.8200 C   0  0  0  0  0  3  0  0  0  0  0  0
  161.3660  205.7070  148.3400 C   0  0  0  0  0  0  0  0  0  0  0  0
  161.2070  205.1140  149.6020 C   0  0  0  0  0  3  0  0  0  0  0  0
  161.2840  205.8910  150.7600 C   0  0  0  0  0  0  0  0  0  0  0  0
  161.6830  207.8700  149.4070 C   0  0  0  0  0  3  0  0  0  0  0  0
  161.5230  207.2790  150.6620 C   0  0  0  0  0  0  0  0  0  0  0  0
  161.6050  207.0860  148.2520 C   0  0  0  0  0  3  0  0  0  0  0  0
  161.4450  207.4620  153.0840 C   0  0  0  0  0  0  0  0  0  0  0  0
  161.2060  206.0850  153.1720 C   0  0  0  0  0  3  0  0  0  0  0  0
  161.2840  204.8860  147.1190 C   0  0  0  0  0  0  0  0  0  0  0  0
  160.9940  205.4170  146.0140 O   0  0  0  0  0  0  0  0  0  0  0  0
  161.5320  203.4830  147.1730 N   0  0  0  0  0  1  0  0  0  0  0  0
  1 10  1  0  0  0  0
  3  9  1  0  0  0  0
  4 21  1  1  0  0  0
  4  8  1  0  0  0  0
  5  1  1  0  0  0  0
  5  4  1  0  0  0  0
  6  7  1  0  0  0  0
  8  6  1  0  0  0  0
  9 11  2  0  0  0  0
 10  9  1  0  0  0  0
 10  6  2  0  0  0  0
 11  7  1  0  0  0  0
 12  2  1  0  0  0  0
 13 18  1  6  0  0  0
 13 12  1  0  0  0  0
 13 14  1  0  0  0  0
 14 16  1  0  0  0  0
 15  2  1  6  0  0  0
 15  3  1  0  0  0  0
 17 16  1  6  0  0  0
 17 15  1  0  0  0  0
 17  1  1  0  0  0  0
 19 18  1  0  0  0  0
 20 18  2  0  0  0  0
 22 31  1  0  0  0  0
 23 30  1  0  0  0  0
 24 25  2  0  0  0  0
 25 26  1  0  0  0  0
 26 22  2  0  0  0  0
 27 28  1  0  0  0  0
 28 26  1  0  0  0  0
 28 23  2  0  0  0  0
 29 24  1  0  0  0  0
 29 27  2  0  0  0  0
 30 31  2  0  0  0  0
 30 21  1  0  0  0  0
 32 34  1  0  0  0  0
 32 24  1  0  0  0  0
 33 32  2  0  0  0  0
M  END
>  <MODEL>
8

>  <REMARK>
 VINA RESULT:      -6.9      3.029      4.761
  Name = 
  4 active torsions:
  status: ('A' for Active; 'I' for Inactive)
    1  A    between atoms: C_3  and  C_25
    2  A    between atoms: C_7  and  C_11
    3  A    between atoms: C_8  and  O_18
    4  A    between atoms: O_18  and  C_30
                            x       y       z     vdW  Elec       q    Type
                         _______ _______ _______ _____ _____    ______ ____

>  <TORSDO>
F 4

$$$$
=
 OpenBabel11062409463D

 34 39  0  0  1  0  0  0  0  0999 V2000
  160.9900  209.0430  152.7100 N   0  0  0  0  0  0  0  0  0  0  0  0
  160.0850  212.4260  154.3740 C   0  0  0  0  0  2  0  0  0  0  0  0
  161.1680  211.9350  152.1680 C   0  0  0  0  0  2  0  0  0  0  0  0
  160.9690  206.7570  151.7370 C   0  0  1  0  0  3  0  0  0  0  0  0
  161.2500  207.6240  152.9830 C   0  0  0  0  0  2  0  0  0  0  0  0
  161.6240  208.7140  150.3570 C   0  0  0  0  0  0  0  0  0  0  0  0
  162.0160  209.6800  149.0430 S   0  0  0  0  0  0  0  0  0  0  0  0
  161.7290  207.2310  150.4850 C   0  0  0  0  0  2  0  0  0  0  0  0
  161.3910  210.9030  151.1110 C   0  0  0  0  0  0  0  0  0  0  0  0
  161.3310  209.5440  151.4120 C   0  0  0  0  0  0  0  0  0  0  0  0
  161.7810  211.1800  149.8010 C   0  0  0  0  0  3  0  0  0  0  0  0
  159.1050  212.0180  155.4810 C   0  0  0  0  0  2  0  0  0  0  0  0
  157.9890  211.0870  154.9880 C   0  0  1  0  0  3  0  0  0  0  0  0
  158.4410  209.6350  154.7400 C   0  0  0  0  0  2  0  0  0  0  0  0
  160.2860  211.3680  153.2860 C   0  0  1  0  0  3  0  0  0  0  0  0
  159.9440  209.4030  154.9320 C   0  0  0  0  0  2  0  0  0  0  0  0
  160.8130  210.0030  153.8130 C   0  0  1  0  0  3  0  0  0  0  0  0
  156.8350  211.1110  155.9330 C   0  0  0  0  0  0  0  0  0  0  0  0
  155.6440  210.4950  155.5770 O   0  0  0  0  0  0  0  0  0  0  0  0
  156.9330  211.6830  157.0520 O   0  0  0  0  0  1  0  0  0  0  0  0
  161.2100  205.3730  152.0010 O   0  0  0  0  0  0  0  0  0  0  0  0
  160.8050  201.9820  150.5770 C   0  0  0  0  0  3  0  0  0  0  0  0
  161.2470  204.5960  149.6710 C   0  0  0  0  0  3  0  0  0  0  0  0
  160.9690  201.4320  146.9160 C   0  0  0  0  0  0  0  0  0  0  0  0
  160.8410  201.1830  148.2900 C   0  0  0  0  0  3  0  0  0  0  0  0
  160.9320  202.2310  149.2090 C   0  0  0  0  0  0  0  0  0  0  0  0
  161.2830  203.7990  147.3840 C   0  0  0  0  0  3  0  0  0  0  0  0
  161.1540  203.5490  148.7530 C   0  0  0  0  0  0  0  0  0  0  0  0
  161.1910  202.7440  146.4710 C   0  0  0  0  0  3  0  0  0  0  0  0
  161.1210  204.3470  151.0480 C   0  0  0  0  0  0  0  0  0  0  0  0
  160.8990  203.0380  151.4910 C   0  0  0  0  0  3  0  0  0  0  0  0
  160.8720  200.3250  145.9480 C   0  0  0  0  0  0  0  0  0  0  0  0
  160.1530  200.4400  144.9200 O   0  0  0  0  0  0  0  0  0  0  0  0
  161.5910  199.1130  146.1630 N   0  0  0  0  0  1  0  0  0  0  0  0
  1  5  1  0  0  0  0
  1 17  1  0  0  0  0
  2 12  1  0  0  0  0
  4 21  1  1  0  0  0
  4  5  1  0  0  0  0
  6  8  1  0  0  0  0
  6 10  2  0  0  0  0
  7 11  1  0  0  0  0
  7  6  1  0  0  0  0
  8  4  1  0  0  0  0
  9 10  1  0  0  0  0
  9  3  1  0  0  0  0
 10  1  1  0  0  0  0
 11  9  2  0  0  0  0
 13 12  1  0  0  0  0
 13 18  1  1  0  0  0
 14 16  1  0  0  0  0
 14 13  1  0  0  0  0
 15  3  1  6  0  0  0
 15 17  1  0  0  0  0
 15  2  1  0  0  0  0
 17 16  1  1  0  0  0
 18 20  1  0  0  0  0
 19 18  2  0  0  0  0
 22 31  1  0  0  0  0
 23 30  1  0  0  0  0
 24 25  2  0  0  0  0
 25 26  1  0  0  0  0
 26 22  2  0  0  0  0
 27 28  1  0  0  0  0
 28 26  1  0  0  0  0
 28 23  2  0  0  0  0
 29 24  1  0  0  0  0
 29 27  2  0  0  0  0
 30 31  2  0  0  0  0
 30 21  1  0  0  0  0
 32 34  1  0  0  0  0
 32 24  1  0  0  0  0
 33 32  2  0  0  0  0
M  END
>  <MODEL>
9

>  <REMARK>
 VINA RESULT:      -6.7      1.941      2.964
  Name = 
  4 active torsions:
  status: ('A' for Active; 'I' for Inactive)
    1  A    between atoms: C_3  and  C_25
    2  A    between atoms: C_7  and  C_11
    3  A    between atoms: C_8  and  O_18
    4  A    between atoms: O_18  and  C_30
                            x       y       z     vdW  Elec       q    Type
                         _______ _______ _______ _____ _____    ______ ____

>  <TORSDO>
F 4

$$$$
