=
 OpenBabel11062408073D

 34 39  0  0  1  0  0  0  0  0999 V2000
  161.1840  204.2180  150.6790 C   0  0  0  0  0  0  0  0  0  0  0  0
  160.8200  205.3690  148.5530 C   0  0  0  0  0  0  0  0  0  0  0  0
  161.2370  206.6740  150.7520 C   0  0  0  0  0  0  0  0  0  0  0  0
  161.4000  209.1000  150.9650 C   0  0  0  0  0  0  0  0  0  0  0  0
  161.3700  203.0550  148.4610 C   0  0  0  0  0  3  0  0  0  0  0  0
  161.1720  204.1790  147.8440 N   0  0  0  0  0  0  0  0  0  0  0  0
  161.9560  208.1010  148.7760 C   0  0  0  0  0  3  0  0  0  0  0  0
  161.1150  205.4560  150.0060 C   0  0  1  0  0  3  0  0  0  0  0  0
  162.2870  209.2880  148.2760 C   0  0  0  0  0  3  0  0  0  0  0  0
  161.5040  210.4770  150.3700 C   0  0  0  0  0  3  0  0  0  0  0  0
  161.1280  202.9080  149.9400 C   0  0  0  0  0  2  0  0  0  0  0  0
  161.1720  206.6040  152.1770 C   0  0  0  0  0  0  0  0  0  0  0  0
  161.1720  204.1760  152.0680 C   0  0  0  0  0  3  0  0  0  0  0  0
  160.1690  206.2670  147.9580 O   0  0  0  0  0  0  0  0  0  0  0  0
  161.2170  208.9910  152.3010 N   0  0  0  0  0  0  0  0  0  0  0  0
  161.1400  207.7970  152.9420 C   0  0  0  0  0  0  0  0  0  0  0  0
  162.1660  210.4760  149.0660 N   0  0  0  0  0  0  0  0  0  0  0  0
  161.4680  207.9470  150.1610 C   0  0  0  0  0  0  0  0  0  0  0  0
  161.1400  205.3520  152.8030 C   0  0  0  0  0  3  0  0  0  0  0  0
  161.7580  208.7270  156.5610 C   0  0  0  0  0  0  0  0  0  0  0  0
  160.8800  207.8750  157.2340 C   0  0  0  0  0  3  0  0  0  0  0  0
  161.0120  207.8280  154.4240 C   0  0  0  0  0  0  0  0  0  0  0  0
  160.0750  206.9920  156.5110 C   0  0  0  0  0  3  0  0  0  0  0  0
  161.8270  208.6990  155.1660 C   0  0  0  0  0  3  0  0  0  0  0  0
  160.1450  206.9660  155.1150 C   0  0  0  0  0  3  0  0  0  0  0  0
  162.5450  209.5790  157.2610 F   0  0  0  0  0  0  0  0  0  0  0  0
  162.6390  211.7410  148.5300 C   0  0  0  0  0  2  0  0  0  0  0  0
  161.2890  212.9590  148.5000 S   0  0  0  0  0  0  0  0  0  0  0  0
  162.4850  213.3300  145.1980 N   0  0  0  0  0  1  0  0  0  0  0  0
  161.3560  213.7260  146.0210 C   0  0  2  0  0  3  0  0  0  0  0  0
  158.9900  213.7410  145.8970 C   0  0  0  0  0  2  0  0  0  0  0  0
  159.4460  212.5510  146.7120 C   0  0  0  0  0  2  0  0  0  0  0  0
  160.9030  212.5900  146.8170 N   0  0  0  0  0  0  0  0  0  0  0  0
  160.2130  214.1670  145.1410 C   0  0  0  0  0  2  0  0  0  0  0  0
  1 13  2  0  0  0  0
  3 12  1  0  0  0  0
  4 15  1  0  0  0  0
  5 11  1  0  0  0  0
  6  5  2  0  0  0  0
  6  2  1  0  0  0  0
  7 18  1  0  0  0  0
  8  2  1  1  0  0  0
  8  1  1  0  0  0  0
  8  3  1  0  0  0  0
  9  7  2  0  0  0  0
  9 17  1  0  0  0  0
 10  4  2  0  0  0  0
 11  1  1  0  0  0  0
 12 19  2  0  0  0  0
 12 16  1  0  0  0  0
 13 19  1  0  0  0  0
 14  2  2  0  0  0  0
 15 16  2  0  0  0  0
 16 22  1  0  0  0  0
 17 10  1  0  0  0  0
 18  3  2  0  0  0  0
 18  4  1  0  0  0  0
 20 21  1  0  0  0  0
 20 26  1  0  0  0  0
 22 25  2  0  0  0  0
 22 24  1  0  0  0  0
 23 21  2  0  0  0  0
 24 20  2  0  0  0  0
 25 23  1  0  0  0  0
 27 17  1  0  0  0  0
 28 27  1  0  0  0  0
 30 29  1  6  0  0  0
 30 33  1  0  0  0  0
 31 32  1  0  0  0  0
 32 33  1  0  0  0  0
 33 28  1  0  0  0  0
 34 31  1  0  0  0  0
 34 30  1  0  0  0  0
M  END
>  <MODEL>
1

>  <REMARK>
 VINA RESULT:     -10.3      0.000      0.000
  Name = 
  4 active torsions:
  status: ('A' for Active; 'I' for Inactive)
    1  A    between atoms: C_3  and  S_13
    2  A    between atoms: C_3  and  N_29
    3  A    between atoms: C_12  and  C_28
    4  A    between atoms: S_13  and  N_33
                            x       y       z     vdW  Elec       q    Type
                         _______ _______ _______ _____ _____    ______ ____

>  <TORSDO>
F 4

$$$$
=
 OpenBabel11062408073D

 34 39  0  0  1  0  0  0  0  0999 V2000
  160.6720  207.9230  154.9510 C   0  0  0  0  0  0  0  0  0  0  0  0
  161.6740  210.0920  154.4330 C   0  0  0  0  0  0  0  0  0  0  0  0
  161.3130  208.2910  152.6060 C   0  0  0  0  0  0  0  0  0  0  0  0
  161.8180  208.5430  150.2320 C   0  0  0  0  0  0  0  0  0  0  0  0
  160.5070  209.8930  156.4990 C   0  0  0  0  0  3  0  0  0  0  0  0
  161.1110  210.6420  155.6270 N   0  0  0  0  0  0  0  0  0  0  0  0
  161.3450  210.5910  151.5270 C   0  0  0  0  0  3  0  0  0  0  0  0
  161.1950  208.7710  153.9520 C   0  0  0  0  0  0  0  0  0  0  0  0
  161.4480  211.3480  150.4390 C   0  0  0  0  0  3  0  0  0  0  0  0
  162.2040  209.3760  149.0420 C   0  0  0  0  0  3  0  0  0  0  0  0
  160.4660  208.3950  156.3650 C   0  0  0  0  0  2  0  0  0  0  0  0
  161.1320  206.8940  152.3690 C   0  0  1  0  0  3  0  0  0  0  0  0
  160.4570  206.5760  154.6810 C   0  0  0  0  0  3  0  0  0  0  0  0
  162.6390  210.6840  153.8820 O   0  0  0  0  0  0  0  0  0  0  0  0
  161.7530  207.2000  150.0800 N   0  0  0  0  0  0  0  0  0  0  0  0
  161.3860  206.3590  151.0810 C   0  0  0  0  0  0  0  0  0  0  0  0
  161.7800  210.7700  149.1720 N   0  0  0  0  0  0  0  0  0  0  0  0
  161.5490  209.1290  151.4820 C   0  0  0  0  0  0  0  0  0  0  0  0
  160.7090  206.0680  153.4170 C   0  0  0  0  0  3  0  0  0  0  0  0
  160.9550  203.1750  149.0760 C   0  0  0  0  0  0  0  0  0  0  0  0
  161.0050  202.1960  150.0710 C   0  0  0  0  0  3  0  0  0  0  0  0
  161.2860  204.9110  150.7510 C   0  0  0  0  0  0  0  0  0  0  0  0
  161.1850  202.5670  151.4050 C   0  0  0  0  0  3  0  0  0  0  0  0
  161.0880  204.5240  149.4150 C   0  0  0  0  0  3  0  0  0  0  0  0
  161.3200  203.9170  151.7420 C   0  0  0  0  0  3  0  0  0  0  0  0
  160.7720  202.8170  147.7820 F   0  0  0  0  0  0  0  0  0  0  0  0
  161.7760  211.6050  147.9830 C   0  0  0  0  0  2  0  0  0  0  0  0
  160.7010  213.0510  148.2300 S   0  0  0  0  0  0  0  0  0  0  0  0
  160.5090  212.6200  144.7300 N   0  0  0  0  0  1  0  0  0  0  0  0
  159.8940  213.4020  145.7880 C   0  0  2  0  0  3  0  0  0  0  0  0
  157.7200  213.9900  146.5250 C   0  0  0  0  0  2  0  0  0  0  0  0
  158.2530  212.8570  147.3740 C   0  0  0  0  0  2  0  0  0  0  0  0
  159.6120  212.5470  146.9350 N   0  0  0  0  0  0  0  0  0  0  0  0
  158.5890  213.9810  145.3020 C   0  0  0  0  0  2  0  0  0  0  0  0
  1 11  1  0  0  0  0
  2  6  1  0  0  0  0
  3  8  1  0  0  0  0
  4 18  1  0  0  0  0
  6  5  2  0  0  0  0
  8  2  1  0  0  0  0
  8  1  2  0  0  0  0
  9  7  2  0  0  0  0
 10 17  1  0  0  0  0
 10  4  2  0  0  0  0
 11  5  1  0  0  0  0
 12  3  1  0  0  0  0
 12 19  1  1  0  0  0
 13  1  1  0  0  0  0
 14  2  2  0  0  0  0
 15  4  1  0  0  0  0
 15 16  2  0  0  0  0
 16 12  1  0  0  0  0
 17  9  1  0  0  0  0
 18  7  1  0  0  0  0
 18  3  2  0  0  0  0
 19 13  2  0  0  0  0
 20 24  2  0  0  0  0
 20 21  1  0  0  0  0
 21 23  2  0  0  0  0
 22 16  1  0  0  0  0
 22 25  2  0  0  0  0
 23 25  1  0  0  0  0
 24 22  1  0  0  0  0
 26 20  1  0  0  0  0
 27 28  1  0  0  0  0
 27 17  1  0  0  0  0
 30 29  1  6  0  0  0
 30 33  1  0  0  0  0
 31 32  1  0  0  0  0
 33 32  1  0  0  0  0
 33 28  1  0  0  0  0
 34 30  1  0  0  0  0
 34 31  1  0  0  0  0
M  END
>  <MODEL>
2

>  <REMARK>
 VINA RESULT:      -9.4      2.735      5.418
  Name = 
  4 active torsions:
  status: ('A' for Active; 'I' for Inactive)
    1  A    between atoms: C_3  and  S_13
    2  A    between atoms: C_3  and  N_29
    3  A    between atoms: C_12  and  C_28
    4  A    between atoms: S_13  and  N_33
                            x       y       z     vdW  Elec       q    Type
                         _______ _______ _______ _____ _____    ______ ____

>  <TORSDO>
F 4

$$$$
=
 OpenBabel11062408073D

 34 39  0  0  1  0  0  0  0  0999 V2000
  161.1400  205.1430  151.8750 C   0  0  0  0  0  0  0  0  0  0  0  0
  160.8060  205.7330  149.5250 C   0  0  0  0  0  0  0  0  0  0  0  0
  161.2470  207.5370  151.3310 C   0  0  0  0  0  0  0  0  0  0  0  0
  161.4640  209.9360  150.9320 C   0  0  0  0  0  0  0  0  0  0  0  0
  161.3050  203.4580  150.0200 C   0  0  0  0  0  3  0  0  0  0  0  0
  161.1340  204.3960  149.1390 N   0  0  0  0  0  0  0  0  0  0  0  0
  162.0030  208.4090  149.0670 C   0  0  0  0  0  3  0  0  0  0  0  0
  161.1000  206.1740  150.9130 C   0  0  1  0  0  3  0  0  0  0  0  0
  162.3620  209.4260  148.2890 C   0  0  0  0  0  3  0  0  0  0  0  0
  161.6010  211.1170  150.0130 C   0  0  0  0  0  3  0  0  0  0  0  0
  161.0560  203.6910  151.4850 C   0  0  0  0  0  2  0  0  0  0  0  0
  161.1780  207.8270  152.7280 C   0  0  0  0  0  0  0  0  0  0  0  0
  161.1230  205.4500  153.2300 C   0  0  0  0  0  3  0  0  0  0  0  0
  160.1770  206.4670  148.7190 O   0  0  0  0  0  0  0  0  0  0  0  0
  161.2760  210.1680  152.2520 N   0  0  0  0  0  0  0  0  0  0  0  0
  161.1700  209.1740  153.1710 C   0  0  0  0  0  0  0  0  0  0  0  0
  162.2650  210.7760  148.7560 N   0  0  0  0  0  0  0  0  0  0  0  0
  161.5080  208.6170  150.4430 C   0  0  0  0  0  0  0  0  0  0  0  0
  161.1160  206.7720  153.6470 C   0  0  0  0  0  3  0  0  0  0  0  0
  159.6340  210.3950  156.4090 C   0  0  0  0  0  0  0  0  0  0  0  0
  160.7400  210.4310  157.2600 C   0  0  0  0  0  3  0  0  0  0  0  0
  161.0390  209.5770  154.5970 C   0  0  0  0  0  0  0  0  0  0  0  0
  161.9970  210.0520  156.7850 C   0  0  0  0  0  3  0  0  0  0  0  0
  159.7840  209.9770  155.0850 C   0  0  0  0  0  3  0  0  0  0  0  0
  162.1450  209.6320  155.4600 C   0  0  0  0  0  3  0  0  0  0  0  0
  158.4150  210.7710  156.8660 F   0  0  0  0  0  0  0  0  0  0  0  0
  162.7680  211.8570  147.9240 C   0  0  0  0  0  2  0  0  0  0  0  0
  161.6880  213.3140  148.0610 S   0  0  0  0  0  0  0  0  0  0  0  0
  161.4880  212.9490  144.5540 N   0  0  0  0  0  1  0  0  0  0  0  0
  160.8160  213.6430  145.6380 C   0  0  2  0  0  3  0  0  0  0  0  0
  158.6060  214.0000  146.4150 C   0  0  0  0  0  2  0  0  0  0  0  0
  159.2580  212.9040  147.2290 C   0  0  0  0  0  2  0  0  0  0  0  0
  160.6340  212.7370  146.7670 N   0  0  0  0  0  0  0  0  0  0  0  0
  159.4540  214.1040  145.1820 C   0  0  0  0  0  2  0  0  0  0  0  0
  1 13  2  0  0  0  0
  3 12  1  0  0  0  0
  4 15  1  0  0  0  0
  5 11  1  0  0  0  0
  6  2  1  0  0  0  0
  6  5  2  0  0  0  0
  7 18  1  0  0  0  0
  8  2  1  1  0  0  0
  8  3  1  0  0  0  0
  8  1  1  0  0  0  0
  9 17  1  0  0  0  0
  9  7  2  0  0  0  0
 10  4  2  0  0  0  0
 11  1  1  0  0  0  0
 12 16  1  0  0  0  0
 12 19  2  0  0  0  0
 13 19  1  0  0  0  0
 14  2  2  0  0  0  0
 15 16  2  0  0  0  0
 16 22  1  0  0  0  0
 17 10  1  0  0  0  0
 18  4  1  0  0  0  0
 18  3  2  0  0  0  0
 20 26  1  0  0  0  0
 20 21  1  0  0  0  0
 22 24  1  0  0  0  0
 22 25  2  0  0  0  0
 23 21  2  0  0  0  0
 24 20  2  0  0  0  0
 25 23  1  0  0  0  0
 27 28  1  0  0  0  0
 27 17  1  0  0  0  0
 30 29  1  6  0  0  0
 30 33  1  0  0  0  0
 31 32  1  0  0  0  0
 33 32  1  0  0  0  0
 33 28  1  0  0  0  0
 34 30  1  0  0  0  0
 34 31  1  0  0  0  0
M  END
>  <MODEL>
3

>  <REMARK>
 VINA RESULT:      -9.2      1.331      1.689
  Name = 
  4 active torsions:
  status: ('A' for Active; 'I' for Inactive)
    1  A    between atoms: C_3  and  S_13
    2  A    between atoms: C_3  and  N_29
    3  A    between atoms: C_12  and  C_28
    4  A    between atoms: S_13  and  N_33
                            x       y       z     vdW  Elec       q    Type
                         _______ _______ _______ _____ _____    ______ ____

>  <TORSDO>
F 4

$$$$
=
 OpenBabel11062408073D

 34 39  0  0  1  0  0  0  0  0999 V2000
  160.8590  207.1740  153.6010 C   0  0  0  0  0  0  0  0  0  0  0  0
  161.6130  209.4790  153.9140 C   0  0  0  0  0  0  0  0  0  0  0  0
  161.4280  208.4170  151.5580 C   0  0  0  0  0  0  0  0  0  0  0  0
  161.8750  209.5480  149.4410 C   0  0  0  0  0  0  0  0  0  0  0  0
  160.4990  208.4370  155.7420 C   0  0  0  0  0  3  0  0  0  0  0  0
  161.0080  209.5060  155.2090 N   0  0  0  0  0  0  0  0  0  0  0  0
  161.1970  210.9400  151.3650 C   0  0  0  0  0  3  0  0  0  0  0  0
  161.2750  208.3720  152.9830 C   0  0  0  0  0  0  0  0  0  0  0  0
  161.2040  212.0410  150.6190 C   0  0  0  0  0  3  0  0  0  0  0  0
  162.1540  210.7860  148.6350 C   0  0  0  0  0  3  0  0  0  0  0  0
  160.6200  207.0880  155.0840 C   0  0  0  0  0  2  0  0  0  0  0  0
  161.3980  207.1850  150.8360 C   0  0  1  0  0  3  0  0  0  0  0  0
  160.7880  205.9970  152.8660 C   0  0  0  0  0  3  0  0  0  0  0  0
  162.5010  210.3270  153.6350 O   0  0  0  0  0  0  0  0  0  0  0  0
  161.9540  208.3470  148.8220 N   0  0  0  0  0  0  0  0  0  0  0  0
  161.6920  207.1720  149.4490 C   0  0  0  0  0  0  0  0  0  0  0  0
  161.5820  211.9890  149.2380 N   0  0  0  0  0  0  0  0  0  0  0  0
  161.5580  209.6200  150.8100 C   0  0  0  0  0  0  0  0  0  0  0  0
  161.0800  206.0000  151.5100 C   0  0  0  0  0  3  0  0  0  0  0  0
  162.3660  204.8500  146.5350 C   0  0  0  0  0  0  0  0  0  0  0  0
  161.8070  203.6510  146.9830 C   0  0  0  0  0  3  0  0  0  0  0  0
  161.7470  205.9340  148.6250 C   0  0  0  0  0  0  0  0  0  0  0  0
  161.2090  203.5900  148.2430 C   0  0  0  0  0  3  0  0  0  0  0  0
  162.3310  205.9850  147.3480 C   0  0  0  0  0  3  0  0  0  0  0  0
  161.1760  204.7260  149.0560 C   0  0  0  0  0  3  0  0  0  0  0  0
  162.9400  204.9130  145.3090 F   0  0  0  0  0  0  0  0  0  0  0  0
  161.4730  213.1860  148.4230 C   0  0  0  0  0  2  0  0  0  0  0  0
  162.3440  212.9550  146.8430 S   0  0  0  0  0  0  0  0  0  0  0  0
  158.8450  212.5780  146.5510 N   0  0  0  0  0  1  0  0  0  0  0  0
  160.0550  212.3560  145.7780 C   0  0  2  0  0  3  0  0  0  0  0  0
  160.8770  212.8100  143.6030 C   0  0  0  0  0  2  0  0  0  0  0  0
  161.4240  213.8320  144.5740 C   0  0  0  0  0  2  0  0  0  0  0  0
  160.9450  213.5030  145.9140 N   0  0  0  0  0  0  0  0  0  0  0  0
  159.7060  212.2040  144.3180 C   0  0  0  0  0  2  0  0  0  0  0  0
  1 11  1  0  0  0  0
  2  6  1  0  0  0  0
  3  8  1  0  0  0  0
  4 18  1  0  0  0  0
  6  5  2  0  0  0  0
  8  1  2  0  0  0  0
  8  2  1  0  0  0  0
  9  7  2  0  0  0  0
 10 17  1  0  0  0  0
 10  4  2  0  0  0  0
 11  5  1  0  0  0  0
 12 19  1  1  0  0  0
 12  3  1  0  0  0  0
 13  1  1  0  0  0  0
 14  2  2  0  0  0  0
 15  4  1  0  0  0  0
 15 16  2  0  0  0  0
 16 12  1  0  0  0  0
 17  9  1  0  0  0  0
 18  7  1  0  0  0  0
 18  3  2  0  0  0  0
 19 13  2  0  0  0  0
 20 21  2  0  0  0  0
 20 24  1  0  0  0  0
 21 23  1  0  0  0  0
 22 25  1  0  0  0  0
 22 16  1  0  0  0  0
 23 25  2  0  0  0  0
 24 22  2  0  0  0  0
 26 20  1  0  0  0  0
 27 17  1  0  0  0  0
 28 27  1  0  0  0  0
 30 33  1  0  0  0  0
 30 29  1  1  0  0  0
 31 34  1  0  0  0  0
 31 32  1  0  0  0  0
 32 33  1  0  0  0  0
 33 28  1  0  0  0  0
 34 30  1  0  0  0  0
M  END
>  <MODEL>
4

>  <REMARK>
 VINA RESULT:      -9.2      2.960      5.720
  Name = 
  4 active torsions:
  status: ('A' for Active; 'I' for Inactive)
    1  A    between atoms: C_3  and  S_13
    2  A    between atoms: C_3  and  N_29
    3  A    between atoms: C_12  and  C_28
    4  A    between atoms: S_13  and  N_33
                            x       y       z     vdW  Elec       q    Type
                         _______ _______ _______ _____ _____    ______ ____

>  <TORSDO>
F 4

$$$$
=
 OpenBabel11062408073D

 34 39  0  0  1  0  0  0  0  0999 V2000
  160.9810  206.0600  152.7260 C   0  0  0  0  0  0  0  0  0  0  0  0
  161.7450  208.2820  153.4020 C   0  0  0  0  0  0  0  0  0  0  0  0
  161.4630  207.6430  150.9070 C   0  0  0  0  0  0  0  0  0  0  0  0
  161.8210  209.1260  149.0030 C   0  0  0  0  0  0  0  0  0  0  0  0
  160.7090  206.9310  155.0660 C   0  0  0  0  0  3  0  0  0  0  0  0
  161.1940  208.0800  154.7060 N   0  0  0  0  0  0  0  0  0  0  0  0
  161.2220  210.1590  151.1640 C   0  0  0  0  0  3  0  0  0  0  0  0
  161.3690  207.3500  152.3080 C   0  0  0  0  0  0  0  0  0  0  0  0
  161.1970  211.3730  150.6210 C   0  0  0  0  0  3  0  0  0  0  0  0
  162.0650  210.4870  148.4120 C   0  0  0  0  0  3  0  0  0  0  0  0
  160.8030  205.7170  154.1800 C   0  0  0  0  0  2  0  0  0  0  0  0
  161.4040  206.5540  149.9850 C   0  0  1  0  0  3  0  0  0  0  0  0
  160.8810  205.0270  151.8010 C   0  0  0  0  0  3  0  0  0  0  0  0
  162.6200  209.1730  153.2390 O   0  0  0  0  0  0  0  0  0  0  0  0
  161.8750  208.0520  148.1820 N   0  0  0  0  0  0  0  0  0  0  0  0
  161.6410  206.7840  148.6060 C   0  0  0  0  0  0  0  0  0  0  0  0
  161.5170  211.5630  149.2380 N   0  0  0  0  0  0  0  0  0  0  0  0
  161.5610  208.9580  150.3750 C   0  0  0  0  0  0  0  0  0  0  0  0
  161.1150  205.2680  150.4560 C   0  0  0  0  0  3  0  0  0  0  0  0
  161.6540  203.3300  147.0520 C   0  0  0  0  0  0  0  0  0  0  0  0
  161.7830  203.6240  145.6930 C   0  0  0  0  0  3  0  0  0  0  0  0
  161.6620  205.7080  147.5780 C   0  0  0  0  0  0  0  0  0  0  0  0
  161.8610  204.9530  145.2710 C   0  0  0  0  0  3  0  0  0  0  0  0
  161.6000  204.3660  147.9880 C   0  0  0  0  0  3  0  0  0  0  0  0
  161.8060  205.9870  146.2100 C   0  0  0  0  0  3  0  0  0  0  0  0
  161.5850  202.0410  147.4630 F   0  0  0  0  0  0  0  0  0  0  0  0
  161.3740  212.8830  148.6470 C   0  0  0  0  0  2  0  0  0  0  0  0
  160.2150  212.8250  147.2460 S   0  0  0  0  0  0  0  0  0  0  0  0
  159.2090  214.3540  150.2650 N   0  0  0  0  0  1  0  0  0  0  0  0
  158.6320  213.6790  149.1160 C   0  0  2  0  0  3  0  0  0  0  0  0
  156.8740  214.0120  147.5620 C   0  0  0  0  0  2  0  0  0  0  0  0
  158.1880  214.4230  146.9360 C   0  0  0  0  0  2  0  0  0  0  0  0
  159.2610  214.1620  147.8920 N   0  0  0  0  0  0  0  0  0  0  0  0
  157.1560  213.9800  149.0360 C   0  0  0  0  0  2  0  0  0  0  0  0
  1 11  1  0  0  0  0
  2  6  1  0  0  0  0
  3  8  1  0  0  0  0
  4 18  1  0  0  0  0
  6  5  2  0  0  0  0
  8  1  2  0  0  0  0
  8  2  1  0  0  0  0
  9  7  2  0  0  0  0
 10  4  2  0  0  0  0
 10 17  1  0  0  0  0
 11  5  1  0  0  0  0
 12 19  1  1  0  0  0
 12  3  1  0  0  0  0
 13  1  1  0  0  0  0
 14  2  2  0  0  0  0
 15 16  2  0  0  0  0
 15  4  1  0  0  0  0
 16 12  1  0  0  0  0
 17  9  1  0  0  0  0
 18  3  2  0  0  0  0
 18  7  1  0  0  0  0
 19 13  2  0  0  0  0
 20 26  1  0  0  0  0
 20 24  1  0  0  0  0
 21 20  2  0  0  0  0
 22 24  2  0  0  0  0
 22 16  1  0  0  0  0
 23 21  1  0  0  0  0
 23 25  2  0  0  0  0
 25 22  1  0  0  0  0
 27 17  1  0  0  0  0
 28 33  1  0  0  0  0
 28 27  1  0  0  0  0
 30 29  1  1  0  0  0
 31 34  1  0  0  0  0
 32 31  1  0  0  0  0
 32 33  1  0  0  0  0
 33 30  1  0  0  0  0
 34 30  1  0  0  0  0
M  END
>  <MODEL>
5

>  <REMARK>
 VINA RESULT:      -7.4      3.053      5.916
  Name = 
  4 active torsions:
  status: ('A' for Active; 'I' for Inactive)
    1  A    between atoms: C_3  and  S_13
    2  A    between atoms: C_3  and  N_29
    3  A    between atoms: C_12  and  C_28
    4  A    between atoms: S_13  and  N_33
                            x       y       z     vdW  Elec       q    Type
                         _______ _______ _______ _____ _____    ______ ____

>  <TORSDO>
F 4

$$$$
