=
 OpenBabel11062408383D

 55 59  0  0  1  0  0  0  0  0999 V2000
  160.9380  203.5730  150.8690 C   0  0  0  0  0  2  0  0  0  0  0  0
  161.1530  209.3640  150.9150 C   0  0  0  0  0  2  0  0  0  0  0  0
  160.9920  209.9130  148.0820 O   0  0  0  0  0  1  0  0  0  0  0  0
  161.5720  206.1390  145.9510 C   0  0  0  0  0  2  0  0  0  0  0  0
  162.5870  206.1640  144.8060 C   0  0  0  0  0  2  0  0  0  0  0  0
  163.1370  204.6600  147.3110 C   0  0  1  0  0  3  0  0  0  0  0  0
  164.1420  204.6940  146.1560 C   0  0  0  0  0  2  0  0  0  0  0  0
  160.7130  207.5730  148.4590 C   0  0  0  0  0  2  0  0  0  0  0  0
  163.4340  204.8890  144.8050 C   0  0  0  0  0  2  0  0  0  0  0  0
  162.7120  204.5160  152.3620 C   0  0  0  0  0  3  0  0  0  0  0  0
  162.3230  205.9740  147.2780 C   0  0  2  0  0  3  0  0  0  0  0  0
  161.0040  206.6000  153.1460 C   0  0  0  0  0  0  0  0  0  0  0  0
  161.3650  203.9940  149.4690 C   0  0  1  0  0  3  0  0  0  0  0  0
  160.5550  205.6170  152.2610 C   0  0  0  0  0  3  0  0  0  0  0  0
  161.6170  202.8570  148.4630 C   0  0  2  0  0  3  0  0  0  0  0  0
  161.8050  209.6900  152.2440 C   0  0  0  0  0  2  0  0  0  0  0  0
  162.2400  203.4160  147.1630 C   0  0  0  0  0  2  0  0  0  0  0  0
  162.2300  208.9820  149.9140 C   0  0  0  0  0  2  0  0  0  0  0  0
  161.6580  208.7670  148.5140 C   0  0  2  0  0  3  0  0  0  0  0  0
  163.1630  205.4900  153.2530 C   0  0  0  0  0  3  0  0  0  0  0  0
  160.7380  209.9660  153.2890 C   0  0  1  0  0  3  0  0  0  0  0  0
  161.4020  204.5730  151.8720 C   0  0  0  0  0  0  0  0  0  0  0  0
  161.4760  206.2560  148.5390 C   0  0  2  0  0  3  0  0  0  0  0  0
  160.5290  205.1270  148.9010 C   0  0  0  0  0  2  0  0  0  0  0  0
  160.5720  208.7820  154.2320 C   0  0  0  0  0  2  0  0  0  0  0  0
  160.1320  207.6340  153.5130 O   0  0  0  0  0  0  0  0  0  0  0  0
  162.3120  206.5300  153.6440 C   0  0  0  0  0  3  0  0  0  0  0  0
  159.9130  202.2810  146.7790 C   0  0  0  0  0  2  0  0  0  0  0  0
  161.1700  200.2400  145.9860 C   0  0  2  0  0  3  0  0  0  0  0  0
  160.5610  200.6460  148.4000 C   0  0  0  0  0  2  0  0  0  0  0  0
  161.5820  200.0210  147.4430 C   0  0  0  0  0  2  0  0  0  0  0  0
  160.8960  201.7220  145.7410 C   0  0  0  0  0  2  0  0  0  0  0  0
  160.3840  202.0860  148.1630 N   0  0  1  0  0  0  0  0  0  0  0  0
  159.9740  199.3770  145.5870 C   0  0  0  0  0  3  0  0  0  0  0  0
  160.3980  198.1070  145.2040 O   0  0  0  0  0  1  0  0  0  0  0  0
  159.3010  199.9750  144.5210 O   0  0  0  0  0  1  0  0  0  0  0  0
  161.0980  211.1030  154.0190 O   0  0  0  0  0  0  0  0  0  0  0  0
  161.1090  210.7050  155.3180 N   0  0  0  0  0  0  0  0  0  0  0  0
  163.3490  210.9420  154.7080 F   0  0  0  0  0  0  0  0  0  0  0  0
  162.4910  210.7660  155.7810 C   0  0  0  0  0  3  0  0  0  0  0  0
  162.8230  209.5880  156.4290 F   0  0  0  0  0  0  0  0  0  0  0  0
  160.3610  211.7030  156.0780 C   0  0  0  0  0  2  0  0  0  0  0  0
  159.9370  212.8490  155.1680 C   0  0  0  0  0  2  0  0  0  0  0  0
  157.7160  214.0980  155.2790 N   0  0  0  0  0  2  0  0  0  0  0  0
  158.9970  213.8050  155.8470 C   0  0  0  0  0  0  0  0  0  0  0  0
  159.3080  214.3220  156.9560 O   0  0  0  0  0  0  0  0  0  0  0  0
  157.1880  213.4320  154.0980 C   0  0  2  0  0  3  0  0  0  0  0  0
  156.9890  214.4520  152.9870 C   0  0  0  0  0  2  0  0  0  0  0  0
  157.8030  214.0930  151.7560 C   0  0  0  0  0  3  0  0  0  0  0  0
  158.5320  212.7970  152.0100 C   0  0  0  0  0  1  0  0  0  0  0  0
  156.8900  213.9210  150.5540 C   0  0  0  0  0  1  0  0  0  0  0  0
  155.8910  212.6730  154.4190 C   0  0  0  0  0  2  0  0  0  0  0  0
  156.1280  211.2400  154.7750 C   0  0  0  0  0  0  0  0  0  0  0  0
  155.1540  210.4900  155.0740 O   0  0  0  0  0  0  0  0  0  0  0  0
  157.4500  210.7140  154.7420 N   0  0  0  0  0  1  0  0  0  0  0  0
  1 22  1  0  0  0  0
  2 16  1  0  0  0  0
  5  4  1  0  0  0  0
  6  7  1  6  0  0  0
  8 19  1  0  0  0  0
  9  5  1  0  0  0  0
  9  7  1  0  0  0  0
 10 20  1  0  0  0  0
 11  4  1  6  0  0  0
 11  6  1  0  0  0  0
 11 23  1  0  0  0  0
 12 26  1  0  0  0  0
 12 27  1  0  0  0  0
 13 24  1  6  0  0  0
 13  1  1  0  0  0  0
 14 12  2  0  0  0  0
 15 17  1  6  0  0  0
 15 13  1  0  0  0  0
 16 21  1  0  0  0  0
 17  6  1  0  0  0  0
 18  2  1  0  0  0  0
 19  3  1  1  0  0  0
 19 18  1  0  0  0  0
 20 27  2  0  0  0  0
 21 37  1  1  0  0  0
 21 25  1  0  0  0  0
 22 14  1  0  0  0  0
 22 10  2  0  0  0  0
 23  8  1  6  0  0  0
 23 24  1  0  0  0  0
 26 25  1  0  0  0  0
 29 34  1  1  0  0  0
 29 31  1  0  0  0  0
 31 30  1  0  0  0  0
 32 29  1  0  0  0  0
 32 28  1  0  0  0  0
 33 28  1  6  0  0  0
 33 30  1  0  0  0  0
 33 15  1  0  0  0  0
 35 34  1  0  0  0  0
 36 34  1  0  0  0  0
 37 38  1  0  0  0  0
 38 40  1  0  0  0  0
 38 42  1  0  0  0  0
 39 40  1  0  0  0  0
 40 41  1  0  0  0  0
 43 45  1  0  0  0  0
 43 42  1  0  0  0  0
 44 45  1  0  0  0  0
 45 46  2  0  0  0  0
 47 48  1  6  0  0  0
 47 52  1  0  0  0  0
 47 44  1  0  0  0  0
 49 50  1  0  0  0  0
 49 48  1  0  0  0  0
 51 49  1  0  0  0  0
 52 53  1  0  0  0  0
 53 54  2  0  0  0  0
 55 53  1  0  0  0  0
M  END
>  <MODEL>
1

>  <REMARK>
 VINA RESULT:       0.1      0.000      0.000
  Name = 
  13 active torsions:
  status: ('A' for Active; 'I' for Inactive)
    1  A    between atoms: C_1  and  C_53
    2  A    between atoms: N_3  and  C_38
    3  A    between atoms: C_6  and  C_12
    4  A    between atoms: C_6  and  C_46
    5  A    between atoms: O_8  and  N_22
    6  A    between atoms: O_8  and  C_43
    7  A    between atoms: C_10  and  C_32
    8  A    between atoms: C_11  and  C_29
    9  A    between atoms: C_20  and  N_22
   10  A    between atoms: N_22  and  C_46
   11  A    between atoms: C_29  and  C_38
   12  A    between atoms: C_33  and  N_52
   13  A    between atoms: C_38  and  C_53
                            x       y       z     vdW  Elec       q    Type
                         _______ _______ _______ _____ _____    ______ ____

>  <TORSDO>
F 13

$$$$
=
 OpenBabel11062408383D

 55 59  0  0  1  0  0  0  0  0999 V2000
  160.9370  203.5240  150.8420 C   0  0  0  0  0  2  0  0  0  0  0  0
  161.0880  209.3150  150.7170 C   0  0  0  0  0  2  0  0  0  0  0  0
  160.9450  209.7780  147.8670 O   0  0  0  0  0  1  0  0  0  0  0  0
  161.5830  205.9490  145.8540 C   0  0  0  0  0  2  0  0  0  0  0  0
  162.6070  205.9520  144.7170 C   0  0  0  0  0  2  0  0  0  0  0  0
  163.1530  204.5290  147.2690 C   0  0  1  0  0  3  0  0  0  0  0  0
  164.1670  204.5390  146.1220 C   0  0  0  0  0  2  0  0  0  0  0  0
  160.6880  207.4470  148.3110 C   0  0  0  0  0  2  0  0  0  0  0  0
  163.4680  204.6870  144.7610 C   0  0  0  0  0  2  0  0  0  0  0  0
  162.6890  204.5310  152.3200 C   0  0  0  0  0  3  0  0  0  0  0  0
  162.3250  205.8320  147.1920 C   0  0  2  0  0  3  0  0  0  0  0  0
  160.9520  206.6180  153.0280 C   0  0  0  0  0  0  0  0  0  0  0  0
  161.3710  203.9080  149.4330 C   0  0  1  0  0  3  0  0  0  0  0  0
  160.5200  205.6040  152.1690 C   0  0  0  0  0  3  0  0  0  0  0  0
  161.6440  202.7440  148.4640 C   0  0  2  0  0  3  0  0  0  0  0  0
  161.7260  209.6890  152.0400 C   0  0  0  0  0  2  0  0  0  0  0  0
  162.2710  203.2710  147.1520 C   0  0  0  0  0  2  0  0  0  0  0  0
  162.1780  208.9160  149.7350 C   0  0  0  0  0  2  0  0  0  0  0  0
  161.6200  208.6540  148.3380 C   0  0  2  0  0  3  0  0  0  0  0  0
  163.1220  205.5360  153.1850 C   0  0  0  0  0  3  0  0  0  0  0  0
  160.6480  209.9840  153.0680 C   0  0  1  0  0  3  0  0  0  0  0  0
  161.3820  204.5590  151.8180 C   0  0  0  0  0  0  0  0  0  0  0  0
  161.4650  206.1420  148.4360 C   0  0  2  0  0  3  0  0  0  0  0  0
  160.5270  205.0140  148.8250 C   0  0  0  0  0  2  0  0  0  0  0  0
  160.4870  208.8260  154.0450 C   0  0  0  0  0  2  0  0  0  0  0  0
  160.0660  207.6530  153.3570 O   0  0  0  0  0  0  0  0  0  0  0  0
  162.2570  206.5780  153.5380 C   0  0  0  0  0  3  0  0  0  0  0  0
  159.9030  202.1740  146.8150 C   0  0  0  0  0  2  0  0  0  0  0  0
  161.1860  200.1910  145.9220 C   0  0  2  0  0  3  0  0  0  0  0  0
  160.6410  200.5090  148.3650 C   0  0  0  0  0  2  0  0  0  0  0  0
  161.6480  199.9400  147.3590 C   0  0  0  0  0  2  0  0  0  0  0  0
  160.8680  201.6730  145.7310 C   0  0  0  0  0  2  0  0  0  0  0  0
  160.4210  201.9510  148.1770 N   0  0  1  0  0  0  0  0  0  0  0  0
  160.0000  199.3100  145.5330 C   0  0  0  0  0  3  0  0  0  0  0  0
  160.4360  198.0300  145.1980 O   0  0  0  0  0  1  0  0  0  0  0  0
  159.3410  199.8700  144.4390 O   0  0  0  0  0  1  0  0  0  0  0  0
  160.9900  211.1460  153.7660 O   0  0  0  0  0  0  0  0  0  0  0  0
  160.0480  211.2690  154.7390 N   0  0  0  0  0  0  0  0  0  0  0  0
  161.7480  211.7980  156.2490 F   0  0  0  0  0  0  0  0  0  0  0  0
  160.5490  212.2360  155.7090 C   0  0  0  0  0  3  0  0  0  0  0  0
  159.6310  212.3940  156.7340 F   0  0  0  0  0  0  0  0  0  0  0  0
  158.8670  211.8600  154.1190 C   0  0  0  0  0  2  0  0  0  0  0  0
  159.2770  212.9380  153.1240 C   0  0  0  0  0  2  0  0  0  0  0  0
  157.9730  214.4050  151.4940 N   0  0  0  0  0  2  0  0  0  0  0  0
  158.1590  213.8960  152.8190 C   0  0  0  0  0  0  0  0  0  0  0  0
  157.3390  214.2220  153.7210 O   0  0  0  0  0  0  0  0  0  0  0  0
  158.7540  213.9660  150.3470 C   0  0  2  0  0  3  0  0  0  0  0  0
  160.1920  214.4360  150.5020 C   0  0  0  0  0  2  0  0  0  0  0  0
  161.1450  213.5740  149.6920 C   0  0  0  0  0  3  0  0  0  0  0  0
  160.3650  212.4620  149.0370 C   0  0  0  0  0  1  0  0  0  0  0  0
  161.8200  214.4070  148.6150 C   0  0  0  0  0  1  0  0  0  0  0  0
  158.1300  214.4530  149.0300 C   0  0  0  0  0  2  0  0  0  0  0  0
  156.8420  213.7660  148.7060 C   0  0  0  0  0  0  0  0  0  0  0  0
  156.6190  212.5970  149.1360 O   0  0  0  0  0  0  0  0  0  0  0  0
  155.8520  214.4460  147.9430 N   0  0  0  0  0  1  0  0  0  0  0  0
  1 22  1  0  0  0  0
  2 16  1  0  0  0  0
  5  9  1  0  0  0  0
  5  4  1  0  0  0  0
  6  7  1  6  0  0  0
  8 19  1  0  0  0  0
  9  7  1  0  0  0  0
 10 20  1  0  0  0  0
 11  4  1  6  0  0  0
 11  6  1  0  0  0  0
 11 23  1  0  0  0  0
 12 26  1  0  0  0  0
 12 27  1  0  0  0  0
 13 24  1  6  0  0  0
 13  1  1  0  0  0  0
 14 12  2  0  0  0  0
 15 17  1  6  0  0  0
 15 13  1  0  0  0  0
 16 21  1  0  0  0  0
 17  6  1  0  0  0  0
 18  2  1  0  0  0  0
 19  3  1  1  0  0  0
 19 18  1  0  0  0  0
 20 27  2  0  0  0  0
 21 37  1  1  0  0  0
 21 25  1  0  0  0  0
 22 14  1  0  0  0  0
 22 10  2  0  0  0  0
 23  8  1  6  0  0  0
 23 24  1  0  0  0  0
 26 25  1  0  0  0  0
 29 34  1  1  0  0  0
 29 31  1  0  0  0  0
 31 30  1  0  0  0  0
 32 29  1  0  0  0  0
 32 28  1  0  0  0  0
 33 28  1  6  0  0  0
 33 30  1  0  0  0  0
 33 15  1  0  0  0  0
 35 34  1  0  0  0  0
 36 34  1  0  0  0  0
 37 38  1  0  0  0  0
 38 40  1  0  0  0  0
 40 39  1  0  0  0  0
 40 41  1  0  0  0  0
 42 38  1  0  0  0  0
 43 42  1  0  0  0  0
 44 45  1  0  0  0  0
 45 43  1  0  0  0  0
 45 46  2  0  0  0  0
 47 52  1  6  0  0  0
 47 48  1  0  0  0  0
 47 44  1  0  0  0  0
 49 48  1  0  0  0  0
 50 49  1  0  0  0  0
 51 49  1  0  0  0  0
 53 52  1  0  0  0  0
 53 54  2  0  0  0  0
 55 53  1  0  0  0  0
M  END
>  <MODEL>
2

>  <REMARK>
 VINA RESULT:       1.3      1.977      2.548
  Name = 
  13 active torsions:
  status: ('A' for Active; 'I' for Inactive)
    1  A    between atoms: C_1  and  C_53
    2  A    between atoms: N_3  and  C_38
    3  A    between atoms: C_6  and  C_12
    4  A    between atoms: C_6  and  C_46
    5  A    between atoms: O_8  and  N_22
    6  A    between atoms: O_8  and  C_43
    7  A    between atoms: C_10  and  C_32
    8  A    between atoms: C_11  and  C_29
    9  A    between atoms: C_20  and  N_22
   10  A    between atoms: N_22  and  C_46
   11  A    between atoms: C_29  and  C_38
   12  A    between atoms: C_33  and  N_52
   13  A    between atoms: C_38  and  C_53
                            x       y       z     vdW  Elec       q    Type
                         _______ _______ _______ _____ _____    ______ ____

>  <TORSDO>
F 13

$$$$
=
 OpenBabel11062408383D

 55 59  0  0  1  0  0  0  0  0999 V2000
  160.9580  203.7120  150.8710 C   0  0  0  0  0  2  0  0  0  0  0  0
  161.2190  209.4920  150.5340 C   0  0  0  0  0  2  0  0  0  0  0  0
  161.0780  209.8530  147.6700 O   0  0  0  0  0  1  0  0  0  0  0  0
  161.6390  205.9420  145.7970 C   0  0  0  0  0  2  0  0  0  0  0  0
  162.6600  205.8830  144.6590 C   0  0  0  0  0  2  0  0  0  0  0  0
  163.1850  204.5440  147.2610 C   0  0  1  0  0  3  0  0  0  0  0  0
  164.1970  204.4930  146.1130 C   0  0  0  0  0  2  0  0  0  0  0  0
  160.7780  207.5450  148.1990 C   0  0  0  0  0  2  0  0  0  0  0  0
  163.4980  204.6050  144.7480 C   0  0  0  0  0  2  0  0  0  0  0  0
  162.7320  204.7390  152.3090 C   0  0  0  0  0  3  0  0  0  0  0  0
  162.3820  205.8590  147.1370 C   0  0  2  0  0  3  0  0  0  0  0  0
  161.0360  206.8830  152.9420 C   0  0  0  0  0  0  0  0  0  0  0  0
  161.3960  204.0370  149.4490 C   0  0  1  0  0  3  0  0  0  0  0  0
  160.5840  205.8470  152.1220 C   0  0  0  0  0  3  0  0  0  0  0  0
  161.6450  202.8330  148.5220 C   0  0  2  0  0  3  0  0  0  0  0  0
  161.8670  209.9010  151.8420 C   0  0  0  0  0  2  0  0  0  0  0  0
  162.2790  203.3000  147.1910 C   0  0  0  0  0  2  0  0  0  0  0  0
  162.2990  209.0360  149.5660 C   0  0  0  0  0  2  0  0  0  0  0  0
  161.7330  208.7340  148.1810 C   0  0  2  0  0  3  0  0  0  0  0  0
  163.1860  205.7670  153.1360 C   0  0  0  0  0  3  0  0  0  0  0  0
  160.7960  210.2540  152.8600 C   0  0  1  0  0  3  0  0  0  0  0  0
  161.4250  204.7740  151.8080 C   0  0  0  0  0  0  0  0  0  0  0  0
  161.5310  206.2300  148.3710 C   0  0  2  0  0  3  0  0  0  0  0  0
  160.5720  205.1350  148.8010 C   0  0  0  0  0  2  0  0  0  0  0  0
  160.6160  209.1350  153.8790 C   0  0  0  0  0  2  0  0  0  0  0  0
  160.1710  207.9460  153.2350 O   0  0  0  0  0  0  0  0  0  0  0  0
  162.3410  206.8370  153.4520 C   0  0  0  0  0  3  0  0  0  0  0  0
  159.8580  202.2820  146.9170 C   0  0  0  0  0  2  0  0  0  0  0  0
  161.0960  200.2840  145.9940 C   0  0  2  0  0  3  0  0  0  0  0  0
  160.6150  200.6100  148.4490 C   0  0  0  0  0  2  0  0  0  0  0  0
  161.5900  200.0290  147.4190 C   0  0  0  0  0  2  0  0  0  0  0  0
  160.7900  201.7690  145.8090 C   0  0  0  0  0  2  0  0  0  0  0  0
  160.4070  202.0530  148.2660 N   0  0  1  0  0  0  0  0  0  0  0  0
  159.8910  199.4170  145.6350 C   0  0  0  0  0  3  0  0  0  0  0  0
  160.2970  198.1130  145.3580 O   0  0  0  0  0  1  0  0  0  0  0  0
  159.2520  199.9440  144.5140 O   0  0  0  0  0  1  0  0  0  0  0  0
  161.1620  211.4330  153.5160 O   0  0  0  0  0  0  0  0  0  0  0  0
  160.0030  211.9410  154.0120 N   0  0  0  0  0  0  0  0  0  0  0  0
  158.3840  211.9350  152.3300 F   0  0  0  0  0  0  0  0  0  0  0  0
  159.3660  212.6990  152.9400 C   0  0  0  0  0  3  0  0  0  0  0  0
  160.3080  213.0540  151.9900 F   0  0  0  0  0  0  0  0  0  0  0  0
  159.1320  210.8090  154.3100 C   0  0  0  0  0  2  0  0  0  0  0  0
  158.0520  211.2220  155.3020 C   0  0  0  0  0  2  0  0  0  0  0  0
  159.6860  211.1480  157.2600 N   0  0  0  0  0  2  0  0  0  0  0  0
  158.6240  211.8080  156.5630 C   0  0  0  0  0  0  0  0  0  0  0  0
  158.2060  212.9180  156.9940 O   0  0  0  0  0  0  0  0  0  0  0  0
  160.3560  209.9560  156.7630 C   0  0  2  0  0  3  0  0  0  0  0  0
  159.5930  208.7200  157.2140 C   0  0  0  0  0  2  0  0  0  0  0  0
  160.0000  207.4960  156.4110 C   0  0  0  0  0  3  0  0  0  0  0  0
  160.9570  206.6670  157.2310 C   0  0  0  0  0  1  0  0  0  0  0  0
  158.7790  206.6580  156.0750 C   0  0  0  0  0  1  0  0  0  0  0  0
  161.8260  209.9160  157.2070 C   0  0  0  0  0  2  0  0  0  0  0  0
  162.6100  211.0990  156.7350 C   0  0  0  0  0  0  0  0  0  0  0  0
  163.5180  210.9540  155.8660 O   0  0  0  0  0  0  0  0  0  0  0  0
  162.3060  212.3940  157.2390 N   0  0  0  0  0  1  0  0  0  0  0  0
  1 22  1  0  0  0  0
  2 16  1  0  0  0  0
  5  9  1  0  0  0  0
  5  4  1  0  0  0  0
  6  7  1  6  0  0  0
  9  7  1  0  0  0  0
 10 20  1  0  0  0  0
 11  4  1  6  0  0  0
 11  6  1  0  0  0  0
 11 23  1  0  0  0  0
 12 26  1  0  0  0  0
 12 27  1  0  0  0  0
 13 24  1  6  0  0  0
 13  1  1  0  0  0  0
 14 12  2  0  0  0  0
 15 17  1  6  0  0  0
 15 13  1  0  0  0  0
 16 21  1  0  0  0  0
 17  6  1  0  0  0  0
 18  2  1  0  0  0  0
 19  3  1  1  0  0  0
 19  8  1  0  0  0  0
 19 18  1  0  0  0  0
 20 27  2  0  0  0  0
 21 37  1  1  0  0  0
 21 25  1  0  0  0  0
 22 14  1  0  0  0  0
 22 10  2  0  0  0  0
 23  8  1  6  0  0  0
 23 24  1  0  0  0  0
 26 25  1  0  0  0  0
 29 34  1  1  0  0  0
 29 31  1  0  0  0  0
 31 30  1  0  0  0  0
 32 29  1  0  0  0  0
 32 28  1  0  0  0  0
 33 28  1  6  0  0  0
 33 30  1  0  0  0  0
 33 15  1  0  0  0  0
 35 34  1  0  0  0  0
 36 34  1  0  0  0  0
 37 38  1  0  0  0  0
 38 42  1  0  0  0  0
 39 40  1  0  0  0  0
 40 38  1  0  0  0  0
 41 40  1  0  0  0  0
 42 43  1  0  0  0  0
 43 45  1  0  0  0  0
 45 46  2  0  0  0  0
 45 44  1  0  0  0  0
 47 52  1  1  0  0  0
 47 48  1  0  0  0  0
 47 44  1  0  0  0  0
 49 48  1  0  0  0  0
 49 50  1  0  0  0  0
 51 49  1  0  0  0  0
 53 52  1  0  0  0  0
 53 55  1  0  0  0  0
 54 53  2  0  0  0  0
M  END
>  <MODEL>
3

>  <REMARK>
 VINA RESULT:       3.0      1.758      3.434
  Name = 
  13 active torsions:
  status: ('A' for Active; 'I' for Inactive)
    1  A    between atoms: C_1  and  C_53
    2  A    between atoms: N_3  and  C_38
    3  A    between atoms: C_6  and  C_12
    4  A    between atoms: C_6  and  C_46
    5  A    between atoms: O_8  and  N_22
    6  A    between atoms: O_8  and  C_43
    7  A    between atoms: C_10  and  C_32
    8  A    between atoms: C_11  and  C_29
    9  A    between atoms: C_20  and  N_22
   10  A    between atoms: N_22  and  C_46
   11  A    between atoms: C_29  and  C_38
   12  A    between atoms: C_33  and  N_52
   13  A    between atoms: C_38  and  C_53
                            x       y       z     vdW  Elec       q    Type
                         _______ _______ _______ _____ _____    ______ ____

>  <TORSDO>
F 13

$$$$
