=
 OpenBabel11062407513D

 34 38  0  0  1  0  0  0  0  0999 V2000
  161.1340  210.7340  150.9420 C   0  0  2  0  0  3  0  0  0  0  0  0
  159.9180  212.0450  152.7510 C   0  0  0  0  0  0  0  0  0  0  0  0
  159.1990  213.7120  154.3660 O   0  0  0  0  0  0  0  0  0  0  0  0
  161.4920  210.1630  153.4590 C   0  0  2  0  0  3  0  0  0  0  0  0
  162.0780  210.7350  157.2610 C   0  0  0  0  0  2  0  0  0  0  0  0
  159.1810  212.4670  151.8710 O   0  0  0  0  0  0  0  0  0  0  0  0
  160.8500  212.0630  155.0810 C   0  0  1  0  0  3  0  0  0  0  0  0
  157.4610  211.0780  153.8530 N   0  0  0  0  0  2  0  0  0  0  0  0
  157.9060  213.2580  154.6920 C   0  0  1  0  0  3  0  0  0  0  0  0
  158.3260  211.8200  154.7540 C   0  0  2  0  0  3  0  0  0  0  0  0
  161.1660  211.2590  152.3990 C   0  0  1  0  0  3  0  0  0  0  0  0
  161.8660  212.1290  157.2610 O   0  0  0  0  0  0  0  0  0  0  0  0
  162.4080  210.2350  155.8500 C   0  0  2  0  0  3  0  0  0  0  0  0
  155.1950  212.1010  155.0610 S   0  0  0  0  0  0  0  0  0  0  0  0
  160.8400  208.8380  153.1070 C   0  0  0  0  0  0  0  0  0  0  0  0
  156.2080  212.7450  156.4650 C   0  0  0  0  0  2  0  0  0  0  0  0
  161.5820  209.2740  150.8090 C   0  0  0  0  0  2  0  0  0  0  0  0
  159.6300  212.3770  154.2040 C   0  0  2  0  0  0  0  0  0  0  0  0
  163.5940  210.8250  155.4040 O   0  0  0  0  0  1  0  0  0  0  0  0
  160.6600  212.3670  156.5730 C   0  0  0  0  0  2  0  0  0  0  0  0
  161.2450  210.5920  154.9220 C   0  0  2  0  0  3  0  0  0  0  0  0
  160.8740  208.4360  151.8300 C   0  0  0  0  0  3  0  0  0  0  0  0
  157.3460  213.6940  156.0330 C   0  0  0  0  0  2  0  0  0  0  0  0
  156.3000  210.6770  154.6540 C   0  0  0  0  0  2  0  0  0  0  0  0
  161.9740  210.8890  148.8990 C   0  0  0  0  0  1  0  0  0  0  0  0
  161.9260  211.5470  150.1300 O   0  0  0  0  0  0  0  0  0  0  0  0
  160.0580  208.0400  154.1190 C   0  0  0  0  0  2  0  0  0  0  0  0
  160.7580  206.7570  154.5830 C   0  0  1  0  0  3  0  0  0  0  0  0
  161.5150  205.1890  152.7480 C   0  0  0  0  0  0  0  0  0  0  0  0
  162.5010  204.8020  151.8510 O   0  0  0  0  0  0  0  0  0  0  0  0
  161.7360  206.3120  153.6000 N   0  0  0  0  0  2  0  0  0  0  0  0
  160.4310  204.5480  152.7970 O   0  0  0  0  0  1  0  0  0  0  0  0
  159.9600  207.3910  157.0030 C   0  0  0  0  0  1  0  0  0  0  0  0
  161.5390  206.9640  156.2180 S   0  0  0  0  0  0  0  0  0  0  0  0
  1 26  1  6  0  0  0
  1 11  1  0  0  0  0
  3  9  1  0  0  0  0
  4 15  1  6  0  0  0
  4 21  1  0  0  0  0
  6  2  2  0  0  0  0
  7 20  1  1  0  0  0
  8 24  1  0  0  0  0
  9 10  1  0  0  0  0
  9 23  1  1  0  0  0
 10  8  1  6  0  0  0
 11  2  1  1  0  0  0
 11  4  1  0  0  0  0
 12  5  1  0  0  0  0
 13 19  1  6  0  0  0
 13  5  1  0  0  0  0
 14 16  1  0  0  0  0
 15 27  1  0  0  0  0
 17  1  1  0  0  0  0
 17 22  1  0  0  0  0
 18  2  1  6  0  0  0
 18  3  1  0  0  0  0
 18 10  1  0  0  0  0
 18  7  1  0  0  0  0
 20 12  1  0  0  0  0
 21  7  1  0  0  0  0
 21 13  1  0  0  0  0
 22 15  2  0  0  0  0
 23 16  1  0  0  0  0
 24 14  1  0  0  0  0
 25 26  1  0  0  0  0
 27 28  1  0  0  0  0
 28 34  1  0  0  0  0
 29 32  1  0  0  0  0
 29 31  1  0  0  0  0
 30 29  2  0  0  0  0
 31 28  1  0  0  0  0
 34 33  1  0  0  0  0
M  END
>  <MODEL>
1

>  <REMARK>
 VINA RESULT:      -2.8      0.000      0.000
  Name = 
  5 active torsions:
  status: ('A' for Active; 'I' for Inactive)
    1  A    between atoms: C_1  and  O_19
    2  A    between atoms: C_12  and  N_23
    3  A    between atoms: C_12  and  S_27
    4  A    between atoms: C_12  and  C_28
    5  A    between atoms: C_21  and  C_28
                            x       y       z     vdW  Elec       q    Type
                         _______ _______ _______ _____ _____    ______ ____

>  <TORSDO>
F 5

$$$$
=
 OpenBabel11062407513D

 34 38  0  0  1  0  0  0  0  0999 V2000
  161.1260  211.2240  156.5270 C   0  0  2  0  0  3  0  0  0  0  0  0
  161.7570  210.5360  154.1610 C   0  0  0  0  0  0  0  0  0  0  0  0
  162.7450  210.3580  151.9490 O   0  0  0  0  0  0  0  0  0  0  0  0
  159.6160  211.8840  154.5090 C   0  0  2  0  0  3  0  0  0  0  0  0
  158.6530  213.1510  150.9610 C   0  0  0  0  0  2  0  0  0  0  0  0
  162.5450  209.7450  154.6610 O   0  0  0  0  0  0  0  0  0  0  0  0
  160.8100  211.8190  152.2230 C   0  0  1  0  0  3  0  0  0  0  0  0
  160.6660  208.1640  152.9900 N   0  0  0  0  0  2  0  0  0  0  0  0
  162.3180  209.0780  151.5450 C   0  0  1  0  0  3  0  0  0  0  0  0
  160.9320  209.2680  152.0850 C   0  0  2  0  0  3  0  0  0  0  0  0
  161.0550  211.5710  155.0190 C   0  0  1  0  0  3  0  0  0  0  0  0
  159.9560  213.1660  150.4220 O   0  0  0  0  0  0  0  0  0  0  0  0
  158.6970  213.1690  152.4930 C   0  0  2  0  0  3  0  0  0  0  0  0
  161.3520  206.3110  151.0580 S   0  0  0  0  0  0  0  0  0  0  0  0
  158.5860  210.9810  155.1650 C   0  0  0  0  0  0  0  0  0  0  0  0
  161.3240  207.6240  149.7580 C   0  0  0  0  0  2  0  0  0  0  0  0
  159.7920  211.4070  157.2590 C   0  0  0  0  0  2  0  0  0  0  0  0
  161.5380  210.5400  152.6590 C   0  0  2  0  0  0  0  0  0  0  0  0
  159.3040  214.3470  152.9360 O   0  0  0  0  0  1  0  0  0  0  0  0
  160.5420  211.9200  150.7160 C   0  0  0  0  0  2  0  0  0  0  0  0
  159.4790  211.9440  152.9720 C   0  0  2  0  0  3  0  0  0  0  0  0
  158.6960  210.7470  156.4790 C   0  0  0  0  0  3  0  0  0  0  0  0
  162.2620  208.8150  150.0510 C   0  0  0  0  0  2  0  0  0  0  0  0
  160.0960  207.0970  152.1620 C   0  0  0  0  0  2  0  0  0  0  0  0
  163.2250  211.1550  157.2300 C   0  0  0  0  0  1  0  0  0  0  0  0
  162.1130  211.9960  157.1430 O   0  0  0  0  0  0  0  0  0  0  0  0
  157.5360  210.2540  154.3630 C   0  0  0  0  0  2  0  0  0  0  0  0
  156.1700  210.9480  154.3430 C   0  0  1  0  0  3  0  0  0  0  0  0
  154.8520  210.5680  156.4690 C   0  0  0  0  0  0  0  0  0  0  0  0
  153.9360  209.8000  157.1750 O   0  0  0  0  0  1  0  0  0  0  0  0
  155.1970  210.2050  155.1320 N   0  0  0  0  0  2  0  0  0  0  0  0
  155.3660  211.5820  157.0140 O   0  0  0  0  0  0  0  0  0  0  0  0
  155.1530  213.2560  153.6130 C   0  0  0  0  0  1  0  0  0  0  0  0
  156.2760  212.6760  154.9150 S   0  0  0  0  0  0  0  0  0  0  0  0
  1 26  1  1  0  0  0
  1 17  1  0  0  0  0
  2  6  2  0  0  0  0
  4 11  1  0  0  0  0
  4 15  1  6  0  0  0
  5 13  1  0  0  0  0
  7 20  1  6  0  0  0
  7 18  1  0  0  0  0
  7 21  1  0  0  0  0
  9 23  1  6  0  0  0
  9  3  1  0  0  0  0
  9 10  1  0  0  0  0
 10 18  1  0  0  0  0
 10  8  1  1  0  0  0
 11  2  1  6  0  0  0
 11  1  1  0  0  0  0
 12 20  1  0  0  0  0
 12  5  1  0  0  0  0
 13 19  1  6  0  0  0
 13 21  1  0  0  0  0
 14 24  1  0  0  0  0
 15 22  2  0  0  0  0
 16 23  1  0  0  0  0
 16 14  1  0  0  0  0
 18  3  1  6  0  0  0
 18  2  1  0  0  0  0
 21  4  1  0  0  0  0
 22 17  1  0  0  0  0
 24  8  1  0  0  0  0
 26 25  1  0  0  0  0
 27 15  1  0  0  0  0
 28 27  1  0  0  0  0
 28 34  1  0  0  0  0
 28 31  1  0  0  0  0
 29 32  2  0  0  0  0
 29 30  1  0  0  0  0
 31 29  1  0  0  0  0
 33 34  1  0  0  0  0
M  END
>  <MODEL>
2

>  <REMARK>
 VINA RESULT:      -0.6      2.383      6.647
  Name = 
  5 active torsions:
  status: ('A' for Active; 'I' for Inactive)
    1  A    between atoms: C_1  and  O_19
    2  A    between atoms: C_12  and  N_23
    3  A    between atoms: C_12  and  S_27
    4  A    between atoms: C_12  and  C_28
    5  A    between atoms: C_21  and  C_28
                            x       y       z     vdW  Elec       q    Type
                         _______ _______ _______ _____ _____    ______ ____

>  <TORSDO>
F 5

$$$$
=
 OpenBabel11062407513D

 34 38  0  0  1  0  0  0  0  0999 V2000
  161.5170  211.1600  156.4300 C   0  0  2  0  0  3  0  0  0  0  0  0
  161.9390  210.4480  154.0260 C   0  0  0  0  0  0  0  0  0  0  0  0
  162.7500  210.2300  151.7460 O   0  0  0  0  0  0  0  0  0  0  0  0
  159.8860  211.8780  154.5300 C   0  0  2  0  0  3  0  0  0  0  0  0
  158.7070  213.1820  151.0610 C   0  0  0  0  0  2  0  0  0  0  0  0
  162.7310  209.6260  154.4670 O   0  0  0  0  0  0  0  0  0  0  0  0
  160.8990  211.7660  152.1600 C   0  0  1  0  0  3  0  0  0  0  0  0
  160.6710  208.1200  152.9490 N   0  0  0  0  0  2  0  0  0  0  0  0
  162.2430  208.9680  151.3790 C   0  0  1  0  0  3  0  0  0  0  0  0
  160.9100  209.2120  152.0220 C   0  0  2  0  0  3  0  0  0  0  0  0
  161.3460  211.5090  154.9310 C   0  0  1  0  0  3  0  0  0  0  0  0
  159.9650  213.1450  150.4250 O   0  0  0  0  0  0  0  0  0  0  0  0
  158.8670  213.1980  152.5850 C   0  0  2  0  0  3  0  0  0  0  0  0
  161.1350  206.2410  150.9760 S   0  0  0  0  0  0  0  0  0  0  0  0
  158.8740  211.0170  155.2650 C   0  0  0  0  0  0  0  0  0  0  0  0
  161.0610  207.5540  149.6780 C   0  0  0  0  0  2  0  0  0  0  0  0
  160.2500  211.3960  157.2610 C   0  0  0  0  0  2  0  0  0  0  0  0
  161.6080  210.4590  152.5440 C   0  0  2  0  0  0  0  0  0  0  0  0
  159.5520  214.3520  152.9770 O   0  0  0  0  0  1  0  0  0  0  0  0
  160.5220  211.8770  150.6780 C   0  0  0  0  0  2  0  0  0  0  0  0
  159.6350  211.9440  153.0070 C   0  0  2  0  0  3  0  0  0  0  0  0
  159.0730  210.7790  156.5680 C   0  0  0  0  0  3  0  0  0  0  0  0
  162.0640  208.7060  149.8950 C   0  0  0  0  0  2  0  0  0  0  0  0
  159.9980  207.0750  152.1690 C   0  0  0  0  0  2  0  0  0  0  0  0
  163.5580  210.9430  157.2600 C   0  0  0  0  0  1  0  0  0  0  0  0
  162.5770  211.8930  156.9680 O   0  0  0  0  0  0  0  0  0  0  0  0
  157.7380  210.3320  154.5470 C   0  0  0  0  0  2  0  0  0  0  0  0
  156.3570  210.9240  154.8470 C   0  0  1  0  0  3  0  0  0  0  0  0
  155.5750  213.1550  153.9440 C   0  0  0  0  0  0  0  0  0  0  0  0
  155.1280  213.9060  152.8650 O   0  0  0  0  0  0  0  0  0  0  0  0
  155.9080  211.7790  153.7570 N   0  0  0  0  0  2  0  0  0  0  0  0
  155.6880  213.6960  155.0760 O   0  0  0  0  0  1  0  0  0  0  0  0
  154.6880  210.3650  156.7960 C   0  0  0  0  0  1  0  0  0  0  0  0
  155.1230  209.6280  155.1960 S   0  0  0  0  0  0  0  0  0  0  0  0
  1 26  1  1  0  0  0
  1 17  1  0  0  0  0
  2  6  2  0  0  0  0
  4 11  1  0  0  0  0
  4 15  1  6  0  0  0
  5 13  1  0  0  0  0
  7 20  1  6  0  0  0
  7 18  1  0  0  0  0
  7 21  1  0  0  0  0
  9 23  1  6  0  0  0
  9  3  1  0  0  0  0
  9 10  1  0  0  0  0
 10 18  1  0  0  0  0
 10  8  1  1  0  0  0
 11  2  1  6  0  0  0
 11  1  1  0  0  0  0
 12 20  1  0  0  0  0
 12  5  1  0  0  0  0
 13 19  1  6  0  0  0
 13 21  1  0  0  0  0
 14 24  1  0  0  0  0
 15 22  2  0  0  0  0
 16 23  1  0  0  0  0
 16 14  1  0  0  0  0
 18  3  1  6  0  0  0
 18  2  1  0  0  0  0
 21  4  1  0  0  0  0
 22 17  1  0  0  0  0
 24  8  1  0  0  0  0
 26 25  1  0  0  0  0
 27 28  1  0  0  0  0
 27 15  1  0  0  0  0
 28 34  1  0  0  0  0
 29 32  1  0  0  0  0
 30 29  2  0  0  0  0
 31 29  1  0  0  0  0
 31 28  1  0  0  0  0
 34 33  1  0  0  0  0
M  END
>  <MODEL>
3

>  <REMARK>
 VINA RESULT:      -0.4      2.353      6.632
  Name = 
  5 active torsions:
  status: ('A' for Active; 'I' for Inactive)
    1  A    between atoms: C_1  and  O_19
    2  A    between atoms: C_12  and  N_23
    3  A    between atoms: C_12  and  S_27
    4  A    between atoms: C_12  and  C_28
    5  A    between atoms: C_21  and  C_28
                            x       y       z     vdW  Elec       q    Type
                         _______ _______ _______ _____ _____    ______ ____

>  <TORSDO>
F 5

$$$$
=
 OpenBabel11062407513D

 34 38  0  0  1  0  0  0  0  0999 V2000
  160.8740  212.7130  156.0950 C   0  0  2  0  0  3  0  0  0  0  0  0
  159.0020  213.4740  154.5510 C   0  0  0  0  0  0  0  0  0  0  0  0
  156.9950  214.4530  153.5940 O   0  0  0  0  0  0  0  0  0  0  0  0
  158.9810  211.0650  155.3970 C   0  0  2  0  0  3  0  0  0  0  0  0
  155.3920  209.7760  154.6350 C   0  0  0  0  0  2  0  0  0  0  0  0
  159.6980  214.4420  154.2750 O   0  0  0  0  0  0  0  0  0  0  0  0
  156.8320  212.2130  154.5480 C   0  0  1  0  0  3  0  0  0  0  0  0
  159.1560  213.0080  151.7320 N   0  0  0  0  0  2  0  0  0  0  0  0
  157.2600  214.3600  152.2130 C   0  0  1  0  0  3  0  0  0  0  0  0
  157.8280  212.9760  152.3200 C   0  0  2  0  0  3  0  0  0  0  0  0
  159.3910  212.5420  155.6810 C   0  0  1  0  0  3  0  0  0  0  0  0
  154.7440  211.0270  154.6860 O   0  0  0  0  0  0  0  0  0  0  0  0
  156.7380  209.8300  155.3670 C   0  0  2  0  0  3  0  0  0  0  0  0
  158.1790  214.1220  149.3980 S   0  0  0  0  0  0  0  0  0  0  0  0
  160.0940  210.3050  154.6980 C   0  0  0  0  0  0  0  0  0  0  0  0
  156.4470  213.7490  149.9200 C   0  0  0  0  0  2  0  0  0  0  0  0
  161.6100  211.3840  156.2970 C   0  0  0  0  0  2  0  0  0  0  0  0
  157.6960  213.2460  153.8110 C   0  0  2  0  0  0  0  0  0  0  0  0
  156.5300  210.1220  156.7180 O   0  0  0  0  0  1  0  0  0  0  0  0
  155.4850  211.9130  153.8800 C   0  0  0  0  0  2  0  0  0  0  0  0
  157.6080  210.9020  154.7090 C   0  0  2  0  0  3  0  0  0  0  0  0
  161.3490  210.4830  155.1280 C   0  0  0  0  0  3  0  0  0  0  0  0
  156.0590  214.3570  151.2850 C   0  0  0  0  0  2  0  0  0  0  0  0
  158.9670  212.7190  150.3060 C   0  0  0  0  0  2  0  0  0  0  0  0
  159.8430  214.3240  157.2120 C   0  0  0  0  0  1  0  0  0  0  0  0
  160.9530  213.4790  157.2600 O   0  0  0  0  0  0  0  0  0  0  0  0
  159.8380  209.4650  153.4720 C   0  0  0  0  0  2  0  0  0  0  0  0
  161.0940  208.8130  152.8840 C   0  0  1  0  0  3  0  0  0  0  0  0
  161.1640  206.3550  153.4830 C   0  0  0  0  0  0  0  0  0  0  0  0
  160.9370  205.0380  153.1110 O   0  0  0  0  0  0  0  0  0  0  0  0
  160.8550  207.4100  152.5720 N   0  0  0  0  0  2  0  0  0  0  0  0
  161.6370  206.6080  154.6240 O   0  0  0  0  0  1  0  0  0  0  0  0
  162.2980  208.1760  150.6390 C   0  0  0  0  0  1  0  0  0  0  0  0
  161.6970  209.7040  151.4120 S   0  0  0  0  0  0  0  0  0  0  0  0
  1 17  1  0  0  0  0
  1 26  1  1  0  0  0
  4 15  1  6  0  0  0
  4 11  1  0  0  0  0
  5 12  1  0  0  0  0
  5 13  1  0  0  0  0
  6  2  2  0  0  0  0
  7 20  1  6  0  0  0
  7 21  1  0  0  0  0
  9 23  1  6  0  0  0
  9 10  1  0  0  0  0
  9  3  1  0  0  0  0
 10  8  1  1  0  0  0
 10 18  1  0  0  0  0
 11  2  1  6  0  0  0
 11  1  1  0  0  0  0
 13 19  1  1  0  0  0
 14 16  1  0  0  0  0
 14 24  1  0  0  0  0
 15 22  2  0  0  0  0
 16 23  1  0  0  0  0
 18  3  1  1  0  0  0
 18  7  1  0  0  0  0
 18  2  1  0  0  0  0
 20 12  1  0  0  0  0
 21 13  1  0  0  0  0
 21  4  1  0  0  0  0
 22 17  1  0  0  0  0
 24  8  1  0  0  0  0
 25 26  1  0  0  0  0
 27 15  1  0  0  0  0
 28 27  1  0  0  0  0
 29 32  1  0  0  0  0
 30 29  2  0  0  0  0
 31 28  1  0  0  0  0
 31 29  1  0  0  0  0
 33 34  1  0  0  0  0
 34 28  1  0  0  0  0
M  END
>  <MODEL>
4

>  <REMARK>
 VINA RESULT:       0.0      2.711      4.896
  Name = 
  5 active torsions:
  status: ('A' for Active; 'I' for Inactive)
    1  A    between atoms: C_1  and  O_19
    2  A    between atoms: C_12  and  N_23
    3  A    between atoms: C_12  and  S_27
    4  A    between atoms: C_12  and  C_28
    5  A    between atoms: C_21  and  C_28
                            x       y       z     vdW  Elec       q    Type
                         _______ _______ _______ _____ _____    ______ ____

>  <TORSDO>
F 5

$$$$
