=
 OpenBabel11062410313D

 43 46  0  0  1  0  0  0  0  0999 V2000
  159.8600  213.0340  148.1300 N   0  0  0  0  0  0  0  0  0  0  0  0
  160.8370  210.8340  147.6570 C   0  0  0  0  0  3  0  0  0  0  0  0
  161.3130  210.8050  148.9090 C   0  0  0  0  0  0  0  0  0  0  0  0
  160.2640  212.0990  147.0760 C   0  0  2  0  0  3  0  0  0  0  0  0
  160.5480  213.0180  149.3950 C   0  0  0  0  0  0  0  0  0  0  0  0
  161.2240  211.9670  149.7460 N   0  0  0  0  0  0  0  0  0  0  0  0
  163.1640  213.8950  144.4960 C   0  0  0  0  0  0  0  0  0  0  0  0
  160.9190  213.0990  144.8450 C   0  0  0  0  0  3  0  0  0  0  0  0
  163.4760  213.5510  145.7750 N   0  0  0  0  0  0  0  0  0  0  0  0
  164.1030  214.4530  143.6960 F   0  0  0  0  0  0  0  0  0  0  0  0
  161.2590  212.7450  146.1570 C   0  0  0  0  0  0  0  0  0  0  0  0
  161.8740  213.6770  144.0080 C   0  0  0  0  0  3  0  0  0  0  0  0
  162.5600  212.9840  146.6070 C   0  0  0  0  0  3  0  0  0  0  0  0
  162.0400  209.6000  149.4240 C   0  0  1  0  0  3  0  0  0  0  0  0
  162.3630  209.7450  150.9010 C   0  0  0  0  0  1  0  0  0  0  0  0
  161.2450  208.3980  149.2050 N   0  0  0  0  0  2  0  0  0  0  0  0
  161.7450  207.2640  148.4920 C   0  0  0  0  0  0  0  0  0  0  0  0
  162.9590  207.1990  148.1600 O   0  0  0  0  0  0  0  0  0  0  0  0
  160.8140  206.1790  148.0800 C   0  0  0  0  0  2  0  0  0  0  0  0
  161.5460  204.8400  148.0650 C   0  0  2  0  0  3  0  0  0  0  0  0
  160.8520  205.2110  145.6570 C   0  0  0  0  0  1  0  0  0  0  0  0
  161.6530  204.3450  146.6110 C   0  0  0  0  0  3  0  0  0  0  0  0
  163.0870  204.1900  146.1300 C   0  0  0  0  0  1  0  0  0  0  0  0
  160.8870  203.8520  149.0470 C   0  0  1  0  0  3  0  0  0  0  0  0
  160.4960  202.5500  148.3600 C   0  0  0  0  0  1  0  0  0  0  0  0
  161.8480  203.5360  150.1930 C   0  0  0  0  0  2  0  0  0  0  0  0
  161.6500  204.4650  151.3430 C   0  0  0  0  0  0  0  0  0  0  0  0
  162.1650  206.5500  152.4640 C   0  0  0  0  0  3  0  0  0  0  0  0
  160.6150  204.9850  153.4710 C   0  0  0  0  0  3  0  0  0  0  0  0
  161.3030  206.2020  153.5090 C   0  0  0  0  0  3  0  0  0  0  0  0
  160.7880  204.1160  152.3890 C   0  0  0  0  0  3  0  0  0  0  0  0
  162.3400  205.6820  151.3820 C   0  0  0  0  0  3  0  0  0  0  0  0
  158.8980  214.0780  147.8020 C   0  0  0  0  0  2  0  0  0  0  0  0
  157.5100  213.6730  148.2640 C   0  0  0  0  0  1  0  0  0  0  0  0
  160.5550  214.4530  150.4720 S   0  0  0  0  0  0  0  0  0  0  0  0
  157.5960  213.5110  153.1050 C   0  0  0  0  0  3  0  0  0  0  0  0
  157.9870  212.2560  153.5840 C   0  0  0  0  0  0  0  0  0  0  0  0
  159.9760  212.3630  152.1920 C   0  0  0  0  0  3  0  0  0  0  0  0
  158.3840  214.1870  152.1700 C   0  0  0  0  0  3  0  0  0  0  0  0
  159.5720  213.6100  151.7080 C   0  0  0  0  0  0  0  0  0  0  0  0
  159.1880  211.6870  153.1270 C   0  0  0  0  0  3  0  0  0  0  0  0
  156.2410  212.2840  155.3350 C   0  0  0  0  0  1  0  0  0  0  0  0
  157.1690  211.5980  154.5070 O   0  0  0  0  0  0  0  0  0  0  0  0
  1  5  1  0  0  0  0
  2  3  2  0  0  0  0
  3 14  1  0  0  0  0
  3  6  1  0  0  0  0
  4 11  1  6  0  0  0
  4  2  1  0  0  0  0
  4  1  1  0  0  0  0
  5  6  2  0  0  0  0
  5 35  1  0  0  0  0
  7  9  1  0  0  0  0
  8 11  2  0  0  0  0
  9 13  2  0  0  0  0
 10  7  1  0  0  0  0
 11 13  1  0  0  0  0
 12  7  2  0  0  0  0
 12  8  1  0  0  0  0
 14 15  1  1  0  0  0
 16 14  1  0  0  0  0
 17 16  1  0  0  0  0
 18 17  2  0  0  0  0
 19 17  1  0  0  0  0
 20 19  1  6  0  0  0
 20 24  1  0  0  0  0
 21 22  1  0  0  0  0
 22 20  1  0  0  0  0
 23 22  1  0  0  0  0
 24 25  1  6  0  0  0
 24 26  1  0  0  0  0
 26 27  1  0  0  0  0
 27 32  2  0  0  0  0
 27 31  1  0  0  0  0
 28 30  2  0  0  0  0
 29 30  1  0  0  0  0
 31 29  2  0  0  0  0
 32 28  1  0  0  0  0
 33  1  1  0  0  0  0
 33 34  1  0  0  0  0
 35 40  1  0  0  0  0
 36 37  1  0  0  0  0
 37 43  1  0  0  0  0
 38 41  1  0  0  0  0
 39 36  2  0  0  0  0
 40 39  1  0  0  0  0
 40 38  2  0  0  0  0
 41 37  2  0  0  0  0
 43 42  1  0  0  0  0
M  END
>  <MODEL>
1

>  <REMARK>
 VINA RESULT:      -5.7      0.000      0.000
  Name = 
  13 active torsions:
  status: ('A' for Active; 'I' for Inactive)
    1  A    between atoms: S_1  and  C_34
    2  A    between atoms: S_1  and  C_35
    3  A    between atoms: C_2  and  N_6
    4  A    between atoms: C_2  and  C_27
    5  A    between atoms: C_3  and  C_4
    6  A    between atoms: C_3  and  C_12
    7  A    between atoms: C_4  and  C_15
    8  A    between atoms: C_4  and  C_22
    9  A    between atoms: N_8  and  C_33
   10  A    between atoms: C_11  and  C_14
   11  A    between atoms: C_14  and  C_22
   12  A    between atoms: C_19  and  O_37
   13  A    between atoms: C_21  and  C_30
                            x       y       z     vdW  Elec       q    Type
                         _______ _______ _______ _____ _____    ______ ____

>  <TORSDO>
F 13

$$$$
=
 OpenBabel11062410313D

 43 46  0  0  1  0  0  0  0  0999 V2000
  160.9200  211.6770  155.1350 N   0  0  0  0  0  0  0  0  0  0  0  0
  162.1690  210.2710  153.5580 C   0  0  0  0  0  3  0  0  0  0  0  0
  161.3710  210.7120  152.5750 C   0  0  0  0  0  0  0  0  0  0  0  0
  161.8380  210.5410  155.0010 C   0  0  2  0  0  3  0  0  0  0  0  0
  159.9940  211.9690  154.0720 C   0  0  0  0  0  0  0  0  0  0  0  0
  160.2190  211.5100  152.8790 N   0  0  0  0  0  0  0  0  0  0  0  0
  160.1280  207.0250  156.7350 C   0  0  0  0  0  0  0  0  0  0  0  0
  161.8850  208.6700  156.7070 C   0  0  0  0  0  3  0  0  0  0  0  0
  159.5210  207.6660  155.7000 N   0  0  0  0  0  0  0  0  0  0  0  0
  159.5710  205.9080  157.2600 F   0  0  0  0  0  0  0  0  0  0  0  0
  161.2500  209.3160  155.6370 C   0  0  0  0  0  0  0  0  0  0  0  0
  161.3230  207.5200  157.2610 C   0  0  0  0  0  3  0  0  0  0  0  0
  160.0530  208.7890  155.1440 C   0  0  0  0  0  3  0  0  0  0  0  0
  161.6050  210.2940  151.1550 C   0  0  1  0  0  3  0  0  0  0  0  0
  162.5720  211.2360  150.4600 C   0  0  0  0  0  1  0  0  0  0  0  0
  162.1170  208.9310  151.1060 N   0  0  0  0  0  2  0  0  0  0  0  0
  162.0820  208.1380  149.9170 C   0  0  0  0  0  0  0  0  0  0  0  0
  161.7490  208.6490  148.8140 O   0  0  0  0  0  0  0  0  0  0  0  0
  162.3790  206.6810  149.9890 C   0  0  0  0  0  2  0  0  0  0  0  0
  161.1990  205.9370  150.6070 C   0  0  2  0  0  3  0  0  0  0  0  0
  162.1590  205.9230  152.9510 C   0  0  0  0  0  1  0  0  0  0  0  0
  161.7090  205.0760  151.7770 C   0  0  0  0  0  3  0  0  0  0  0  0
  160.7170  204.0120  152.2220 C   0  0  0  0  0  1  0  0  0  0  0  0
  160.4140  205.1730  149.5240 C   0  0  1  0  0  3  0  0  0  0  0  0
  160.2760  205.9890  148.2460 C   0  0  0  0  0  1  0  0  0  0  0  0
  161.1190  203.8580  149.1970 C   0  0  0  0  0  2  0  0  0  0  0  0
  161.3610  203.7180  147.7320 C   0  0  0  0  0  0  0  0  0  0  0  0
  162.4470  204.4820  145.7050 C   0  0  0  0  0  3  0  0  0  0  0  0
  160.9330  202.5930  145.6280 C   0  0  0  0  0  3  0  0  0  0  0  0
  161.8010  203.4770  144.9780 C   0  0  0  0  0  3  0  0  0  0  0  0
  160.7130  202.7130  147.0040 C   0  0  0  0  0  3  0  0  0  0  0  0
  162.2270  204.6040  147.0800 C   0  0  0  0  0  3  0  0  0  0  0  0
  160.8450  212.3630  156.4180 C   0  0  0  0  0  2  0  0  0  0  0  0
  159.6000  211.9310  157.1690 C   0  0  0  0  0  1  0  0  0  0  0  0
  158.4880  212.8950  154.3770 S   0  0  0  0  0  0  0  0  0  0  0  0
  159.4060  214.2200  150.6380 C   0  0  0  0  0  3  0  0  0  0  0  0
  158.1990  214.0740  149.9460 C   0  0  0  0  0  0  0  0  0  0  0  0
  157.1530  213.2460  151.9770 C   0  0  0  0  0  3  0  0  0  0  0  0
  159.4900  213.8770  151.9900 C   0  0  0  0  0  3  0  0  0  0  0  0
  158.3650  213.3840  152.6590 C   0  0  0  0  0  0  0  0  0  0  0  0
  157.0680  213.5910  150.6260 C   0  0  0  0  0  3  0  0  0  0  0  0
  158.5790  213.5260  147.5640 C   0  0  0  0  0  1  0  0  0  0  0  0
  158.1500  214.4100  148.5910 O   0  0  0  0  0  0  0  0  0  0  0  0
  1 33  1  0  0  0  0
  2  4  1  0  0  0  0
  3  6  1  0  0  0  0
  3  2  2  0  0  0  0
  4  1  1  0  0  0  0
  4 11  1  6  0  0  0
  5 35  1  0  0  0  0
  5  1  1  0  0  0  0
  6  5  2  0  0  0  0
  7 10  1  0  0  0  0
  7 12  1  0  0  0  0
  8 12  2  0  0  0  0
  9  7  2  0  0  0  0
 11  8  1  0  0  0  0
 13 11  2  0  0  0  0
 13  9  1  0  0  0  0
 14 15  1  1  0  0  0
 14  3  1  0  0  0  0
 16 14  1  0  0  0  0
 17 19  1  0  0  0  0
 17 16  1  0  0  0  0
 18 17  2  0  0  0  0
 20 19  1  6  0  0  0
 20 22  1  0  0  0  0
 22 23  1  0  0  0  0
 22 21  1  0  0  0  0
 24 25  1  6  0  0  0
 24 20  1  0  0  0  0
 26 24  1  0  0  0  0
 27 26  1  0  0  0  0
 28 32  2  0  0  0  0
 29 31  1  0  0  0  0
 30 29  2  0  0  0  0
 30 28  1  0  0  0  0
 31 27  2  0  0  0  0
 32 27  1  0  0  0  0
 33 34  1  0  0  0  0
 36 39  1  0  0  0  0
 37 41  1  0  0  0  0
 37 36  2  0  0  0  0
 38 40  1  0  0  0  0
 39 40  2  0  0  0  0
 40 35  1  0  0  0  0
 41 38  2  0  0  0  0
 42 43  1  0  0  0  0
 43 37  1  0  0  0  0
M  END
>  <MODEL>
2

>  <REMARK>
 VINA RESULT:      -4.4      3.746      7.153
  Name = 
  13 active torsions:
  status: ('A' for Active; 'I' for Inactive)
    1  A    between atoms: S_1  and  C_34
    2  A    between atoms: S_1  and  C_35
    3  A    between atoms: C_2  and  N_6
    4  A    between atoms: C_2  and  C_27
    5  A    between atoms: C_3  and  C_4
    6  A    between atoms: C_3  and  C_12
    7  A    between atoms: C_4  and  C_15
    8  A    between atoms: C_4  and  C_22
    9  A    between atoms: N_8  and  C_33
   10  A    between atoms: C_11  and  C_14
   11  A    between atoms: C_14  and  C_22
   12  A    between atoms: C_19  and  O_37
   13  A    between atoms: C_21  and  C_30
                            x       y       z     vdW  Elec       q    Type
                         _______ _______ _______ _____ _____    ______ ____

>  <TORSDO>
F 13

$$$$
=
 OpenBabel11062410313D

 43 46  0  0  1  0  0  0  0  0999 V2000
  159.5310  212.9070  147.1730 N   0  0  0  0  0  0  0  0  0  0  0  0
  160.5410  210.7290  146.6690 C   0  0  0  0  0  3  0  0  0  0  0  0
  161.1650  210.7730  147.8550 C   0  0  0  0  0  0  0  0  0  0  0  0
  159.8480  211.9440  146.1140 C   0  0  2  0  0  3  0  0  0  0  0  0
  160.3660  212.9730  148.3450 C   0  0  0  0  0  0  0  0  0  0  0  0
  161.1250  211.9650  148.6520 N   0  0  0  0  0  0  0  0  0  0  0  0
  162.1990  213.8380  143.0850 C   0  0  0  0  0  0  0  0  0  0  0  0
  162.0920  212.6300  145.1650 C   0  0  0  0  0  3  0  0  0  0  0  0
  160.8430  213.7830  142.9930 N   0  0  0  0  0  0  0  0  0  0  0  0
  162.9200  214.4520  142.1180 F   0  0  0  0  0  0  0  0  0  0  0  0
  160.6960  212.5880  145.0570 C   0  0  0  0  0  0  0  0  0  0  0  0
  162.8500  213.2570  144.1750 C   0  0  0  0  0  3  0  0  0  0  0  0
  160.0850  213.1780  143.9480 C   0  0  0  0  0  3  0  0  0  0  0  0
  162.0010  209.6210  148.3240 C   0  0  1  0  0  3  0  0  0  0  0  0
  162.8100  209.9960  149.5530 C   0  0  0  0  0  1  0  0  0  0  0  0
  161.1560  208.4700  148.6170 N   0  0  0  0  0  2  0  0  0  0  0  0
  161.6300  207.1240  148.5250 C   0  0  0  0  0  0  0  0  0  0  0  0
  162.8540  206.8860  148.3380 O   0  0  0  0  0  0  0  0  0  0  0  0
  160.6650  205.9930  148.5850 C   0  0  0  0  0  2  0  0  0  0  0  0
  161.2310  204.8690  149.4490 C   0  0  2  0  0  3  0  0  0  0  0  0
  161.3300  203.2980  147.4640 C   0  0  0  0  0  1  0  0  0  0  0  0
  160.7860  203.5170  148.8630 C   0  0  0  0  0  3  0  0  0  0  0  0
  161.1070  202.3330  149.7620 C   0  0  0  0  0  1  0  0  0  0  0  0
  160.8730  205.0910  150.9310 C   0  0  1  0  0  3  0  0  0  0  0  0
  160.6210  203.7750  151.6540 C   0  0  0  0  0  1  0  0  0  0  0  0
  162.0070  205.8330  151.6360 C   0  0  0  0  0  2  0  0  0  0  0  0
  161.4850  206.7630  152.6790 C   0  0  0  0  0  0  0  0  0  0  0  0
  160.5790  207.1290  154.8960 C   0  0  0  0  0  3  0  0  0  0  0  0
  160.8840  209.0010  153.3900 C   0  0  0  0  0  3  0  0  0  0  0  0
  160.4820  208.4990  154.6310 C   0  0  0  0  0  3  0  0  0  0  0  0
  161.3860  208.1340  152.4140 C   0  0  0  0  0  3  0  0  0  0  0  0
  161.0790  206.2620  153.9200 C   0  0  0  0  0  3  0  0  0  0  0  0
  158.4920  213.8970  146.9240 C   0  0  0  0  0  2  0  0  0  0  0  0
  157.1490  213.2120  146.7500 C   0  0  0  0  0  1  0  0  0  0  0  0
  160.4370  214.4530  149.3570 S   0  0  0  0  0  0  0  0  0  0  0  0
  159.4370  212.4380  152.7510 C   0  0  0  0  0  3  0  0  0  0  0  0
  158.0410  212.5330  152.7750 C   0  0  0  0  0  0  0  0  0  0  0  0
  158.1050  213.7650  150.6810 C   0  0  0  0  0  3  0  0  0  0  0  0
  160.1650  213.0090  151.7040 C   0  0  0  0  0  3  0  0  0  0  0  0
  159.5000  213.6770  150.6710 C   0  0  0  0  0  0  0  0  0  0  0  0
  157.3770  213.1940  151.7280 C   0  0  0  0  0  3  0  0  0  0  0  0
  156.2020  212.5820  154.4270 C   0  0  0  0  0  1  0  0  0  0  0  0
  157.3420  211.9660  153.8440 O   0  0  0  0  0  0  0  0  0  0  0  0
  1  5  1  0  0  0  0
  2  3  2  0  0  0  0
  3 14  1  0  0  0  0
  3  6  1  0  0  0  0
  4 11  1  6  0  0  0
  4  2  1  0  0  0  0
  4  1  1  0  0  0  0
  5  6  2  0  0  0  0
  5 35  1  0  0  0  0
  7 12  1  0  0  0  0
  9  7  2  0  0  0  0
  9 13  1  0  0  0  0
 10  7  1  0  0  0  0
 11  8  1  0  0  0  0
 12  8  2  0  0  0  0
 13 11  2  0  0  0  0
 14 16  1  0  0  0  0
 14 15  1  1  0  0  0
 17 19  1  0  0  0  0
 17 16  1  0  0  0  0
 18 17  2  0  0  0  0
 20 19  1  6  0  0  0
 20 24  1  0  0  0  0
 21 22  1  0  0  0  0
 22 20  1  0  0  0  0
 22 23  1  0  0  0  0
 24 26  1  0  0  0  0
 24 25  1  1  0  0  0
 26 27  1  0  0  0  0
 27 32  1  0  0  0  0
 29 30  2  0  0  0  0
 30 28  1  0  0  0  0
 31 27  2  0  0  0  0
 31 29  1  0  0  0  0
 32 28  2  0  0  0  0
 33  1  1  0  0  0  0
 34 33  1  0  0  0  0
 35 40  1  0  0  0  0
 36 37  1  0  0  0  0
 37 43  1  0  0  0  0
 38 41  1  0  0  0  0
 39 36  2  0  0  0  0
 40 38  2  0  0  0  0
 40 39  1  0  0  0  0
 41 37  2  0  0  0  0
 43 42  1  0  0  0  0
M  END
>  <MODEL>
3

>  <REMARK>
 VINA RESULT:      -4.2      1.333      2.200
  Name = 
  13 active torsions:
  status: ('A' for Active; 'I' for Inactive)
    1  A    between atoms: S_1  and  C_34
    2  A    between atoms: S_1  and  C_35
    3  A    between atoms: C_2  and  N_6
    4  A    between atoms: C_2  and  C_27
    5  A    between atoms: C_3  and  C_4
    6  A    between atoms: C_3  and  C_12
    7  A    between atoms: C_4  and  C_15
    8  A    between atoms: C_4  and  C_22
    9  A    between atoms: N_8  and  C_33
   10  A    between atoms: C_11  and  C_14
   11  A    between atoms: C_14  and  C_22
   12  A    between atoms: C_19  and  O_37
   13  A    between atoms: C_21  and  C_30
                            x       y       z     vdW  Elec       q    Type
                         _______ _______ _______ _____ _____    ______ ____

>  <TORSDO>
F 13

$$$$
=
 OpenBabel11062410313D

 43 46  0  0  1  0  0  0  0  0999 V2000
  160.6180  206.2360  149.0230 N   0  0  0  0  0  0  0  0  0  0  0  0
  160.0990  205.3600  151.2550 C   0  0  0  0  0  3  0  0  0  0  0  0
  161.0660  206.1400  151.7580 C   0  0  0  0  0  0  0  0  0  0  0  0
  159.9610  205.1590  149.7700 C   0  0  2  0  0  3  0  0  0  0  0  0
  161.7520  206.9090  149.6000 C   0  0  0  0  0  0  0  0  0  0  0  0
  161.9490  206.8560  150.8820 N   0  0  0  0  0  0  0  0  0  0  0  0
  161.5090  201.3210  148.6900 C   0  0  0  0  0  0  0  0  0  0  0  0
  160.9940  203.5900  148.0730 C   0  0  0  0  0  3  0  0  0  0  0  0
  161.0530  201.5680  149.9480 N   0  0  0  0  0  0  0  0  0  0  0  0
  161.9850  200.0950  148.3710 F   0  0  0  0  0  0  0  0  0  0  0  0
  160.5230  203.8270  149.3710 C   0  0  0  0  0  0  0  0  0  0  0  0
  161.4910  202.3330  147.7290 C   0  0  0  0  0  3  0  0  0  0  0  0
  160.5640  202.7870  150.3050 C   0  0  0  0  0  3  0  0  0  0  0  0
  161.3120  206.1990  153.2350 C   0  0  1  0  0  3  0  0  0  0  0  0
  162.7970  206.1310  153.5450 C   0  0  0  0  0  1  0  0  0  0  0  0
  160.7430  207.4180  153.7940 N   0  0  0  0  0  2  0  0  0  0  0  0
  160.3840  207.5380  155.1730 C   0  0  0  0  0  0  0  0  0  0  0  0
  160.6960  206.6380  155.9980 O   0  0  0  0  0  0  0  0  0  0  0  0
  159.5780  208.7020  155.6300 C   0  0  0  0  0  2  0  0  0  0  0  0
  160.3070  210.0030  155.3020 C   0  0  2  0  0  3  0  0  0  0  0  0
  162.5850  210.0250  156.4080 C   0  0  0  0  0  1  0  0  0  0  0  0
  161.1300  210.4370  156.5280 C   0  0  0  0  0  3  0  0  0  0  0  0
  161.0090  211.9200  156.8440 C   0  0  0  0  0  1  0  0  0  0  0  0
  159.3180  211.0580  154.7700 C   0  0  1  0  0  3  0  0  0  0  0  0
  159.2550  211.0550  153.2480 C   0  0  0  0  0  1  0  0  0  0  0  0
  157.9190  210.7890  155.3220 C   0  0  0  0  0  2  0  0  0  0  0  0
  157.1760  212.0590  155.5680 C   0  0  0  0  0  0  0  0  0  0  0  0
  155.5270  213.6900  154.8670 C   0  0  0  0  0  3  0  0  0  0  0  0
  156.7540  214.0190  156.9290 C   0  0  0  0  0  3  0  0  0  0  0  0
  155.7950  214.4530  156.0090 C   0  0  0  0  0  3  0  0  0  0  0  0
  157.4450  212.8230  156.7090 C   0  0  0  0  0  3  0  0  0  0  0  0
  156.2180  212.4950  154.6460 C   0  0  0  0  0  3  0  0  0  0  0  0
  160.2200  206.4670  147.6410 C   0  0  0  0  0  2  0  0  0  0  0  0
  161.3920  206.2160  146.7100 C   0  0  0  0  0  1  0  0  0  0  0  0
  162.9500  207.7640  148.5730 S   0  0  0  0  0  0  0  0  0  0  0  0
  161.5980  210.9750  150.6800 C   0  0  0  0  0  3  0  0  0  0  0  0
  161.2850  211.9010  149.6800 C   0  0  0  0  0  0  0  0  0  0  0  0
  161.9490  210.2790  147.9950 C   0  0  0  0  0  3  0  0  0  0  0  0
  162.0900  209.7110  150.3440 C   0  0  0  0  0  3  0  0  0  0  0  0
  162.2710  209.3640  149.0010 C   0  0  0  0  0  0  0  0  0  0  0  0
  161.4560  211.5430  148.3310 C   0  0  0  0  0  3  0  0  0  0  0  0
  160.5890  214.2040  149.1070 C   0  0  0  0  0  1  0  0  0  0  0  0
  160.8110  213.1620  150.0480 O   0  0  0  0  0  0  0  0  0  0  0  0
  1  5  1  0  0  0  0
  1  4  1  0  0  0  0
  2  3  2  0  0  0  0
  3 14  1  0  0  0  0
  4 11  1  6  0  0  0
  4  2  1  0  0  0  0
  5  6  2  0  0  0  0
  6  3  1  0  0  0  0
  7  9  1  0  0  0  0
  8 11  2  0  0  0  0
  9 13  2  0  0  0  0
 10  7  1  0  0  0  0
 11 13  1  0  0  0  0
 12  8  1  0  0  0  0
 12  7  2  0  0  0  0
 14 15  1  6  0  0  0
 14 16  1  0  0  0  0
 16 17  1  0  0  0  0
 17 19  1  0  0  0  0
 17 18  2  0  0  0  0
 20 19  1  1  0  0  0
 20 22  1  0  0  0  0
 21 22  1  0  0  0  0
 22 23  1  0  0  0  0
 24 25  1  6  0  0  0
 24 20  1  0  0  0  0
 24 26  1  0  0  0  0
 26 27  1  0  0  0  0
 27 31  1  0  0  0  0
 28 30  2  0  0  0  0
 30 29  1  0  0  0  0
 31 29  2  0  0  0  0
 32 28  1  0  0  0  0
 32 27  2  0  0  0  0
 33  1  1  0  0  0  0
 34 33  1  0  0  0  0
 35 40  1  0  0  0  0
 35  5  1  0  0  0  0
 37 43  1  0  0  0  0
 37 36  2  0  0  0  0
 38 41  2  0  0  0  0
 38 40  1  0  0  0  0
 39 36  1  0  0  0  0
 40 39  2  0  0  0  0
 41 37  1  0  0  0  0
 42 43  1  0  0  0  0
M  END
>  <MODEL>
4

>  <REMARK>
 VINA RESULT:      -3.5      3.979      8.908
  Name = 
  13 active torsions:
  status: ('A' for Active; 'I' for Inactive)
    1  A    between atoms: S_1  and  C_34
    2  A    between atoms: S_1  and  C_35
    3  A    between atoms: C_2  and  N_6
    4  A    between atoms: C_2  and  C_27
    5  A    between atoms: C_3  and  C_4
    6  A    between atoms: C_3  and  C_12
    7  A    between atoms: C_4  and  C_15
    8  A    between atoms: C_4  and  C_22
    9  A    between atoms: N_8  and  C_33
   10  A    between atoms: C_11  and  C_14
   11  A    between atoms: C_14  and  C_22
   12  A    between atoms: C_19  and  O_37
   13  A    between atoms: C_21  and  C_30
                            x       y       z     vdW  Elec       q    Type
                         _______ _______ _______ _____ _____    ______ ____

>  <TORSDO>
F 13

$$$$
=
 OpenBabel11062410313D

 43 46  0  0  1  0  0  0  0  0999 V2000
  159.0430  212.5620  151.9940 N   0  0  0  0  0  0  0  0  0  0  0  0
  160.3120  210.4940  151.6300 C   0  0  0  0  0  3  0  0  0  0  0  0
  160.7470  210.5690  152.8960 C   0  0  0  0  0  0  0  0  0  0  0  0
  159.6010  211.6540  150.9860 C   0  0  2  0  0  3  0  0  0  0  0  0
  159.6840  212.6770  153.2780 C   0  0  0  0  0  0  0  0  0  0  0  0
  160.4790  211.7350  153.6870 N   0  0  0  0  0  0  0  0  0  0  0  0
  162.2420  213.7040  148.3200 C   0  0  0  0  0  0  0  0  0  0  0  0
  160.6890  213.7840  150.1580 C   0  0  0  0  0  3  0  0  0  0  0  0
  162.0840  212.3540  148.2550 N   0  0  0  0  0  0  0  0  0  0  0  0
  163.0770  214.3310  147.4580 F   0  0  0  0  0  0  0  0  0  0  0  0
  160.5330  212.3940  150.0740 C   0  0  0  0  0  0  0  0  0  0  0  0
  161.5470  214.4450  149.2780 C   0  0  0  0  0  3  0  0  0  0  0  0
  161.2510  211.6900  149.1030 C   0  0  0  0  0  3  0  0  0  0  0  0
  161.6060  209.4870  153.4750 C   0  0  1  0  0  3  0  0  0  0  0  0
  160.9170  208.8090  154.6460 C   0  0  0  0  0  1  0  0  0  0  0  0
  161.9350  208.5010  152.4540 N   0  0  0  0  0  2  0  0  0  0  0  0
  161.5230  207.1340  152.5430 C   0  0  0  0  0  0  0  0  0  0  0  0
  160.7170  206.7630  153.4380 O   0  0  0  0  0  0  0  0  0  0  0  0
  162.0980  206.1250  151.6120 C   0  0  0  0  0  2  0  0  0  0  0  0
  161.0140  205.1490  151.1650 C   0  0  2  0  0  3  0  0  0  0  0  0
  160.6830  203.3010  152.8660 C   0  0  0  0  0  1  0  0  0  0  0  0
  161.4090  203.7280  151.6050 C   0  0  0  0  0  3  0  0  0  0  0  0
  161.2480  202.6870  150.5070 C   0  0  0  0  0  1  0  0  0  0  0  0
  160.7230  205.3120  149.6610 C   0  0  1  0  0  3  0  0  0  0  0  0
  159.7130  206.4200  149.3980 C   0  0  0  0  0  1  0  0  0  0  0  0
  162.0160  205.6350  148.9110 C   0  0  0  0  0  2  0  0  0  0  0  0
  161.9300  205.2350  147.4770 C   0  0  0  0  0  0  0  0  0  0  0  0
  162.1870  205.7820  145.1300 C   0  0  0  0  0  3  0  0  0  0  0  0
  161.3970  203.5870  145.7820 C   0  0  0  0  0  3  0  0  0  0  0  0
  161.7470  204.5010  144.7830 C   0  0  0  0  0  3  0  0  0  0  0  0
  161.4880  203.9530  147.1290 C   0  0  0  0  0  3  0  0  0  0  0  0
  162.2770  206.1500  146.4770 C   0  0  0  0  0  3  0  0  0  0  0  0
  157.9650  213.4600  151.6000 C   0  0  0  0  0  2  0  0  0  0  0  0
  157.4010  213.0400  150.2550 C   0  0  0  0  0  1  0  0  0  0  0  0
  159.4680  214.1350  154.3010 S   0  0  0  0  0  0  0  0  0  0  0  0
  155.8020  213.4490  155.9320 C   0  0  0  0  0  3  0  0  0  0  0  0
  155.9460  212.1850  156.5130 C   0  0  0  0  0  0  0  0  0  0  0  0
  158.2620  212.1300  155.7790 C   0  0  0  0  0  3  0  0  0  0  0  0
  156.8770  214.0500  155.2720 C   0  0  0  0  0  3  0  0  0  0  0  0
  158.1070  213.3880  155.1910 C   0  0  0  0  0  0  0  0  0  0  0  0
  157.1870  211.5300  156.4400 C   0  0  0  0  0  3  0  0  0  0  0  0
  154.3920  210.2910  156.8530 C   0  0  0  0  0  1  0  0  0  0  0  0
  154.8470  211.6040  157.1520 O   0  0  0  0  0  0  0  0  0  0  0  0
  1  5  1  0  0  0  0
  2  3  2  0  0  0  0
  3 14  1  0  0  0  0
  3  6  1  0  0  0  0
  4 11  1  1  0  0  0
  4  2  1  0  0  0  0
  4  1  1  0  0  0  0
  5  6  2  0  0  0  0
  5 35  1  0  0  0  0
  7 12  1  0  0  0  0
  9  7  2  0  0  0  0
  9 13  1  0  0  0  0
 10  7  1  0  0  0  0
 11  8  1  0  0  0  0
 12  8  2  0  0  0  0
 13 11  2  0  0  0  0
 14 15  1  1  0  0  0
 16 17  1  0  0  0  0
 16 14  1  0  0  0  0
 17 18  2  0  0  0  0
 19 17  1  0  0  0  0
 20 22  1  0  0  0  0
 20 19  1  6  0  0  0
 22 21  1  0  0  0  0
 23 22  1  0  0  0  0
 24 25  1  1  0  0  0
 24 20  1  0  0  0  0
 26 24  1  0  0  0  0
 27 26  1  0  0  0  0
 28 32  1  0  0  0  0
 29 31  2  0  0  0  0
 30 28  2  0  0  0  0
 30 29  1  0  0  0  0
 31 27  1  0  0  0  0
 32 27  2  0  0  0  0
 33  1  1  0  0  0  0
 34 33  1  0  0  0  0
 35 40  1  0  0  0  0
 36 37  1  0  0  0  0
 37 43  1  0  0  0  0
 38 41  1  0  0  0  0
 39 36  2  0  0  0  0
 40 39  1  0  0  0  0
 40 38  2  0  0  0  0
 41 37  2  0  0  0  0
 42 43  1  0  0  0  0
M  END
>  <MODEL>
5

>  <REMARK>
 VINA RESULT:      -3.2      2.357      4.501
  Name = 
  13 active torsions:
  status: ('A' for Active; 'I' for Inactive)
    1  A    between atoms: S_1  and  C_34
    2  A    between atoms: S_1  and  C_35
    3  A    between atoms: C_2  and  N_6
    4  A    between atoms: C_2  and  C_27
    5  A    between atoms: C_3  and  C_4
    6  A    between atoms: C_3  and  C_12
    7  A    between atoms: C_4  and  C_15
    8  A    between atoms: C_4  and  C_22
    9  A    between atoms: N_8  and  C_33
   10  A    between atoms: C_11  and  C_14
   11  A    between atoms: C_14  and  C_22
   12  A    between atoms: C_19  and  O_37
   13  A    between atoms: C_21  and  C_30
                            x       y       z     vdW  Elec       q    Type
                         _______ _______ _______ _____ _____    ______ ____

>  <TORSDO>
F 13

$$$$
=
 OpenBabel11062410313D

 43 46  0  0  1  0  0  0  0  0999 V2000
  160.9810  208.1420  152.2610 N   0  0  0  0  0  0  0  0  0  0  0  0
  160.7590  210.5140  151.6720 C   0  0  0  0  0  3  0  0  0  0  0  0
  161.5890  210.3080  150.6400 C   0  0  0  0  0  0  0  0  0  0  0  0
  160.5790  209.4690  152.7400 C   0  0  2  0  0  3  0  0  0  0  0  0
  161.9990  208.0320  151.2480 C   0  0  0  0  0  0  0  0  0  0  0  0
  162.2720  209.0550  150.4970 N   0  0  0  0  0  0  0  0  0  0  0  0
  162.8550  210.5770  156.1870 C   0  0  0  0  0  0  0  0  0  0  0  0
  160.7470  209.9270  155.2240 C   0  0  0  0  0  3  0  0  0  0  0  0
  163.4360  210.4830  154.9600 N   0  0  0  0  0  0  0  0  0  0  0  0
  163.5960  210.9400  157.2610 F   0  0  0  0  0  0  0  0  0  0  0  0
  161.3590  209.8400  153.9670 C   0  0  0  0  0  0  0  0  0  0  0  0
  161.4960  210.2970  156.3410 C   0  0  0  0  0  3  0  0  0  0  0  0
  162.7230  210.1250  153.8570 C   0  0  0  0  0  3  0  0  0  0  0  0
  161.9000  211.4130  149.6760 C   0  0  1  0  0  3  0  0  0  0  0  0
  162.3420  210.8590  148.3330 C   0  0  0  0  0  1  0  0  0  0  0  0
  160.7380  212.2740  149.5010 N   0  0  0  0  0  2  0  0  0  0  0  0
  160.7900  213.4960  148.7610 C   0  0  0  0  0  0  0  0  0  0  0  0
  161.8140  213.7990  148.0920 O   0  0  0  0  0  0  0  0  0  0  0  0
  159.6520  214.4530  148.8300 C   0  0  0  0  0  2  0  0  0  0  0  0
  158.3930  213.7340  149.3060 C   0  0  2  0  0  3  0  0  0  0  0  0
  157.8960  214.3380  146.8960 C   0  0  0  0  0  1  0  0  0  0  0  0
  157.4380  213.5550  148.1120 C   0  0  0  0  0  3  0  0  0  0  0  0
  157.1820  212.0990  147.7550 C   0  0  0  0  0  1  0  0  0  0  0  0
  157.7880  214.4520  150.5270 C   0  0  1  0  0  3  0  0  0  0  0  0
  156.4080  213.9110  150.8740 C   0  0  0  0  0  1  0  0  0  0  0  0
  158.7030  214.2820  151.7390 C   0  0  0  0  0  2  0  0  0  0  0  0
  157.9600  213.7420  152.9130 C   0  0  0  0  0  0  0  0  0  0  0  0
  157.7780  212.1390  154.7220 C   0  0  0  0  0  3  0  0  0  0  0  0
  156.0380  213.7920  154.3900 C   0  0  0  0  0  3  0  0  0  0  0  0
  156.5580  212.7070  155.1040 C   0  0  0  0  0  3  0  0  0  0  0  0
  156.7380  214.3100  153.2960 C   0  0  0  0  0  3  0  0  0  0  0  0
  158.4770  212.6550  153.6270 C   0  0  0  0  0  3  0  0  0  0  0  0
  160.4710  206.9680  152.9560 C   0  0  0  0  0  2  0  0  0  0  0  0
  161.5080  206.4470  153.9330 C   0  0  0  0  0  1  0  0  0  0  0  0
  162.9560  206.5280  151.0490 S   0  0  0  0  0  0  0  0  0  0  0  0
  160.9050  205.1420  147.8170 C   0  0  0  0  0  3  0  0  0  0  0  0
  161.3510  205.9700  146.7810 C   0  0  0  0  0  0  0  0  0  0  0  0
  162.8160  207.1130  148.3470 C   0  0  0  0  0  3  0  0  0  0  0  0
  161.4040  205.3010  149.1120 C   0  0  0  0  0  3  0  0  0  0  0  0
  162.3560  206.2910  149.3790 C   0  0  0  0  0  0  0  0  0  0  0  0
  162.3170  206.9540  147.0510 C   0  0  0  0  0  3  0  0  0  0  0  0
  161.6030  205.3550  144.3980 C   0  0  0  0  0  1  0  0  0  0  0  0
  160.8200  205.7970  145.5000 O   0  0  0  0  0  0  0  0  0  0  0  0
  1  4  1  0  0  0  0
  1 33  1  0  0  0  0
  2  4  1  0  0  0  0
  3  2  2  0  0  0  0
  4 11  1  1  0  0  0
  5  1  1  0  0  0  0
  6  3  1  0  0  0  0
  6  5  2  0  0  0  0
  7 12  1  0  0  0  0
  7 10  1  0  0  0  0
  8 12  2  0  0  0  0
  9  7  2  0  0  0  0
 11  8  1  0  0  0  0
 13 11  2  0  0  0  0
 13  9  1  0  0  0  0
 14 15  1  6  0  0  0
 14  3  1  0  0  0  0
 16 14  1  0  0  0  0
 17 19  1  0  0  0  0
 17 16  1  0  0  0  0
 18 17  2  0  0  0  0
 20 19  1  6  0  0  0
 20 24  1  0  0  0  0
 21 22  1  0  0  0  0
 22 20  1  0  0  0  0
 23 22  1  0  0  0  0
 24 25  1  1  0  0  0
 24 26  1  0  0  0  0
 26 27  1  0  0  0  0
 27 31  2  0  0  0  0
 27 32  1  0  0  0  0
 28 30  1  0  0  0  0
 29 30  2  0  0  0  0
 31 29  1  0  0  0  0
 32 28  2  0  0  0  0
 33 34  1  0  0  0  0
 35  5  1  0  0  0  0
 36 39  1  0  0  0  0
 37 41  1  0  0  0  0
 37 36  2  0  0  0  0
 38 40  1  0  0  0  0
 39 40  2  0  0  0  0
 40 35  1  0  0  0  0
 41 38  2  0  0  0  0
 42 43  1  0  0  0  0
 43 37  1  0  0  0  0
M  END
>  <MODEL>
6

>  <REMARK>
 VINA RESULT:      -3.2      3.511      9.078
  Name = 
  13 active torsions:
  status: ('A' for Active; 'I' for Inactive)
    1  A    between atoms: S_1  and  C_34
    2  A    between atoms: S_1  and  C_35
    3  A    between atoms: C_2  and  N_6
    4  A    between atoms: C_2  and  C_27
    5  A    between atoms: C_3  and  C_4
    6  A    between atoms: C_3  and  C_12
    7  A    between atoms: C_4  and  C_15
    8  A    between atoms: C_4  and  C_22
    9  A    between atoms: N_8  and  C_33
   10  A    between atoms: C_11  and  C_14
   11  A    between atoms: C_14  and  C_22
   12  A    between atoms: C_19  and  O_37
   13  A    between atoms: C_21  and  C_30
                            x       y       z     vdW  Elec       q    Type
                         _______ _______ _______ _____ _____    ______ ____

>  <TORSDO>
F 13

$$$$
=
 OpenBabel11062410313D

 43 46  0  0  1  0  0  0  0  0999 V2000
  160.5280  211.7220  153.8710 N   0  0  0  0  0  0  0  0  0  0  0  0
  161.9600  210.1130  152.6950 C   0  0  0  0  0  3  0  0  0  0  0  0
  161.1710  210.2370  151.6190 C   0  0  0  0  0  0  0  0  0  0  0  0
  161.5460  210.6770  154.0280 C   0  0  2  0  0  3  0  0  0  0  0  0
  159.6270  211.6710  152.7500 C   0  0  0  0  0  0  0  0  0  0  0  0
  159.9420  210.9720  151.7020 N   0  0  0  0  0  0  0  0  0  0  0  0
  160.0690  207.5160  156.5000 C   0  0  0  0  0  0  0  0  0  0  0  0
  161.7120  209.2280  156.0970 C   0  0  0  0  0  3  0  0  0  0  0  0
  159.4240  207.8750  155.3580 N   0  0  0  0  0  0  0  0  0  0  0  0
  159.5860  206.5050  157.2610 F   0  0  0  0  0  0  0  0  0  0  0  0
  161.0390  209.5830  154.9200 C   0  0  0  0  0  0  0  0  0  0  0  0
  161.2260  208.1910  156.8930 C   0  0  0  0  0  3  0  0  0  0  0  0
  159.8820  208.8840  154.5660 C   0  0  0  0  0  3  0  0  0  0  0  0
  161.5010  209.5250  150.3420 C   0  0  1  0  0  3  0  0  0  0  0  0
  163.0030  209.4120  150.1510 C   0  0  0  0  0  1  0  0  0  0  0  0
  160.8970  208.1990  150.3320 N   0  0  0  0  0  2  0  0  0  0  0  0
  161.1780  207.2340  149.3140 C   0  0  0  0  0  0  0  0  0  0  0  0
  162.0890  207.4400  148.4680 O   0  0  0  0  0  0  0  0  0  0  0  0
  160.3480  206.0030  149.2120 C   0  0  0  0  0  2  0  0  0  0  0  0
  160.7080  205.0340  150.3340 C   0  0  2  0  0  3  0  0  0  0  0  0
  160.9330  205.4280  152.8260 C   0  0  0  0  0  1  0  0  0  0  0  0
  161.4380  205.8070  151.4470 C   0  0  0  0  0  3  0  0  0  0  0  0
  162.9520  205.6900  151.3720 C   0  0  0  0  0  1  0  0  0  0  0  0
  161.4690  203.8160  149.7750 C   0  0  1  0  0  3  0  0  0  0  0  0
  161.4110  202.6290  150.7260 C   0  0  0  0  0  1  0  0  0  0  0  0
  160.8730  203.4010  148.4300 C   0  0  0  0  0  2  0  0  0  0  0  0
  161.5060  204.1400  147.3000 C   0  0  0  0  0  0  0  0  0  0  0  0
  163.4970  204.8450  146.1120 C   0  0  0  0  0  3  0  0  0  0  0  0
  161.3120  205.5430  145.3330 C   0  0  0  0  0  3  0  0  0  0  0  0
  162.7040  205.5440  145.1970 C   0  0  0  0  0  3  0  0  0  0  0  0
  160.7130  204.8410  146.3840 C   0  0  0  0  0  3  0  0  0  0  0  0
  162.8990  204.1440  147.1640 C   0  0  0  0  0  3  0  0  0  0  0  0
  160.3390  212.6760  154.9560 C   0  0  0  0  0  2  0  0  0  0  0  0
  159.3130  212.1490  155.9420 C   0  0  0  0  0  1  0  0  0  0  0  0
  158.0350  212.4970  152.7950 S   0  0  0  0  0  0  0  0  0  0  0  0
  157.2890  213.2600  148.8660 C   0  0  0  0  0  3  0  0  0  0  0  0
  158.4170  213.9840  148.4660 C   0  0  0  0  0  0  0  0  0  0  0  0
  159.3360  213.7610  150.7040 C   0  0  0  0  0  3  0  0  0  0  0  0
  157.1790  212.7940  150.1790 C   0  0  0  0  0  3  0  0  0  0  0  0
  158.2000  213.0490  151.1010 C   0  0  0  0  0  0  0  0  0  0  0  0
  159.4460  214.2270  149.3910 C   0  0  0  0  0  3  0  0  0  0  0  0
  158.0320  213.6920  146.0400 C   0  0  0  0  0  1  0  0  0  0  0  0
  158.4900  214.4510  147.1500 O   0  0  0  0  0  0  0  0  0  0  0  0
  1  4  1  0  0  0  0
  1 33  1  0  0  0  0
  2  4  1  0  0  0  0
  3  6  1  0  0  0  0
  3  2  2  0  0  0  0
  4 11  1  1  0  0  0
  5 35  1  0  0  0  0
  5  1  1  0  0  0  0
  6  5  2  0  0  0  0
  7 12  1  0  0  0  0
  7 10  1  0  0  0  0
  8 12  2  0  0  0  0
  9  7  2  0  0  0  0
 11  8  1  0  0  0  0
 13 11  2  0  0  0  0
 13  9  1  0  0  0  0
 14 15  1  1  0  0  0
 14  3  1  0  0  0  0
 16 14  1  0  0  0  0
 17 16  1  0  0  0  0
 18 17  2  0  0  0  0
 19 17  1  0  0  0  0
 20 19  1  6  0  0  0
 20 22  1  0  0  0  0
 22 21  1  0  0  0  0
 23 22  1  0  0  0  0
 24 20  1  0  0  0  0
 24 25  1  1  0  0  0
 26 24  1  0  0  0  0
 27 26  1  0  0  0  0
 28 32  2  0  0  0  0
 29 31  1  0  0  0  0
 30 29  2  0  0  0  0
 30 28  1  0  0  0  0
 31 27  2  0  0  0  0
 32 27  1  0  0  0  0
 33 34  1  0  0  0  0
 36 39  1  0  0  0  0
 37 36  2  0  0  0  0
 37 41  1  0  0  0  0
 38 40  1  0  0  0  0
 39 40  2  0  0  0  0
 40 35  1  0  0  0  0
 41 38  2  0  0  0  0
 42 43  1  0  0  0  0
 43 37  1  0  0  0  0
M  END
>  <MODEL>
7

>  <REMARK>
 VINA RESULT:      -3.0      3.677      6.853
  Name = 
  13 active torsions:
  status: ('A' for Active; 'I' for Inactive)
    1  A    between atoms: S_1  and  C_34
    2  A    between atoms: S_1  and  C_35
    3  A    between atoms: C_2  and  N_6
    4  A    between atoms: C_2  and  C_27
    5  A    between atoms: C_3  and  C_4
    6  A    between atoms: C_3  and  C_12
    7  A    between atoms: C_4  and  C_15
    8  A    between atoms: C_4  and  C_22
    9  A    between atoms: N_8  and  C_33
   10  A    between atoms: C_11  and  C_14
   11  A    between atoms: C_14  and  C_22
   12  A    between atoms: C_19  and  O_37
   13  A    between atoms: C_21  and  C_30
                            x       y       z     vdW  Elec       q    Type
                         _______ _______ _______ _____ _____    ______ ____

>  <TORSDO>
F 13

$$$$
=
 OpenBabel11062410313D

 43 46  0  0  1  0  0  0  0  0999 V2000
  162.3400  207.0550  150.2690 N   0  0  0  0  0  0  0  0  0  0  0  0
  162.8680  208.8340  148.6650 C   0  0  0  0  0  3  0  0  0  0  0  0
  162.0160  209.6380  149.3150 C   0  0  0  0  0  0  0  0  0  0  0  0
  162.9130  207.3580  148.9540 C   0  0  2  0  0  3  0  0  0  0  0  0
  161.3130  207.9080  150.8090 C   0  0  0  0  0  0  0  0  0  0  0  0
  161.1740  209.1150  150.3520 N   0  0  0  0  0  0  0  0  0  0  0  0
  160.8250  205.2630  145.8650 C   0  0  0  0  0  0  0  0  0  0  0  0
  162.7270  205.4230  147.3320 C   0  0  0  0  0  3  0  0  0  0  0  0
  160.3170  206.4000  146.4120 N   0  0  0  0  0  0  0  0  0  0  0  0
  160.1490  204.6240  144.8820 F   0  0  0  0  0  0  0  0  0  0  0  0
  162.1920  206.5960  147.8810 C   0  0  0  0  0  0  0  0  0  0  0  0
  162.0410  204.7510  146.3200 C   0  0  0  0  0  3  0  0  0  0  0  0
  160.9700  207.0720  147.4000 C   0  0  0  0  0  3  0  0  0  0  0  0
  161.8490  211.0700  148.9040 C   0  0  1  0  0  3  0  0  0  0  0  0
  163.1770  211.8060  148.9320 C   0  0  0  0  0  1  0  0  0  0  0  0
  161.2650  211.1480  147.5710 N   0  0  0  0  0  2  0  0  0  0  0  0
  160.4430  212.2410  147.1540 C   0  0  0  0  0  0  0  0  0  0  0  0
  160.3220  213.2660  147.8770 O   0  0  0  0  0  0  0  0  0  0  0  0
  159.6730  212.1460  145.8840 C   0  0  0  0  0  2  0  0  0  0  0  0
  159.4400  213.5400  145.3090 C   0  0  2  0  0  3  0  0  0  0  0  0
  157.3700  214.3620  144.1020 C   0  0  0  0  0  1  0  0  0  0  0  0
  157.9440  213.8840  145.4220 C   0  0  0  0  0  3  0  0  0  0  0  0
  157.1050  212.7550  146.0020 C   0  0  0  0  0  1  0  0  0  0  0  0
  160.0310  213.6460  143.8900 C   0  0  1  0  0  3  0  0  0  0  0  0
  161.3580  214.3920  143.8860 C   0  0  0  0  0  1  0  0  0  0  0  0
  160.2480  212.2490  143.3090 C   0  0  0  0  0  2  0  0  0  0  0  0
  160.3040  212.2810  141.8190 C   0  0  0  0  0  0  0  0  0  0  0  0
  159.3140  212.9070  139.6970 C   0  0  0  0  0  3  0  0  0  0  0  0
  161.4210  211.7140  139.7440 C   0  0  0  0  0  3  0  0  0  0  0  0
  160.3890  212.3210  139.0220 C   0  0  0  0  0  3  0  0  0  0  0  0
  161.3790  211.6930  141.1420 C   0  0  0  0  0  3  0  0  0  0  0  0
  159.2700  212.8860  141.0950 C   0  0  0  0  0  3  0  0  0  0  0  0
  162.6940  205.7940  150.9080 C   0  0  0  0  0  2  0  0  0  0  0  0
  161.5210  204.8330  150.8520 C   0  0  0  0  0  1  0  0  0  0  0  0
  160.1660  207.3140  152.0540 S   0  0  0  0  0  0  0  0  0  0  0  0
  161.5690  210.6190  153.9740 C   0  0  0  0  0  3  0  0  0  0  0  0
  161.8350  210.1460  155.2630 C   0  0  0  0  0  0  0  0  0  0  0  0
  161.1210  207.9260  154.5790 C   0  0  0  0  0  3  0  0  0  0  0  0
  161.0760  209.7540  152.9920 C   0  0  0  0  0  3  0  0  0  0  0  0
  160.8460  208.4080  153.2960 C   0  0  0  0  0  0  0  0  0  0  0  0
  161.6150  208.7900  155.5600 C   0  0  0  0  0  3  0  0  0  0  0  0
  161.4880  211.5680  157.2570 C   0  0  0  0  0  1  0  0  0  0  0  0
  162.3110  211.0380  156.2270 O   0  0  0  0  0  0  0  0  0  0  0  0
  1  5  1  0  0  0  0
  1 33  1  0  0  0  0
  2  4  1  0  0  0  0
  2  3  2  0  0  0  0
  3  6  1  0  0  0  0
  4 11  1  6  0  0  0
  4  1  1  0  0  0  0
  5 35  1  0  0  0  0
  6  5  2  0  0  0  0
  7 12  2  0  0  0  0
  7  9  1  0  0  0  0
  8 11  2  0  0  0  0
  9 13  2  0  0  0  0
 10  7  1  0  0  0  0
 12  8  1  0  0  0  0
 13 11  1  0  0  0  0
 14 15  1  6  0  0  0
 14  3  1  0  0  0  0
 16 14  1  0  0  0  0
 17 16  1  0  0  0  0
 17 18  2  0  0  0  0
 19 17  1  0  0  0  0
 20 22  1  0  0  0  0
 20 19  1  6  0  0  0
 21 22  1  0  0  0  0
 22 23  1  0  0  0  0
 24 25  1  1  0  0  0
 24 20  1  0  0  0  0
 26 24  1  0  0  0  0
 27 26  1  0  0  0  0
 28 32  1  0  0  0  0
 29 31  2  0  0  0  0
 30 28  2  0  0  0  0
 30 29  1  0  0  0  0
 31 27  1  0  0  0  0
 32 27  2  0  0  0  0
 34 33  1  0  0  0  0
 35 40  1  0  0  0  0
 36 37  1  0  0  0  0
 37 41  2  0  0  0  0
 37 43  1  0  0  0  0
 38 41  1  0  0  0  0
 39 40  1  0  0  0  0
 39 36  2  0  0  0  0
 40 38  2  0  0  0  0
 43 42  1  0  0  0  0
M  END
>  <MODEL>
8

>  <REMARK>
 VINA RESULT:      -2.8      3.431      8.661
  Name = 
  13 active torsions:
  status: ('A' for Active; 'I' for Inactive)
    1  A    between atoms: S_1  and  C_34
    2  A    between atoms: S_1  and  C_35
    3  A    between atoms: C_2  and  N_6
    4  A    between atoms: C_2  and  C_27
    5  A    between atoms: C_3  and  C_4
    6  A    between atoms: C_3  and  C_12
    7  A    between atoms: C_4  and  C_15
    8  A    between atoms: C_4  and  C_22
    9  A    between atoms: N_8  and  C_33
   10  A    between atoms: C_11  and  C_14
   11  A    between atoms: C_14  and  C_22
   12  A    between atoms: C_19  and  O_37
   13  A    between atoms: C_21  and  C_30
                            x       y       z     vdW  Elec       q    Type
                         _______ _______ _______ _____ _____    ______ ____

>  <TORSDO>
F 13

$$$$
=
 OpenBabel11062410313D

 43 46  0  0  1  0  0  0  0  0999 V2000
  162.2660  207.7500  151.1940 N   0  0  0  0  0  0  0  0  0  0  0  0
  162.8760  209.4100  149.4920 C   0  0  0  0  0  3  0  0  0  0  0  0
  162.0520  210.2840  150.0860 C   0  0  0  0  0  0  0  0  0  0  0  0
  162.8600  207.9520  149.8680 C   0  0  2  0  0  3  0  0  0  0  0  0
  161.2700  208.6740  151.6730 C   0  0  0  0  0  0  0  0  0  0  0  0
  161.1820  209.8560  151.1440 N   0  0  0  0  0  0  0  0  0  0  0  0
  160.6680  205.7320  146.9430 C   0  0  0  0  0  0  0  0  0  0  0  0
  162.7530  206.6840  147.6800 C   0  0  0  0  0  3  0  0  0  0  0  0
  160.0670  206.1950  148.0720 N   0  0  0  0  0  0  0  0  0  0  0  0
  159.9500  205.0410  146.0270 F   0  0  0  0  0  0  0  0  0  0  0  0
  162.1170  207.1580  148.8350 C   0  0  0  0  0  0  0  0  0  0  0  0
  162.0280  205.9670  146.7280 C   0  0  0  0  0  3  0  0  0  0  0  0
  160.7560  206.8970  149.0130 C   0  0  0  0  0  3  0  0  0  0  0  0
  161.9450  211.6940  149.5900 C   0  0  1  0  0  3  0  0  0  0  0  0
  161.7840  211.7320  148.0810 C   0  0  0  0  0  1  0  0  0  0  0  0
  160.8210  212.3690  150.2270 N   0  0  0  0  0  2  0  0  0  0  0  0
  160.5470  213.7590  150.0290 C   0  0  0  0  0  0  0  0  0  0  0  0
  161.1790  214.4210  149.1620 O   0  0  0  0  0  0  0  0  0  0  0  0
  159.5510  214.4480  150.8940 C   0  0  0  0  0  2  0  0  0  0  0  0
  158.3120  213.5740  151.0640 C   0  0  2  0  0  3  0  0  0  0  0  0
  157.6000  214.3560  148.7620 C   0  0  0  0  0  1  0  0  0  0  0  0
  157.1730  214.1490  150.2030 C   0  0  0  0  0  3  0  0  0  0  0  0
  155.8890  213.3370  150.2770 C   0  0  0  0  0  1  0  0  0  0  0  0
  157.9780  213.3920  152.5570 C   0  0  1  0  0  3  0  0  0  0  0  0
  156.5030  213.6450  152.8400 C   0  0  0  0  0  1  0  0  0  0  0  0
  158.3290  211.9730  153.0020 C   0  0  0  0  0  2  0  0  0  0  0  0
  158.6460  211.9210  154.4580 C   0  0  0  0  0  0  0  0  0  0  0  0
  159.9140  212.7320  156.3580 C   0  0  0  0  0  3  0  0  0  0  0  0
  158.3060  210.9450  156.6510 C   0  0  0  0  0  3  0  0  0  0  0  0
  159.2640  211.8120  157.1860 C   0  0  0  0  0  3  0  0  0  0  0  0
  157.9970  210.9990  155.2880 C   0  0  0  0  0  3  0  0  0  0  0  0
  159.6070  212.7860  154.9950 C   0  0  0  0  0  3  0  0  0  0  0  0
  162.5650  206.5170  151.9090 C   0  0  0  0  0  2  0  0  0  0  0  0
  161.3340  205.6310  151.9590 C   0  0  0  0  0  1  0  0  0  0  0  0
  160.0920  208.1990  152.9390 S   0  0  0  0  0  0  0  0  0  0  0  0
  162.6360  210.6620  154.9490 C   0  0  0  0  0  3  0  0  0  0  0  0
  162.5600  210.1910  156.2630 C   0  0  0  0  0  0  0  0  0  0  0  0
  161.0050  208.4690  155.5390 C   0  0  0  0  0  3  0  0  0  0  0  0
  161.8980  210.0470  153.9340 C   0  0  0  0  0  3  0  0  0  0  0  0
  161.0770  208.9530  154.2300 C   0  0  0  0  0  0  0  0  0  0  0  0
  161.7440  209.0830  156.5530 C   0  0  0  0  0  3  0  0  0  0  0  0
  164.5610  211.4370  157.0100 C   0  0  0  0  0  1  0  0  0  0  0  0
  163.2970  210.8370  157.2590 O   0  0  0  0  0  0  0  0  0  0  0  0
  1  5  1  0  0  0  0
  1 33  1  0  0  0  0
  2  4  1  0  0  0  0
  2  3  2  0  0  0  0
  3  6  1  0  0  0  0
  4 11  1  6  0  0  0
  4  1  1  0  0  0  0
  5 35  1  0  0  0  0
  6  5  2  0  0  0  0
  7  9  1  0  0  0  0
  8 11  2  0  0  0  0
  9 13  2  0  0  0  0
 10  7  1  0  0  0  0
 11 13  1  0  0  0  0
 12  7  2  0  0  0  0
 12  8  1  0  0  0  0
 14 15  1  6  0  0  0
 14  3  1  0  0  0  0
 14 16  1  0  0  0  0
 17 16  1  0  0  0  0
 17 19  1  0  0  0  0
 18 17  2  0  0  0  0
 20 19  1  1  0  0  0
 20 24  1  0  0  0  0
 21 22  1  0  0  0  0
 22 23  1  0  0  0  0
 22 20  1  0  0  0  0
 24 25  1  6  0  0  0
 24 26  1  0  0  0  0
 26 27  1  0  0  0  0
 27 32  2  0  0  0  0
 27 31  1  0  0  0  0
 28 30  2  0  0  0  0
 29 30  1  0  0  0  0
 31 29  2  0  0  0  0
 32 28  1  0  0  0  0
 33 34  1  0  0  0  0
 35 40  1  0  0  0  0
 36 37  1  0  0  0  0
 37 41  2  0  0  0  0
 37 43  1  0  0  0  0
 38 41  1  0  0  0  0
 39 40  1  0  0  0  0
 39 36  2  0  0  0  0
 40 38  2  0  0  0  0
 42 43  1  0  0  0  0
M  END
>  <MODEL>
9

>  <REMARK>
 VINA RESULT:      -2.7      3.358      7.682
  Name = 
  13 active torsions:
  status: ('A' for Active; 'I' for Inactive)
    1  A    between atoms: S_1  and  C_34
    2  A    between atoms: S_1  and  C_35
    3  A    between atoms: C_2  and  N_6
    4  A    between atoms: C_2  and  C_27
    5  A    between atoms: C_3  and  C_4
    6  A    between atoms: C_3  and  C_12
    7  A    between atoms: C_4  and  C_15
    8  A    between atoms: C_4  and  C_22
    9  A    between atoms: N_8  and  C_33
   10  A    between atoms: C_11  and  C_14
   11  A    between atoms: C_14  and  C_22
   12  A    between atoms: C_19  and  O_37
   13  A    between atoms: C_21  and  C_30
                            x       y       z     vdW  Elec       q    Type
                         _______ _______ _______ _____ _____    ______ ____

>  <TORSDO>
F 13

$$$$
