=
 OpenBabel11052421503D

 30 32  0  0  1  0  0  0  0  0999 V2000
  161.4590  205.9900  152.7180 C   0  0  0  0  0  0  0  0  0  0  0  0
  161.0330  204.7670  153.2370 C   0  0  0  0  0  3  0  0  0  0  0  0
  161.9080  207.2530  153.8560 Cl  0  0  0  0  0  0  0  0  0  0  0  0
  161.1400  205.1330  150.4530 C   0  0  0  0  0  0  0  0  0  0  0  0
  160.6520  203.7340  152.3840 C   0  0  0  0  0  3  0  0  0  0  0  0
  161.4990  206.1950  151.3230 C   0  0  0  0  0  0  0  0  0  0  0  0
  160.7090  203.9160  151.0040 C   0  0  0  0  0  3  0  0  0  0  0  0
  162.4410  205.9090  146.2900 N   0  0  0  0  0  0  0  0  0  0  0  0
  162.4610  204.6110  146.2520 C   0  0  0  0  0  3  0  0  0  0  0  0
  161.4070  206.6850  146.9580 C   0  0  0  0  0  2  0  0  0  0  0  0
  160.9960  204.0240  148.1620 C   0  0  0  0  0  3  0  0  0  0  0  0
  161.4330  206.4420  148.4290 C   0  0  0  0  0  3  0  0  0  0  0  0
  161.4840  203.7400  146.9460 C   0  0  0  0  0  0  0  0  0  0  0  0
  161.2490  205.2360  148.9780 C   0  0  0  0  0  0  0  0  0  0  0  0
  159.8230  203.1380  144.5820 O   0  0  0  0  0  0  0  0  0  0  0  0
  160.3630  202.2020  145.2290 C   0  0  0  0  0  0  0  0  0  0  0  0
  161.1480  202.4580  146.4000 N   0  0  0  0  0  2  0  0  0  0  0  0
  160.1680  200.8000  144.7780 C   0  0  0  0  0  1  0  0  0  0  0  0
  161.9300  207.8260  150.6790 S   0  0  0  0  0  0  0  0  0  0  0  0
  160.8400  208.6220  151.7390 O   0  0  0  0  0  0  0  0  0  0  0  0
  161.1330  209.9820  151.6260 C   0  0  0  0  0  2  0  0  0  0  0  0
  160.0540  211.8550  153.1630 C   0  0  1  0  0  3  0  0  0  0  0  0
  159.6040  210.4630  153.5950 C   0  0  0  0  0  2  0  0  0  0  0  0
  160.9730  210.6530  152.9870 C   0  0  1  0  0  0  0  0  0  0  0  0
  162.1030  210.5620  153.9940 C   0  0  0  0  0  1  0  0  0  0  0  0
  159.3320  212.2690  151.8860 C   0  0  2  0  0  3  0  0  0  0  0  0
  160.1910  213.0450  151.1050 O   0  0  0  0  0  1  0  0  0  0  0  0
  157.9650  214.1610  151.3590 O   0  0  0  0  0  1  0  0  0  0  0  0
  158.0900  213.0810  152.2340 C   0  0  2  0  0  3  0  0  0  0  0  0
  158.1770  213.5570  153.5290 F   0  0  0  0  0  0  0  0  0  0  0  0
  1  2  1  0  0  0  0
  1  3  1  0  0  0  0
  4  7  2  0  0  0  0
  4  6  1  0  0  0  0
  5  2  2  0  0  0  0
  6  1  2  0  0  0  0
  7  5  1  0  0  0  0
  8 10  1  0  0  0  0
  9  8  2  0  0  0  0
  9 13  1  0  0  0  0
 10 12  1  0  0  0  0
 11 14  1  0  0  0  0
 12 14  2  0  0  0  0
 13 11  2  0  0  0  0
 14  4  1  0  0  0  0
 15 16  2  0  0  0  0
 16 17  1  0  0  0  0
 17 13  1  0  0  0  0
 18 16  1  0  0  0  0
 19  6  1  0  0  0  0
 19 20  1  0  0  0  0
 21 20  1  0  0  0  0
 21 24  1  0  0  0  0
 22 26  1  6  0  0  0
 22 23  1  0  0  0  0
 24 22  1  0  0  0  0
 24 23  1  0  0  0  0
 24 25  1  1  0  0  0
 26 27  1  6  0  0  0
 26 29  1  0  0  0  0
 29 28  1  6  0  0  0
 29 30  1  0  0  0  0
M  END
>  <MODEL>
1

>  <REMARK>
 VINA RESULT:      -7.5      0.000      0.000
  Name = 
  8 active torsions:
  status: ('A' for Active; 'I' for Inactive)
    1  A    between atoms: O_1  and  C_4
    2  A    between atoms: O_1  and  S_5
    3  A    between atoms: C_4  and  C_27
    4  A    between atoms: S_5  and  C_22
    5  A    between atoms: C_8  and  C_12
    6  A    between atoms: C_9  and  C_12
    7  A    between atoms: N_16  and  C_25
    8  A    between atoms: C_19  and  C_29
                            x       y       z     vdW  Elec       q    Type
                         _______ _______ _______ _____ _____    ______ ____

>  <TORSDO>
F 8

$$$$
=
 OpenBabel11052421503D

 30 32  0  0  1  0  0  0  0  0999 V2000
  160.8530  202.5800  150.8270 C   0  0  0  0  0  0  0  0  0  0  0  0
  161.0490  201.2290  150.5410 C   0  0  0  0  0  3  0  0  0  0  0  0
  160.5450  203.0290  152.4980 Cl  0  0  0  0  0  0  0  0  0  0  0  0
  161.1500  203.1170  148.4620 C   0  0  0  0  0  0  0  0  0  0  0  0
  161.2840  200.8120  149.2330 C   0  0  0  0  0  3  0  0  0  0  0  0
  160.8800  203.5370  149.7900 C   0  0  0  0  0  0  0  0  0  0  0  0
  161.3370  201.7500  148.2040 C   0  0  0  0  0  3  0  0  0  0  0  0
  160.7420  205.3740  144.6730 N   0  0  0  0  0  0  0  0  0  0  0  0
  160.3770  206.3150  145.4890 C   0  0  0  0  0  3  0  0  0  0  0  0
  161.8360  204.4520  144.9350 C   0  0  0  0  0  2  0  0  0  0  0  0
  161.3270  205.5230  147.6350 C   0  0  0  0  0  3  0  0  0  0  0  0
  161.5270  203.5880  146.1100 C   0  0  0  0  0  3  0  0  0  0  0  0
  160.9660  206.5320  146.8310 C   0  0  0  0  0  0  0  0  0  0  0  0
  161.2930  204.0700  147.3360 C   0  0  0  0  0  0  0  0  0  0  0  0
  163.1040  207.7410  148.4670 O   0  0  0  0  0  0  0  0  0  0  0  0
  162.0900  208.4190  148.1540 C   0  0  0  0  0  0  0  0  0  0  0  0
  161.0190  207.8520  147.3890 N   0  0  0  0  0  2  0  0  0  0  0  0
  161.9940  209.8330  148.6010 C   0  0  0  0  0  1  0  0  0  0  0  0
  160.4960  205.2610  150.1650 S   0  0  0  0  0  0  0  0  0  0  0  0
  161.9280  205.4620  151.0920 O   0  0  0  0  0  0  0  0  0  0  0  0
  162.0280  206.8330  151.3320 C   0  0  0  0  0  2  0  0  0  0  0  0
  161.4200  208.5500  153.2610 C   0  0  1  0  0  3  0  0  0  0  0  0
  160.2520  207.6130  152.9710 C   0  0  0  0  0  2  0  0  0  0  0  0
  161.6690  207.1240  152.7860 C   0  0  1  0  0  0  0  0  0  0  0  0
  162.1240  206.1630  153.8670 C   0  0  0  0  0  1  0  0  0  0  0  0
  161.5430  209.5950  152.1580 C   0  0  2  0  0  3  0  0  0  0  0  0
  162.8910  209.9060  151.9710 O   0  0  0  0  0  1  0  0  0  0  0  0
  161.0140  211.1530  153.8950 O   0  0  0  0  0  1  0  0  0  0  0  0
  160.7810  210.8550  152.5520 C   0  0  2  0  0  3  0  0  0  0  0  0
  159.4240  210.6740  152.3580 F   0  0  0  0  0  0  0  0  0  0  0  0
  1  3  1  0  0  0  0
  2  1  1  0  0  0  0
  4  6  1  0  0  0  0
  5  2  2  0  0  0  0
  6 19  1  0  0  0  0
  6  1  2  0  0  0  0
  7  4  2  0  0  0  0
  7  5  1  0  0  0  0
  8 10  1  0  0  0  0
  8  9  2  0  0  0  0
  9 13  1  0  0  0  0
 10 12  1  0  0  0  0
 12 14  2  0  0  0  0
 13 17  1  0  0  0  0
 13 11  2  0  0  0  0
 14 11  1  0  0  0  0
 14  4  1  0  0  0  0
 16 15  2  0  0  0  0
 16 18  1  0  0  0  0
 17 16  1  0  0  0  0
 19 20  1  0  0  0  0
 20 21  1  0  0  0  0
 21 24  1  0  0  0  0
 22 26  1  6  0  0  0
 23 22  1  0  0  0  0
 24 23  1  0  0  0  0
 24 22  1  0  0  0  0
 24 25  1  1  0  0  0
 26 27  1  1  0  0  0
 26 29  1  0  0  0  0
 29 30  1  1  0  0  0
 29 28  1  0  0  0  0
M  END
>  <MODEL>
2

>  <REMARK>
 VINA RESULT:      -7.3      2.653      4.275
  Name = 
  8 active torsions:
  status: ('A' for Active; 'I' for Inactive)
    1  A    between atoms: O_1  and  C_4
    2  A    between atoms: O_1  and  S_5
    3  A    between atoms: C_4  and  C_27
    4  A    between atoms: S_5  and  C_22
    5  A    between atoms: C_8  and  C_12
    6  A    between atoms: C_9  and  C_12
    7  A    between atoms: N_16  and  C_25
    8  A    between atoms: C_19  and  C_29
                            x       y       z     vdW  Elec       q    Type
                         _______ _______ _______ _____ _____    ______ ____

>  <TORSDO>
F 8

$$$$
=
 OpenBabel11052421503D

 30 32  0  0  1  0  0  0  0  0999 V2000
  161.0890  208.9940  154.4590 C   0  0  0  0  0  0  0  0  0  0  0  0
  160.9200  207.8180  155.1930 C   0  0  0  0  0  3  0  0  0  0  0  0
  161.1740  210.5090  155.3460 Cl  0  0  0  0  0  0  0  0  0  0  0  0
  161.1040  207.6940  152.3910 C   0  0  0  0  0  0  0  0  0  0  0  0
  160.8320  206.5890  154.5430 C   0  0  0  0  0  3  0  0  0  0  0  0
  161.1630  208.9480  153.0510 C   0  0  0  0  0  0  0  0  0  0  0  0
  160.9280  206.5280  153.1550 C   0  0  0  0  0  3  0  0  0  0  0  0
  162.6370  207.6260  148.2350 N   0  0  0  0  0  0  0  0  0  0  0  0
  162.4600  206.3490  148.3890 C   0  0  0  0  0  3  0  0  0  0  0  0
  161.7130  208.6370  148.7260 C   0  0  0  0  0  2  0  0  0  0  0  0
  160.8640  206.2800  150.2820 C   0  0  0  0  0  3  0  0  0  0  0  0
  161.6560  208.6200  150.2160 C   0  0  0  0  0  3  0  0  0  0  0  0
  161.3410  205.7450  149.1500 C   0  0  0  0  0  0  0  0  0  0  0  0
  161.2740  207.5530  150.9250 C   0  0  0  0  0  0  0  0  0  0  0  0
  161.3830  203.2430  150.7140 O   0  0  0  0  0  0  0  0  0  0  0  0
  160.8380  203.2680  149.5780 C   0  0  0  0  0  0  0  0  0  0  0  0
  160.8300  204.4580  148.7800 N   0  0  0  0  0  2  0  0  0  0  0  0
  160.2050  202.0330  149.0470 C   0  0  0  0  0  1  0  0  0  0  0  0
  161.2520  210.4920  152.1180 S   0  0  0  0  0  0  0  0  0  0  0  0
  159.6520  210.9390  152.5520 O   0  0  0  0  0  0  0  0  0  0  0  0
  159.7360  212.2680  152.9720 C   0  0  0  0  0  2  0  0  0  0  0  0
  157.2790  213.1480  153.4470 C   0  0  1  0  0  3  0  0  0  0  0  0
  158.2570  214.3080  153.2870 C   0  0  0  0  0  2  0  0  0  0  0  0
  158.4870  213.0230  152.5270 C   0  0  1  0  0  0  0  0  0  0  0  0
  158.1750  213.1300  151.0470 C   0  0  0  0  0  1  0  0  0  0  0  0
  157.4690  212.4820  154.8050 C   0  0  2  0  0  3  0  0  0  0  0  0
  157.0990  211.1390  154.7120 O   0  0  0  0  0  1  0  0  0  0  0  0
  156.2330  212.2700  156.8430 O   0  0  0  0  0  1  0  0  0  0  0  0
  156.6010  213.1760  155.8470 C   0  0  2  0  0  3  0  0  0  0  0  0
  155.4600  213.6880  155.2570 F   0  0  0  0  0  0  0  0  0  0  0  0
  1  2  1  0  0  0  0
  1  3  1  0  0  0  0
  4  6  1  0  0  0  0
  4  7  2  0  0  0  0
  5  2  2  0  0  0  0
  6  1  2  0  0  0  0
  7  5  1  0  0  0  0
  8  9  2  0  0  0  0
  8 10  1  0  0  0  0
  9 13  1  0  0  0  0
 10 12  1  0  0  0  0
 11 14  1  0  0  0  0
 12 14  2  0  0  0  0
 13 11  2  0  0  0  0
 14  4  1  0  0  0  0
 16 15  2  0  0  0  0
 17 13  1  0  0  0  0
 17 16  1  0  0  0  0
 18 16  1  0  0  0  0
 19 20  1  0  0  0  0
 19  6  1  0  0  0  0
 20 21  1  0  0  0  0
 22 26  1  1  0  0  0
 23 22  1  0  0  0  0
 24 25  1  6  0  0  0
 24 21  1  0  0  0  0
 24 23  1  0  0  0  0
 24 22  1  0  0  0  0
 26 27  1  6  0  0  0
 26 29  1  0  0  0  0
 29 30  1  6  0  0  0
 29 28  1  0  0  0  0
M  END
>  <MODEL>
3

>  <REMARK>
 VINA RESULT:      -7.2      2.710      3.770
  Name = 
  8 active torsions:
  status: ('A' for Active; 'I' for Inactive)
    1  A    between atoms: O_1  and  C_4
    2  A    between atoms: O_1  and  S_5
    3  A    between atoms: C_4  and  C_27
    4  A    between atoms: S_5  and  C_22
    5  A    between atoms: C_8  and  C_12
    6  A    between atoms: C_9  and  C_12
    7  A    between atoms: N_16  and  C_25
    8  A    between atoms: C_19  and  C_29
                            x       y       z     vdW  Elec       q    Type
                         _______ _______ _______ _____ _____    ______ ____

>  <TORSDO>
F 8

$$$$
=
 OpenBabel11052421503D

 30 32  0  0  1  0  0  0  0  0999 V2000
  162.0030  208.7770  151.2850 C   0  0  0  0  0  0  0  0  0  0  0  0
  161.5220  208.1070  152.4110 C   0  0  0  0  0  3  0  0  0  0  0  0
  162.7620  210.3440  151.5240 Cl  0  0  0  0  0  0  0  0  0  0  0  0
  161.2490  206.9310  149.8730 C   0  0  0  0  0  0  0  0  0  0  0  0
  160.8990  206.8680  152.2810 C   0  0  0  0  0  3  0  0  0  0  0  0
  161.8550  208.2070  150.0020 C   0  0  0  0  0  0  0  0  0  0  0  0
  160.7690  206.2840  151.0230 C   0  0  0  0  0  3  0  0  0  0  0  0
  161.7360  205.5280  145.7000 N   0  0  0  0  0  0  0  0  0  0  0  0
  162.1660  204.4630  146.3050 C   0  0  0  0  0  3  0  0  0  0  0  0
  160.5950  206.3100  146.1470 C   0  0  0  0  0  2  0  0  0  0  0  0
  161.2000  204.7400  148.5690 C   0  0  0  0  0  3  0  0  0  0  0  0
  160.8690  206.9320  147.4750 C   0  0  0  0  0  3  0  0  0  0  0  0
  161.6080  203.9410  147.5740 C   0  0  0  0  0  0  0  0  0  0  0  0
  161.1460  206.2230  148.5750 C   0  0  0  0  0  0  0  0  0  0  0  0
  160.5160  201.7360  145.9440 O   0  0  0  0  0  0  0  0  0  0  0  0
  161.1250  201.4850  147.0180 C   0  0  0  0  0  0  0  0  0  0  0  0
  161.6380  202.5340  147.8480 N   0  0  0  0  0  2  0  0  0  0  0  0
  161.3000  200.0720  147.4410 C   0  0  0  0  0  1  0  0  0  0  0  0
  162.3700  209.1490  148.5500 S   0  0  0  0  0  0  0  0  0  0  0  0
  161.5770  210.5720  149.0920 O   0  0  0  0  0  0  0  0  0  0  0  0
  161.3140  211.3150  147.9410 C   0  0  0  0  0  2  0  0  0  0  0  0
  160.0500  213.6380  148.1500 C   0  0  1  0  0  3  0  0  0  0  0  0
  160.5130  213.1390  149.5150 C   0  0  0  0  0  2  0  0  0  0  0  0
  161.3170  212.8020  148.2820 C   0  0  1  0  0  0  0  0  0  0  0  0
  162.6110  213.5850  148.1690 C   0  0  0  0  0  1  0  0  0  0  0  0
  158.8360  212.8430  147.6830 C   0  0  2  0  0  3  0  0  0  0  0  0
  158.8770  212.7190  146.2930 O   0  0  0  0  0  1  0  0  0  0  0  0
  156.9630  212.9120  149.1720 O   0  0  0  0  0  1  0  0  0  0  0  0
  157.5570  213.5650  148.0910 C   0  0  2  0  0  3  0  0  0  0  0  0
  156.6650  213.5950  147.0340 F   0  0  0  0  0  0  0  0  0  0  0  0
  1  3  1  0  0  0  0
  1  2  1  0  0  0  0
  4  6  1  0  0  0  0
  4  7  2  0  0  0  0
  5  2  2  0  0  0  0
  6  1  2  0  0  0  0
  7  5  1  0  0  0  0
  8 10  1  0  0  0  0
  8  9  2  0  0  0  0
  9 13  1  0  0  0  0
 10 12  1  0  0  0  0
 11 14  1  0  0  0  0
 12 14  2  0  0  0  0
 13 17  1  0  0  0  0
 13 11  2  0  0  0  0
 14  4  1  0  0  0  0
 15 16  2  0  0  0  0
 16 18  1  0  0  0  0
 16 17  1  0  0  0  0
 19 20  1  0  0  0  0
 19  6  1  0  0  0  0
 21 24  1  0  0  0  0
 21 20  1  0  0  0  0
 22 26  1  6  0  0  0
 22 24  1  0  0  0  0
 22 23  1  0  0  0  0
 24 25  1  6  0  0  0
 24 23  1  0  0  0  0
 26 27  1  6  0  0  0
 26 29  1  0  0  0  0
 29 30  1  6  0  0  0
 29 28  1  0  0  0  0
M  END
>  <MODEL>
4

>  <REMARK>
 VINA RESULT:      -7.1      3.000      3.455
  Name = 
  8 active torsions:
  status: ('A' for Active; 'I' for Inactive)
    1  A    between atoms: O_1  and  C_4
    2  A    between atoms: O_1  and  S_5
    3  A    between atoms: C_4  and  C_27
    4  A    between atoms: S_5  and  C_22
    5  A    between atoms: C_8  and  C_12
    6  A    between atoms: C_9  and  C_12
    7  A    between atoms: N_16  and  C_25
    8  A    between atoms: C_19  and  C_29
                            x       y       z     vdW  Elec       q    Type
                         _______ _______ _______ _____ _____    ______ ____

>  <TORSDO>
F 8

$$$$
=
 OpenBabel11052421503D

 30 32  0  0  1  0  0  0  0  0999 V2000
  161.2850  211.4360  149.9930 C   0  0  0  0  0  0  0  0  0  0  0  0
  160.5150  212.5570  150.3080 C   0  0  0  0  0  3  0  0  0  0  0  0
  161.9650  211.3360  148.3750 Cl  0  0  0  0  0  0  0  0  0  0  0  0
  160.9210  210.5610  152.2440 C   0  0  0  0  0  0  0  0  0  0  0  0
  159.9400  212.6840  151.5700 C   0  0  0  0  0  3  0  0  0  0  0  0
  161.4810  210.4170  150.9490 C   0  0  0  0  0  0  0  0  0  0  0  0
  160.1450  211.6960  152.5300 C   0  0  0  0  0  3  0  0  0  0  0  0
  160.8740  208.2440  156.0190 N   0  0  0  0  0  0  0  0  0  0  0  0
  160.3960  207.3270  155.2330 C   0  0  0  0  0  3  0  0  0  0  0  0
  161.9560  209.1430  155.6520 C   0  0  0  0  0  2  0  0  0  0  0  0
  161.1250  208.1360  153.0080 C   0  0  0  0  0  3  0  0  0  0  0  0
  161.5420  210.0370  154.5320 C   0  0  0  0  0  3  0  0  0  0  0  0
  160.8280  207.1210  153.8310 C   0  0  0  0  0  0  0  0  0  0  0  0
  161.1630  209.5830  153.3320 C   0  0  0  0  0  0  0  0  0  0  0  0
  162.7820  205.8630  152.0120 O   0  0  0  0  0  0  0  0  0  0  0  0
  161.7690  205.2180  152.3930 C   0  0  0  0  0  0  0  0  0  0  0  0
  160.7850  205.8110  153.2500 N   0  0  0  0  0  2  0  0  0  0  0  0
  161.5820  203.8180  151.9330 C   0  0  0  0  0  1  0  0  0  0  0  0
  162.3720  208.9190  150.4770 S   0  0  0  0  0  0  0  0  0  0  0  0
  161.2120  208.5100  149.2790 O   0  0  0  0  0  0  0  0  0  0  0  0
  161.8290  207.5510  148.4730 C   0  0  0  0  0  2  0  0  0  0  0  0
  160.8520  205.3460  147.3690 C   0  0  1  0  0  3  0  0  0  0  0  0
  161.9550  205.0170  148.3710 C   0  0  0  0  0  2  0  0  0  0  0  0
  161.0790  206.2280  148.5900 C   0  0  1  0  0  0  0  0  0  0  0  0
  160.0650  206.0480  149.7030 C   0  0  0  0  0  1  0  0  0  0  0  0
  161.4560  205.9060  146.0860 C   0  0  2  0  0  3  0  0  0  0  0  0
  160.4560  206.5460  145.3510 O   0  0  0  0  0  1  0  0  0  0  0  0
  161.3010  203.6080  145.4350 O   0  0  0  0  0  1  0  0  0  0  0  0
  162.0490  204.7740  145.2570 C   0  0  2  0  0  3  0  0  0  0  0  0
  163.3570  204.5340  145.6370 F   0  0  0  0  0  0  0  0  0  0  0  0
  1  2  2  0  0  0  0
  1  6  1  0  0  0  0
  2  5  1  0  0  0  0
  3  1  1  0  0  0  0
  4  7  1  0  0  0  0
  4 14  1  0  0  0  0
  5  7  2  0  0  0  0
  6  4  2  0  0  0  0
  9  8  2  0  0  0  0
 10  8  1  0  0  0  0
 11 14  1  0  0  0  0
 11 13  2  0  0  0  0
 12 10  1  0  0  0  0
 13  9  1  0  0  0  0
 14 12  2  0  0  0  0
 15 16  2  0  0  0  0
 16 17  1  0  0  0  0
 17 13  1  0  0  0  0
 18 16  1  0  0  0  0
 19  6  1  0  0  0  0
 20 19  1  0  0  0  0
 21 24  1  0  0  0  0
 21 20  1  0  0  0  0
 22 26  1  6  0  0  0
 22 23  1  0  0  0  0
 22 24  1  0  0  0  0
 23 24  1  0  0  0  0
 24 25  1  1  0  0  0
 26 27  1  6  0  0  0
 29 28  1  1  0  0  0
 29 30  1  0  0  0  0
 29 26  1  0  0  0  0
M  END
>  <MODEL>
5

>  <REMARK>
 VINA RESULT:      -6.8      3.945      8.016
  Name = 
  8 active torsions:
  status: ('A' for Active; 'I' for Inactive)
    1  A    between atoms: O_1  and  C_4
    2  A    between atoms: O_1  and  S_5
    3  A    between atoms: C_4  and  C_27
    4  A    between atoms: S_5  and  C_22
    5  A    between atoms: C_8  and  C_12
    6  A    between atoms: C_9  and  C_12
    7  A    between atoms: N_16  and  C_25
    8  A    between atoms: C_19  and  C_29
                            x       y       z     vdW  Elec       q    Type
                         _______ _______ _______ _____ _____    ______ ____

>  <TORSDO>
F 8

$$$$
=
 OpenBabel11052421503D

 30 32  0  0  1  0  0  0  0  0999 V2000
  161.5870  207.8890  148.7060 C   0  0  0  0  0  0  0  0  0  0  0  0
  161.2040  207.8560  147.3640 C   0  0  0  0  0  3  0  0  0  0  0  0
  162.0170  209.4460  149.3980 Cl  0  0  0  0  0  0  0  0  0  0  0  0
  161.2710  205.4710  148.8490 C   0  0  0  0  0  0  0  0  0  0  0  0
  160.8650  206.6480  146.7580 C   0  0  0  0  0  3  0  0  0  0  0  0
  161.6450  206.6960  149.4570 C   0  0  0  0  0  0  0  0  0  0  0  0
  160.8960  205.4670  147.4960 C   0  0  0  0  0  3  0  0  0  0  0  0
  160.1400  202.0780  151.4630 N   0  0  0  0  0  0  0  0  0  0  0  0
  160.0390  201.4730  150.3190 C   0  0  0  0  0  3  0  0  0  0  0  0
  161.2000  203.0170  151.7930 C   0  0  0  0  0  2  0  0  0  0  0  0
  161.4100  202.9250  148.8530 C   0  0  0  0  0  3  0  0  0  0  0  0
  161.1180  204.2310  150.9310 C   0  0  0  0  0  3  0  0  0  0  0  0
  160.9390  201.7090  149.1660 C   0  0  0  0  0  0  0  0  0  0  0  0
  161.2100  204.1920  149.5970 C   0  0  0  0  0  0  0  0  0  0  0  0
  160.4370  201.6610  146.2590 O   0  0  0  0  0  0  0  0  0  0  0  0
  160.9830  200.6750  146.8210 C   0  0  0  0  0  0  0  0  0  0  0  0
  161.2110  200.6530  148.2360 N   0  0  0  0  0  2  0  0  0  0  0  0
  161.3850  199.5010  146.0030 C   0  0  0  0  0  1  0  0  0  0  0  0
  162.2670  206.7470  151.1520 S   0  0  0  0  0  0  0  0  0  0  0  0
  160.8450  207.5130  151.7360 O   0  0  0  0  0  0  0  0  0  0  0  0
  161.0840  207.7640  153.0880 C   0  0  0  0  0  2  0  0  0  0  0  0
  160.8230  209.7630  154.8130 C   0  0  1  0  0  3  0  0  0  0  0  0
  162.0650  209.9430  153.9460 C   0  0  0  0  0  2  0  0  0  0  0  0
  160.8520  209.2430  153.3800 C   0  0  1  0  0  0  0  0  0  0  0  0
  160.0780  210.0830  152.3830 C   0  0  0  0  0  1  0  0  0  0  0  0
  161.0650  208.6840  155.8620 C   0  0  2  0  0  3  0  0  0  0  0  0
  159.8600  208.0360  156.1390 O   0  0  0  0  0  1  0  0  0  0  0  0
  161.1310  210.6250  157.2610 O   0  0  0  0  0  1  0  0  0  0  0  0
  161.6050  209.3170  157.1390 C   0  0  2  0  0  3  0  0  0  0  0  0
  162.9870  209.3380  157.1160 F   0  0  0  0  0  0  0  0  0  0  0  0
  1  3  1  0  0  0  0
  1  6  1  0  0  0  0
  2  1  2  0  0  0  0
  4  6  2  0  0  0  0
  4 14  1  0  0  0  0
  5  2  1  0  0  0  0
  5  7  2  0  0  0  0
  6 19  1  0  0  0  0
  7  4  1  0  0  0  0
  8 10  1  0  0  0  0
  9  8  2  0  0  0  0
 11 13  2  0  0  0  0
 11 14  1  0  0  0  0
 12 10  1  0  0  0  0
 13  9  1  0  0  0  0
 14 12  2  0  0  0  0
 15 16  2  0  0  0  0
 16 17  1  0  0  0  0
 17 13  1  0  0  0  0
 18 16  1  0  0  0  0
 19 20  1  0  0  0  0
 20 21  1  0  0  0  0
 21 24  1  0  0  0  0
 22 26  1  1  0  0  0
 23 22  1  0  0  0  0
 24 25  1  6  0  0  0
 24 23  1  0  0  0  0
 24 22  1  0  0  0  0
 26 27  1  1  0  0  0
 26 29  1  0  0  0  0
 29 30  1  6  0  0  0
 29 28  1  0  0  0  0
M  END
>  <MODEL>
6

>  <REMARK>
 VINA RESULT:      -6.8      3.025      4.429
  Name = 
  8 active torsions:
  status: ('A' for Active; 'I' for Inactive)
    1  A    between atoms: O_1  and  C_4
    2  A    between atoms: O_1  and  S_5
    3  A    between atoms: C_4  and  C_27
    4  A    between atoms: S_5  and  C_22
    5  A    between atoms: C_8  and  C_12
    6  A    between atoms: C_9  and  C_12
    7  A    between atoms: N_16  and  C_25
    8  A    between atoms: C_19  and  C_29
                            x       y       z     vdW  Elec       q    Type
                         _______ _______ _______ _____ _____    ______ ____

>  <TORSDO>
F 8

$$$$
=
 OpenBabel11052421503D

 30 32  0  0  1  0  0  0  0  0999 V2000
  160.5700  203.9660  150.7920 C   0  0  0  0  0  0  0  0  0  0  0  0
  160.8090  203.3050  151.9980 C   0  0  0  0  0  3  0  0  0  0  0  0
  159.9950  203.0110  149.4330 Cl  0  0  0  0  0  0  0  0  0  0  0  0
  161.2600  206.0730  151.8170 C   0  0  0  0  0  0  0  0  0  0  0  0
  161.2780  204.0070  153.1050 C   0  0  0  0  0  3  0  0  0  0  0  0
  160.8120  205.3510  150.6820 C   0  0  0  0  0  0  0  0  0  0  0  0
  161.4980  205.3800  153.0160 C   0  0  0  0  0  3  0  0  0  0  0  0
  161.1660  210.4030  150.8900 N   0  0  0  0  0  0  0  0  0  0  0  0
  160.5100  210.4390  152.0100 C   0  0  0  0  0  3  0  0  0  0  0  0
  162.3330  209.5670  150.6610 C   0  0  0  0  0  2  0  0  0  0  0  0
  161.1790  208.2980  153.0600 C   0  0  0  0  0  3  0  0  0  0  0  0
  161.9670  208.1220  150.7240 C   0  0  0  0  0  3  0  0  0  0  0  0
  160.8050  209.5790  153.1800 C   0  0  0  0  0  0  0  0  0  0  0  0
  161.4420  207.5440  151.8100 C   0  0  0  0  0  0  0  0  0  0  0  0
  162.7060  210.7030  155.1370 O   0  0  0  0  0  0  0  0  0  0  0  0
  161.4820  210.6230  155.4210 C   0  0  0  0  0  0  0  0  0  0  0  0
  160.5380  210.0520  154.5060 N   0  0  0  0  0  2  0  0  0  0  0  0
  161.0070  211.1150  156.7410 C   0  0  0  0  0  1  0  0  0  0  0  0
  160.6180  206.1590  149.0780 S   0  0  0  0  0  0  0  0  0  0  0  0
  162.0790  205.4880  148.4740 O   0  0  0  0  0  0  0  0  0  0  0  0
  161.7230  204.2610  147.9120 C   0  0  0  0  0  2  0  0  0  0  0  0
  161.5050  203.2200  145.4820 C   0  0  1  0  0  3  0  0  0  0  0  0
  160.9780  204.6510  145.5160 C   0  0  0  0  0  2  0  0  0  0  0  0
  162.1050  204.2460  146.4360 C   0  0  1  0  0  0  0  0  0  0  0  0
  163.4560  204.7910  146.0160 C   0  0  0  0  0  1  0  0  0  0  0  0
  160.5080  202.2760  146.1440 C   0  0  2  0  0  3  0  0  0  0  0  0
  161.2020  201.2200  146.7380 O   0  0  0  0  0  1  0  0  0  0  0  0
  160.0810  200.5770  144.5130 O   0  0  0  0  0  1  0  0  0  0  0  0
  159.5450  201.7250  145.0980 C   0  0  2  0  0  3  0  0  0  0  0  0
  159.3160  202.6690  144.1140 F   0  0  0  0  0  0  0  0  0  0  0  0
  1  2  1  0  0  0  0
  2  5  2  0  0  0  0
  3  1  1  0  0  0  0
  4  7  2  0  0  0  0
  6  1  2  0  0  0  0
  6  4  1  0  0  0  0
  7  5  1  0  0  0  0
  8  9  2  0  0  0  0
  9 13  1  0  0  0  0
 10 12  1  0  0  0  0
 10  8  1  0  0  0  0
 11 13  2  0  0  0  0
 12 14  2  0  0  0  0
 13 17  1  0  0  0  0
 14  4  1  0  0  0  0
 14 11  1  0  0  0  0
 15 16  2  0  0  0  0
 16 18  1  0  0  0  0
 17 16  1  0  0  0  0
 19  6  1  0  0  0  0
 20 19  1  0  0  0  0
 21 20  1  0  0  0  0
 22 23  1  0  0  0  0
 22 26  1  1  0  0  0
 22 24  1  0  0  0  0
 23 24  1  0  0  0  0
 24 25  1  6  0  0  0
 24 21  1  0  0  0  0
 26 27  1  6  0  0  0
 28 29  1  0  0  0  0
 29 30  1  6  0  0  0
 29 26  1  0  0  0  0
M  END
>  <MODEL>
7

>  <REMARK>
 VINA RESULT:      -6.7      4.218      9.099
  Name = 
  8 active torsions:
  status: ('A' for Active; 'I' for Inactive)
    1  A    between atoms: O_1  and  C_4
    2  A    between atoms: O_1  and  S_5
    3  A    between atoms: C_4  and  C_27
    4  A    between atoms: S_5  and  C_22
    5  A    between atoms: C_8  and  C_12
    6  A    between atoms: C_9  and  C_12
    7  A    between atoms: N_16  and  C_25
    8  A    between atoms: C_19  and  C_29
                            x       y       z     vdW  Elec       q    Type
                         _______ _______ _______ _____ _____    ______ ____

>  <TORSDO>
F 8

$$$$
=
 OpenBabel11052421503D

 30 32  0  0  1  0  0  0  0  0999 V2000
  161.8290  208.6110  151.2870 C   0  0  0  0  0  0  0  0  0  0  0  0
  161.5040  207.8430  152.4050 C   0  0  0  0  0  3  0  0  0  0  0  0
  162.3830  210.2580  151.5550 Cl  0  0  0  0  0  0  0  0  0  0  0  0
  161.2530  206.7320  149.8360 C   0  0  0  0  0  0  0  0  0  0  0  0
  161.0470  206.5360  152.2540 C   0  0  0  0  0  3  0  0  0  0  0  0
  161.6890  208.0730  149.9900 C   0  0  0  0  0  0  0  0  0  0  0  0
  160.9270  205.9860  150.9800 C   0  0  0  0  0  3  0  0  0  0  0  0
  161.8370  205.4380  145.6400 N   0  0  0  0  0  0  0  0  0  0  0  0
  162.2250  204.3470  146.2270 C   0  0  0  0  0  3  0  0  0  0  0  0
  160.7000  206.2320  146.0760 C   0  0  0  0  0  2  0  0  0  0  0  0
  161.1960  204.5810  148.4680 C   0  0  0  0  0  3  0  0  0  0  0  0
  160.9460  206.8090  147.4290 C   0  0  0  0  0  3  0  0  0  0  0  0
  161.6170  203.8010  147.4630 C   0  0  0  0  0  0  0  0  0  0  0  0
  161.1740  206.0640  148.5150 C   0  0  0  0  0  0  0  0  0  0  0  0
  160.4660  201.6740  145.7710 O   0  0  0  0  0  0  0  0  0  0  0  0
  161.0670  201.3760  146.8370 C   0  0  0  0  0  0  0  0  0  0  0  0
  161.6080  202.3870  147.6970 N   0  0  0  0  0  2  0  0  0  0  0  0
  161.2030  199.9470  147.2200 C   0  0  0  0  0  1  0  0  0  0  0  0
  161.9930  209.1280  148.5560 S   0  0  0  0  0  0  0  0  0  0  0  0
  162.0570  210.5510  149.5150 O   0  0  0  0  0  0  0  0  0  0  0  0
  162.3540  211.5870  148.6280 C   0  0  0  0  0  2  0  0  0  0  0  0
  161.0030  213.4570  147.3190 C   0  0  1  0  0  3  0  0  0  0  0  0
  160.2160  212.1520  147.3800 C   0  0  0  0  0  2  0  0  0  0  0  0
  161.1510  212.5170  148.5090 C   0  0  1  0  0  0  0  0  0  0  0  0
  160.4350  212.9660  149.7680 C   0  0  0  0  0  1  0  0  0  0  0  0
  162.1330  213.3430  146.3020 C   0  0  2  0  0  3  0  0  0  0  0  0
  163.1230  214.2780  146.6110 O   0  0  0  0  0  1  0  0  0  0  0  0
  160.4730  214.4390  144.9720 O   0  0  0  0  0  1  0  0  0  0  0  0
  161.5970  213.6150  144.9020 C   0  0  2  0  0  3  0  0  0  0  0  0
  161.2500  212.4290  144.2820 F   0  0  0  0  0  0  0  0  0  0  0  0
  1  3  1  0  0  0  0
  1  2  1  0  0  0  0
  4  6  1  0  0  0  0
  4  7  2  0  0  0  0
  5  2  2  0  0  0  0
  6  1  2  0  0  0  0
  7  5  1  0  0  0  0
  8 10  1  0  0  0  0
  8  9  2  0  0  0  0
  9 13  1  0  0  0  0
 10 12  1  0  0  0  0
 11 14  1  0  0  0  0
 12 14  2  0  0  0  0
 13 17  1  0  0  0  0
 13 11  2  0  0  0  0
 14  4  1  0  0  0  0
 15 16  2  0  0  0  0
 16 18  1  0  0  0  0
 16 17  1  0  0  0  0
 19 20  1  0  0  0  0
 19  6  1  0  0  0  0
 21 20  1  0  0  0  0
 22 26  1  6  0  0  0
 22 23  1  0  0  0  0
 22 24  1  0  0  0  0
 23 24  1  0  0  0  0
 24 21  1  0  0  0  0
 24 25  1  1  0  0  0
 26 27  1  1  0  0  0
 29 30  1  1  0  0  0
 29 28  1  0  0  0  0
 29 26  1  0  0  0  0
M  END
>  <MODEL>
8

>  <REMARK>
 VINA RESULT:      -6.7      3.677      4.150
  Name = 
  8 active torsions:
  status: ('A' for Active; 'I' for Inactive)
    1  A    between atoms: O_1  and  C_4
    2  A    between atoms: O_1  and  S_5
    3  A    between atoms: C_4  and  C_27
    4  A    between atoms: S_5  and  C_22
    5  A    between atoms: C_8  and  C_12
    6  A    between atoms: C_9  and  C_12
    7  A    between atoms: N_16  and  C_25
    8  A    between atoms: C_19  and  C_29
                            x       y       z     vdW  Elec       q    Type
                         _______ _______ _______ _____ _____    ______ ____

>  <TORSDO>
F 8

$$$$
=
 OpenBabel11052421503D

 30 32  0  0  1  0  0  0  0  0999 V2000
  161.4500  204.9490  152.4000 C   0  0  0  0  0  0  0  0  0  0  0  0
  160.9940  203.6520  152.6410 C   0  0  0  0  0  3  0  0  0  0  0  0
  161.8710  205.9420  153.7880 Cl  0  0  0  0  0  0  0  0  0  0  0  0
  161.2010  204.5830  149.9970 C   0  0  0  0  0  0  0  0  0  0  0  0
  160.6320  202.8240  151.5810 C   0  0  0  0  0  3  0  0  0  0  0  0
  161.5400  205.4360  151.0790 C   0  0  0  0  0  0  0  0  0  0  0  0
  160.7390  203.2860  150.2710 C   0  0  0  0  0  3  0  0  0  0  0  0
  162.7130  206.0280  146.0930 N   0  0  0  0  0  0  0  0  0  0  0  0
  162.5280  204.7840  145.7710 C   0  0  0  0  0  3  0  0  0  0  0  0
  161.8000  206.7950  146.9250 C   0  0  0  0  0  2  0  0  0  0  0  0
  160.9410  204.0380  147.5200 C   0  0  0  0  0  3  0  0  0  0  0  0
  161.7500  206.2370  148.3060 C   0  0  0  0  0  3  0  0  0  0  0  0
  161.4090  203.9510  146.2670 C   0  0  0  0  0  0  0  0  0  0  0  0
  161.3630  204.9860  148.5800 C   0  0  0  0  0  0  0  0  0  0  0  0
  161.0020  201.1200  146.9990 O   0  0  0  0  0  0  0  0  0  0  0  0
  160.6720  201.5300  145.8540 C   0  0  0  0  0  0  0  0  0  0  0  0
  160.8860  202.8900  145.4570 N   0  0  0  0  0  2  0  0  0  0  0  0
  160.0620  200.5790  144.8890 C   0  0  0  0  0  1  0  0  0  0  0  0
  162.0090  207.1580  150.8000 S   0  0  0  0  0  0  0  0  0  0  0  0
  161.2510  207.6830  152.2480 O   0  0  0  0  0  0  0  0  0  0  0  0
  160.5430  208.8360  151.9030 C   0  0  0  0  0  2  0  0  0  0  0  0
  160.7620  211.0820  153.2970 C   0  0  1  0  0  3  0  0  0  0  0  0
  161.7790  210.0440  153.7630 C   0  0  0  0  0  2  0  0  0  0  0  0
  161.3410  210.0680  152.3180 C   0  0  1  0  0  0  0  0  0  0  0  0
  162.3920  210.6210  151.3750 C   0  0  0  0  0  1  0  0  0  0  0  0
  159.3710  210.7210  153.8040 C   0  0  2  0  0  3  0  0  0  0  0  0
  158.4160  211.2540  152.9360 O   0  0  0  0  0  1  0  0  0  0  0  0
  158.9940  210.2620  156.1220 O   0  0  0  0  0  1  0  0  0  0  0  0
  159.1650  211.2960  155.2000 C   0  0  2  0  0  3  0  0  0  0  0  0
  158.0480  212.1100  155.2230 F   0  0  0  0  0  0  0  0  0  0  0  0
  1  2  1  0  0  0  0
  1  3  1  0  0  0  0
  4  7  2  0  0  0  0
  4  6  1  0  0  0  0
  5  2  2  0  0  0  0
  6  1  2  0  0  0  0
  7  5  1  0  0  0  0
  8 10  1  0  0  0  0
  9  8  2  0  0  0  0
  9 13  1  0  0  0  0
 10 12  1  0  0  0  0
 11 14  1  0  0  0  0
 12 14  2  0  0  0  0
 13 11  2  0  0  0  0
 14  4  1  0  0  0  0
 16 15  2  0  0  0  0
 17 16  1  0  0  0  0
 17 13  1  0  0  0  0
 18 16  1  0  0  0  0
 19  6  1  0  0  0  0
 19 20  1  0  0  0  0
 21 20  1  0  0  0  0
 21 24  1  0  0  0  0
 22 23  1  0  0  0  0
 22 26  1  1  0  0  0
 24 25  1  6  0  0  0
 24 22  1  0  0  0  0
 24 23  1  0  0  0  0
 26 27  1  6  0  0  0
 26 29  1  0  0  0  0
 29 30  1  6  0  0  0
 29 28  1  0  0  0  0
M  END
>  <MODEL>
9

>  <REMARK>
 VINA RESULT:      -6.6      1.551      1.947
  Name = 
  8 active torsions:
  status: ('A' for Active; 'I' for Inactive)
    1  A    between atoms: O_1  and  C_4
    2  A    between atoms: O_1  and  S_5
    3  A    between atoms: C_4  and  C_27
    4  A    between atoms: S_5  and  C_22
    5  A    between atoms: C_8  and  C_12
    6  A    between atoms: C_9  and  C_12
    7  A    between atoms: N_16  and  C_25
    8  A    between atoms: C_19  and  C_29
                            x       y       z     vdW  Elec       q    Type
                         _______ _______ _______ _____ _____    ______ ____

>  <TORSDO>
F 8

$$$$
