=
 OpenBabel11052422223D

 31 34  0  0  1  0  0  0  0  0999 V2000
  160.8270  207.8120  154.2430 C   0  0  0  0  0  0  0  0  0  0  0  0
  161.4340  207.3520  150.5480 C   0  0  0  0  0  0  0  0  0  0  0  0
  161.2990  205.9530  150.2730 C   0  0  0  0  0  0  0  0  0  0  0  0
  161.5480  203.6420  151.2730 C   0  0  0  0  0  2  0  0  0  0  0  0
  161.2700  207.9500  151.8410 C   0  0  0  0  0  0  0  0  0  0  0  0
  160.9650  209.1940  154.3640 C   0  0  0  0  0  3  0  0  0  0  0  0
  160.8310  204.9890  151.3420 C   0  0  0  0  0  2  0  0  0  0  0  0
  161.8960  209.5920  149.6340 C   0  0  0  0  0  0  0  0  0  0  0  0
  160.5180  206.9890  155.4400 C   0  0  0  0  0  1  0  0  0  0  0  0
  161.8270  206.3860  147.9760 N   0  0  0  0  0  0  0  0  0  0  0  0
  160.8650  202.6860  150.4820 O   0  0  0  0  0  0  0  0  0  0  0  0
  161.7180  210.1530  150.8960 C   0  0  0  0  0  3  0  0  0  0  0  0
  161.7580  208.2070  149.4590 C   0  0  0  0  0  0  0  0  0  0  0  0
  160.9800  207.2030  152.9970 C   0  0  0  0  0  3  0  0  0  0  0  0
  160.4090  203.2430  149.2630 C   0  0  0  0  0  2  0  0  0  0  0  0
  161.4130  209.3550  151.9890 C   0  0  0  0  0  0  0  0  0  0  0  0
  161.2570  209.9630  153.2390 C   0  0  0  0  0  3  0  0  0  0  0  0
  161.9410  207.6870  148.2190 N   0  0  0  0  0  0  0  0  0  0  0  0
  161.5020  205.4970  148.9420 C   0  0  0  0  0  0  0  0  0  0  0  0
  161.4830  204.0470  148.5340 C   0  0  0  0  0  2  0  0  0  0  0  0
  162.2120  210.4250  148.5090 N   0  0  0  0  0  2  0  0  0  0  0  0
  163.4370  212.4970  148.0990 C   0  0  0  0  0  1  0  0  0  0  0  0
  162.1170  211.8780  148.5250 C   0  0  1  0  0  3  0  0  0  0  0  0
  160.3880  211.4740  146.9370 O   0  0  0  0  0  0  0  0  0  0  0  0
  161.0170  212.3290  147.6150 C   0  0  0  0  0  0  0  0  0  0  0  0
  161.2050  214.4530  146.5980 O   0  0  0  0  0  0  0  0  0  0  0  0
  160.6880  213.7680  147.5200 C   0  0  0  0  0  0  0  0  0  0  0  0
  159.8010  214.4250  148.4370 N   0  0  0  0  0  2  0  0  0  0  0  0
  159.1320  213.7780  149.5550 C   0  0  0  0  0  2  0  0  0  0  0  0
  160.0170  213.8210  150.7870 C   0  0  0  0  0  2  0  0  0  0  0  0
  159.4880  212.8770  151.8490 C   0  0  0  0  0  1  0  0  0  0  0  0
  1  6  1  0  0  0  0
  1  9  1  0  0  0  0
  2  5  1  0  0  0  0
  3  2  1  0  0  0  0
  3  7  1  0  0  0  0
  4  7  1  0  0  0  0
  5 16  2  0  0  0  0
  5 14  1  0  0  0  0
  8 12  2  0  0  0  0
 10 18  2  0  0  0  0
 10 19  1  0  0  0  0
 11  4  1  0  0  0  0
 12 16  1  0  0  0  0
 13  8  1  0  0  0  0
 13  2  2  0  0  0  0
 14  1  2  0  0  0  0
 15 11  1  0  0  0  0
 16 17  1  0  0  0  0
 17  6  2  0  0  0  0
 18 13  1  0  0  0  0
 19  3  2  0  0  0  0
 20 19  1  0  0  0  0
 20 15  1  0  0  0  0
 21 23  1  0  0  0  0
 21  8  1  0  0  0  0
 23 22  1  6  0  0  0
 24 25  2  0  0  0  0
 25 23  1  0  0  0  0
 26 27  2  0  0  0  0
 27 25  1  0  0  0  0
 27 28  1  0  0  0  0
 28 29  1  0  0  0  0
 29 30  1  0  0  0  0
 30 31  1  0  0  0  0
M  END
>  <MODEL>
1

>  <REMARK>
 VINA RESULT:      -8.5      0.000      0.000
  Name = 
  6 active torsions:
  status: ('A' for Active; 'I' for Inactive)
    1  A    between atoms: C_1  and  C_11
    2  A    between atoms: C_9  and  C_22
    3  A    between atoms: C_9  and  N_23
    4  A    between atoms: C_11  and  N_24
    5  A    between atoms: C_15  and  N_23
    6  A    between atoms: C_19  and  C_22
                            x       y       z     vdW  Elec       q    Type
                         _______ _______ _______ _____ _____    ______ ____

>  <TORSDO>
F 6

$$$$
=
 OpenBabel11052422223D

 31 34  0  0  1  0  0  0  0  0999 V2000
  160.8230  207.9340  154.2260 C   0  0  0  0  0  0  0  0  0  0  0  0
  161.4110  207.4900  150.5250 C   0  0  0  0  0  0  0  0  0  0  0  0
  161.3100  206.0890  150.2510 C   0  0  0  0  0  0  0  0  0  0  0  0
  161.6280  203.7850  151.2470 C   0  0  0  0  0  2  0  0  0  0  0  0
  161.2420  208.0830  151.8190 C   0  0  0  0  0  0  0  0  0  0  0  0
  160.9250  209.3190  154.3460 C   0  0  0  0  0  3  0  0  0  0  0  0
  160.8760  205.1120  151.3230 C   0  0  0  0  0  2  0  0  0  0  0  0
  161.8060  209.7420  149.6080 C   0  0  0  0  0  0  0  0  0  0  0  0
  160.5460  207.1020  155.4250 C   0  0  0  0  0  1  0  0  0  0  0  0
  161.8070  206.5360  147.9490 N   0  0  0  0  0  0  0  0  0  0  0  0
  160.9640  202.8110  150.4620 O   0  0  0  0  0  0  0  0  0  0  0  0
  161.6240  210.2980  150.8720 C   0  0  0  0  0  3  0  0  0  0  0  0
  161.7030  208.3540  149.4330 C   0  0  0  0  0  0  0  0  0  0  0  0
  160.9810  207.3290  152.9780 C   0  0  0  0  0  3  0  0  0  0  0  0
  160.4830  203.3560  149.2480 C   0  0  0  0  0  2  0  0  0  0  0  0
  161.3490  209.4920  151.9670 C   0  0  0  0  0  0  0  0  0  0  0  0
  161.1880  210.0950  153.2180 C   0  0  0  0  0  3  0  0  0  0  0  0
  161.8890  207.8390  148.1920 N   0  0  0  0  0  0  0  0  0  0  0  0
  161.5140  205.6390  148.9180 C   0  0  0  0  0  0  0  0  0  0  0  0
  161.5300  204.1880  148.5090 C   0  0  0  0  0  2  0  0  0  0  0  0
  162.0910  210.5830  148.4810 N   0  0  0  0  0  2  0  0  0  0  0  0
  163.8270  212.1880  147.8710 C   0  0  0  0  0  1  0  0  0  0  0  0
  162.5080  211.9740  148.5930 C   0  0  1  0  0  3  0  0  0  0  0  0
  161.0900  213.8870  148.6730 O   0  0  0  0  0  0  0  0  0  0  0  0
  161.4550  212.8720  148.0220 C   0  0  0  0  0  0  0  0  0  0  0  0
  159.8250  211.8300  146.6650 O   0  0  0  0  0  0  0  0  0  0  0  0
  160.8550  212.5540  146.7070 C   0  0  0  0  0  0  0  0  0  0  0  0
  161.3960  213.0370  145.4700 N   0  0  0  0  0  2  0  0  0  0  0  0
  162.5800  213.8750  145.3490 C   0  0  0  0  0  2  0  0  0  0  0  0
  163.2740  213.6060  144.0270 C   0  0  0  0  0  2  0  0  0  0  0  0
  162.4360  212.6760  143.1710 C   0  0  0  0  0  1  0  0  0  0  0  0
  1  6  1  0  0  0  0
  1  9  1  0  0  0  0
  2  5  1  0  0  0  0
  3  2  1  0  0  0  0
  3  7  1  0  0  0  0
  4  7  1  0  0  0  0
  5 16  2  0  0  0  0
  5 14  1  0  0  0  0
  8 12  2  0  0  0  0
 10 18  2  0  0  0  0
 10 19  1  0  0  0  0
 11  4  1  0  0  0  0
 12 16  1  0  0  0  0
 13  8  1  0  0  0  0
 13  2  2  0  0  0  0
 14  1  2  0  0  0  0
 15 11  1  0  0  0  0
 16 17  1  0  0  0  0
 17  6  2  0  0  0  0
 18 13  1  0  0  0  0
 19  3  2  0  0  0  0
 20 19  1  0  0  0  0
 20 15  1  0  0  0  0
 21 23  1  0  0  0  0
 21  8  1  0  0  0  0
 23 22  1  6  0  0  0
 25 23  1  0  0  0  0
 25 24  2  0  0  0  0
 26 27  2  0  0  0  0
 27 25  1  0  0  0  0
 28 27  1  0  0  0  0
 29 28  1  0  0  0  0
 30 29  1  0  0  0  0
 31 30  1  0  0  0  0
M  END
>  <MODEL>
2

>  <REMARK>
 VINA RESULT:      -8.4      1.491      2.572
  Name = 
  6 active torsions:
  status: ('A' for Active; 'I' for Inactive)
    1  A    between atoms: C_1  and  C_11
    2  A    between atoms: C_9  and  C_22
    3  A    between atoms: C_9  and  N_23
    4  A    between atoms: C_11  and  N_24
    5  A    between atoms: C_15  and  N_23
    6  A    between atoms: C_19  and  C_22
                            x       y       z     vdW  Elec       q    Type
                         _______ _______ _______ _____ _____    ______ ____

>  <TORSDO>
F 6

$$$$
=
 OpenBabel11052422223D

 31 34  0  0  1  0  0  0  0  0999 V2000
  160.9050  202.0930  150.6750 C   0  0  0  0  0  0  0  0  0  0  0  0
  161.1450  205.4300  148.9280 C   0  0  0  0  0  0  0  0  0  0  0  0
  161.1720  205.1640  147.5220 C   0  0  0  0  0  0  0  0  0  0  0  0
  161.8450  203.4600  145.7770 C   0  0  0  0  0  2  0  0  0  0  0  0
  161.0490  204.4250  149.9470 C   0  0  0  0  0  0  0  0  0  0  0  0
  160.8660  202.4940  152.0080 C   0  0  0  0  0  3  0  0  0  0  0  0
  160.9640  203.7630  146.9870 C   0  0  0  0  0  2  0  0  0  0  0  0
  161.1920  207.1400  150.7000 C   0  0  0  0  0  0  0  0  0  0  0  0
  160.8490  200.6490  150.3310 C   0  0  0  0  0  1  0  0  0  0  0  0
  161.3720  207.5170  147.1140 N   0  0  0  0  0  0  0  0  0  0  0  0
  161.2130  203.7420  144.5410 O   0  0  0  0  0  0  0  0  0  0  0  0
  161.0830  206.1490  151.6710 C   0  0  0  0  0  3  0  0  0  0  0  0
  161.2250  206.7880  149.3420 C   0  0  0  0  0  0  0  0  0  0  0  0
  160.9970  203.0490  149.6610 C   0  0  0  0  0  3  0  0  0  0  0  0
  160.5500  204.9920  144.5650 C   0  0  0  0  0  2  0  0  0  0  0  0
  161.0160  204.8100  151.3140 C   0  0  0  0  0  0  0  0  0  0  0  0
  160.9210  203.8510  152.3260 C   0  0  0  0  0  3  0  0  0  0  0  0
  161.3350  207.7730  148.4170 N   0  0  0  0  0  0  0  0  0  0  0  0
  161.2830  206.2600  146.6230 C   0  0  0  0  0  0  0  0  0  0  0  0
  161.4150  206.1180  145.1290 C   0  0  0  0  0  2  0  0  0  0  0  0
  161.2620  208.5220  151.0790 N   0  0  0  0  0  2  0  0  0  0  0  0
  162.6710  210.2670  152.0450 C   0  0  0  0  0  1  0  0  0  0  0  0
  161.8840  208.9940  152.3090 C   0  0  1  0  0  3  0  0  0  0  0  0
  159.8760  210.0110  153.0880 O   0  0  0  0  0  0  0  0  0  0  0  0
  160.8380  209.2400  153.3500 C   0  0  0  0  0  0  0  0  0  0  0  0
  160.4620  207.4290  154.8200 O   0  0  0  0  0  0  0  0  0  0  0  0
  160.9480  208.5820  154.6700 C   0  0  0  0  0  0  0  0  0  0  0  0
  161.5860  209.2000  155.7960 N   0  0  0  0  0  2  0  0  0  0  0  0
  162.1880  210.5250  155.7880 C   0  0  0  0  0  2  0  0  0  0  0  0
  161.3650  211.4750  156.6380 C   0  0  0  0  0  2  0  0  0  0  0  0
  160.3200  212.1710  155.7880 C   0  0  0  0  0  1  0  0  0  0  0  0
  1  6  1  0  0  0  0
  2 13  2  0  0  0  0
  2  5  1  0  0  0  0
  3  2  1  0  0  0  0
  4  7  1  0  0  0  0
  5 16  2  0  0  0  0
  6 17  2  0  0  0  0
  7  3  1  0  0  0  0
  8 21  1  0  0  0  0
  8 12  2  0  0  0  0
  9  1  1  0  0  0  0
 10 18  2  0  0  0  0
 11 15  1  0  0  0  0
 11  4  1  0  0  0  0
 13  8  1  0  0  0  0
 14  5  1  0  0  0  0
 14  1  2  0  0  0  0
 15 20  1  0  0  0  0
 16 12  1  0  0  0  0
 16 17  1  0  0  0  0
 18 13  1  0  0  0  0
 19 10  1  0  0  0  0
 19  3  2  0  0  0  0
 20 19  1  0  0  0  0
 21 23  1  0  0  0  0
 23 22  1  6  0  0  0
 23 25  1  0  0  0  0
 24 25  2  0  0  0  0
 25 27  1  0  0  0  0
 27 26  2  0  0  0  0
 27 28  1  0  0  0  0
 29 28  1  0  0  0  0
 29 30  1  0  0  0  0
 31 30  1  0  0  0  0
M  END
>  <MODEL>
3

>  <REMARK>
 VINA RESULT:      -8.2      3.553      5.622
  Name = 
  6 active torsions:
  status: ('A' for Active; 'I' for Inactive)
    1  A    between atoms: C_1  and  C_11
    2  A    between atoms: C_9  and  C_22
    3  A    between atoms: C_9  and  N_23
    4  A    between atoms: C_11  and  N_24
    5  A    between atoms: C_15  and  N_23
    6  A    between atoms: C_19  and  C_22
                            x       y       z     vdW  Elec       q    Type
                         _______ _______ _______ _____ _____    ______ ____

>  <TORSDO>
F 6

$$$$
=
 OpenBabel11052422223D

 31 34  0  0  1  0  0  0  0  0999 V2000
  161.0380  204.8520  150.3720 C   0  0  0  0  0  0  0  0  0  0  0  0
  161.4280  208.3150  151.8180 C   0  0  0  0  0  0  0  0  0  0  0  0
  161.2380  208.2010  153.2320 C   0  0  0  0  0  0  0  0  0  0  0  0
  160.0710  206.8650  155.0360 C   0  0  0  0  0  2  0  0  0  0  0  0
  161.3700  207.2190  150.8960 C   0  0  0  0  0  0  0  0  0  0  0  0
  161.2650  205.1010  149.0210 C   0  0  0  0  0  3  0  0  0  0  0  0
  161.0850  206.8490  153.8940 C   0  0  0  0  0  2  0  0  0  0  0  0
  161.9010  209.8120  149.9200 C   0  0  0  0  0  0  0  0  0  0  0  0
  160.7410  203.4710  150.8330 C   0  0  0  0  0  1  0  0  0  0  0  0
  161.5460  210.5700  153.4310 N   0  0  0  0  0  0  0  0  0  0  0  0
  160.6570  207.1230  156.2990 O   0  0  0  0  0  0  0  0  0  0  0  0
  161.8540  208.7300  149.0440 C   0  0  0  0  0  3  0  0  0  0  0  0
  161.6890  209.6110  151.2920 C   0  0  0  0  0  0  0  0  0  0  0  0
  161.0890  205.8990  151.2940 C   0  0  0  0  0  3  0  0  0  0  0  0
  161.5850  208.1900  156.2380 C   0  0  0  0  0  2  0  0  0  0  0  0
  161.5910  207.4510  149.5120 C   0  0  0  0  0  0  0  0  0  0  0  0
  161.5410  206.3990  148.5920 C   0  0  0  0  0  3  0  0  0  0  0  0
  161.7350  210.6830  152.1220 N   0  0  0  0  0  0  0  0  0  0  0  0
  161.3120  209.3780  154.0260 C   0  0  0  0  0  0  0  0  0  0  0  0
  161.0410  209.4160  155.5080 C   0  0  0  0  0  2  0  0  0  0  0  0
  162.1730  211.1320  149.4270 N   0  0  0  0  0  2  0  0  0  0  0  0
  160.8070  213.1510  149.5710 C   0  0  0  0  0  1  0  0  0  0  0  0
  161.1950  211.9510  148.7230 C   0  0  1  0  0  3  0  0  0  0  0  0
  163.0050  212.5310  147.2860 O   0  0  0  0  0  0  0  0  0  0  0  0
  161.7570  212.4050  147.4120 C   0  0  0  0  0  0  0  0  0  0  0  0
  159.6870  212.2050  146.2920 O   0  0  0  0  0  0  0  0  0  0  0  0
  160.8440  212.7030  146.2870 C   0  0  0  0  0  0  0  0  0  0  0  0
  161.2180  213.5380  145.1830 N   0  0  0  0  0  2  0  0  0  0  0  0
  162.5150  214.1800  145.0260 C   0  0  0  0  0  2  0  0  0  0  0  0
  163.3600  213.4080  144.0300 C   0  0  0  0  0  2  0  0  0  0  0  0
  162.4730  212.7040  143.0210 C   0  0  0  0  0  1  0  0  0  0  0  0
  1  9  1  0  0  0  0
  1 14  1  0  0  0  0
  2  3  1  0  0  0  0
  3  7  1  0  0  0  0
  3 19  2  0  0  0  0
  4 11  1  0  0  0  0
  5 14  2  0  0  0  0
  5  2  1  0  0  0  0
  6  1  2  0  0  0  0
  7  4  1  0  0  0  0
  8 13  1  0  0  0  0
 10 19  1  0  0  0  0
 12 16  1  0  0  0  0
 12  8  2  0  0  0  0
 13  2  2  0  0  0  0
 13 18  1  0  0  0  0
 15 11  1  0  0  0  0
 16  5  1  0  0  0  0
 17  6  1  0  0  0  0
 17 16  2  0  0  0  0
 18 10  2  0  0  0  0
 19 20  1  0  0  0  0
 20 15  1  0  0  0  0
 21  8  1  0  0  0  0
 23 21  1  0  0  0  0
 23 22  1  1  0  0  0
 24 25  2  0  0  0  0
 25 23  1  0  0  0  0
 27 26  2  0  0  0  0
 27 25  1  0  0  0  0
 28 27  1  0  0  0  0
 29 28  1  0  0  0  0
 30 29  1  0  0  0  0
 31 30  1  0  0  0  0
M  END
>  <MODEL>
4

>  <REMARK>
 VINA RESULT:      -8.0      2.442      4.936
  Name = 
  6 active torsions:
  status: ('A' for Active; 'I' for Inactive)
    1  A    between atoms: C_1  and  C_11
    2  A    between atoms: C_9  and  C_22
    3  A    between atoms: C_9  and  N_23
    4  A    between atoms: C_11  and  N_24
    5  A    between atoms: C_15  and  N_23
    6  A    between atoms: C_19  and  C_22
                            x       y       z     vdW  Elec       q    Type
                         _______ _______ _______ _____ _____    ______ ____

>  <TORSDO>
F 6

$$$$
=
 OpenBabel11052422223D

 31 34  0  0  1  0  0  0  0  0999 V2000
  160.8340  201.9220  150.5250 C   0  0  0  0  0  0  0  0  0  0  0  0
  161.2390  205.4380  149.2160 C   0  0  0  0  0  0  0  0  0  0  0  0
  161.2050  205.3590  147.7870 C   0  0  0  0  0  0  0  0  0  0  0  0
  161.7120  203.8610  145.8120 C   0  0  0  0  0  2  0  0  0  0  0  0
  161.1080  204.3160  150.0990 C   0  0  0  0  0  0  0  0  0  0  0  0
  160.8620  202.1460  151.8990 C   0  0  0  0  0  3  0  0  0  0  0  0
  160.8890  204.0560  147.0840 C   0  0  0  0  0  2  0  0  0  0  0  0
  161.4520  206.8950  151.1900 C   0  0  0  0  0  0  0  0  0  0  0  0
  160.6730  200.5420  150.0000 C   0  0  0  0  0  1  0  0  0  0  0  0
  161.5460  207.7290  147.6790 N   0  0  0  0  0  0  0  0  0  0  0  0
  161.0630  204.3410  144.6480 O   0  0  0  0  0  0  0  0  0  0  0  0
  161.3080  205.7930  152.0290 C   0  0  0  0  0  3  0  0  0  0  0  0
  161.4200  206.7230  149.7990 C   0  0  0  0  0  0  0  0  0  0  0  0
  160.9570  202.9950  149.6400 C   0  0  0  0  0  3  0  0  0  0  0  0
  160.4840  205.6150  144.8590 C   0  0  0  0  0  2  0  0  0  0  0  0
  161.1420  204.5200  151.5050 C   0  0  0  0  0  0  0  0  0  0  0  0
  161.0160  203.4430  152.3880 C   0  0  0  0  0  3  0  0  0  0  0  0
  161.5660  207.8130  149.0050 N   0  0  0  0  0  0  0  0  0  0  0  0
  161.3600  206.5550  147.0340 C   0  0  0  0  0  0  0  0  0  0  0  0
  161.4370  206.6020  145.5300 C   0  0  0  0  0  2  0  0  0  0  0  0
  161.6230  208.2090  151.7420 N   0  0  0  0  0  2  0  0  0  0  0  0
  160.8310  208.1150  154.0500 C   0  0  0  0  0  1  0  0  0  0  0  0
  160.7090  208.8090  152.7040 C   0  0  1  0  0  3  0  0  0  0  0  0
  161.0630  210.9910  151.8160 O   0  0  0  0  0  0  0  0  0  0  0  0
  161.0030  210.2700  152.8470 C   0  0  0  0  0  0  0  0  0  0  0  0
  162.3510  210.7040  154.7390 O   0  0  0  0  0  0  0  0  0  0  0  0
  161.2240  210.8440  154.1930 C   0  0  0  0  0  0  0  0  0  0  0  0
  160.2070  211.5590  154.9090 N   0  0  0  0  0  2  0  0  0  0  0  0
  158.8580  211.7990  154.4200 C   0  0  0  0  0  2  0  0  0  0  0  0
  157.8520  211.0710  155.2910 C   0  0  0  0  0  2  0  0  0  0  0  0
  156.4380  211.4230  154.8690 C   0  0  0  0  0  1  0  0  0  0  0  0
  1  6  1  0  0  0  0
  2 13  2  0  0  0  0
  2  5  1  0  0  0  0
  3  2  1  0  0  0  0
  4  7  1  0  0  0  0
  5 16  2  0  0  0  0
  6 17  2  0  0  0  0
  7  3  1  0  0  0  0
  8 21  1  0  0  0  0
  8 12  2  0  0  0  0
  9  1  1  0  0  0  0
 10 18  2  0  0  0  0
 11 15  1  0  0  0  0
 11  4  1  0  0  0  0
 13  8  1  0  0  0  0
 14  5  1  0  0  0  0
 14  1  2  0  0  0  0
 15 20  1  0  0  0  0
 16 12  1  0  0  0  0
 16 17  1  0  0  0  0
 18 13  1  0  0  0  0
 19 10  1  0  0  0  0
 19  3  2  0  0  0  0
 20 19  1  0  0  0  0
 21 23  1  0  0  0  0
 23 25  1  0  0  0  0
 23 22  1  1  0  0  0
 24 25  2  0  0  0  0
 25 27  1  0  0  0  0
 27 26  2  0  0  0  0
 27 28  1  0  0  0  0
 29 28  1  0  0  0  0
 29 30  1  0  0  0  0
 31 30  1  0  0  0  0
M  END
>  <MODEL>
5

>  <REMARK>
 VINA RESULT:      -7.8      3.452      5.371
  Name = 
  6 active torsions:
  status: ('A' for Active; 'I' for Inactive)
    1  A    between atoms: C_1  and  C_11
    2  A    between atoms: C_9  and  C_22
    3  A    between atoms: C_9  and  N_23
    4  A    between atoms: C_11  and  N_24
    5  A    between atoms: C_15  and  N_23
    6  A    between atoms: C_19  and  C_22
                            x       y       z     vdW  Elec       q    Type
                         _______ _______ _______ _____ _____    ______ ____

>  <TORSDO>
F 6

$$$$
=
 OpenBabel11052422223D

 31 34  0  0  1  0  0  0  0  0999 V2000
  160.8310  203.8440  152.0260 C   0  0  0  0  0  0  0  0  0  0  0  0
  161.4440  205.4430  148.6640 C   0  0  0  0  0  0  0  0  0  0  0  0
  161.3190  204.4100  147.6810 C   0  0  0  0  0  0  0  0  0  0  0  0
  161.5810  201.9250  147.2840 C   0  0  0  0  0  2  0  0  0  0  0  0
  161.2750  205.2520  150.0750 C   0  0  0  0  0  0  0  0  0  0  0  0
  160.9590  204.9450  152.8710 C   0  0  0  0  0  3  0  0  0  0  0  0
  160.8550  203.0200  148.0630 C   0  0  0  0  0  2  0  0  0  0  0  0
  161.8930  207.8260  149.0980 C   0  0  0  0  0  0  0  0  0  0  0  0
  160.5260  202.5050  152.5920 C   0  0  0  0  0  1  0  0  0  0  0  0
  161.8460  206.0120  145.9780 N   0  0  0  0  0  0  0  0  0  0  0  0
  160.9050  201.5400  146.1000 O   0  0  0  0  0  0  0  0  0  0  0  0
  161.7100  207.6200  150.4630 C   0  0  0  0  0  3  0  0  0  0  0  0
  161.7640  206.7510  148.2060 C   0  0  0  0  0  0  0  0  0  0  0  0
  160.9890  203.9990  150.6480 C   0  0  0  0  0  3  0  0  0  0  0  0
  160.4470  202.6620  145.3700 C   0  0  0  0  0  2  0  0  0  0  0  0
  161.4090  206.3580  150.9560 C   0  0  0  0  0  0  0  0  0  0  0  0
  161.2480  206.1990  152.3360 C   0  0  0  0  0  3  0  0  0  0  0  0
  161.9520  206.9780  146.8820 N   0  0  0  0  0  0  0  0  0  0  0  0
  161.5260  204.7410  146.3140 C   0  0  0  0  0  0  0  0  0  0  0  0
  161.5160  203.7370  145.1910 C   0  0  0  0  0  2  0  0  0  0  0  0
  162.2050  209.1340  148.5980 N   0  0  0  0  0  2  0  0  0  0  0  0
  162.3290  210.6160  150.5350 C   0  0  0  0  0  1  0  0  0  0  0  0
  161.6900  210.3670  149.1790 C   0  0  1  0  0  3  0  0  0  0  0  0
  163.1540  211.8480  148.0220 O   0  0  0  0  0  0  0  0  0  0  0  0
  161.9610  211.5170  148.2600 C   0  0  0  0  0  0  0  0  0  0  0  0
  160.4570  211.9380  146.4880 O   0  0  0  0  0  0  0  0  0  0  0  0
  160.8310  212.2500  147.6500 C   0  0  0  0  0  0  0  0  0  0  0  0
  160.1350  213.3080  148.3240 N   0  0  0  0  0  2  0  0  0  0  0  0
  160.4490  213.7900  149.6610 C   0  0  0  0  0  2  0  0  0  0  0  0
  159.2600  213.5820  150.5810 C   0  0  0  0  0  2  0  0  0  0  0  0
  159.7050  212.9340  151.8780 C   0  0  0  0  0  1  0  0  0  0  0  0
  1  9  1  0  0  0  0
  1  6  1  0  0  0  0
  2  5  1  0  0  0  0
  3  7  1  0  0  0  0
  3  2  1  0  0  0  0
  4  7  1  0  0  0  0
  5 14  1  0  0  0  0
  5 16  2  0  0  0  0
  8 12  2  0  0  0  0
 10 19  1  0  0  0  0
 10 18  2  0  0  0  0
 11  4  1  0  0  0  0
 12 16  1  0  0  0  0
 13  2  2  0  0  0  0
 13  8  1  0  0  0  0
 14  1  2  0  0  0  0
 15 11  1  0  0  0  0
 16 17  1  0  0  0  0
 17  6  2  0  0  0  0
 18 13  1  0  0  0  0
 19  3  2  0  0  0  0
 20 15  1  0  0  0  0
 20 19  1  0  0  0  0
 21  8  1  0  0  0  0
 21 23  1  0  0  0  0
 23 22  1  1  0  0  0
 24 25  2  0  0  0  0
 25 23  1  0  0  0  0
 26 27  2  0  0  0  0
 27 25  1  0  0  0  0
 27 28  1  0  0  0  0
 28 29  1  0  0  0  0
 29 30  1  0  0  0  0
 30 31  1  0  0  0  0
M  END
>  <MODEL>
6

>  <REMARK>
 VINA RESULT:      -7.7      1.772      3.028
  Name = 
  6 active torsions:
  status: ('A' for Active; 'I' for Inactive)
    1  A    between atoms: C_1  and  C_11
    2  A    between atoms: C_9  and  C_22
    3  A    between atoms: C_9  and  N_23
    4  A    between atoms: C_11  and  N_24
    5  A    between atoms: C_15  and  N_23
    6  A    between atoms: C_19  and  C_22
                            x       y       z     vdW  Elec       q    Type
                         _______ _______ _______ _____ _____    ______ ____

>  <TORSDO>
F 6

$$$$
=
 OpenBabel11052422223D

 31 34  0  0  1  0  0  0  0  0999 V2000
  161.9560  210.0620  149.3250 C   0  0  0  0  0  0  0  0  0  0  0  0
  161.2410  207.7470  152.2170 C   0  0  0  0  0  0  0  0  0  0  0  0
  161.1870  208.5560  153.3970 C   0  0  0  0  0  0  0  0  0  0  0  0
  162.0570  210.6820  154.4580 C   0  0  0  0  0  2  0  0  0  0  0  0
  161.4830  208.2460  150.8950 C   0  0  0  0  0  0  0  0  0  0  0  0
  161.9590  209.1630  148.2600 C   0  0  0  0  0  3  0  0  0  0  0  0
  161.2560  210.0660  153.3120 C   0  0  0  0  0  2  0  0  0  0  0  0
  161.0690  205.4800  151.2680 C   0  0  0  0  0  0  0  0  0  0  0  0
  162.2010  211.5070  149.0790 C   0  0  0  0  0  1  0  0  0  0  0  0
  160.7950  206.5800  154.6950 N   0  0  0  0  0  0  0  0  0  0  0  0
  161.2560  211.0430  155.5690 O   0  0  0  0  0  0  0  0  0  0  0  0
  161.2910  205.9890  149.9910 C   0  0  0  0  0  3  0  0  0  0  0  0
  161.0460  206.3460  152.3710 C   0  0  0  0  0  0  0  0  0  0  0  0
  161.7220  209.6050  150.6230 C   0  0  0  0  0  3  0  0  0  0  0  0
  160.3280  210.0270  155.8980 C   0  0  0  0  0  2  0  0  0  0  0  0
  161.4990  207.3470  149.7960 C   0  0  0  0  0  0  0  0  0  0  0  0
  161.7310  207.8080  148.4960 C   0  0  0  0  0  3  0  0  0  0  0  0
  160.8320  205.8230  153.6040 N   0  0  0  0  0  0  0  0  0  0  0  0
  160.9510  207.9230  154.6470 C   0  0  0  0  0  0  0  0  0  0  0  0
  160.9620  208.6390  155.9730 C   0  0  0  0  0  2  0  0  0  0  0  0
  160.8550  204.0740  151.4610 N   0  0  0  0  0  2  0  0  0  0  0  0
  162.0280  201.9400  151.6370 C   0  0  0  0  0  1  0  0  0  0  0  0
  161.5470  203.0390  150.7050 C   0  0  1  0  0  3  0  0  0  0  0  0
  159.3880  202.5170  149.8430 O   0  0  0  0  0  0  0  0  0  0  0  0
  160.6350  202.4700  149.6630 C   0  0  0  0  0  0  0  0  0  0  0  0
  161.4190  200.6170  148.4240 O   0  0  0  0  0  0  0  0  0  0  0  0
  161.2060  201.8590  148.4430 C   0  0  0  0  0  0  0  0  0  0  0  0
  161.5320  202.6210  147.2720 N   0  0  0  0  0  2  0  0  0  0  0  0
  161.3540  204.0590  147.1380 C   0  0  0  0  0  2  0  0  0  0  0  0
  162.6380  204.6980  146.6410 C   0  0  0  0  0  2  0  0  0  0  0  0
  162.3300  205.7510  145.5940 C   0  0  0  0  0  1  0  0  0  0  0  0
  1 14  1  0  0  0  0
  2 13  2  0  0  0  0
  2  3  1  0  0  0  0
  3 19  2  0  0  0  0
  4 11  1  0  0  0  0
  5  2  1  0  0  0  0
  6 17  1  0  0  0  0
  6  1  2  0  0  0  0
  7  3  1  0  0  0  0
  7  4  1  0  0  0  0
  8 21  1  0  0  0  0
  8 13  1  0  0  0  0
  9  1  1  0  0  0  0
 11 15  1  0  0  0  0
 12  8  2  0  0  0  0
 13 18  1  0  0  0  0
 14  5  2  0  0  0  0
 15 20  1  0  0  0  0
 16 12  1  0  0  0  0
 16  5  1  0  0  0  0
 17 16  2  0  0  0  0
 18 10  2  0  0  0  0
 19 10  1  0  0  0  0
 19 20  1  0  0  0  0
 23 21  1  0  0  0  0
 23 22  1  1  0  0  0
 25 24  2  0  0  0  0
 25 23  1  0  0  0  0
 26 27  2  0  0  0  0
 27 25  1  0  0  0  0
 28 27  1  0  0  0  0
 29 28  1  0  0  0  0
 30 29  1  0  0  0  0
 31 30  1  0  0  0  0
M  END
>  <MODEL>
7

>  <REMARK>
 VINA RESULT:      -7.6      3.739      7.965
  Name = 
  6 active torsions:
  status: ('A' for Active; 'I' for Inactive)
    1  A    between atoms: C_1  and  C_11
    2  A    between atoms: C_9  and  C_22
    3  A    between atoms: C_9  and  N_23
    4  A    between atoms: C_11  and  N_24
    5  A    between atoms: C_15  and  N_23
    6  A    between atoms: C_19  and  C_22
                            x       y       z     vdW  Elec       q    Type
                         _______ _______ _______ _____ _____    ______ ____

>  <TORSDO>
F 6

$$$$
=
 OpenBabel11052422223D

 31 34  0  0  1  0  0  0  0  0999 V2000
  160.8310  203.8230  151.9520 C   0  0  0  0  0  0  0  0  0  0  0  0
  161.4270  205.5380  148.6440 C   0  0  0  0  0  0  0  0  0  0  0  0
  161.3050  204.5380  147.6270 C   0  0  0  0  0  0  0  0  0  0  0  0
  161.5810  202.0690  147.1460 C   0  0  0  0  0  2  0  0  0  0  0  0
  161.2630  205.2990  150.0480 C   0  0  0  0  0  0  0  0  0  0  0  0
  160.9550  204.8960  152.8330 C   0  0  0  0  0  3  0  0  0  0  0  0
  160.8510  203.1330  147.9630 C   0  0  0  0  0  2  0  0  0  0  0  0
  161.8640  207.9070  149.1570 C   0  0  0  0  0  0  0  0  0  0  0  0
  160.5350  202.4640  152.4730 C   0  0  0  0  0  1  0  0  0  0  0  0
  161.8190  206.1990  145.9770 N   0  0  0  0  0  0  0  0  0  0  0  0
  160.9050  201.7200  145.9520 O   0  0  0  0  0  0  0  0  0  0  0  0
  161.6850  207.6550  150.5150 C   0  0  0  0  0  3  0  0  0  0  0  0
  161.7390  206.8620  148.2290 C   0  0  0  0  0  0  0  0  0  0  0  0
  160.9850  204.0260  150.5790 C   0  0  0  0  0  3  0  0  0  0  0  0
  160.4380  202.8630  145.2600 C   0  0  0  0  0  2  0  0  0  0  0  0
  161.3930  206.3760  150.9650 C   0  0  0  0  0  0  0  0  0  0  0  0
  161.2360  206.1700  152.3390 C   0  0  0  0  0  3  0  0  0  0  0  0
  161.9220  207.1350  146.9130 N   0  0  0  0  0  0  0  0  0  0  0  0
  161.5070  204.9160  146.2720 C   0  0  0  0  0  0  0  0  0  0  0  0
  161.5010  203.9500  145.1150 C   0  0  0  0  0  2  0  0  0  0  0  0
  162.1670  209.2330  148.7000 N   0  0  0  0  0  2  0  0  0  0  0  0
  162.3310  210.5910  150.7230 C   0  0  0  0  0  1  0  0  0  0  0  0
  161.6890  210.4440  149.3540 C   0  0  1  0  0  3  0  0  0  0  0  0
  163.0930  211.6880  147.8860 O   0  0  0  0  0  0  0  0  0  0  0  0
  161.9980  211.6390  148.5070 C   0  0  0  0  0  0  0  0  0  0  0  0
  160.9540  213.5830  149.3530 O   0  0  0  0  0  0  0  0  0  0  0  0
  161.0190  212.7450  148.4140 C   0  0  0  0  0  0  0  0  0  0  0  0
  160.1340  212.9070  147.2970 N   0  0  0  0  0  2  0  0  0  0  0  0
  160.0810  212.0240  146.1420 C   0  0  0  0  0  2  0  0  0  0  0  0
  159.2870  212.6750  145.0250 C   0  0  0  0  0  2  0  0  0  0  0  0
  159.8020  212.2160  143.6750 C   0  0  0  0  0  1  0  0  0  0  0  0
  1  9  1  0  0  0  0
  1  6  1  0  0  0  0
  2  5  1  0  0  0  0
  3  7  1  0  0  0  0
  3  2  1  0  0  0  0
  4  7  1  0  0  0  0
  5 14  1  0  0  0  0
  5 16  2  0  0  0  0
  8 12  2  0  0  0  0
 10 19  1  0  0  0  0
 10 18  2  0  0  0  0
 11  4  1  0  0  0  0
 12 16  1  0  0  0  0
 13  2  2  0  0  0  0
 13  8  1  0  0  0  0
 14  1  2  0  0  0  0
 15 11  1  0  0  0  0
 16 17  1  0  0  0  0
 17  6  2  0  0  0  0
 18 13  1  0  0  0  0
 19  3  2  0  0  0  0
 20 15  1  0  0  0  0
 20 19  1  0  0  0  0
 21  8  1  0  0  0  0
 21 23  1  0  0  0  0
 23 22  1  1  0  0  0
 24 25  2  0  0  0  0
 25 23  1  0  0  0  0
 27 25  1  0  0  0  0
 27 26  2  0  0  0  0
 28 27  1  0  0  0  0
 29 28  1  0  0  0  0
 30 29  1  0  0  0  0
 31 30  1  0  0  0  0
M  END
>  <MODEL>
8

>  <REMARK>
 VINA RESULT:      -7.5      2.084      3.624
  Name = 
  6 active torsions:
  status: ('A' for Active; 'I' for Inactive)
    1  A    between atoms: C_1  and  C_11
    2  A    between atoms: C_9  and  C_22
    3  A    between atoms: C_9  and  N_23
    4  A    between atoms: C_11  and  N_24
    5  A    between atoms: C_15  and  N_23
    6  A    between atoms: C_19  and  C_22
                            x       y       z     vdW  Elec       q    Type
                         _______ _______ _______ _____ _____    ______ ____

>  <TORSDO>
F 6

$$$$
=
 OpenBabel11052422223D

 31 34  0  0  1  0  0  0  0  0999 V2000
  160.8460  201.9100  150.4560 C   0  0  0  0  0  0  0  0  0  0  0  0
  161.3210  205.4040  149.1130 C   0  0  0  0  0  0  0  0  0  0  0  0
  161.2680  205.3140  147.6860 C   0  0  0  0  0  0  0  0  0  0  0  0
  161.7130  203.7890  145.7170 C   0  0  0  0  0  2  0  0  0  0  0  0
  161.1740  204.2930  150.0080 C   0  0  0  0  0  0  0  0  0  0  0  0
  160.8960  202.1440  151.8280 C   0  0  0  0  0  3  0  0  0  0  0  0
  160.9110  204.0140  146.9970 C   0  0  0  0  0  2  0  0  0  0  0  0
  161.5930  206.8710  151.0730 C   0  0  0  0  0  0  0  0  0  0  0  0
  160.6450  200.5300  149.9440 C   0  0  0  0  0  1  0  0  0  0  0  0
  161.6650  207.6740  147.5550 N   0  0  0  0  0  0  0  0  0  0  0  0
  161.0620  204.2760  144.5570 O   0  0  0  0  0  0  0  0  0  0  0  0
  161.4330  205.7800  151.9230 C   0  0  0  0  0  3  0  0  0  0  0  0
  161.5400  206.6890  149.6830 C   0  0  0  0  0  0  0  0  0  0  0  0
  160.9850  202.9720  149.5610 C   0  0  0  0  0  3  0  0  0  0  0  0
  160.5170  205.5660  144.7650 C   0  0  0  0  0  2  0  0  0  0  0  0
  161.2290  204.5070  151.4110 C   0  0  0  0  0  0  0  0  0  0  0  0
  161.0880  203.4410  152.3040 C   0  0  0  0  0  3  0  0  0  0  0  0
  161.7030  207.7690  148.8790 N   0  0  0  0  0  0  0  0  0  0  0  0
  161.4430  206.5000  146.9210 C   0  0  0  0  0  0  0  0  0  0  0  0
  161.5030  206.5340  145.4160 C   0  0  0  0  0  2  0  0  0  0  0  0
  161.8040  208.1840  151.6120 N   0  0  0  0  0  2  0  0  0  0  0  0
  160.6600  208.2040  153.7690 C   0  0  0  0  0  1  0  0  0  0  0  0
  160.8240  208.8930  152.4250 C   0  0  1  0  0  3  0  0  0  0  0  0
  162.1940  210.5690  153.4200 O   0  0  0  0  0  0  0  0  0  0  0  0
  161.2530  210.3140  152.6210 C   0  0  0  0  0  0  0  0  0  0  0  0
  159.6080  211.9980  152.4310 O   0  0  0  0  0  0  0  0  0  0  0  0
  160.5680  211.3950  151.8810 C   0  0  0  0  0  0  0  0  0  0  0  0
  160.9480  211.7920  150.5560 N   0  0  0  0  0  2  0  0  0  0  0  0
  162.0260  211.1930  149.7850 C   0  0  0  0  0  2  0  0  0  0  0  0
  162.2960  212.0170  148.5400 C   0  0  0  0  0  2  0  0  0  0  0  0
  161.0110  212.6460  148.0360 C   0  0  0  0  0  1  0  0  0  0  0  0
  1  6  1  0  0  0  0
  2 13  2  0  0  0  0
  2  5  1  0  0  0  0
  3  2  1  0  0  0  0
  4  7  1  0  0  0  0
  5 16  2  0  0  0  0
  6 17  2  0  0  0  0
  7  3  1  0  0  0  0
  8 21  1  0  0  0  0
  8 12  2  0  0  0  0
  9  1  1  0  0  0  0
 10 18  2  0  0  0  0
 11 15  1  0  0  0  0
 11  4  1  0  0  0  0
 13  8  1  0  0  0  0
 14  5  1  0  0  0  0
 14  1  2  0  0  0  0
 15 20  1  0  0  0  0
 16 12  1  0  0  0  0
 16 17  1  0  0  0  0
 18 13  1  0  0  0  0
 19 10  1  0  0  0  0
 19  3  2  0  0  0  0
 20 19  1  0  0  0  0
 21 23  1  0  0  0  0
 23 25  1  0  0  0  0
 23 22  1  1  0  0  0
 25 24  2  0  0  0  0
 27 26  2  0  0  0  0
 27 25  1  0  0  0  0
 28 27  1  0  0  0  0
 29 28  1  0  0  0  0
 30 29  1  0  0  0  0
 31 30  1  0  0  0  0
M  END
>  <MODEL>
9

>  <REMARK>
 VINA RESULT:      -7.4      2.619      4.995
  Name = 
  6 active torsions:
  status: ('A' for Active; 'I' for Inactive)
    1  A    between atoms: C_1  and  C_11
    2  A    between atoms: C_9  and  C_22
    3  A    between atoms: C_9  and  N_23
    4  A    between atoms: C_11  and  N_24
    5  A    between atoms: C_15  and  N_23
    6  A    between atoms: C_19  and  C_22
                            x       y       z     vdW  Elec       q    Type
                         _______ _______ _______ _____ _____    ______ ____

>  <TORSDO>
F 6

$$$$
