=
 OpenBabel11062407483D

 34 38  0  0  1  0  0  0  0  0999 V2000
  159.8650  213.0280  150.9710 C   0  0  0  0  0  0  0  0  0  0  0  0
  161.1060  212.3100  148.8780 C   0  0  0  0  0  0  0  0  0  0  0  0
  161.2280  211.0060  150.9820 C   0  0  0  0  0  0  0  0  0  0  0  0
  163.0470  207.6680  150.1980 C   0  0  0  0  0  1  0  0  0  0  0  0
  160.7840  213.3490  148.2410 O   0  0  0  0  0  0  0  0  0  0  0  0
  162.2840  210.2270  148.8080 C   0  0  0  0  0  3  0  0  0  0  0  0
  160.7300  212.1360  150.3010 C   0  0  0  0  0  0  0  0  0  0  0  0
  161.9990  208.6060  150.7980 C   0  0  1  0  0  0  0  0  0  0  0  0
  160.8850  210.7680  152.3290 C   0  0  0  0  0  0  0  0  0  0  0  0
  159.5110  212.7710  152.3030 C   0  0  0  0  0  3  0  0  0  0  0  0
  161.8140  211.2710  148.1970 N   0  0  0  0  0  0  0  0  0  0  0  0
  162.2610  208.6360  152.3020 C   0  0  0  0  0  2  0  0  0  0  0  0
  161.3810  209.5800  153.0050 N   0  0  0  0  0  0  0  0  0  0  0  0
  162.1900  210.0600  150.3060 C   0  0  2  0  0  3  0  0  0  0  0  0
  160.0080  211.6540  152.9680 C   0  0  0  0  0  3  0  0  0  0  0  0
  160.1920  207.9340  156.1990 C   0  0  0  0  0  0  0  0  0  0  0  0
  160.6680  208.8790  157.2610 C   0  0  0  0  0  2  0  0  0  0  0  0
  161.1390  209.3110  154.4000 C   0  0  0  0  0  0  0  0  0  0  0  0
  160.7870  210.2900  156.6940 C   0  0  0  0  0  2  0  0  0  0  0  0
  160.4710  208.2110  154.7810 C   0  0  0  0  0  3  0  0  0  0  0  0
  161.6570  210.2820  155.4360 C   0  0  0  0  0  2  0  0  0  0  0  0
  159.5840  206.8820  156.5230 O   0  0  0  0  0  0  0  0  0  0  0  0
  157.9660  214.3560  150.0850 C   0  0  0  0  0  1  0  0  0  0  0  0
  159.3550  214.1520  150.3080 O   0  0  0  0  0  0  0  0  0  0  0  0
  160.6780  208.1180  150.6110 O   0  0  0  0  0  0  0  0  0  0  0  0
  160.6930  206.8890  149.9300 C   0  0  0  0  0  2  0  0  0  0  0  0
  160.7950  205.7600  150.9360 C   0  0  0  0  0  2  0  0  0  0  0  0
  160.6660  203.2440  152.3530 O   0  0  0  0  0  1  0  0  0  0  0  0
  160.5180  204.4290  150.2570 C   0  0  2  0  0  3  0  0  0  0  0  0
  161.1400  203.2660  151.0410 C   0  0  2  0  0  3  0  0  0  0  0  0
  161.0130  201.9720  148.8770 C   0  0  0  0  0  3  0  0  0  0  0  0
  161.1190  203.1170  148.1860 C   0  0  0  0  0  3  0  0  0  0  0  0
  161.1240  204.4670  148.8560 C   0  0  0  0  0  2  0  0  0  0  0  0
  160.7810  201.9430  150.3650 C   0  0  0  0  0  2  0  0  0  0  0  0
  1 10  1  0  0  0  0
  2  7  1  0  0  0  0
  3  9  2  0  0  0  0
  5  2  2  0  0  0  0
  7  1  2  0  0  0  0
  7  3  1  0  0  0  0
  8  4  1  6  0  0  0
  8 12  1  0  0  0  0
  9 15  1  0  0  0  0
  9 13  1  0  0  0  0
 10 15  2  0  0  0  0
 11  6  2  0  0  0  0
 11  2  1  0  0  0  0
 12 13  1  0  0  0  0
 13 18  1  0  0  0  0
 14  6  1  6  0  0  0
 14  8  1  0  0  0  0
 14  3  1  0  0  0  0
 16 22  2  0  0  0  0
 16 17  1  0  0  0  0
 18 20  2  0  0  0  0
 18 21  1  0  0  0  0
 19 17  1  0  0  0  0
 20 16  1  0  0  0  0
 21 19  1  0  0  0  0
 23 24  1  0  0  0  0
 24  1  1  0  0  0  0
 25  8  1  0  0  0  0
 26 25  1  0  0  0  0
 26 27  1  0  0  0  0
 29 27  1  1  0  0  0
 29 30  1  0  0  0  0
 30 28  1  1  0  0  0
 31 34  1  0  0  0  0
 32 33  1  0  0  0  0
 32 31  2  0  0  0  0
 33 29  1  0  0  0  0
 34 30  1  0  0  0  0
M  END
>  <MODEL>
1

>  <REMARK>
 VINA RESULT:      -7.0      0.000      0.000
  Name = 
  6 active torsions:
  status: ('A' for Active; 'I' for Inactive)
    1  A    between atoms: C_1  and  O_19
    2  A    between atoms: C_3  and  C_13
    3  A    between atoms: C_3  and  C_17
    4  A    between atoms: C_12  and  N_28
    5  A    between atoms: C_17  and  O_29
    6  A    between atoms: C_18  and  O_29
                            x       y       z     vdW  Elec       q    Type
                         _______ _______ _______ _____ _____    ______ ____

>  <TORSDO>
F 6

$$$$
=
 OpenBabel11062407483D

 34 38  0  0  1  0  0  0  0  0999 V2000
  161.3090  206.2130  148.8140 C   0  0  0  0  0  0  0  0  0  0  0  0
  161.4660  205.3320  151.1880 C   0  0  0  0  0  0  0  0  0  0  0  0
  161.7380  207.7400  150.6670 C   0  0  0  0  0  0  0  0  0  0  0  0
  161.8200  209.6740  154.0310 C   0  0  0  0  0  1  0  0  0  0  0  0
  161.3790  204.1280  150.8270 O   0  0  0  0  0  0  0  0  0  0  0  0
  161.6860  206.8360  153.0390 C   0  0  0  0  0  3  0  0  0  0  0  0
  161.5180  206.4300  150.1930 C   0  0  0  0  0  0  0  0  0  0  0  0
  161.4470  209.3650  152.5800 C   0  0  1  0  0  0  0  0  0  0  0  0
  161.7700  208.8320  149.7750 C   0  0  0  0  0  0  0  0  0  0  0  0
  161.3190  207.3070  147.9380 C   0  0  0  0  0  3  0  0  0  0  0  0
  161.4800  205.6380  152.5850 N   0  0  0  0  0  0  0  0  0  0  0  0
  162.1570  210.4110  151.7230 C   0  0  0  0  0  2  0  0  0  0  0  0
  161.9650  210.1790  150.2850 N   0  0  0  0  0  0  0  0  0  0  0  0
  162.0090  207.9960  152.1290 C   0  0  2  0  0  3  0  0  0  0  0  0
  161.5390  208.5980  148.4130 C   0  0  0  0  0  3  0  0  0  0  0  0
  161.2100  213.4230  148.4870 C   0  0  0  0  0  0  0  0  0  0  0  0
  162.4220  213.6210  147.6270 C   0  0  0  0  0  2  0  0  0  0  0  0
  162.0880  211.3330  149.4290 C   0  0  0  0  0  0  0  0  0  0  0  0
  163.0640  212.2750  147.3070 C   0  0  0  0  0  2  0  0  0  0  0  0
  161.1130  212.2540  149.3740 C   0  0  0  0  0  3  0  0  0  0  0  0
  163.3380  211.5010  148.5970 C   0  0  0  0  0  2  0  0  0  0  0  0
  160.2890  214.2800  148.4770 O   0  0  0  0  0  0  0  0  0  0  0  0
  161.8520  204.3380  147.2840 C   0  0  0  0  0  1  0  0  0  0  0  0
  161.0810  204.9190  148.3270 O   0  0  0  0  0  0  0  0  0  0  0  0
  160.0530  209.5060  152.3470 O   0  0  0  0  0  0  0  0  0  0  0  0
  159.4720  210.3600  153.3000 C   0  0  0  0  0  2  0  0  0  0  0  0
  158.8920  211.5710  152.6000 C   0  0  0  0  0  2  0  0  0  0  0  0
  158.5610  214.4420  152.6840 O   0  0  0  0  0  1  0  0  0  0  0  0
  157.8980  212.2750  153.5090 C   0  0  2  0  0  3  0  0  0  0  0  0
  158.3640  213.6970  153.8470 C   0  0  2  0  0  3  0  0  0  0  0  0
  156.8340  213.5330  155.8490 C   0  0  0  0  0  3  0  0  0  0  0  0
  157.0030  212.2020  155.8680 C   0  0  0  0  0  3  0  0  0  0  0  0
  157.7750  211.4700  154.8020 C   0  0  0  0  0  2  0  0  0  0  0  0
  157.3080  214.3920  154.7050 C   0  0  0  0  0  2  0  0  0  0  0  0
  1  7  1  0  0  0  0
  2 11  1  0  0  0  0
  3 14  1  0  0  0  0
  5  2  2  0  0  0  0
  7  3  2  0  0  0  0
  7  2  1  0  0  0  0
  8  4  1  1  0  0  0
  9 13  1  0  0  0  0
  9  3  1  0  0  0  0
 10 15  1  0  0  0  0
 10  1  2  0  0  0  0
 11  6  2  0  0  0  0
 12  8  1  0  0  0  0
 13 12  1  0  0  0  0
 14  8  1  0  0  0  0
 14  6  1  1  0  0  0
 15  9  2  0  0  0  0
 16 20  1  0  0  0  0
 17 16  1  0  0  0  0
 18 13  1  0  0  0  0
 19 17  1  0  0  0  0
 19 21  1  0  0  0  0
 20 18  2  0  0  0  0
 21 18  1  0  0  0  0
 22 16  2  0  0  0  0
 23 24  1  0  0  0  0
 24  1  1  0  0  0  0
 25  8  1  0  0  0  0
 25 26  1  0  0  0  0
 27 26  1  0  0  0  0
 29 27  1  6  0  0  0
 29 30  1  0  0  0  0
 29 33  1  0  0  0  0
 30 28  1  6  0  0  0
 30 34  1  0  0  0  0
 31 32  2  0  0  0  0
 33 32  1  0  0  0  0
 34 31  1  0  0  0  0
M  END
>  <MODEL>
2

>  <REMARK>
 VINA RESULT:      -7.0      2.221      8.181
  Name = 
  6 active torsions:
  status: ('A' for Active; 'I' for Inactive)
    1  A    between atoms: C_1  and  O_19
    2  A    between atoms: C_3  and  C_13
    3  A    between atoms: C_3  and  C_17
    4  A    between atoms: C_12  and  N_28
    5  A    between atoms: C_17  and  O_29
    6  A    between atoms: C_18  and  O_29
                            x       y       z     vdW  Elec       q    Type
                         _______ _______ _______ _____ _____    ______ ____

>  <TORSDO>
F 6

$$$$
=
 OpenBabel11062407483D

 34 38  0  0  1  0  0  0  0  0999 V2000
  158.6780  213.6450  149.3790 C   0  0  0  0  0  0  0  0  0  0  0  0
  160.8870  212.6490  148.6260 C   0  0  0  0  0  0  0  0  0  0  0  0
  160.0860  212.4370  150.9620 C   0  0  0  0  0  0  0  0  0  0  0  0
  162.4500  209.9670  152.8010 C   0  0  0  0  0  1  0  0  0  0  0  0
  160.8070  213.1520  147.4740 O   0  0  0  0  0  0  0  0  0  0  0  0
  162.1860  211.2900  150.1100 C   0  0  0  0  0  3  0  0  0  0  0  0
  159.8660  212.9370  149.6620 C   0  0  0  0  0  0  0  0  0  0  0  0
  161.1350  210.6200  152.3710 C   0  0  1  0  0  0  0  0  0  0  0  0
  159.1410  212.6530  151.9860 C   0  0  0  0  0  0  0  0  0  0  0  0
  157.7330  213.8340  150.3970 C   0  0  0  0  0  3  0  0  0  0  0  0
  161.9650  211.7560  148.9190 N   0  0  0  0  0  0  0  0  0  0  0  0
  160.5930  211.3420  153.6020 C   0  0  0  0  0  2  0  0  0  0  0  0
  159.3680  212.1010  153.3120 N   0  0  0  0  0  0  0  0  0  0  0  0
  161.3670  211.7160  151.3050 C   0  0  2  0  0  3  0  0  0  0  0  0
  157.9590  213.3390  151.6780 C   0  0  0  0  0  3  0  0  0  0  0  0
  156.5380  211.7710  155.8020 C   0  0  0  0  0  0  0  0  0  0  0  0
  156.7350  212.9580  156.6950 C   0  0  0  0  0  2  0  0  0  0  0  0
  158.4880  212.3470  154.4270 C   0  0  0  0  0  0  0  0  0  0  0  0
  157.4480  214.0740  155.9360 C   0  0  0  0  0  2  0  0  0  0  0  0
  157.4620  211.5210  154.6850 C   0  0  0  0  0  3  0  0  0  0  0  0
  158.7400  213.5450  155.3120 C   0  0  0  0  0  2  0  0  0  0  0  0
  155.6010  210.9640  156.0310 O   0  0  0  0  0  0  0  0  0  0  0  0
  157.1820  214.0310  147.4390 C   0  0  0  0  0  1  0  0  0  0  0  0
  158.4400  214.1420  148.0910 O   0  0  0  0  0  0  0  0  0  0  0  0
  160.1630  209.6580  151.9860 O   0  0  0  0  0  0  0  0  0  0  0  0
  160.6960  208.3590  152.0480 C   0  0  0  0  0  2  0  0  0  0  0  0
  161.1130  207.9220  150.6590 C   0  0  0  0  0  2  0  0  0  0  0  0
  160.5820  206.1770  148.4150 O   0  0  0  0  0  1  0  0  0  0  0  0
  161.4410  206.4380  150.6540 C   0  0  2  0  0  3  0  0  0  0  0  0
  160.5090  205.6650  149.7110 C   0  0  2  0  0  3  0  0  0  0  0  0
  161.1250  203.6240  151.0620 C   0  0  0  0  0  3  0  0  0  0  0  0
  161.3350  204.3980  152.1370 C   0  0  0  0  0  3  0  0  0  0  0  0
  161.2700  205.9020  152.0740 C   0  0  0  0  0  2  0  0  0  0  0  0
  160.9150  204.1930  149.6830 C   0  0  0  0  0  2  0  0  0  0  0  0
  1  7  2  0  0  0  0
  1 10  1  0  0  0  0
  2 11  1  0  0  0  0
  2  7  1  0  0  0  0
  3 14  1  0  0  0  0
  3  9  2  0  0  0  0
  5  2  2  0  0  0  0
  7  3  1  0  0  0  0
  8  4  1  1  0  0  0
  8 12  1  0  0  0  0
  9 13  1  0  0  0  0
 10 15  2  0  0  0  0
 11  6  2  0  0  0  0
 13 12  1  0  0  0  0
 13 18  1  0  0  0  0
 14  6  1  6  0  0  0
 14  8  1  0  0  0  0
 15  9  1  0  0  0  0
 16 22  2  0  0  0  0
 16 17  1  0  0  0  0
 18 20  2  0  0  0  0
 18 21  1  0  0  0  0
 19 17  1  0  0  0  0
 20 16  1  0  0  0  0
 21 19  1  0  0  0  0
 23 24  1  0  0  0  0
 24  1  1  0  0  0  0
 25 26  1  0  0  0  0
 25  8  1  0  0  0  0
 27 26  1  0  0  0  0
 29 27  1  1  0  0  0
 29 33  1  0  0  0  0
 30 28  1  6  0  0  0
 30 29  1  0  0  0  0
 31 32  2  0  0  0  0
 33 32  1  0  0  0  0
 34 30  1  0  0  0  0
 34 31  1  0  0  0  0
M  END
>  <MODEL>
3

>  <REMARK>
 VINA RESULT:      -6.3      2.318      3.290
  Name = 
  6 active torsions:
  status: ('A' for Active; 'I' for Inactive)
    1  A    between atoms: C_1  and  O_19
    2  A    between atoms: C_3  and  C_13
    3  A    between atoms: C_3  and  C_17
    4  A    between atoms: C_12  and  N_28
    5  A    between atoms: C_17  and  O_29
    6  A    between atoms: C_18  and  O_29
                            x       y       z     vdW  Elec       q    Type
                         _______ _______ _______ _____ _____    ______ ____

>  <TORSDO>
F 6

$$$$
=
 OpenBabel11062407483D

 34 38  0  0  1  0  0  0  0  0999 V2000
  160.5360  207.5760  154.5500 C   0  0  0  0  0  0  0  0  0  0  0  0
  161.4700  209.6920  153.5060 C   0  0  0  0  0  0  0  0  0  0  0  0
  161.5950  207.5000  152.3540 C   0  0  0  0  0  0  0  0  0  0  0  0
  162.8470  208.1380  148.7360 C   0  0  0  0  0  1  0  0  0  0  0  0
  161.2430  210.3880  154.5310 O   0  0  0  0  0  0  0  0  0  0  0  0
  162.3310  209.6760  151.2720 C   0  0  0  0  0  3  0  0  0  0  0  0
  161.2030  208.2330  153.4930 C   0  0  0  0  0  0  0  0  0  0  0  0
  162.0010  207.5400  149.8600 C   0  0  1  0  0  0  0  0  0  0  0  0
  161.3450  206.1150  152.2680 C   0  0  0  0  0  0  0  0  0  0  0  0
  160.2710  206.2040  154.4450 C   0  0  0  0  0  3  0  0  0  0  0  0
  161.9610  210.3350  152.3270 N   0  0  0  0  0  0  0  0  0  0  0  0
  162.3990  206.0690  149.9610 C   0  0  0  0  0  2  0  0  0  0  0  0
  161.7270  205.3820  151.0730 N   0  0  0  0  0  0  0  0  0  0  0  0
  162.3500  208.1670  151.2300 C   0  0  2  0  0  3  0  0  0  0  0  0
  160.6630  205.4870  153.3180 C   0  0  0  0  0  3  0  0  0  0  0  0
  160.3920  201.9780  150.0960 C   0  0  0  0  0  0  0  0  0  0  0  0
  161.3360  201.0370  150.7810 C   0  0  0  0  0  2  0  0  0  0  0  0
  161.5760  203.9540  150.9450 C   0  0  0  0  0  0  0  0  0  0  0  0
  161.9390  201.7030  152.0150 C   0  0  0  0  0  2  0  0  0  0  0  0
  160.5770  203.4330  150.2160 C   0  0  0  0  0  3  0  0  0  0  0  0
  162.5660  203.0460  151.6360 C   0  0  0  0  0  2  0  0  0  0  0  0
  159.4590  201.5220  149.3860 O   0  0  0  0  0  0  0  0  0  0  0  0
  160.4390  207.8760  157.0100 C   0  0  0  0  0  1  0  0  0  0  0  0
  160.1330  208.2910  155.6850 O   0  0  0  0  0  0  0  0  0  0  0  0
  160.6120  207.5800  149.5610 O   0  0  0  0  0  0  0  0  0  0  0  0
  160.2720  206.5720  148.6430 C   0  0  0  0  0  2  0  0  0  0  0  0
  160.7840  206.9520  147.2680 C   0  0  0  0  0  2  0  0  0  0  0  0
  160.4560  206.5790  144.4200 O   0  0  0  0  0  1  0  0  0  0  0  0
  161.2550  205.7130  146.5240 C   0  0  2  0  0  3  0  0  0  0  0  0
  160.4160  205.4690  145.2640 C   0  0  2  0  0  3  0  0  0  0  0  0
  161.2070  203.0760  145.4140 C   0  0  0  0  0  3  0  0  0  0  0  0
  161.3260  203.1990  146.7440 C   0  0  0  0  0  3  0  0  0  0  0  0
  161.1160  204.5100  147.4570 C   0  0  0  0  0  2  0  0  0  0  0  0
  160.9630  204.2580  144.5110 C   0  0  0  0  0  2  0  0  0  0  0  0
  1 24  1  0  0  0  0
  2  5  2  0  0  0  0
  3  7  1  0  0  0  0
  6 11  2  0  0  0  0
  7  2  1  0  0  0  0
  7  1  2  0  0  0  0
  8  4  1  6  0  0  0
  8 12  1  0  0  0  0
  8 14  1  0  0  0  0
  9  3  2  0  0  0  0
  9 15  1  0  0  0  0
 10  1  1  0  0  0  0
 11  2  1  0  0  0  0
 12 13  1  0  0  0  0
 13  9  1  0  0  0  0
 14  6  1  6  0  0  0
 14  3  1  0  0  0  0
 15 10  2  0  0  0  0
 16 20  1  0  0  0  0
 16 17  1  0  0  0  0
 17 19  1  0  0  0  0
 18 13  1  0  0  0  0
 18 21  1  0  0  0  0
 20 18  2  0  0  0  0
 21 19  1  0  0  0  0
 22 16  2  0  0  0  0
 24 23  1  0  0  0  0
 25  8  1  0  0  0  0
 26 25  1  0  0  0  0
 27 26  1  0  0  0  0
 29 27  1  1  0  0  0
 29 33  1  0  0  0  0
 30 28  1  6  0  0  0
 30 29  1  0  0  0  0
 31 32  2  0  0  0  0
 32 33  1  0  0  0  0
 34 30  1  0  0  0  0
 34 31  1  0  0  0  0
M  END
>  <MODEL>
4

>  <REMARK>
 VINA RESULT:      -5.1      2.725      5.953
  Name = 
  6 active torsions:
  status: ('A' for Active; 'I' for Inactive)
    1  A    between atoms: C_1  and  O_19
    2  A    between atoms: C_3  and  C_13
    3  A    between atoms: C_3  and  C_17
    4  A    between atoms: C_12  and  N_28
    5  A    between atoms: C_17  and  O_29
    6  A    between atoms: C_18  and  O_29
                            x       y       z     vdW  Elec       q    Type
                         _______ _______ _______ _____ _____    ______ ____

>  <TORSDO>
F 6

$$$$
=
 OpenBabel11062407483D

 34 38  0  0  1  0  0  0  0  0999 V2000
  161.0400  207.6980  155.3620 C   0  0  0  0  0  0  0  0  0  0  0  0
  161.0180  210.1460  156.0290 C   0  0  0  0  0  0  0  0  0  0  0  0
  161.1150  209.4380  153.6550 C   0  0  0  0  0  0  0  0  0  0  0  0
  160.6410  212.6040  151.4600 C   0  0  0  0  0  1  0  0  0  0  0  0
  161.0860  209.8890  157.2600 O   0  0  0  0  0  0  0  0  0  0  0  0
  160.8880  211.8660  154.3670 C   0  0  0  0  0  3  0  0  0  0  0  0
  161.0740  209.0660  155.0150 C   0  0  0  0  0  0  0  0  0  0  0  0
  160.4610  211.1570  151.9210 C   0  0  1  0  0  0  0  0  0  0  0  0
  161.1410  208.4590  152.6410 C   0  0  0  0  0  0  0  0  0  0  0  0
  161.0430  206.7320  154.3470 C   0  0  0  0  0  3  0  0  0  0  0  0
  160.8480  211.5040  155.6130 N   0  0  0  0  0  0  0  0  0  0  0  0
  161.1580  210.2850  150.8800 C   0  0  0  0  0  2  0  0  0  0  0  0
  161.1490  208.8620  151.2440 N   0  0  0  0  0  0  0  0  0  0  0  0
  161.1970  210.8920  153.2560 C   0  0  2  0  0  3  0  0  0  0  0  0
  161.0850  207.1080  153.0070 C   0  0  0  0  0  3  0  0  0  0  0  0
  160.9890  205.6680  149.2200 C   0  0  0  0  0  0  0  0  0  0  0  0
  161.5500  206.0820  147.8930 C   0  0  0  0  0  2  0  0  0  0  0  0
  161.2560  207.9210  150.1560 C   0  0  0  0  0  0  0  0  0  0  0  0
  162.5030  207.2600  148.0710 C   0  0  0  0  0  2  0  0  0  0  0  0
  160.8620  206.6470  150.3100 C   0  0  0  0  0  3  0  0  0  0  0  0
  161.8070  208.3910  148.8310 C   0  0  0  0  0  2  0  0  0  0  0  0
  160.5890  204.4870  149.3900 O   0  0  0  0  0  0  0  0  0  0  0  0
  159.9460  206.5140  157.2470 C   0  0  0  0  0  1  0  0  0  0  0  0
  160.9920  207.3100  156.7080 O   0  0  0  0  0  0  0  0  0  0  0  0
  159.0940  210.7710  151.9460 O   0  0  0  0  0  0  0  0  0  0  0  0
  158.2890  211.8230  152.4140 C   0  0  0  0  0  2  0  0  0  0  0  0
  157.7040  211.4450  153.7600 C   0  0  0  0  0  2  0  0  0  0  0  0
  156.6910  211.4700  156.4670 O   0  0  0  0  0  1  0  0  0  0  0  0
  157.0180  212.6470  154.3880 C   0  0  2  0  0  3  0  0  0  0  0  0
  156.0380  212.2160  155.4870 C   0  0  2  0  0  3  0  0  0  0  0  0
  154.9250  214.4530  155.1250 C   0  0  0  0  0  3  0  0  0  0  0  0
  155.3380  214.4520  153.8490 C   0  0  0  0  0  3  0  0  0  0  0  0
  156.2480  213.3870  153.2950 C   0  0  0  0  0  2  0  0  0  0  0  0
  155.4220  213.4540  156.1370 C   0  0  0  0  0  2  0  0  0  0  0  0
  1 24  1  0  0  0  0
  2  5  2  0  0  0  0
  3  7  2  0  0  0  0
  6 11  2  0  0  0  0
  7  1  1  0  0  0  0
  7  2  1  0  0  0  0
  8  4  1  6  0  0  0
  8 25  1  0  0  0  0
  8 14  1  0  0  0  0
  9 15  2  0  0  0  0
  9  3  1  0  0  0  0
 10  1  2  0  0  0  0
 11  2  1  0  0  0  0
 12 13  1  0  0  0  0
 12  8  1  0  0  0  0
 13  9  1  0  0  0  0
 14  3  1  0  0  0  0
 14  6  1  1  0  0  0
 15 10  1  0  0  0  0
 16 22  2  0  0  0  0
 16 20  1  0  0  0  0
 17 19  1  0  0  0  0
 17 16  1  0  0  0  0
 18 20  2  0  0  0  0
 18 13  1  0  0  0  0
 19 21  1  0  0  0  0
 21 18  1  0  0  0  0
 24 23  1  0  0  0  0
 25 26  1  0  0  0  0
 26 27  1  0  0  0  0
 29 27  1  6  0  0  0
 29 30  1  0  0  0  0
 30 34  1  0  0  0  0
 30 28  1  1  0  0  0
 31 34  1  0  0  0  0
 32 31  2  0  0  0  0
 33 32  1  0  0  0  0
 33 29  1  0  0  0  0
M  END
>  <MODEL>
5

>  <REMARK>
 VINA RESULT:      -4.9      2.728      8.079
  Name = 
  6 active torsions:
  status: ('A' for Active; 'I' for Inactive)
    1  A    between atoms: C_1  and  O_19
    2  A    between atoms: C_3  and  C_13
    3  A    between atoms: C_3  and  C_17
    4  A    between atoms: C_12  and  N_28
    5  A    between atoms: C_17  and  O_29
    6  A    between atoms: C_18  and  O_29
                            x       y       z     vdW  Elec       q    Type
                         _______ _______ _______ _____ _____    ______ ____

>  <TORSDO>
F 6

$$$$
=
 OpenBabel11062407483D

 34 38  0  0  1  0  0  0  0  0999 V2000
  159.6110  213.3070  150.7670 C   0  0  0  0  0  0  0  0  0  0  0  0
  160.8580  212.7980  148.6170 C   0  0  0  0  0  0  0  0  0  0  0  0
  161.1150  211.3910  150.6420 C   0  0  0  0  0  0  0  0  0  0  0  0
  163.1530  208.2430  149.6420 C   0  0  0  0  0  1  0  0  0  0  0  0
  160.4500  213.8430  148.0450 O   0  0  0  0  0  0  0  0  0  0  0  0
  162.1810  210.8120  148.4110 C   0  0  0  0  0  3  0  0  0  0  0  0
  160.5240  212.5180  150.0340 C   0  0  0  0  0  0  0  0  0  0  0  0
  162.0520  209.0680  150.3100 C   0  0  1  0  0  0  0  0  0  0  0  0
  160.8180  211.0550  151.9790 C   0  0  0  0  0  0  0  0  0  0  0  0
  159.3040  212.9520  152.0880 C   0  0  0  0  0  3  0  0  0  0  0  0
  161.6250  211.8510  147.8680 N   0  0  0  0  0  0  0  0  0  0  0  0
  162.3420  209.0340  151.8090 C   0  0  0  0  0  2  0  0  0  0  0  0
  161.4110  209.8710  152.5780 N   0  0  0  0  0  0  0  0  0  0  0  0
  162.1290  210.5570  149.8980 C   0  0  2  0  0  3  0  0  0  0  0  0
  159.8930  211.8390  152.6810 C   0  0  0  0  0  3  0  0  0  0  0  0
  161.8740  209.5930  156.3240 C   0  0  0  0  0  0  0  0  0  0  0  0
  160.7570  208.6820  156.7340 C   0  0  0  0  0  2  0  0  0  0  0  0
  161.2170  209.5090  153.9600 C   0  0  0  0  0  0  0  0  0  0  0  0
  160.3680  207.7720  155.5730 C   0  0  0  0  0  2  0  0  0  0  0  0
  162.0410  209.9730  154.9130 C   0  0  0  0  0  3  0  0  0  0  0  0
  160.0630  208.6060  154.3280 C   0  0  0  0  0  2  0  0  0  0  0  0
  162.6490  210.0640  157.1950 O   0  0  0  0  0  0  0  0  0  0  0  0
  157.7440  214.3730  149.5310 C   0  0  0  0  0  1  0  0  0  0  0  0
  159.0090  214.4260  150.1770 O   0  0  0  0  0  0  0  0  0  0  0  0
  160.7660  208.4960  150.1180 O   0  0  0  0  0  0  0  0  0  0  0  0
  160.8560  207.3100  149.3700 C   0  0  0  0  0  2  0  0  0  0  0  0
  160.6480  206.1220  150.2870 C   0  0  0  0  0  2  0  0  0  0  0  0
  161.5340  205.9900  147.5390 O   0  0  0  0  0  1  0  0  0  0  0  0
  161.1990  204.8610  149.6430 C   0  0  2  0  0  3  0  0  0  0  0  0
  160.9620  204.8620  148.1270 C   0  0  2  0  0  3  0  0  0  0  0  0
  161.2340  202.3560  148.2610 C   0  0  0  0  0  3  0  0  0  0  0  0
  160.7820  202.3740  149.5240 C   0  0  0  0  0  3  0  0  0  0  0  0
  160.4870  203.6570  150.2580 C   0  0  0  0  0  2  0  0  0  0  0  0
  161.5890  203.6130  147.5100 C   0  0  0  0  0  2  0  0  0  0  0  0
  1 10  1  0  0  0  0
  2  7  1  0  0  0  0
  3  9  2  0  0  0  0
  5  2  2  0  0  0  0
  7  3  1  0  0  0  0
  7  1  2  0  0  0  0
  8  4  1  6  0  0  0
  8 12  1  0  0  0  0
  9 13  1  0  0  0  0
  9 15  1  0  0  0  0
 10 15  2  0  0  0  0
 11  6  2  0  0  0  0
 11  2  1  0  0  0  0
 12 13  1  0  0  0  0
 13 18  1  0  0  0  0
 14  6  1  6  0  0  0
 14  8  1  0  0  0  0
 14  3  1  0  0  0  0
 16 17  1  0  0  0  0
 16 22  2  0  0  0  0
 18 21  1  0  0  0  0
 18 20  2  0  0  0  0
 19 17  1  0  0  0  0
 20 16  1  0  0  0  0
 21 19  1  0  0  0  0
 23 24  1  0  0  0  0
 24  1  1  0  0  0  0
 25  8  1  0  0  0  0
 26 25  1  0  0  0  0
 26 27  1  0  0  0  0
 29 33  1  0  0  0  0
 29 27  1  1  0  0  0
 30 28  1  6  0  0  0
 30 29  1  0  0  0  0
 31 32  2  0  0  0  0
 32 33  1  0  0  0  0
 34 30  1  0  0  0  0
 34 31  1  0  0  0  0
M  END
>  <MODEL>
6

>  <REMARK>
 VINA RESULT:      -4.9      1.404      1.835
  Name = 
  6 active torsions:
  status: ('A' for Active; 'I' for Inactive)
    1  A    between atoms: C_1  and  O_19
    2  A    between atoms: C_3  and  C_13
    3  A    between atoms: C_3  and  C_17
    4  A    between atoms: C_12  and  N_28
    5  A    between atoms: C_17  and  O_29
    6  A    between atoms: C_18  and  O_29
                            x       y       z     vdW  Elec       q    Type
                         _______ _______ _______ _____ _____    ______ ____

>  <TORSDO>
F 6

$$$$
=
 OpenBabel11062407483D

 34 38  0  0  1  0  0  0  0  0999 V2000
  159.3720  212.4260  151.8100 C   0  0  0  0  0  0  0  0  0  0  0  0
  160.6230  213.3160  149.7890 C   0  0  0  0  0  0  0  0  0  0  0  0
  161.0860  211.0680  150.7280 C   0  0  0  0  0  0  0  0  0  0  0  0
  163.4520  209.2240  148.2650 C   0  0  0  0  0  1  0  0  0  0  0  0
  160.0850  214.4520  149.8620 O   0  0  0  0  0  0  0  0  0  0  0  0
  162.1620  211.9240  148.5930 C   0  0  0  0  0  3  0  0  0  0  0  0
  160.3550  212.2720  150.8080 C   0  0  0  0  0  0  0  0  0  0  0  0
  162.2780  209.4230  149.2250 C   0  0  1  0  0  0  0  0  0  0  0  0
  160.8580  210.0260  151.6500 C   0  0  0  0  0  0  0  0  0  0  0  0
  159.1370  211.3760  152.7080 C   0  0  0  0  0  3  0  0  0  0  0  0
  161.4780  213.0230  148.6810 N   0  0  0  0  0  0  0  0  0  0  0  0
  162.6020  208.6070  150.4740 C   0  0  0  0  0  2  0  0  0  0  0  0
  161.5970  208.7800  151.5330 N   0  0  0  0  0  0  0  0  0  0  0  0
  162.1730  210.8930  149.6960 C   0  0  2  0  0  3  0  0  0  0  0  0
  159.8640  210.1920  152.6230 C   0  0  0  0  0  3  0  0  0  0  0  0
  161.1990  205.3230  153.0220 C   0  0  0  0  0  0  0  0  0  0  0  0
  161.2000  205.5910  154.4970 C   0  0  0  0  0  2  0  0  0  0  0  0
  161.4770  207.7020  152.4830 C   0  0  0  0  0  0  0  0  0  0  0  0
  160.7000  207.0050  154.7750 C   0  0  0  0  0  2  0  0  0  0  0  0
  161.3500  206.4320  152.0670 C   0  0  0  0  0  3  0  0  0  0  0  0
  161.5060  208.0190  153.9600 C   0  0  0  0  0  2  0  0  0  0  0  0
  161.1050  204.1430  152.6000 O   0  0  0  0  0  0  0  0  0  0  0  0
  157.3560  213.6830  152.5190 C   0  0  0  0  0  1  0  0  0  0  0  0
  158.6320  213.6130  151.8990 O   0  0  0  0  0  0  0  0  0  0  0  0
  161.0630  208.9140  148.6940 O   0  0  0  0  0  0  0  0  0  0  0  0
  161.3040  207.7830  147.8970 C   0  0  0  0  0  2  0  0  0  0  0  0
  160.5490  206.5990  148.4650 C   0  0  0  0  0  2  0  0  0  0  0  0
  161.2340  203.8410  148.9970 O   0  0  0  0  0  1  0  0  0  0  0  0
  160.4500  205.4940  147.4260 C   0  0  2  0  0  3  0  0  0  0  0  0
  161.4430  204.3630  147.7200 C   0  0  2  0  0  3  0  0  0  0  0  0
  161.2080  203.7600  145.2800 C   0  0  0  0  0  3  0  0  0  0  0  0
  160.9330  205.0400  144.9900 C   0  0  0  0  0  3  0  0  0  0  0  0
  160.7660  206.0920  146.0560 C   0  0  0  0  0  2  0  0  0  0  0  0
  161.2650  203.2450  146.6950 C   0  0  0  0  0  2  0  0  0  0  0  0
  1 24  1  0  0  0  0
  1 10  1  0  0  0  0
  2  5  2  0  0  0  0
  2  7  1  0  0  0  0
  3  7  1  0  0  0  0
  3  9  2  0  0  0  0
  6 11  2  0  0  0  0
  7  1  2  0  0  0  0
  8  4  1  6  0  0  0
  8 14  1  0  0  0  0
  8 12  1  0  0  0  0
  9 15  1  0  0  0  0
 11  2  1  0  0  0  0
 12 13  1  0  0  0  0
 13  9  1  0  0  0  0
 13 18  1  0  0  0  0
 14  6  1  6  0  0  0
 14  3  1  0  0  0  0
 15 10  2  0  0  0  0
 16 17  1  0  0  0  0
 17 19  1  0  0  0  0
 18 21  1  0  0  0  0
 20 18  2  0  0  0  0
 20 16  1  0  0  0  0
 21 19  1  0  0  0  0
 22 16  2  0  0  0  0
 24 23  1  0  0  0  0
 25  8  1  0  0  0  0
 26 27  1  0  0  0  0
 26 25  1  0  0  0  0
 29 30  1  0  0  0  0
 29 27  1  1  0  0  0
 30 28  1  1  0  0  0
 31 34  1  0  0  0  0
 32 31  2  0  0  0  0
 32 33  1  0  0  0  0
 33 29  1  0  0  0  0
 34 30  1  0  0  0  0
M  END
>  <MODEL>
7

>  <REMARK>
 VINA RESULT:      -4.5      2.018      2.737
  Name = 
  6 active torsions:
  status: ('A' for Active; 'I' for Inactive)
    1  A    between atoms: C_1  and  O_19
    2  A    between atoms: C_3  and  C_13
    3  A    between atoms: C_3  and  C_17
    4  A    between atoms: C_12  and  N_28
    5  A    between atoms: C_17  and  O_29
    6  A    between atoms: C_18  and  O_29
                            x       y       z     vdW  Elec       q    Type
                         _______ _______ _______ _____ _____    ______ ____

>  <TORSDO>
F 6

$$$$
=
 OpenBabel11062407483D

 34 38  0  0  1  0  0  0  0  0999 V2000
  160.8070  211.9450  150.4040 C   0  0  0  0  0  0  0  0  0  0  0  0
  161.9920  210.6770  148.5530 C   0  0  0  0  0  0  0  0  0  0  0  0
  161.7220  209.7230  150.8250 C   0  0  0  0  0  0  0  0  0  0  0  0
  162.8580  206.0140  150.6900 C   0  0  0  0  0  1  0  0  0  0  0  0
  161.9290  211.6440  147.7470 O   0  0  0  0  0  0  0  0  0  0  0  0
  162.7190  208.4200  148.8860 C   0  0  0  0  0  3  0  0  0  0  0  0
  161.5080  210.8070  149.9480 C   0  0  0  0  0  0  0  0  0  0  0  0
  161.9930  207.2210  151.0550 C   0  0  1  0  0  0  0  0  0  0  0  0
  161.2610  209.7730  152.1560 C   0  0  0  0  0  0  0  0  0  0  0  0
  160.3320  211.9750  151.7220 C   0  0  0  0  0  3  0  0  0  0  0  0
  162.5100  209.4260  148.0930 N   0  0  0  0  0  0  0  0  0  0  0  0
  162.1680  207.4370  152.5560 C   0  0  0  0  0  2  0  0  0  0  0  0
  161.4620  208.6330  153.0360 N   0  0  0  0  0  0  0  0  0  0  0  0
  162.5070  208.5140  150.3780 C   0  0  2  0  0  3  0  0  0  0  0  0
  160.5490  210.9020  152.5820 C   0  0  0  0  0  3  0  0  0  0  0  0
  160.0510  207.5900  156.3890 C   0  0  0  0  0  0  0  0  0  0  0  0
  160.3430  208.7740  157.2600 C   0  0  0  0  0  2  0  0  0  0  0  0
  161.0890  208.6410  154.4290 C   0  0  0  0  0  0  0  0  0  0  0  0
  160.4250  210.0410  156.4140 C   0  0  0  0  0  2  0  0  0  0  0  0
  160.4620  207.5880  154.9770 C   0  0  0  0  0  3  0  0  0  0  0  0
  161.4250  209.8490  155.2730 C   0  0  0  0  0  2  0  0  0  0  0  0
  159.4850  206.5780  156.8770 O   0  0  0  0  0  0  0  0  0  0  0  0
  161.1860  214.2990  149.7230 C   0  0  0  0  0  1  0  0  0  0  0  0
  160.5790  213.0270  149.5440 O   0  0  0  0  0  0  0  0  0  0  0  0
  160.6120  206.9760  150.8240 O   0  0  0  0  0  0  0  0  0  0  0  0
  160.3930  206.5820  149.4940 C   0  0  0  0  0  2  0  0  0  0  0  0
  160.9950  205.2100  149.2710 C   0  0  0  0  0  2  0  0  0  0  0  0
  161.1220  202.4670  148.3660 O   0  0  0  0  0  1  0  0  0  0  0  0
  160.8390  204.7980  147.8170 C   0  0  2  0  0  3  0  0  0  0  0  0
  161.5770  203.4850  147.5280 C   0  0  2  0  0  3  0  0  0  0  0  0
  161.5500  204.2080  145.1090 C   0  0  0  0  0  3  0  0  0  0  0  0
  161.5390  205.4930  145.4930 C   0  0  0  0  0  3  0  0  0  0  0  0
  161.4240  205.9030  146.9390 C   0  0  0  0  0  2  0  0  0  0  0  0
  161.3380  203.0720  146.0770 C   0  0  0  0  0  2  0  0  0  0  0  0
  1 10  1  0  0  0  0
  2  7  1  0  0  0  0
  3  9  2  0  0  0  0
  5  2  2  0  0  0  0
  7  1  2  0  0  0  0
  7  3  1  0  0  0  0
  8  4  1  6  0  0  0
  8 12  1  0  0  0  0
  9 15  1  0  0  0  0
  9 13  1  0  0  0  0
 10 15  2  0  0  0  0
 11  2  1  0  0  0  0
 11  6  2  0  0  0  0
 12 13  1  0  0  0  0
 13 18  1  0  0  0  0
 14  6  1  6  0  0  0
 14  3  1  0  0  0  0
 14  8  1  0  0  0  0
 16 22  2  0  0  0  0
 16 17  1  0  0  0  0
 18 20  2  0  0  0  0
 18 21  1  0  0  0  0
 19 17  1  0  0  0  0
 20 16  1  0  0  0  0
 21 19  1  0  0  0  0
 24 23  1  0  0  0  0
 24  1  1  0  0  0  0
 25  8  1  0  0  0  0
 26 25  1  0  0  0  0
 27 26  1  0  0  0  0
 29 27  1  1  0  0  0
 30 29  1  0  0  0  0
 30 28  1  1  0  0  0
 31 32  2  0  0  0  0
 31 34  1  0  0  0  0
 32 33  1  0  0  0  0
 33 29  1  0  0  0  0
 34 30  1  0  0  0  0
M  END
>  <MODEL>
8

>  <REMARK>
 VINA RESULT:      -4.4      1.601      2.103
  Name = 
  6 active torsions:
  status: ('A' for Active; 'I' for Inactive)
    1  A    between atoms: C_1  and  O_19
    2  A    between atoms: C_3  and  C_13
    3  A    between atoms: C_3  and  C_17
    4  A    between atoms: C_12  and  N_28
    5  A    between atoms: C_17  and  O_29
    6  A    between atoms: C_18  and  O_29
                            x       y       z     vdW  Elec       q    Type
                         _______ _______ _______ _____ _____    ______ ____

>  <TORSDO>
F 6

$$$$
=
 OpenBabel11062407483D

 34 38  0  0  1  0  0  0  0  0999 V2000
  161.8600  207.8270  152.7880 C   0  0  0  0  0  0  0  0  0  0  0  0
  160.8820  205.6860  151.8400 C   0  0  0  0  0  0  0  0  0  0  0  0
  161.2420  207.6950  150.4330 C   0  0  0  0  0  0  0  0  0  0  0  0
  160.6100  206.6790  146.7400 C   0  0  0  0  0  1  0  0  0  0  0  0
  160.8290  205.1230  152.9650 O   0  0  0  0  0  0  0  0  0  0  0  0
  160.4560  205.4710  149.4930 C   0  0  0  0  0  3  0  0  0  0  0  0
  161.3240  207.0950  151.7060 C   0  0  0  0  0  0  0  0  0  0  0  0
  161.3020  207.3440  147.9310 C   0  0  1  0  0  0  0  0  0  0  0  0
  161.6720  209.0230  150.2330 C   0  0  0  0  0  0  0  0  0  0  0  0
  162.3070  209.1380  152.5760 C   0  0  0  0  0  3  0  0  0  0  0  0
  160.5420  204.9340  150.6710 N   0  0  0  0  0  0  0  0  0  0  0  0
  161.0760  208.8460  147.7740 C   0  0  0  0  0  2  0  0  0  0  0  0
  161.6110  209.6140  148.9070 N   0  0  0  0  0  0  0  0  0  0  0  0
  160.6310  206.9530  149.2690 C   0  0  2  0  0  3  0  0  0  0  0  0
  162.2200  209.7240  151.3160 C   0  0  0  0  0  3  0  0  0  0  0  0
  161.3670  213.3640  148.4580 C   0  0  0  0  0  0  0  0  0  0  0  0
  162.7560  213.7450  148.0450 C   0  0  0  0  0  2  0  0  0  0  0  0
  161.9570  210.9890  148.6420 C   0  0  0  0  0  0  0  0  0  0  0  0
  163.4420  212.5670  147.3590 C   0  0  0  0  0  2  0  0  0  0  0  0
  161.0370  211.9600  148.7500 C   0  0  0  0  0  3  0  0  0  0  0  0
  163.3770  211.3260  148.2510 C   0  0  0  0  0  2  0  0  0  0  0  0
  160.4870  214.2540  148.5900 O   0  0  0  0  0  0  0  0  0  0  0  0
  161.2060  207.6980  155.1770 C   0  0  0  0  0  1  0  0  0  0  0  0
  161.9560  207.2430  154.0590 O   0  0  0  0  0  0  0  0  0  0  0  0
  162.7060  207.1270  147.9210 O   0  0  0  0  0  0  0  0  0  0  0  0
  162.9970  205.7540  147.8460 C   0  0  0  0  0  2  0  0  0  0  0  0
  162.9720  205.3150  146.3960 C   0  0  0  0  0  2  0  0  0  0  0  0
  161.4090  204.4200  144.1360 O   0  0  0  0  0  1  0  0  0  0  0  0
  162.3850  203.9180  146.2830 C   0  0  2  0  0  3  0  0  0  0  0  0
  161.1270  203.9130  145.4050 C   0  0  2  0  0  3  0  0  0  0  0  0
  160.5280  201.7610  146.5810 C   0  0  0  0  0  3  0  0  0  0  0  0
  161.2060  202.1650  147.6650 C   0  0  0  0  0  3  0  0  0  0  0  0
  162.0160  203.4360  147.6850 C   0  0  0  0  0  2  0  0  0  0  0  0
  160.6080  202.4830  145.2610 C   0  0  0  0  0  2  0  0  0  0  0  0
  1 24  1  0  0  0  0
  2  5  2  0  0  0  0
  3  7  1  0  0  0  0
  6 11  2  0  0  0  0
  7  2  1  0  0  0  0
  7  1  2  0  0  0  0
  8  4  1  6  0  0  0
  8 14  1  0  0  0  0
  9  3  2  0  0  0  0
  9 15  1  0  0  0  0
 10  1  1  0  0  0  0
 11  2  1  0  0  0  0
 12  8  1  0  0  0  0
 12 13  1  0  0  0  0
 13  9  1  0  0  0  0
 14  6  1  1  0  0  0
 14  3  1  0  0  0  0
 15 10  2  0  0  0  0
 16 22  2  0  0  0  0
 16 20  1  0  0  0  0
 17 16  1  0  0  0  0
 18 20  2  0  0  0  0
 18 13  1  0  0  0  0
 19 17  1  0  0  0  0
 19 21  1  0  0  0  0
 21 18  1  0  0  0  0
 24 23  1  0  0  0  0
 25  8  1  0  0  0  0
 26 25  1  0  0  0  0
 27 26  1  0  0  0  0
 29 27  1  1  0  0  0
 29 33  1  0  0  0  0
 30 28  1  6  0  0  0
 30 29  1  0  0  0  0
 31 32  2  0  0  0  0
 32 33  1  0  0  0  0
 34 30  1  0  0  0  0
 34 31  1  0  0  0  0
M  END
>  <MODEL>
9

>  <REMARK>
 VINA RESULT:      -4.3      2.491      6.259
  Name = 
  6 active torsions:
  status: ('A' for Active; 'I' for Inactive)
    1  A    between atoms: C_1  and  O_19
    2  A    between atoms: C_3  and  C_13
    3  A    between atoms: C_3  and  C_17
    4  A    between atoms: C_12  and  N_28
    5  A    between atoms: C_17  and  O_29
    6  A    between atoms: C_18  and  O_29
                            x       y       z     vdW  Elec       q    Type
                         _______ _______ _______ _____ _____    ______ ____

>  <TORSDO>
F 6

$$$$
