=
 OpenBabel11062409023D

 37 43  0  0  1  0  0  0  0  0999 V2000
  161.1400  211.4590  149.6510 C   0  0  2  0  0  3  0  0  0  0  0  0
  159.0430  214.3520  155.5330 C   0  0  0  0  0  2  0  0  0  0  0  0
  161.2440  206.0000  150.9320 C   0  0  0  0  0  2  0  0  0  0  0  0
  160.3430  209.4890  153.8590 N   0  0  0  0  0  0  0  0  0  0  0  0
  160.5340  212.4540  148.8490 O   0  0  0  0  0  0  0  0  0  0  0  0
  158.2340  213.3970  154.6270 C   0  0  2  0  0  0  0  0  0  0  0  0
  158.4830  213.7890  153.1780 C   0  0  0  0  0  2  0  0  0  0  0  0
  156.7280  213.4880  154.9010 C   0  0  0  0  0  2  0  0  0  0  0  0
  162.1990  207.7170  153.6040 C   0  0  0  0  0  2  0  0  0  0  0  0
  159.6820  210.4710  153.0160 C   0  0  1  0  0  3  0  0  0  0  0  0
  161.3970  208.8860  153.1140 C   0  0  0  0  0  0  0  0  0  0  0  0
  159.8380  211.8280  153.6810 C   0  0  1  0  0  3  0  0  0  0  0  0
  155.2490  213.0200  156.7830 C   0  0  0  0  0  2  0  0  0  0  0  0
  161.6110  206.4100  153.0870 C   0  0  0  0  0  2  0  0  0  0  0  0
  160.8970  213.6240  149.3580 O   0  0  0  0  0  0  0  0  0  0  0  0
  157.2110  214.3840  157.2610 C   0  0  0  0  0  2  0  0  0  0  0  0
  156.4280  213.4710  156.3700 C   0  0  0  0  0  0  0  0  0  0  0  0
  161.4620  209.3660  151.8830 C   0  0  0  0  0  0  0  0  0  0  0  0
  161.5720  208.1720  149.6880 C   0  0  0  0  0  2  0  0  0  0  0  0
  159.0660  209.9140  155.9630 O   0  0  0  0  0  0  0  0  0  0  0  0
  160.0890  207.9070  155.5610 O   0  0  0  0  0  0  0  0  0  0  0  0
  162.2290  208.7310  150.8580 N   0  0  0  0  0  2  0  0  0  0  0  0
  160.0170  213.8980  150.4260 C   0  0  2  0  0  3  0  0  0  0  0  0
  159.7370  213.0360  152.7610 C   0  0  1  0  0  3  0  0  0  0  0  0
  159.8540  209.0750  155.1520 C   0  0  0  0  0  0  0  0  0  0  0  0
  160.3530  210.3490  151.6200 C   0  0  2  0  0  3  0  0  0  0  0  0
  162.2500  206.0390  151.9010 O   0  0  0  0  0  0  0  0  0  0  0  0
  158.7090  211.9410  154.6640 C   0  0  1  0  0  3  0  0  0  0  0  0
  161.7430  206.6580  149.6530 C   0  0  0  0  0  2  0  0  0  0  0  0
  159.7770  212.6480  151.2860 C   0  0  2  0  0  3  0  0  0  0  0  0
  158.7020  214.1880  157.0160 C   0  0  0  0  0  2  0  0  0  0  0  0
  160.8400  211.6390  151.0880 N   0  0  2  0  0  0  0  0  0  0  0  0
  159.1360  211.3420  155.9940 C   0  0  0  0  0  2  0  0  0  0  0  0
  158.6960  214.4530  149.9110 C   0  0  0  0  0  2  0  0  0  0  0  0
  157.6860  213.3340  149.7500 C   0  0  0  0  0  1  0  0  0  0  0  0
  162.9820  211.8640  148.0140 C   0  0  0  0  0  1  0  0  0  0  0  0
  162.6500  211.4360  149.4300 C   0  0  0  0  0  2  0  0  0  0  0  0
  1 37  1  1  0  0  0
  1 32  1  0  0  0  0
  2 31  1  0  0  0  0
  3 27  1  0  0  0  0
  4 25  1  0  0  0  0
  5 15  1  0  0  0  0
  5  1  1  0  0  0  0
  6  7  1  6  0  0  0
  6 28  1  0  0  0  0
  6  8  1  0  0  0  0
  6  2  1  0  0  0  0
  8 17  1  0  0  0  0
 10 12  1  0  0  0  0
 10  4  1  1  0  0  0
 11  9  1  0  0  0  0
 11  4  1  0  0  0  0
 12 28  1  0  0  0  0
 14  9  1  0  0  0  0
 15 23  1  0  0  0  0
 17 13  2  0  0  0  0
 17 16  1  0  0  0  0
 18 11  2  0  0  0  0
 19 22  1  0  0  0  0
 20 33  1  0  0  0  0
 22 18  1  0  0  0  0
 23 30  1  0  0  0  0
 24  7  1  0  0  0  0
 24 12  1  0  0  0  0
 25 21  2  0  0  0  0
 25 20  1  0  0  0  0
 26 18  1  0  0  0  0
 26 10  1  0  0  0  0
 27 14  1  0  0  0  0
 28 33  1  0  0  0  0
 29 19  1  0  0  0  0
 29  3  1  0  0  0  0
 30 24  1  0  0  0  0
 31 16  1  0  0  0  0
 32 30  1  0  0  0  0
 32 26  1  0  0  0  0
 34 23  1  0  0  0  0
 35 34  1  0  0  0  0
 36 37  1  0  0  0  0
M  END
>  <MODEL>
1

>  <REMARK>
 VINA RESULT:      -4.3      0.000      0.000
  Name = 
  2 active torsions:
  status: ('A' for Active; 'I' for Inactive)
    1  A    between atoms: C_1  and  C_23
    2  A    between atoms: C_11  and  C_26
                            x       y       z     vdW  Elec       q    Type
                         _______ _______ _______ _____ _____    ______ ____

>  <TORSDO>
F 2

$$$$
=
 OpenBabel11062409023D

 37 43  0  0  1  0  0  0  0  0999 V2000
  160.3690  210.5330  154.2050 C   0  0  2  0  0  3  0  0  0  0  0  0
  161.9600  213.5420  148.2240 C   0  0  0  0  0  2  0  0  0  0  0  0
  154.9260  211.7510  154.7870 C   0  0  0  0  0  2  0  0  0  0  0  0
  157.7340  213.2740  151.4200 N   0  0  0  0  0  0  0  0  0  0  0  0
  161.3170  209.4970  154.0320 O   0  0  0  0  0  0  0  0  0  0  0  0
  160.9900  212.3600  148.4400 C   0  0  2  0  0  0  0  0  0  0  0  0
  161.6150  211.4080  149.4500 C   0  0  0  0  0  2  0  0  0  0  0  0
  160.7330  211.5870  147.1410 C   0  0  0  0  0  2  0  0  0  0  0  0
  156.4290  214.3440  153.3700 C   0  0  0  0  0  2  0  0  0  0  0  0
  158.6640  212.1720  151.2350 C   0  0  1  0  0  3  0  0  0  0  0  0
  157.4640  213.4130  152.8110 C   0  0  0  0  0  0  0  0  0  0  0  0
  159.9230  212.7340  150.5970 C   0  0  1  0  0  3  0  0  0  0  0  0
  159.7260  212.0690  144.9730 C   0  0  0  0  0  2  0  0  0  0  0  0
  155.1110  213.6130  153.5850 C   0  0  0  0  0  2  0  0  0  0  0  0
  162.4590  210.0820  153.6900 O   0  0  0  0  0  0  0  0  0  0  0  0
  161.3860  213.6630  145.7760 C   0  0  0  0  0  2  0  0  0  0  0  0
  160.4590  212.5070  145.9910 C   0  0  0  0  0  0  0  0  0  0  0  0
  158.1080  212.5040  153.5270 C   0  0  0  0  0  0  0  0  0  0  0  0
  157.2650  210.9480  155.2940 C   0  0  0  0  0  2  0  0  0  0  0  0
  157.6040  214.0280  149.0420 O   0  0  0  0  0  0  0  0  0  0  0  0
  155.9210  214.4530  150.5320 O   0  0  0  0  0  0  0  0  0  0  0  0
  157.7860  212.2450  154.8940 N   0  0  0  0  0  2  0  0  0  0  0  0
  162.4010  210.3120  152.2990 C   0  0  2  0  0  3  0  0  0  0  0  0
  161.1960  211.9310  150.8160 C   0  0  1  0  0  3  0  0  0  0  0  0
  157.0600  213.9520  150.3380 C   0  0  0  0  0  0  0  0  0  0  0  0
  158.8690  211.5520  152.6440 C   0  0  2  0  0  3  0  0  0  0  0  0
  155.0400  213.1390  154.8970 O   0  0  0  0  0  0  0  0  0  0  0  0
  159.6700  212.7440  149.1160 C   0  0  1  0  0  3  0  0  0  0  0  0
  155.8370  211.0820  155.8080 C   0  0  0  0  0  2  0  0  0  0  0  0
  161.0250  210.8500  151.8780 C   0  0  2  0  0  3  0  0  0  0  0  0
  161.5330  214.4520  147.0700 C   0  0  0  0  0  2  0  0  0  0  0  0
  160.2900  211.4230  153.0270 N   0  0  2  0  0  0  0  0  0  0  0  0
  158.9990  214.0510  148.7280 C   0  0  0  0  0  2  0  0  0  0  0  0
  162.7370  209.0440  151.5260 C   0  0  0  0  0  2  0  0  0  0  0  0
  161.4960  208.5000  150.8480 C   0  0  0  0  0  1  0  0  0  0  0  0
  160.8720  210.4290  156.6490 C   0  0  0  0  0  1  0  0  0  0  0  0
  160.6850  211.3470  155.4570 C   0  0  0  0  0  2  0  0  0  0  0  0
  1 37  1  1  0  0  0
  2  6  1  0  0  0  0
  3 27  1  0  0  0  0
  3 29  1  0  0  0  0
  4 11  1  0  0  0  0
  5  1  1  0  0  0  0
  6  8  1  6  0  0  0
  6 28  1  0  0  0  0
  6  7  1  0  0  0  0
  7 24  1  0  0  0  0
  9 14  1  0  0  0  0
 10  4  1  1  0  0  0
 10 26  1  0  0  0  0
 11  9  1  0  0  0  0
 11 18  2  0  0  0  0
 12 24  1  0  0  0  0
 12 10  1  0  0  0  0
 13 17  2  0  0  0  0
 14 27  1  0  0  0  0
 15  5  1  0  0  0  0
 16 17  1  0  0  0  0
 16 31  1  0  0  0  0
 17  8  1  0  0  0  0
 18 22  1  0  0  0  0
 19 29  1  0  0  0  0
 20 25  1  0  0  0  0
 22 19  1  0  0  0  0
 23 15  1  0  0  0  0
 24 30  1  0  0  0  0
 25 21  2  0  0  0  0
 25  4  1  0  0  0  0
 26 32  1  0  0  0  0
 26 18  1  0  0  0  0
 28 12  1  0  0  0  0
 30 23  1  0  0  0  0
 30 32  1  0  0  0  0
 31  2  1  0  0  0  0
 32  1  1  0  0  0  0
 33 20  1  0  0  0  0
 33 28  1  0  0  0  0
 34 23  1  0  0  0  0
 35 34  1  0  0  0  0
 37 36  1  0  0  0  0
M  END
>  <MODEL>
2

>  <REMARK>
 VINA RESULT:      -3.1      2.507      7.494
  Name = 
  2 active torsions:
  status: ('A' for Active; 'I' for Inactive)
    1  A    between atoms: C_1  and  C_23
    2  A    between atoms: C_11  and  C_26
                            x       y       z     vdW  Elec       q    Type
                         _______ _______ _______ _____ _____    ______ ____

>  <TORSDO>
F 2

$$$$
=
 OpenBabel11062409023D

 37 43  0  0  1  0  0  0  0  0999 V2000
  161.1950  209.5580  153.8650 C   0  0  2  0  0  3  0  0  0  0  0  0
  162.1940  203.1240  151.6360 C   0  0  0  0  0  2  0  0  0  0  0  0
  160.2910  212.3840  149.1060 C   0  0  0  0  0  2  0  0  0  0  0  0
  161.4630  207.9060  149.4590 N   0  0  0  0  0  0  0  0  0  0  0  0
  160.6310  209.1340  155.0910 O   0  0  0  0  0  0  0  0  0  0  0  0
  160.8920  203.9490  151.5390 C   0  0  2  0  0  0  0  0  0  0  0  0
  160.7010  204.6930  152.8530 C   0  0  0  0  0  2  0  0  0  0  0  0
  159.6670  203.0570  151.3060 C   0  0  0  0  0  2  0  0  0  0  0  0
  162.5600  210.0390  148.5120 C   0  0  0  0  0  2  0  0  0  0  0  0
  160.8310  207.4910  150.7000 C   0  0  1  0  0  3  0  0  0  0  0  0
  161.9790  209.2220  149.6280 C   0  0  0  0  0  0  0  0  0  0  0  0
  161.5700  206.2630  151.2050 C   0  0  1  0  0  3  0  0  0  0  0  0
  158.8910  201.5530  149.5490 C   0  0  0  0  0  2  0  0  0  0  0  0
  161.5010  210.9520  147.9090 C   0  0  0  0  0  2  0  0  0  0  0  0
  161.4500  208.2150  155.5880 O   0  0  0  0  0  0  0  0  0  0  0  0
  161.1820  201.2330  150.3160 C   0  0  0  0  0  2  0  0  0  0  0  0
  159.9190  202.0330  150.2410 C   0  0  0  0  0  0  0  0  0  0  0  0
  161.7240  209.6950  150.8380 C   0  0  0  0  0  0  0  0  0  0  0  0
  160.7180  211.8740  151.5420 C   0  0  0  0  0  2  0  0  0  0  0  0
  161.1860  205.7710  148.1920 O   0  0  0  0  0  0  0  0  0  0  0  0
  161.4230  207.7810  147.1250 O   0  0  0  0  0  0  0  0  0  0  0  0
  161.8740  211.0780  151.1620 N   0  0  0  0  0  2  0  0  0  0  0  0
  161.1180  206.9910  154.9700 C   0  0  2  0  0  3  0  0  0  0  0  0
  161.4730  205.9950  152.7000 C   0  0  1  0  0  3  0  0  0  0  0  0
  161.3770  207.1650  148.2230 C   0  0  0  0  0  0  0  0  0  0  0  0
  160.8990  208.7250  151.6410 C   0  0  2  0  0  3  0  0  0  0  0  0
  161.5490  212.2050  148.5240 O   0  0  0  0  0  0  0  0  0  0  0  0
  160.9420  205.0870  150.5150 C   0  0  1  0  0  3  0  0  0  0  0  0
  160.4560  212.9610  150.5060 C   0  0  0  0  0  2  0  0  0  0  0  0
  160.8770  207.1730  153.4640 C   0  0  2  0  0  3  0  0  0  0  0  0
  162.3760  202.1690  150.4540 C   0  0  0  0  0  2  0  0  0  0  0  0
  161.4890  208.4240  152.9630 N   0  0  2  0  0  0  0  0  0  0  0  0
  161.6400  204.8490  149.1870 C   0  0  0  0  0  2  0  0  0  0  0  0
  159.8990  206.3640  155.6320 C   0  0  0  0  0  2  0  0  0  0  0  0
  159.7060  206.9370  157.0220 C   0  0  0  0  0  1  0  0  0  0  0  0
  162.5980  210.7050  155.5830 C   0  0  0  0  0  1  0  0  0  0  0  0
  162.4620  210.3740  154.1100 C   0  0  0  0  0  2  0  0  0  0  0  0
  1 37  1  1  0  0  0
  1  5  1  0  0  0  0
  3 29  1  0  0  0  0
  4 11  1  0  0  0  0
  5 15  1  0  0  0  0
  6  8  1  6  0  0  0
  6  2  1  0  0  0  0
  6  7  1  0  0  0  0
  9 11  1  0  0  0  0
 10  4  1  6  0  0  0
 10 12  1  0  0  0  0
 10 26  1  0  0  0  0
 11 18  2  0  0  0  0
 12 24  1  0  0  0  0
 13 17  2  0  0  0  0
 14  9  1  0  0  0  0
 14 27  1  0  0  0  0
 16 31  1  0  0  0  0
 17 16  1  0  0  0  0
 17  8  1  0  0  0  0
 18 22  1  0  0  0  0
 18 26  1  0  0  0  0
 20 25  1  0  0  0  0
 20 33  1  0  0  0  0
 21 25  2  0  0  0  0
 22 19  1  0  0  0  0
 23 15  1  0  0  0  0
 23 34  1  0  0  0  0
 24  7  1  0  0  0  0
 24 30  1  0  0  0  0
 25  4  1  0  0  0  0
 26 32  1  0  0  0  0
 27  3  1  0  0  0  0
 28 12  1  0  0  0  0
 28  6  1  0  0  0  0
 29 19  1  0  0  0  0
 30 23  1  0  0  0  0
 31  2  1  0  0  0  0
 32 30  1  0  0  0  0
 32  1  1  0  0  0  0
 33 28  1  0  0  0  0
 34 35  1  0  0  0  0
 37 36  1  0  0  0  0
M  END
>  <MODEL>
3

>  <REMARK>
 VINA RESULT:      -3.0      3.151      8.367
  Name = 
  2 active torsions:
  status: ('A' for Active; 'I' for Inactive)
    1  A    between atoms: C_1  and  C_23
    2  A    between atoms: C_11  and  C_26
                            x       y       z     vdW  Elec       q    Type
                         _______ _______ _______ _____ _____    ______ ____

>  <TORSDO>
F 2

$$$$
=
 OpenBabel11062409023D

 37 43  0  0  1  0  0  0  0  0999 V2000
  161.0560  207.9190  153.1630 C   0  0  2  0  0  3  0  0  0  0  0  0
  163.1460  212.2020  148.1970 C   0  0  0  0  0  2  0  0  0  0  0  0
  157.0750  210.8950  155.7600 C   0  0  0  0  0  2  0  0  0  0  0  0
  159.8050  212.3840  152.3140 N   0  0  0  0  0  0  0  0  0  0  0  0
  161.3290  206.7630  152.3950 O   0  0  0  0  0  0  0  0  0  0  0  0
  161.7520  211.5500  148.3360 C   0  0  2  0  0  0  0  0  0  0  0  0
  161.9440  210.1010  148.7600 C   0  0  0  0  0  2  0  0  0  0  0  0
  160.9780  211.5690  147.0130 C   0  0  0  0  0  2  0  0  0  0  0  0
  159.4740  212.9750  154.8020 C   0  0  0  0  0  2  0  0  0  0  0  0
  160.0280  211.1860  151.5220 C   0  0  1  0  0  3  0  0  0  0  0  0
  159.8240  212.0280  153.6930 C   0  0  0  0  0  0  0  0  0  0  0  0
  161.3040  211.3920  150.7240 C   0  0  1  0  0  3  0  0  0  0  0  0
  160.0750  213.2760  145.5240 C   0  0  0  0  0  2  0  0  0  0  0  0
  158.0070  212.8320  155.1860 C   0  0  0  0  0  2  0  0  0  0  0  0
  162.5540  206.9120  151.9070 O   0  0  0  0  0  0  0  0  0  0  0  0
  162.3970  213.5550  146.2110 C   0  0  0  0  0  2  0  0  0  0  0  0
  161.0540  212.9070  146.3430 C   0  0  0  0  0  0  0  0  0  0  0  0
  160.0140  210.7290  153.8590 C   0  0  0  0  0  0  0  0  0  0  0  0
  158.7450  209.0740  155.2400 C   0  0  0  0  0  2  0  0  0  0  0  0
  159.7620  214.0400  150.4450 O   0  0  0  0  0  0  0  0  0  0  0  0
  158.7250  214.4530  152.4420 O   0  0  0  0  0  0  0  0  0  0  0  0
  159.7870  210.0800  155.1120 N   0  0  0  0  0  2  0  0  0  0  0  0
  162.4400  207.7020  150.7440 C   0  0  2  0  0  3  0  0  0  0  0  0
  162.0230  210.1270  150.2790 C   0  0  1  0  0  3  0  0  0  0  0  0
  159.4260  213.6610  151.7580 C   0  0  0  0  0  0  0  0  0  0  0  0
  160.0770  210.0120  152.5370 C   0  0  2  0  0  3  0  0  0  0  0  0
  157.8810  211.9290  156.2450 O   0  0  0  0  0  0  0  0  0  0  0  0
  160.9010  212.1200  149.4740 C   0  0  1  0  0  3  0  0  0  0  0  0
  157.6550  209.5540  156.1910 C   0  0  0  0  0  2  0  0  0  0  0  0
  161.4750  208.8770  150.9590 C   0  0  2  0  0  3  0  0  0  0  0  0
  163.0850  213.5960  147.5690 C   0  0  0  0  0  2  0  0  0  0  0  0
  161.2800  209.1640  152.3970 N   0  0  2  0  0  0  0  0  0  0  0  0
  160.9270  213.6180  149.7320 C   0  0  0  0  0  2  0  0  0  0  0  0
  161.9950  206.8570  149.5580 C   0  0  0  0  0  2  0  0  0  0  0  0
  160.4820  206.7820  149.5070 C   0  0  0  0  0  1  0  0  0  0  0  0
  161.3280  206.9530  155.4490 C   0  0  0  0  0  1  0  0  0  0  0  0
  161.8960  207.9290  154.4370 C   0  0  0  0  0  2  0  0  0  0  0  0
  1 37  1  1  0  0  0
  2  6  1  0  0  0  0
  3 29  1  0  0  0  0
  3 27  1  0  0  0  0
  4 11  1  0  0  0  0
  5  1  1  0  0  0  0
  6  8  1  6  0  0  0
  6  7  1  0  0  0  0
  6 28  1  0  0  0  0
  7 24  1  0  0  0  0
  9 14  1  0  0  0  0
 10  4  1  1  0  0  0
 10 26  1  0  0  0  0
 11 18  2  0  0  0  0
 11  9  1  0  0  0  0
 12 10  1  0  0  0  0
 13 17  2  0  0  0  0
 14 27  1  0  0  0  0
 15  5  1  0  0  0  0
 16 17  1  0  0  0  0
 16 31  1  0  0  0  0
 17  8  1  0  0  0  0
 18 22  1  0  0  0  0
 19 29  1  0  0  0  0
 20 25  1  0  0  0  0
 22 19  1  0  0  0  0
 23 30  1  0  0  0  0
 23 15  1  0  0  0  0
 24 12  1  0  0  0  0
 24 30  1  0  0  0  0
 25  4  1  0  0  0  0
 25 21  2  0  0  0  0
 26 18  1  0  0  0  0
 28 33  1  0  0  0  0
 28 12  1  0  0  0  0
 30 32  1  0  0  0  0
 31  2  1  0  0  0  0
 32 26  1  0  0  0  0
 32  1  1  0  0  0  0
 33 20  1  0  0  0  0
 34 23  1  0  0  0  0
 35 34  1  0  0  0  0
 37 36  1  0  0  0  0
M  END
>  <MODEL>
4

>  <REMARK>
 VINA RESULT:      -2.9      1.743      7.111
  Name = 
  2 active torsions:
  status: ('A' for Active; 'I' for Inactive)
    1  A    between atoms: C_1  and  C_23
    2  A    between atoms: C_11  and  C_26
                            x       y       z     vdW  Elec       q    Type
                         _______ _______ _______ _____ _____    ______ ____

>  <TORSDO>
F 2

$$$$
=
 OpenBabel11062409023D

 37 43  0  0  1  0  0  0  0  0999 V2000
  161.8310  208.3660  148.7860 C   0  0  2  0  0  3  0  0  0  0  0  0
  162.2910  211.0780  155.0940 C   0  0  0  0  0  2  0  0  0  0  0  0
  160.0040  203.1640  149.8130 C   0  0  0  0  0  2  0  0  0  0  0  0
  161.1780  206.3370  152.9900 N   0  0  0  0  0  0  0  0  0  0  0  0
  161.5250  209.6090  148.1840 O   0  0  0  0  0  0  0  0  0  0  0  0
  161.0050  210.6250  154.3700 C   0  0  2  0  0  0  0  0  0  0  0  0
  161.0920  211.0710  152.9170 C   0  0  0  0  0  2  0  0  0  0  0  0
  159.7490  211.2470  154.9920 C   0  0  0  0  0  2  0  0  0  0  0  0
  162.0800  204.0390  152.2450 C   0  0  0  0  0  2  0  0  0  0  0  0
  160.8090  207.5950  152.3610 C   0  0  1  0  0  3  0  0  0  0  0  0
  161.7310  205.4770  151.9990 C   0  0  0  0  0  0  0  0  0  0  0  0
  161.6230  208.6960  153.0190 C   0  0  1  0  0  3  0  0  0  0  0  0
  158.6170  211.1450  157.1500 C   0  0  0  0  0  2  0  0  0  0  0  0
  160.9300  203.1300  151.8350 C   0  0  0  0  0  2  0  0  0  0  0  0
  162.4190  210.4800  148.6350 O   0  0  0  0  0  0  0  0  0  0  0  0
  161.0130  211.5880  157.2030 C   0  0  0  0  0  2  0  0  0  0  0  0
  159.7690  211.1610  156.4880 C   0  0  0  0  0  0  0  0  0  0  0  0
  161.7330  206.0470  150.8040 C   0  0  0  0  0  0  0  0  0  0  0  0
  160.9130  205.1860  148.6040 C   0  0  0  0  0  2  0  0  0  0  0  0
  160.6280  206.9490  155.3490 O   0  0  0  0  0  0  0  0  0  0  0  0
  160.6620  204.7720  154.6480 O   0  0  0  0  0  0  0  0  0  0  0  0
  161.9600  205.3020  149.6060 N   0  0  0  0  0  2  0  0  0  0  0  0
  161.9550  210.9310  149.8890 C   0  0  2  0  0  3  0  0  0  0  0  0
  161.8300  209.9560  152.1920 C   0  0  1  0  0  3  0  0  0  0  0  0
  160.8350  205.9820  154.3470 C   0  0  0  0  0  0  0  0  0  0  0  0
  161.0800  207.4020  150.8440 C   0  0  2  0  0  3  0  0  0  0  0  0
  161.1140  202.6960  150.5200 O   0  0  0  0  0  0  0  0  0  0  0  0
  160.8560  209.1060  154.2430 C   0  0  1  0  0  3  0  0  0  0  0  0
  160.4560  203.7370  148.4760 C   0  0  0  0  0  2  0  0  0  0  0  0
  161.4140  209.7700  150.7360 C   0  0  2  0  0  3  0  0  0  0  0  0
  162.2190  210.8720  156.6090 C   0  0  0  0  0  2  0  0  0  0  0  0
  161.9230  208.4660  150.2590 N   0  0  2  0  0  0  0  0  0  0  0  0
  161.2660  208.2270  155.4130 C   0  0  0  0  0  2  0  0  0  0  0  0
  160.8910  212.0060  149.7170 C   0  0  0  0  0  2  0  0  0  0  0  0
  161.3320  213.0170  148.6770 C   0  0  0  0  0  1  0  0  0  0  0  0
  162.8310  206.8500  147.0730 C   0  0  0  0  0  1  0  0  0  0  0  0
  163.1290  207.7980  148.2170 C   0  0  0  0  0  2  0  0  0  0  0  0
  1 37  1  6  0  0  0
  1 32  1  0  0  0  0
  2 31  1  0  0  0  0
  3 27  1  0  0  0  0
  4 25  1  0  0  0  0
  5 15  1  0  0  0  0
  5  1  1  0  0  0  0
  6  7  1  6  0  0  0
  6  8  1  0  0  0  0
  6  2  1  0  0  0  0
  8 17  1  0  0  0  0
 10  4  1  1  0  0  0
 10 12  1  0  0  0  0
 11  9  1  0  0  0  0
 11  4  1  0  0  0  0
 12 28  1  0  0  0  0
 14  9  1  0  0  0  0
 15 23  1  0  0  0  0
 17 13  2  0  0  0  0
 17 16  1  0  0  0  0
 18 26  1  0  0  0  0
 18 11  2  0  0  0  0
 19 22  1  0  0  0  0
 20 33  1  0  0  0  0
 22 18  1  0  0  0  0
 23 30  1  0  0  0  0
 24  7  1  0  0  0  0
 24 12  1  0  0  0  0
 25 21  2  0  0  0  0
 25 20  1  0  0  0  0
 26 10  1  0  0  0  0
 27 14  1  0  0  0  0
 28  6  1  0  0  0  0
 28 33  1  0  0  0  0
 29 19  1  0  0  0  0
 29  3  1  0  0  0  0
 30 24  1  0  0  0  0
 31 16  1  0  0  0  0
 32 30  1  0  0  0  0
 32 26  1  0  0  0  0
 34 23  1  0  0  0  0
 35 34  1  0  0  0  0
 36 37  1  0  0  0  0
M  END
>  <MODEL>
5

>  <REMARK>
 VINA RESULT:      -2.8      2.440      3.720
  Name = 
  2 active torsions:
  status: ('A' for Active; 'I' for Inactive)
    1  A    between atoms: C_1  and  C_23
    2  A    between atoms: C_11  and  C_26
                            x       y       z     vdW  Elec       q    Type
                         _______ _______ _______ _____ _____    ______ ____

>  <TORSDO>
F 2

$$$$
=
 OpenBabel11062409023D

 37 43  0  0  1  0  0  0  0  0999 V2000
  161.7430  206.6220  151.1930 C   0  0  2  0  0  3  0  0  0  0  0  0
  162.5460  212.4800  147.6720 C   0  0  0  0  0  2  0  0  0  0  0  0
  159.1630  208.3380  155.8680 C   0  0  0  0  0  2  0  0  0  0  0  0
  160.7650  211.0550  152.4620 N   0  0  0  0  0  0  0  0  0  0  0  0
  161.6270  205.8360  150.0220 O   0  0  0  0  0  0  0  0  0  0  0  0
  161.2120  211.7910  148.0380 C   0  0  2  0  0  0  0  0  0  0  0  0
  161.3770  210.2930  147.8290 C   0  0  0  0  0  2  0  0  0  0  0  0
  160.0570  212.2790  147.1560 C   0  0  0  0  0  2  0  0  0  0  0  0
  161.3260  210.6790  154.9510 C   0  0  0  0  0  2  0  0  0  0  0  0
  160.5900  210.2390  151.2720 C   0  0  1  0  0  3  0  0  0  0  0  0
  161.1930  210.2160  153.5300 C   0  0  0  0  0  0  0  0  0  0  0  0
  161.5520  210.7540  150.2150 C   0  0  1  0  0  3  0  0  0  0  0  0
  158.9050  214.3940  146.7730 C   0  0  0  0  0  2  0  0  0  0  0  0
  160.0570  210.3710  155.7350 C   0  0  0  0  0  2  0  0  0  0  0  0
  162.6360  206.1830  149.2330 O   0  0  0  0  0  0  0  0  0  0  0  0
  161.3390  214.4530  146.6770 C   0  0  0  0  0  2  0  0  0  0  0  0
  160.0520  213.7720  147.0210 C   0  0  0  0  0  0  0  0  0  0  0  0
  161.2890  208.9520  153.1500 C   0  0  0  0  0  0  0  0  0  0  0  0
  160.3690  206.8760  154.2000 C   0  0  0  0  0  2  0  0  0  0  0  0
  160.2920  213.2820  151.4350 O   0  0  0  0  0  0  0  0  0  0  0  0
  160.0110  212.9060  153.6740 O   0  0  0  0  0  0  0  0  0  0  0  0
  161.4130  207.8820  154.0890 N   0  0  0  0  0  2  0  0  0  0  0  0
  162.2340  207.3430  148.5380 C   0  0  2  0  0  3  0  0  0  0  0  0
  161.9480  209.7590  149.1340 C   0  0  1  0  0  3  0  0  0  0  0  0
  160.3630  212.4380  152.5590 C   0  0  0  0  0  0  0  0  0  0  0  0
  160.8410  208.7750  151.7230 C   0  0  2  0  0  3  0  0  0  0  0  0
  160.1870  209.1390  156.3810 O   0  0  0  0  0  0  0  0  0  0  0  0
  160.8430  211.8820  149.5220 C   0  0  1  0  0  3  0  0  0  0  0  0
  159.7050  206.9470  155.5700 C   0  0  0  0  0  2  0  0  0  0  0  0
  161.5210  208.3340  149.4710 C   0  0  2  0  0  3  0  0  0  0  0  0
  162.4320  214.0060  147.6390 C   0  0  0  0  0  2  0  0  0  0  0  0
  161.8360  208.0660  150.8910 N   0  0  2  0  0  0  0  0  0  0  0  0
  161.1110  213.1790  150.2670 C   0  0  0  0  0  2  0  0  0  0  0  0
  161.3400  206.9860  147.3580 C   0  0  0  0  0  2  0  0  0  0  0  0
  161.9940  205.9100  146.5140 C   0  0  0  0  0  1  0  0  0  0  0  0
  162.8210  204.7160  152.3930 C   0  0  0  0  0  1  0  0  0  0  0  0
  162.9470  206.1800  152.0200 C   0  0  0  0  0  2  0  0  0  0  0  0
  1 37  1  6  0  0  0
  2  6  1  0  0  0  0
  3 27  1  0  0  0  0
  4 25  1  0  0  0  0
  4 11  1  0  0  0  0
  5  1  1  0  0  0  0
  6  8  1  6  0  0  0
  6 28  1  0  0  0  0
  7  6  1  0  0  0  0
  7 24  1  0  0  0  0
  9 14  1  0  0  0  0
 10 26  1  0  0  0  0
 10  4  1  1  0  0  0
 11  9  1  0  0  0  0
 12 10  1  0  0  0  0
 13 17  2  0  0  0  0
 14 27  1  0  0  0  0
 15  5  1  0  0  0  0
 16 17  1  0  0  0  0
 16 31  1  0  0  0  0
 17  8  1  0  0  0  0
 18 11  2  0  0  0  0
 18 22  1  0  0  0  0
 19 29  1  0  0  0  0
 20 25  1  0  0  0  0
 22 19  1  0  0  0  0
 23 15  1  0  0  0  0
 23 30  1  0  0  0  0
 24 30  1  0  0  0  0
 24 12  1  0  0  0  0
 25 21  2  0  0  0  0
 26 18  1  0  0  0  0
 28 12  1  0  0  0  0
 28 33  1  0  0  0  0
 29  3  1  0  0  0  0
 30 32  1  0  0  0  0
 31  2  1  0  0  0  0
 32  1  1  0  0  0  0
 32 26  1  0  0  0  0
 33 20  1  0  0  0  0
 34 23  1  0  0  0  0
 35 34  1  0  0  0  0
 37 36  1  0  0  0  0
M  END
>  <MODEL>
6

>  <REMARK>
 VINA RESULT:      -2.8      2.466      6.515
  Name = 
  2 active torsions:
  status: ('A' for Active; 'I' for Inactive)
    1  A    between atoms: C_1  and  C_23
    2  A    between atoms: C_11  and  C_26
                            x       y       z     vdW  Elec       q    Type
                         _______ _______ _______ _____ _____    ______ ____

>  <TORSDO>
F 2

$$$$
=
 OpenBabel11062409023D

 37 43  0  0  1  0  0  0  0  0999 V2000
  161.3590  211.4700  151.5130 C   0  0  2  0  0  3  0  0  0  0  0  0
  160.5880  206.4340  146.8860 C   0  0  0  0  0  2  0  0  0  0  0  0
  162.2710  208.6420  156.2700 C   0  0  0  0  0  2  0  0  0  0  0  0
  161.2220  206.8000  152.1410 N   0  0  0  0  0  0  0  0  0  0  0  0
  161.9120  212.3660  150.5690 O   0  0  0  0  0  0  0  0  0  0  0  0
  161.8680  206.7780  147.6800 C   0  0  2  0  0  0  0  0  0  0  0  0
  162.0130  208.2930  147.7170 C   0  0  0  0  0  2  0  0  0  0  0  0
  163.1220  206.1880  147.0250 C   0  0  0  0  0  2  0  0  0  0  0  0
  160.0820  206.9420  154.4490 C   0  0  0  0  0  2  0  0  0  0  0  0
  161.8420  207.7160  151.1970 C   0  0  1  0  0  3  0  0  0  0  0  0
  160.6660  207.5560  153.2110 C   0  0  0  0  0  0  0  0  0  0  0  0
  161.1300  207.5580  149.8650 C   0  0  1  0  0  3  0  0  0  0  0  0
  163.9740  203.9530  146.5450 C   0  0  0  0  0  2  0  0  0  0  0  0
  161.1260  206.8740  155.5560 C   0  0  0  0  0  2  0  0  0  0  0  0
  161.1110  212.3440  149.5110 O   0  0  0  0  0  0  0  0  0  0  0  0
  161.6790  204.4080  145.8630 C   0  0  0  0  0  2  0  0  0  0  0  0
  162.9200  204.7580  146.6230 C   0  0  0  0  0  0  0  0  0  0  0  0
  160.8840  208.8530  153.0580 C   0  0  0  0  0  0  0  0  0  0  0  0
  161.8130  210.5340  154.6610 C   0  0  0  0  0  2  0  0  0  0  0  0
  161.5840  204.6830  150.8650 O   0  0  0  0  0  0  0  0  0  0  0  0
  161.3100  204.6870  153.1360 O   0  0  0  0  0  0  0  0  0  0  0  0
  160.6880  209.7880  154.1210 N   0  0  0  0  0  2  0  0  0  0  0  0
  161.4900  211.2310  148.7310 C   0  0  2  0  0  3  0  0  0  0  0  0
  161.2060  208.7500  148.9230 C   0  0  1  0  0  3  0  0  0  0  0  0
  161.3520  205.3640  152.0750 C   0  0  0  0  0  0  0  0  0  0  0  0
  161.7210  209.1260  151.8380 C   0  0  2  0  0  3  0  0  0  0  0  0
  161.0300  208.0070  156.3680 O   0  0  0  0  0  0  0  0  0  0  0  0
  161.8040  206.4130  149.1660 C   0  0  1  0  0  3  0  0  0  0  0  0
  162.0630  210.1430  156.1130 C   0  0  0  0  0  2  0  0  0  0  0  0
  161.7530  209.9980  149.6090 C   0  0  2  0  0  3  0  0  0  0  0  0
  160.4560  204.9360  146.6020 C   0  0  0  0  0  2  0  0  0  0  0  0
  161.1160  210.1300  150.9370 N   0  0  2  0  0  0  0  0  0  0  0  0
  161.1380  205.1100  149.5740 C   0  0  0  0  0  2  0  0  0  0  0  0
  162.7130  211.5550  147.8850 C   0  0  0  0  0  2  0  0  0  0  0  0
  162.5370  212.8950  147.2010 C   0  0  0  0  0  1  0  0  0  0  0  0
  159.8610  213.4630  151.6370 C   0  0  0  0  0  1  0  0  0  0  0  0
  160.0650  212.0330  152.0950 C   0  0  0  0  0  2  0  0  0  0  0  0
  1 37  1  6  0  0  0
  3 27  1  0  0  0  0
  4 11  1  0  0  0  0
  5  1  1  0  0  0  0
  6  2  1  6  0  0  0
  6  7  1  0  0  0  0
  6 28  1  0  0  0  0
  7 24  1  0  0  0  0
  8  6  1  0  0  0  0
  9 14  1  0  0  0  0
 10 26  1  0  0  0  0
 10  4  1  1  0  0  0
 11  9  1  0  0  0  0
 12 10  1  0  0  0  0
 13 17  2  0  0  0  0
 14 27  1  0  0  0  0
 15  5  1  0  0  0  0
 16 31  1  0  0  0  0
 16 17  1  0  0  0  0
 17  8  1  0  0  0  0
 18 11  2  0  0  0  0
 18 22  1  0  0  0  0
 19 29  1  0  0  0  0
 20 25  1  0  0  0  0
 22 19  1  0  0  0  0
 23 15  1  0  0  0  0
 23 30  1  0  0  0  0
 24 30  1  0  0  0  0
 24 12  1  0  0  0  0
 25  4  1  0  0  0  0
 25 21  2  0  0  0  0
 26 18  1  0  0  0  0
 28 33  1  0  0  0  0
 28 12  1  0  0  0  0
 29  3  1  0  0  0  0
 30 32  1  0  0  0  0
 31  2  1  0  0  0  0
 32  1  1  0  0  0  0
 32 26  1  0  0  0  0
 33 20  1  0  0  0  0
 34 23  1  0  0  0  0
 35 34  1  0  0  0  0
 36 37  1  0  0  0  0
M  END
>  <MODEL>
7

>  <REMARK>
 VINA RESULT:      -2.7      2.758      7.475
  Name = 
  2 active torsions:
  status: ('A' for Active; 'I' for Inactive)
    1  A    between atoms: C_1  and  C_23
    2  A    between atoms: C_11  and  C_26
                            x       y       z     vdW  Elec       q    Type
                         _______ _______ _______ _____ _____    ______ ____

>  <TORSDO>
F 2

$$$$
=
 OpenBabel11062409023D

 37 43  0  0  1  0  0  0  0  0999 V2000
  161.9430  206.7960  147.8860 C   0  0  2  0  0  3  0  0  0  0  0  0
  162.5360  210.3460  153.7520 C   0  0  0  0  0  2  0  0  0  0  0  0
  159.8030  201.9090  149.6150 C   0  0  0  0  0  2  0  0  0  0  0  0
  161.1510  205.4270  152.3260 N   0  0  0  0  0  0  0  0  0  0  0  0
  161.7150  207.9560  147.1090 O   0  0  0  0  0  0  0  0  0  0  0  0
  161.2280  209.8700  153.0820 C   0  0  2  0  0  0  0  0  0  0  0  0
  161.3490  210.0990  151.5820 C   0  0  0  0  0  2  0  0  0  0  0  0
  160.0090  210.6460  153.5930 C   0  0  0  0  0  2  0  0  0  0  0  0
  161.9170  202.9980  151.9260 C   0  0  0  0  0  2  0  0  0  0  0  0
  160.8600  206.6020  151.5200 C   0  0  1  0  0  3  0  0  0  0  0  0
  161.6560  204.4040  151.4740 C   0  0  0  0  0  0  0  0  0  0  0  0
  161.7360  207.7350  152.0260 C   0  0  1  0  0  3  0  0  0  0  0  0
  158.8620  210.9190  155.7290 C   0  0  0  0  0  2  0  0  0  0  0  0
  160.7160  202.1090  151.6330 C   0  0  0  0  0  2  0  0  0  0  0  0
  162.6570  208.8290  147.4450 O   0  0  0  0  0  0  0  0  0  0  0  0
  161.2800  211.2240  155.7500 C   0  0  0  0  0  2  0  0  0  0  0  0
  160.0160  210.7740  155.0870 C   0  0  0  0  0  0  0  0  0  0  0  0
  161.6970  204.7970  150.2110 C   0  0  0  0  0  0  0  0  0  0  0  0
  160.8380  203.6810  148.1430 C   0  0  0  0  0  2  0  0  0  0  0  0
  160.6280  206.3990  154.5670 O   0  0  0  0  0  0  0  0  0  0  0  0
  160.5340  204.1460  154.1820 O   0  0  0  0  0  0  0  0  0  0  0  0
  161.8850  203.8770  149.1330 N   0  0  0  0  0  2  0  0  0  0  0  0
  162.2150  209.4800  148.6150 C   0  0  2  0  0  3  0  0  0  0  0  0
  162.0220  208.8510  151.0320 C   0  0  1  0  0  3  0  0  0  0  0  0
  160.7810  205.2890  153.7150 C   0  0  0  0  0  0  0  0  0  0  0  0
  161.1260  206.1800  150.0490 C   0  0  2  0  0  3  0  0  0  0  0  0
  160.8810  201.4820  150.3960 O   0  0  0  0  0  0  0  0  0  0  0  0
  160.9890  208.3590  153.1690 C   0  0  1  0  0  3  0  0  0  0  0  0
  160.2950  202.2590  148.2170 C   0  0  0  0  0  2  0  0  0  0  0  0
  161.6020  208.4850  149.6120 C   0  0  2  0  0  3  0  0  0  0  0  0
  162.4440  210.3620  155.2790 C   0  0  0  0  0  2  0  0  0  0  0  0
  162.0340  207.0980  149.3300 N   0  0  2  0  0  0  0  0  0  0  0  0
  161.3410  207.6340  154.4580 C   0  0  0  0  0  2  0  0  0  0  0  0
  161.2180  210.5800  148.2790 C   0  0  0  0  0  2  0  0  0  0  0  0
  161.9070  211.9310  148.2850 C   0  0  0  0  0  1  0  0  0  0  0  0
  162.9520  205.3610  146.1090 C   0  0  0  0  0  1  0  0  0  0  0  0
  163.2070  206.0780  147.4200 C   0  0  0  0  0  2  0  0  0  0  0  0
  1 37  1  6  0  0  0
  1 32  1  0  0  0  0
  2 31  1  0  0  0  0
  3 27  1  0  0  0  0
  4 25  1  0  0  0  0
  5 15  1  0  0  0  0
  5  1  1  0  0  0  0
  6  7  1  6  0  0  0
  6 28  1  0  0  0  0
  6  8  1  0  0  0  0
  6  2  1  0  0  0  0
  8 17  1  0  0  0  0
 10 12  1  0  0  0  0
 10  4  1  1  0  0  0
 11  9  1  0  0  0  0
 11  4  1  0  0  0  0
 12 28  1  0  0  0  0
 14  9  1  0  0  0  0
 15 23  1  0  0  0  0
 17 13  2  0  0  0  0
 17 16  1  0  0  0  0
 18 11  2  0  0  0  0
 19 29  1  0  0  0  0
 19 22  1  0  0  0  0
 22 18  1  0  0  0  0
 23 30  1  0  0  0  0
 24  7  1  0  0  0  0
 24 12  1  0  0  0  0
 25 21  2  0  0  0  0
 25 20  1  0  0  0  0
 26 18  1  0  0  0  0
 26 10  1  0  0  0  0
 27 14  1  0  0  0  0
 28 33  1  0  0  0  0
 29  3  1  0  0  0  0
 30 24  1  0  0  0  0
 31 16  1  0  0  0  0
 32 30  1  0  0  0  0
 32 26  1  0  0  0  0
 33 20  1  0  0  0  0
 34 35  1  0  0  0  0
 34 23  1  0  0  0  0
 36 37  1  0  0  0  0
M  END
>  <MODEL>
8

>  <REMARK>
 VINA RESULT:      -2.6      2.958      4.912
  Name = 
  2 active torsions:
  status: ('A' for Active; 'I' for Inactive)
    1  A    between atoms: C_1  and  C_23
    2  A    between atoms: C_11  and  C_26
                            x       y       z     vdW  Elec       q    Type
                         _______ _______ _______ _____ _____    ______ ____

>  <TORSDO>
F 2

$$$$
=
 OpenBabel11062409023D

 37 43  0  0  1  0  0  0  0  0999 V2000
  161.5960  210.7820  148.7670 C   0  0  2  0  0  3  0  0  0  0  0  0
  160.4900  212.5880  155.3150 C   0  0  0  0  0  2  0  0  0  0  0  0
  161.2430  205.1880  148.9560 C   0  0  0  0  0  2  0  0  0  0  0  0
  161.0590  208.0730  152.5870 N   0  0  0  0  0  0  0  0  0  0  0  0
  161.0180  211.9670  148.2550 O   0  0  0  0  0  0  0  0  0  0  0  0
  159.4870  211.9090  154.3560 C   0  0  2  0  0  0  0  0  0  0  0  0
  159.6160  212.5650  152.9890 C   0  0  0  0  0  2  0  0  0  0  0  0
  158.0400  212.0710  154.8360 C   0  0  0  0  0  2  0  0  0  0  0  0
  162.6700  206.2380  151.7590 C   0  0  0  0  0  2  0  0  0  0  0  0
  160.4190  209.2590  152.0410 C   0  0  1  0  0  3  0  0  0  0  0  0
  161.9510  207.5470  151.6110 C   0  0  0  0  0  0  0  0  0  0  0  0
  160.7950  210.4350  152.9270 C   0  0  1  0  0  3  0  0  0  0  0  0
  156.7350  211.3590  156.7700 C   0  0  0  0  0  2  0  0  0  0  0  0
  161.8890  205.1190  151.0840 C   0  0  0  0  0  2  0  0  0  0  0  0
  161.5600  212.9740  148.9280 O   0  0  0  0  0  0  0  0  0  0  0  0
  158.8760  212.4240  157.2400 C   0  0  0  0  0  2  0  0  0  0  0  0
  157.9040  211.7810  156.3010 C   0  0  0  0  0  0  0  0  0  0  0  0
  161.9320  208.2600  150.4960 C   0  0  0  0  0  0  0  0  0  0  0  0
  161.6670  207.5320  148.1180 C   0  0  0  0  0  2  0  0  0  0  0  0
  160.0760  208.1700  154.8820 O   0  0  0  0  0  0  0  0  0  0  0  0
  160.8220  206.2070  153.9740 O   0  0  0  0  0  0  0  0  0  0  0  0
  162.5070  207.7830  149.2780 N   0  0  0  0  0  2  0  0  0  0  0  0
  160.8390  213.0990  150.1340 C   0  0  2  0  0  3  0  0  0  0  0  0
  160.7260  211.8080  152.2760 C   0  0  1  0  0  3  0  0  0  0  0  0
  160.6730  207.4490  153.8300 C   0  0  0  0  0  0  0  0  0  0  0  0
  160.9140  209.3660  150.5730 C   0  0  2  0  0  3  0  0  0  0  0  0
  162.3480  204.9440  149.7760 O   0  0  0  0  0  0  0  0  0  0  0  0
  159.8010  210.4410  154.0520 C   0  0  1  0  0  3  0  0  0  0  0  0
  161.6670  206.0470  147.7730 C   0  0  0  0  0  2  0  0  0  0  0  0
  160.5600  211.7260  150.7620 C   0  0  2  0  0  3  0  0  0  0  0  0
  160.2990  212.1560  156.7710 C   0  0  0  0  0  2  0  0  0  0  0  0
  161.4780  210.6910  150.2380 N   0  0  2  0  0  0  0  0  0  0  0  0
  160.3040  209.5500  155.1760 C   0  0  0  0  0  2  0  0  0  0  0  0
  159.5380  213.8570  149.9100 C   0  0  0  0  0  2  0  0  0  0  0  0
  158.3810  212.8860  149.7850 C   0  0  0  0  0  1  0  0  0  0  0  0
  163.5510  212.0030  147.8070 C   0  0  0  0  0  1  0  0  0  0  0  0
  163.0610  210.6760  148.3520 C   0  0  0  0  0  2  0  0  0  0  0  0
  1 37  1  1  0  0  0
  1 32  1  0  0  0  0
  2 31  1  0  0  0  0
  3 27  1  0  0  0  0
  4 25  1  0  0  0  0
  5  1  1  0  0  0  0
  5 15  1  0  0  0  0
  6  7  1  6  0  0  0
  6  8  1  0  0  0  0
  6  2  1  0  0  0  0
  8 17  1  0  0  0  0
 10  4  1  1  0  0  0
 10 12  1  0  0  0  0
 11  9  1  0  0  0  0
 11  4  1  0  0  0  0
 12 28  1  0  0  0  0
 14  9  1  0  0  0  0
 15 23  1  0  0  0  0
 17 13  2  0  0  0  0
 17 16  1  0  0  0  0
 18 26  1  0  0  0  0
 18 11  2  0  0  0  0
 19 22  1  0  0  0  0
 20 33  1  0  0  0  0
 22 18  1  0  0  0  0
 23 30  1  0  0  0  0
 24 12  1  0  0  0  0
 24  7  1  0  0  0  0
 25 21  2  0  0  0  0
 25 20  1  0  0  0  0
 26 10  1  0  0  0  0
 27 14  1  0  0  0  0
 28  6  1  0  0  0  0
 28 33  1  0  0  0  0
 29 19  1  0  0  0  0
 29  3  1  0  0  0  0
 30 24  1  0  0  0  0
 31 16  1  0  0  0  0
 32 26  1  0  0  0  0
 32 30  1  0  0  0  0
 34 23  1  0  0  0  0
 35 34  1  0  0  0  0
 36 37  1  0  0  0  0
M  END
>  <MODEL>
9

>  <REMARK>
 VINA RESULT:      -2.3      1.499      1.891
  Name = 
  2 active torsions:
  status: ('A' for Active; 'I' for Inactive)
    1  A    between atoms: C_1  and  C_23
    2  A    between atoms: C_11  and  C_26
                            x       y       z     vdW  Elec       q    Type
                         _______ _______ _______ _____ _____    ______ ____

>  <TORSDO>
F 2

$$$$
