=
 OpenBabel11052423163D

 27 29  0  0  1  0  0  0  0  0999 V2000
  161.6700  206.0520  148.7830 C   0  0  2  0  0  3  0  0  0  0  0  0
  161.4020  205.4550  144.5300 C   0  0  0  0  0  3  0  0  0  0  0  0
  161.5980  205.8410  147.3000 C   0  0  0  0  0  0  0  0  0  0  0  0
  162.6280  205.1900  146.6020 C   0  0  0  0  0  3  0  0  0  0  0  0
  162.5310  205.0030  145.2200 C   0  0  0  0  0  3  0  0  0  0  0  0
  160.3710  206.0960  145.2230 C   0  0  0  0  0  3  0  0  0  0  0  0
  160.4700  206.2890  146.6050 C   0  0  0  0  0  3  0  0  0  0  0  0
  160.5590  205.3380  149.5700 C   0  0  0  0  0  2  0  0  0  0  0  0
  161.1710  201.8720  151.0490 C   0  0  0  0  0  3  0  0  0  0  0  0
  161.1500  201.0850  149.8950 C   0  0  0  0  0  3  0  0  0  0  0  0
  160.7590  203.8560  149.7080 C   0  0  0  0  0  0  0  0  0  0  0  0
  161.0420  204.0610  152.2170 C   0  0  0  0  0  1  0  0  0  0  0  0
  160.9420  201.6780  148.6480 C   0  0  0  0  0  3  0  0  0  0  0  0
  160.7520  203.0600  148.5550 C   0  0  0  0  0  3  0  0  0  0  0  0
  160.9790  203.2550  150.9640 C   0  0  0  0  0  0  0  0  0  0  0  0
  161.7550  207.4670  149.1100 N   0  0  0  0  0  2  0  0  0  0  0  0
  162.2490  207.5500  150.4770 C   0  0  0  0  0  2  0  0  0  0  0  0
  161.1000  208.4970  153.7180 C   0  0  0  0  0  0  0  0  0  0  0  0
  160.9970  209.1700  155.9950 O   0  0  0  0  0  1  0  0  0  0  0  0
  161.5930  209.7380  153.2420 N   0  0  0  0  0  0  0  0  0  0  0  0
  162.1140  210.7070  154.0310 O   0  0  0  0  0  1  0  0  0  0  0  0
  161.8520  209.6660  151.8170 C   0  0  1  0  0  3  0  0  0  0  0  0
  160.8200  208.2270  154.9910 C   0  0  0  0  0  3  0  0  0  0  0  0
  161.2780  208.3110  151.3700 C   0  0  2  0  0  3  0  0  0  0  0  0
  160.9170  207.5120  152.6300 C   0  0  0  0  0  2  0  0  0  0  0  0
  162.1110  211.0250  149.7630 S   0  0  0  0  0  1  0  0  0  0  0  0
  161.1720  210.6950  151.1650 O   0  0  0  0  0  0  0  0  0  0  0  0
  1 16  1  0  0  0  0
  1  8  1  1  0  0  0
  2  5  2  0  0  0  0
  2  6  1  0  0  0  0
  3  1  1  0  0  0  0
  4  3  2  0  0  0  0
  5  4  1  0  0  0  0
  6  7  2  0  0  0  0
  7  3  1  0  0  0  0
  8 11  1  0  0  0  0
 10  9  2  0  0  0  0
 11 15  2  0  0  0  0
 13 10  1  0  0  0  0
 14 13  2  0  0  0  0
 14 11  1  0  0  0  0
 15  9  1  0  0  0  0
 15 12  1  0  0  0  0
 16 17  1  0  0  0  0
 18 23  2  0  0  0  0
 20 18  1  0  0  0  0
 20 21  1  0  0  0  0
 22 27  1  6  0  0  0
 22 20  1  0  0  0  0
 23 19  1  0  0  0  0
 24 17  1  1  0  0  0
 24 22  1  0  0  0  0
 24 25  1  0  0  0  0
 25 18  1  0  0  0  0
 26 27  1  0  0  0  0
M  END
>  <MODEL>
1

>  <REMARK>
 VINA RESULT:      -9.2      0.000      0.000
  Name = 
  7 active torsions:
  status: ('A' for Active; 'I' for Inactive)
    1  A    between atoms: C_1  and  C_15
    2  A    between atoms: C_1  and  C_18
    3  A    between atoms: N_2  and  C_6
    4  A    between atoms: N_2  and  C_15
    5  A    between atoms: C_6  and  C_17
    6  A    between atoms: C_9  and  C_15
    7  A    between atoms: C_14  and  O_19
                            x       y       z     vdW  Elec       q    Type
                         _______ _______ _______ _____ _____    ______ ____

>  <TORSDO>
F 7

$$$$
=
 OpenBabel11052423163D

 27 29  0  0  1  0  0  0  0  0999 V2000
  161.7000  206.3490  148.6960 C   0  0  2  0  0  3  0  0  0  0  0  0
  161.4180  205.2260  144.5510 C   0  0  0  0  0  3  0  0  0  0  0  0
  161.6230  205.9530  147.2520 C   0  0  0  0  0  0  0  0  0  0  0  0
  162.6120  205.1530  146.6570 C   0  0  0  0  0  3  0  0  0  0  0  0
  162.5110  204.7960  145.3090 C   0  0  0  0  0  3  0  0  0  0  0  0
  160.4260  206.0150  145.1420 C   0  0  0  0  0  3  0  0  0  0  0  0
  160.5300  206.3790  146.4890 C   0  0  0  0  0  3  0  0  0  0  0  0
  160.5670  205.7750  149.5620 C   0  0  0  0  0  2  0  0  0  0  0  0
  161.3350  202.6930  151.6810 C   0  0  0  0  0  3  0  0  0  0  0  0
  161.1990  201.6780  150.7290 C   0  0  0  0  0  3  0  0  0  0  0  0
  160.7840  204.3520  149.9940 C   0  0  0  0  0  0  0  0  0  0  0  0
  161.3180  205.0830  152.3590 C   0  0  0  0  0  1  0  0  0  0  0  0
  160.8640  201.9960  149.4110 C   0  0  0  0  0  3  0  0  0  0  0  0
  160.6620  203.3290  149.0450 C   0  0  0  0  0  3  0  0  0  0  0  0
  161.1320  204.0290  151.3210 C   0  0  0  0  0  0  0  0  0  0  0  0
  161.8280  207.7900  148.8400 N   0  0  0  0  0  2  0  0  0  0  0  0
  161.7520  208.0740  150.2670 C   0  0  0  0  0  2  0  0  0  0  0  0
  161.4750  211.5970  149.7840 C   0  0  0  0  0  0  0  0  0  0  0  0
  160.6330  213.7970  149.4710 O   0  0  0  0  0  1  0  0  0  0  0  0
  161.0280  211.4800  151.1250 N   0  0  0  0  0  0  0  0  0  0  0  0
  160.1240  212.3050  151.7040 O   0  0  0  0  0  1  0  0  0  0  0  0
  161.3290  210.1610  151.6440 C   0  0  1  0  0  3  0  0  0  0  0  0
  161.2970  212.6670  149.0130 C   0  0  0  0  0  3  0  0  0  0  0  0
  162.2080  209.4950  150.5730 C   0  0  2  0  0  3  0  0  0  0  0  0
  162.1820  210.3830  149.3220 C   0  0  0  0  0  2  0  0  0  0  0  0
  161.0490  209.5730  154.0340 S   0  0  0  0  0  1  0  0  0  0  0  0
  162.0540  210.2790  152.8310 O   0  0  0  0  0  0  0  0  0  0  0  0
  1 16  1  0  0  0  0
  1  8  1  1  0  0  0
  2  6  2  0  0  0  0
  2  5  1  0  0  0  0
  3  1  1  0  0  0  0
  4  3  1  0  0  0  0
  5  4  2  0  0  0  0
  6  7  1  0  0  0  0
  7  3  2  0  0  0  0
  8 11  1  0  0  0  0
 10  9  2  0  0  0  0
 11 15  2  0  0  0  0
 13 10  1  0  0  0  0
 14 13  2  0  0  0  0
 14 11  1  0  0  0  0
 15  9  1  0  0  0  0
 15 12  1  0  0  0  0
 16 17  1  0  0  0  0
 18 20  1  0  0  0  0
 20 22  1  0  0  0  0
 20 21  1  0  0  0  0
 22 27  1  1  0  0  0
 23 19  1  0  0  0  0
 23 18  2  0  0  0  0
 24 17  1  6  0  0  0
 24 22  1  0  0  0  0
 25 18  1  0  0  0  0
 25 24  1  0  0  0  0
 27 26  1  0  0  0  0
M  END
>  <MODEL>
2

>  <REMARK>
 VINA RESULT:      -8.6      1.800      2.860
  Name = 
  7 active torsions:
  status: ('A' for Active; 'I' for Inactive)
    1  A    between atoms: C_1  and  C_15
    2  A    between atoms: C_1  and  C_18
    3  A    between atoms: N_2  and  C_6
    4  A    between atoms: N_2  and  C_15
    5  A    between atoms: C_6  and  C_17
    6  A    between atoms: C_9  and  C_15
    7  A    between atoms: C_14  and  O_19
                            x       y       z     vdW  Elec       q    Type
                         _______ _______ _______ _____ _____    ______ ____

>  <TORSDO>
F 7

$$$$
=
 OpenBabel11052423163D

 27 29  0  0  1  0  0  0  0  0999 V2000
  161.5680  206.2100  149.6120 C   0  0  2  0  0  3  0  0  0  0  0  0
  160.8600  202.0870  150.6180 C   0  0  0  0  0  3  0  0  0  0  0  0
  161.3100  204.7710  149.9440 C   0  0  0  0  0  0  0  0  0  0  0  0
  160.9000  203.8550  148.9630 C   0  0  0  0  0  3  0  0  0  0  0  0
  160.6700  202.5180  149.3020 C   0  0  0  0  0  3  0  0  0  0  0  0
  161.2780  202.9940  151.5960 C   0  0  0  0  0  3  0  0  0  0  0  0
  161.5000  204.3340  151.2600 C   0  0  0  0  0  3  0  0  0  0  0  0
  162.4720  206.4150  148.3860 C   0  0  0  0  0  2  0  0  0  0  0  0
  161.8650  204.7620  144.9990 C   0  0  0  0  0  3  0  0  0  0  0  0
  160.6270  205.3130  144.6550 C   0  0  0  0  0  3  0  0  0  0  0  0
  161.8440  206.0100  147.0830 C   0  0  0  0  0  0  0  0  0  0  0  0
  163.8140  204.5200  146.5200 C   0  0  0  0  0  1  0  0  0  0  0  0
  160.0000  206.2160  145.5150 C   0  0  0  0  0  3  0  0  0  0  0  0
  160.6090  206.5660  146.7240 C   0  0  0  0  0  3  0  0  0  0  0  0
  162.4790  205.1060  146.2070 C   0  0  0  0  0  0  0  0  0  0  0  0
  162.0430  206.9420  150.7760 N   0  0  0  0  0  2  0  0  0  0  0  0
  161.3450  208.2210  150.7770 C   0  0  0  0  0  2  0  0  0  0  0  0
  161.1550  208.2500  154.3380 C   0  0  0  0  0  0  0  0  0  0  0  0
  161.6320  208.5650  156.6450 O   0  0  0  0  0  1  0  0  0  0  0  0
  160.9840  209.6290  154.0550 N   0  0  0  0  0  0  0  0  0  0  0  0
  161.3760  210.6320  154.8760 O   0  0  0  0  0  1  0  0  0  0  0  0
  160.7330  209.8270  152.6420 C   0  0  1  0  0  3  0  0  0  0  0  0
  161.4540  207.7500  155.5360 C   0  0  0  0  0  3  0  0  0  0  0  0
  160.5500  208.4150  152.0610 C   0  0  2  0  0  3  0  0  0  0  0  0
  160.9580  207.4040  153.1420 C   0  0  0  0  0  2  0  0  0  0  0  0
  160.0700  212.1380  152.0510 S   0  0  0  0  0  1  0  0  0  0  0  0
  159.5540  210.5540  152.4720 O   0  0  0  0  0  0  0  0  0  0  0  0
  1  8  1  6  0  0  0
  1  3  1  0  0  0  0
  1 16  1  0  0  0  0
  2  6  1  0  0  0  0
  3  7  1  0  0  0  0
  4  5  1  0  0  0  0
  4  3  2  0  0  0  0
  5  2  2  0  0  0  0
  7  6  2  0  0  0  0
  9 15  1  0  0  0  0
 10  9  2  0  0  0  0
 10 13  1  0  0  0  0
 11  8  1  0  0  0  0
 13 14  2  0  0  0  0
 14 11  1  0  0  0  0
 15 12  1  0  0  0  0
 15 11  2  0  0  0  0
 16 17  1  0  0  0  0
 18 23  2  0  0  0  0
 20 18  1  0  0  0  0
 20 21  1  0  0  0  0
 22 27  1  1  0  0  0
 22 20  1  0  0  0  0
 23 19  1  0  0  0  0
 24 17  1  6  0  0  0
 24 22  1  0  0  0  0
 24 25  1  0  0  0  0
 25 18  1  0  0  0  0
 26 27  1  0  0  0  0
M  END
>  <MODEL>
3

>  <REMARK>
 VINA RESULT:      -8.4      1.163      3.968
  Name = 
  7 active torsions:
  status: ('A' for Active; 'I' for Inactive)
    1  A    between atoms: C_1  and  C_15
    2  A    between atoms: C_1  and  C_18
    3  A    between atoms: N_2  and  C_6
    4  A    between atoms: N_2  and  C_15
    5  A    between atoms: C_6  and  C_17
    6  A    between atoms: C_9  and  C_15
    7  A    between atoms: C_14  and  O_19
                            x       y       z     vdW  Elec       q    Type
                         _______ _______ _______ _____ _____    ______ ____

>  <TORSDO>
F 7

$$$$
=
 OpenBabel11052423163D

 27 29  0  0  1  0  0  0  0  0999 V2000
  161.7220  205.9480  148.9210 C   0  0  2  0  0  3  0  0  0  0  0  0
  161.4320  205.7000  144.6350 C   0  0  0  0  0  3  0  0  0  0  0  0
  161.6420  205.8590  147.4270 C   0  0  0  0  0  0  0  0  0  0  0  0
  162.6990  205.3340  146.6660 C   0  0  0  0  0  3  0  0  0  0  0  0
  162.5950  205.2600  145.2740 C   0  0  0  0  0  3  0  0  0  0  0  0
  160.3730  206.2160  145.3900 C   0  0  0  0  0  3  0  0  0  0  0  0
  160.4800  206.2970  146.7820 C   0  0  0  0  0  3  0  0  0  0  0  0
  160.5770  205.2270  149.6510 C   0  0  0  0  0  2  0  0  0  0  0  0
  161.1690  201.7470  151.1040 C   0  0  0  0  0  3  0  0  0  0  0  0
  161.1390  200.9680  149.9440 C   0  0  0  0  0  3  0  0  0  0  0  0
  160.7670  203.7420  149.7780 C   0  0  0  0  0  0  0  0  0  0  0  0
  161.0570  203.9280  152.2870 C   0  0  0  0  0  1  0  0  0  0  0  0
  160.9320  201.5720  148.7020 C   0  0  0  0  0  3  0  0  0  0  0  0
  160.7510  202.9550  148.6200 C   0  0  0  0  0  3  0  0  0  0  0  0
  160.9860  203.1310  151.0290 C   0  0  0  0  0  0  0  0  0  0  0  0
  161.8730  207.3270  149.3600 N   0  0  0  0  0  2  0  0  0  0  0  0
  160.9810  207.5020  150.4980 C   0  0  0  0  0  2  0  0  0  0  0  0
  160.7600  210.7270  152.0020 C   0  0  0  0  0  0  0  0  0  0  0  0
  159.9560  212.7250  153.0090 O   0  0  0  0  0  1  0  0  0  0  0  0
  160.4670  209.8990  153.1150 N   0  0  0  0  0  0  0  0  0  0  0  0
  159.6610  210.2570  154.1430 O   0  0  0  0  0  1  0  0  0  0  0  0
  160.7840  208.5180  152.8130 C   0  0  1  0  0  3  0  0  0  0  0  0
  160.5290  212.0380  151.9460 C   0  0  0  0  0  3  0  0  0  0  0  0
  161.5130  208.5560  151.4600 C   0  0  2  0  0  3  0  0  0  0  0  0
  161.3710  209.9730  150.8870 C   0  0  0  0  0  2  0  0  0  0  0  0
  160.6680  206.9570  154.7320 S   0  0  0  0  0  1  0  0  0  0  0  0
  161.6440  208.0100  153.7890 O   0  0  0  0  0  0  0  0  0  0  0  0
  1 16  1  0  0  0  0
  1  8  1  1  0  0  0
  2  5  2  0  0  0  0
  2  6  1  0  0  0  0
  3  1  1  0  0  0  0
  4  3  2  0  0  0  0
  5  4  1  0  0  0  0
  6  7  2  0  0  0  0
  7  3  1  0  0  0  0
  8 11  1  0  0  0  0
 10  9  2  0  0  0  0
 11 15  2  0  0  0  0
 13 10  1  0  0  0  0
 14 13  2  0  0  0  0
 14 11  1  0  0  0  0
 15  9  1  0  0  0  0
 15 12  1  0  0  0  0
 16 17  1  0  0  0  0
 18 20  1  0  0  0  0
 20 21  1  0  0  0  0
 22 20  1  0  0  0  0
 22 27  1  1  0  0  0
 23 18  2  0  0  0  0
 23 19  1  0  0  0  0
 24 17  1  6  0  0  0
 24 22  1  0  0  0  0
 25 24  1  0  0  0  0
 25 18  1  0  0  0  0
 27 26  1  0  0  0  0
M  END
>  <MODEL>
4

>  <REMARK>
 VINA RESULT:      -8.3      1.727      2.234
  Name = 
  7 active torsions:
  status: ('A' for Active; 'I' for Inactive)
    1  A    between atoms: C_1  and  C_15
    2  A    between atoms: C_1  and  C_18
    3  A    between atoms: N_2  and  C_6
    4  A    between atoms: N_2  and  C_15
    5  A    between atoms: C_6  and  C_17
    6  A    between atoms: C_9  and  C_15
    7  A    between atoms: C_14  and  O_19
                            x       y       z     vdW  Elec       q    Type
                         _______ _______ _______ _____ _____    ______ ____

>  <TORSDO>
F 7

$$$$
=
 OpenBabel11052423163D

 27 29  0  0  1  0  0  0  0  0999 V2000
  161.9930  206.4030  148.3700 C   0  0  2  0  0  3  0  0  0  0  0  0
  161.3660  204.7910  144.4290 C   0  0  0  0  0  3  0  0  0  0  0  0
  161.7950  205.8340  146.9970 C   0  0  0  0  0  0  0  0  0  0  0  0
  162.6470  204.8430  146.4840 C   0  0  0  0  0  3  0  0  0  0  0  0
  162.4360  204.3280  145.2020 C   0  0  0  0  0  3  0  0  0  0  0  0
  160.5100  205.7720  144.9400 C   0  0  0  0  0  3  0  0  0  0  0  0
  160.7250  206.2930  146.2200 C   0  0  0  0  0  3  0  0  0  0  0  0
  160.7250  206.3900  149.2400 C   0  0  0  0  0  2  0  0  0  0  0  0
  161.0300  203.7500  151.9820 C   0  0  0  0  0  3  0  0  0  0  0  0
  161.2200  204.5590  153.1060 C   0  0  0  0  0  3  0  0  0  0  0  0
  160.9040  205.7290  150.5770 C   0  0  0  0  0  0  0  0  0  0  0  0
  160.6380  203.4290  149.5490 C   0  0  0  0  0  1  0  0  0  0  0  0
  161.2440  205.9480  152.9720 C   0  0  0  0  0  3  0  0  0  0  0  0
  161.0820  206.5310  151.7120 C   0  0  0  0  0  3  0  0  0  0  0  0
  160.8700  204.3260  150.7170 C   0  0  0  0  0  0  0  0  0  0  0  0
  162.6060  207.7210  148.3100 N   0  0  0  0  0  2  0  0  0  0  0  0
  161.5790  208.6760  148.7040 C   0  0  0  0  0  2  0  0  0  0  0  0
  161.5310  212.2120  149.1620 C   0  0  0  0  0  0  0  0  0  0  0  0
  160.8400  214.4530  149.5520 O   0  0  0  0  0  1  0  0  0  0  0  0
  161.2900  211.7730  150.4880 N   0  0  0  0  0  0  0  0  0  0  0  0
  160.5600  212.4590  151.4000 O   0  0  0  0  0  1  0  0  0  0  0  0
  161.5550  210.3530  150.6060 C   0  0  1  0  0  3  0  0  0  0  0  0
  161.3270  213.4530  148.7210 C   0  0  0  0  0  3  0  0  0  0  0  0
  162.1960  209.9490  149.2690 C   0  0  2  0  0  3  0  0  0  0  0  0
  162.0510  211.1300  148.2990 C   0  0  0  0  0  2  0  0  0  0  0  0
  161.4890  209.8650  153.0330 S   0  0  0  0  0  1  0  0  0  0  0  0
  162.4630  210.1300  151.6420 O   0  0  0  0  0  0  0  0  0  0  0  0
  1  8  1  6  0  0  0
  2  6  2  0  0  0  0
  2  5  1  0  0  0  0
  3  1  1  0  0  0  0
  4  3  1  0  0  0  0
  5  4  2  0  0  0  0
  6  7  1  0  0  0  0
  7  3  2  0  0  0  0
  8 11  1  0  0  0  0
  9 10  1  0  0  0  0
 11 15  1  0  0  0  0
 11 14  2  0  0  0  0
 12 15  1  0  0  0  0
 13 10  2  0  0  0  0
 14 13  1  0  0  0  0
 15  9  2  0  0  0  0
 16  1  1  0  0  0  0
 16 17  1  0  0  0  0
 18 20  1  0  0  0  0
 20 22  1  0  0  0  0
 20 21  1  0  0  0  0
 22 27  1  1  0  0  0
 23 18  2  0  0  0  0
 23 19  1  0  0  0  0
 24 17  1  6  0  0  0
 24 22  1  0  0  0  0
 25 18  1  0  0  0  0
 25 24  1  0  0  0  0
 27 26  1  0  0  0  0
M  END
>  <MODEL>
5

>  <REMARK>
 VINA RESULT:      -8.1      2.159      3.660
  Name = 
  7 active torsions:
  status: ('A' for Active; 'I' for Inactive)
    1  A    between atoms: C_1  and  C_15
    2  A    between atoms: C_1  and  C_18
    3  A    between atoms: N_2  and  C_6
    4  A    between atoms: N_2  and  C_15
    5  A    between atoms: C_6  and  C_17
    6  A    between atoms: C_9  and  C_15
    7  A    between atoms: C_14  and  O_19
                            x       y       z     vdW  Elec       q    Type
                         _______ _______ _______ _____ _____    ______ ____

>  <TORSDO>
F 7

$$$$
=
 OpenBabel11052423163D

 27 29  0  0  1  0  0  0  0  0999 V2000
  160.9020  206.0910  149.4420 C   0  0  2  0  0  3  0  0  0  0  0  0
  161.0750  202.0650  150.9490 C   0  0  0  0  0  3  0  0  0  0  0  0
  160.9530  204.6810  149.9480 C   0  0  0  0  0  0  0  0  0  0  0  0
  160.8310  203.5850  149.0790 C   0  0  0  0  0  3  0  0  0  0  0  0
  160.8860  202.2810  149.5810 C   0  0  0  0  0  3  0  0  0  0  0  0
  161.2070  203.1530  151.8160 C   0  0  0  0  0  3  0  0  0  0  0  0
  161.1440  204.4580  151.3170 C   0  0  0  0  0  3  0  0  0  0  0  0
  161.9880  206.4220  148.4050 C   0  0  0  0  0  2  0  0  0  0  0  0
  162.1080  204.8930  144.9080 C   0  0  0  0  0  3  0  0  0  0  0  0
  160.9150  205.3820  144.3660 C   0  0  0  0  0  3  0  0  0  0  0  0
  161.6300  206.0390  146.9970 C   0  0  0  0  0  0  0  0  0  0  0  0
  163.7670  204.7030  146.7470 C   0  0  0  0  0  1  0  0  0  0  0  0
  160.0840  206.2030  145.1300 C   0  0  0  0  0  3  0  0  0  0  0  0
  160.4430  206.5330  146.4400 C   0  0  0  0  0  3  0  0  0  0  0  0
  162.4720  205.2190  146.2180 C   0  0  0  0  0  0  0  0  0  0  0  0
  160.8800  207.0450  150.5400 N   0  0  0  0  0  2  0  0  0  0  0  0
  162.0840  207.8540  150.4120 C   0  0  0  0  0  2  0  0  0  0  0  0
  160.8890  210.9360  151.7510 C   0  0  0  0  0  0  0  0  0  0  0  0
  159.4970  212.7270  152.4630 O   0  0  0  0  0  1  0  0  0  0  0  0
  160.4440  210.0280  152.7450 N   0  0  0  0  0  0  0  0  0  0  0  0
  159.3320  210.2030  153.4980 O   0  0  0  0  0  1  0  0  0  0  0  0
  161.0700  208.7340  152.5630 C   0  0  1  0  0  3  0  0  0  0  0  0
  160.4560  212.1880  151.6150 C   0  0  0  0  0  3  0  0  0  0  0  0
  162.1310  208.9470  151.4720 C   0  0  2  0  0  3  0  0  0  0  0  0
  161.9100  210.3400  150.8640 C   0  0  0  0  0  2  0  0  0  0  0  0
  160.8300  206.9540  154.2690 S   0  0  0  0  0  1  0  0  0  0  0  0
  161.6950  208.3450  153.7490 O   0  0  0  0  0  0  0  0  0  0  0  0
  1  8  1  6  0  0  0
  1  3  1  0  0  0  0
  1 16  1  0  0  0  0
  2  6  1  0  0  0  0
  3  7  1  0  0  0  0
  4  5  1  0  0  0  0
  4  3  2  0  0  0  0
  5  2  2  0  0  0  0
  7  6  2  0  0  0  0
  9 15  1  0  0  0  0
 10  9  2  0  0  0  0
 10 13  1  0  0  0  0
 11  8  1  0  0  0  0
 13 14  2  0  0  0  0
 14 11  1  0  0  0  0
 15 12  1  0  0  0  0
 15 11  2  0  0  0  0
 17 16  1  0  0  0  0
 18 20  1  0  0  0  0
 20 21  1  0  0  0  0
 22 20  1  0  0  0  0
 22 27  1  1  0  0  0
 23 18  2  0  0  0  0
 23 19  1  0  0  0  0
 24 17  1  6  0  0  0
 24 22  1  0  0  0  0
 25 24  1  0  0  0  0
 25 18  1  0  0  0  0
 27 26  1  0  0  0  0
M  END
>  <MODEL>
6

>  <REMARK>
 VINA RESULT:      -8.0      1.809      4.542
  Name = 
  7 active torsions:
  status: ('A' for Active; 'I' for Inactive)
    1  A    between atoms: C_1  and  C_15
    2  A    between atoms: C_1  and  C_18
    3  A    between atoms: N_2  and  C_6
    4  A    between atoms: N_2  and  C_15
    5  A    between atoms: C_6  and  C_17
    6  A    between atoms: C_9  and  C_15
    7  A    between atoms: C_14  and  O_19
                            x       y       z     vdW  Elec       q    Type
                         _______ _______ _______ _____ _____    ______ ____

>  <TORSDO>
F 7

$$$$
=
 OpenBabel11052423163D

 27 29  0  0  1  0  0  0  0  0999 V2000
  161.4980  209.3920  151.2510 C   0  0  2  0  0  3  0  0  0  0  0  0
  159.5490  210.2720  154.9850 C   0  0  0  0  0  3  0  0  0  0  0  0
  160.8230  209.6780  152.5590 C   0  0  0  0  0  0  0  0  0  0  0  0
  161.0120  208.8520  153.6780 C   0  0  0  0  0  3  0  0  0  0  0  0
  160.3720  209.1460  154.8860 C   0  0  0  0  0  3  0  0  0  0  0  0
  159.3650  211.1030  153.8760 C   0  0  0  0  0  3  0  0  0  0  0  0
  160.0000  210.8050  152.6650 C   0  0  0  0  0  3  0  0  0  0  0  0
  162.3380  208.1050  151.2510 C   0  0  0  0  0  2  0  0  0  0  0  0
  160.8380  204.8060  150.0470 C   0  0  0  0  0  3  0  0  0  0  0  0
  160.8190  205.0150  148.6650 C   0  0  0  0  0  3  0  0  0  0  0  0
  161.7960  207.0160  150.3690 C   0  0  0  0  0  0  0  0  0  0  0  0
  161.3590  205.5240  152.3690 C   0  0  0  0  0  1  0  0  0  0  0  0
  161.2930  206.2150  148.1320 C   0  0  0  0  0  3  0  0  0  0  0  0
  161.7840  207.2100  148.9820 C   0  0  0  0  0  3  0  0  0  0  0  0
  161.3260  205.7990  150.9040 C   0  0  0  0  0  0  0  0  0  0  0  0
  162.2550  210.5440  150.7860 N   0  0  0  0  0  2  0  0  0  0  0  0
  161.9090  210.7300  149.3830 C   0  0  0  0  0  2  0  0  0  0  0  0
  162.2690  213.1510  146.7900 C   0  0  0  0  0  0  0  0  0  0  0  0
  161.9780  214.4330  144.8090 O   0  0  0  0  0  1  0  0  0  0  0  0
  161.0800  213.6090  147.4120 N   0  0  0  0  0  0  0  0  0  0  0  0
  160.0800  214.2560  146.7680 O   0  0  0  0  0  1  0  0  0  0  0  0
  160.8900  212.9450  148.6860 C   0  0  1  0  0  3  0  0  0  0  0  0
  162.6920  213.5290  145.5850 C   0  0  0  0  0  3  0  0  0  0  0  0
  162.1870  212.1570  148.9300 C   0  0  2  0  0  3  0  0  0  0  0  0
  163.0120  212.1930  147.6360 C   0  0  0  0  0  2  0  0  0  0  0  0
  159.1230  213.6780  150.2590 S   0  0  0  0  0  1  0  0  0  0  0  0
  160.7300  213.8990  149.6930 O   0  0  0  0  0  0  0  0  0  0  0  0
  1  8  1  1  0  0  0
  1  3  1  0  0  0  0
  3  7  2  0  0  0  0
  3  4  1  0  0  0  0
  4  5  2  0  0  0  0
  5  2  1  0  0  0  0
  6  2  2  0  0  0  0
  7  6  1  0  0  0  0
  9 15  1  0  0  0  0
 10  9  2  0  0  0  0
 11 15  2  0  0  0  0
 11  8  1  0  0  0  0
 13 10  1  0  0  0  0
 13 14  2  0  0  0  0
 14 11  1  0  0  0  0
 15 12  1  0  0  0  0
 16  1  1  0  0  0  0
 17 16  1  0  0  0  0
 18 20  1  0  0  0  0
 18 25  1  0  0  0  0
 19 23  1  0  0  0  0
 20 22  1  0  0  0  0
 21 20  1  0  0  0  0
 22 24  1  0  0  0  0
 22 27  1  1  0  0  0
 23 18  2  0  0  0  0
 24 17  1  6  0  0  0
 25 24  1  0  0  0  0
 27 26  1  0  0  0  0
M  END
>  <MODEL>
7

>  <REMARK>
 VINA RESULT:      -7.1      3.651      6.795
  Name = 
  7 active torsions:
  status: ('A' for Active; 'I' for Inactive)
    1  A    between atoms: C_1  and  C_15
    2  A    between atoms: C_1  and  C_18
    3  A    between atoms: N_2  and  C_6
    4  A    between atoms: N_2  and  C_15
    5  A    between atoms: C_6  and  C_17
    6  A    between atoms: C_9  and  C_15
    7  A    between atoms: C_14  and  O_19
                            x       y       z     vdW  Elec       q    Type
                         _______ _______ _______ _____ _____    ______ ____

>  <TORSDO>
F 7

$$$$
=
 OpenBabel11052423163D

 27 29  0  0  1  0  0  0  0  0999 V2000
  161.5030  206.5840  151.8050 C   0  0  2  0  0  3  0  0  0  0  0  0
  160.7600  202.5510  150.5040 C   0  0  0  0  0  3  0  0  0  0  0  0
  161.2370  205.1870  151.3320 C   0  0  0  0  0  0  0  0  0  0  0  0
  161.0420  204.8970  149.9720 C   0  0  0  0  0  3  0  0  0  0  0  0
  160.7990  203.5830  149.5610 C   0  0  0  0  0  3  0  0  0  0  0  0
  160.9620  202.8340  151.8580 C   0  0  0  0  0  3  0  0  0  0  0  0
  161.1980  204.1490  152.2710 C   0  0  0  0  0  3  0  0  0  0  0  0
  162.7140  207.2500  151.1310 C   0  0  0  0  0  2  0  0  0  0  0  0
  161.8980  209.6620  148.2860 C   0  0  0  0  0  3  0  0  0  0  0  0
  161.7880  210.8670  148.9860 C   0  0  0  0  0  3  0  0  0  0  0  0
  162.3820  208.4980  150.3630 C   0  0  0  0  0  0  0  0  0  0  0  0
  162.3360  207.2190  148.1770 C   0  0  0  0  0  1  0  0  0  0  0  0
  161.9810  210.8930  150.3680 C   0  0  0  0  0  3  0  0  0  0  0  0
  162.2820  209.7130  151.0530 C   0  0  0  0  0  3  0  0  0  0  0  0
  162.1960  208.4770  148.9660 C   0  0  0  0  0  0  0  0  0  0  0  0
  161.5780  206.6450  153.2560 N   0  0  0  0  0  2  0  0  0  0  0  0
  160.4420  207.4420  153.6980 C   0  0  0  0  0  2  0  0  0  0  0  0
  160.1100  210.8990  154.5050 C   0  0  0  0  0  0  0  0  0  0  0  0
  159.2330  213.0470  155.0250 O   0  0  0  0  0  1  0  0  0  0  0  0
  159.7260  210.3060  155.7340 N   0  0  0  0  0  0  0  0  0  0  0  0
  158.8410  210.8500  156.6030 O   0  0  0  0  0  1  0  0  0  0  0  0
  160.0630  208.8960  155.7410 C   0  0  1  0  0  3  0  0  0  0  0  0
  159.8870  212.1690  154.1700 C   0  0  0  0  0  3  0  0  0  0  0  0
  160.8980  208.6740  154.4690 C   0  0  2  0  0  3  0  0  0  0  0  0
  160.8060  209.9460  153.6150 C   0  0  0  0  0  2  0  0  0  0  0  0
  160.4500  206.9800  157.2610 S   0  0  0  0  0  1  0  0  0  0  0  0
  160.8400  208.6050  156.8630 O   0  0  0  0  0  0  0  0  0  0  0  0
  1  8  1  6  0  0  0
  1 16  1  0  0  0  0
  2  6  1  0  0  0  0
  3  1  1  0  0  0  0
  3  7  1  0  0  0  0
  4  3  2  0  0  0  0
  5  4  1  0  0  0  0
  5  2  2  0  0  0  0
  6  7  2  0  0  0  0
  9 15  2  0  0  0  0
  9 10  1  0  0  0  0
 10 13  2  0  0  0  0
 11 14  2  0  0  0  0
 11  8  1  0  0  0  0
 12 15  1  0  0  0  0
 13 14  1  0  0  0  0
 15 11  1  0  0  0  0
 16 17  1  0  0  0  0
 18 20  1  0  0  0  0
 20 22  1  0  0  0  0
 20 21  1  0  0  0  0
 22 27  1  1  0  0  0
 23 18  2  0  0  0  0
 23 19  1  0  0  0  0
 24 17  1  6  0  0  0
 24 22  1  0  0  0  0
 25 24  1  0  0  0  0
 25 18  1  0  0  0  0
 27 26  1  0  0  0  0
M  END
>  <MODEL>
8

>  <REMARK>
 VINA RESULT:      -7.1      2.872      5.628
  Name = 
  7 active torsions:
  status: ('A' for Active; 'I' for Inactive)
    1  A    between atoms: C_1  and  C_15
    2  A    between atoms: C_1  and  C_18
    3  A    between atoms: N_2  and  C_6
    4  A    between atoms: N_2  and  C_15
    5  A    between atoms: C_6  and  C_17
    6  A    between atoms: C_9  and  C_15
    7  A    between atoms: C_14  and  O_19
                            x       y       z     vdW  Elec       q    Type
                         _______ _______ _______ _____ _____    ______ ____

>  <TORSDO>
F 7

$$$$
=
 OpenBabel11052423163D

 27 29  0  0  1  0  0  0  0  0999 V2000
  161.0730  209.6730  152.0500 C   0  0  2  0  0  3  0  0  0  0  0  0
  158.7440  213.2890  151.9200 C   0  0  0  0  0  3  0  0  0  0  0  0
  160.2450  210.9220  152.0140 C   0  0  0  0  0  0  0  0  0  0  0  0
  159.1060  211.0710  152.8220 C   0  0  0  0  0  3  0  0  0  0  0  0
  158.3560  212.2490  152.7700 C   0  0  0  0  0  3  0  0  0  0  0  0
  159.8820  213.1490  151.1200 C   0  0  0  0  0  3  0  0  0  0  0  0
  160.6300  211.9680  151.1670 C   0  0  0  0  0  3  0  0  0  0  0  0
  161.9140  209.5180  153.3280 C   0  0  0  0  0  2  0  0  0  0  0  0
  160.2450  208.7530  156.6750 C   0  0  0  0  0  3  0  0  0  0  0  0
  159.9130  207.4060  156.5020 C   0  0  0  0  0  3  0  0  0  0  0  0
  161.2090  208.8040  154.4450 C   0  0  0  0  0  0  0  0  0  0  0  0
  161.2570  210.8830  155.8920 C   0  0  0  0  0  1  0  0  0  0  0  0
  160.2340  206.7550  155.3100 C   0  0  0  0  0  3  0  0  0  0  0  0
  160.8830  207.4510  154.2870 C   0  0  0  0  0  3  0  0  0  0  0  0
  160.8930  209.4570  155.6540 C   0  0  0  0  0  0  0  0  0  0  0  0
  161.8740  209.5370  150.8430 N   0  0  0  0  0  2  0  0  0  0  0  0
  162.2400  208.1310  150.7430 C   0  0  0  0  0  2  0  0  0  0  0  0
  161.2360  206.3630  147.8140 C   0  0  0  0  0  0  0  0  0  0  0  0
  161.1990  204.9510  145.9020 O   0  0  0  0  0  1  0  0  0  0  0  0
  161.2960  205.3020  148.7520 N   0  0  0  0  0  0  0  0  0  0  0  0
  161.6010  204.0200  148.4400 O   0  0  0  0  0  1  0  0  0  0  0  0
  161.4030  205.8250  150.1000 C   0  0  1  0  0  3  0  0  0  0  0  0
  161.1890  206.2080  146.4920 C   0  0  0  0  0  3  0  0  0  0  0  0
  161.1970  207.3420  149.9620 C   0  0  2  0  0  3  0  0  0  0  0  0
  161.2240  207.6890  148.4670 C   0  0  0  0  0  2  0  0  0  0  0  0
  161.2000  204.3040  152.0430 S   0  0  0  0  0  1  0  0  0  0  0  0
  160.3880  205.2900  150.8930 O   0  0  0  0  0  0  0  0  0  0  0  0
  1  8  1  1  0  0  0
  2  5  1  0  0  0  0
  3  1  1  0  0  0  0
  3  4  1  0  0  0  0
  5  4  2  0  0  0  0
  6  7  1  0  0  0  0
  6  2  2  0  0  0  0
  7  3  2  0  0  0  0
  8 11  1  0  0  0  0
 10  9  1  0  0  0  0
 11 15  1  0  0  0  0
 13 10  2  0  0  0  0
 14 11  2  0  0  0  0
 14 13  1  0  0  0  0
 15 12  1  0  0  0  0
 15  9  2  0  0  0  0
 16  1  1  0  0  0  0
 17 16  1  0  0  0  0
 18 25  1  0  0  0  0
 18 20  1  0  0  0  0
 19 23  1  0  0  0  0
 20 22  1  0  0  0  0
 21 20  1  0  0  0  0
 22 27  1  1  0  0  0
 23 18  2  0  0  0  0
 24 22  1  0  0  0  0
 24 17  1  1  0  0  0
 25 24  1  0  0  0  0
 27 26  1  0  0  0  0
M  END
>  <MODEL>
9

>  <REMARK>
 VINA RESULT:      -6.9      3.428      7.492
  Name = 
  7 active torsions:
  status: ('A' for Active; 'I' for Inactive)
    1  A    between atoms: C_1  and  C_15
    2  A    between atoms: C_1  and  C_18
    3  A    between atoms: N_2  and  C_6
    4  A    between atoms: N_2  and  C_15
    5  A    between atoms: C_6  and  C_17
    6  A    between atoms: C_9  and  C_15
    7  A    between atoms: C_14  and  O_19
                            x       y       z     vdW  Elec       q    Type
                         _______ _______ _______ _____ _____    ______ ____

>  <TORSDO>
F 7

$$$$
