=
 OpenBabel11062410543D

 32 38  0  0  1  0  0  0  0  0999 V2000
  161.0850  205.3420  148.7230 C   0  0  0  0  0  0  0  0  0  0  0  0
  161.5290  208.8030  151.6910 C   0  0  2  0  0  3  0  0  0  0  0  0
  160.9360  205.5270  153.8560 C   0  0  0  0  0  2  0  0  0  0  0  0
  160.4760  210.7780  152.8690 C   0  0  0  0  0  0  0  0  0  0  0  0
  160.1860  211.5710  154.0770 C   0  0  0  0  0  0  0  0  0  0  0  0
  162.2810  207.8440  149.6070 C   0  0  1  0  0  3  0  0  0  0  0  0
  162.9010  206.6850  151.6970 O   0  0  0  0  0  0  0  0  0  0  0  0
  159.7420  213.1250  156.3660 C   0  0  0  0  0  3  0  0  0  0  0  0
  161.3610  205.3990  150.2060 C   0  0  0  0  0  2  0  0  0  0  0  0
  161.5860  206.8520  154.1320 C   0  0  1  0  0  3  0  0  0  0  0  0
  161.6470  207.3130  151.9040 C   0  0  1  0  0  0  0  0  0  0  0  0
  160.7030  206.6810  152.9030 C   0  0  1  0  0  3  0  0  0  0  0  0
  161.8720  209.2370  154.3230 C   0  0  2  0  0  3  0  0  0  0  0  0
  159.0040  213.3660  155.2040 C   0  0  0  0  0  3  0  0  0  0  0  0
  161.0100  206.4610  147.9780 C   0  0  0  0  0  3  0  0  0  0  0  0
  162.0030  206.7270  150.6110 C   0  0  2  0  0  0  0  0  0  0  0  0
  159.2260  212.5930  154.0600 C   0  0  0  0  0  3  0  0  0  0  0  0
  161.1650  207.8350  148.5680 C   0  0  0  0  0  2  0  0  0  0  0  0
  160.9620  208.0670  154.7710 C   0  0  2  0  0  3  0  0  0  0  0  0
  161.8580  210.2920  155.2890 O   0  0  0  0  0  0  0  0  0  0  0  0
  162.2600  209.1510  150.4060 C   0  0  0  0  0  2  0  0  0  0  0  0
  159.8140  210.9760  151.8130 O   0  0  0  0  0  0  0  0  0  0  0  0
  160.6980  212.1050  156.3890 C   0  0  0  0  0  3  0  0  0  0  0  0
  161.6240  209.7960  152.8810 C   0  0  1  0  0  3  0  0  0  0  0  0
  160.9140  211.3200  155.2520 C   0  0  0  0  0  0  0  0  0  0  0  0
  159.7220  207.4780  156.5040 C   0  0  0  0  0  1  0  0  0  0  0  0
  161.0000  207.9200  156.1590 O   0  0  0  0  0  0  0  0  0  0  0  0
  160.9040  204.0810  148.1470 O   0  0  0  0  0  0  0  0  0  0  0  0
  160.8730  202.8770  148.9040 C   0  0  0  0  0  2  0  0  0  0  0  0
  161.0120  201.7100  147.9930 C   0  0  0  0  0  0  0  0  0  0  0  0
  161.2910  200.5760  148.4620 O   0  0  0  0  0  0  0  0  0  0  0  0
  160.8720  201.8830  146.5890 N   0  0  0  0  0  1  0  0  0  0  0  0
  1  9  1  0  0  0  0
  2 21  1  6  0  0  0
  2 11  1  0  0  0  0
  2 24  1  0  0  0  0
  4  5  1  0  0  0  0
  5 25  1  0  0  0  0
  6 18  1  6  0  0  0
  6 21  1  0  0  0  0
  6 16  1  0  0  0  0
  8 23  1  0  0  0  0
 10  3  1  1  0  0  0
 10 19  1  0  0  0  0
 11  7  1  1  0  0  0
 11 12  1  0  0  0  0
 12  3  1  6  0  0  0
 12 10  1  0  0  0  0
 13 19  1  0  0  0  0
 13 20  1  1  0  0  0
 14  8  2  0  0  0  0
 15 18  1  0  0  0  0
 15  1  2  0  0  0  0
 16  9  1  6  0  0  0
 16  7  1  0  0  0  0
 16 11  1  0  0  0  0
 17  5  2  0  0  0  0
 17 14  1  0  0  0  0
 19 27  1  1  0  0  0
 22  4  2  0  0  0  0
 24  4  1  1  0  0  0
 24 13  1  0  0  0  0
 25 20  1  0  0  0  0
 25 23  2  0  0  0  0
 27 26  1  0  0  0  0
 28  1  1  0  0  0  0
 28 29  1  0  0  0  0
 30 31  2  0  0  0  0
 30 29  1  0  0  0  0
 32 30  1  0  0  0  0
M  END
>  <MODEL>
1

>  <REMARK>
 VINA RESULT:      -8.4      0.000      0.000
  Name = 
  4 active torsions:
  status: ('A' for Active; 'I' for Inactive)
    1  A    between atoms: C_1  and  C_10
    2  A    between atoms: C_2  and  O_24
    3  A    between atoms: C_10  and  O_24
    4  A    between atoms: O_25  and  C_26
                            x       y       z     vdW  Elec       q    Type
                         _______ _______ _______ _____ _____    ______ ____

>  <TORSDO>
F 4

$$$$
=
 OpenBabel11062410543D

 32 38  0  0  1  0  0  0  0  0999 V2000
  160.8630  208.5630  153.7970 C   0  0  0  0  0  0  0  0  0  0  0  0
  161.6480  205.3060  150.6740 C   0  0  2  0  0  3  0  0  0  0  0  0
  161.3340  208.7270  148.6830 C   0  0  0  0  0  2  0  0  0  0  0  0
  160.7370  203.4280  149.2440 C   0  0  0  0  0  0  0  0  0  0  0  0
  160.5910  202.7220  147.9590 C   0  0  0  0  0  0  0  0  0  0  0  0
  162.1470  206.1120  152.8940 C   0  0  1  0  0  3  0  0  0  0  0  0
  163.0190  207.4020  150.9780 O   0  0  0  0  0  0  0  0  0  0  0  0
  160.4210  201.3320  145.5320 C   0  0  0  0  0  3  0  0  0  0  0  0
  161.3160  208.6030  152.3580 C   0  0  0  0  0  2  0  0  0  0  0  0
  162.0070  207.4160  148.3970 C   0  0  1  0  0  3  0  0  0  0  0  0
  161.7970  206.8050  150.5790 C   0  0  1  0  0  0  0  0  0  0  0  0
  160.9830  207.5150  149.5190 C   0  0  1  0  0  3  0  0  0  0  0  0
  162.3040  205.0470  148.0790 C   0  0  2  0  0  3  0  0  0  0  0  0
  159.5470  201.0230  146.5780 C   0  0  0  0  0  3  0  0  0  0  0  0
  160.6940  207.3970  154.4490 C   0  0  0  0  0  3  0  0  0  0  0  0
  161.9960  207.2980  151.9420 C   0  0  2  0  0  0  0  0  0  0  0  0
  159.6320  201.7140  147.7900 C   0  0  0  0  0  3  0  0  0  0  0  0
  160.9130  206.0650  153.7890 C   0  0  0  0  0  2  0  0  0  0  0  0
  161.4600  206.2550  147.6060 C   0  0  2  0  0  3  0  0  0  0  0  0
  162.4030  204.0600  147.0480 O   0  0  0  0  0  0  0  0  0  0  0  0
  162.2170  204.8620  152.0100 C   0  0  0  0  0  2  0  0  0  0  0  0
  159.9510  203.1680  150.1970 O   0  0  0  0  0  0  0  0  0  0  0  0
  161.3770  202.3400  145.6940 C   0  0  0  0  0  3  0  0  0  0  0  0
  161.8820  204.3950  149.4380 C   0  0  1  0  0  3  0  0  0  0  0  0
  161.4570  203.0430  146.9000 C   0  0  0  0  0  0  0  0  0  0  0  0
  160.4160  206.2990  145.6560 C   0  0  0  0  0  1  0  0  0  0  0  0
  161.6660  206.4960  146.2460 O   0  0  0  0  0  0  0  0  0  0  0  0
  160.6190  209.7850  154.4330 O   0  0  0  0  0  0  0  0  0  0  0  0
  161.6210  210.7760  154.6210 C   0  0  0  0  0  2  0  0  0  0  0  0
  162.2560  210.5980  155.9530 C   0  0  0  0  0  0  0  0  0  0  0  0
  163.4870  210.8190  156.0980 O   0  0  0  0  0  0  0  0  0  0  0  0
  161.4840  210.1370  157.0550 N   0  0  0  0  0  1  0  0  0  0  0  0
  1 28  1  0  0  0  0
  1 15  2  0  0  0  0
  2 21  1  1  0  0  0
  4 22  2  0  0  0  0
  5  4  1  0  0  0  0
  6 21  1  6  0  0  0
  6 18  1  0  0  0  0
  7 16  1  0  0  0  0
  8 23  2  0  0  0  0
  8 14  1  0  0  0  0
  9  1  1  0  0  0  0
 10  3  1  6  0  0  0
 10 12  1  0  0  0  0
 11  2  1  0  0  0  0
 11  7  1  6  0  0  0
 11 16  1  0  0  0  0
 12  3  1  1  0  0  0
 12 11  1  0  0  0  0
 13 20  1  6  0  0  0
 13 24  1  0  0  0  0
 14 17  2  0  0  0  0
 16  9  1  1  0  0  0
 16  6  1  0  0  0  0
 17  5  1  0  0  0  0
 18 15  1  0  0  0  0
 19 27  1  6  0  0  0
 19 13  1  0  0  0  0
 19 10  1  0  0  0  0
 23 25  1  0  0  0  0
 24  4  1  6  0  0  0
 24  2  1  0  0  0  0
 25 20  1  0  0  0  0
 25  5  2  0  0  0  0
 26 27  1  0  0  0  0
 28 29  1  0  0  0  0
 29 30  1  0  0  0  0
 30 31  2  0  0  0  0
 30 32  1  0  0  0  0
M  END
>  <MODEL>
2

>  <REMARK>
 VINA RESULT:      -6.7      2.982      9.075
  Name = 
  4 active torsions:
  status: ('A' for Active; 'I' for Inactive)
    1  A    between atoms: C_1  and  C_10
    2  A    between atoms: C_2  and  O_24
    3  A    between atoms: C_10  and  O_24
    4  A    between atoms: O_25  and  C_26
                            x       y       z     vdW  Elec       q    Type
                         _______ _______ _______ _____ _____    ______ ____

>  <TORSDO>
F 4

$$$$
=
 OpenBabel11062410543D

 32 38  0  0  1  0  0  0  0  0999 V2000
  160.8840  208.6010  153.7910 C   0  0  0  0  0  0  0  0  0  0  0  0
  161.6620  205.3300  150.6810 C   0  0  2  0  0  3  0  0  0  0  0  0
  161.3400  208.7430  148.6750 C   0  0  0  0  0  2  0  0  0  0  0  0
  160.7480  203.4450  149.2620 C   0  0  0  0  0  0  0  0  0  0  0  0
  160.5990  202.7340  147.9800 C   0  0  0  0  0  0  0  0  0  0  0  0
  162.1670  206.1470  152.8950 C   0  0  1  0  0  3  0  0  0  0  0  0
  163.0320  207.4290  150.9710 O   0  0  0  0  0  0  0  0  0  0  0  0
  160.4230  201.3330  145.5600 C   0  0  0  0  0  3  0  0  0  0  0  0
  161.3320  208.6350  152.3510 C   0  0  0  0  0  2  0  0  0  0  0  0
  162.0130  207.4310  148.3930 C   0  0  1  0  0  3  0  0  0  0  0  0
  161.8090  206.8300  150.5780 C   0  0  1  0  0  0  0  0  0  0  0  0
  160.9920  207.5340  149.5180 C   0  0  1  0  0  3  0  0  0  0  0  0
  162.3110  205.0600  148.0850 C   0  0  2  0  0  3  0  0  0  0  0  0
  159.5520  201.0280  146.6100 C   0  0  0  0  0  3  0  0  0  0  0  0
  160.7170  207.4380  154.4490 C   0  0  0  0  0  3  0  0  0  0  0  0
  162.0120  207.3290  151.9390 C   0  0  2  0  0  0  0  0  0  0  0  0
  159.6400  201.7240  147.8190 C   0  0  0  0  0  3  0  0  0  0  0  0
  160.9350  206.1030  153.7940 C   0  0  0  0  0  2  0  0  0  0  0  0
  161.4650  206.2660  147.6090 C   0  0  2  0  0  3  0  0  0  0  0  0
  162.4070  204.0690  147.0580 O   0  0  0  0  0  0  0  0  0  0  0  0
  162.2350  204.8930  152.0170 C   0  0  0  0  0  2  0  0  0  0  0  0
  159.9650  203.1890  150.2180 O   0  0  0  0  0  0  0  0  0  0  0  0
  161.3790  202.3420  145.7150 C   0  0  0  0  0  3  0  0  0  0  0  0
  161.8930  204.4140  149.4480 C   0  0  1  0  0  3  0  0  0  0  0  0
  161.4610  203.0510  146.9170 C   0  0  0  0  0  0  0  0  0  0  0  0
  160.4140  206.3030  145.6630 C   0  0  0  0  0  1  0  0  0  0  0  0
  161.6660  206.5010  146.2470 O   0  0  0  0  0  0  0  0  0  0  0  0
  160.6410  209.8260  154.4220 O   0  0  0  0  0  0  0  0  0  0  0  0
  160.8750  211.0820  153.7980 C   0  0  0  0  0  2  0  0  0  0  0  0
  159.5770  211.7480  153.5130 C   0  0  0  0  0  0  0  0  0  0  0  0
  158.7680  211.2290  152.6990 O   0  0  0  0  0  0  0  0  0  0  0  0
  159.2650  212.9920  154.1270 N   0  0  0  0  0  1  0  0  0  0  0  0
  1 28  1  0  0  0  0
  1 15  2  0  0  0  0
  2 21  1  1  0  0  0
  4 22  2  0  0  0  0
  5  4  1  0  0  0  0
  6 21  1  6  0  0  0
  6 18  1  0  0  0  0
  7 16  1  0  0  0  0
  8 23  2  0  0  0  0
  8 14  1  0  0  0  0
  9  1  1  0  0  0  0
 10  3  1  6  0  0  0
 10 12  1  0  0  0  0
 11  2  1  0  0  0  0
 11  7  1  6  0  0  0
 11 16  1  0  0  0  0
 12  3  1  1  0  0  0
 12 11  1  0  0  0  0
 13 20  1  6  0  0  0
 13 24  1  0  0  0  0
 14 17  2  0  0  0  0
 16  9  1  1  0  0  0
 16  6  1  0  0  0  0
 17  5  1  0  0  0  0
 18 15  1  0  0  0  0
 19 27  1  6  0  0  0
 19 13  1  0  0  0  0
 19 10  1  0  0  0  0
 23 25  1  0  0  0  0
 24  4  1  6  0  0  0
 24  2  1  0  0  0  0
 25 20  1  0  0  0  0
 25  5  2  0  0  0  0
 26 27  1  0  0  0  0
 29 28  1  0  0  0  0
 30 29  1  0  0  0  0
 30 32  1  0  0  0  0
 31 30  2  0  0  0  0
M  END
>  <MODEL>
3

>  <REMARK>
 VINA RESULT:      -6.5      2.864      8.997
  Name = 
  4 active torsions:
  status: ('A' for Active; 'I' for Inactive)
    1  A    between atoms: C_1  and  C_10
    2  A    between atoms: C_2  and  O_24
    3  A    between atoms: C_10  and  O_24
    4  A    between atoms: O_25  and  C_26
                            x       y       z     vdW  Elec       q    Type
                         _______ _______ _______ _____ _____    ______ ____

>  <TORSDO>
F 4

$$$$
=
 OpenBabel11062410543D

 32 38  0  0  1  0  0  0  0  0999 V2000
  159.6380  209.4490  155.9880 C   0  0  0  0  0  0  0  0  0  0  0  0
  161.5610  207.3790  152.3830 C   0  0  2  0  0  3  0  0  0  0  0  0
  160.7790  211.1070  151.2600 C   0  0  0  0  0  2  0  0  0  0  0  0
  161.3020  205.8410  150.3910 C   0  0  0  0  0  0  0  0  0  0  0  0
  161.5010  205.5050  148.9700 C   0  0  0  0  0  0  0  0  0  0  0  0
  161.5500  207.6120  154.7850 C   0  0  1  0  0  3  0  0  0  0  0  0
  162.3740  209.5170  153.4480 O   0  0  0  0  0  0  0  0  0  0  0  0
  161.9890  204.8360  146.2930 C   0  0  0  0  0  3  0  0  0  0  0  0
  160.2700  209.9660  154.7180 C   0  0  0  0  0  2  0  0  0  0  0  0
  161.7610  210.0670  150.8010 C   0  0  1  0  0  3  0  0  0  0  0  0
  161.3850  208.8480  152.6850 C   0  0  1  0  0  0  0  0  0  0  0  0
  160.5920  209.6670  151.6920 C   0  0  1  0  0  3  0  0  0  0  0  0
  162.6190  207.9700  149.9820 C   0  0  2  0  0  3  0  0  0  0  0  0
  161.0660  204.0990  147.0420 C   0  0  0  0  0  3  0  0  0  0  0  0
  159.6420  208.1370  156.2920 C   0  0  0  0  0  3  0  0  0  0  0  0
  161.2750  208.9700  154.1390 C   0  0  2  0  0  0  0  0  0  0  0  0
  160.8240  204.4300  148.3780 C   0  0  0  0  0  3  0  0  0  0  0  0
  160.2430  207.1010  155.3840 C   0  0  0  0  0  2  0  0  0  0  0  0
  161.6030  209.0930  149.6610 C   0  0  2  0  0  3  0  0  0  0  0  0
  163.0790  207.3420  148.7820 O   0  0  0  0  0  0  0  0  0  0  0  0
  162.0200  206.6900  153.6560 C   0  0  0  0  0  2  0  0  0  0  0  0
  160.4680  205.1920  151.0800 O   0  0  0  0  0  0  0  0  0  0  0  0
  162.6640  205.9120  146.8780 C   0  0  0  0  0  3  0  0  0  0  0  0
  162.1650  206.9030  151.0340 C   0  0  1  0  0  3  0  0  0  0  0  0
  162.4140  206.2550  148.2100 C   0  0  0  0  0  0  0  0  0  0  0  0
  162.3420  211.0150  148.8520 C   0  0  0  0  0  1  0  0  0  0  0  0
  161.9400  209.7340  148.4670 O   0  0  0  0  0  0  0  0  0  0  0  0
  159.0410  210.3830  156.8410 O   0  0  0  0  0  0  0  0  0  0  0  0
  158.8480  211.7470  156.4870 C   0  0  0  0  0  2  0  0  0  0  0  0
  157.4310  211.9650  156.0920 C   0  0  0  0  0  0  0  0  0  0  0  0
  156.5580  212.1770  156.9740 O   0  0  0  0  0  0  0  0  0  0  0  0
  157.0540  211.8900  154.7230 N   0  0  0  0  0  1  0  0  0  0  0  0
  1 15  2  0  0  0  0
  1 28  1  0  0  0  0
  2 11  1  0  0  0  0
  2 21  1  1  0  0  0
  4 22  2  0  0  0  0
  5  4  1  0  0  0  0
  6 21  1  6  0  0  0
  6 18  1  0  0  0  0
  7 16  1  0  0  0  0
  8 23  2  0  0  0  0
  8 14  1  0  0  0  0
  9  1  1  0  0  0  0
 10  3  1  6  0  0  0
 10 12  1  0  0  0  0
 11  7  1  6  0  0  0
 11 16  1  0  0  0  0
 12  3  1  1  0  0  0
 12 11  1  0  0  0  0
 13 20  1  6  0  0  0
 13 24  1  0  0  0  0
 14 17  2  0  0  0  0
 16  9  1  1  0  0  0
 16  6  1  0  0  0  0
 17  5  1  0  0  0  0
 18 15  1  0  0  0  0
 19 27  1  6  0  0  0
 19 13  1  0  0  0  0
 19 10  1  0  0  0  0
 23 25  1  0  0  0  0
 24  4  1  6  0  0  0
 24  2  1  0  0  0  0
 25 20  1  0  0  0  0
 25  5  2  0  0  0  0
 27 26  1  0  0  0  0
 29 28  1  0  0  0  0
 30 29  1  0  0  0  0
 30 31  2  0  0  0  0
 32 30  1  0  0  0  0
M  END
>  <MODEL>
4

>  <REMARK>
 VINA RESULT:      -5.9      3.142      8.415
  Name = 
  4 active torsions:
  status: ('A' for Active; 'I' for Inactive)
    1  A    between atoms: C_1  and  C_10
    2  A    between atoms: C_2  and  O_24
    3  A    between atoms: C_10  and  O_24
    4  A    between atoms: O_25  and  C_26
                            x       y       z     vdW  Elec       q    Type
                         _______ _______ _______ _____ _____    ______ ____

>  <TORSDO>
F 4

$$$$
=
 OpenBabel11062410543D

 32 38  0  0  1  0  0  0  0  0999 V2000
  161.9100  203.6610  147.6220 C   0  0  0  0  0  0  0  0  0  0  0  0
  160.7940  206.1990  151.2690 C   0  0  2  0  0  3  0  0  0  0  0  0
  162.6980  208.6110  148.7540 C   0  0  0  0  0  2  0  0  0  0  0  0
  161.3110  206.9010  153.6440 C   0  0  0  0  0  0  0  0  0  0  0  0
  161.4960  207.9240  154.6880 C   0  0  0  0  0  0  0  0  0  0  0  0
  160.1090  204.4300  149.7760 C   0  0  1  0  0  3  0  0  0  0  0  0
  160.1890  206.7280  148.8770 O   0  0  0  0  0  0  0  0  0  0  0  0
  161.7290  209.8750  156.6860 C   0  0  0  0  0  3  0  0  0  0  0  0
  161.8370  205.1500  147.8590 C   0  0  0  0  0  2  0  0  0  0  0  0
  161.7030  208.8340  149.8550 C   0  0  1  0  0  3  0  0  0  0  0  0
  161.1910  206.6170  149.8730 C   0  0  1  0  0  0  0  0  0  0  0  0
  162.4150  207.4940  149.7360 C   0  0  1  0  0  3  0  0  0  0  0  0
  160.6970  208.7730  152.0440 C   0  0  2  0  0  3  0  0  0  0  0  0
  162.1840  208.5750  156.9220 C   0  0  0  0  0  3  0  0  0  0  0  0
  161.5180  202.7800  148.5620 C   0  0  0  0  0  3  0  0  0  0  0  0
  160.8670  205.4970  148.9880 C   0  0  2  0  0  0  0  0  0  0  0  0
  162.0660  207.5990  155.9280 C   0  0  0  0  0  3  0  0  0  0  0  0
  161.0150  203.2110  149.9120 C   0  0  0  0  0  2  0  0  0  0  0  0
  161.9860  209.1870  151.2940 C   0  0  2  0  0  3  0  0  0  0  0  0
  160.5060  209.5780  153.2100 O   0  0  0  0  0  0  0  0  0  0  0  0
  159.8200  205.0390  151.1520 C   0  0  0  0  0  2  0  0  0  0  0  0
  161.7220  205.7240  153.8360 O   0  0  0  0  0  0  0  0  0  0  0  0
  161.1640  210.2050  155.4500 C   0  0  0  0  0  3  0  0  0  0  0  0
  160.5510  207.2510  152.3850 C   0  0  1  0  0  3  0  0  0  0  0  0
  161.0560  209.2360  154.4480 C   0  0  0  0  0  0  0  0  0  0  0  0
  161.5730  211.0960  150.2570 C   0  0  0  0  0  1  0  0  0  0  0  0
  162.1900  210.5650  151.3910 O   0  0  0  0  0  0  0  0  0  0  0  0
  162.4040  203.2250  146.3890 O   0  0  0  0  0  0  0  0  0  0  0  0
  162.4770  204.0620  145.2410 C   0  0  0  0  0  2  0  0  0  0  0  0
  161.1040  204.3930  144.7760 C   0  0  0  0  0  0  0  0  0  0  0  0
  160.2700  203.4720  144.5680 O   0  0  0  0  0  0  0  0  0  0  0  0
  160.7440  205.7450  144.5250 N   0  0  0  0  0  1  0  0  0  0  0  0
  1  9  1  0  0  0  0
  1 15  2  0  0  0  0
  2 21  1  6  0  0  0
  2 24  1  0  0  0  0
  4 22  2  0  0  0  0
  4  5  1  0  0  0  0
  5 17  1  0  0  0  0
  6 18  1  1  0  0  0
  6 21  1  0  0  0  0
  7 16  1  0  0  0  0
  8 14  1  0  0  0  0
 10  3  1  6  0  0  0
 10 19  1  0  0  0  0
 11  7  1  6  0  0  0
 11  2  1  0  0  0  0
 12  3  1  6  0  0  0
 12 10  1  0  0  0  0
 12 11  1  0  0  0  0
 13 24  1  0  0  0  0
 13 20  1  1  0  0  0
 15 18  1  0  0  0  0
 16  9  1  6  0  0  0
 16  6  1  0  0  0  0
 16 11  1  0  0  0  0
 17 14  2  0  0  0  0
 19 27  1  6  0  0  0
 19 13  1  0  0  0  0
 20 25  1  0  0  0  0
 23  8  2  0  0  0  0
 24  4  1  1  0  0  0
 25  5  2  0  0  0  0
 25 23  1  0  0  0  0
 26 27  1  0  0  0  0
 28  1  1  0  0  0  0
 29 28  1  0  0  0  0
 30 29  1  0  0  0  0
 31 30  2  0  0  0  0
 32 30  1  0  0  0  0
M  END
>  <MODEL>
5

>  <REMARK>
 VINA RESULT:      -5.7      2.128      4.207
  Name = 
  4 active torsions:
  status: ('A' for Active; 'I' for Inactive)
    1  A    between atoms: C_1  and  C_10
    2  A    between atoms: C_2  and  O_24
    3  A    between atoms: C_10  and  O_24
    4  A    between atoms: O_25  and  C_26
                            x       y       z     vdW  Elec       q    Type
                         _______ _______ _______ _____ _____    ______ ____

>  <TORSDO>
F 4

$$$$
