=
 OpenBabel11062408383D

 55 59  0  0  1  0  0  0  0  0999 V2000
  161.6190  207.2600  151.3980 C   0  0  1  0  0  3  0  0  0  0  0  0
  162.0530  207.0500  152.8470 C   0  0  0  0  0  2  0  0  0  0  0  0
  160.9060  206.5040  153.6780 C   0  0  0  0  0  2  0  0  0  0  0  0
  160.7390  209.2070  157.0480 C   0  0  0  0  0  2  0  0  0  0  0  0
  160.6200  207.4230  154.8180 C   0  0  0  0  0  0  0  0  0  0  0  0
  160.6650  208.9110  154.5660 C   0  0  0  0  0  2  0  0  0  0  0  0
  160.2420  207.7820  157.2610 C   0  0  0  0  0  2  0  0  0  0  0  0
  160.1550  209.7410  155.7450 C   0  0  2  0  0  3  0  0  0  0  0  0
  160.5160  206.9170  156.0580 C   0  0  0  0  0  3  0  0  0  0  0  0
  161.4940  211.0380  154.6790 O   0  0  0  0  0  1  0  0  0  0  0  0
  160.5280  211.0740  155.5730 O   0  0  0  0  0  0  0  0  0  0  0  0
  162.2000  208.4230  150.8810 O   0  0  0  0  0  0  0  0  0  0  0  0
  161.6450  209.4800  151.6090 C   0  0  0  0  0  2  0  0  0  0  0  0
  161.5820  210.7440  150.7580 C   0  0  0  0  0  2  0  0  0  0  0  0
  162.1600  210.5120  149.3720 C   0  0  0  0  0  2  0  0  0  0  0  0
  162.3830  211.7400  148.7480 O   0  0  0  0  0  0  0  0  0  0  0  0
  161.6140  212.6530  149.4650 C   0  0  0  0  0  2  0  0  0  0  0  0
  160.8220  214.0020  145.1110 C   0  0  0  0  0  2  0  0  0  0  0  0
  159.8020  213.3680  144.1600 C   0  0  0  0  0  2  0  0  0  0  0  0
  160.4150  212.1070  146.6580 O   0  0  0  0  0  0  0  0  0  0  0  0
  158.3110  213.3340  146.2530 C   0  0  0  0  0  2  0  0  0  0  0  0
  158.5520  212.7860  144.8450 C   0  0  0  0  0  2  0  0  0  0  0  0
  161.3800  213.0200  146.1510 C   0  0  2  0  0  3  0  0  0  0  0  0
  159.7680  213.9020  148.2430 C   0  0  2  0  0  3  0  0  0  0  0  0
  159.3250  212.7910  147.2720 C   0  0  2  0  0  3  0  0  0  0  0  0
  162.0910  213.7820  147.2800 C   0  0  0  0  0  2  0  0  0  0  0  0
  161.2660  213.8400  148.5720 C   0  0  2  0  0  3  0  0  0  0  0  0
  157.4930  213.9680  149.2820 C   0  0  0  0  0  3  0  0  0  0  0  0
  157.1770  214.2900  151.6670 C   0  0  0  0  0  0  0  0  0  0  0  0
  159.4170  214.2230  150.7300 C   0  0  0  0  0  3  0  0  0  0  0  0
  158.5690  214.3550  151.8350 C   0  0  0  0  0  3  0  0  0  0  0  0
  156.6450  214.0980  150.3870 C   0  0  0  0  0  3  0  0  0  0  0  0
  158.8810  214.0250  149.4480 C   0  0  0  0  0  0  0  0  0  0  0  0
  156.2490  214.4430  152.8280 C   0  0  1  0  0  3  0  0  0  0  0  0
  155.0810  213.4800  152.7240 C   0  0  0  0  0  1  0  0  0  0  0  0
  156.9590  214.2230  154.0780 N   0  0  0  0  0  1  0  0  0  0  0  0
  161.9710  206.0570  150.5060 C   0  0  0  0  0  2  0  0  0  0  0  0
  160.7990  205.3430  149.8000 C   0  0  1  0  0  3  0  0  0  0  0  0
  160.2150  206.1860  147.5100 C   0  0  0  0  0  3  0  0  0  0  0  0
  160.0680  206.2380  148.8390 C   0  0  0  0  0  3  0  0  0  0  0  0
  161.1020  205.1970  146.8180 C   0  0  2  0  0  3  0  0  0  0  0  0
  162.4850  205.7520  146.6670 C   0  0  0  0  0  0  0  0  0  0  0  0
  162.8030  206.9620  147.2680 O   0  0  0  0  0  1  0  0  0  0  0  0
  163.3640  205.1300  146.0100 O   0  0  0  0  0  0  0  0  0  0  0  0
  160.4990  204.8290  145.4650 C   0  0  0  0  0  2  0  0  0  0  0  0
  161.0970  203.6070  144.9560 N   0  0  0  0  0  0  0  0  0  0  0  0
  160.5460  202.5120  145.7140 C   0  0  1  0  0  3  0  0  0  0  0  0
  160.0530  202.8280  144.4910 O   0  0  0  0  0  0  0  0  0  0  0  0
  161.3830  201.3690  145.5950 O   0  0  0  0  0  0  0  0  0  0  0  0
  161.3170  200.2850  146.4760 C   0  0  0  0  0  0  0  0  0  0  0  0
  161.1780  200.5140  147.7710 C   0  0  0  0  0  2  0  0  0  0  0  0
  161.3880  198.8750  145.9940 C   0  0  0  0  0  1  0  0  0  0  0  0
  161.2570  204.0620  149.1090 C   0  0  0  0  0  2  0  0  0  0  0  0
  160.6810  202.8660  149.7870 C   0  0  0  0  0  3  0  0  0  0  0  0
  160.9260  202.6530  151.0750 C   0  0  0  0  0  2  0  0  0  0  0  0
  1 37  1  6  0  0  0
  1  2  1  0  0  0  0
  2  3  1  0  0  0  0
  3  5  1  0  0  0  0
  4  7  1  0  0  0  0
  5  9  2  0  0  0  0
  6  5  1  0  0  0  0
  6  8  1  0  0  0  0
  8 11  1  6  0  0  0
  8  4  1  0  0  0  0
  9  7  1  0  0  0  0
 10 11  1  0  0  0  0
 12  1  1  0  0  0  0
 12 13  1  0  0  0  0
 14 13  1  0  0  0  0
 15 14  1  0  0  0  0
 16 15  1  0  0  0  0
 16 17  1  0  0  0  0
 19 22  1  0  0  0  0
 19 18  1  0  0  0  0
 20 25  1  0  0  0  0
 22 21  1  0  0  0  0
 23 18  1  6  0  0  0
 23 20  1  0  0  0  0
 23 26  1  0  0  0  0
 24 27  1  0  0  0  0
 24 33  1  1  0  0  0
 25 21  1  6  0  0  0
 25 24  1  0  0  0  0
 26 27  1  0  0  0  0
 27 17  1  1  0  0  0
 28 33  2  0  0  0  0
 28 32  1  0  0  0  0
 29 31  1  0  0  0  0
 29 34  1  0  0  0  0
 30 31  2  0  0  0  0
 32 29  2  0  0  0  0
 33 30  1  0  0  0  0
 34 35  1  6  0  0  0
 34 36  1  0  0  0  0
 38 40  1  6  0  0  0
 38 37  1  0  0  0  0
 39 40  2  0  0  0  0
 41 45  1  6  0  0  0
 41 39  1  0  0  0  0
 42 41  1  0  0  0  0
 42 43  1  0  0  0  0
 44 42  2  0  0  0  0
 46 45  1  0  0  0  0
 46 47  1  0  0  0  0
 47 49  1  6  0  0  0
 48 46  1  0  0  0  0
 48 47  1  0  0  0  0
 49 50  1  0  0  0  0
 50 51  2  0  0  0  0
 52 50  1  0  0  0  0
 53 54  1  0  0  0  0
 53 38  1  0  0  0  0
 54 55  2  0  0  0  0
M  END
>  <MODEL>
1

>  <REMARK>
 VINA RESULT:      -6.3      0.000      0.000
  Name = 
  24 active torsions:
  status: ('A' for Active; 'I' for Inactive)
    1  A    between atoms: C_1  and  C_53
    2  A    between atoms: N_3  and  C_38
    3  A    between atoms: C_4  and  O_35
    4  A    between atoms: C_4  and  C_37
    5  A    between atoms: C_5  and  C_37
    6  A    between atoms: C_5  and  O_40
    7  A    between atoms: C_6  and  C_53
    8  A    between atoms: C_7  and  C_20
    9  A    between atoms: C_8  and  C_22
   10  A    between atoms: C_8  and  C_43
   11  A    between atoms: C_10  and  C_32
   12  A    between atoms: C_11  and  O_50
   13  A    between atoms: C_12  and  O_50
   14  A    between atoms: C_19  and  O_40
   15  A    between atoms: C_19  and  C_49
   16  A    between atoms: C_20  and  C_22
   17  A    between atoms: C_22  and  C_46
   18  A    between atoms: C_27  and  C_54
   19  A    between atoms: O_28  and  C_44
   20  A    between atoms: C_33  and  C_52
   21  A    between atoms: O_35  and  C_43
   22  A    between atoms: C_38  and  C_53
   23  A    between atoms: C_43  and  C_51
   24  A    between atoms: C_51  and  C_54
                            x       y       z     vdW  Elec       q    Type
                         _______ _______ _______ _____ _____    ______ ____

>  <TORSDO>
F 24

$$$$
=
 OpenBabel11062408383D

 55 59  0  0  1  0  0  0  0  0999 V2000
  162.2560  207.5960  149.2070 C   0  0  1  0  0  3  0  0  0  0  0  0
  161.4660  206.5070  148.4840 C   0  0  0  0  0  2  0  0  0  0  0  0
  162.3900  205.6230  147.6680 C   0  0  0  0  0  2  0  0  0  0  0  0
  160.1060  201.9660  147.3550 C   0  0  0  0  0  2  0  0  0  0  0  0
  161.8060  204.2570  147.5350 C   0  0  0  0  0  0  0  0  0  0  0  0
  161.2890  203.8300  146.1810 C   0  0  0  0  0  2  0  0  0  0  0  0
  160.9870  202.1450  148.5870 C   0  0  0  0  0  2  0  0  0  0  0  0
  160.9080  202.3500  146.1180 C   0  0  2  0  0  3  0  0  0  0  0  0
  161.5860  203.5270  148.6390 C   0  0  0  0  0  3  0  0  0  0  0  0
  160.1880  200.8070  144.8100 O   0  0  0  0  0  1  0  0  0  0  0  0
  160.1490  202.1130  144.9720 O   0  0  0  0  0  0  0  0  0  0  0  0
  162.8060  208.4900  148.2820 O   0  0  0  0  0  0  0  0  0  0  0  0
  161.8900  209.5410  148.1790 C   0  0  0  0  0  2  0  0  0  0  0  0
  162.2930  210.6960  149.0900 C   0  0  0  0  0  2  0  0  0  0  0  0
  163.0920  211.7470  148.3390 C   0  0  0  0  0  2  0  0  0  0  0  0
  162.2190  212.6180  147.6840 O   0  0  0  0  0  0  0  0  0  0  0  0
  161.4640  213.1990  148.7000 C   0  0  0  0  0  2  0  0  0  0  0  0
  158.7370  214.4530  145.1780 C   0  0  0  0  0  2  0  0  0  0  0  0
  157.5090  213.6770  144.6900 C   0  0  0  0  0  2  0  0  0  0  0  0
  159.2820  212.5020  146.6090 O   0  0  0  0  0  0  0  0  0  0  0  0
  157.0570  213.3910  147.2040 C   0  0  0  0  0  2  0  0  0  0  0  0
  156.7560  212.9010  145.7860 C   0  0  0  0  0  2  0  0  0  0  0  0
  159.8100  213.5580  145.8170 C   0  0  2  0  0  3  0  0  0  0  0  0
  159.1230  214.1590  148.4480 C   0  0  2  0  0  3  0  0  0  0  0  0
  158.4690  213.0020  147.6680 C   0  0  2  0  0  3  0  0  0  0  0  0
  160.8190  214.4100  146.6040 C   0  0  0  0  0  2  0  0  0  0  0  0
  160.6140  214.3260  148.1220 C   0  0  2  0  0  3  0  0  0  0  0  0
  157.4850  214.1830  150.3380 C   0  0  0  0  0  3  0  0  0  0  0  0
  158.1960  214.1210  152.6580 C   0  0  0  0  0  0  0  0  0  0  0  0
  159.8430  214.0800  150.8750 C   0  0  0  0  0  3  0  0  0  0  0  0
  159.5340  214.0760  152.2390 C   0  0  0  0  0  3  0  0  0  0  0  0
  157.1750  214.1760  151.7030 C   0  0  0  0  0  3  0  0  0  0  0  0
  158.8170  214.1300  149.9180 C   0  0  0  0  0  0  0  0  0  0  0  0
  157.8380  214.1320  154.1100 C   0  0  1  0  0  3  0  0  0  0  0  0
  156.6260  213.2610  154.3800 C   0  0  0  0  0  1  0  0  0  0  0  0
  158.9620  213.6760  154.9120 N   0  0  0  0  0  1  0  0  0  0  0  0
  161.3930  208.3600  150.2250 C   0  0  0  0  0  2  0  0  0  0  0  0
  161.5040  207.9260  151.7020 C   0  0  1  0  0  3  0  0  0  0  0  0
  162.7280  205.9490  152.6470 C   0  0  0  0  0  3  0  0  0  0  0  0
  162.7350  207.1070  151.9750 C   0  0  0  0  0  3  0  0  0  0  0  0
  161.4790  205.3110  153.1740 C   0  0  2  0  0  3  0  0  0  0  0  0
  160.7730  204.5670  152.0820 C   0  0  0  0  0  0  0  0  0  0  0  0
  160.7980  203.1790  152.0760 O   0  0  0  0  0  1  0  0  0  0  0  0
  160.1490  205.1850  151.1760 O   0  0  0  0  0  0  0  0  0  0  0  0
  160.5800  206.3790  153.7900 C   0  0  0  0  0  2  0  0  0  0  0  0
  161.0130  206.6930  155.1410 N   0  0  0  0  0  0  0  0  0  0  0  0
  161.0690  208.1300  155.2490 C   0  0  1  0  0  3  0  0  0  0  0  0
  159.9960  207.4390  155.7100 O   0  0  0  0  0  0  0  0  0  0  0  0
  161.8890  208.5010  156.3500 O   0  0  0  0  0  0  0  0  0  0  0  0
  162.0090  209.8210  156.7950 C   0  0  0  0  0  0  0  0  0  0  0  0
  160.9390  210.4450  157.2590 C   0  0  0  0  0  2  0  0  0  0  0  0
  163.3130  210.5430  156.7720 C   0  0  0  0  0  1  0  0  0  0  0  0
  161.4250  209.1200  152.6470 C   0  0  0  0  0  2  0  0  0  0  0  0
  160.4090  210.1000  152.1680 C   0  0  0  0  0  3  0  0  0  0  0  0
  159.4770  210.5500  153.0020 C   0  0  0  0  0  2  0  0  0  0  0  0
  1  2  1  6  0  0  0
  1 37  1  0  0  0  0
  3  2  1  0  0  0  0
  4  7  1  0  0  0  0
  5  3  1  0  0  0  0
  5  9  2  0  0  0  0
  6  5  1  0  0  0  0
  7  9  1  0  0  0  0
  8 11  1  6  0  0  0
  8  6  1  0  0  0  0
  8  4  1  0  0  0  0
 10 11  1  0  0  0  0
 12  1  1  0  0  0  0
 13 12  1  0  0  0  0
 13 14  1  0  0  0  0
 15 14  1  0  0  0  0
 16 15  1  0  0  0  0
 16 17  1  0  0  0  0
 19 18  1  0  0  0  0
 19 22  1  0  0  0  0
 20 25  1  0  0  0  0
 22 21  1  0  0  0  0
 23 18  1  1  0  0  0
 23 26  1  0  0  0  0
 23 20  1  0  0  0  0
 24 33  1  1  0  0  0
 25 21  1  6  0  0  0
 25 24  1  0  0  0  0
 26 27  1  0  0  0  0
 27 24  1  0  0  0  0
 27 17  1  6  0  0  0
 28 32  1  0  0  0  0
 29 34  1  0  0  0  0
 30 31  2  0  0  0  0
 31 29  1  0  0  0  0
 32 29  2  0  0  0  0
 33 28  2  0  0  0  0
 33 30  1  0  0  0  0
 34 35  1  6  0  0  0
 34 36  1  0  0  0  0
 38 37  1  6  0  0  0
 38 40  1  0  0  0  0
 38 53  1  0  0  0  0
 40 39  2  0  0  0  0
 41 39  1  6  0  0  0
 41 45  1  0  0  0  0
 42 41  1  0  0  0  0
 43 42  1  0  0  0  0
 44 42  2  0  0  0  0
 45 46  1  0  0  0  0
 46 47  1  0  0  0  0
 46 48  1  0  0  0  0
 47 48  1  0  0  0  0
 47 49  1  1  0  0  0
 49 50  1  0  0  0  0
 50 51  2  0  0  0  0
 52 50  1  0  0  0  0
 54 53  1  0  0  0  0
 54 55  2  0  0  0  0
M  END
>  <MODEL>
2

>  <REMARK>
 VINA RESULT:      -5.9      2.189      7.155
  Name = 
  24 active torsions:
  status: ('A' for Active; 'I' for Inactive)
    1  A    between atoms: C_1  and  C_53
    2  A    between atoms: N_3  and  C_38
    3  A    between atoms: C_4  and  O_35
    4  A    between atoms: C_4  and  C_37
    5  A    between atoms: C_5  and  C_37
    6  A    between atoms: C_5  and  O_40
    7  A    between atoms: C_6  and  C_53
    8  A    between atoms: C_7  and  C_20
    9  A    between atoms: C_8  and  C_22
   10  A    between atoms: C_8  and  C_43
   11  A    between atoms: C_10  and  C_32
   12  A    between atoms: C_11  and  O_50
   13  A    between atoms: C_12  and  O_50
   14  A    between atoms: C_19  and  O_40
   15  A    between atoms: C_19  and  C_49
   16  A    between atoms: C_20  and  C_22
   17  A    between atoms: C_22  and  C_46
   18  A    between atoms: C_27  and  C_54
   19  A    between atoms: O_28  and  C_44
   20  A    between atoms: C_33  and  C_52
   21  A    between atoms: O_35  and  C_43
   22  A    between atoms: C_38  and  C_53
   23  A    between atoms: C_43  and  C_51
   24  A    between atoms: C_51  and  C_54
                            x       y       z     vdW  Elec       q    Type
                         _______ _______ _______ _____ _____    ______ ____

>  <TORSDO>
F 24

$$$$
=
 OpenBabel11062408383D

 55 59  0  0  1  0  0  0  0  0999 V2000
  161.0930  211.4290  151.1480 C   0  0  1  0  0  3  0  0  0  0  0  0
  160.2600  211.8530  152.3560 C   0  0  0  0  0  2  0  0  0  0  0  0
  159.6030  210.6490  153.0060 C   0  0  0  0  0  2  0  0  0  0  0  0
  158.3200  212.3020  156.7890 C   0  0  0  0  0  2  0  0  0  0  0  0
  159.1370  211.0010  154.3780 C   0  0  0  0  0  0  0  0  0  0  0  0
  157.6770  211.3370  154.5730 C   0  0  0  0  0  2  0  0  0  0  0  0
  159.6500  211.5580  156.7580 C   0  0  0  0  0  2  0  0  0  0  0  0
  157.2780  211.4760  156.0430 C   0  0  2  0  0  3  0  0  0  0  0  0
  160.0430  211.1880  155.3510 C   0  0  0  0  0  3  0  0  0  0  0  0
  155.7790  212.5150  154.9090 O   0  0  0  0  0  1  0  0  0  0  0  0
  156.0330  212.0970  156.1320 O   0  0  0  0  0  0  0  0  0  0  0  0
  161.1800  210.0340  151.0840 O   0  0  0  0  0  0  0  0  0  0  0  0
  161.7630  209.7470  149.8460 C   0  0  0  0  0  2  0  0  0  0  0  0
  162.8710  208.7100  150.0010 C   0  0  0  0  0  2  0  0  0  0  0  0
  163.0700  207.9120  148.7240 C   0  0  0  0  0  2  0  0  0  0  0  0
  161.8940  207.9300  147.9730 O   0  0  0  0  0  0  0  0  0  0  0  0
  162.0260  206.8740  147.0750 C   0  0  0  0  0  2  0  0  0  0  0  0
  159.9080  203.1940  145.2370 C   0  0  0  0  0  2  0  0  0  0  0  0
  160.4230  201.7520  145.3020 C   0  0  0  0  0  2  0  0  0  0  0  0
  162.1000  203.9170  146.1440 O   0  0  0  0  0  0  0  0  0  0  0  0
  160.9960  202.3790  147.7280 C   0  0  0  0  0  2  0  0  0  0  0  0
  161.2310  201.4100  146.5670 C   0  0  0  0  0  2  0  0  0  0  0  0
  161.0280  204.2450  145.2690 C   0  0  2  0  0  3  0  0  0  0  0  0
  160.7160  204.8830  147.9610 C   0  0  2  0  0  3  0  0  0  0  0  0
  161.6450  203.7500  147.4840 C   0  0  2  0  0  3  0  0  0  0  0  0
  160.4490  205.6350  145.5730 C   0  0  0  0  0  2  0  0  0  0  0  0
  160.7180  206.0910  147.0130 C   0  0  2  0  0  3  0  0  0  0  0  0
  161.6360  204.3750  150.2310 C   0  0  0  0  0  3  0  0  0  0  0  0
  161.2650  205.8430  152.1280 C   0  0  0  0  0  0  0  0  0  0  0  0
  160.3520  206.4080  149.9500 C   0  0  0  0  0  3  0  0  0  0  0  0
  160.5280  206.7080  151.3050 C   0  0  0  0  0  3  0  0  0  0  0  0
  161.8150  204.6760  151.5860 C   0  0  0  0  0  3  0  0  0  0  0  0
  160.9090  205.2400  149.4070 C   0  0  0  0  0  0  0  0  0  0  0  0
  161.4560  206.1320  153.5820 C   0  0  1  0  0  3  0  0  0  0  0  0
  161.2630  207.6080  153.8760 C   0  0  0  0  0  1  0  0  0  0  0  0
  160.5320  205.3450  154.3820 N   0  0  0  0  0  1  0  0  0  0  0  0
  160.5240  211.9800  149.8290 C   0  0  0  0  0  2  0  0  0  0  0  0
  159.9580  213.4150  149.8560 C   0  0  1  0  0  3  0  0  0  0  0  0
  161.6610  214.4530  148.3340 C   0  0  0  0  0  3  0  0  0  0  0  0
  160.9830  214.4510  149.4880 C   0  0  0  0  0  3  0  0  0  0  0  0
  161.4480  213.4400  147.2520 C   0  0  2  0  0  3  0  0  0  0  0  0
  162.7230  212.7090  146.9630 C   0  0  0  0  0  0  0  0  0  0  0  0
  163.5030  213.1010  145.8840 O   0  0  0  0  0  0  0  0  0  0  0  0
  163.1000  211.7510  147.6920 O   0  0  0  0  0  1  0  0  0  0  0  0
  160.9080  214.1310  146.0030 C   0  0  0  0  0  2  0  0  0  0  0  0
  160.3580  213.1560  145.0780 N   0  0  0  0  0  0  0  0  0  0  0  0
  160.0160  213.8600  143.8670 C   0  0  1  0  0  3  0  0  0  0  0  0
  161.1800  213.1700  143.9650 O   0  0  0  0  0  0  0  0  0  0  0  0
  159.0880  213.0970  143.1070 O   0  0  0  0  0  0  0  0  0  0  0  0
  158.8030  213.3660  141.7650 C   0  0  0  0  0  0  0  0  0  0  0  0
  158.0620  214.4190  141.4620 C   0  0  0  0  0  2  0  0  0  0  0  0
  159.3190  212.5040  140.6630 C   0  0  0  0  0  1  0  0  0  0  0  0
  158.7150  213.5460  148.9820 C   0  0  0  0  0  2  0  0  0  0  0  0
  157.5010  213.1060  149.7280 C   0  0  0  0  0  3  0  0  0  0  0  0
  156.3200  213.6460  149.4480 C   0  0  0  0  0  2  0  0  0  0  0  0
  1 37  1  6  0  0  0
  1  2  1  0  0  0  0
  2  3  1  0  0  0  0
  3  5  1  0  0  0  0
  5  6  1  0  0  0  0
  5  9  2  0  0  0  0
  6  8  1  0  0  0  0
  7  4  1  0  0  0  0
  8 11  1  6  0  0  0
  8  4  1  0  0  0  0
  9  7  1  0  0  0  0
 10 11  1  0  0  0  0
 12  1  1  0  0  0  0
 13 14  1  0  0  0  0
 13 12  1  0  0  0  0
 15 14  1  0  0  0  0
 16 15  1  0  0  0  0
 17 16  1  0  0  0  0
 18 19  1  0  0  0  0
 19 22  1  0  0  0  0
 20 25  1  0  0  0  0
 22 21  1  0  0  0  0
 23 18  1  1  0  0  0
 23 26  1  0  0  0  0
 23 20  1  0  0  0  0
 24 33  1  1  0  0  0
 25 21  1  6  0  0  0
 25 24  1  0  0  0  0
 26 27  1  0  0  0  0
 27 17  1  6  0  0  0
 27 24  1  0  0  0  0
 28 32  1  0  0  0  0
 29 34  1  0  0  0  0
 30 31  2  0  0  0  0
 31 29  1  0  0  0  0
 32 29  2  0  0  0  0
 33 30  1  0  0  0  0
 33 28  2  0  0  0  0
 34 35  1  6  0  0  0
 34 36  1  0  0  0  0
 37 38  1  0  0  0  0
 38 53  1  6  0  0  0
 39 40  2  0  0  0  0
 40 38  1  0  0  0  0
 41 45  1  6  0  0  0
 41 39  1  0  0  0  0
 42 41  1  0  0  0  0
 42 44  1  0  0  0  0
 43 42  2  0  0  0  0
 46 45  1  0  0  0  0
 47 49  1  6  0  0  0
 47 48  1  0  0  0  0
 47 46  1  0  0  0  0
 48 46  1  0  0  0  0
 50 49  1  0  0  0  0
 51 50  2  0  0  0  0
 52 50  1  0  0  0  0
 53 54  1  0  0  0  0
 55 54  2  0  0  0  0
M  END
>  <MODEL>
3

>  <REMARK>
 VINA RESULT:      -5.3      2.747      8.612
  Name = 
  24 active torsions:
  status: ('A' for Active; 'I' for Inactive)
    1  A    between atoms: C_1  and  C_53
    2  A    between atoms: N_3  and  C_38
    3  A    between atoms: C_4  and  O_35
    4  A    between atoms: C_4  and  C_37
    5  A    between atoms: C_5  and  C_37
    6  A    between atoms: C_5  and  O_40
    7  A    between atoms: C_6  and  C_53
    8  A    between atoms: C_7  and  C_20
    9  A    between atoms: C_8  and  C_22
   10  A    between atoms: C_8  and  C_43
   11  A    between atoms: C_10  and  C_32
   12  A    between atoms: C_11  and  O_50
   13  A    between atoms: C_12  and  O_50
   14  A    between atoms: C_19  and  O_40
   15  A    between atoms: C_19  and  C_49
   16  A    between atoms: C_20  and  C_22
   17  A    between atoms: C_22  and  C_46
   18  A    between atoms: C_27  and  C_54
   19  A    between atoms: O_28  and  C_44
   20  A    between atoms: C_33  and  C_52
   21  A    between atoms: O_35  and  C_43
   22  A    between atoms: C_38  and  C_53
   23  A    between atoms: C_43  and  C_51
   24  A    between atoms: C_51  and  C_54
                            x       y       z     vdW  Elec       q    Type
                         _______ _______ _______ _____ _____    ______ ____

>  <TORSDO>
F 24

$$$$
=
 OpenBabel11062408383D

 55 59  0  0  1  0  0  0  0  0999 V2000
  160.8630  211.7640  150.4010 C   0  0  1  0  0  3  0  0  0  0  0  0
  161.3160  212.9900  149.6110 C   0  0  0  0  0  2  0  0  0  0  0  0
  161.8600  212.5850  148.2530 C   0  0  0  0  0  2  0  0  0  0  0  0
  159.2620  214.4360  145.3360 C   0  0  0  0  0  2  0  0  0  0  0  0
  160.9170  213.0090  147.1780 C   0  0  0  0  0  0  0  0  0  0  0  0
  161.4940  213.4310  145.8470 C   0  0  0  0  0  2  0  0  0  0  0  0
  158.6090  213.6210  146.4450 C   0  0  0  0  0  2  0  0  0  0  0  0
  160.4320  213.6430  144.7670 C   0  0  2  0  0  3  0  0  0  0  0  0
  159.6190  213.1820  147.4740 C   0  0  0  0  0  3  0  0  0  0  0  0
  160.4000  213.8320  142.6280 O   0  0  0  0  0  1  0  0  0  0  0  0
  160.9920  214.3330  143.6920 O   0  0  0  0  0  0  0  0  0  0  0  0
  161.8740  210.7960  150.4170 O   0  0  0  0  0  0  0  0  0  0  0  0
  161.7980  210.1480  149.1800 C   0  0  0  0  0  2  0  0  0  0  0  0
  162.2770  208.7050  149.2990 C   0  0  0  0  0  2  0  0  0  0  0  0
  162.8620  208.2020  147.9910 C   0  0  0  0  0  2  0  0  0  0  0  0
  161.8730  207.5400  147.2610 O   0  0  0  0  0  0  0  0  0  0  0  0
  162.1860  206.1880  147.3750 C   0  0  0  0  0  2  0  0  0  0  0  0
  160.2780  202.1400  146.2010 C   0  0  0  0  0  2  0  0  0  0  0  0
  160.8140  200.7610  146.6000 C   0  0  0  0  0  2  0  0  0  0  0  0
  162.3840  203.1070  147.0860 O   0  0  0  0  0  0  0  0  0  0  0  0
  161.1950  201.8920  148.8760 C   0  0  0  0  0  2  0  0  0  0  0  0
  161.5330  200.7140  147.9600 C   0  0  0  0  0  2  0  0  0  0  0  0
  161.3730  203.2120  146.0910 C   0  0  2  0  0  3  0  0  0  0  0  0
  160.8520  204.3800  148.5640 C   0  0  2  0  0  3  0  0  0  0  0  0
  161.8350  203.2050  148.3970 C   0  0  2  0  0  3  0  0  0  0  0  0
  160.7480  204.6150  146.0590 C   0  0  0  0  0  2  0  0  0  0  0  0
  160.9020  205.3660  147.3890 C   0  0  2  0  0  3  0  0  0  0  0  0
  160.6880  206.4050  150.0230 C   0  0  0  0  0  3  0  0  0  0  0  0
  161.1080  206.3080  152.4120 C   0  0  0  0  0  0  0  0  0  0  0  0
  161.2730  204.2980  151.0600 C   0  0  0  0  0  3  0  0  0  0  0  0
  161.3610  204.9330  152.3030 C   0  0  0  0  0  3  0  0  0  0  0  0
  160.7730  207.0410  151.2670 C   0  0  0  0  0  3  0  0  0  0  0  0
  160.9320  205.0330  149.9140 C   0  0  0  0  0  0  0  0  0  0  0  0
  161.2090  207.0140  153.7250 C   0  0  1  0  0  3  0  0  0  0  0  0
  160.7050  208.4410  153.6190 C   0  0  0  0  0  1  0  0  0  0  0  0
  160.4560  206.3000  154.7430 N   0  0  0  0  0  1  0  0  0  0  0  0
  160.4540  212.1190  151.8400 C   0  0  0  0  0  2  0  0  0  0  0  0
  159.0140  212.6340  152.0520 C   0  0  1  0  0  3  0  0  0  0  0  0
  158.4850  214.2470  153.9000 C   0  0  0  0  0  3  0  0  0  0  0  0
  158.9730  214.0000  152.6780 C   0  0  0  0  0  3  0  0  0  0  0  0
  157.9590  213.1770  154.8070 C   0  0  2  0  0  3  0  0  0  0  0  0
  156.4620  213.2250  154.8560 C   0  0  0  0  0  0  0  0  0  0  0  0
  155.8220  214.4530  154.9420 O   0  0  0  0  0  1  0  0  0  0  0  0
  155.7790  212.1650  154.8090 O   0  0  0  0  0  0  0  0  0  0  0  0
  158.5660  213.3430  156.1980 C   0  0  0  0  0  2  0  0  0  0  0  0
  159.1780  212.1010  156.6380 N   0  0  0  0  0  0  0  0  0  0  0  0
  160.4060  211.9440  155.8990 C   0  0  1  0  0  3  0  0  0  0  0  0
  160.4130  212.4420  157.1610 O   0  0  0  0  0  0  0  0  0  0  0  0
  160.8230  210.5850  155.9340 O   0  0  0  0  0  0  0  0  0  0  0  0
  162.0230  210.1750  156.5200 C   0  0  0  0  0  0  0  0  0  0  0  0
  163.0880  210.9550  156.4250 C   0  0  0  0  0  2  0  0  0  0  0  0
  162.1370  208.8850  157.2610 C   0  0  0  0  0  1  0  0  0  0  0  0
  158.2120  212.6050  150.7560 C   0  0  0  0  0  2  0  0  0  0  0  0
  157.5550  213.9220  150.5160 C   0  0  0  0  0  3  0  0  0  0  0  0
  156.5090  214.0020  149.7010 C   0  0  0  0  0  2  0  0  0  0  0  0
  1  2  1  1  0  0  0
  1 12  1  0  0  0  0
  1 37  1  0  0  0  0
  3  2  1  0  0  0  0
  4  7  1  0  0  0  0
  5  9  2  0  0  0  0
  5  3  1  0  0  0  0
  6  5  1  0  0  0  0
  7  9  1  0  0  0  0
  8 11  1  6  0  0  0
  8  4  1  0  0  0  0
  8  6  1  0  0  0  0
 10 11  1  0  0  0  0
 13 14  1  0  0  0  0
 13 12  1  0  0  0  0
 15 14  1  0  0  0  0
 16 17  1  0  0  0  0
 16 15  1  0  0  0  0
 18 19  1  0  0  0  0
 19 22  1  0  0  0  0
 20 25  1  0  0  0  0
 22 21  1  0  0  0  0
 23 26  1  1  0  0  0
 23 18  1  0  0  0  0
 23 20  1  0  0  0  0
 24 33  1  1  0  0  0
 25 24  1  0  0  0  0
 25 21  1  6  0  0  0
 26 27  1  0  0  0  0
 27 17  1  6  0  0  0
 27 24  1  0  0  0  0
 28 32  1  0  0  0  0
 29 34  1  0  0  0  0
 30 31  2  0  0  0  0
 31 29  1  0  0  0  0
 32 29  2  0  0  0  0
 33 28  2  0  0  0  0
 33 30  1  0  0  0  0
 34 35  1  6  0  0  0
 34 36  1  0  0  0  0
 37 38  1  0  0  0  0
 38 53  1  6  0  0  0
 38 40  1  0  0  0  0
 40 39  2  0  0  0  0
 41 39  1  6  0  0  0
 41 42  1  0  0  0  0
 41 45  1  0  0  0  0
 42 43  1  0  0  0  0
 44 42  2  0  0  0  0
 45 46  1  0  0  0  0
 46 48  1  0  0  0  0
 47 49  1  1  0  0  0
 47 46  1  0  0  0  0
 47 48  1  0  0  0  0
 49 50  1  0  0  0  0
 50 52  1  0  0  0  0
 51 50  2  0  0  0  0
 54 53  1  0  0  0  0
 55 54  2  0  0  0  0
M  END
>  <MODEL>
4

>  <REMARK>
 VINA RESULT:      -5.3      2.362     10.542
  Name = 
  24 active torsions:
  status: ('A' for Active; 'I' for Inactive)
    1  A    between atoms: C_1  and  C_53
    2  A    between atoms: N_3  and  C_38
    3  A    between atoms: C_4  and  O_35
    4  A    between atoms: C_4  and  C_37
    5  A    between atoms: C_5  and  C_37
    6  A    between atoms: C_5  and  O_40
    7  A    between atoms: C_6  and  C_53
    8  A    between atoms: C_7  and  C_20
    9  A    between atoms: C_8  and  C_22
   10  A    between atoms: C_8  and  C_43
   11  A    between atoms: C_10  and  C_32
   12  A    between atoms: C_11  and  O_50
   13  A    between atoms: C_12  and  O_50
   14  A    between atoms: C_19  and  O_40
   15  A    between atoms: C_19  and  C_49
   16  A    between atoms: C_20  and  C_22
   17  A    between atoms: C_22  and  C_46
   18  A    between atoms: C_27  and  C_54
   19  A    between atoms: O_28  and  C_44
   20  A    between atoms: C_33  and  C_52
   21  A    between atoms: O_35  and  C_43
   22  A    between atoms: C_38  and  C_53
   23  A    between atoms: C_43  and  C_51
   24  A    between atoms: C_51  and  C_54
                            x       y       z     vdW  Elec       q    Type
                         _______ _______ _______ _____ _____    ______ ____

>  <TORSDO>
F 24

$$$$
=
 OpenBabel11062408383D

 55 59  0  0  1  0  0  0  0  0999 V2000
  161.0170  207.5860  149.2420 C   0  0  1  0  0  3  0  0  0  0  0  0
  160.7500  206.7000  150.4570 C   0  0  0  0  0  2  0  0  0  0  0  0
  161.9190  206.7440  151.4230 C   0  0  0  0  0  2  0  0  0  0  0  0
  160.1640  208.8480  154.7670 C   0  0  0  0  0  2  0  0  0  0  0  0
  161.5200  207.4500  152.6750 C   0  0  0  0  0  0  0  0  0  0  0  0
  160.8050  206.6580  153.7450 C   0  0  0  0  0  2  0  0  0  0  0  0
  161.2430  209.5690  153.9670 C   0  0  0  0  0  2  0  0  0  0  0  0
  160.6340  207.4280  155.0550 C   0  0  2  0  0  3  0  0  0  0  0  0
  161.6370  208.7850  152.7410 C   0  0  0  0  0  3  0  0  0  0  0  0
  160.2850  206.6700  157.0340 O   0  0  0  0  0  1  0  0  0  0  0  0
  159.6990  206.7770  155.8600 O   0  0  0  0  0  0  0  0  0  0  0  0
  162.3460  208.0240  149.2440 O   0  0  0  0  0  0  0  0  0  0  0  0
  162.3390  209.2550  149.9070 C   0  0  0  0  0  2  0  0  0  0  0  0
  161.8380  210.3600  148.9810 C   0  0  0  0  0  2  0  0  0  0  0  0
  162.9890  211.0870  148.3080 C   0  0  0  0  0  2  0  0  0  0  0  0
  162.5210  212.2690  147.7310 O   0  0  0  0  0  0  0  0  0  0  0  0
  161.2610  212.4670  148.2900 C   0  0  0  0  0  2  0  0  0  0  0  0
  158.7750  214.4530  144.9310 C   0  0  0  0  0  2  0  0  0  0  0  0
  157.3810  214.0050  144.4800 C   0  0  0  0  0  2  0  0  0  0  0  0
  158.8990  212.3770  146.2830 O   0  0  0  0  0  0  0  0  0  0  0  0
  156.9700  213.7400  147.0030 C   0  0  0  0  0  2  0  0  0  0  0  0
  156.5090  213.3870  145.5870 C   0  0  0  0  0  2  0  0  0  0  0  0
  159.6310  213.3100  145.4970 C   0  0  2  0  0  3  0  0  0  0  0  0
  159.2040  213.9560  148.1710 C   0  0  2  0  0  3  0  0  0  0  0  0
  158.2680  213.0140  147.3910 C   0  0  2  0  0  3  0  0  0  0  0  0
  160.8400  213.8720  146.2590 C   0  0  0  0  0  2  0  0  0  0  0  0
  160.6790  213.7820  147.7820 C   0  0  2  0  0  3  0  0  0  0  0  0
  160.0170  214.2210  150.5220 C   0  0  0  0  0  3  0  0  0  0  0  0
  158.5550  213.9000  152.4330 C   0  0  0  0  0  0  0  0  0  0  0  0
  157.6920  213.6400  150.1780 C   0  0  0  0  0  3  0  0  0  0  0  0
  157.4920  213.6170  151.5620 C   0  0  0  0  0  3  0  0  0  0  0  0
  159.8170  214.2000  151.9070 C   0  0  0  0  0  3  0  0  0  0  0  0
  158.9570  213.9460  149.6520 C   0  0  0  0  0  0  0  0  0  0  0  0
  158.3720  213.8680  153.9160 C   0  0  1  0  0  3  0  0  0  0  0  0
  157.0160  214.4220  154.3110 C   0  0  0  0  0  1  0  0  0  0  0  0
  158.5140  212.5100  154.4150 N   0  0  0  0  0  1  0  0  0  0  0  0
  160.7040  206.8670  147.9190 C   0  0  0  0  0  2  0  0  0  0  0  0
  161.0510  205.3650  147.8390 C   0  0  1  0  0  3  0  0  0  0  0  0
  162.7050  204.6480  146.0940 C   0  0  0  0  0  3  0  0  0  0  0  0
  162.4390  205.1170  147.3190 C   0  0  0  0  0  3  0  0  0  0  0  0
  161.6450  204.3520  145.0780 C   0  0  2  0  0  3  0  0  0  0  0  0
  161.2720  205.5980  144.3340 C   0  0  0  0  0  0  0  0  0  0  0  0
  160.6150  206.6210  145.0040 O   0  0  0  0  0  1  0  0  0  0  0  0
  161.5570  205.7320  143.1120 O   0  0  0  0  0  0  0  0  0  0  0  0
  160.4320  203.7340  145.7700 C   0  0  0  0  0  2  0  0  0  0  0  0
  160.0790  202.4700  145.1480 N   0  0  0  0  0  0  0  0  0  0  0  0
  160.6270  201.4200  145.9710 C   0  0  1  0  0  3  0  0  0  0  0  0
  159.3230  201.7780  146.0770 O   0  0  0  0  0  0  0  0  0  0  0  0
  160.7180  200.2150  145.2220 O   0  0  0  0  0  0  0  0  0  0  0  0
  161.3810  199.0780  145.6930 C   0  0  0  0  0  0  0  0  0  0  0  0
  161.7330  199.0170  146.9670 C   0  0  0  0  0  2  0  0  0  0  0  0
  161.6950  197.9250  144.8000 C   0  0  0  0  0  1  0  0  0  0  0  0
  160.8400  204.6680  149.1790 C   0  0  0  0  0  2  0  0  0  0  0  0
  161.4120  203.2930  149.1500 C   0  0  0  0  0  3  0  0  0  0  0  0
  160.7500  202.2870  149.7130 C   0  0  0  0  0  2  0  0  0  0  0  0
  1 37  1  6  0  0  0
  1 12  1  0  0  0  0
  1  2  1  0  0  0  0
  2  3  1  0  0  0  0
  3  5  1  0  0  0  0
  4  8  1  0  0  0  0
  5  9  2  0  0  0  0
  5  6  1  0  0  0  0
  6  8  1  0  0  0  0
  7  4  1  0  0  0  0
  8 11  1  1  0  0  0
  9  7  1  0  0  0  0
 11 10  1  0  0  0  0
 12 13  1  0  0  0  0
 14 13  1  0  0  0  0
 15 14  1  0  0  0  0
 16 17  1  0  0  0  0
 16 15  1  0  0  0  0
 19 18  1  0  0  0  0
 19 22  1  0  0  0  0
 20 25  1  0  0  0  0
 22 21  1  0  0  0  0
 23 18  1  1  0  0  0
 23 26  1  0  0  0  0
 23 20  1  0  0  0  0
 24 33  1  1  0  0  0
 25 21  1  6  0  0  0
 25 24  1  0  0  0  0
 26 27  1  0  0  0  0
 27 24  1  0  0  0  0
 27 17  1  6  0  0  0
 28 32  1  0  0  0  0
 29 34  1  0  0  0  0
 30 31  2  0  0  0  0
 31 29  1  0  0  0  0
 32 29  2  0  0  0  0
 33 30  1  0  0  0  0
 33 28  2  0  0  0  0
 34 35  1  6  0  0  0
 34 36  1  0  0  0  0
 38 40  1  1  0  0  0
 38 37  1  0  0  0  0
 38 53  1  0  0  0  0
 39 40  2  0  0  0  0
 41 45  1  1  0  0  0
 41 39  1  0  0  0  0
 42 43  1  0  0  0  0
 42 41  1  0  0  0  0
 44 42  2  0  0  0  0
 46 45  1  0  0  0  0
 46 47  1  0  0  0  0
 46 48  1  0  0  0  0
 47 49  1  6  0  0  0
 47 48  1  0  0  0  0
 49 50  1  0  0  0  0
 50 51  2  0  0  0  0
 52 50  1  0  0  0  0
 54 53  1  0  0  0  0
 54 55  2  0  0  0  0
M  END
>  <MODEL>
5

>  <REMARK>
 VINA RESULT:      -4.9      1.618      2.325
  Name = 
  24 active torsions:
  status: ('A' for Active; 'I' for Inactive)
    1  A    between atoms: C_1  and  C_53
    2  A    between atoms: N_3  and  C_38
    3  A    between atoms: C_4  and  O_35
    4  A    between atoms: C_4  and  C_37
    5  A    between atoms: C_5  and  C_37
    6  A    between atoms: C_5  and  O_40
    7  A    between atoms: C_6  and  C_53
    8  A    between atoms: C_7  and  C_20
    9  A    between atoms: C_8  and  C_22
   10  A    between atoms: C_8  and  C_43
   11  A    between atoms: C_10  and  C_32
   12  A    between atoms: C_11  and  O_50
   13  A    between atoms: C_12  and  O_50
   14  A    between atoms: C_19  and  O_40
   15  A    between atoms: C_19  and  C_49
   16  A    between atoms: C_20  and  C_22
   17  A    between atoms: C_22  and  C_46
   18  A    between atoms: C_27  and  C_54
   19  A    between atoms: O_28  and  C_44
   20  A    between atoms: C_33  and  C_52
   21  A    between atoms: O_35  and  C_43
   22  A    between atoms: C_38  and  C_53
   23  A    between atoms: C_43  and  C_51
   24  A    between atoms: C_51  and  C_54
                            x       y       z     vdW  Elec       q    Type
                         _______ _______ _______ _____ _____    ______ ____

>  <TORSDO>
F 24

$$$$
=
 OpenBabel11062408383D

 55 59  0  0  1  0  0  0  0  0999 V2000
  161.0940  207.2670  151.2190 C   0  0  1  0  0  3  0  0  0  0  0  0
  161.7940  207.3070  152.5760 C   0  0  0  0  0  2  0  0  0  0  0  0
  160.8100  207.0370  153.6980 C   0  0  0  0  0  2  0  0  0  0  0  0
  161.3700  210.5300  156.1830 C   0  0  0  0  0  2  0  0  0  0  0  0
  160.8110  208.1750  154.6630 C   0  0  0  0  0  0  0  0  0  0  0  0
  160.2320  209.4950  154.2110 C   0  0  0  0  0  2  0  0  0  0  0  0
  161.5410  209.1640  156.8370 C   0  0  0  0  0  2  0  0  0  0  0  0
  160.0990  210.5160  155.3420 C   0  0  2  0  0  3  0  0  0  0  0  0
  161.4820  208.0540  155.8190 C   0  0  0  0  0  3  0  0  0  0  0  0
  160.3260  212.6190  155.7160 O   0  0  0  0  0  1  0  0  0  0  0  0
  159.8770  211.7830  154.8030 O   0  0  0  0  0  0  0  0  0  0  0  0
  160.7910  208.5650  150.7910 O   0  0  0  0  0  0  0  0  0  0  0  0
  162.0180  209.1530  150.4690 C   0  0  0  0  0  2  0  0  0  0  0  0
  161.9570  209.8030  149.0910 C   0  0  0  0  0  2  0  0  0  0  0  0
  162.4310  211.2450  149.1320 C   0  0  0  0  0  2  0  0  0  0  0  0
  161.5030  212.0620  148.4840 O   0  0  0  0  0  0  0  0  0  0  0  0
  161.6020  213.2950  149.1230 C   0  0  0  0  0  2  0  0  0  0  0  0
  160.0410  214.3550  144.8990 C   0  0  0  0  0  2  0  0  0  0  0  0
  159.0750  213.4990  144.0720 C   0  0  0  0  0  2  0  0  0  0  0  0
  160.2280  212.4490  146.4760 O   0  0  0  0  0  0  0  0  0  0  0  0
  157.8790  213.1960  146.3270 C   0  0  0  0  0  2  0  0  0  0  0  0
  158.0660  212.6820  144.8980 C   0  0  0  0  0  2  0  0  0  0  0  0
  160.9120  213.5340  145.8620 C   0  0  2  0  0  3  0  0  0  0  0  0
  159.4040  214.1010  148.1330 C   0  0  2  0  0  3  0  0  0  0  0  0
  159.0970  212.9010  147.2170 C   0  0  2  0  0  3  0  0  0  0  0  0
  161.5720  214.4520  146.9020 C   0  0  0  0  0  2  0  0  0  0  0  0
  160.9090  214.3620  148.2830 C   0  0  2  0  0  3  0  0  0  0  0  0
  157.2590  214.0500  149.4190 C   0  0  0  0  0  3  0  0  0  0  0  0
  157.2140  214.0230  151.8460 C   0  0  0  0  0  0  0  0  0  0  0  0
  159.3350  214.0580  150.6640 C   0  0  0  0  0  3  0  0  0  0  0  0
  158.6160  214.0400  151.8640 C   0  0  0  0  0  3  0  0  0  0  0  0
  156.5390  214.0300  150.6190 C   0  0  0  0  0  3  0  0  0  0  0  0
  158.6570  214.0590  149.4350 C   0  0  0  0  0  0  0  0  0  0  0  0
  156.4210  214.0180  153.1130 C   0  0  1  0  0  3  0  0  0  0  0  0
  154.9320  214.0570  152.8270 C   0  0  0  0  0  1  0  0  0  0  0  0
  156.7410  212.8420  153.9060 N   0  0  0  0  0  1  0  0  0  0  0  0
  161.9340  206.5450  150.1520 C   0  0  0  0  0  2  0  0  0  0  0  0
  161.2610  206.2880  148.7870 C   0  0  1  0  0  3  0  0  0  0  0  0
  162.1000  205.9920  146.4410 C   0  0  0  0  0  3  0  0  0  0  0  0
  162.1600  206.6100  147.6270 C   0  0  0  0  0  3  0  0  0  0  0  0
  161.0980  204.9260  146.1190 C   0  0  2  0  0  3  0  0  0  0  0  0
  161.6900  203.5680  146.3370 C   0  0  0  0  0  0  0  0  0  0  0  0
  160.9480  202.4400  146.0160 O   0  0  0  0  0  0  0  0  0  0  0  0
  162.8580  203.4380  146.7990 O   0  0  0  0  0  1  0  0  0  0  0  0
  160.6150  205.0970  144.6810 C   0  0  0  0  0  2  0  0  0  0  0  0
  161.7410  205.2960  143.7850 N   0  0  0  0  0  0  0  0  0  0  0  0
  161.2470  205.9970  142.6260 C   0  0  1  0  0  3  0  0  0  0  0  0
  161.8750  206.6640  143.6270 O   0  0  0  0  0  0  0  0  0  0  0  0
  162.1510  205.8350  141.5400 O   0  0  0  0  0  0  0  0  0  0  0  0
  162.1180  206.6420  140.3990 C   0  0  0  0  0  0  0  0  0  0  0  0
  162.5020  206.1340  139.2390 C   0  0  0  0  0  2  0  0  0  0  0  0
  161.6520  208.0570  140.4490 C   0  0  0  0  0  1  0  0  0  0  0  0
  160.7300  204.8630  148.6840 C   0  0  0  0  0  2  0  0  0  0  0  0
  161.1090  204.0720  149.8890 C   0  0  0  0  0  3  0  0  0  0  0  0
  160.6810  202.8210  150.0230 C   0  0  0  0  0  2  0  0  0  0  0  0
  1 37  1  6  0  0  0
  1  2  1  0  0  0  0
  2  3  1  0  0  0  0
  3  5  1  0  0  0  0
  4  7  1  0  0  0  0
  5  9  2  0  0  0  0
  6  5  1  0  0  0  0
  6  8  1  0  0  0  0
  8 11  1  6  0  0  0
  8  4  1  0  0  0  0
  9  7  1  0  0  0  0
 11 10  1  0  0  0  0
 12  1  1  0  0  0  0
 13 12  1  0  0  0  0
 14 15  1  0  0  0  0
 14 13  1  0  0  0  0
 16 17  1  0  0  0  0
 16 15  1  0  0  0  0
 19 22  1  0  0  0  0
 19 18  1  0  0  0  0
 20 25  1  0  0  0  0
 22 21  1  0  0  0  0
 23 18  1  1  0  0  0
 23 20  1  0  0  0  0
 23 26  1  0  0  0  0
 24 27  1  0  0  0  0
 24 33  1  1  0  0  0
 25 21  1  6  0  0  0
 25 24  1  0  0  0  0
 26 27  1  0  0  0  0
 27 17  1  1  0  0  0
 28 33  2  0  0  0  0
 28 32  1  0  0  0  0
 29 31  1  0  0  0  0
 29 34  1  0  0  0  0
 30 31  2  0  0  0  0
 32 29  2  0  0  0  0
 33 30  1  0  0  0  0
 34 35  1  6  0  0  0
 34 36  1  0  0  0  0
 38 40  1  6  0  0  0
 38 37  1  0  0  0  0
 39 40  2  0  0  0  0
 41 45  1  6  0  0  0
 41 42  1  0  0  0  0
 41 39  1  0  0  0  0
 42 44  1  0  0  0  0
 43 42  2  0  0  0  0
 46 45  1  0  0  0  0
 47 49  1  6  0  0  0
 47 48  1  0  0  0  0
 47 46  1  0  0  0  0
 48 46  1  0  0  0  0
 50 52  1  0  0  0  0
 50 49  1  0  0  0  0
 51 50  2  0  0  0  0
 53 38  1  0  0  0  0
 53 54  1  0  0  0  0
 54 55  2  0  0  0  0
M  END
>  <MODEL>
6

>  <REMARK>
 VINA RESULT:      -4.5      1.908      2.923
  Name = 
  24 active torsions:
  status: ('A' for Active; 'I' for Inactive)
    1  A    between atoms: C_1  and  C_53
    2  A    between atoms: N_3  and  C_38
    3  A    between atoms: C_4  and  O_35
    4  A    between atoms: C_4  and  C_37
    5  A    between atoms: C_5  and  C_37
    6  A    between atoms: C_5  and  O_40
    7  A    between atoms: C_6  and  C_53
    8  A    between atoms: C_7  and  C_20
    9  A    between atoms: C_8  and  C_22
   10  A    between atoms: C_8  and  C_43
   11  A    between atoms: C_10  and  C_32
   12  A    between atoms: C_11  and  O_50
   13  A    between atoms: C_12  and  O_50
   14  A    between atoms: C_19  and  O_40
   15  A    between atoms: C_19  and  C_49
   16  A    between atoms: C_20  and  C_22
   17  A    between atoms: C_22  and  C_46
   18  A    between atoms: C_27  and  C_54
   19  A    between atoms: O_28  and  C_44
   20  A    between atoms: C_33  and  C_52
   21  A    between atoms: O_35  and  C_43
   22  A    between atoms: C_38  and  C_53
   23  A    between atoms: C_43  and  C_51
   24  A    between atoms: C_51  and  C_54
                            x       y       z     vdW  Elec       q    Type
                         _______ _______ _______ _____ _____    ______ ____

>  <TORSDO>
F 24

$$$$
=
 OpenBabel11062408383D

 55 59  0  0  1  0  0  0  0  0999 V2000
  161.6980  205.8550  145.5360 C   0  0  1  0  0  3  0  0  0  0  0  0
  161.1850  206.2030  144.1400 C   0  0  0  0  0  2  0  0  0  0  0  0
  161.9600  205.4440  143.0780 C   0  0  0  0  0  2  0  0  0  0  0  0
  161.5840  207.6680  139.3900 C   0  0  0  0  0  2  0  0  0  0  0  0
  162.0530  206.2610  141.8330 C   0  0  0  0  0  0  0  0  0  0  0  0
  161.6100  207.7040  141.8900 C   0  0  0  0  0  2  0  0  0  0  0  0
  162.4450  206.4100  139.3710 C   0  0  0  0  0  2  0  0  0  0  0  0
  161.9430  208.4900  140.6210 C   0  0  2  0  0  3  0  0  0  0  0  0
  162.3460  205.6550  140.6710 C   0  0  0  0  0  3  0  0  0  0  0  0
  162.0140  210.5420  139.9920 O   0  0  0  0  0  1  0  0  0  0  0  0
  161.2280  209.6870  140.6130 O   0  0  0  0  0  0  0  0  0  0  0  0
  161.0030  206.5890  146.5040 O   0  0  0  0  0  0  0  0  0  0  0  0
  161.9730  207.3320  147.1850 C   0  0  0  0  0  2  0  0  0  0  0  0
  161.3250  208.2150  148.2460 C   0  0  0  0  0  2  0  0  0  0  0  0
  162.3300  209.1710  148.8650 C   0  0  0  0  0  2  0  0  0  0  0  0
  162.2960  210.3900  148.1850 O   0  0  0  0  0  0  0  0  0  0  0  0
  161.5780  211.2450  149.0170 C   0  0  0  0  0  2  0  0  0  0  0  0
  161.6880  214.2110  145.4680 C   0  0  0  0  0  2  0  0  0  0  0  0
  160.5410  214.4530  144.4810 C   0  0  0  0  0  2  0  0  0  0  0  0
  160.4030  212.2770  146.3400 O   0  0  0  0  0  0  0  0  0  0  0  0
  159.0880  214.3520  146.6000 C   0  0  0  0  0  2  0  0  0  0  0  0
  159.1310  214.2750  145.0720 C   0  0  0  0  0  2  0  0  0  0  0  0
  161.6980  212.7930  146.0580 C   0  0  2  0  0  3  0  0  0  0  0  0
  160.5450  213.5070  148.4890 C   0  0  2  0  0  3  0  0  0  0  0  0
  159.7030  213.1080  147.2630 C   0  0  2  0  0  3  0  0  0  0  0  0
  162.6160  212.7290  147.2870 C   0  0  0  0  0  2  0  0  0  0  0  0
  161.8400  212.6910  148.6100 C   0  0  2  0  0  3  0  0  0  0  0  0
  160.3990  213.8870  150.9570 C   0  0  0  0  0  3  0  0  0  0  0  0
  158.3050  213.6880  152.1680 C   0  0  0  0  0  0  0  0  0  0  0  0
  158.3680  213.3190  149.7690 C   0  0  0  0  0  3  0  0  0  0  0  0
  157.6500  213.3720  150.9680 C   0  0  0  0  0  3  0  0  0  0  0  0
  159.6810  213.9440  152.1570 C   0  0  0  0  0  3  0  0  0  0  0  0
  159.7470  213.5800  149.7590 C   0  0  0  0  0  0  0  0  0  0  0  0
  157.5640  213.7390  153.4660 C   0  0  1  0  0  3  0  0  0  0  0  0
  157.0590  212.3640  153.8600 C   0  0  0  0  0  1  0  0  0  0  0  0
  158.4180  214.2700  154.5160 N   0  0  0  0  0  1  0  0  0  0  0  0
  161.5870  204.3510  145.8380 C   0  0  0  0  0  2  0  0  0  0  0  0
  161.6140  203.9320  147.3230 C   0  0  1  0  0  3  0  0  0  0  0  0
  160.4580  204.5390  149.4650 C   0  0  0  0  0  3  0  0  0  0  0  0
  160.5210  204.5760  148.1290 C   0  0  0  0  0  3  0  0  0  0  0  0
  161.4970  203.8810  150.3200 C   0  0  2  0  0  3  0  0  0  0  0  0
  160.9230  202.6800  151.0080 C   0  0  0  0  0  0  0  0  0  0  0  0
  160.5420  202.7750  152.3400 O   0  0  0  0  0  1  0  0  0  0  0  0
  160.7720  201.5900  150.3900 O   0  0  0  0  0  0  0  0  0  0  0  0
  162.0440  204.8890  151.3270 C   0  0  0  0  0  2  0  0  0  0  0  0
  161.4960  206.2110  151.0740 N   0  0  0  0  0  0  0  0  0  0  0  0
  161.7030  206.9950  152.2660 C   0  0  1  0  0  3  0  0  0  0  0  0
  162.5480  207.0990  151.2090 O   0  0  0  0  0  0  0  0  0  0  0  0
  160.8250  208.1130  152.2700 O   0  0  0  0  0  0  0  0  0  0  0  0
  160.9360  209.1630  153.1860 C   0  0  0  0  0  0  0  0  0  0  0  0
  161.4070  210.3290  152.7770 C   0  0  0  0  0  2  0  0  0  0  0  0
  160.5280  209.0080  154.6120 C   0  0  0  0  0  1  0  0  0  0  0  0
  161.5830  202.4150  147.4780 C   0  0  0  0  0  2  0  0  0  0  0  0
  160.3640  201.8470  146.8350 C   0  0  0  0  0  3  0  0  0  0  0  0
  160.4550  201.2550  145.6490 C   0  0  0  0  0  2  0  0  0  0  0  0
  1  2  1  6  0  0  0
  1 37  1  0  0  0  0
  1 12  1  0  0  0  0
  3  2  1  0  0  0  0
  4  8  1  0  0  0  0
  5  6  1  0  0  0  0
  5  3  1  0  0  0  0
  7  4  1  0  0  0  0
  7  9  1  0  0  0  0
  8 11  1  1  0  0  0
  8  6  1  0  0  0  0
  9  5  2  0  0  0  0
 10 11  1  0  0  0  0
 12 13  1  0  0  0  0
 13 14  1  0  0  0  0
 14 15  1  0  0  0  0
 16 15  1  0  0  0  0
 16 17  1  0  0  0  0
 19 22  1  0  0  0  0
 19 18  1  0  0  0  0
 20 25  1  0  0  0  0
 22 21  1  0  0  0  0
 23 18  1  1  0  0  0
 23 20  1  0  0  0  0
 23 26  1  0  0  0  0
 24 27  1  0  0  0  0
 24 33  1  1  0  0  0
 25 21  1  6  0  0  0
 25 24  1  0  0  0  0
 26 27  1  0  0  0  0
 27 17  1  6  0  0  0
 28 32  1  0  0  0  0
 29 34  1  0  0  0  0
 30 31  2  0  0  0  0
 31 29  1  0  0  0  0
 32 29  2  0  0  0  0
 33 30  1  0  0  0  0
 33 28  2  0  0  0  0
 34 35  1  1  0  0  0
 34 36  1  0  0  0  0
 38 37  1  6  0  0  0
 38 53  1  0  0  0  0
 38 40  1  0  0  0  0
 40 39  2  0  0  0  0
 41 39  1  1  0  0  0
 41 42  1  0  0  0  0
 41 45  1  0  0  0  0
 42 43  1  0  0  0  0
 44 42  2  0  0  0  0
 46 48  1  0  0  0  0
 46 45  1  0  0  0  0
 46 47  1  0  0  0  0
 47 49  1  6  0  0  0
 48 47  1  0  0  0  0
 49 50  1  0  0  0  0
 50 52  1  0  0  0  0
 51 50  2  0  0  0  0
 54 53  1  0  0  0  0
 55 54  2  0  0  0  0
M  END
>  <MODEL>
7

>  <REMARK>
 VINA RESULT:      -3.8      2.951      7.623
  Name = 
  24 active torsions:
  status: ('A' for Active; 'I' for Inactive)
    1  A    between atoms: C_1  and  C_53
    2  A    between atoms: N_3  and  C_38
    3  A    between atoms: C_4  and  O_35
    4  A    between atoms: C_4  and  C_37
    5  A    between atoms: C_5  and  C_37
    6  A    between atoms: C_5  and  O_40
    7  A    between atoms: C_6  and  C_53
    8  A    between atoms: C_7  and  C_20
    9  A    between atoms: C_8  and  C_22
   10  A    between atoms: C_8  and  C_43
   11  A    between atoms: C_10  and  C_32
   12  A    between atoms: C_11  and  O_50
   13  A    between atoms: C_12  and  O_50
   14  A    between atoms: C_19  and  O_40
   15  A    between atoms: C_19  and  C_49
   16  A    between atoms: C_20  and  C_22
   17  A    between atoms: C_22  and  C_46
   18  A    between atoms: C_27  and  C_54
   19  A    between atoms: O_28  and  C_44
   20  A    between atoms: C_33  and  C_52
   21  A    between atoms: O_35  and  C_43
   22  A    between atoms: C_38  and  C_53
   23  A    between atoms: C_43  and  C_51
   24  A    between atoms: C_51  and  C_54
                            x       y       z     vdW  Elec       q    Type
                         _______ _______ _______ _____ _____    ______ ____

>  <TORSDO>
F 24

$$$$
=
 OpenBabel11062408383D

 55 59  0  0  1  0  0  0  0  0999 V2000
  161.9810  209.0020  148.2750 C   0  0  1  0  0  3  0  0  0  0  0  0
  162.2580  210.4660  147.9390 C   0  0  0  0  0  2  0  0  0  0  0  0
  160.9690  211.2650  147.9140 C   0  0  0  0  0  2  0  0  0  0  0  0
  161.6270  214.3740  144.9830 C   0  0  0  0  0  2  0  0  0  0  0  0
  161.1400  212.4840  147.0710 C   0  0  0  0  0  0  0  0  0  0  0  0
  159.9970  212.9000  146.1760 C   0  0  0  0  0  2  0  0  0  0  0  0
  162.6040  214.2860  146.1500 C   0  0  0  0  0  2  0  0  0  0  0  0
  160.2060  214.2670  145.5220 C   0  0  2  0  0  3  0  0  0  0  0  0
  162.3490  213.0610  146.9900 C   0  0  0  0  0  3  0  0  0  0  0  0
  158.5560  213.3400  144.5070 O   0  0  0  0  0  1  0  0  0  0  0  0
  159.2930  214.4310  144.4810 O   0  0  0  0  0  0  0  0  0  0  0  0
  161.3050  208.9030  149.4960 O   0  0  0  0  0  0  0  0  0  0  0  0
  162.2070  209.3520  150.4660 C   0  0  0  0  0  2  0  0  0  0  0  0
  161.7230  208.9790  151.8630 C   0  0  0  0  0  2  0  0  0  0  0  0
  161.0980  207.5940  151.8860 C   0  0  0  0  0  2  0  0  0  0  0  0
  160.3860  207.4220  153.0740 O   0  0  0  0  0  0  0  0  0  0  0  0
  159.6960  208.6170  153.2560 C   0  0  0  0  0  2  0  0  0  0  0  0
  162.2060  209.0730  157.1150 C   0  0  0  0  0  2  0  0  0  0  0  0
  163.4540  209.9500  157.2610 C   0  0  0  0  0  2  0  0  0  0  0  0
  162.3080  209.4990  154.6740 O   0  0  0  0  0  0  0  0  0  0  0  0
  162.0710  211.6320  155.8950 C   0  0  0  0  0  2  0  0  0  0  0  0
  163.4590  211.2180  156.3880 C   0  0  0  0  0  2  0  0  0  0  0  0
  161.9880  208.5530  155.6870 C   0  0  2  0  0  3  0  0  0  0  0  0
  160.0300  210.4170  155.0200 C   0  0  2  0  0  3  0  0  0  0  0  0
  161.5320  210.6870  154.8090 C   0  0  2  0  0  3  0  0  0  0  0  0
  160.5610  208.0080  155.5260 C   0  0  0  0  0  2  0  0  0  0  0  0
  159.6450  208.9570  154.7420 C   0  0  2  0  0  3  0  0  0  0  0  0
  157.8420  211.6110  154.8130 C   0  0  0  0  0  3  0  0  0  0  0  0
  157.4380  213.2650  153.0830 C   0  0  0  0  0  0  0  0  0  0  0  0
  159.5930  212.1560  153.2320 C   0  0  0  0  0  3  0  0  0  0  0  0
  158.7420  213.0720  152.6040 C   0  0  0  0  0  3  0  0  0  0  0  0
  156.9920  212.5290  154.1870 C   0  0  0  0  0  3  0  0  0  0  0  0
  159.1460  211.4230  154.3420 C   0  0  0  0  0  0  0  0  0  0  0  0
  156.5040  214.2280  152.4230 C   0  0  1  0  0  3  0  0  0  0  0  0
  156.4940  214.0340  150.9180 C   0  0  0  0  0  1  0  0  0  0  0  0
  155.1580  214.0700  152.9490 N   0  0  0  0  0  1  0  0  0  0  0  0
  161.1750  208.2950  147.1710 C   0  0  0  0  0  2  0  0  0  0  0  0
  161.1430  206.7530  147.2060 C   0  0  1  0  0  3  0  0  0  0  0  0
  162.7820  205.1650  146.1620 C   0  0  0  0  0  3  0  0  0  0  0  0
  162.5050  206.1400  147.0360 C   0  0  0  0  0  3  0  0  0  0  0  0
  161.7690  204.5960  145.2160 C   0  0  2  0  0  3  0  0  0  0  0  0
  161.0800  205.6950  144.4670 C   0  0  0  0  0  0  0  0  0  0  0  0
  161.6000  206.1220  143.2530 O   0  0  0  0  0  0  0  0  0  0  0  0
  160.0290  206.2270  144.9190 O   0  0  0  0  0  1  0  0  0  0  0  0
  160.7700  203.7410  145.9920 C   0  0  0  0  0  2  0  0  0  0  0  0
  161.4550  202.6770  146.7060 N   0  0  0  0  0  0  0  0  0  0  0  0
  160.4520  201.7350  147.1350 C   0  0  1  0  0  3  0  0  0  0  0  0
  161.1840  201.5100  146.0150 O   0  0  0  0  0  0  0  0  0  0  0  0
  160.9620  200.9310  148.1920 O   0  0  0  0  0  0  0  0  0  0  0  0
  160.5530  201.0750  149.5200 C   0  0  0  0  0  0  0  0  0  0  0  0
  159.2710  201.2710  149.7830 C   0  0  0  0  0  2  0  0  0  0  0  0
  161.5200  201.0040  150.6530 C   0  0  0  0  0  1  0  0  0  0  0  0
  160.4680  206.2340  148.4710 C   0  0  0  0  0  2  0  0  0  0  0  0
  161.3040  205.1840  149.1190 C   0  0  0  0  0  3  0  0  0  0  0  0
  160.9580  204.7020  150.3090 C   0  0  0  0  0  2  0  0  0  0  0  0
  1 37  1  6  0  0  0
  1 12  1  0  0  0  0
  2  1  1  0  0  0  0
  3  2  1  0  0  0  0
  4  8  1  0  0  0  0
  4  7  1  0  0  0  0
  5  3  1  0  0  0  0
  6  5  1  0  0  0  0
  7  9  1  0  0  0  0
  8 11  1  6  0  0  0
  8  6  1  0  0  0  0
  9  5  2  0  0  0  0
 11 10  1  0  0  0  0
 12 13  1  0  0  0  0
 13 14  1  0  0  0  0
 14 15  1  0  0  0  0
 15 16  1  0  0  0  0
 16 17  1  0  0  0  0
 18 19  1  0  0  0  0
 20 25  1  0  0  0  0
 20 23  1  0  0  0  0
 21 22  1  0  0  0  0
 22 19  1  0  0  0  0
 23 26  1  1  0  0  0
 23 18  1  0  0  0  0
 24 33  1  6  0  0  0
 25 24  1  0  0  0  0
 25 21  1  1  0  0  0
 27 17  1  6  0  0  0
 27 24  1  0  0  0  0
 27 26  1  0  0  0  0
 29 32  1  0  0  0  0
 30 33  2  0  0  0  0
 31 29  2  0  0  0  0
 31 30  1  0  0  0  0
 32 28  2  0  0  0  0
 33 28  1  0  0  0  0
 34 35  1  6  0  0  0
 34 36  1  0  0  0  0
 34 29  1  0  0  0  0
 37 38  1  0  0  0  0
 38 40  1  1  0  0  0
 38 53  1  0  0  0  0
 39 40  2  0  0  0  0
 41 45  1  1  0  0  0
 41 39  1  0  0  0  0
 42 44  1  0  0  0  0
 42 41  1  0  0  0  0
 43 42  2  0  0  0  0
 45 46  1  0  0  0  0
 46 47  1  0  0  0  0
 47 49  1  1  0  0  0
 48 46  1  0  0  0  0
 48 47  1  0  0  0  0
 49 50  1  0  0  0  0
 50 51  2  0  0  0  0
 50 52  1  0  0  0  0
 53 54  1  0  0  0  0
 54 55  2  0  0  0  0
M  END
>  <MODEL>
8

>  <REMARK>
 VINA RESULT:      -3.7      1.905      6.899
  Name = 
  24 active torsions:
  status: ('A' for Active; 'I' for Inactive)
    1  A    between atoms: C_1  and  C_53
    2  A    between atoms: N_3  and  C_38
    3  A    between atoms: C_4  and  O_35
    4  A    between atoms: C_4  and  C_37
    5  A    between atoms: C_5  and  C_37
    6  A    between atoms: C_5  and  O_40
    7  A    between atoms: C_6  and  C_53
    8  A    between atoms: C_7  and  C_20
    9  A    between atoms: C_8  and  C_22
   10  A    between atoms: C_8  and  C_43
   11  A    between atoms: C_10  and  C_32
   12  A    between atoms: C_11  and  O_50
   13  A    between atoms: C_12  and  O_50
   14  A    between atoms: C_19  and  O_40
   15  A    between atoms: C_19  and  C_49
   16  A    between atoms: C_20  and  C_22
   17  A    between atoms: C_22  and  C_46
   18  A    between atoms: C_27  and  C_54
   19  A    between atoms: O_28  and  C_44
   20  A    between atoms: C_33  and  C_52
   21  A    between atoms: O_35  and  C_43
   22  A    between atoms: C_38  and  C_53
   23  A    between atoms: C_43  and  C_51
   24  A    between atoms: C_51  and  C_54
                            x       y       z     vdW  Elec       q    Type
                         _______ _______ _______ _____ _____    ______ ____

>  <TORSDO>
F 24

$$$$
=
 OpenBabel11062408383D

 55 59  0  0  1  0  0  0  0  0999 V2000
  161.2290  210.6770  150.3660 C   0  0  1  0  0  3  0  0  0  0  0  0
  161.9160  211.7040  149.4690 C   0  0  0  0  0  2  0  0  0  0  0  0
  161.1190  212.9950  149.4190 C   0  0  0  0  0  2  0  0  0  0  0  0
  158.8070  213.5080  145.8030 C   0  0  0  0  0  2  0  0  0  0  0  0
  160.2050  212.9850  148.2400 C   0  0  0  0  0  0  0  0  0  0  0  0
  160.6960  212.3500  146.9610 C   0  0  0  0  0  2  0  0  0  0  0  0
  158.0990  213.7430  147.1320 C   0  0  0  0  0  2  0  0  0  0  0  0
  159.6080  212.2150  145.8950 C   0  0  2  0  0  3  0  0  0  0  0  0
  159.0660  213.6930  148.2870 C   0  0  0  0  0  3  0  0  0  0  0  0
  161.2560  212.7130  144.6120 O   0  0  0  0  0  1  0  0  0  0  0  0
  160.1950  211.9350  144.6610 O   0  0  0  0  0  0  0  0  0  0  0  0
  161.3800  209.3910  149.8350 O   0  0  0  0  0  0  0  0  0  0  0  0
  162.2890  209.5210  148.7810 C   0  0  0  0  0  2  0  0  0  0  0  0
  162.4870  208.1830  148.0760 C   0  0  0  0  0  2  0  0  0  0  0  0
  161.2430  207.7670  147.3100 C   0  0  0  0  0  2  0  0  0  0  0  0
  160.4530  206.9430  148.1130 O   0  0  0  0  0  0  0  0  0  0  0  0
  160.8060  205.6450  147.7530 C   0  0  0  0  0  2  0  0  0  0  0  0
  162.0530  205.1890  152.1850 C   0  0  0  0  0  2  0  0  0  0  0  0
  161.2040  204.5340  153.2800 C   0  0  0  0  0  2  0  0  0  0  0  0
  160.0630  205.0770  150.7090 O   0  0  0  0  0  0  0  0  0  0  0  0
  160.6970  202.8070  151.4450 C   0  0  0  0  0  2  0  0  0  0  0  0
  160.2860  203.3980  152.7950 C   0  0  0  0  0  2  0  0  0  0  0  0
  161.2180  205.8270  151.0650 C   0  0  2  0  0  3  0  0  0  0  0  0
  161.5610  203.7380  149.2550 C   0  0  2  0  0  3  0  0  0  0  0  0
  160.4080  203.7640  150.2770 C   0  0  2  0  0  3  0  0  0  0  0  0
  162.1000  206.1270  149.8430 C   0  0  0  0  0  2  0  0  0  0  0  0
  161.8880  205.1300  148.6960 C   0  0  2  0  0  3  0  0  0  0  0  0
  161.1820  203.0630  146.8770 C   0  0  0  0  0  3  0  0  0  0  0  0
  161.0490  200.7340  146.2060 C   0  0  0  0  0  0  0  0  0  0  0  0
  161.4330  201.3140  148.5320 C   0  0  0  0  0  3  0  0  0  0  0  0
  161.2580  200.3460  147.5380 C   0  0  0  0  0  3  0  0  0  0  0  0
  161.0090  202.0950  145.8810 C   0  0  0  0  0  3  0  0  0  0  0  0
  161.3980  202.6790  148.2040 C   0  0  0  0  0  0  0  0  0  0  0  0
  160.8450  199.7200  145.1260 C   0  0  1  0  0  3  0  0  0  0  0  0
  161.2000  198.3270  145.6110 C   0  0  0  0  0  1  0  0  0  0  0  0
  159.4680  199.7450  144.6610 N   0  0  0  0  0  1  0  0  0  0  0  0
  161.7620  210.7160  151.8080 C   0  0  0  0  0  2  0  0  0  0  0  0
  160.7150  210.7380  152.9410 C   0  0  1  0  0  3  0  0  0  0  0  0
  160.8560  211.1290  155.4160 C   0  0  0  0  0  3  0  0  0  0  0  0
  161.1990  211.4620  154.1660 C   0  0  0  0  0  3  0  0  0  0  0  0
  159.9750  209.9620  155.7440 C   0  0  2  0  0  3  0  0  0  0  0  0
  160.4880  208.7190  155.0830 C   0  0  0  0  0  0  0  0  0  0  0  0
  161.8450  208.4310  155.1340 O   0  0  0  0  0  1  0  0  0  0  0  0
  159.7030  207.9280  154.4920 O   0  0  0  0  0  0  0  0  0  0  0  0
  158.5420  210.2680  155.3160 C   0  0  0  0  0  2  0  0  0  0  0  0
  158.1260  211.5650  155.8190 N   0  0  0  0  0  0  0  0  0  0  0  0
  156.8330  211.8500  155.2490 C   0  0  1  0  0  3  0  0  0  0  0  0
  156.9440  211.3540  156.5070 O   0  0  0  0  0  0  0  0  0  0  0  0
  156.5670  213.2450  155.3230 O   0  0  0  0  0  0  0  0  0  0  0  0
  155.3280  213.8000  154.9900 C   0  0  0  0  0  0  0  0  0  0  0  0
  154.4980  214.1530  155.9580 C   0  0  0  0  0  2  0  0  0  0  0  0
  154.9190  214.0170  153.5720 C   0  0  0  0  0  1  0  0  0  0  0  0
  159.3830  211.3070  152.4640 C   0  0  0  0  0  2  0  0  0  0  0  0
  159.5070  212.7650  152.1830 C   0  0  0  0  0  3  0  0  0  0  0  0
  158.7930  213.6390  152.8850 C   0  0  0  0  0  2  0  0  0  0  0  0
  1  2  1  6  0  0  0
  1 37  1  0  0  0  0
  3  2  1  0  0  0  0
  4  8  1  0  0  0  0
  4  7  1  0  0  0  0
  5  9  2  0  0  0  0
  5  3  1  0  0  0  0
  6  5  1  0  0  0  0
  7  9  1  0  0  0  0
  8 11  1  6  0  0  0
  8  6  1  0  0  0  0
 10 11  1  0  0  0  0
 12  1  1  0  0  0  0
 13 12  1  0  0  0  0
 14 13  1  0  0  0  0
 15 14  1  0  0  0  0
 15 16  1  0  0  0  0
 17 16  1  0  0  0  0
 18 19  1  0  0  0  0
 20 23  1  0  0  0  0
 21 22  1  0  0  0  0
 22 19  1  0  0  0  0
 23 26  1  6  0  0  0
 23 18  1  0  0  0  0
 24 33  1  6  0  0  0
 24 25  1  0  0  0  0
 25 20  1  0  0  0  0
 25 21  1  1  0  0  0
 27 17  1  6  0  0  0
 27 24  1  0  0  0  0
 27 26  1  0  0  0  0
 28 33  1  0  0  0  0
 29 31  2  0  0  0  0
 31 30  1  0  0  0  0
 32 29  1  0  0  0  0
 32 28  2  0  0  0  0
 33 30  2  0  0  0  0
 34 35  1  1  0  0  0
 34 29  1  0  0  0  0
 36 34  1  0  0  0  0
 38 37  1  6  0  0  0
 38 40  1  0  0  0  0
 39 41  1  0  0  0  0
 40 39  2  0  0  0  0
 41 45  1  6  0  0  0
 42 43  1  0  0  0  0
 42 41  1  0  0  0  0
 44 42  2  0  0  0  0
 45 46  1  0  0  0  0
 46 48  1  0  0  0  0
 47 49  1  1  0  0  0
 47 46  1  0  0  0  0
 47 48  1  0  0  0  0
 50 49  1  0  0  0  0
 50 51  2  0  0  0  0
 52 50  1  0  0  0  0
 53 38  1  0  0  0  0
 54 53  1  0  0  0  0
 54 55  2  0  0  0  0
M  END
>  <MODEL>
9

>  <REMARK>
 VINA RESULT:      -3.4      2.122     11.234
  Name = 
  24 active torsions:
  status: ('A' for Active; 'I' for Inactive)
    1  A    between atoms: C_1  and  C_53
    2  A    between atoms: N_3  and  C_38
    3  A    between atoms: C_4  and  O_35
    4  A    between atoms: C_4  and  C_37
    5  A    between atoms: C_5  and  C_37
    6  A    between atoms: C_5  and  O_40
    7  A    between atoms: C_6  and  C_53
    8  A    between atoms: C_7  and  C_20
    9  A    between atoms: C_8  and  C_22
   10  A    between atoms: C_8  and  C_43
   11  A    between atoms: C_10  and  C_32
   12  A    between atoms: C_11  and  O_50
   13  A    between atoms: C_12  and  O_50
   14  A    between atoms: C_19  and  O_40
   15  A    between atoms: C_19  and  C_49
   16  A    between atoms: C_20  and  C_22
   17  A    between atoms: C_22  and  C_46
   18  A    between atoms: C_27  and  C_54
   19  A    between atoms: O_28  and  C_44
   20  A    between atoms: C_33  and  C_52
   21  A    between atoms: O_35  and  C_43
   22  A    between atoms: C_38  and  C_53
   23  A    between atoms: C_43  and  C_51
   24  A    between atoms: C_51  and  C_54
                            x       y       z     vdW  Elec       q    Type
                         _______ _______ _______ _____ _____    ______ ____

>  <TORSDO>
F 24

$$$$
