=
 OpenBabel11062408243D

 32 37  0  0  1  0  0  0  0  0999 V2000
  161.3340  207.7680  151.9700 C   0  0  1  0  0  3  0  0  0  0  0  0
  161.5400  210.3350  152.0770 C   0  0  2  0  0  3  0  0  0  0  0  0
  161.8130  206.5510  152.7670 C   0  0  0  0  0  2  0  0  0  0  0  0
  161.5910  208.9950  152.8330 C   0  0  1  0  0  3  0  0  0  0  0  0
  160.1730  211.0080  152.2080 C   0  0  2  0  0  3  0  0  0  0  0  0
  162.2770  212.9960  147.9110 C   0  0  0  0  0  2  0  0  0  0  0  0
  162.0210  210.2010  150.6170 C   0  0  1  0  0  3  0  0  0  0  0  0
  160.6790  213.6170  149.3740 C   0  0  0  0  0  2  0  0  0  0  0  0
  160.8500  212.3640  150.1910 C   0  0  0  0  0  0  0  0  0  0  0  0
  160.5960  208.9030  153.9840 C   0  0  2  0  0  3  0  0  0  0  0  0
  160.1570  212.2440  151.4380 N   0  0  0  0  0  2  0  0  0  0  0  0
  160.4230  210.2470  154.6800 C   0  0  0  0  0  2  0  0  0  0  0  0
  161.0290  207.7570  154.8910 C   0  0  0  0  0  2  0  0  0  0  0  0
  161.4490  209.0830  149.9810 O   0  0  0  0  0  0  0  0  0  0  0  0
  161.9930  207.9420  150.6000 C   0  0  2  0  0  3  0  0  0  0  0  0
  161.7660  211.4480  149.8100 C   0  0  0  0  0  0  0  0  0  0  0  0
  159.8500  211.2920  153.6930 C   0  0  2  0  0  3  0  0  0  0  0  0
  161.0230  206.4420  154.0860 C   0  0  0  0  0  2  0  0  0  0  0  0
  160.9250  213.3660  148.0100 O   0  0  0  0  0  0  0  0  0  0  0  0
  162.4720  211.5910  148.4860 C   0  0  0  0  0  2  0  0  0  0  0  0
  161.8960  205.6760  147.5460 C   0  0  0  0  0  0  0  0  0  0  0  0
  162.2300  205.7190  146.0960 C   0  0  0  0  0  1  0  0  0  0  0  0
  161.7730  206.7420  149.7250 C   0  0  0  0  0  0  0  0  0  0  0  0
  161.3770  204.4990  148.0930 C   0  0  0  0  0  3  0  0  0  0  0  0
  161.2550  205.5570  150.2660 C   0  0  0  0  0  3  0  0  0  0  0  0
  162.0960  206.8000  148.3610 C   0  0  0  0  0  0  0  0  0  0  0  0
  162.6030  207.9430  147.8290 F   0  0  0  0  0  0  0  0  0  0  0  0
  161.0600  204.4370  149.4530 C   0  0  0  0  0  0  0  0  0  0  0  0
  161.0510  202.9500  151.4190 C   0  0  0  0  0  1  0  0  0  0  0  0
  160.4920  203.1860  150.0290 C   0  0  0  0  0  2  0  0  0  0  0  0
  158.3510  211.4700  153.8990 C   0  0  0  0  0  2  0  0  0  0  0  0
  157.9620  211.0000  155.1550 O   0  0  0  0  0  1  0  0  0  0  0  0
  1  3  1  1  0  0  0
  1  4  1  0  0  0  0
  2  5  1  0  0  0  0
  2  4  1  0  0  0  0
  3 18  1  0  0  0  0
  4 10  1  0  0  0  0
  5 17  1  0  0  0  0
  6 19  1  0  0  0  0
  6 20  1  0  0  0  0
  7  2  1  0  0  0  0
  8  9  1  0  0  0  0
  9 11  1  0  0  0  0
 10 12  1  0  0  0  0
 10 13  1  0  0  0  0
 11  5  1  0  0  0  0
 14 15  1  0  0  0  0
 14  7  1  0  0  0  0
 15  1  1  0  0  0  0
 16  9  2  0  0  0  0
 16  7  1  0  0  0  0
 17 31  1  0  0  0  0
 17 12  1  0  0  0  0
 18 13  1  0  0  0  0
 19  8  1  0  0  0  0
 20 16  1  0  0  0  0
 21 24  2  0  0  0  0
 21 26  1  0  0  0  0
 22 21  1  0  0  0  0
 23 25  1  0  0  0  0
 23 15  1  0  0  0  0
 24 28  1  0  0  0  0
 26 23  2  0  0  0  0
 27 26  1  0  0  0  0
 28 30  1  0  0  0  0
 28 25  2  0  0  0  0
 30 29  1  0  0  0  0
 31 32  1  0  0  0  0
M  END
>  <MODEL>
1

>  <REMARK>
 VINA RESULT:     -10.3      0.000      0.000
  Name = 
  3 active torsions:
  status: ('A' for Active; 'I' for Inactive)
    1  A    between atoms: C_13  and  C_29
    2  A    between atoms: C_15  and  C_26
    3  A    between atoms: C_16  and  C_27
                            x       y       z     vdW  Elec       q    Type
                         _______ _______ _______ _____ _____    ______ ____

>  <TORSDO>
F 3

$$$$
=
 OpenBabel11062408243D

 32 37  0  0  1  0  0  0  0  0999 V2000
  160.5510  209.1920  154.1880 C   0  0  1  0  0  3  0  0  0  0  0  0
  159.8300  211.6650  154.2840 C   0  0  2  0  0  3  0  0  0  0  0  0
  161.4510  208.2360  154.9770 C   0  0  0  0  0  2  0  0  0  0  0  0
  160.3720  210.4400  155.0410 C   0  0  1  0  0  3  0  0  0  0  0  0
  158.3160  211.8070  154.4460 C   0  0  2  0  0  3  0  0  0  0  0  0
  159.4780  214.3680  150.0940 C   0  0  0  0  0  2  0  0  0  0  0  0
  160.2950  211.6950  152.8120 C   0  0  1  0  0  3  0  0  0  0  0  0
  157.7960  214.3930  151.5930 C   0  0  0  0  0  2  0  0  0  0  0  0
  158.4210  213.2930  152.4090 C   0  0  0  0  0  0  0  0  0  0  0  0
  159.5010  210.0120  156.2170 C   0  0  2  0  0  3  0  0  0  0  0  0
  157.8420  212.9480  153.6730 N   0  0  0  0  0  2  0  0  0  0  0  0
  158.8750  211.2130  156.9130 C   0  0  0  0  0  2  0  0  0  0  0  0
  160.3340  209.1070  157.1160 C   0  0  0  0  0  2  0  0  0  0  0  0
  160.1460  210.4400  152.1930 O   0  0  0  0  0  0  0  0  0  0  0  0
  161.0750  209.5740  152.8020 C   0  0  2  0  0  3  0  0  0  0  0  0
  159.5940  212.7600  152.0080 C   0  0  0  0  0  0  0  0  0  0  0  0
  157.9450  211.9740  155.9380 C   0  0  2  0  0  3  0  0  0  0  0  0
  160.7800  207.8660  156.3150 C   0  0  0  0  0  2  0  0  0  0  0  0
  158.0850  214.2310  150.2240 O   0  0  0  0  0  0  0  0  0  0  0  0
  160.1740  213.1300  150.6680 C   0  0  0  0  0  2  0  0  0  0  0  0
  161.9160  207.3870  149.8060 C   0  0  0  0  0  0  0  0  0  0  0  0
  162.3810  207.5270  148.4000 C   0  0  0  0  0  1  0  0  0  0  0  0
  161.2790  208.3660  151.9370 C   0  0  0  0  0  0  0  0  0  0  0  0
  161.6740  206.1100  150.3220 C   0  0  0  0  0  3  0  0  0  0  0  0
  161.0400  207.0810  152.4460 C   0  0  0  0  0  3  0  0  0  0  0  0
  161.7200  208.5170  150.6130 C   0  0  0  0  0  0  0  0  0  0  0  0
  161.9580  209.7580  150.1120 F   0  0  0  0  0  0  0  0  0  0  0  0
  161.2410  205.9560  151.6420 C   0  0  0  0  0  0  0  0  0  0  0  0
  160.9470  203.5790  151.0570 C   0  0  0  0  0  1  0  0  0  0  0  0
  160.9680  204.5950  152.1830 C   0  0  0  0  0  2  0  0  0  0  0  0
  156.4860  211.6080  156.1790 C   0  0  0  0  0  2  0  0  0  0  0  0
  156.0770  210.5960  155.3070 O   0  0  0  0  0  1  0  0  0  0  0  0
  1  3  1  1  0  0  0
  1  4  1  0  0  0  0
  2  5  1  0  0  0  0
  2  4  1  0  0  0  0
  3 18  1  0  0  0  0
  4 10  1  0  0  0  0
  5 17  1  0  0  0  0
  6 19  1  0  0  0  0
  6 20  1  0  0  0  0
  7  2  1  0  0  0  0
  8  9  1  0  0  0  0
  9 11  1  0  0  0  0
 10 12  1  0  0  0  0
 10 13  1  0  0  0  0
 11  5  1  0  0  0  0
 14 15  1  0  0  0  0
 14  7  1  0  0  0  0
 15  1  1  0  0  0  0
 16  9  2  0  0  0  0
 16  7  1  0  0  0  0
 17 31  1  0  0  0  0
 17 12  1  0  0  0  0
 18 13  1  0  0  0  0
 19  8  1  0  0  0  0
 20 16  1  0  0  0  0
 21 24  2  0  0  0  0
 21 26  1  0  0  0  0
 22 21  1  0  0  0  0
 23 25  1  0  0  0  0
 23 15  1  0  0  0  0
 24 28  1  0  0  0  0
 26 23  2  0  0  0  0
 27 26  1  0  0  0  0
 28 30  1  0  0  0  0
 28 25  2  0  0  0  0
 29 30  1  0  0  0  0
 32 31  1  0  0  0  0
M  END
>  <MODEL>
2

>  <REMARK>
 VINA RESULT:      -8.9      1.931      2.958
  Name = 
  3 active torsions:
  status: ('A' for Active; 'I' for Inactive)
    1  A    between atoms: C_13  and  C_29
    2  A    between atoms: C_15  and  C_26
    3  A    between atoms: C_16  and  C_27
                            x       y       z     vdW  Elec       q    Type
                         _______ _______ _______ _____ _____    ______ ____

>  <TORSDO>
F 3

$$$$
=
 OpenBabel11062408243D

 32 37  0  0  1  0  0  0  0  0999 V2000
  161.5310  208.3380  151.0250 C   0  0  1  0  0  3  0  0  0  0  0  0
  162.0610  206.2100  149.6700 C   0  0  2  0  0  3  0  0  0  0  0  0
  162.1480  209.7190  151.2670 C   0  0  0  0  0  2  0  0  0  0  0  0
  162.2590  207.7270  149.8360 C   0  0  1  0  0  3  0  0  0  0  0  0
  160.9560  205.8900  148.6640 C   0  0  2  0  0  3  0  0  0  0  0  0
  161.3390  201.6870  151.6700 C   0  0  0  0  0  2  0  0  0  0  0  0
  161.8840  205.4930  151.0260 C   0  0  1  0  0  3  0  0  0  0  0  0
  160.5610  202.1400  149.6040 C   0  0  0  0  0  2  0  0  0  0  0  0
  160.9030  203.6010  149.7260 C   0  0  0  0  0  0  0  0  0  0  0  0
  161.8180  208.5390  148.6230 C   0  0  2  0  0  3  0  0  0  0  0  0
  160.7700  204.4470  148.5790 N   0  0  0  0  0  2  0  0  0  0  0  0
  162.1020  207.7970  147.3230 C   0  0  0  0  0  2  0  0  0  0  0  0
  162.4460  209.9230  148.7270 C   0  0  0  0  0  2  0  0  0  0  0  0
  160.9770  206.1710  151.8600 O   0  0  0  0  0  0  0  0  0  0  0  0
  161.5880  207.3870  152.2220 C   0  0  2  0  0  3  0  0  0  0  0  0
  161.4700  204.0530  150.8660 C   0  0  0  0  0  0  0  0  0  0  0  0
  161.3030  206.4730  147.2750 C   0  0  2  0  0  3  0  0  0  0  0  0
  161.9580  210.6060  150.0210 C   0  0  0  0  0  2  0  0  0  0  0  0
  160.1970  201.6020  150.8530 O   0  0  0  0  0  0  0  0  0  0  0  0
  161.5850  203.1460  152.0630 C   0  0  0  0  0  2  0  0  0  0  0  0
  160.1320  207.7490  155.7170 C   0  0  0  0  0  0  0  0  0  0  0  0
  159.9980  206.9620  156.9730 C   0  0  0  0  0  1  0  0  0  0  0  0
  160.8920  207.9630  153.4190 C   0  0  0  0  0  0  0  0  0  0  0  0
  159.6050  209.0430  155.6630 C   0  0  0  0  0  3  0  0  0  0  0  0
  160.3630  209.2610  153.3740 C   0  0  0  0  0  3  0  0  0  0  0  0
  160.7780  207.2070  154.5960 C   0  0  0  0  0  0  0  0  0  0  0  0
  161.2920  205.9500  154.6500 F   0  0  0  0  0  0  0  0  0  0  0  0
  159.7240  209.8010  154.4940 C   0  0  0  0  0  0  0  0  0  0  0  0
  158.9530  211.5960  152.9900 C   0  0  0  0  0  1  0  0  0  0  0  0
  159.1470  211.1730  154.4340 C   0  0  0  0  0  2  0  0  0  0  0  0
  160.0500  206.6250  146.4210 C   0  0  0  0  0  2  0  0  0  0  0  0
  160.2930  206.2220  145.1060 O   0  0  0  0  0  1  0  0  0  0  0  0
  1  3  1  1  0  0  0
  1 15  1  0  0  0  0
  2  4  1  0  0  0  0
  2  7  1  0  0  0  0
  4  1  1  0  0  0  0
  5  2  1  0  0  0  0
  6 20  1  0  0  0  0
  7 14  1  0  0  0  0
  8  9  1  0  0  0  0
  8 19  1  0  0  0  0
  9 16  2  0  0  0  0
 10 13  1  0  0  0  0
 10  4  1  0  0  0  0
 11  5  1  0  0  0  0
 11  9  1  0  0  0  0
 12 10  1  0  0  0  0
 13 18  1  0  0  0  0
 14 15  1  0  0  0  0
 15 23  1  0  0  0  0
 16  7  1  0  0  0  0
 16 20  1  0  0  0  0
 17 12  1  0  0  0  0
 17  5  1  0  0  0  0
 18  3  1  0  0  0  0
 19  6  1  0  0  0  0
 21 22  1  0  0  0  0
 23 26  1  0  0  0  0
 24 21  1  0  0  0  0
 25 23  2  0  0  0  0
 25 28  1  0  0  0  0
 26 27  1  0  0  0  0
 26 21  2  0  0  0  0
 28 24  2  0  0  0  0
 29 30  1  0  0  0  0
 30 28  1  0  0  0  0
 31 17  1  0  0  0  0
 32 31  1  0  0  0  0
M  END
>  <MODEL>
3

>  <REMARK>
 VINA RESULT:      -8.2      3.013      7.746
  Name = 
  3 active torsions:
  status: ('A' for Active; 'I' for Inactive)
    1  A    between atoms: C_13  and  C_29
    2  A    between atoms: C_15  and  C_26
    3  A    between atoms: C_16  and  C_27
                            x       y       z     vdW  Elec       q    Type
                         _______ _______ _______ _____ _____    ______ ____

>  <TORSDO>
F 3

$$$$
=
 OpenBabel11062408243D

 32 37  0  0  1  0  0  0  0  0999 V2000
  160.8960  207.9230  152.8770 C   0  0  1  0  0  3  0  0  0  0  0  0
  161.2150  210.4680  152.6230 C   0  0  2  0  0  3  0  0  0  0  0  0
  161.2280  206.8280  153.8950 C   0  0  0  0  0  2  0  0  0  0  0  0
  161.1200  209.2590  153.5710 C   0  0  1  0  0  3  0  0  0  0  0  0
  159.8770  211.1970  152.4980 C   0  0  2  0  0  3  0  0  0  0  0  0
  162.5200  212.4330  148.2170 C   0  0  0  0  0  2  0  0  0  0  0  0
  161.8410  210.0960  151.2620 C   0  0  1  0  0  3  0  0  0  0  0  0
  160.8090  213.3220  149.3810 C   0  0  0  0  0  2  0  0  0  0  0  0
  160.8300  212.2050  150.3900 C   0  0  0  0  0  0  0  0  0  0  0  0
  160.0060  209.3770  154.6040 C   0  0  2  0  0  3  0  0  0  0  0  0
  160.0030  212.3000  151.5550 N   0  0  0  0  0  2  0  0  0  0  0  0
  159.8260  210.8170  155.0680 C   0  0  0  0  0  2  0  0  0  0  0  0
  160.2830  208.3710  155.7140 C   0  0  0  0  0  2  0  0  0  0  0  0
  161.2860  208.9130  150.7400 O   0  0  0  0  0  0  0  0  0  0  0  0
  161.7040  207.8630  151.5790 C   0  0  2  0  0  3  0  0  0  0  0  0
  161.7350  211.2120  150.2550 C   0  0  0  0  0  0  0  0  0  0  0  0
  159.4130  211.7170  153.8780 C   0  0  2  0  0  3  0  0  0  0  0  0
  160.2970  206.9480  155.1190 C   0  0  0  0  0  2  0  0  0  0  0  0
  161.1850  212.8570  148.1070 O   0  0  0  0  0  0  0  0  0  0  0  0
  162.5830  211.1270  149.0130 C   0  0  0  0  0  2  0  0  0  0  0  0
  161.4590  204.1230  150.9290 C   0  0  0  0  0  0  0  0  0  0  0  0
  161.5810  202.8370  151.6680 C   0  0  0  0  0  1  0  0  0  0  0  0
  161.5190  206.5510  150.8740 C   0  0  0  0  0  0  0  0  0  0  0  0
  161.1620  204.1000  149.5630 C   0  0  0  0  0  3  0  0  0  0  0  0
  161.2200  206.5190  149.5050 C   0  0  0  0  0  3  0  0  0  0  0  0
  161.6360  205.3480  151.5880 C   0  0  0  0  0  0  0  0  0  0  0  0
  161.9220  205.3700  152.9160 F   0  0  0  0  0  0  0  0  0  0  0  0
  161.0380  205.2970  148.8510 C   0  0  0  0  0  0  0  0  0  0  0  0
  161.5830  204.2120  146.7050 C   0  0  0  0  0  1  0  0  0  0  0  0
  160.7390  205.2690  147.3920 C   0  0  0  0  0  2  0  0  0  0  0  0
  157.9110  211.9720  153.8850 C   0  0  0  0  0  2  0  0  0  0  0  0
  157.3270  211.4730  155.0520 O   0  0  0  0  0  1  0  0  0  0  0  0
  1  4  1  0  0  0  0
  1  3  1  1  0  0  0
  2  4  1  0  0  0  0
  3 18  1  0  0  0  0
  4 10  1  0  0  0  0
  5  2  1  0  0  0  0
  5 17  1  0  0  0  0
  6 20  1  0  0  0  0
  7  2  1  0  0  0  0
  8  9  1  0  0  0  0
  9 11  1  0  0  0  0
 10 12  1  0  0  0  0
 10 13  1  0  0  0  0
 11  5  1  0  0  0  0
 14  7  1  0  0  0  0
 14 15  1  0  0  0  0
 15  1  1  0  0  0  0
 16  9  2  0  0  0  0
 16  7  1  0  0  0  0
 17 31  1  0  0  0  0
 17 12  1  0  0  0  0
 18 13  1  0  0  0  0
 19  6  1  0  0  0  0
 19  8  1  0  0  0  0
 20 16  1  0  0  0  0
 21 26  1  0  0  0  0
 21 22  1  0  0  0  0
 23 15  1  0  0  0  0
 23 26  2  0  0  0  0
 24 21  2  0  0  0  0
 25 23  1  0  0  0  0
 26 27  1  0  0  0  0
 28 25  2  0  0  0  0
 28 24  1  0  0  0  0
 29 30  1  0  0  0  0
 30 28  1  0  0  0  0
 31 32  1  0  0  0  0
M  END
>  <MODEL>
4

>  <REMARK>
 VINA RESULT:      -7.8      1.330      2.209
  Name = 
  3 active torsions:
  status: ('A' for Active; 'I' for Inactive)
    1  A    between atoms: C_13  and  C_29
    2  A    between atoms: C_15  and  C_26
    3  A    between atoms: C_16  and  C_27
                            x       y       z     vdW  Elec       q    Type
                         _______ _______ _______ _____ _____    ______ ____

>  <TORSDO>
F 3

$$$$
