=
 OpenBabel11062409263D

 34 39  0  0  1  0  0  0  0  0999 V2000
  161.5570  206.5140  150.1620 C   0  0  0  0  0  0  0  0  0  0  0  0
  161.3880  203.8250  147.3830 C   0  0  0  0  0  2  0  0  0  0  0  0
  161.1400  203.7230  149.8420 C   0  0  0  0  0  3  0  0  0  0  0  0
  161.6610  208.2810  151.8590 C   0  0  0  0  0  0  0  0  0  0  0  0
  161.7540  207.8700  150.5000 C   0  0  0  0  0  3  0  0  0  0  0  0
  161.1940  206.0120  152.5030 C   0  0  0  0  0  0  0  0  0  0  0  0
  160.9070  204.7650  153.2290 C   0  0  0  0  0  3  0  0  0  0  0  0
  161.3820  207.3400  152.8840 C   0  0  0  0  0  3  0  0  0  0  0  0
  161.0840  204.3350  151.0900 C   0  0  0  0  0  0  0  0  0  0  0  0
  161.2840  205.6580  151.2050 C   0  0  0  0  0  0  0  0  0  0  0  0
  160.8420  203.7680  152.3800 N   0  0  0  0  0  0  0  0  0  0  0  0
  162.4740  204.3010  146.4270 C   0  0  0  0  0  2  0  0  0  0  0  0
  162.0230  205.5160  145.6120 C   0  0  2  0  0  3  0  0  0  0  0  0
  161.2620  206.5570  146.4340 C   0  0  0  0  0  2  0  0  0  0  0  0
  161.4220  204.5310  148.7100 C   0  0  0  0  0  0  0  0  0  0  0  0
  162.0050  206.8700  147.7230 C   0  0  0  0  0  2  0  0  0  0  0  0
  161.6210  205.9570  148.8610 C   0  0  0  0  0  0  0  0  0  0  0  0
  161.2280  205.1030  144.4160 C   0  0  0  0  0  0  0  0  0  0  0  0
  160.3830  204.0050  144.5000 O   0  0  0  0  0  1  0  0  0  0  0  0
  161.3110  205.7470  143.3360 O   0  0  0  0  0  0  0  0  0  0  0  0
  161.8980  209.7100  152.2140 C   0  0  0  0  0  2  0  0  0  0  0  0
  160.2290  210.2900  155.5670 C   0  0  0  0  0  3  0  0  0  0  0  0
  159.7560  210.8380  152.8570 C   0  0  0  0  0  3  0  0  0  0  0  0
  156.9720  212.0470  155.7670 C   0  0  0  0  0  0  0  0  0  0  0  0
  158.1390  211.3710  156.1490 C   0  0  0  0  0  3  0  0  0  0  0  0
  159.0670  210.9670  155.1860 C   0  0  0  0  0  0  0  0  0  0  0  0
  157.6670  211.9160  153.4400 C   0  0  0  0  0  3  0  0  0  0  0  0
  158.8290  211.2420  153.8200 C   0  0  0  0  0  0  0  0  0  0  0  0
  156.7430  212.3170  154.4090 C   0  0  0  0  0  3  0  0  0  0  0  0
  160.9210  210.1650  153.2450 C   0  0  0  0  0  0  0  0  0  0  0  0
  161.1530  209.8880  154.5990 C   0  0  0  0  0  3  0  0  0  0  0  0
  155.9990  212.4700  156.7870 C   0  0  0  0  0  0  0  0  0  0  0  0
  155.1640  211.6480  157.2520 O   0  0  0  0  0  1  0  0  0  0  0  0
  155.9900  213.7810  157.2470 O   0  0  0  0  0  0  0  0  0  0  0  0
  1  5  1  0  0  0  0
  1 10  1  0  0  0  0
  2 15  1  0  0  0  0
  3  9  1  0  0  0  0
  4 21  1  0  0  0  0
  4  8  1  0  0  0  0
  5  4  2  0  0  0  0
  6  8  2  0  0  0  0
  6  7  1  0  0  0  0
  9 10  2  0  0  0  0
  9 11  1  0  0  0  0
 10  6  1  0  0  0  0
 11  7  2  0  0  0  0
 12  2  1  0  0  0  0
 13 18  1  6  0  0  0
 13 12  1  0  0  0  0
 13 14  1  0  0  0  0
 14 16  1  0  0  0  0
 15 17  1  0  0  0  0
 15  3  2  0  0  0  0
 16 17  1  0  0  0  0
 17  1  2  0  0  0  0
 18 19  1  0  0  0  0
 20 18  2  0  0  0  0
 21 30  1  0  0  0  0
 23 30  2  0  0  0  0
 23 28  1  0  0  0  0
 24 25  1  0  0  0  0
 24 32  1  0  0  0  0
 26 22  1  0  0  0  0
 26 25  2  0  0  0  0
 27 28  2  0  0  0  0
 27 29  1  0  0  0  0
 28 26  1  0  0  0  0
 29 24  2  0  0  0  0
 30 31  1  0  0  0  0
 31 22  2  0  0  0  0
 32 34  2  0  0  0  0
 32 33  1  0  0  0  0
M  END
>  <MODEL>
1

>  <REMARK>
 VINA RESULT:     -10.9      0.000      0.000
  Name = 
  4 active torsions:
  status: ('A' for Active; 'I' for Inactive)
    1  A    between atoms: C_3  and  C_25
    2  A    between atoms: C_7  and  C_11
    3  A    between atoms: C_8  and  C_18
    4  A    between atoms: C_18  and  C_30
                            x       y       z     vdW  Elec       q    Type
                         _______ _______ _______ _____ _____    ______ ____

>  <TORSDO>
F 4

$$$$
=
 OpenBabel11062409263D

 34 39  0  0  1  0  0  0  0  0999 V2000
  160.7620  208.8270  153.1820 C   0  0  0  0  0  0  0  0  0  0  0  0
  159.7440  212.4180  154.2080 C   0  0  0  0  0  2  0  0  0  0  0  0
  160.8380  211.4890  152.1940 C   0  0  0  0  0  3  0  0  0  0  0  0
  161.3580  206.5210  152.6010 C   0  0  0  0  0  0  0  0  0  0  0  0
  160.8150  207.4590  153.5230 C   0  0  0  0  0  3  0  0  0  0  0  0
  161.7830  208.3070  151.0500 C   0  0  0  0  0  0  0  0  0  0  0  0
  162.1860  209.1350  149.9020 C   0  0  0  0  0  3  0  0  0  0  0  0
  161.8580  206.9460  151.3430 C   0  0  0  0  0  3  0  0  0  0  0  0
  161.3120  210.4150  151.4480 C   0  0  0  0  0  0  0  0  0  0  0  0
  161.2580  209.1690  151.9450 C   0  0  0  0  0  0  0  0  0  0  0  0
  161.9000  210.3910  150.1450 N   0  0  0  0  0  0  0  0  0  0  0  0
  160.0470  212.4090  155.7010 C   0  0  0  0  0  2  0  0  0  0  0  0
  158.9940  211.6260  156.4910 C   0  0  2  0  0  3  0  0  0  0  0  0
  158.5710  210.3180  155.8210 C   0  0  0  0  0  2  0  0  0  0  0  0
  160.3130  211.2290  153.4870 C   0  0  0  0  0  0  0  0  0  0  0  0
  159.7900  209.5230  155.3850 C   0  0  0  0  0  2  0  0  0  0  0  0
  160.2570  209.8730  153.9930 C   0  0  0  0  0  0  0  0  0  0  0  0
  157.8010  212.4750  156.7940 C   0  0  0  0  0  0  0  0  0  0  0  0
  156.5270  211.9610  156.5980 O   0  0  0  0  0  0  0  0  0  0  0  0
  157.9420  213.6480  157.2340 O   0  0  0  0  0  1  0  0  0  0  0  0
  161.4380  205.0800  152.9770 C   0  0  0  0  0  2  0  0  0  0  0  0
  160.7590  202.0290  150.8330 C   0  0  0  0  0  3  0  0  0  0  0  0
  161.3780  204.7440  150.4960 C   0  0  0  0  0  3  0  0  0  0  0  0
  160.8730  202.2660  147.1370 C   0  0  0  0  0  0  0  0  0  0  0  0
  160.7310  201.7380  148.4270 C   0  0  0  0  0  3  0  0  0  0  0  0
  160.8980  202.5570  149.5470 C   0  0  0  0  0  0  0  0  0  0  0  0
  161.3520  204.4510  148.0910 C   0  0  0  0  0  3  0  0  0  0  0  0
  161.2110  203.9250  149.3770 C   0  0  0  0  0  0  0  0  0  0  0  0
  161.1830  203.6250  146.9760 C   0  0  0  0  0  3  0  0  0  0  0  0
  161.2320  204.2110  151.7820 C   0  0  0  0  0  0  0  0  0  0  0  0
  160.9280  202.8540  151.9490 C   0  0  0  0  0  3  0  0  0  0  0  0
  160.6960  201.3970  145.9620 C   0  0  0  0  0  0  0  0  0  0  0  0
  160.0990  201.8230  144.9370 O   0  0  0  0  0  0  0  0  0  0  0  0
  161.1850  200.0960  145.9730 O   0  0  0  0  0  1  0  0  0  0  0  0
  1  5  1  0  0  0  0
  1 17  1  0  0  0  0
  2 12  1  0  0  0  0
  3 15  1  0  0  0  0
  4 21  1  0  0  0  0
  4  5  2  0  0  0  0
  6  8  2  0  0  0  0
  6 10  1  0  0  0  0
  7 11  2  0  0  0  0
  7  6  1  0  0  0  0
  8  4  1  0  0  0  0
  9 10  1  0  0  0  0
  9  3  2  0  0  0  0
 10  1  2  0  0  0  0
 11  9  1  0  0  0  0
 12 13  1  0  0  0  0
 13 18  1  6  0  0  0
 14 13  1  0  0  0  0
 15 17  2  0  0  0  0
 15  2  1  0  0  0  0
 16 14  1  0  0  0  0
 17 16  1  0  0  0  0
 18 20  1  0  0  0  0
 19 18  2  0  0  0  0
 22 31  1  0  0  0  0
 23 30  1  0  0  0  0
 24 25  2  0  0  0  0
 25 26  1  0  0  0  0
 26 22  2  0  0  0  0
 27 28  1  0  0  0  0
 28 26  1  0  0  0  0
 28 23  2  0  0  0  0
 29 24  1  0  0  0  0
 29 27  2  0  0  0  0
 30 31  2  0  0  0  0
 30 21  1  0  0  0  0
 32 34  1  0  0  0  0
 32 24  1  0  0  0  0
 33 32  2  0  0  0  0
M  END
>  <MODEL>
2

>  <REMARK>
 VINA RESULT:     -10.7      2.085     10.279
  Name = 
  4 active torsions:
  status: ('A' for Active; 'I' for Inactive)
    1  A    between atoms: C_3  and  C_25
    2  A    between atoms: C_7  and  C_11
    3  A    between atoms: C_8  and  C_18
    4  A    between atoms: C_18  and  C_30
                            x       y       z     vdW  Elec       q    Type
                         _______ _______ _______ _____ _____    ______ ____

>  <TORSDO>
F 4

$$$$
=
 OpenBabel11062409263D

 34 39  0  0  1  0  0  0  0  0999 V2000
  160.9110  209.1680  152.6670 C   0  0  0  0  0  0  0  0  0  0  0  0
  160.7930  212.6800  151.0450 C   0  0  0  0  0  2  0  0  0  0  0  0
  160.1480  211.8340  153.2780 C   0  0  0  0  0  3  0  0  0  0  0  0
  161.0370  206.9140  153.6260 C   0  0  0  0  0  0  0  0  0  0  0  0
  161.2260  207.7990  152.5280 C   0  0  0  0  0  3  0  0  0  0  0  0
  160.2270  208.7490  154.9510 C   0  0  0  0  0  0  0  0  0  0  0  0
  159.6840  209.6150  156.0100 C   0  0  0  0  0  3  0  0  0  0  0  0
  160.5230  207.3900  154.8600 C   0  0  0  0  0  3  0  0  0  0  0  0
  160.0510  210.8100  154.2140 C   0  0  0  0  0  0  0  0  0  0  0  0
  160.4230  209.5610  153.8930 C   0  0  0  0  0  0  0  0  0  0  0  0
  159.5830  210.8430  155.5650 N   0  0  0  0  0  0  0  0  0  0  0  0
  160.4050  212.3450  149.6110 C   0  0  0  0  0  2  0  0  0  0  0  0
  161.5810  211.7570  148.8250 C   0  0  2  0  0  3  0  0  0  0  0  0
  162.4030  210.7410  149.6200 C   0  0  0  0  0  2  0  0  0  0  0  0
  160.6360  211.5170  151.9830 C   0  0  0  0  0  0  0  0  0  0  0  0
  161.4930  209.7280  150.2950 C   0  0  0  0  0  2  0  0  0  0  0  0
  161.0410  210.1630  151.6670 C   0  0  0  0  0  0  0  0  0  0  0  0
  162.4600  212.8350  148.2770 C   0  0  0  0  0  0  0  0  0  0  0  0
  161.9850  214.1370  148.2080 O   0  0  0  0  0  1  0  0  0  0  0  0
  163.6290  212.5740  147.8860 O   0  0  0  0  0  0  0  0  0  0  0  0
  161.3450  205.4640  153.4650 C   0  0  0  0  0  2  0  0  0  0  0  0
  160.9050  203.3650  150.3400 C   0  0  0  0  0  3  0  0  0  0  0  0
  161.5720  206.0000  151.0290 C   0  0  0  0  0  3  0  0  0  0  0  0
  161.4490  204.8470  146.9880 C   0  0  0  0  0  0  0  0  0  0  0  0
  161.1550  203.9160  147.9940 C   0  0  0  0  0  3  0  0  0  0  0  0
  161.1950  204.2940  149.3380 C   0  0  0  0  0  0  0  0  0  0  0  0
  161.8240  206.5500  148.6830 C   0  0  0  0  0  3  0  0  0  0  0  0
  161.5320  205.6220  149.6850 C   0  0  0  0  0  0  0  0  0  0  0  0
  161.7820  206.1640  147.3400 C   0  0  0  0  0  3  0  0  0  0  0  0
  161.2750  205.0670  152.0290 C   0  0  0  0  0  0  0  0  0  0  0  0
  160.9470  203.7500  151.6830 C   0  0  0  0  0  3  0  0  0  0  0  0
  161.4050  204.4410  145.5730 C   0  0  0  0  0  0  0  0  0  0  0  0
  161.2060  203.2370  145.2610 O   0  0  0  0  0  1  0  0  0  0  0  0
  161.5830  205.3840  144.5680 O   0  0  0  0  0  0  0  0  0  0  0  0
  1 10  1  0  0  0  0
  2 15  1  0  0  0  0
  3  9  1  0  0  0  0
  4  8  1  0  0  0  0
  5  1  1  0  0  0  0
  5  4  2  0  0  0  0
  6  7  1  0  0  0  0
  8  6  2  0  0  0  0
  9 11  1  0  0  0  0
 10  9  2  0  0  0  0
 10  6  1  0  0  0  0
 11  7  2  0  0  0  0
 12  2  1  0  0  0  0
 13 18  1  1  0  0  0
 13 12  1  0  0  0  0
 13 14  1  0  0  0  0
 14 16  1  0  0  0  0
 15  3  2  0  0  0  0
 16 17  1  0  0  0  0
 17 15  1  0  0  0  0
 17  1  2  0  0  0  0
 19 18  1  0  0  0  0
 20 18  2  0  0  0  0
 21  4  1  0  0  0  0
 22 31  1  0  0  0  0
 23 30  1  0  0  0  0
 24 29  1  0  0  0  0
 24 25  2  0  0  0  0
 25 26  1  0  0  0  0
 26 28  1  0  0  0  0
 26 22  2  0  0  0  0
 27 28  1  0  0  0  0
 28 23  2  0  0  0  0
 29 27  2  0  0  0  0
 30 21  1  0  0  0  0
 31 30  2  0  0  0  0
 32 24  1  0  0  0  0
 33 32  1  0  0  0  0
 34 32  2  0  0  0  0
M  END
>  <MODEL>
3

>  <REMARK>
 VINA RESULT:      -9.9      3.451      8.479
  Name = 
  4 active torsions:
  status: ('A' for Active; 'I' for Inactive)
    1  A    between atoms: C_3  and  C_25
    2  A    between atoms: C_7  and  C_11
    3  A    between atoms: C_8  and  C_18
    4  A    between atoms: C_18  and  C_30
                            x       y       z     vdW  Elec       q    Type
                         _______ _______ _______ _____ _____    ______ ____

>  <TORSDO>
F 4

$$$$
=
 OpenBabel11062409263D

 34 39  0  0  1  0  0  0  0  0999 V2000
  160.5810  209.1420  152.9360 C   0  0  0  0  0  0  0  0  0  0  0  0
  159.0240  210.7030  156.1170 C   0  0  0  0  0  2  0  0  0  0  0  0
  159.9860  208.4770  155.6320 C   0  0  0  0  0  3  0  0  0  0  0  0
  161.5700  208.2350  150.8830 C   0  0  0  0  0  0  0  0  0  0  0  0
  160.9320  209.3010  151.5780 C   0  0  0  0  0  3  0  0  0  0  0  0
  161.4850  206.8970  152.8780 C   0  0  0  0  0  0  0  0  0  0  0  0
  161.5810  205.8280  153.8860 C   0  0  0  0  0  3  0  0  0  0  0  0
  161.8480  207.0070  151.5370 C   0  0  0  0  0  3  0  0  0  0  0  0
  160.6170  207.5790  154.7770 C   0  0  0  0  0  0  0  0  0  0  0  0
  160.8860  207.9280  153.5080 C   0  0  0  0  0  0  0  0  0  0  0  0
  161.0630  206.2430  155.0160 N   0  0  0  0  0  0  0  0  0  0  0  0
  157.8970  211.5430  155.5290 C   0  0  0  0  0  2  0  0  0  0  0  0
  158.4250  212.8200  154.8680 C   0  0  2  0  0  3  0  0  0  0  0  0
  159.6900  212.6030  154.0360 C   0  0  0  0  0  2  0  0  0  0  0  0
  159.6290  209.7520  155.1220 C   0  0  0  0  0  0  0  0  0  0  0  0
  159.5250  211.4070  153.1130 C   0  0  0  0  0  2  0  0  0  0  0  0
  159.9410  210.1060  153.7540 C   0  0  0  0  0  0  0  0  0  0  0  0
  158.6340  213.9050  155.8750 C   0  0  0  0  0  0  0  0  0  0  0  0
  159.9190  214.3530  156.1440 O   0  0  0  0  0  0  0  0  0  0  0  0
  157.6530  214.4230  156.4740 O   0  0  0  0  0  1  0  0  0  0  0  0
  161.9130  208.3970  149.4410 C   0  0  0  0  0  2  0  0  0  0  0  0
  162.1280  205.7810  146.7070 C   0  0  0  0  0  3  0  0  0  0  0  0
  161.3800  205.9510  149.4050 C   0  0  0  0  0  3  0  0  0  0  0  0
  161.1190  202.2790  147.3740 C   0  0  0  0  0  0  0  0  0  0  0  0
  161.5810  203.4200  146.7050 C   0  0  0  0  0  3  0  0  0  0  0  0
  161.6700  204.6430  147.3750 C   0  0  0  0  0  0  0  0  0  0  0  0
  160.8310  203.5910  149.4010 C   0  0  0  0  0  3  0  0  0  0  0  0
  161.2920  204.7280  148.7340 C   0  0  0  0  0  0  0  0  0  0  0  0
  160.7460  202.3710  148.7230 C   0  0  0  0  0  3  0  0  0  0  0  0
  161.8450  207.0870  148.7330 C   0  0  0  0  0  0  0  0  0  0  0  0
  162.2140  207.0010  147.3840 C   0  0  0  0  0  3  0  0  0  0  0  0
  161.0280  200.9940  146.6610 C   0  0  0  0  0  0  0  0  0  0  0  0
  161.5350  199.9520  147.1560 O   0  0  0  0  0  1  0  0  0  0  0  0
  160.3820  200.9180  145.4330 O   0  0  0  0  0  0  0  0  0  0  0  0
  1 10  1  0  0  0  0
  1 17  1  0  0  0  0
  4  8  2  0  0  0  0
  4  5  1  0  0  0  0
  5  1  2  0  0  0  0
  6 10  2  0  0  0  0
  6  7  1  0  0  0  0
  7 11  2  0  0  0  0
  8  6  1  0  0  0  0
  9 11  1  0  0  0  0
  9  3  2  0  0  0  0
 10  9  1  0  0  0  0
 12  2  1  0  0  0  0
 13 12  1  0  0  0  0
 13 18  1  1  0  0  0
 14 13  1  0  0  0  0
 15  3  1  0  0  0  0
 15  2  1  0  0  0  0
 16 17  1  0  0  0  0
 16 14  1  0  0  0  0
 17 15  2  0  0  0  0
 18 19  2  0  0  0  0
 18 20  1  0  0  0  0
 21  4  1  0  0  0  0
 22 26  2  0  0  0  0
 22 31  1  0  0  0  0
 24 29  1  0  0  0  0
 25 24  2  0  0  0  0
 25 26  1  0  0  0  0
 26 28  1  0  0  0  0
 28 27  1  0  0  0  0
 28 23  2  0  0  0  0
 29 27  2  0  0  0  0
 30 23  1  0  0  0  0
 30 21  1  0  0  0  0
 31 30  2  0  0  0  0
 32 33  1  0  0  0  0
 32 24  1  0  0  0  0
 34 32  2  0  0  0  0
M  END
>  <MODEL>
4

>  <REMARK>
 VINA RESULT:      -9.8      1.888     10.050
  Name = 
  4 active torsions:
  status: ('A' for Active; 'I' for Inactive)
    1  A    between atoms: C_3  and  C_25
    2  A    between atoms: C_7  and  C_11
    3  A    between atoms: C_8  and  C_18
    4  A    between atoms: C_18  and  C_30
                            x       y       z     vdW  Elec       q    Type
                         _______ _______ _______ _____ _____    ______ ____

>  <TORSDO>
F 4

$$$$
=
 OpenBabel11062409263D

 34 39  0  0  1  0  0  0  0  0999 V2000
  160.9090  209.1660  152.6380 C   0  0  0  0  0  0  0  0  0  0  0  0
  160.8000  212.6510  150.9570 C   0  0  0  0  0  2  0  0  0  0  0  0
  160.0760  211.8280  153.1740 C   0  0  0  0  0  3  0  0  0  0  0  0
  161.0320  206.9300  153.6360 C   0  0  0  0  0  0  0  0  0  0  0  0
  161.2530  207.8010  152.5330 C   0  0  0  0  0  3  0  0  0  0  0  0
  160.1360  208.7700  154.8970 C   0  0  0  0  0  0  0  0  0  0  0  0
  159.5350  209.6420  155.9190 C   0  0  0  0  0  3  0  0  0  0  0  0
  160.4590  207.4140  154.8400 C   0  0  0  0  0  3  0  0  0  0  0  0
  159.9570  210.8160  154.1220 C   0  0  0  0  0  0  0  0  0  0  0  0
  160.3630  209.5690  153.8350 C   0  0  0  0  0  0  0  0  0  0  0  0
  159.4320  210.8610  155.4510 N   0  0  0  0  0  0  0  0  0  0  0  0
  160.4780  212.2870  149.5130 C   0  0  0  0  0  2  0  0  0  0  0  0
  161.6960  211.7080  148.7870 C   0  0  2  0  0  3  0  0  0  0  0  0
  162.5010  210.7190  149.6310 C   0  0  0  0  0  2  0  0  0  0  0  0
  160.6240  211.4990  151.9060 C   0  0  0  0  0  0  0  0  0  0  0  0
  161.5810  209.7000  150.2830 C   0  0  0  0  0  2  0  0  0  0  0  0
  161.0650  210.1480  151.6290 C   0  0  0  0  0  0  0  0  0  0  0  0
  162.5790  212.7930  148.2580 C   0  0  0  0  0  0  0  0  0  0  0  0
  162.0950  214.0910  148.1770 O   0  0  0  0  0  1  0  0  0  0  0  0
  163.7600  212.5410  147.8960 O   0  0  0  0  0  0  0  0  0  0  0  0
  161.3710  205.4830  153.5110 C   0  0  0  0  0  2  0  0  0  0  0  0
  161.4210  205.6130  149.7230 C   0  0  0  0  0  3  0  0  0  0  0  0
  161.1110  203.7110  151.7610 C   0  0  0  0  0  3  0  0  0  0  0  0
  160.9250  202.5290  147.7300 C   0  0  0  0  0  0  0  0  0  0  0  0
  161.1430  203.8740  148.0590 C   0  0  0  0  0  3  0  0  0  0  0  0
  161.2060  204.2720  149.3960 C   0  0  0  0  0  0  0  0  0  0  0  0
  160.8310  201.9730  150.0950 C   0  0  0  0  0  3  0  0  0  0  0  0
  161.0490  203.3130  150.4230 C   0  0  0  0  0  0  0  0  0  0  0  0
  160.7700  201.5830  148.7540 C   0  0  0  0  0  3  0  0  0  0  0  0
  161.3320  205.0540  152.0830 C   0  0  0  0  0  0  0  0  0  0  0  0
  161.4820  206.0040  151.0640 C   0  0  0  0  0  3  0  0  0  0  0  0
  160.8600  202.1170  146.3180 C   0  0  0  0  0  0  0  0  0  0  0  0
  160.8310  200.8960  146.0100 O   0  0  0  0  0  1  0  0  0  0  0  0
  160.8310  203.0740  145.3100 O   0  0  0  0  0  0  0  0  0  0  0  0
  1 10  1  0  0  0  0
  2 15  1  0  0  0  0
  3  9  1  0  0  0  0
  4  8  1  0  0  0  0
  5  1  1  0  0  0  0
  5  4  2  0  0  0  0
  6  7  1  0  0  0  0
  8  6  2  0  0  0  0
  9 11  1  0  0  0  0
 10  9  2  0  0  0  0
 10  6  1  0  0  0  0
 11  7  2  0  0  0  0
 12  2  1  0  0  0  0
 13 18  1  1  0  0  0
 13 12  1  0  0  0  0
 13 14  1  0  0  0  0
 14 16  1  0  0  0  0
 15  3  2  0  0  0  0
 16 17  1  0  0  0  0
 17 15  1  0  0  0  0
 17  1  2  0  0  0  0
 19 18  1  0  0  0  0
 20 18  2  0  0  0  0
 21  4  1  0  0  0  0
 22 31  1  0  0  0  0
 23 30  1  0  0  0  0
 24 25  2  0  0  0  0
 24 29  1  0  0  0  0
 25 26  1  0  0  0  0
 26 22  2  0  0  0  0
 26 28  1  0  0  0  0
 27 28  1  0  0  0  0
 28 23  2  0  0  0  0
 29 27  2  0  0  0  0
 30 21  1  0  0  0  0
 31 30  2  0  0  0  0
 32 24  1  0  0  0  0
 33 32  1  0  0  0  0
 34 32  2  0  0  0  0
M  END
>  <MODEL>
5

>  <REMARK>
 VINA RESULT:      -9.7      3.641      8.798
  Name = 
  4 active torsions:
  status: ('A' for Active; 'I' for Inactive)
    1  A    between atoms: C_3  and  C_25
    2  A    between atoms: C_7  and  C_11
    3  A    between atoms: C_8  and  C_18
    4  A    between atoms: C_18  and  C_30
                            x       y       z     vdW  Elec       q    Type
                         _______ _______ _______ _____ _____    ______ ____

>  <TORSDO>
F 4

$$$$
=
 OpenBabel11062409263D

 34 39  0  0  1  0  0  0  0  0999 V2000
  161.7690  208.1000  149.1730 C   0  0  0  0  0  0  0  0  0  0  0  0
  161.0220  204.3580  148.5230 C   0  0  0  0  0  2  0  0  0  0  0  0
  160.9370  205.7630  150.5560 C   0  0  0  0  0  3  0  0  0  0  0  0
  162.2440  210.4840  149.4960 C   0  0  0  0  0  0  0  0  0  0  0  0
  162.1810  209.3430  148.6470 C   0  0  0  0  0  3  0  0  0  0  0  0
  161.5060  209.1370  151.3450 C   0  0  0  0  0  0  0  0  0  0  0  0
  161.0970  208.6200  152.6600 C   0  0  0  0  0  3  0  0  0  0  0  0
  161.9080  210.3850  150.8700 C   0  0  0  0  0  3  0  0  0  0  0  0
  161.0580  206.9920  151.1970 C   0  0  0  0  0  0  0  0  0  0  0  0
  161.4520  208.0780  150.5120 C   0  0  0  0  0  0  0  0  0  0  0  0
  160.8300  207.3400  152.5650 N   0  0  0  0  0  0  0  0  0  0  0  0
  162.0940  204.0030  147.5010 C   0  0  0  0  0  2  0  0  0  0  0  0
  161.7640  204.5580  146.1120 C   0  0  2  0  0  3  0  0  0  0  0  0
  161.2190  205.9870  146.1370 C   0  0  0  0  0  2  0  0  0  0  0  0
  161.2500  205.6930  149.1740 C   0  0  0  0  0  0  0  0  0  0  0  0
  162.0890  206.8760  147.0090 C   0  0  0  0  0  2  0  0  0  0  0  0
  161.6610  206.8820  148.4570 C   0  0  0  0  0  0  0  0  0  0  0  0
  160.8350  203.6500  145.3720 C   0  0  0  0  0  0  0  0  0  0  0  0
  160.8420  202.2900  145.6480 O   0  0  0  0  0  1  0  0  0  0  0  0
  160.0410  204.1100  144.5080 O   0  0  0  0  0  0  0  0  0  0  0  0
  162.7070  211.7890  148.9420 C   0  0  0  0  0  2  0  0  0  0  0  0
  159.6460  212.5650  146.8450 C   0  0  0  0  0  3  0  0  0  0  0  0
  162.4380  212.5770  146.5800 C   0  0  0  0  0  3  0  0  0  0  0  0
  160.0090  213.6810  143.3310 C   0  0  0  0  0  0  0  0  0  0  0  0
  159.4250  213.3070  144.5490 C   0  0  0  0  0  3  0  0  0  0  0  0
  160.2280  212.9400  145.6320 C   0  0  0  0  0  0  0  0  0  0  0  0
  162.2160  213.3180  144.2840 C   0  0  0  0  0  3  0  0  0  0  0  0
  161.6350  212.9450  145.4980 C   0  0  0  0  0  0  0  0  0  0  0  0
  161.4060  213.6840  143.2050 C   0  0  0  0  0  3  0  0  0  0  0  0
  161.8500  212.2080  147.7950 C   0  0  0  0  0  0  0  0  0  0  0  0
  160.4550  212.1970  147.9240 C   0  0  0  0  0  3  0  0  0  0  0  0
  159.1560  214.0670  142.1940 C   0  0  0  0  0  0  0  0  0  0  0  0
  157.9720  214.4530  142.3860 O   0  0  0  0  0  1  0  0  0  0  0  0
  159.6500  214.0090  140.8970 O   0  0  0  0  0  0  0  0  0  0  0  0
  1 10  1  0  0  0  0
  2 15  1  0  0  0  0
  3  9  1  0  0  0  0
  4  8  1  0  0  0  0
  5  1  1  0  0  0  0
  5  4  2  0  0  0  0
  6  7  1  0  0  0  0
  8  6  2  0  0  0  0
  9 11  1  0  0  0  0
 10  9  2  0  0  0  0
 10  6  1  0  0  0  0
 11  7  2  0  0  0  0
 12  2  1  0  0  0  0
 13 18  1  1  0  0  0
 13 14  1  0  0  0  0
 13 12  1  0  0  0  0
 14 16  1  0  0  0  0
 15  3  2  0  0  0  0
 16 17  1  0  0  0  0
 17  1  2  0  0  0  0
 17 15  1  0  0  0  0
 18 19  1  0  0  0  0
 20 18  2  0  0  0  0
 21  4  1  0  0  0  0
 22 31  1  0  0  0  0
 23 30  1  0  0  0  0
 24 25  2  0  0  0  0
 25 26  1  0  0  0  0
 26 22  2  0  0  0  0
 27 28  1  0  0  0  0
 28 26  1  0  0  0  0
 28 23  2  0  0  0  0
 29 24  1  0  0  0  0
 29 27  2  0  0  0  0
 30 31  2  0  0  0  0
 30 21  1  0  0  0  0
 32 33  1  0  0  0  0
 32 24  1  0  0  0  0
 34 32  2  0  0  0  0
M  END
>  <MODEL>
6

>  <REMARK>
 VINA RESULT:      -9.6      4.692      7.328
  Name = 
  4 active torsions:
  status: ('A' for Active; 'I' for Inactive)
    1  A    between atoms: C_3  and  C_25
    2  A    between atoms: C_7  and  C_11
    3  A    between atoms: C_8  and  C_18
    4  A    between atoms: C_18  and  C_30
                            x       y       z     vdW  Elec       q    Type
                         _______ _______ _______ _____ _____    ______ ____

>  <TORSDO>
F 4

$$$$
=
 OpenBabel11062409263D

 34 39  0  0  1  0  0  0  0  0999 V2000
  160.6430  210.6510  152.1300 C   0  0  0  0  0  0  0  0  0  0  0  0
  160.4420  213.6130  149.6450 C   0  0  0  0  0  2  0  0  0  0  0  0
  159.4990  213.2410  151.9010 C   0  0  0  0  0  3  0  0  0  0  0  0
  160.8350  208.7390  153.6530 C   0  0  0  0  0  0  0  0  0  0  0  0
  161.1240  209.3530  152.4020 C   0  0  0  0  0  3  0  0  0  0  0  0
  159.6060  210.6950  154.3160 C   0  0  0  0  0  0  0  0  0  0  0  0
  158.7900  211.6980  155.0200 C   0  0  0  0  0  3  0  0  0  0  0  0
  160.0580  209.4140  154.6290 C   0  0  0  0  0  3  0  0  0  0  0  0
  159.3450  212.4690  153.0480 C   0  0  0  0  0  0  0  0  0  0  0  0
  159.9020  211.2490  153.1230 C   0  0  0  0  0  0  0  0  0  0  0  0
  158.6390  212.7540  154.2580 N   0  0  0  0  0  0  0  0  0  0  0  0
  160.3590  212.8880  148.3080 C   0  0  0  0  0  2  0  0  0  0  0  0
  161.7150  212.3130  147.8870 C   0  0  2  0  0  3  0  0  0  0  0  0
  162.4840  211.6530  149.0320 C   0  0  0  0  0  2  0  0  0  0  0  0
  160.2450  212.6990  150.8220 C   0  0  0  0  0  0  0  0  0  0  0  0
  161.5810  210.7060  149.8070 C   0  0  0  0  0  2  0  0  0  0  0  0
  160.8440  211.3860  150.9350 C   0  0  0  0  0  0  0  0  0  0  0  0
  162.5570  213.3470  147.2110 C   0  0  0  0  0  0  0  0  0  0  0  0
  162.6770  213.3370  145.8290 O   0  0  0  0  0  0  0  0  0  0  0  0
  163.1490  214.2330  147.8840 O   0  0  0  0  0  1  0  0  0  0  0  0
  161.3220  207.3560  153.9240 C   0  0  0  0  0  2  0  0  0  0  0  0
  161.2630  206.4010  150.2570 C   0  0  0  0  0  3  0  0  0  0  0  0
  161.2280  205.1400  152.7610 C   0  0  0  0  0  3  0  0  0  0  0  0
  161.0830  202.8420  149.2440 C   0  0  0  0  0  0  0  0  0  0  0  0
  161.1500  204.2400  149.1670 C   0  0  0  0  0  3  0  0  0  0  0  0
  161.1990  205.0080  150.3330 C   0  0  0  0  0  0  0  0  0  0  0  0
  161.1130  202.9790  151.6710 C   0  0  0  0  0  3  0  0  0  0  0  0
  161.1800  204.3720  151.5960 C   0  0  0  0  0  0  0  0  0  0  0  0
  161.0650  202.2180  150.5000 C   0  0  0  0  0  3  0  0  0  0  0  0
  161.2990  206.5350  152.6790 C   0  0  0  0  0  0  0  0  0  0  0  0
  161.3110  207.1640  151.4270 C   0  0  0  0  0  3  0  0  0  0  0  0
  161.0320  202.0390  148.0110 C   0  0  0  0  0  0  0  0  0  0  0  0
  160.8310  202.5920  146.8970 O   0  0  0  0  0  0  0  0  0  0  0  0
  161.2040  200.6610  148.0650 O   0  0  0  0  0  1  0  0  0  0  0  0
  1  5  1  0  0  0  0
  1 10  1  0  0  0  0
  2 15  1  0  0  0  0
  3  9  1  0  0  0  0
  4 21  1  0  0  0  0
  4  8  1  0  0  0  0
  5  4  2  0  0  0  0
  6  8  2  0  0  0  0
  6  7  1  0  0  0  0
  9 10  2  0  0  0  0
  9 11  1  0  0  0  0
 10  6  1  0  0  0  0
 11  7  2  0  0  0  0
 12  2  1  0  0  0  0
 13 18  1  1  0  0  0
 13 12  1  0  0  0  0
 13 14  1  0  0  0  0
 14 16  1  0  0  0  0
 15 17  1  0  0  0  0
 15  3  2  0  0  0  0
 16 17  1  0  0  0  0
 17  1  2  0  0  0  0
 18 20  1  0  0  0  0
 19 18  2  0  0  0  0
 22 26  2  0  0  0  0
 22 31  1  0  0  0  0
 24 29  1  0  0  0  0
 25 24  2  0  0  0  0
 25 26  1  0  0  0  0
 26 28  1  0  0  0  0
 28 27  1  0  0  0  0
 28 23  2  0  0  0  0
 29 27  2  0  0  0  0
 30 23  1  0  0  0  0
 30 21  1  0  0  0  0
 31 30  2  0  0  0  0
 32 34  1  0  0  0  0
 32 24  1  0  0  0  0
 33 32  2  0  0  0  0
M  END
>  <MODEL>
7

>  <REMARK>
 VINA RESULT:      -9.5      3.947      8.617
  Name = 
  4 active torsions:
  status: ('A' for Active; 'I' for Inactive)
    1  A    between atoms: C_3  and  C_25
    2  A    between atoms: C_7  and  C_11
    3  A    between atoms: C_8  and  C_18
    4  A    between atoms: C_18  and  C_30
                            x       y       z     vdW  Elec       q    Type
                         _______ _______ _______ _____ _____    ______ ____

>  <TORSDO>
F 4

$$$$
=
 OpenBabel11062409263D

 34 39  0  0  1  0  0  0  0  0999 V2000
  160.0520  211.0730  154.1840 C   0  0  0  0  0  0  0  0  0  0  0  0
  157.4600  212.5780  156.6330 C   0  0  0  0  0  2  0  0  0  0  0  0
  159.7830  211.7800  156.9220 C   0  0  0  0  0  3  0  0  0  0  0  0
  161.6420  210.1450  152.5640 C   0  0  0  0  0  0  0  0  0  0  0  0
  160.3500  210.6590  152.8680 C   0  0  0  0  0  3  0  0  0  0  0  0
  162.2950  210.4560  154.8560 C   0  0  0  0  0  0  0  0  0  0  0  0
  163.0030  210.4980  156.1460 C   0  0  0  0  0  3  0  0  0  0  0  0
  162.6340  210.0330  153.5720 C   0  0  0  0  0  3  0  0  0  0  0  0
  160.9690  211.2640  156.4100 C   0  0  0  0  0  0  0  0  0  0  0  0
  161.0630  210.9430  155.1090 C   0  0  0  0  0  0  0  0  0  0  0  0
  162.2070  210.9830  157.0680 N   0  0  0  0  0  0  0  0  0  0  0  0
  156.1630  211.9620  156.1260 C   0  0  0  0  0  2  0  0  0  0  0  0
  155.6840  212.6270  154.8320 C   0  0  2  0  0  3  0  0  0  0  0  0
  156.8080  212.8990  153.8300 C   0  0  0  0  0  2  0  0  0  0  0  0
  158.6840  211.9420  156.0380 C   0  0  0  0  0  0  0  0  0  0  0  0
  157.6760  211.6650  153.6520 C   0  0  0  0  0  2  0  0  0  0  0  0
  158.8170  211.5990  154.6370 C   0  0  0  0  0  0  0  0  0  0  0  0
  154.9150  213.8770  155.1160 C   0  0  0  0  0  0  0  0  0  0  0  0
  154.1490  214.4530  154.1130 O   0  0  0  0  0  0  0  0  0  0  0  0
  154.9480  214.4050  156.2600 O   0  0  0  0  0  1  0  0  0  0  0  0
  161.9420  209.6820  151.1790 C   0  0  0  0  0  2  0  0  0  0  0  0
  161.2110  206.0680  152.0570 C   0  0  0  0  0  3  0  0  0  0  0  0
  161.6550  207.6310  149.7710 C   0  0  0  0  0  3  0  0  0  0  0  0
  160.9470  203.5030  149.3960 C   0  0  0  0  0  0  0  0  0  0  0  0
  160.9600  204.1020  150.6630 C   0  0  0  0  0  3  0  0  0  0  0  0
  161.1950  205.4730  150.7930 C   0  0  0  0  0  0  0  0  0  0  0  0
  161.4060  205.6640  148.3780 C   0  0  0  0  0  3  0  0  0  0  0  0
  161.4200  206.2600  149.6410 C   0  0  0  0  0  0  0  0  0  0  0  0
  161.1710  204.2910  148.2570 C   0  0  0  0  0  3  0  0  0  0  0  0
  161.6640  208.2240  151.0390 C   0  0  0  0  0  0  0  0  0  0  0  0
  161.4470  207.4410  152.1800 C   0  0  0  0  0  3  0  0  0  0  0  0
  160.6990  202.0580  149.2670 C   0  0  0  0  0  0  0  0  0  0  0  0
  160.4160  201.3660  150.2810 O   0  0  0  0  0  1  0  0  0  0  0  0
  160.7750  201.4430  148.0230 O   0  0  0  0  0  0  0  0  0  0  0  0
  1 17  2  0  0  0  0
  1 10  1  0  0  0  0
  4  5  2  0  0  0  0
  4  8  1  0  0  0  0
  5  1  1  0  0  0  0
  6 10  1  0  0  0  0
  6  7  1  0  0  0  0
  7 11  2  0  0  0  0
  8  6  2  0  0  0  0
  9  3  1  0  0  0  0
  9 11  1  0  0  0  0
 10  9  2  0  0  0  0
 12  2  1  0  0  0  0
 13 18  1  1  0  0  0
 13 12  1  0  0  0  0
 14 13  1  0  0  0  0
 15  2  1  0  0  0  0
 15  3  2  0  0  0  0
 16 14  1  0  0  0  0
 16 17  1  0  0  0  0
 17 15  1  0  0  0  0
 18 20  1  0  0  0  0
 19 18  2  0  0  0  0
 21  4  1  0  0  0  0
 22 31  1  0  0  0  0
 23 30  1  0  0  0  0
 24 25  2  0  0  0  0
 25 26  1  0  0  0  0
 26 22  2  0  0  0  0
 27 28  1  0  0  0  0
 28 23  2  0  0  0  0
 28 26  1  0  0  0  0
 29 27  2  0  0  0  0
 29 24  1  0  0  0  0
 30 21  1  0  0  0  0
 30 31  2  0  0  0  0
 32 24  1  0  0  0  0
 32 33  1  0  0  0  0
 34 32  2  0  0  0  0
M  END
>  <MODEL>
8

>  <REMARK>
 VINA RESULT:      -9.4      2.418      9.946
  Name = 
  4 active torsions:
  status: ('A' for Active; 'I' for Inactive)
    1  A    between atoms: C_3  and  C_25
    2  A    between atoms: C_7  and  C_11
    3  A    between atoms: C_8  and  C_18
    4  A    between atoms: C_18  and  C_30
                            x       y       z     vdW  Elec       q    Type
                         _______ _______ _______ _____ _____    ______ ____

>  <TORSDO>
F 4

$$$$
=
 OpenBabel11062409263D

 34 39  0  0  1  0  0  0  0  0999 V2000
  160.2690  209.9260  152.9930 C   0  0  0  0  0  0  0  0  0  0  0  0
  158.6760  213.2850  154.0710 C   0  0  0  0  0  2  0  0  0  0  0  0
  160.0820  212.6300  152.1450 C   0  0  0  0  0  3  0  0  0  0  0  0
  161.2280  207.7570  152.3710 C   0  0  0  0  0  0  0  0  0  0  0  0
  160.4730  208.5580  153.2730 C   0  0  0  0  0  3  0  0  0  0  0  0
  161.5600  209.6740  150.9610 C   0  0  0  0  0  0  0  0  0  0  0  0
  161.9600  210.6160  149.9030 C   0  0  0  0  0  3  0  0  0  0  0  0
  161.7890  208.3190  151.1960 C   0  0  0  0  0  3  0  0  0  0  0  0
  160.7700  211.6740  151.4040 C   0  0  0  0  0  0  0  0  0  0  0  0
  160.8360  210.4040  151.8330 C   0  0  0  0  0  0  0  0  0  0  0  0
  161.4840  211.8070  150.1720 N   0  0  0  0  0  0  0  0  0  0  0  0
  158.8250  213.2250  155.5850 C   0  0  0  0  0  2  0  0  0  0  0  0
  157.8140  212.2660  156.2200 C   0  0  2  0  0  3  0  0  0  0  0  0
  157.6420  210.9570  155.4470 C   0  0  0  0  0  2  0  0  0  0  0  0
  159.4710  212.2260  153.3600 C   0  0  0  0  0  0  0  0  0  0  0  0
  158.9950  210.3540  155.1080 C   0  0  0  0  0  2  0  0  0  0  0  0
  159.5480  210.8470  153.7930 C   0  0  0  0  0  0  0  0  0  0  0  0
  156.4930  212.9320  156.4320 C   0  0  0  0  0  0  0  0  0  0  0  0
  155.3500  212.1580  156.5740 O   0  0  0  0  0  1  0  0  0  0  0  0
  156.4090  214.1880  156.4920 O   0  0  0  0  0  0  0  0  0  0  0  0
  161.4640  206.3180  152.6860 C   0  0  0  0  0  2  0  0  0  0  0  0
  161.3870  205.3350  149.0260 C   0  0  0  0  0  3  0  0  0  0  0  0
  161.2070  204.1060  151.5400 C   0  0  0  0  0  3  0  0  0  0  0  0
  160.9310  201.7920  148.0410 C   0  0  0  0  0  0  0  0  0  0  0  0
  161.1150  203.1790  147.9530 C   0  0  0  0  0  3  0  0  0  0  0  0
  161.2070  203.9530  149.1130 C   0  0  0  0  0  0  0  0  0  0  0  0
  160.9330  201.9510  150.4670 C   0  0  0  0  0  3  0  0  0  0  0  0
  161.1160  203.3330  150.3810 C   0  0  0  0  0  0  0  0  0  0  0  0
  160.8420  201.1850  149.3020 C   0  0  0  0  0  3  0  0  0  0  0  0
  161.3930  205.4900  151.4480 C   0  0  0  0  0  0  0  0  0  0  0  0
  161.4780  206.1030  150.1910 C   0  0  0  0  0  3  0  0  0  0  0  0
  160.8350  200.9840  146.8140 C   0  0  0  0  0  0  0  0  0  0  0  0
  161.3480  199.8340  146.7650 O   0  0  0  0  0  1  0  0  0  0  0  0
  160.1770  201.4830  145.6960 O   0  0  0  0  0  0  0  0  0  0  0  0
  1  5  1  0  0  0  0
  1 17  1  0  0  0  0
  2 12  1  0  0  0  0
  3 15  1  0  0  0  0
  4 21  1  0  0  0  0
  4  5  2  0  0  0  0
  6  8  2  0  0  0  0
  6 10  1  0  0  0  0
  7 11  2  0  0  0  0
  7  6  1  0  0  0  0
  8  4  1  0  0  0  0
  9 10  1  0  0  0  0
  9  3  2  0  0  0  0
 10  1  2  0  0  0  0
 11  9  1  0  0  0  0
 12 13  1  0  0  0  0
 13 18  1  6  0  0  0
 14 13  1  0  0  0  0
 15 17  2  0  0  0  0
 15  2  1  0  0  0  0
 16 14  1  0  0  0  0
 17 16  1  0  0  0  0
 18 20  2  0  0  0  0
 18 19  1  0  0  0  0
 22 26  2  0  0  0  0
 22 31  1  0  0  0  0
 24 29  1  0  0  0  0
 25 24  2  0  0  0  0
 25 26  1  0  0  0  0
 26 28  1  0  0  0  0
 28 27  1  0  0  0  0
 28 23  2  0  0  0  0
 29 27  2  0  0  0  0
 30 23  1  0  0  0  0
 30 21  1  0  0  0  0
 31 30  2  0  0  0  0
 32 24  1  0  0  0  0
 33 32  1  0  0  0  0
 34 32  2  0  0  0  0
M  END
>  <MODEL>
9

>  <REMARK>
 VINA RESULT:      -9.4      2.282     10.431
  Name = 
  4 active torsions:
  status: ('A' for Active; 'I' for Inactive)
    1  A    between atoms: C_3  and  C_25
    2  A    between atoms: C_7  and  C_11
    3  A    between atoms: C_8  and  C_18
    4  A    between atoms: C_18  and  C_30
                            x       y       z     vdW  Elec       q    Type
                         _______ _______ _______ _____ _____    ______ ____

>  <TORSDO>
F 4

$$$$
