=
 OpenBabel11052422473D

 28 32  0  0  1  0  0  0  0  0999 V2000
  161.3430  204.1840  148.1940 C   0  0  0  0  0  0  0  0  0  0  0  0
  160.4210  202.4530  152.7670 C   0  0  0  0  0  1  0  0  0  0  0  0
  161.2170  205.8980  151.4350 C   0  0  0  0  0  0  0  0  0  0  0  0
  160.8840  203.3120  150.4290 C   0  0  0  0  0  0  0  0  0  0  0  0
  161.3530  205.6420  150.1030 N   0  0  0  0  0  0  0  0  0  0  0  0
  160.8740  201.8200  148.5150 C   0  0  0  0  0  3  0  0  0  0  0  0
  160.7440  203.5480  151.8070 C   0  0  0  0  0  0  0  0  0  0  0  0
  160.7260  202.0290  149.8870 C   0  0  0  0  0  3  0  0  0  0  0  0
  160.9150  204.8400  152.3040 C   0  0  0  0  0  3  0  0  0  0  0  0
  161.1820  202.8910  147.6730 C   0  0  0  0  0  3  0  0  0  0  0  0
  161.1950  204.3970  149.5770 C   0  0  0  0  0  0  0  0  0  0  0  0
  161.0960  207.5140  153.2310 C   0  0  0  0  0  3  0  0  0  0  0  0
  161.6090  209.6180  151.0760 C   0  0  0  0  0  3  0  0  0  0  0  0
  160.4340  209.8740  153.2540 C   0  0  0  0  0  0  0  0  0  0  0  0
  161.4200  207.2760  151.9520 C   0  0  0  0  0  0  0  0  0  0  0  0
  162.9570  207.9670  150.1350 O   0  0  0  0  0  1  0  0  0  0  0  0
  160.6400  210.2490  151.9930 C   0  0  0  0  0  3  0  0  0  0  0  0
  161.9950  208.3330  151.0680 C   0  0  0  0  0  0  0  0  0  0  0  0
  159.5020  210.5220  153.9930 F   0  0  0  0  0  0  0  0  0  0  0  0
  161.2760  208.8300  153.9080 C   0  0  0  0  0  2  0  0  0  0  0  0
  161.6830  205.3280  147.2810 C   0  0  2  0  0  3  0  0  0  0  0  0
  160.4410  206.1740  146.9630 C   0  0  0  0  0  2  0  0  0  0  0  0
  162.2550  205.8390  144.8590 C   0  0  1  0  0  3  0  0  0  0  0  0
  159.9440  205.8420  145.6920 O   0  0  0  0  0  0  0  0  0  0  0  0
  163.7210  204.5740  146.2650 O   0  0  0  0  0  1  0  0  0  0  0  0
  162.3750  204.8290  146.0040 C   0  0  1  0  0  3  0  0  0  0  0  0
  161.3000  205.3230  143.8020 C   0  0  0  0  0  2  0  0  0  0  0  0
  160.8280  206.4070  144.7500 C   0  0  2  0  0  3  0  0  0  0  0  0
  1 11  1  0  0  0  0
  3 15  1  0  0  0  0
  3  9  1  0  0  0  0
  4  7  1  0  0  0  0
  5  3  2  0  0  0  0
  6  8  2  0  0  0  0
  7  9  2  0  0  0  0
  7  2  1  0  0  0  0
  8  4  1  0  0  0  0
 10  1  2  0  0  0  0
 10  6  1  0  0  0  0
 11  5  1  0  0  0  0
 11  4  2  0  0  0  0
 12 20  1  0  0  0  0
 13 17  1  0  0  0  0
 14 20  1  0  0  0  0
 14 19  1  0  0  0  0
 15 12  2  0  0  0  0
 16 18  1  0  0  0  0
 17 14  2  0  0  0  0
 18 13  2  0  0  0  0
 18 15  1  0  0  0  0
 21  1  1  1  0  0  0
 22 21  1  0  0  0  0
 23 27  1  6  0  0  0
 23 26  1  0  0  0  0
 24 22  1  0  0  0  0
 26 25  1  1  0  0  0
 26 21  1  0  0  0  0
 28 27  1  6  0  0  0
 28 23  1  0  0  0  0
 28 24  1  0  0  0  0
M  END
>  <MODEL>
1

>  <REMARK>
 VINA RESULT:      -9.5      0.000      0.000
  Name = 
  2 active torsions:
  status: ('A' for Active; 'I' for Inactive)
    1  A    between atoms: C_1  and  C_2
    2  A    between atoms: C_10  and  C_13
                            x       y       z     vdW  Elec       q    Type
                         _______ _______ _______ _____ _____    ______ ____

>  <TORSDO>
F 2

$$$$
=
 OpenBabel11052422473D

 28 32  0  0  1  0  0  0  0  0999 V2000
  161.3370  209.3070  152.7490 C   0  0  0  0  0  0  0  0  0  0  0  0
  162.3210  206.9590  148.4740 C   0  0  0  0  0  1  0  0  0  0  0  0
  161.8100  210.5990  149.3480 C   0  0  0  0  0  0  0  0  0  0  0  0
  161.8230  208.1330  150.6630 C   0  0  0  0  0  0  0  0  0  0  0  0
  161.5780  210.5200  150.6880 N   0  0  0  0  0  0  0  0  0  0  0  0
  161.5790  206.8880  152.7310 C   0  0  0  0  0  3  0  0  0  0  0  0
  162.0600  208.1880  149.2780 C   0  0  0  0  0  0  0  0  0  0  0  0
  161.8210  206.9150  151.3570 C   0  0  0  0  0  3  0  0  0  0  0  0
  162.0480  209.4210  148.6270 C   0  0  0  0  0  3  0  0  0  0  0  0
  161.3370  208.0770  153.4240 C   0  0  0  0  0  3  0  0  0  0  0  0
  161.5790  209.3370  151.3630 C   0  0  0  0  0  0  0  0  0  0  0  0
  160.7060  212.6990  148.8700 C   0  0  0  0  0  3  0  0  0  0  0  0
  162.7910  213.0390  146.6630 C   0  0  0  0  0  3  0  0  0  0  0  0
  160.4970  213.9920  146.7990 C   0  0  0  0  0  0  0  0  0  0  0  0
  161.7760  211.9180  148.6640 C   0  0  0  0  0  0  0  0  0  0  0  0
  164.2060  211.9730  148.1770 O   0  0  0  0  0  1  0  0  0  0  0  0
  161.5440  213.5780  146.0870 C   0  0  0  0  0  3  0  0  0  0  0  0
  162.9210  212.3490  147.8060 C   0  0  0  0  0  0  0  0  0  0  0  0
  159.3990  214.4530  146.1530 F   0  0  0  0  0  0  0  0  0  0  0  0
  160.5410  214.0620  148.2890 C   0  0  0  0  0  2  0  0  0  0  0  0
  161.0680  210.5800  153.5010 C   0  0  2  0  0  3  0  0  0  0  0  0
  161.9700  210.6980  154.7370 C   0  0  0  0  0  2  0  0  0  0  0  0
  159.3590  211.6560  155.0430 C   0  0  1  0  0  3  0  0  0  0  0  0
  161.2550  210.3440  155.8930 O   0  0  0  0  0  0  0  0  0  0  0  0
  158.8560  211.1440  152.7610 O   0  0  0  0  0  1  0  0  0  0  0  0
  159.5800  210.7010  153.8670 C   0  0  1  0  0  3  0  0  0  0  0  0
  158.9650  210.8790  156.2820 C   0  0  0  0  0  2  0  0  0  0  0  0
  160.3790  211.4140  156.1710 C   0  0  2  0  0  3  0  0  0  0  0  0
  1 10  1  0  0  0  0
  2  7  1  0  0  0  0
  3  5  2  0  0  0  0
  4  8  2  0  0  0  0
  4 11  1  0  0  0  0
  5 11  1  0  0  0  0
  6 10  2  0  0  0  0
  7  4  1  0  0  0  0
  8  6  1  0  0  0  0
  9  7  2  0  0  0  0
  9  3  1  0  0  0  0
 11  1  2  0  0  0  0
 13 18  2  0  0  0  0
 14 20  1  0  0  0  0
 15 12  2  0  0  0  0
 15  3  1  0  0  0  0
 17 13  1  0  0  0  0
 17 14  2  0  0  0  0
 18 16  1  0  0  0  0
 18 15  1  0  0  0  0
 19 14  1  0  0  0  0
 20 12  1  0  0  0  0
 21  1  1  1  0  0  0
 21 26  1  0  0  0  0
 21 22  1  0  0  0  0
 22 24  1  0  0  0  0
 23 28  1  0  0  0  0
 23 27  1  1  0  0  0
 24 28  1  0  0  0  0
 26 25  1  6  0  0  0
 26 23  1  0  0  0  0
 28 27  1  1  0  0  0
M  END
>  <MODEL>
2

>  <REMARK>
 VINA RESULT:      -7.5      4.109      7.959
  Name = 
  2 active torsions:
  status: ('A' for Active; 'I' for Inactive)
    1  A    between atoms: C_1  and  C_2
    2  A    between atoms: C_10  and  C_13
                            x       y       z     vdW  Elec       q    Type
                         _______ _______ _______ _____ _____    ______ ____

>  <TORSDO>
F 2

$$$$
=
 OpenBabel11052422473D

 28 32  0  0  1  0  0  0  0  0999 V2000
  161.0110  206.6460  151.1230 C   0  0  0  0  0  0  0  0  0  0  0  0
  161.0690  207.6660  155.9920 C   0  0  0  0  0  1  0  0  0  0  0  0
  160.4260  209.7840  152.9300 C   0  0  0  0  0  0  0  0  0  0  0  0
  161.0410  207.1220  153.5190 C   0  0  0  0  0  0  0  0  0  0  0  0
  160.5740  208.8640  151.9360 N   0  0  0  0  0  0  0  0  0  0  0  0
  161.4900  204.8750  152.7190 C   0  0  0  0  0  3  0  0  0  0  0  0
  160.9000  208.0530  154.5620 C   0  0  0  0  0  0  0  0  0  0  0  0
  161.3510  205.7790  153.7740 C   0  0  0  0  0  3  0  0  0  0  0  0
  160.5960  209.3810  154.2620 C   0  0  0  0  0  3  0  0  0  0  0  0
  161.3230  205.3060  151.4010 C   0  0  0  0  0  3  0  0  0  0  0  0
  160.8710  207.5590  152.1850 C   0  0  0  0  0  0  0  0  0  0  0  0
  159.4790  211.9330  153.5160 C   0  0  0  0  0  3  0  0  0  0  0  0
  159.8290  212.6430  150.5650 C   0  0  0  0  0  3  0  0  0  0  0  0
  158.1950  213.5560  152.2040 C   0  0  0  0  0  0  0  0  0  0  0  0
  160.1210  211.1990  152.5950 C   0  0  0  0  0  0  0  0  0  0  0  0
  161.7530  211.3390  150.7340 O   0  0  0  0  0  1  0  0  0  0  0  0
  158.5500  213.2700  150.9530 C   0  0  0  0  0  3  0  0  0  0  0  0
  160.5510  211.7700  151.2840 C   0  0  0  0  0  0  0  0  0  0  0  0
  156.9840  214.1180  152.4350 F   0  0  0  0  0  0  0  0  0  0  0  0
  159.1370  213.3730  153.3470 C   0  0  0  0  0  2  0  0  0  0  0  0
  160.8400  207.1020  149.7010 C   0  0  2  0  0  3  0  0  0  0  0  0
  159.9100  206.1600  148.9220 C   0  0  0  0  0  2  0  0  0  0  0  0
  162.0730  207.1980  147.4810 C   0  0  1  0  0  3  0  0  0  0  0  0
  160.6660  205.2880  148.1220 O   0  0  0  0  0  0  0  0  0  0  0  0
  162.7800  208.4750  149.3770 O   0  0  0  0  0  1  0  0  0  0  0  0
  162.2010  207.2620  149.0060 C   0  0  1  0  0  3  0  0  0  0  0  0
  162.6550  205.9000  146.9610 C   0  0  0  0  0  2  0  0  0  0  0  0
  161.1490  206.0480  147.0370 C   0  0  2  0  0  3  0  0  0  0  0  0
  1 10  2  0  0  0  0
  1 11  1  0  0  0  0
  3  9  1  0  0  0  0
  4  8  1  0  0  0  0
  4  7  1  0  0  0  0
  5 11  1  0  0  0  0
  5  3  2  0  0  0  0
  6  8  2  0  0  0  0
  7  2  1  0  0  0  0
  9  7  2  0  0  0  0
 10  6  1  0  0  0  0
 11  4  2  0  0  0  0
 13 17  1  0  0  0  0
 13 18  2  0  0  0  0
 14 19  1  0  0  0  0
 14 20  1  0  0  0  0
 15  3  1  0  0  0  0
 15 12  2  0  0  0  0
 16 18  1  0  0  0  0
 17 14  2  0  0  0  0
 18 15  1  0  0  0  0
 20 12  1  0  0  0  0
 21  1  1  1  0  0  0
 22 21  1  0  0  0  0
 23 27  1  6  0  0  0
 23 26  1  0  0  0  0
 24 22  1  0  0  0  0
 26 25  1  6  0  0  0
 26 21  1  0  0  0  0
 28 27  1  6  0  0  0
 28 23  1  0  0  0  0
 28 24  1  0  0  0  0
M  END
>  <MODEL>
3

>  <REMARK>
 VINA RESULT:      -7.5      2.399      4.242
  Name = 
  2 active torsions:
  status: ('A' for Active; 'I' for Inactive)
    1  A    between atoms: C_1  and  C_2
    2  A    between atoms: C_10  and  C_13
                            x       y       z     vdW  Elec       q    Type
                         _______ _______ _______ _____ _____    ______ ____

>  <TORSDO>
F 2

$$$$
=
 OpenBabel11052422473D

 28 32  0  0  1  0  0  0  0  0999 V2000
  161.1280  206.8530  150.9480 C   0  0  0  0  0  0  0  0  0  0  0  0
  161.4390  209.1010  155.3750 C   0  0  0  0  0  1  0  0  0  0  0  0
  160.8060  210.3860  151.8790 C   0  0  0  0  0  0  0  0  0  0  0  0
  161.2810  207.9340  153.1320 C   0  0  0  0  0  0  0  0  0  0  0  0
  160.8590  209.2310  151.1580 N   0  0  0  0  0  0  0  0  0  0  0  0
  161.5610  205.5310  152.9410 C   0  0  0  0  0  3  0  0  0  0  0  0
  161.2380  209.1120  153.8970 C   0  0  0  0  0  0  0  0  0  0  0  0
  161.5180  206.6860  153.7250 C   0  0  0  0  0  3  0  0  0  0  0  0
  161.0040  210.3340  153.2660 C   0  0  0  0  0  3  0  0  0  0  0  0
  161.3680  205.6140  151.5610 C   0  0  0  0  0  3  0  0  0  0  0  0
  161.0850  208.0190  151.7350 C   0  0  0  0  0  0  0  0  0  0  0  0
  159.7690  212.5710  151.7900 C   0  0  0  0  0  3  0  0  0  0  0  0
  160.6850  212.6430  148.8760 C   0  0  0  0  0  3  0  0  0  0  0  0
  158.7660  213.8210  149.9360 C   0  0  0  0  0  0  0  0  0  0  0  0
  160.5750  211.6830  151.1910 C   0  0  0  0  0  0  0  0  0  0  0  0
  162.5360  211.4840  149.6880 O   0  0  0  0  0  1  0  0  0  0  0  0
  159.3570  213.2860  148.8680 C   0  0  0  0  0  3  0  0  0  0  0  0
  161.2520  211.9750  149.8910 C   0  0  0  0  0  0  0  0  0  0  0  0
  157.5350  214.3700  149.8050 F   0  0  0  0  0  0  0  0  0  0  0  0
  159.4690  213.9260  151.2480 C   0  0  0  0  0  2  0  0  0  0  0  0
  160.9300  206.9330  149.4600 C   0  0  2  0  0  3  0  0  0  0  0  0
  160.0640  205.7710  148.9500 C   0  0  0  0  0  2  0  0  0  0  0  0
  162.1560  206.5580  147.2660 C   0  0  1  0  0  3  0  0  0  0  0  0
  160.8760  204.7790  148.3780 O   0  0  0  0  0  0  0  0  0  0  0  0
  162.7760  208.3050  148.7790 O   0  0  0  0  0  1  0  0  0  0  0  0
  162.2780  207.0040  148.7260 C   0  0  1  0  0  3  0  0  0  0  0  0
  162.8230  205.2110  147.0720 C   0  0  0  0  0  2  0  0  0  0  0  0
  161.3100  205.2780  147.1320 C   0  0  2  0  0  3  0  0  0  0  0  0
  1 10  2  0  0  0  0
  1 11  1  0  0  0  0
  3  9  1  0  0  0  0
  4  8  1  0  0  0  0
  4  7  1  0  0  0  0
  5 11  1  0  0  0  0
  5  3  2  0  0  0  0
  6  8  2  0  0  0  0
  7  2  1  0  0  0  0
  9  7  2  0  0  0  0
 10  6  1  0  0  0  0
 11  4  2  0  0  0  0
 13 18  2  0  0  0  0
 14 20  1  0  0  0  0
 15 12  2  0  0  0  0
 15  3  1  0  0  0  0
 16 18  1  0  0  0  0
 17 13  1  0  0  0  0
 17 14  2  0  0  0  0
 18 15  1  0  0  0  0
 19 14  1  0  0  0  0
 20 12  1  0  0  0  0
 21  1  1  1  0  0  0
 22 21  1  0  0  0  0
 23 27  1  1  0  0  0
 23 26  1  0  0  0  0
 24 22  1  0  0  0  0
 26 25  1  6  0  0  0
 26 21  1  0  0  0  0
 28 27  1  1  0  0  0
 28 23  1  0  0  0  0
 28 24  1  0  0  0  0
M  END
>  <MODEL>
4

>  <REMARK>
 VINA RESULT:      -6.9      2.581      4.648
  Name = 
  2 active torsions:
  status: ('A' for Active; 'I' for Inactive)
    1  A    between atoms: C_1  and  C_2
    2  A    between atoms: C_10  and  C_13
                            x       y       z     vdW  Elec       q    Type
                         _______ _______ _______ _____ _____    ______ ____

>  <TORSDO>
F 2

$$$$
=
 OpenBabel11052422473D

 28 32  0  0  1  0  0  0  0  0999 V2000
  161.4940  205.5630  148.8200 C   0  0  0  0  0  0  0  0  0  0  0  0
  160.8730  206.5320  153.6610 C   0  0  0  0  0  1  0  0  0  0  0  0
  161.3720  208.7460  150.6400 C   0  0  0  0  0  0  0  0  0  0  0  0
  161.1840  206.0150  151.2010 C   0  0  0  0  0  0  0  0  0  0  0  0
  161.4740  207.8190  149.6460 N   0  0  0  0  0  0  0  0  0  0  0  0
  161.2060  203.7280  150.3890 C   0  0  0  0  0  3  0  0  0  0  0  0
  161.0820  206.9500  152.2440 C   0  0  0  0  0  0  0  0  0  0  0  0
  161.0960  204.6370  151.4420 C   0  0  0  0  0  3  0  0  0  0  0  0
  161.1790  208.3120  151.9590 C   0  0  0  0  0  3  0  0  0  0  0  0
  161.4050  204.1880  149.0850 C   0  0  0  0  0  3  0  0  0  0  0  0
  161.3850  206.4810  149.8810 C   0  0  0  0  0  0  0  0  0  0  0  0
  161.1090  211.0700  151.2600 C   0  0  0  0  0  3  0  0  0  0  0  0
  161.6290  211.6870  148.3130 C   0  0  0  0  0  3  0  0  0  0  0  0
  160.3520  213.0190  149.9820 C   0  0  0  0  0  0  0  0  0  0  0  0
  161.4970  210.1930  150.3240 C   0  0  0  0  0  0  0  0  0  0  0  0
  163.0810  209.8690  148.4450 O   0  0  0  0  0  1  0  0  0  0  0  0
  160.5960  212.6580  148.7230 C   0  0  0  0  0  3  0  0  0  0  0  0
  162.0660  210.6290  149.0140 C   0  0  0  0  0  0  0  0  0  0  0  0
  159.3640  213.9110  150.2340 F   0  0  0  0  0  0  0  0  0  0  0  0
  161.2060  212.5500  151.1110 C   0  0  0  0  0  2  0  0  0  0  0  0
  161.7160  206.0480  147.4150 C   0  0  2  0  0  3  0  0  0  0  0  0
  160.4560  206.7210  146.8530 C   0  0  0  0  0  2  0  0  0  0  0  0
  161.9380  205.2020  145.0300 C   0  0  1  0  0  3  0  0  0  0  0  0
  159.7730  205.8350  146.0040 O   0  0  0  0  0  0  0  0  0  0  0  0
  163.5720  204.7030  146.7060 O   0  0  0  0  0  1  0  0  0  0  0  0
  162.2070  204.9090  146.5090 C   0  0  1  0  0  3  0  0  0  0  0  0
  160.8310  204.3080  144.5110 C   0  0  0  0  0  2  0  0  0  0  0  0
  160.5200  205.7600  144.8100 C   0  0  2  0  0  3  0  0  0  0  0  0
  1 10  2  0  0  0  0
  1 11  1  0  0  0  0
  3  9  1  0  0  0  0
  4  8  1  0  0  0  0
  4  7  1  0  0  0  0
  5 11  1  0  0  0  0
  5  3  2  0  0  0  0
  6  8  2  0  0  0  0
  7  2  1  0  0  0  0
  9  7  2  0  0  0  0
 10  6  1  0  0  0  0
 11  4  2  0  0  0  0
 13 17  1  0  0  0  0
 13 18  2  0  0  0  0
 14 19  1  0  0  0  0
 14 20  1  0  0  0  0
 15  3  1  0  0  0  0
 15 12  2  0  0  0  0
 16 18  1  0  0  0  0
 17 14  2  0  0  0  0
 18 15  1  0  0  0  0
 20 12  1  0  0  0  0
 21  1  1  1  0  0  0
 22 21  1  0  0  0  0
 23 27  1  6  0  0  0
 23 26  1  0  0  0  0
 24 22  1  0  0  0  0
 26 25  1  6  0  0  0
 26 21  1  0  0  0  0
 28 27  1  6  0  0  0
 28 23  1  0  0  0  0
 28 24  1  0  0  0  0
M  END
>  <MODEL>
5

>  <REMARK>
 VINA RESULT:      -6.8      1.935      2.897
  Name = 
  2 active torsions:
  status: ('A' for Active; 'I' for Inactive)
    1  A    between atoms: C_1  and  C_2
    2  A    between atoms: C_10  and  C_13
                            x       y       z     vdW  Elec       q    Type
                         _______ _______ _______ _____ _____    ______ ____

>  <TORSDO>
F 2

$$$$
=
 OpenBabel11052422473D

 28 32  0  0  1  0  0  0  0  0999 V2000
  160.8740  205.4270  149.2200 C   0  0  0  0  0  0  0  0  0  0  0  0
  162.4050  210.1360  148.7320 C   0  0  0  0  0  1  0  0  0  0  0  0
  161.3560  208.0710  151.7170 C   0  0  0  0  0  0  0  0  0  0  0  0
  161.6320  207.7340  148.9560 C   0  0  0  0  0  0  0  0  0  0  0  0
  161.0630  206.8790  151.1240 N   0  0  0  0  0  0  0  0  0  0  0  0
  161.4440  206.2860  147.0180 C   0  0  0  0  0  3  0  0  0  0  0  0
  161.9350  208.9750  149.5420 C   0  0  0  0  0  0  0  0  0  0  0  0
  161.7560  207.5270  147.5750 C   0  0  0  0  0  3  0  0  0  0  0  0
  161.7920  209.1380  150.9200 C   0  0  0  0  0  3  0  0  0  0  0  0
  161.0050  205.2420  147.8350 C   0  0  0  0  0  3  0  0  0  0  0  0
  161.1870  206.6780  149.7840 C   0  0  0  0  0  0  0  0  0  0  0  0
  161.2560  207.1370  153.9460 C   0  0  0  0  0  3  0  0  0  0  0  0
  160.1410  209.8520  154.7950 C   0  0  0  0  0  3  0  0  0  0  0  0
  159.7930  207.6260  155.8510 C   0  0  0  0  0  0  0  0  0  0  0  0
  161.1810  208.2360  153.1830 C   0  0  0  0  0  0  0  0  0  0  0  0
  161.6010  210.6790  153.1780 O   0  0  0  0  0  1  0  0  0  0  0  0
  159.3870  208.8700  155.5980 C   0  0  0  0  0  3  0  0  0  0  0  0
  160.9610  209.5940  153.7650 C   0  0  0  0  0  0  0  0  0  0  0  0
  159.0030  206.8110  156.5900 F   0  0  0  0  0  0  0  0  0  0  0  0
  161.1400  207.1410  155.4330 C   0  0  0  0  0  2  0  0  0  0  0  0
  160.3930  204.3000  150.0900 C   0  0  2  0  0  3  0  0  0  0  0  0
  160.8010  204.5130  151.5540 C   0  0  0  0  0  2  0  0  0  0  0  0
  160.8770  201.8680  150.6460 C   0  0  1  0  0  3  0  0  0  0  0  0
  161.9250  203.7280  151.8620 O   0  0  0  0  0  0  0  0  0  0  0  0
  160.0670  202.5370  148.4960 O   0  0  0  0  0  1  0  0  0  0  0  0
  160.8770  202.9430  149.5550 C   0  0  1  0  0  3  0  0  0  0  0  0
  162.2990  201.5220  151.0410 C   0  0  0  0  0  2  0  0  0  0  0  0
  161.4730  202.3960  151.9630 C   0  0  2  0  0  3  0  0  0  0  0  0
  1 11  1  0  0  0  0
  2  7  1  0  0  0  0
  3 15  1  0  0  0  0
  4  7  2  0  0  0  0
  4 11  1  0  0  0  0
  5  3  1  0  0  0  0
  6  8  2  0  0  0  0
  6 10  1  0  0  0  0
  7  9  1  0  0  0  0
  8  4  1  0  0  0  0
  9  3  2  0  0  0  0
 10  1  2  0  0  0  0
 11  5  2  0  0  0  0
 12 20  1  0  0  0  0
 13 17  1  0  0  0  0
 14 19  1  0  0  0  0
 15 18  1  0  0  0  0
 15 12  2  0  0  0  0
 16 18  1  0  0  0  0
 17 14  2  0  0  0  0
 18 13  2  0  0  0  0
 20 14  1  0  0  0  0
 21  1  1  6  0  0  0
 21 22  1  0  0  0  0
 22 24  1  0  0  0  0
 23 27  1  6  0  0  0
 23 28  1  0  0  0  0
 24 28  1  0  0  0  0
 26 25  1  6  0  0  0
 26 21  1  0  0  0  0
 26 23  1  0  0  0  0
 28 27  1  6  0  0  0
M  END
>  <MODEL>
6

>  <REMARK>
 VINA RESULT:      -6.7      2.238      4.820
  Name = 
  2 active torsions:
  status: ('A' for Active; 'I' for Inactive)
    1  A    between atoms: C_1  and  C_2
    2  A    between atoms: C_10  and  C_13
                            x       y       z     vdW  Elec       q    Type
                         _______ _______ _______ _____ _____    ______ ____

>  <TORSDO>
F 2

$$$$
=
 OpenBabel11052422473D

 28 32  0  0  1  0  0  0  0  0999 V2000
  161.8990  210.1970  149.3600 C   0  0  0  0  0  0  0  0  0  0  0  0
  161.0230  205.9560  151.8100 C   0  0  0  0  0  1  0  0  0  0  0  0
  161.5630  206.7490  148.1550 C   0  0  0  0  0  0  0  0  0  0  0  0
  161.4720  208.1280  150.5850 C   0  0  0  0  0  0  0  0  0  0  0  0
  161.7410  208.0990  148.2010 N   0  0  0  0  0  0  0  0  0  0  0  0
  161.6220  210.2370  151.7750 C   0  0  0  0  0  3  0  0  0  0  0  0
  161.2790  206.7360  150.5640 C   0  0  0  0  0  0  0  0  0  0  0  0
  161.4320  208.8540  151.7830 C   0  0  0  0  0  3  0  0  0  0  0  0
  161.3220  206.0530  149.3480 C   0  0  0  0  0  3  0  0  0  0  0  0
  161.8530  210.9050  150.5710 C   0  0  0  0  0  3  0  0  0  0  0  0
  161.7060  208.8030  149.3650 C   0  0  0  0  0  0  0  0  0  0  0  0
  160.6500  206.3500  145.9500 C   0  0  0  0  0  3  0  0  0  0  0  0
  162.4720  203.8980  145.8820 C   0  0  0  0  0  3  0  0  0  0  0  0
  160.3330  204.2830  144.6710 C   0  0  0  0  0  0  0  0  0  0  0  0
  161.5930  206.0380  146.8510 C   0  0  0  0  0  0  0  0  0  0  0  0
  163.9350  205.2590  147.0810 O   0  0  0  0  0  1  0  0  0  0  0  0
  161.2320  203.4620  145.2110 C   0  0  0  0  0  3  0  0  0  0  0  0
  162.6640  205.0360  146.5660 C   0  0  0  0  0  0  0  0  0  0  0  0
  159.2230  203.7620  144.0960 F   0  0  0  0  0  0  0  0  0  0  0  0
  160.5680  205.7550  144.5860 C   0  0  0  0  0  2  0  0  0  0  0  0
  162.1400  210.9270  148.0680 C   0  0  2  0  0  3  0  0  0  0  0  0
  163.5760  211.4650  147.9920 C   0  0  0  0  0  2  0  0  0  0  0  0
  161.6020  213.1100  146.8850 C   0  0  1  0  0  3  0  0  0  0  0  0
  163.5940  212.8360  148.2960 O   0  0  0  0  0  0  0  0  0  0  0  0
  159.9110  211.4930  147.3860 O   0  0  0  0  0  1  0  0  0  0  0  0
  161.1020  212.0400  147.8610 C   0  0  1  0  0  3  0  0  0  0  0  0
  161.9160  214.3920  147.6290 C   0  0  0  0  0  2  0  0  0  0  0  0
  163.0600  213.5070  147.1770 C   0  0  2  0  0  3  0  0  0  0  0  0
  1 11  2  0  0  0  0
  1 10  1  0  0  0  0
  3  5  2  0  0  0  0
  3  9  1  0  0  0  0
  4  8  2  0  0  0  0
  5 11  1  0  0  0  0
  6  8  1  0  0  0  0
  7  4  1  0  0  0  0
  7  2  1  0  0  0  0
  9  7  2  0  0  0  0
 10  6  2  0  0  0  0
 11  4  1  0  0  0  0
 12 15  2  0  0  0  0
 13 18  2  0  0  0  0
 14 17  2  0  0  0  0
 15  3  1  0  0  0  0
 17 13  1  0  0  0  0
 18 15  1  0  0  0  0
 18 16  1  0  0  0  0
 19 14  1  0  0  0  0
 20 14  1  0  0  0  0
 20 12  1  0  0  0  0
 21  1  1  1  0  0  0
 22 21  1  0  0  0  0
 22 24  1  0  0  0  0
 23 28  1  0  0  0  0
 23 27  1  1  0  0  0
 23 26  1  0  0  0  0
 26 25  1  6  0  0  0
 26 21  1  0  0  0  0
 28 27  1  1  0  0  0
 28 24  1  0  0  0  0
M  END
>  <MODEL>
7

>  <REMARK>
 VINA RESULT:      -6.6      3.690      7.198
  Name = 
  2 active torsions:
  status: ('A' for Active; 'I' for Inactive)
    1  A    between atoms: C_1  and  C_2
    2  A    between atoms: C_10  and  C_13
                            x       y       z     vdW  Elec       q    Type
                         _______ _______ _______ _____ _____    ______ ____

>  <TORSDO>
F 2

$$$$
