=
 OpenBabel11062409233D

 37 40  0  0  1  0  0  0  0  0999 V2000
  161.0500  210.8870  155.1350 C   0  0  0  0  0  2  0  0  0  0  0  0
  160.2910  209.7830  152.9170 C   0  0  2  0  0  3  0  0  0  0  0  0
  160.4700  207.7530  155.2700 C   0  0  0  0  0  0  0  0  0  0  0  0
  159.8860  210.4160  154.2620 C   0  0  2  0  0  3  0  0  0  0  0  0
  161.9840  209.7550  155.5500 C   0  0  0  0  0  2  0  0  0  0  0  0
  160.9540  208.4270  152.9300 C   0  0  0  0  0  3  0  0  0  0  0  0
  161.2380  208.6110  156.2360 C   0  0  0  0  0  2  0  0  0  0  0  0
  159.5870  206.9060  155.7800 C   0  0  0  0  0  2  0  0  0  0  0  0
  160.9880  207.5100  153.9070 C   0  0  0  0  0  0  0  0  0  0  0  0
  158.6990  211.7620  154.0370 S   0  0  2  0  0  0  0  0  0  0  0  0
  159.5560  213.0180  154.1280 O   0  0  0  0  0  0  0  0  0  0  0  0
  157.6800  211.8140  155.5360 C   0  0  0  0  0  2  0  0  0  0  0  0
  155.5220  210.5840  155.4040 C   0  0  0  0  0  1  0  0  0  0  0  0
  156.1970  211.9290  155.2130 C   0  0  1  0  0  3  0  0  0  0  0  0
  155.5460  212.9550  156.1420 C   0  0  1  0  0  3  0  0  0  0  0  0
  155.2880  214.2950  153.9510 C   0  0  0  0  0  1  0  0  0  0  0  0
  156.3640  214.2340  156.1760 C   0  0  0  0  0  2  0  0  0  0  0  0
  155.0340  214.2260  155.4490 C   0  0  2  0  0  3  0  0  0  0  0  0
  161.6740  206.2140  153.6070 C   0  0  0  0  0  2  0  0  0  0  0  0
  161.3630  205.7200  152.1990 C   0  0  2  0  0  0  0  0  0  0  0  0
  161.3420  204.2040  152.0700 C   0  0  2  0  0  3  0  0  0  0  0  0
  162.5000  205.0170  151.4960 C   0  0  0  0  0  2  0  0  0  0  0  0
  160.4240  206.5150  151.3000 C   0  0  0  0  0  1  0  0  0  0  0  0
  160.8300  202.4460  150.8340 C   0  0  0  0  0  1  0  0  0  0  0  0
  160.5070  203.7890  151.0290 O   0  0  0  0  0  0  0  0  0  0  0  0
  160.9330  210.7320  151.9020 C   0  0  0  0  0  2  0  0  0  0  0  0
  161.9190  210.0210  150.9830 C   0  0  2  0  0  3  0  0  0  0  0  0
  163.2050  210.4900  151.2650 O   0  0  0  0  0  1  0  0  0  0  0  0
  161.5800  210.2500  149.5030 C   0  0  1  0  0  3  0  0  0  0  0  0
  163.1380  211.8420  148.3500 O   0  0  0  0  0  0  0  0  0  0  0  0
  161.9670  211.6290  149.0700 C   0  0  0  0  0  0  0  0  0  0  0  0
  161.2000  212.5960  149.3140 O   0  0  0  0  0  1  0  0  0  0  0  0
  162.3040  209.2520  148.6070 C   0  0  0  0  0  2  0  0  0  0  0  0
  161.8160  207.8400  148.8690 C   0  0  0  0  0  2  0  0  0  0  0  0
  162.3190  205.9090  147.4240 C   0  0  0  0  0  2  0  0  0  0  0  0
  160.8610  205.8190  147.8180 C   0  0  0  0  0  2  0  0  0  0  0  0
  161.4910  207.1710  147.5510 C   0  0  0  0  0  3  0  0  0  0  0  0
  1  5  1  0  0  0  0
  2 26  1  1  0  0  0
  2  6  1  0  0  0  0
  2  4  1  0  0  0  0
  3  8  2  0  0  0  0
  3  7  1  0  0  0  0
  4 10  1  6  0  0  0
  4  1  1  0  0  0  0
  5  7  1  0  0  0  0
  6  9  2  0  0  0  0
  9  3  1  0  0  0  0
 10 11  2  1  0  0  0
 10 12  1  0  0  0  0
 14 13  1  1  0  0  0
 14 12  1  0  0  0  0
 15 14  1  6  0  0  0
 15 17  1  0  0  0  0
 18 16  1  6  0  0  0
 18 15  1  0  0  0  0
 18 17  1  0  0  0  0
 19  9  1  0  0  0  0
 20 23  1  6  0  0  0
 20 19  1  0  0  0  0
 21 25  1  6  0  0  0
 21 20  1  0  0  0  0
 22 21  1  0  0  0  0
 22 20  1  0  0  0  0
 24 25  1  0  0  0  0
 27 28  1  6  0  0  0
 27 26  1  0  0  0  0
 29 33  1  6  0  0  0
 29 27  1  0  0  0  0
 30 31  2  0  0  0  0
 31 32  1  0  0  0  0
 31 29  1  0  0  0  0
 33 34  1  0  0  0  0
 35 37  1  0  0  0  0
 35 36  1  0  0  0  0
 37 36  1  0  0  0  0
 37 34  1  0  0  0  0
M  END
>  <MODEL>
1

>  <REMARK>
 VINA RESULT:      -5.7      0.000      0.000
  Name = 
  14 active torsions:
  status: ('A' for Active; 'I' for Inactive)
    1  A    between atoms: C_1  and  C_26
    2  A    between atoms: C_2  and  C_35
    3  A    between atoms: C_4  and  C_13
    4  A    between atoms: C_4  and  C_28
    5  A    between atoms: C_5  and  O_23
    6  A    between atoms: C_6  and  S_31
    7  A    between atoms: C_6  and  C_35
    8  A    between atoms: C_10  and  C_28
    9  A    between atoms: C_13  and  C_16
   10  A    between atoms: C_13  and  C_20
   11  A    between atoms: C_14  and  S_31
   12  A    between atoms: C_20  and  C_25
   13  A    between atoms: C_25  and  C_32
   14  A    between atoms: C_26  and  C_36
                            x       y       z     vdW  Elec       q    Type
                         _______ _______ _______ _____ _____    ______ ____

>  <TORSDO>
F 14

$$$$
=
 OpenBabel11062409233D

 37 40  0  0  1  0  0  0  0  0999 V2000
  161.5920  211.0190  155.1260 C   0  0  0  0  0  2  0  0  0  0  0  0
  160.3450  210.0340  153.0790 C   0  0  2  0  0  3  0  0  0  0  0  0
  160.5180  208.0340  155.4580 C   0  0  0  0  0  0  0  0  0  0  0  0
  160.2510  210.7450  154.4420 C   0  0  2  0  0  3  0  0  0  0  0  0
  162.3720  209.7490  155.4480 C   0  0  0  0  0  2  0  0  0  0  0  0
  160.7660  208.5840  153.0500 C   0  0  0  0  0  3  0  0  0  0  0  0
  161.5510  208.7590  156.2740 C   0  0  0  0  0  2  0  0  0  0  0  0
  159.5880  207.3580  156.1180 C   0  0  0  0  0  2  0  0  0  0  0  0
  160.7860  207.6880  154.0460 C   0  0  0  0  0  0  0  0  0  0  0  0
  159.2880  212.2720  154.3350 S   0  0  2  0  0  0  0  0  0  0  0  0
  158.8020  212.4930  155.7610 O   0  0  0  0  0  0  0  0  0  0  0  0
  157.7800  211.8720  153.4120 C   0  0  0  0  0  2  0  0  0  0  0  0
  156.6150  213.9720  154.0600 C   0  0  0  0  0  1  0  0  0  0  0  0
  157.0810  213.1210  152.8940 C   0  0  1  0  0  3  0  0  0  0  0  0
  158.0480  213.9340  152.0330 C   0  0  1  0  0  3  0  0  0  0  0  0
  156.0240  214.0450  150.4350 C   0  0  0  0  0  1  0  0  0  0  0  0
  158.3320  213.2110  150.7280 C   0  0  0  0  0  2  0  0  0  0  0  0
  157.4630  214.4530  150.7110 C   0  0  2  0  0  3  0  0  0  0  0  0
  161.1930  206.2900  153.7020 C   0  0  0  0  0  2  0  0  0  0  0  0
  161.3810  206.1060  152.2010 C   0  0  2  0  0  0  0  0  0  0  0  0
  161.9420  204.7460  151.8120 C   0  0  2  0  0  3  0  0  0  0  0  0
  162.8140  205.9960  151.7370 C   0  0  0  0  0  2  0  0  0  0  0  0
  160.4220  206.7760  151.2230 C   0  0  0  0  0  1  0  0  0  0  0  0
  160.8680  203.1720  150.6940 C   0  0  0  0  0  1  0  0  0  0  0  0
  161.5480  204.3770  150.5220 O   0  0  0  0  0  0  0  0  0  0  0  0
  160.9850  210.8450  151.9490 C   0  0  0  0  0  2  0  0  0  0  0  0
  161.8980  209.9990  151.0690 C   0  0  2  0  0  3  0  0  0  0  0  0
  163.2240  210.3360  151.3540 O   0  0  0  0  0  1  0  0  0  0  0  0
  161.6020  210.2110  149.5780 C   0  0  1  0  0  3  0  0  0  0  0  0
  163.1260  211.7490  148.3130 O   0  0  0  0  0  0  0  0  0  0  0  0
  162.0180  211.5790  149.1360 C   0  0  0  0  0  0  0  0  0  0  0  0
  161.3290  212.5760  149.4690 O   0  0  0  0  0  1  0  0  0  0  0  0
  162.3370  209.1910  148.7160 C   0  0  0  0  0  2  0  0  0  0  0  0
  161.6880  207.8240  148.8270 C   0  0  0  0  0  2  0  0  0  0  0  0
  162.2600  205.9970  147.2760 C   0  0  0  0  0  2  0  0  0  0  0  0
  160.7740  205.9180  147.5480 C   0  0  0  0  0  2  0  0  0  0  0  0
  161.4540  207.2690  147.4380 C   0  0  0  0  0  3  0  0  0  0  0  0
  1  5  1  0  0  0  0
  2 26  1  6  0  0  0
  2  4  1  0  0  0  0
  3  8  2  0  0  0  0
  3  7  1  0  0  0  0
  4 10  1  6  0  0  0
  4  1  1  0  0  0  0
  5  7  1  0  0  0  0
  6  2  1  0  0  0  0
  6  9  2  0  0  0  0
  9  3  1  0  0  0  0
 10 11  2  1  0  0  0
 12 10  1  0  0  0  0
 14 12  1  0  0  0  0
 14 13  1  1  0  0  0
 15 14  1  1  0  0  0
 17 15  1  0  0  0  0
 18 16  1  1  0  0  0
 18 17  1  0  0  0  0
 18 15  1  0  0  0  0
 19  9  1  0  0  0  0
 20 23  1  6  0  0  0
 20 19  1  0  0  0  0
 21 25  1  6  0  0  0
 21 20  1  0  0  0  0
 22 21  1  0  0  0  0
 22 20  1  0  0  0  0
 25 24  1  0  0  0  0
 27 28  1  6  0  0  0
 27 26  1  0  0  0  0
 29 33  1  6  0  0  0
 29 27  1  0  0  0  0
 30 31  2  0  0  0  0
 31 32  1  0  0  0  0
 31 29  1  0  0  0  0
 33 34  1  0  0  0  0
 35 37  1  0  0  0  0
 35 36  1  0  0  0  0
 37 36  1  0  0  0  0
 37 34  1  0  0  0  0
M  END
>  <MODEL>
2

>  <REMARK>
 VINA RESULT:      -5.6      1.437      1.926
  Name = 
  14 active torsions:
  status: ('A' for Active; 'I' for Inactive)
    1  A    between atoms: C_1  and  C_26
    2  A    between atoms: C_2  and  C_35
    3  A    between atoms: C_4  and  C_13
    4  A    between atoms: C_4  and  C_28
    5  A    between atoms: C_5  and  O_23
    6  A    between atoms: C_6  and  S_31
    7  A    between atoms: C_6  and  C_35
    8  A    between atoms: C_10  and  C_28
    9  A    between atoms: C_13  and  C_16
   10  A    between atoms: C_13  and  C_20
   11  A    between atoms: C_14  and  S_31
   12  A    between atoms: C_20  and  C_25
   13  A    between atoms: C_25  and  C_32
   14  A    between atoms: C_26  and  C_36
                            x       y       z     vdW  Elec       q    Type
                         _______ _______ _______ _____ _____    ______ ____

>  <TORSDO>
F 14

$$$$
=
 OpenBabel11062409233D

 37 40  0  0  1  0  0  0  0  0999 V2000
  162.7180  210.2600  151.5720 C   0  0  0  0  0  2  0  0  0  0  0  0
  161.1980  208.1650  151.4320 C   0  0  2  0  0  3  0  0  0  0  0  0
  160.1230  210.3000  153.4270 C   0  0  0  0  0  0  0  0  0  0  0  0
  161.4830  209.6020  150.9540 C   0  0  2  0  0  3  0  0  0  0  0  0
  162.6240  210.4090  153.0870 C   0  0  0  0  0  2  0  0  0  0  0  0
  160.7180  207.9600  152.8490 C   0  0  0  0  0  3  0  0  0  0  0  0
  161.3590  211.1510  153.5180 C   0  0  0  0  0  2  0  0  0  0  0  0
  158.9530  210.9160  153.5220 C   0  0  0  0  0  2  0  0  0  0  0  0
  160.1910  208.8500  153.7020 C   0  0  0  0  0  0  0  0  0  0  0  0
  161.5670  209.7020  149.1500 S   0  0  2  0  0  0  0  0  0  0  0  0
  162.6670  208.7150  148.7850 O   0  0  0  0  0  0  0  0  0  0  0  0
  162.2770  211.3210  148.7520 C   0  0  0  0  0  2  0  0  0  0  0  0
  160.6500  212.9010  149.7760 C   0  0  0  0  0  1  0  0  0  0  0  0
  161.2010  212.3620  148.4690 C   0  0  1  0  0  3  0  0  0  0  0  0
  161.7980  213.5140  147.6610 C   0  0  1  0  0  3  0  0  0  0  0  0
  160.2570  212.5870  145.8100 C   0  0  0  0  0  1  0  0  0  0  0  0
  162.6010  212.9790  146.4880 C   0  0  0  0  0  2  0  0  0  0  0  0
  161.2660  213.6470  146.2270 C   0  0  2  0  0  3  0  0  0  0  0  0
  159.7390  208.3370  155.0340 C   0  0  0  0  0  2  0  0  0  0  0  0
  160.2200  209.2240  156.1770 C   0  0  2  0  0  0  0  0  0  0  0  0
  161.7320  209.3790  156.2410 C   0  0  2  0  0  3  0  0  0  0  0  0
  160.9970  208.5150  157.2610 C   0  0  0  0  0  2  0  0  0  0  0  0
  159.3710  210.4020  156.6380 C   0  0  0  0  0  1  0  0  0  0  0  0
  163.4660  210.7030  156.5870 C   0  0  0  0  0  1  0  0  0  0  0  0
  162.0990  210.5890  156.8370 O   0  0  0  0  0  0  0  0  0  0  0  0
  162.2210  207.1090  151.0100 C   0  0  0  0  0  2  0  0  0  0  0  0
  161.8740  205.7200  151.5330 C   0  0  2  0  0  3  0  0  0  0  0  0
  162.9880  205.2070  152.2030 O   0  0  0  0  0  1  0  0  0  0  0  0
  161.4540  204.7760  150.3970 C   0  0  1  0  0  3  0  0  0  0  0  0
  160.6640  202.4120  150.1180 O   0  0  0  0  0  0  0  0  0  0  0  0
  160.8410  203.5230  150.9370 C   0  0  0  0  0  0  0  0  0  0  0  0
  160.5330  203.4550  152.1540 O   0  0  0  0  0  1  0  0  0  0  0  0
  160.4410  205.4390  149.4710 C   0  0  0  0  0  2  0  0  0  0  0  0
  161.0390  205.6760  148.0970 C   0  0  0  0  0  2  0  0  0  0  0  0
  161.5160  203.9870  146.3670 C   0  0  0  0  0  2  0  0  0  0  0  0
  162.7430  204.8610  146.5050 C   0  0  0  0  0  2  0  0  0  0  0  0
  161.9260  204.5050  147.7300 C   0  0  0  0  0  3  0  0  0  0  0  0
  1  5  1  0  0  0  0
  2 26  1  1  0  0  0
  2  6  1  0  0  0  0
  3  7  1  0  0  0  0
  3  8  2  0  0  0  0
  3  9  1  0  0  0  0
  4 10  1  6  0  0  0
  4  2  1  0  0  0  0
  4  1  1  0  0  0  0
  5  7  1  0  0  0  0
  6  9  2  0  0  0  0
  9 19  1  0  0  0  0
 10 11  2  1  0  0  0
 12 10  1  0  0  0  0
 14 12  1  0  0  0  0
 14 13  1  1  0  0  0
 15 14  1  1  0  0  0
 17 15  1  0  0  0  0
 18 16  1  1  0  0  0
 18 17  1  0  0  0  0
 18 15  1  0  0  0  0
 19 20  1  0  0  0  0
 20 21  1  0  0  0  0
 20 23  1  1  0  0  0
 20 22  1  0  0  0  0
 21 25  1  1  0  0  0
 21 22  1  0  0  0  0
 24 25  1  0  0  0  0
 26 27  1  0  0  0  0
 27 28  1  6  0  0  0
 29 33  1  6  0  0  0
 29 31  1  0  0  0  0
 29 27  1  0  0  0  0
 30 31  2  0  0  0  0
 31 32  1  0  0  0  0
 34 33  1  0  0  0  0
 35 36  1  0  0  0  0
 35 37  1  0  0  0  0
 36 37  1  0  0  0  0
 37 34  1  0  0  0  0
M  END
>  <MODEL>
3

>  <REMARK>
 VINA RESULT:      -5.6      2.706      6.606
  Name = 
  14 active torsions:
  status: ('A' for Active; 'I' for Inactive)
    1  A    between atoms: C_1  and  C_26
    2  A    between atoms: C_2  and  C_35
    3  A    between atoms: C_4  and  C_13
    4  A    between atoms: C_4  and  C_28
    5  A    between atoms: C_5  and  O_23
    6  A    between atoms: C_6  and  S_31
    7  A    between atoms: C_6  and  C_35
    8  A    between atoms: C_10  and  C_28
    9  A    between atoms: C_13  and  C_16
   10  A    between atoms: C_13  and  C_20
   11  A    between atoms: C_14  and  S_31
   12  A    between atoms: C_20  and  C_25
   13  A    between atoms: C_25  and  C_32
   14  A    between atoms: C_26  and  C_36
                            x       y       z     vdW  Elec       q    Type
                         _______ _______ _______ _____ _____    ______ ____

>  <TORSDO>
F 14

$$$$
=
 OpenBabel11062409233D

 37 40  0  0  1  0  0  0  0  0999 V2000
  160.1720  206.6390  153.9820 C   0  0  0  0  0  2  0  0  0  0  0  0
  161.6860  208.5100  153.0220 C   0  0  2  0  0  3  0  0  0  0  0  0
  161.5410  208.5580  156.1320 C   0  0  0  0  0  0  0  0  0  0  0  0
  161.5860  207.0940  153.6200 C   0  0  2  0  0  3  0  0  0  0  0  0
  159.5140  207.5130  155.0460 C   0  0  0  0  0  2  0  0  0  0  0  0
  161.4330  209.6930  153.9260 C   0  0  0  0  0  3  0  0  0  0  0  0
  160.3690  207.6330  156.3060 C   0  0  0  0  0  2  0  0  0  0  0  0
  162.4830  208.5270  157.0640 C   0  0  0  0  0  2  0  0  0  0  0  0
  161.4310  209.7500  155.2650 C   0  0  0  0  0  0  0  0  0  0  0  0
  162.3780  205.8630  152.5580 S   0  0  2  0  0  0  0  0  0  0  0  0
  163.3830  206.6740  151.7520 O   0  0  0  0  0  0  0  0  0  0  0  0
  161.1390  205.3560  151.3360 C   0  0  0  0  0  2  0  0  0  0  0  0
  160.5730  203.1920  152.4240 C   0  0  0  0  0  1  0  0  0  0  0  0
  161.0970  203.8450  151.1590 C   0  0  1  0  0  3  0  0  0  0  0  0
  160.1770  203.4880  149.9910 C   0  0  1  0  0  3  0  0  0  0  0  0
  161.3880  201.2140  150.1530 C   0  0  0  0  0  1  0  0  0  0  0  0
  160.9910  203.2040  148.7420 C   0  0  0  0  0  2  0  0  0  0  0  0
  160.3220  202.0530  149.4640 C   0  0  2  0  0  3  0  0  0  0  0  0
  161.2130  211.0910  155.8940 C   0  0  0  0  0  2  0  0  0  0  0  0
  159.8150  211.6290  155.6120 C   0  0  2  0  0  0  0  0  0  0  0  0
  159.7180  212.4560  154.3380 C   0  0  2  0  0  3  0  0  0  0  0  0
  159.6700  213.1300  155.7060 C   0  0  0  0  0  2  0  0  0  0  0  0
  158.5890  210.8220  156.0210 C   0  0  0  0  0  1  0  0  0  0  0  0
  158.6100  211.9180  152.5050 C   0  0  0  0  0  1  0  0  0  0  0  0
  158.4310  212.4140  153.7960 O   0  0  0  0  0  0  0  0  0  0  0  0
  161.0560  208.6940  151.6400 C   0  0  0  0  0  2  0  0  0  0  0  0
  161.8780  209.6110  150.7420 C   0  0  2  0  0  3  0  0  0  0  0  0
  161.5660  210.9360  151.0580 O   0  0  0  0  0  1  0  0  0  0  0  0
  161.6060  209.3400  149.2550 C   0  0  1  0  0  3  0  0  0  0  0  0
  163.2150  211.0090  148.2990 O   0  0  0  0  0  1  0  0  0  0  0  0
  161.9090  210.5460  148.4240 C   0  0  0  0  0  0  0  0  0  0  0  0
  160.9830  211.1130  147.7900 O   0  0  0  0  0  0  0  0  0  0  0  0
  162.4540  208.1830  148.7390 C   0  0  0  0  0  2  0  0  0  0  0  0
  161.5760  207.0590  148.2220 C   0  0  0  0  0  2  0  0  0  0  0  0
  162.4590  205.4890  146.5410 C   0  0  0  0  0  2  0  0  0  0  0  0
  160.9930  205.7090  146.2380 C   0  0  0  0  0  2  0  0  0  0  0  0
  161.8420  206.8570  146.7460 C   0  0  0  0  0  3  0  0  0  0  0  0
  1  5  1  0  0  0  0
  2 26  1  6  0  0  0
  2  4  1  0  0  0  0
  2  6  1  0  0  0  0
  3  7  1  0  0  0  0
  3  8  2  0  0  0  0
  4 10  1  6  0  0  0
  4  1  1  0  0  0  0
  5  7  1  0  0  0  0
  6  9  2  0  0  0  0
  9 19  1  0  0  0  0
  9  3  1  0  0  0  0
 10 11  2  6  0  0  0
 12 10  1  0  0  0  0
 14 12  1  0  0  0  0
 14 13  1  1  0  0  0
 15 14  1  1  0  0  0
 17 18  1  0  0  0  0
 17 15  1  0  0  0  0
 18 15  1  0  0  0  0
 18 16  1  1  0  0  0
 20 22  1  0  0  0  0
 20 19  1  0  0  0  0
 20 23  1  1  0  0  0
 21 25  1  1  0  0  0
 21 20  1  0  0  0  0
 21 22  1  0  0  0  0
 24 25  1  0  0  0  0
 27 28  1  1  0  0  0
 27 26  1  0  0  0  0
 29 33  1  6  0  0  0
 29 27  1  0  0  0  0
 30 31  1  0  0  0  0
 31 29  1  0  0  0  0
 32 31  2  0  0  0  0
 34 33  1  0  0  0  0
 35 37  1  0  0  0  0
 36 35  1  0  0  0  0
 36 37  1  0  0  0  0
 37 34  1  0  0  0  0
M  END
>  <MODEL>
4

>  <REMARK>
 VINA RESULT:      -5.5      2.292      6.839
  Name = 
  14 active torsions:
  status: ('A' for Active; 'I' for Inactive)
    1  A    between atoms: C_1  and  C_26
    2  A    between atoms: C_2  and  C_35
    3  A    between atoms: C_4  and  C_13
    4  A    between atoms: C_4  and  C_28
    5  A    between atoms: C_5  and  O_23
    6  A    between atoms: C_6  and  S_31
    7  A    between atoms: C_6  and  C_35
    8  A    between atoms: C_10  and  C_28
    9  A    between atoms: C_13  and  C_16
   10  A    between atoms: C_13  and  C_20
   11  A    between atoms: C_14  and  S_31
   12  A    between atoms: C_20  and  C_25
   13  A    between atoms: C_25  and  C_32
   14  A    between atoms: C_26  and  C_36
                            x       y       z     vdW  Elec       q    Type
                         _______ _______ _______ _____ _____    ______ ____

>  <TORSDO>
F 14

$$$$
=
 OpenBabel11062409233D

 37 40  0  0  1  0  0  0  0  0999 V2000
  161.2540  210.7460  154.9790 C   0  0  0  0  0  2  0  0  0  0  0  0
  160.2650  209.5310  152.9150 C   0  0  2  0  0  3  0  0  0  0  0  0
  160.4360  207.6950  155.4230 C   0  0  0  0  0  0  0  0  0  0  0  0
  160.0010  210.3060  154.2200 C   0  0  2  0  0  3  0  0  0  0  0  0
  162.1200  209.5770  155.4370 C   0  0  0  0  0  2  0  0  0  0  0  0
  160.8180  208.1290  153.0090 C   0  0  0  0  0  3  0  0  0  0  0  0
  161.3320  208.5620  156.2630 C   0  0  0  0  0  2  0  0  0  0  0  0
  159.5230  206.9720  156.0570 C   0  0  0  0  0  2  0  0  0  0  0  0
  160.8430  207.2970  154.0590 C   0  0  0  0  0  0  0  0  0  0  0  0
  158.9140  211.7250  153.9470 S   0  0  2  0  0  0  0  0  0  0  0  0
  159.8050  212.9240  154.2410 O   0  0  0  0  0  0  0  0  0  0  0  0
  157.7110  211.7270  155.3040 C   0  0  0  0  0  2  0  0  0  0  0  0
  155.4880  210.6230  155.1410 C   0  0  0  0  0  1  0  0  0  0  0  0
  156.2820  211.8690  154.7980 C   0  0  1  0  0  3  0  0  0  0  0  0
  155.6220  213.0820  155.4540 C   0  0  1  0  0  3  0  0  0  0  0  0
  155.7970  214.0600  153.0710 C   0  0  0  0  0  1  0  0  0  0  0  0
  156.5540  214.2800  155.4140 C   0  0  0  0  0  2  0  0  0  0  0  0
  155.3390  214.2590  154.5080 C   0  0  2  0  0  3  0  0  0  0  0  0
  161.4010  205.9270  153.8350 C   0  0  0  0  0  2  0  0  0  0  0  0
  161.4230  205.5570  152.3570 C   0  0  2  0  0  0  0  0  0  0  0  0
  162.2680  204.3310  152.0410 C   0  0  2  0  0  3  0  0  0  0  0  0
  162.7550  205.7290  151.6670 C   0  0  0  0  0  2  0  0  0  0  0  0
  160.1950  205.8070  151.4890 C   0  0  0  0  0  1  0  0  0  0  0  0
  161.1910  202.5240  151.3690 C   0  0  0  0  0  1  0  0  0  0  0  0
  161.8140  203.6770  150.8920 O   0  0  0  0  0  0  0  0  0  0  0  0
  160.9120  210.3340  151.7840 C   0  0  0  0  0  2  0  0  0  0  0  0
  162.2230  209.7180  151.3090 C   0  0  2  0  0  3  0  0  0  0  0  0
  163.2780  210.3630  151.9610 O   0  0  0  0  0  1  0  0  0  0  0  0
  162.3850  209.8360  149.7870 C   0  0  1  0  0  3  0  0  0  0  0  0
  162.8500  207.9820  148.1630 O   0  0  0  0  0  0  0  0  0  0  0  0
  162.0050  208.5590  149.1050 C   0  0  0  0  0  0  0  0  0  0  0  0
  160.9380  207.9770  149.4250 O   0  0  0  0  0  1  0  0  0  0  0  0
  161.5150  210.9530  149.2220 C   0  0  0  0  0  2  0  0  0  0  0  0
  162.3690  212.0320  148.5840 C   0  0  0  0  0  2  0  0  0  0  0  0
  161.3700  214.2600  148.9120 C   0  0  0  0  0  2  0  0  0  0  0  0
  162.2750  214.3370  147.7020 C   0  0  0  0  0  2  0  0  0  0  0  0
  161.4690  213.0800  147.9670 C   0  0  0  0  0  3  0  0  0  0  0  0
  1  5  1  0  0  0  0
  2 26  1  6  0  0  0
  2  6  1  0  0  0  0
  2  4  1  0  0  0  0
  3  8  2  0  0  0  0
  3  7  1  0  0  0  0
  4 10  1  6  0  0  0
  4  1  1  0  0  0  0
  5  7  1  0  0  0  0
  6  9  2  0  0  0  0
  9  3  1  0  0  0  0
 10 11  2  1  0  0  0
 10 12  1  0  0  0  0
 14 13  1  1  0  0  0
 14 12  1  0  0  0  0
 15 14  1  6  0  0  0
 17 15  1  0  0  0  0
 18 16  1  6  0  0  0
 18 17  1  0  0  0  0
 18 15  1  0  0  0  0
 19  9  1  0  0  0  0
 20 23  1  6  0  0  0
 20 19  1  0  0  0  0
 21 25  1  6  0  0  0
 21 20  1  0  0  0  0
 22 21  1  0  0  0  0
 22 20  1  0  0  0  0
 25 24  1  0  0  0  0
 27 26  1  0  0  0  0
 27 28  1  1  0  0  0
 29 33  1  6  0  0  0
 29 27  1  0  0  0  0
 30 31  2  0  0  0  0
 31 32  1  0  0  0  0
 31 29  1  0  0  0  0
 34 33  1  0  0  0  0
 36 37  1  0  0  0  0
 36 35  1  0  0  0  0
 37 34  1  0  0  0  0
 37 35  1  0  0  0  0
M  END
>  <MODEL>
5

>  <REMARK>
 VINA RESULT:      -5.3      1.354      2.655
  Name = 
  14 active torsions:
  status: ('A' for Active; 'I' for Inactive)
    1  A    between atoms: C_1  and  C_26
    2  A    between atoms: C_2  and  C_35
    3  A    between atoms: C_4  and  C_13
    4  A    between atoms: C_4  and  C_28
    5  A    between atoms: C_5  and  O_23
    6  A    between atoms: C_6  and  S_31
    7  A    between atoms: C_6  and  C_35
    8  A    between atoms: C_10  and  C_28
    9  A    between atoms: C_13  and  C_16
   10  A    between atoms: C_13  and  C_20
   11  A    between atoms: C_14  and  S_31
   12  A    between atoms: C_20  and  C_25
   13  A    between atoms: C_25  and  C_32
   14  A    between atoms: C_26  and  C_36
                            x       y       z     vdW  Elec       q    Type
                         _______ _______ _______ _____ _____    ______ ____

>  <TORSDO>
F 14

$$$$
=
 OpenBabel11062409233D

 37 40  0  0  1  0  0  0  0  0999 V2000
  162.9130  209.9480  151.5890 C   0  0  0  0  0  2  0  0  0  0  0  0
  161.2050  208.0040  151.4600 C   0  0  2  0  0  3  0  0  0  0  0  0
  160.0550  210.5230  152.8830 C   0  0  0  0  0  0  0  0  0  0  0  0
  161.7380  209.3120  150.8450 C   0  0  2  0  0  3  0  0  0  0  0  0
  162.5710  210.3500  153.0200 C   0  0  0  0  0  2  0  0  0  0  0  0
  160.4600  208.0760  152.7710 C   0  0  0  0  0  3  0  0  0  0  0  0
  161.3470  211.2630  153.0880 C   0  0  0  0  0  2  0  0  0  0  0  0
  158.9680  211.2490  152.6600 C   0  0  0  0  0  2  0  0  0  0  0  0
  159.9010  209.1360  153.3710 C   0  0  0  0  0  0  0  0  0  0  0  0
  162.1510  209.1090  149.0960 S   0  0  2  0  0  0  0  0  0  0  0  0
  161.6320  210.3880  148.4510 O   0  0  0  0  0  0  0  0  0  0  0  0
  161.0570  207.8150  148.4500 C   0  0  0  0  0  2  0  0  0  0  0  0
  163.0200  206.3670  147.9620 C   0  0  0  0  0  1  0  0  0  0  0  0
  161.7460  206.9620  147.3940 C   0  0  1  0  0  3  0  0  0  0  0  0
  160.8140  205.8310  146.9570 C   0  0  1  0  0  3  0  0  0  0  0  0
  162.4200  205.7210  144.9400 C   0  0  0  0  0  1  0  0  0  0  0  0
  160.1050  206.1970  145.6650 C   0  0  0  0  0  2  0  0  0  0  0  0
  161.1970  205.1460  145.6370 C   0  0  2  0  0  3  0  0  0  0  0  0
  159.1620  208.8900  154.6490 C   0  0  0  0  0  2  0  0  0  0  0  0
  159.7140  209.7310  155.7950 C   0  0  2  0  0  0  0  0  0  0  0  0
  161.2010  209.5260  156.0490 C   0  0  2  0  0  3  0  0  0  0  0  0
  160.1620  208.9530  157.0090 C   0  0  0  0  0  2  0  0  0  0  0  0
  159.1380  211.1140  156.0740 C   0  0  0  0  0  1  0  0  0  0  0  0
  163.1450  210.3560  156.6880 C   0  0  0  0  0  1  0  0  0  0  0  0
  161.7850  210.6590  156.6200 O   0  0  0  0  0  0  0  0  0  0  0  0
  162.1540  206.8050  151.3980 C   0  0  0  0  0  2  0  0  0  0  0  0
  161.5820  205.5740  152.0910 C   0  0  2  0  0  3  0  0  0  0  0  0
  162.2430  205.4040  153.3100 O   0  0  0  0  0  1  0  0  0  0  0  0
  161.7330  204.3160  151.2230 C   0  0  1  0  0  3  0  0  0  0  0  0
  162.3310  202.0130  152.0160 O   0  0  0  0  0  0  0  0  0  0  0  0
  161.4370  203.0790  152.0110 C   0  0  0  0  0  0  0  0  0  0  0  0
  160.3990  203.0250  152.7180 O   0  0  0  0  0  1  0  0  0  0  0  0
  160.7890  204.3520  150.0260 C   0  0  0  0  0  2  0  0  0  0  0  0
  161.3190  203.4910  148.8950 C   0  0  0  0  0  2  0  0  0  0  0  0
  160.8310  201.5460  147.4620 C   0  0  0  0  0  2  0  0  0  0  0  0
  161.2260  201.0230  148.8260 C   0  0  0  0  0  2  0  0  0  0  0  0
  160.4090  202.2950  148.7100 C   0  0  0  0  0  3  0  0  0  0  0  0
  1  5  1  0  0  0  0
  2 26  1  1  0  0  0
  2  6  1  0  0  0  0
  3  7  1  0  0  0  0
  3  9  1  0  0  0  0
  4 10  1  6  0  0  0
  4  2  1  0  0  0  0
  4  1  1  0  0  0  0
  5  7  1  0  0  0  0
  6  9  2  0  0  0  0
  8  3  2  0  0  0  0
  9 19  1  0  0  0  0
 10 11  2  6  0  0  0
 12 10  1  0  0  0  0
 14 13  1  1  0  0  0
 14 12  1  0  0  0  0
 15 14  1  6  0  0  0
 17 15  1  0  0  0  0
 18 16  1  6  0  0  0
 18 17  1  0  0  0  0
 18 15  1  0  0  0  0
 19 20  1  0  0  0  0
 20 21  1  0  0  0  0
 20 23  1  1  0  0  0
 20 22  1  0  0  0  0
 21 25  1  1  0  0  0
 21 22  1  0  0  0  0
 25 24  1  0  0  0  0
 26 27  1  0  0  0  0
 27 28  1  1  0  0  0
 29 33  1  6  0  0  0
 29 31  1  0  0  0  0
 29 27  1  0  0  0  0
 31 30  2  0  0  0  0
 31 32  1  0  0  0  0
 34 33  1  0  0  0  0
 35 37  1  0  0  0  0
 35 36  1  0  0  0  0
 37 36  1  0  0  0  0
 37 34  1  0  0  0  0
M  END
>  <MODEL>
6

>  <REMARK>
 VINA RESULT:      -5.1      2.567      7.690
  Name = 
  14 active torsions:
  status: ('A' for Active; 'I' for Inactive)
    1  A    between atoms: C_1  and  C_26
    2  A    between atoms: C_2  and  C_35
    3  A    between atoms: C_4  and  C_13
    4  A    between atoms: C_4  and  C_28
    5  A    between atoms: C_5  and  O_23
    6  A    between atoms: C_6  and  S_31
    7  A    between atoms: C_6  and  C_35
    8  A    between atoms: C_10  and  C_28
    9  A    between atoms: C_13  and  C_16
   10  A    between atoms: C_13  and  C_20
   11  A    between atoms: C_14  and  S_31
   12  A    between atoms: C_20  and  C_25
   13  A    between atoms: C_25  and  C_32
   14  A    between atoms: C_26  and  C_36
                            x       y       z     vdW  Elec       q    Type
                         _______ _______ _______ _____ _____    ______ ____

>  <TORSDO>
F 14

$$$$
=
 OpenBabel11062409233D

 37 40  0  0  1  0  0  0  0  0999 V2000
  162.4050  206.6720  152.6950 C   0  0  0  0  0  2  0  0  0  0  0  0
  161.3450  207.6610  150.5470 C   0  0  2  0  0  3  0  0  0  0  0  0
  160.8250  204.6060  150.8470 C   0  0  0  0  0  0  0  0  0  0  0  0
  161.1590  207.2460  152.0190 C   0  0  2  0  0  3  0  0  0  0  0  0
  162.9110  205.3940  152.0340 C   0  0  0  0  0  2  0  0  0  0  0  0
  161.5260  206.5780  149.5110 C   0  0  0  0  0  3  0  0  0  0  0  0
  161.8240  204.3240  151.9350 C   0  0  0  0  0  2  0  0  0  0  0  0
  159.7080  203.8930  150.8490 C   0  0  0  0  0  2  0  0  0  0  0  0
  161.2470  205.2690  149.5960 C   0  0  0  0  0  0  0  0  0  0  0  0
  160.4830  208.5960  153.0140 S   0  0  2  0  0  0  0  0  0  0  0  0
  161.2780  209.8130  152.5590 O   0  0  0  0  0  0  0  0  0  0  0  0
  161.0410  208.3180  154.7170 C   0  0  0  0  0  2  0  0  0  0  0  0
  159.7270  207.2040  156.5110 C   0  0  0  0  0  1  0  0  0  0  0  0
  159.9100  208.4860  155.7220 C   0  0  1  0  0  3  0  0  0  0  0  0
  160.2420  209.6260  156.6850 C   0  0  1  0  0  3  0  0  0  0  0  0
  158.2610  210.7760  155.4950 C   0  0  0  0  0  1  0  0  0  0  0  0
  160.6960  210.8550  155.9160 C   0  0  0  0  0  2  0  0  0  0  0  0
  159.3300  210.8570  156.5740 C   0  0  2  0  0  3  0  0  0  0  0  0
  161.4710  204.4400  148.3700 C   0  0  0  0  0  2  0  0  0  0  0  0
  161.4200  205.2800  147.0990 C   0  0  2  0  0  0  0  0  0  0  0  0
  161.6950  204.4900  145.8280 C   0  0  2  0  0  3  0  0  0  0  0  0
  162.7400  205.4530  146.3860 C   0  0  0  0  0  2  0  0  0  0  0  0
  160.4590  206.4590  147.0010 C   0  0  0  0  0  1  0  0  0  0  0  0
  160.0920  204.1550  144.3460 C   0  0  0  0  0  1  0  0  0  0  0  0
  161.0750  205.0710  144.7180 O   0  0  0  0  0  0  0  0  0  0  0  0
  162.2730  208.8540  150.3050 C   0  0  0  0  0  2  0  0  0  0  0  0
  161.8740  209.6620  149.0760 C   0  0  2  0  0  3  0  0  0  0  0  0
  162.7180  209.3070  148.0200 O   0  0  0  0  0  1  0  0  0  0  0  0
  161.9560  211.1720  149.3400 C   0  0  1  0  0  3  0  0  0  0  0  0
  163.7220  212.2250  147.9040 O   0  0  0  0  0  1  0  0  0  0  0  0
  162.3830  211.9110  148.1110 C   0  0  0  0  0  0  0  0  0  0  0  0
  161.5310  212.2030  147.2330 O   0  0  0  0  0  0  0  0  0  0  0  0
  160.6100  211.7310  149.7860 C   0  0  0  0  0  2  0  0  0  0  0  0
  160.7940  212.7870  150.8600 C   0  0  0  0  0  2  0  0  0  0  0  0
  158.6940  212.2020  152.0070 C   0  0  0  0  0  2  0  0  0  0  0  0
  159.3560  213.3080  152.7990 C   0  0  0  0  0  2  0  0  0  0  0  0
  159.4380  213.3070  151.2850 C   0  0  0  0  0  3  0  0  0  0  0  0
  2 26  1  1  0  0  0
  2  4  1  0  0  0  0
  3  8  2  0  0  0  0
  3  7  1  0  0  0  0
  4  1  1  0  0  0  0
  4 10  1  1  0  0  0
  5  1  1  0  0  0  0
  6  9  2  0  0  0  0
  6  2  1  0  0  0  0
  7  5  1  0  0  0  0
  9  3  1  0  0  0  0
 10 11  2  6  0  0  0
 10 12  1  0  0  0  0
 12 14  1  0  0  0  0
 14 13  1  1  0  0  0
 15 14  1  6  0  0  0
 17 18  1  0  0  0  0
 17 15  1  0  0  0  0
 18 16  1  6  0  0  0
 18 15  1  0  0  0  0
 19  9  1  0  0  0  0
 20 23  1  6  0  0  0
 20 19  1  0  0  0  0
 21 25  1  6  0  0  0
 21 22  1  0  0  0  0
 21 20  1  0  0  0  0
 22 20  1  0  0  0  0
 24 25  1  0  0  0  0
 27 28  1  6  0  0  0
 27 29  1  0  0  0  0
 27 26  1  0  0  0  0
 29 33  1  6  0  0  0
 30 31  1  0  0  0  0
 31 29  1  0  0  0  0
 32 31  2  0  0  0  0
 33 34  1  0  0  0  0
 34 37  1  0  0  0  0
 35 36  1  0  0  0  0
 37 35  1  0  0  0  0
 37 36  1  0  0  0  0
M  END
>  <MODEL>
7

>  <REMARK>
 VINA RESULT:      -5.1      2.382      5.109
  Name = 
  14 active torsions:
  status: ('A' for Active; 'I' for Inactive)
    1  A    between atoms: C_1  and  C_26
    2  A    between atoms: C_2  and  C_35
    3  A    between atoms: C_4  and  C_13
    4  A    between atoms: C_4  and  C_28
    5  A    between atoms: C_5  and  O_23
    6  A    between atoms: C_6  and  S_31
    7  A    between atoms: C_6  and  C_35
    8  A    between atoms: C_10  and  C_28
    9  A    between atoms: C_13  and  C_16
   10  A    between atoms: C_13  and  C_20
   11  A    between atoms: C_14  and  S_31
   12  A    between atoms: C_20  and  C_25
   13  A    between atoms: C_25  and  C_32
   14  A    between atoms: C_26  and  C_36
                            x       y       z     vdW  Elec       q    Type
                         _______ _______ _______ _____ _____    ______ ____

>  <TORSDO>
F 14

$$$$
=
 OpenBabel11062409233D

 37 40  0  0  1  0  0  0  0  0999 V2000
  161.4320  211.5870  155.4530 C   0  0  0  0  0  2  0  0  0  0  0  0
  159.8150  211.1450  153.4770 C   0  0  2  0  0  3  0  0  0  0  0  0
  160.4820  208.5630  155.0850 C   0  0  0  0  0  0  0  0  0  0  0  0
  159.9850  211.4260  154.9820 C   0  0  2  0  0  3  0  0  0  0  0  0
  162.2760  210.3350  155.2350 C   0  0  0  0  0  2  0  0  0  0  0  0
  160.2390  209.7970  152.9440 C   0  0  0  0  0  3  0  0  0  0  0  0
  161.6490  209.0950  155.8700 C   0  0  0  0  0  2  0  0  0  0  0  0
  159.7110  207.6630  155.6770 C   0  0  0  0  0  2  0  0  0  0  0  0
  160.4680  208.6570  153.6100 C   0  0  0  0  0  0  0  0  0  0  0  0
  159.0020  212.8480  155.5120 S   0  0  2  0  0  0  0  0  0  0  0  0
  160.0250  213.7750  156.1550 O   0  0  0  0  0  0  0  0  0  0  0  0
  157.9820  212.2860  156.9020 C   0  0  0  0  0  2  0  0  0  0  0  0
  155.9820  213.7250  156.5610 C   0  0  0  0  0  1  0  0  0  0  0  0
  156.4980  212.2990  156.5620 C   0  0  1  0  0  3  0  0  0  0  0  0
  156.2810  211.6850  155.1790 C   0  0  1  0  0  3  0  0  0  0  0  0
  154.5060  210.2910  156.4320 C   0  0  0  0  0  1  0  0  0  0  0  0
  156.6420  210.2100  155.1910 C   0  0  0  0  0  2  0  0  0  0  0  0
  155.1830  210.6130  155.1080 C   0  0  2  0  0  3  0  0  0  0  0  0
  160.8160  207.4480  152.7980 C   0  0  0  0  0  2  0  0  0  0  0  0
  161.7930  207.7780  151.6760 C   0  0  2  0  0  0  0  0  0  0  0  0
  161.5130  207.0350  150.3780 C   0  0  2  0  0  3  0  0  0  0  0  0
  162.7000  206.6470  151.2550 C   0  0  0  0  0  2  0  0  0  0  0  0
  162.3910  209.1760  151.5710 C   0  0  0  0  0  1  0  0  0  0  0  0
  161.2030  207.2790  148.2050 C   0  0  0  0  0  1  0  0  0  0  0  0
  161.9720  207.7500  149.2680 O   0  0  0  0  0  0  0  0  0  0  0  0
  160.2060  212.2880  152.5380 C   0  0  0  0  0  2  0  0  0  0  0  0
  158.9930  212.9920  151.9400 C   0  0  2  0  0  3  0  0  0  0  0  0
  157.8800  212.1610  152.0920 O   0  0  0  0  0  1  0  0  0  0  0  0
  159.2090  213.3290  150.4580 C   0  0  1  0  0  3  0  0  0  0  0  0
  157.7900  213.7170  148.4270 O   0  0  0  0  0  0  0  0  0  0  0  0
  157.9290  213.7540  149.8110 C   0  0  0  0  0  0  0  0  0  0  0  0
  156.9540  214.0970  150.5270 O   0  0  0  0  0  1  0  0  0  0  0  0
  160.2240  214.4530  150.2870 C   0  0  0  0  0  2  0  0  0  0  0  0
  161.0930  214.2150  149.0670 C   0  0  0  0  0  2  0  0  0  0  0  0
  160.8860  212.1350  147.7630 C   0  0  0  0  0  2  0  0  0  0  0  0
  162.3500  212.5140  147.7910 C   0  0  0  0  0  2  0  0  0  0  0  0
  161.4830  212.7530  149.0100 C   0  0  0  0  0  3  0  0  0  0  0  0
  2 26  1  6  0  0  0
  2  4  1  0  0  0  0
  3  8  2  0  0  0  0
  3  7  1  0  0  0  0
  4  1  1  0  0  0  0
  4 10  1  6  0  0  0
  5  1  1  0  0  0  0
  5  7  1  0  0  0  0
  6  2  1  0  0  0  0
  6  9  2  0  0  0  0
  9  3  1  0  0  0  0
 10 11  2  1  0  0  0
 10 12  1  0  0  0  0
 14 13  1  6  0  0  0
 14 12  1  0  0  0  0
 15 17  1  0  0  0  0
 15 14  1  1  0  0  0
 18 15  1  0  0  0  0
 18 17  1  0  0  0  0
 18 16  1  1  0  0  0
 19  9  1  0  0  0  0
 20 23  1  6  0  0  0
 20 19  1  0  0  0  0
 21 25  1  6  0  0  0
 21 22  1  0  0  0  0
 21 20  1  0  0  0  0
 22 20  1  0  0  0  0
 24 25  1  0  0  0  0
 27 28  1  6  0  0  0
 27 26  1  0  0  0  0
 29 33  1  1  0  0  0
 29 27  1  0  0  0  0
 30 31  2  0  0  0  0
 31 29  1  0  0  0  0
 31 32  1  0  0  0  0
 34 33  1  0  0  0  0
 35 36  1  0  0  0  0
 35 37  1  0  0  0  0
 36 37  1  0  0  0  0
 37 34  1  0  0  0  0
M  END
>  <MODEL>
8

>  <REMARK>
 VINA RESULT:      -5.1      2.088      3.736
  Name = 
  14 active torsions:
  status: ('A' for Active; 'I' for Inactive)
    1  A    between atoms: C_1  and  C_26
    2  A    between atoms: C_2  and  C_35
    3  A    between atoms: C_4  and  C_13
    4  A    between atoms: C_4  and  C_28
    5  A    between atoms: C_5  and  O_23
    6  A    between atoms: C_6  and  S_31
    7  A    between atoms: C_6  and  C_35
    8  A    between atoms: C_10  and  C_28
    9  A    between atoms: C_13  and  C_16
   10  A    between atoms: C_13  and  C_20
   11  A    between atoms: C_14  and  S_31
   12  A    between atoms: C_20  and  C_25
   13  A    between atoms: C_25  and  C_32
   14  A    between atoms: C_26  and  C_36
                            x       y       z     vdW  Elec       q    Type
                         _______ _______ _______ _____ _____    ______ ____

>  <TORSDO>
F 14

$$$$
=
 OpenBabel11062409233D

 37 40  0  0  1  0  0  0  0  0999 V2000
  161.4800  210.9210  154.0400 C   0  0  0  0  0  2  0  0  0  0  0  0
  160.9620  210.0800  151.6450 C   0  0  2  0  0  3  0  0  0  0  0  0
  160.9920  207.7820  153.7450 C   0  0  0  0  0  0  0  0  0  0  0  0
  160.4160  210.5360  153.0110 C   0  0  2  0  0  3  0  0  0  0  0  0
  162.4090  209.7670  154.4040 C   0  0  0  0  0  2  0  0  0  0  0  0
  161.6650  208.7460  151.5590 C   0  0  0  0  0  3  0  0  0  0  0  0
  161.6410  208.5320  154.8750 C   0  0  0  0  0  2  0  0  0  0  0  0
  160.0940  206.8610  154.0650 C   0  0  0  0  0  2  0  0  0  0  0  0
  161.6400  207.7190  152.4190 C   0  0  0  0  0  0  0  0  0  0  0  0
  159.2120  211.8740  152.8370 S   0  0  2  0  0  0  0  0  0  0  0  0
  160.0030  212.9860  152.1620 O   0  0  0  0  0  0  0  0  0  0  0  0
  158.8960  212.5090  154.5060 C   0  0  0  0  0  2  0  0  0  0  0  0
  159.0880  210.8790  156.3750 C   0  0  0  0  0  1  0  0  0  0  0  0
  158.1430  211.5030  155.3650 C   0  0  1  0  0  3  0  0  0  0  0  0
  157.0070  212.2070  156.1080 C   0  0  1  0  0  3  0  0  0  0  0  0
  155.5800  210.3470  155.0280 C   0  0  0  0  0  1  0  0  0  0  0  0
  156.0040  212.7800  155.1220 C   0  0  0  0  0  2  0  0  0  0  0  0
  155.6230  211.5630  155.9410 C   0  0  2  0  0  3  0  0  0  0  0  0
  162.3920  206.4830  152.0320 C   0  0  0  0  0  2  0  0  0  0  0  0
  161.5090  205.4920  151.2830 C   0  0  2  0  0  0  0  0  0  0  0  0
  161.6800  205.5350  149.7720 C   0  0  2  0  0  3  0  0  0  0  0  0
  160.4270  206.1090  150.4290 C   0  0  0  0  0  2  0  0  0  0  0  0
  161.1640  204.1480  151.9140 C   0  0  0  0  0  1  0  0  0  0  0  0
  161.5730  204.5070  147.8200 C   0  0  0  0  0  1  0  0  0  0  0  0
  161.3730  204.3040  149.1850 O   0  0  0  0  0  0  0  0  0  0  0  0
  161.6630  211.1580  150.8150 C   0  0  0  0  0  2  0  0  0  0  0  0
  161.2000  211.1680  149.3630 C   0  0  2  0  0  3  0  0  0  0  0  0
  161.9960  210.2770  148.6380 O   0  0  0  0  0  1  0  0  0  0  0  0
  161.2830  212.5750  148.7530 C   0  0  1  0  0  3  0  0  0  0  0  0
  162.2110  212.7930  146.4330 O   0  0  0  0  0  0  0  0  0  0  0  0
  162.4340  212.6820  147.8020 C   0  0  0  0  0  0  0  0  0  0  0  0
  163.6080  212.7250  148.2490 O   0  0  0  0  0  1  0  0  0  0  0  0
  160.0080  212.9280  147.9960 C   0  0  0  0  0  2  0  0  0  0  0  0
  159.2360  214.0170  148.7170 C   0  0  0  0  0  2  0  0  0  0  0  0
  157.4120  212.7620  147.6360 C   0  0  0  0  0  2  0  0  0  0  0  0
  156.8780  213.3160  148.9390 C   0  0  0  0  0  2  0  0  0  0  0  0
  157.8530  214.1310  148.1130 C   0  0  0  0  0  3  0  0  0  0  0  0
  1  5  1  0  0  0  0
  2 26  1  1  0  0  0
  2  4  1  0  0  0  0
  3  8  2  0  0  0  0
  3  7  1  0  0  0  0
  4 10  1  6  0  0  0
  4  1  1  0  0  0  0
  5  7  1  0  0  0  0
  6  2  1  0  0  0  0
  6  9  2  0  0  0  0
  9  3  1  0  0  0  0
 10 11  2  6  0  0  0
 10 12  1  0  0  0  0
 12 14  1  0  0  0  0
 14 13  1  1  0  0  0
 15 14  1  6  0  0  0
 17 18  1  0  0  0  0
 17 15  1  0  0  0  0
 18 16  1  6  0  0  0
 18 15  1  0  0  0  0
 19  9  1  0  0  0  0
 20 23  1  1  0  0  0
 20 19  1  0  0  0  0
 21 25  1  6  0  0  0
 21 22  1  0  0  0  0
 21 20  1  0  0  0  0
 22 20  1  0  0  0  0
 24 25  1  0  0  0  0
 27 28  1  6  0  0  0
 27 26  1  0  0  0  0
 29 33  1  6  0  0  0
 29 27  1  0  0  0  0
 30 31  2  0  0  0  0
 31 32  1  0  0  0  0
 31 29  1  0  0  0  0
 33 34  1  0  0  0  0
 35 37  1  0  0  0  0
 35 36  1  0  0  0  0
 37 34  1  0  0  0  0
 37 36  1  0  0  0  0
M  END
>  <MODEL>
9

>  <REMARK>
 VINA RESULT:      -4.9      2.040      3.394
  Name = 
  14 active torsions:
  status: ('A' for Active; 'I' for Inactive)
    1  A    between atoms: C_1  and  C_26
    2  A    between atoms: C_2  and  C_35
    3  A    between atoms: C_4  and  C_13
    4  A    between atoms: C_4  and  C_28
    5  A    between atoms: C_5  and  O_23
    6  A    between atoms: C_6  and  S_31
    7  A    between atoms: C_6  and  C_35
    8  A    between atoms: C_10  and  C_28
    9  A    between atoms: C_13  and  C_16
   10  A    between atoms: C_13  and  C_20
   11  A    between atoms: C_14  and  S_31
   12  A    between atoms: C_20  and  C_25
   13  A    between atoms: C_25  and  C_32
   14  A    between atoms: C_26  and  C_36
                            x       y       z     vdW  Elec       q    Type
                         _______ _______ _______ _____ _____    ______ ____

>  <TORSDO>
F 14

$$$$
