=
 OpenBabel11052422273D

 31 35  0  0  1  0  0  0  0  0999 V2000
  161.3960  205.5670  149.4040 C   0  0  0  0  0  0  0  0  0  0  0  0
  161.2150  204.1540  149.2710 C   0  0  0  0  0  0  0  0  0  0  0  0
  161.4370  202.0430  147.7600 C   0  0  0  0  0  2  0  0  0  0  0  0
  161.7740  206.4100  148.2640 C   0  0  0  0  0  0  0  0  0  0  0  0
  161.2280  203.5450  147.8780 C   0  0  0  0  0  2  0  0  0  0  0  0
  161.2980  207.5700  151.0390 C   0  0  0  0  0  0  0  0  0  0  0  0
  160.7130  204.0140  151.6550 C   0  0  0  0  0  3  0  0  0  0  0  0
  160.2390  201.3630  148.1850 N   0  0  0  0  0  0  0  0  0  0  0  0
  161.6380  208.2700  149.9360 C   0  0  0  0  0  0  0  0  0  0  0  0
  161.1790  206.1600  150.7560 C   0  0  0  0  0  0  0  0  0  0  0  0
  159.9180  201.2990  149.4260 C   0  0  0  0  0  3  0  0  0  0  0  0
  161.9890  209.0930  148.8580 C   0  0  0  0  0  2  0  0  0  0  0  0
  161.8640  207.7190  148.6160 C   0  0  0  0  0  0  0  0  0  0  0  0
  160.8500  205.3490  151.7890 N   0  0  0  0  0  0  0  0  0  0  0  0
  160.8770  203.3880  150.4270 C   0  0  0  0  0  0  0  0  0  0  0  0
  160.8010  201.8890  150.4810 C   0  0  0  0  0  2  0  0  0  0  0  0
  161.1870  205.9730  145.8050 C   0  0  0  0  0  0  0  0  0  0  0  0
  160.0300  206.4610  145.8890 O   0  0  0  0  0  0  0  0  0  0  0  0
  161.6370  205.4530  144.5600 N   0  0  0  0  0  1  0  0  0  0  0  0
  162.0610  205.9330  146.9400 N   0  0  0  0  0  2  0  0  0  0  0  0
  161.0950  208.1970  152.3890 C   0  0  0  0  0  2  0  0  0  0  0  0
  159.9360  210.4420  152.3660 C   0  0  0  0  0  1  0  0  0  0  0  0
  161.2720  209.7220  152.3890 C   0  0  1  0  0  3  0  0  0  0  0  0
  162.1210  210.2170  153.5550 C   0  0  0  0  0  2  0  0  0  0  0  0
  160.5270  208.6840  156.6220 C   0  0  0  0  0  0  0  0  0  0  0  0
  160.2590  211.0410  156.7410 C   0  0  0  0  0  3  0  0  0  0  0  0
  160.3140  207.3430  157.2250 C   0  0  0  0  0  1  0  0  0  0  0  0
  161.1970  208.8010  155.4010 C   0  0  0  0  0  3  0  0  0  0  0  0
  160.9240  211.1990  155.5230 C   0  0  0  0  0  3  0  0  0  0  0  0
  161.3930  210.0700  154.8490 C   0  0  0  0  0  0  0  0  0  0  0  0
  160.0760  209.7970  157.2610 N   0  0  0  0  0  0  0  0  0  0  0  0
  1 10  1  0  0  0  0
  2  1  2  0  0  0  0
  2 15  1  0  0  0  0
  3  5  1  0  0  0  0
  3  8  1  0  0  0  0
  4 13  2  0  0  0  0
  4  1  1  0  0  0  0
  5  2  1  0  0  0  0
  6 21  1  0  0  0  0
  7 14  1  0  0  0  0
  8 11  2  0  0  0  0
  9  6  2  0  0  0  0
 10  6  1  0  0  0  0
 10 14  2  0  0  0  0
 11 16  1  0  0  0  0
 12  9  1  0  0  0  0
 13 12  1  0  0  0  0
 13  9  1  0  0  0  0
 15 16  1  0  0  0  0
 15  7  2  0  0  0  0
 17 18  2  0  0  0  0
 17 20  1  0  0  0  0
 19 17  1  0  0  0  0
 20  4  1  0  0  0  0
 21 23  1  0  0  0  0
 23 22  1  1  0  0  0
 23 24  1  0  0  0  0
 24 30  1  0  0  0  0
 25 27  1  0  0  0  0
 25 31  1  0  0  0  0
 26 31  2  0  0  0  0
 28 25  2  0  0  0  0
 29 26  1  0  0  0  0
 30 28  1  0  0  0  0
 30 29  2  0  0  0  0
M  END
>  <MODEL>
1

>  <REMARK>
 VINA RESULT:     -10.0      0.000      0.000
  Name = 
  5 active torsions:
  status: ('A' for Active; 'I' for Inactive)
    1  A    between atoms: C_3  and  C_9
    2  A    between atoms: C_3  and  C_22
    3  A    between atoms: C_9  and  C_23
    4  A    between atoms: C_12  and  N_25
    5  A    between atoms: C_15  and  C_23
                            x       y       z     vdW  Elec       q    Type
                         _______ _______ _______ _____ _____    ______ ____

>  <TORSDO>
F 5

$$$$
=
 OpenBabel11052422273D

 31 35  0  0  1  0  0  0  0  0999 V2000
  161.1730  208.3370  152.7210 C   0  0  0  0  0  0  0  0  0  0  0  0
  160.8800  209.2610  153.7740 C   0  0  0  0  0  0  0  0  0  0  0  0
  160.5460  211.7450  154.4870 C   0  0  0  0  0  2  0  0  0  0  0  0
  161.6020  208.7870  151.3930 C   0  0  0  0  0  0  0  0  0  0  0  0
  161.2060  210.7310  153.5650 C   0  0  0  0  0  2  0  0  0  0  0  0
  161.3150  205.8340  152.0800 C   0  0  0  0  0  0  0  0  0  0  0  0
  160.3110  207.3900  155.2330 C   0  0  0  0  0  3  0  0  0  0  0  0
  161.1530  211.6640  155.7920 N   0  0  0  0  0  0  0  0  0  0  0  0
  161.7110  206.3360  150.8900 C   0  0  0  0  0  0  0  0  0  0  0  0
  161.0300  206.8830  153.0290 C   0  0  0  0  0  0  0  0  0  0  0  0
  160.9100  210.6770  156.5760 C   0  0  0  0  0  3  0  0  0  0  0  0
  162.1320  206.7450  149.6190 C   0  0  0  0  0  2  0  0  0  0  0  0
  161.8480  207.7400  150.5630 C   0  0  0  0  0  0  0  0  0  0  0  0
  160.6130  206.5050  154.2590 N   0  0  0  0  0  0  0  0  0  0  0  0
  160.4380  208.7580  155.0340 C   0  0  0  0  0  0  0  0  0  0  0  0
  159.9520  209.5980  156.1800 C   0  0  0  0  0  2  0  0  0  0  0  0
  161.8760  210.6390  149.6390 C   0  0  0  0  0  0  0  0  0  0  0  0
  161.9330  209.8470  148.6620 O   0  0  0  0  0  0  0  0  0  0  0  0
  161.9730  212.0390  149.4080 N   0  0  0  0  0  1  0  0  0  0  0  0
  161.7150  210.1580  150.9790 N   0  0  0  0  0  2  0  0  0  0  0  0
  161.1740  204.3640  152.3530 C   0  0  0  0  0  2  0  0  0  0  0  0
  162.2440  202.2100  151.5820 C   0  0  0  0  0  1  0  0  0  0  0  0
  161.5320  203.4790  151.1520 C   0  0  1  0  0  3  0  0  0  0  0  0
  160.3230  203.1410  150.2870 C   0  0  0  0  0  2  0  0  0  0  0  0
  161.7290  203.8520  146.8510 C   0  0  0  0  0  0  0  0  0  0  0  0
  160.8480  201.6460  146.8540 C   0  0  0  0  0  3  0  0  0  0  0  0
  162.4160  204.9510  146.1240 C   0  0  0  0  0  1  0  0  0  0  0  0
  161.3560  204.0250  148.1850 C   0  0  0  0  0  3  0  0  0  0  0  0
  160.4590  201.7810  148.1890 C   0  0  0  0  0  3  0  0  0  0  0  0
  160.7140  202.9810  148.8570 C   0  0  0  0  0  0  0  0  0  0  0  0
  161.4690  202.6760  146.2180 N   0  0  0  0  0  0  0  0  0  0  0  0
  1 10  1  0  0  0  0
  1  2  2  0  0  0  0
  2 15  1  0  0  0  0
  3  8  1  0  0  0  0
  4  1  1  0  0  0  0
  5  2  1  0  0  0  0
  5  3  1  0  0  0  0
  6 21  1  0  0  0  0
  6 10  1  0  0  0  0
  8 11  2  0  0  0  0
  9  6  2  0  0  0  0
 10 14  2  0  0  0  0
 12 13  1  0  0  0  0
 12  9  1  0  0  0  0
 13  9  1  0  0  0  0
 13  4  2  0  0  0  0
 14  7  1  0  0  0  0
 15  7  2  0  0  0  0
 15 16  1  0  0  0  0
 16 11  1  0  0  0  0
 17 20  1  0  0  0  0
 18 17  2  0  0  0  0
 19 17  1  0  0  0  0
 20  4  1  0  0  0  0
 23 22  1  1  0  0  0
 23 21  1  0  0  0  0
 24 23  1  0  0  0  0
 25 28  1  0  0  0  0
 26 29  2  0  0  0  0
 27 25  1  0  0  0  0
 28 30  2  0  0  0  0
 29 30  1  0  0  0  0
 30 24  1  0  0  0  0
 31 25  2  0  0  0  0
 31 26  1  0  0  0  0
M  END
>  <MODEL>
2

>  <REMARK>
 VINA RESULT:      -9.9      2.184      8.194
  Name = 
  5 active torsions:
  status: ('A' for Active; 'I' for Inactive)
    1  A    between atoms: C_3  and  C_9
    2  A    between atoms: C_3  and  C_22
    3  A    between atoms: C_9  and  C_23
    4  A    between atoms: C_12  and  N_25
    5  A    between atoms: C_15  and  C_23
                            x       y       z     vdW  Elec       q    Type
                         _______ _______ _______ _____ _____    ______ ____

>  <TORSDO>
F 5

$$$$
=
 OpenBabel11052422273D

 31 35  0  0  1  0  0  0  0  0999 V2000
  161.5110  205.3660  150.4480 C   0  0  0  0  0  0  0  0  0  0  0  0
  161.2850  204.0410  149.9570 C   0  0  0  0  0  0  0  0  0  0  0  0
  161.3710  202.4030  147.9320 C   0  0  0  0  0  2  0  0  0  0  0  0
  161.8530  206.4750  149.5510 C   0  0  0  0  0  0  0  0  0  0  0  0
  161.2100  203.8230  148.4540 C   0  0  0  0  0  2  0  0  0  0  0  0
  161.5510  206.8650  152.5560 C   0  0  0  0  0  0  0  0  0  0  0  0
  160.9010  203.2800  152.2430 C   0  0  0  0  0  3  0  0  0  0  0  0
  160.1790  201.6510  148.2290 N   0  0  0  0  0  0  0  0  0  0  0  0
  161.8530  207.8280  151.6590 C   0  0  0  0  0  0  0  0  0  0  0  0
  161.3790  205.5820  151.9180 C   0  0  0  0  0  0  0  0  0  0  0  0
  159.9200  201.2640  149.4260 C   0  0  0  0  0  3  0  0  0  0  0  0
  162.1710  208.9020  150.8190 C   0  0  0  0  0  2  0  0  0  0  0  0
  161.9970  207.6430  150.2300 C   0  0  0  0  0  0  0  0  0  0  0  0
  161.0820  204.5310  152.7180 N   0  0  0  0  0  0  0  0  0  0  0  0
  160.9850  203.0000  150.8860 C   0  0  0  0  0  0  0  0  0  0  0  0
  160.8720  201.5420  150.5470 C   0  0  0  0  0  2  0  0  0  0  0  0
  161.0540  206.4110  147.1140 C   0  0  0  0  0  0  0  0  0  0  0  0
  159.8380  206.5650  147.4020 O   0  0  0  0  0  0  0  0  0  0  0  0
  161.4380  206.2820  145.7510 N   0  0  0  0  0  1  0  0  0  0  0  0
  162.0590  206.3630  148.1340 N   0  0  0  0  0  2  0  0  0  0  0  0
  161.4350  207.1150  154.0330 C   0  0  0  0  0  2  0  0  0  0  0  0
  159.7410  208.0210  155.6740 C   0  0  0  0  0  1  0  0  0  0  0  0
  160.5010  208.2800  154.3850 C   0  0  1  0  0  3  0  0  0  0  0  0
  161.2300  209.6170  154.4610 C   0  0  0  0  0  2  0  0  0  0  0  0
  159.3180  212.8760  154.6010 C   0  0  0  0  0  0  0  0  0  0  0  0
  158.8240  211.8090  152.5370 C   0  0  0  0  0  3  0  0  0  0  0  0
  159.1350  214.0310  155.5160 C   0  0  0  0  0  1  0  0  0  0  0  0
  160.1580  211.8220  154.9680 C   0  0  0  0  0  3  0  0  0  0  0  0
  159.6550  210.7360  152.8680 C   0  0  0  0  0  3  0  0  0  0  0  0
  160.3240  210.7440  154.0950 C   0  0  0  0  0  0  0  0  0  0  0  0
  158.6740  212.8480  153.4030 N   0  0  0  0  0  0  0  0  0  0  0  0
  1 10  1  0  0  0  0
  2  1  2  0  0  0  0
  2 15  1  0  0  0  0
  3  8  1  0  0  0  0
  3  5  1  0  0  0  0
  4 13  2  0  0  0  0
  4  1  1  0  0  0  0
  5  2  1  0  0  0  0
  6 21  1  0  0  0  0
  7 14  1  0  0  0  0
  8 11  2  0  0  0  0
  9  6  2  0  0  0  0
 10  6  1  0  0  0  0
 10 14  2  0  0  0  0
 11 16  1  0  0  0  0
 12  9  1  0  0  0  0
 13 12  1  0  0  0  0
 13  9  1  0  0  0  0
 15  7  2  0  0  0  0
 16 15  1  0  0  0  0
 17 18  2  0  0  0  0
 17 20  1  0  0  0  0
 19 17  1  0  0  0  0
 20  4  1  0  0  0  0
 21 23  1  0  0  0  0
 23 24  1  0  0  0  0
 23 22  1  1  0  0  0
 25 28  1  0  0  0  0
 25 27  1  0  0  0  0
 26 29  2  0  0  0  0
 26 31  1  0  0  0  0
 29 30  1  0  0  0  0
 30 24  1  0  0  0  0
 30 28  2  0  0  0  0
 31 25  2  0  0  0  0
M  END
>  <MODEL>
3

>  <REMARK>
 VINA RESULT:      -9.4      1.597      2.533
  Name = 
  5 active torsions:
  status: ('A' for Active; 'I' for Inactive)
    1  A    between atoms: C_3  and  C_9
    2  A    between atoms: C_3  and  C_22
    3  A    between atoms: C_9  and  C_23
    4  A    between atoms: C_12  and  N_25
    5  A    between atoms: C_15  and  C_23
                            x       y       z     vdW  Elec       q    Type
                         _______ _______ _______ _____ _____    ______ ____

>  <TORSDO>
F 5

$$$$
=
 OpenBabel11052422273D

 31 35  0  0  1  0  0  0  0  0999 V2000
  161.1220  208.4240  152.7410 C   0  0  0  0  0  0  0  0  0  0  0  0
  160.8030  209.3500  153.7840 C   0  0  0  0  0  0  0  0  0  0  0  0
  160.3960  211.8300  154.4720 C   0  0  0  0  0  2  0  0  0  0  0  0
  161.5370  208.8730  151.4080 C   0  0  0  0  0  0  0  0  0  0  0  0
  161.0850  210.8270  153.5600 C   0  0  0  0  0  2  0  0  0  0  0  0
  161.3370  205.9200  152.1260 C   0  0  0  0  0  0  0  0  0  0  0  0
  160.2900  207.4780  155.2630 C   0  0  0  0  0  3  0  0  0  0  0  0
  161.0050  211.7810  155.7770 N   0  0  0  0  0  0  0  0  0  0  0  0
  161.7180  206.4210  150.9310 C   0  0  0  0  0  0  0  0  0  0  0  0
  161.0230  206.9700  153.0640 C   0  0  0  0  0  0  0  0  0  0  0  0
  160.7920  210.7950  156.5720 C   0  0  0  0  0  3  0  0  0  0  0  0
  162.1260  206.8290  149.6540 C   0  0  0  0  0  2  0  0  0  0  0  0
  161.8140  207.8250  150.5890 C   0  0  0  0  0  0  0  0  0  0  0  0
  160.6180  206.5920  154.2990 N   0  0  0  0  0  0  0  0  0  0  0  0
  160.3760  208.8470  155.0500 C   0  0  0  0  0  0  0  0  0  0  0  0
  159.8660  209.6840  156.1880 C   0  0  0  0  0  2  0  0  0  0  0  0
  161.8630  210.7130  149.6500 C   0  0  0  0  0  0  0  0  0  0  0  0
  162.0530  209.9120  148.6980 O   0  0  0  0  0  0  0  0  0  0  0  0
  161.9010  212.1130  149.4030 N   0  0  0  0  0  1  0  0  0  0  0  0
  161.6090  210.2420  150.9790 N   0  0  0  0  0  2  0  0  0  0  0  0
  161.2400  204.4490  152.4150 C   0  0  0  0  0  2  0  0  0  0  0  0
  162.1280  202.2240  151.6130 C   0  0  0  0  0  1  0  0  0  0  0  0
  161.5460  203.5640  151.1990 C   0  0  1  0  0  3  0  0  0  0  0  0
  160.3330  203.3590  150.2980 C   0  0  0  0  0  2  0  0  0  0  0  0
  161.0490  201.5820  147.0390 C   0  0  0  0  0  0  0  0  0  0  0  0
  161.5690  203.8830  146.7630 C   0  0  0  0  0  3  0  0  0  0  0  0
  160.9660  200.2140  146.4640 C   0  0  0  0  0  1  0  0  0  0  0  0
  160.6700  201.8050  148.3650 C   0  0  0  0  0  3  0  0  0  0  0  0
  161.1990  204.1460  148.0840 C   0  0  0  0  0  3  0  0  0  0  0  0
  160.7490  203.0970  148.8900 C   0  0  0  0  0  0  0  0  0  0  0  0
  161.4870  202.6170  146.2720 N   0  0  0  0  0  0  0  0  0  0  0  0
  1 10  1  0  0  0  0
  1  2  2  0  0  0  0
  2 15  1  0  0  0  0
  3  8  1  0  0  0  0
  4  1  1  0  0  0  0
  5  2  1  0  0  0  0
  5  3  1  0  0  0  0
  6 21  1  0  0  0  0
  6 10  1  0  0  0  0
  8 11  2  0  0  0  0
  9  6  2  0  0  0  0
 10 14  2  0  0  0  0
 12 13  1  0  0  0  0
 12  9  1  0  0  0  0
 13  9  1  0  0  0  0
 13  4  2  0  0  0  0
 14  7  1  0  0  0  0
 15  7  2  0  0  0  0
 15 16  1  0  0  0  0
 16 11  1  0  0  0  0
 17 20  1  0  0  0  0
 18 17  2  0  0  0  0
 19 17  1  0  0  0  0
 20  4  1  0  0  0  0
 23 22  1  1  0  0  0
 23 21  1  0  0  0  0
 24 23  1  0  0  0  0
 25 28  1  0  0  0  0
 26 29  2  0  0  0  0
 27 25  1  0  0  0  0
 28 30  2  0  0  0  0
 29 30  1  0  0  0  0
 30 24  1  0  0  0  0
 31 26  1  0  0  0  0
 31 25  2  0  0  0  0
M  END
>  <MODEL>
4

>  <REMARK>
 VINA RESULT:      -9.4      2.226      8.227
  Name = 
  5 active torsions:
  status: ('A' for Active; 'I' for Inactive)
    1  A    between atoms: C_3  and  C_9
    2  A    between atoms: C_3  and  C_22
    3  A    between atoms: C_9  and  C_23
    4  A    between atoms: C_12  and  N_25
    5  A    between atoms: C_15  and  C_23
                            x       y       z     vdW  Elec       q    Type
                         _______ _______ _______ _____ _____    ______ ____

>  <TORSDO>
F 5

$$$$
=
 OpenBabel11052422273D

 31 35  0  0  1  0  0  0  0  0999 V2000
  161.4620  205.5840  149.4240 C   0  0  0  0  0  0  0  0  0  0  0  0
  161.2080  204.1760  149.3890 C   0  0  0  0  0  0  0  0  0  0  0  0
  160.8570  202.0430  147.9340 C   0  0  0  0  0  2  0  0  0  0  0  0
  161.4630  206.4010  148.2060 C   0  0  0  0  0  0  0  0  0  0  0  0
  160.7410  203.5520  148.0830 C   0  0  0  0  0  2  0  0  0  0  0  0
  161.9670  207.6060  150.9570 C   0  0  0  0  0  0  0  0  0  0  0  0
  161.5220  204.0780  151.8060 C   0  0  0  0  0  3  0  0  0  0  0  0
  159.8500  201.4070  148.7460 N   0  0  0  0  0  0  0  0  0  0  0  0
  161.9400  208.2830  149.7880 C   0  0  0  0  0  0  0  0  0  0  0  0
  161.7220  206.1980  150.7590 C   0  0  0  0  0  0  0  0  0  0  0  0
  159.9580  201.3670  150.0250 C   0  0  0  0  0  3  0  0  0  0  0  0
  161.9350  209.0820  148.6380 C   0  0  0  0  0  2  0  0  0  0  0  0
  161.7000  207.7100  148.4800 C   0  0  0  0  0  0  0  0  0  0  0  0
  161.7330  205.4100  151.8590 N   0  0  0  0  0  0  0  0  0  0  0  0
  161.2520  203.4340  150.6070 C   0  0  0  0  0  0  0  0  0  0  0  0
  161.1570  201.9390  150.7140 C   0  0  0  0  0  2  0  0  0  0  0  0
  162.2680  205.2650  146.0510 C   0  0  0  0  0  0  0  0  0  0  0  0
  163.4430  205.0850  146.4640 O   0  0  0  0  0  0  0  0  0  0  0  0
  161.9120  204.8280  144.7450 N   0  0  0  0  0  1  0  0  0  0  0  0
  161.2800  205.9010  146.8720 N   0  0  0  0  0  2  0  0  0  0  0  0
  162.2410  208.2550  152.2830 C   0  0  0  0  0  2  0  0  0  0  0  0
  160.4630  207.7130  153.9950 C   0  0  0  0  0  1  0  0  0  0  0  0
  160.9750  208.7410  153.0010 C   0  0  1  0  0  3  0  0  0  0  0  0
  161.1660  210.0890  153.6860 C   0  0  0  0  0  2  0  0  0  0  0  0
  157.8910  211.9630  153.9150 C   0  0  0  0  0  0  0  0  0  0  0  0
  159.0430  212.7100  151.9780 C   0  0  0  0  0  3  0  0  0  0  0  0
  156.7040  212.0450  154.8060 C   0  0  0  0  0  1  0  0  0  0  0  0
  158.9290  211.0780  154.2170 C   0  0  0  0  0  3  0  0  0  0  0  0
  160.1010  211.8380  152.2450 C   0  0  0  0  0  3  0  0  0  0  0  0
  160.0400  211.0150  153.3720 C   0  0  0  0  0  0  0  0  0  0  0  0
  157.9690  212.7540  152.8110 N   0  0  0  0  0  0  0  0  0  0  0  0
  1 10  1  0  0  0  0
  2  1  2  0  0  0  0
  2 15  1  0  0  0  0
  3  5  1  0  0  0  0
  3  8  1  0  0  0  0
  4 13  2  0  0  0  0
  4  1  1  0  0  0  0
  5  2  1  0  0  0  0
  6 21  1  0  0  0  0
  7 14  1  0  0  0  0
  8 11  2  0  0  0  0
  9  6  2  0  0  0  0
 10  6  1  0  0  0  0
 10 14  2  0  0  0  0
 11 16  1  0  0  0  0
 12  9  1  0  0  0  0
 13 12  1  0  0  0  0
 13  9  1  0  0  0  0
 15 16  1  0  0  0  0
 15  7  2  0  0  0  0
 17 18  2  0  0  0  0
 17 20  1  0  0  0  0
 19 17  1  0  0  0  0
 20  4  1  0  0  0  0
 21 23  1  0  0  0  0
 23 24  1  0  0  0  0
 23 22  1  1  0  0  0
 25 28  1  0  0  0  0
 25 27  1  0  0  0  0
 26 29  2  0  0  0  0
 26 31  1  0  0  0  0
 29 30  1  0  0  0  0
 30 24  1  0  0  0  0
 30 28  2  0  0  0  0
 31 25  2  0  0  0  0
M  END
>  <MODEL>
5

>  <REMARK>
 VINA RESULT:      -9.3      1.803      2.473
  Name = 
  5 active torsions:
  status: ('A' for Active; 'I' for Inactive)
    1  A    between atoms: C_3  and  C_9
    2  A    between atoms: C_3  and  C_22
    3  A    between atoms: C_9  and  C_23
    4  A    between atoms: C_12  and  N_25
    5  A    between atoms: C_15  and  C_23
                            x       y       z     vdW  Elec       q    Type
                         _______ _______ _______ _____ _____    ______ ____

>  <TORSDO>
F 5

$$$$
=
 OpenBabel11052422273D

 31 35  0  0  1  0  0  0  0  0999 V2000
  161.1310  209.2000  152.7820 C   0  0  0  0  0  0  0  0  0  0  0  0
  160.7450  208.8660  154.1190 C   0  0  0  0  0  0  0  0  0  0  0  0
  159.6810  209.6610  156.3610 C   0  0  0  0  0  2  0  0  0  0  0  0
  161.0830  210.5780  152.2830 C   0  0  0  0  0  0  0  0  0  0  0  0
  160.4610  209.9940  155.0990 C   0  0  0  0  0  2  0  0  0  0  0  0
  162.0420  208.2680  150.5460 C   0  0  0  0  0  0  0  0  0  0  0  0
  161.2110  206.5180  153.6470 C   0  0  0  0  0  3  0  0  0  0  0  0
  160.5300  208.9210  157.2610 N   0  0  0  0  0  0  0  0  0  0  0  0
  161.9740  209.5640  150.1740 C   0  0  0  0  0  0  0  0  0  0  0  0
  161.5960  208.0840  151.9060 C   0  0  0  0  0  0  0  0  0  0  0  0
  160.8300  207.6940  157.0300 C   0  0  0  0  0  3  0  0  0  0  0  0
  161.9460  210.8750  149.6820 C   0  0  0  0  0  2  0  0  0  0  0  0
  161.5190  210.6630  150.9990 C   0  0  0  0  0  0  0  0  0  0  0  0
  161.6080  206.8210  152.3940 N   0  0  0  0  0  0  0  0  0  0  0  0
  160.7860  207.5010  154.5310 C   0  0  0  0  0  0  0  0  0  0  0  0
  160.2730  206.9760  155.8410 C   0  0  0  0  0  2  0  0  0  0  0  0
  159.3900  212.4390  152.7860 C   0  0  0  0  0  0  0  0  0  0  0  0
  158.6080  212.1190  151.8520 O   0  0  0  0  0  0  0  0  0  0  0  0
  159.0650  213.5430  153.6220 N   0  0  0  0  0  1  0  0  0  0  0  0
  160.6010  211.7110  153.0230 N   0  0  0  0  0  2  0  0  0  0  0  0
  162.5060  207.1670  149.6360 C   0  0  0  0  0  2  0  0  0  0  0  0
  162.5430  206.4860  147.2030 C   0  0  0  0  0  1  0  0  0  0  0  0
  161.7100  207.0770  148.3270 C   0  0  1  0  0  3  0  0  0  0  0  0
  160.4060  206.3020  148.4830 C   0  0  0  0  0  2  0  0  0  0  0  0
  160.8370  203.3960  150.8610 C   0  0  0  0  0  0  0  0  0  0  0  0
  161.1260  202.5940  148.6440 C   0  0  0  0  0  3  0  0  0  0  0  0
  160.7940  203.1240  152.3210 C   0  0  0  0  0  1  0  0  0  0  0  0
  160.6170  204.6910  150.3860 C   0  0  0  0  0  3  0  0  0  0  0  0
  160.9100  203.8750  148.1300 C   0  0  0  0  0  3  0  0  0  0  0  0
  160.6560  204.9300  149.0100 C   0  0  0  0  0  0  0  0  0  0  0  0
  161.0850  202.3830  149.9870 N   0  0  0  0  0  0  0  0  0  0  0  0
  1  2  2  0  0  0  0
  2 15  1  0  0  0  0
  2  5  1  0  0  0  0
  3  8  1  0  0  0  0
  4  1  1  0  0  0  0
  4 20  1  0  0  0  0
  5  3  1  0  0  0  0
  6 10  1  0  0  0  0
  7 15  2  0  0  0  0
  9  6  2  0  0  0  0
  9 13  1  0  0  0  0
 10 14  2  0  0  0  0
 10  1  1  0  0  0  0
 11  8  2  0  0  0  0
 12  9  1  0  0  0  0
 12 13  1  0  0  0  0
 13  4  2  0  0  0  0
 14  7  1  0  0  0  0
 15 16  1  0  0  0  0
 16 11  1  0  0  0  0
 17 20  1  0  0  0  0
 17 19  1  0  0  0  0
 18 17  2  0  0  0  0
 21  6  1  0  0  0  0
 23 22  1  6  0  0  0
 23 24  1  0  0  0  0
 23 21  1  0  0  0  0
 24 30  1  0  0  0  0
 25 27  1  0  0  0  0
 26 31  1  0  0  0  0
 28 25  1  0  0  0  0
 29 26  2  0  0  0  0
 29 30  1  0  0  0  0
 30 28  2  0  0  0  0
 31 25  2  0  0  0  0
M  END
>  <MODEL>
6

>  <REMARK>
 VINA RESULT:      -9.2      2.386      7.580
  Name = 
  5 active torsions:
  status: ('A' for Active; 'I' for Inactive)
    1  A    between atoms: C_3  and  C_9
    2  A    between atoms: C_3  and  C_22
    3  A    between atoms: C_9  and  C_23
    4  A    between atoms: C_12  and  N_25
    5  A    between atoms: C_15  and  C_23
                            x       y       z     vdW  Elec       q    Type
                         _______ _______ _______ _____ _____    ______ ____

>  <TORSDO>
F 5

$$$$
=
 OpenBabel11052422273D

 31 35  0  0  1  0  0  0  0  0999 V2000
  161.0600  209.6680  152.1300 C   0  0  0  0  0  0  0  0  0  0  0  0
  161.0340  210.8020  151.2580 C   0  0  0  0  0  0  0  0  0  0  0  0
  160.4460  213.3210  150.9460 C   0  0  0  0  0  2  0  0  0  0  0  0
  160.4310  209.6960  153.4550 C   0  0  0  0  0  0  0  0  0  0  0  0
  160.1710  211.9950  151.6370 C   0  0  0  0  0  2  0  0  0  0  0  0
  161.8370  207.2140  152.3900 C   0  0  0  0  0  0  0  0  0  0  0  0
  162.3310  209.5450  149.6170 C   0  0  0  0  0  3  0  0  0  0  0  0
  159.9760  213.2520  149.5850 N   0  0  0  0  0  0  0  0  0  0  0  0
  161.2250  207.3250  153.5880 C   0  0  0  0  0  0  0  0  0  0  0  0
  161.7510  208.4410  151.6360 C   0  0  0  0  0  0  0  0  0  0  0  0
  160.6080  212.5710  148.6990 C   0  0  0  0  0  3  0  0  0  0  0  0
  160.6220  207.3280  154.8530 C   0  0  0  0  0  2  0  0  0  0  0  0
  160.5570  208.5050  154.0960 C   0  0  0  0  0  0  0  0  0  0  0  0
  162.3380  208.4580  150.4160 N   0  0  0  0  0  0  0  0  0  0  0  0
  161.6920  210.7180  149.9940 C   0  0  0  0  0  0  0  0  0  0  0  0
  161.8810  211.8610  149.0390 C   0  0  0  0  0  2  0  0  0  0  0  0
  160.2840  211.6300  155.1350 C   0  0  0  0  0  0  0  0  0  0  0  0
  161.3830  211.3660  155.6900 O   0  0  0  0  0  0  0  0  0  0  0  0
  159.5160  212.7350  155.5950 N   0  0  0  0  0  1  0  0  0  0  0  0
  159.7930  210.8390  154.0450 N   0  0  0  0  0  2  0  0  0  0  0  0
  162.5320  205.9650  151.9260 C   0  0  0  0  0  2  0  0  0  0  0  0
  160.8140  204.2660  152.6650 C   0  0  0  0  0  1  0  0  0  0  0  0
  161.5690  204.8550  151.4860 C   0  0  1  0  0  3  0  0  0  0  0  0
  160.5930  205.3130  150.4080 C   0  0  0  0  0  2  0  0  0  0  0  0
  161.6460  204.9370  146.7970 C   0  0  0  0  0  0  0  0  0  0  0  0
  161.2060  202.7740  147.6750 C   0  0  0  0  0  3  0  0  0  0  0  0
  162.0690  205.7900  145.6560 C   0  0  0  0  0  1  0  0  0  0  0  0
  161.3200  205.5230  148.0220 C   0  0  0  0  0  3  0  0  0  0  0  0
  160.8720  203.3230  148.9150 C   0  0  0  0  0  3  0  0  0  0  0  0
  160.9280  204.7080  149.0870 C   0  0  0  0  0  0  0  0  0  0  0  0
  161.5830  203.5860  146.6500 N   0  0  0  0  0  0  0  0  0  0  0  0
  1  4  1  0  0  0  0
  2  5  1  0  0  0  0
  2  1  1  0  0  0  0
  3  5  1  0  0  0  0
  4 20  1  0  0  0  0
  4 13  2  0  0  0  0
  6  9  2  0  0  0  0
  7 15  1  0  0  0  0
  7 14  2  0  0  0  0
  8  3  1  0  0  0  0
  9 13  1  0  0  0  0
  9 12  1  0  0  0  0
 10  1  2  0  0  0  0
 10  6  1  0  0  0  0
 11 16  1  0  0  0  0
 11  8  2  0  0  0  0
 13 12  1  0  0  0  0
 14 10  1  0  0  0  0
 15  2  2  0  0  0  0
 16 15  1  0  0  0  0
 17 19  1  0  0  0  0
 17 18  2  0  0  0  0
 20 17  1  0  0  0  0
 21  6  1  0  0  0  0
 23 21  1  0  0  0  0
 23 22  1  1  0  0  0
 24 23  1  0  0  0  0
 25 28  1  0  0  0  0
 26 29  2  0  0  0  0
 27 25  1  0  0  0  0
 28 30  2  0  0  0  0
 29 30  1  0  0  0  0
 30 24  1  0  0  0  0
 31 25  2  0  0  0  0
 31 26  1  0  0  0  0
M  END
>  <MODEL>
7

>  <REMARK>
 VINA RESULT:      -9.1      3.100      8.633
  Name = 
  5 active torsions:
  status: ('A' for Active; 'I' for Inactive)
    1  A    between atoms: C_3  and  C_9
    2  A    between atoms: C_3  and  C_22
    3  A    between atoms: C_9  and  C_23
    4  A    between atoms: C_12  and  N_25
    5  A    between atoms: C_15  and  C_23
                            x       y       z     vdW  Elec       q    Type
                         _______ _______ _______ _____ _____    ______ ____

>  <TORSDO>
F 5

$$$$
=
 OpenBabel11052422273D

 31 35  0  0  1  0  0  0  0  0999 V2000
  161.5210  206.5830  150.9340 C   0  0  0  0  0  0  0  0  0  0  0  0
  161.8300  207.9310  150.5670 C   0  0  0  0  0  0  0  0  0  0  0  0
  162.6760  210.2760  151.3260 C   0  0  0  0  0  2  0  0  0  0  0  0
  161.5190  206.1430  152.3330 C   0  0  0  0  0  0  0  0  0  0  0  0
  161.9710  208.9720  151.6660 C   0  0  0  0  0  2  0  0  0  0  0  0
  160.8350  204.2520  150.0460 C   0  0  0  0  0  0  0  0  0  0  0  0
  161.5470  207.3370  148.2180 C   0  0  0  0  0  3  0  0  0  0  0  0
  161.8130  211.0800  150.4990 N   0  0  0  0  0  0  0  0  0  0  0  0
  160.8480  203.9350  151.3590 C   0  0  0  0  0  0  0  0  0  0  0  0
  161.1920  205.6330  149.8310 C   0  0  0  0  0  0  0  0  0  0  0  0
  161.6070  210.7810  149.2680 C   0  0  0  0  0  3  0  0  0  0  0  0
  160.8310  203.4970  152.6890 C   0  0  0  0  0  2  0  0  0  0  0  0
  161.1730  204.8340  152.4470 C   0  0  0  0  0  0  0  0  0  0  0  0
  161.2240  206.0700  148.5500 N   0  0  0  0  0  0  0  0  0  0  0  0
  161.8440  208.2870  149.1850 C   0  0  0  0  0  0  0  0  0  0  0  0
  162.2930  209.6110  148.6360 C   0  0  0  0  0  2  0  0  0  0  0  0
  161.0680  207.2300  154.6130 C   0  0  0  0  0  0  0  0  0  0  0  0
  159.9140  206.7400  154.7320 O   0  0  0  0  0  0  0  0  0  0  0  0
  161.5810  208.0670  155.6420 N   0  0  0  0  0  1  0  0  0  0  0  0
  161.8750  206.9590  153.4600 N   0  0  0  0  0  2  0  0  0  0  0  0
  160.5080  203.2680  148.9600 C   0  0  0  0  0  2  0  0  0  0  0  0
  160.3840  200.9530  149.9660 C   0  0  0  0  0  1  0  0  0  0  0  0
  161.2090  201.9130  149.1270 C   0  0  1  0  0  3  0  0  0  0  0  0
  161.5760  201.2700  147.7940 C   0  0  0  0  0  2  0  0  0  0  0  0
  161.3230  204.1340  145.3390 C   0  0  0  0  0  0  0  0  0  0  0  0
  159.7480  202.4710  144.7100 C   0  0  0  0  0  3  0  0  0  0  0  0
  161.9560  205.4530  145.0850 C   0  0  0  0  0  1  0  0  0  0  0  0
  161.7370  203.3600  146.4260 C   0  0  0  0  0  3  0  0  0  0  0  0
  160.1350  201.6680  145.7850 C   0  0  0  0  0  3  0  0  0  0  0  0
  161.1350  202.1190  146.6500 C   0  0  0  0  0  0  0  0  0  0  0  0
  160.3450  203.6770  144.5110 N   0  0  0  0  0  0  0  0  0  0  0  0
  1  4  1  0  0  0  0
  2  1  1  0  0  0  0
  2  5  1  0  0  0  0
  3  5  1  0  0  0  0
  4 13  2  0  0  0  0
  4 20  1  0  0  0  0
  6  9  2  0  0  0  0
  7 14  2  0  0  0  0
  7 15  1  0  0  0  0
  8  3  1  0  0  0  0
  9 13  1  0  0  0  0
  9 12  1  0  0  0  0
 10  6  1  0  0  0  0
 10  1  2  0  0  0  0
 11  8  2  0  0  0  0
 13 12  1  0  0  0  0
 14 10  1  0  0  0  0
 15  2  2  0  0  0  0
 16 15  1  0  0  0  0
 16 11  1  0  0  0  0
 17 18  2  0  0  0  0
 17 19  1  0  0  0  0
 20 17  1  0  0  0  0
 21 23  1  0  0  0  0
 21  6  1  0  0  0  0
 23 22  1  6  0  0  0
 24 23  1  0  0  0  0
 25 28  1  0  0  0  0
 26 29  2  0  0  0  0
 27 25  1  0  0  0  0
 28 30  2  0  0  0  0
 29 30  1  0  0  0  0
 30 24  1  0  0  0  0
 31 26  1  0  0  0  0
 31 25  2  0  0  0  0
M  END
>  <MODEL>
8

>  <REMARK>
 VINA RESULT:      -9.0      2.587      8.773
  Name = 
  5 active torsions:
  status: ('A' for Active; 'I' for Inactive)
    1  A    between atoms: C_3  and  C_9
    2  A    between atoms: C_3  and  C_22
    3  A    between atoms: C_9  and  C_23
    4  A    between atoms: C_12  and  N_25
    5  A    between atoms: C_15  and  C_23
                            x       y       z     vdW  Elec       q    Type
                         _______ _______ _______ _____ _____    ______ ____

>  <TORSDO>
F 5

$$$$
=
 OpenBabel11052422273D

 31 35  0  0  1  0  0  0  0  0999 V2000
  161.2470  205.3200  149.6010 C   0  0  0  0  0  0  0  0  0  0  0  0
  161.3430  205.0490  148.2000 C   0  0  0  0  0  0  0  0  0  0  0  0
  161.5250  203.2590  146.3150 C   0  0  0  0  0  2  0  0  0  0  0  0
  161.3990  204.2620  150.6060 C   0  0  0  0  0  0  0  0  0  0  0  0
  161.8020  203.6700  147.7530 C   0  0  0  0  0  2  0  0  0  0  0  0
  160.8950  207.1630  151.3820 C   0  0  0  0  0  0  0  0  0  0  0  0
  160.8980  207.4030  147.7340 C   0  0  0  0  0  3  0  0  0  0  0  0
  162.4120  203.9790  145.4370 N   0  0  0  0  0  0  0  0  0  0  0  0
  161.0560  206.1310  152.2380 C   0  0  0  0  0  0  0  0  0  0  0  0
  160.9900  206.7330  150.0090 C   0  0  0  0  0  0  0  0  0  0  0  0
  162.2360  205.2270  145.1950 C   0  0  0  0  0  3  0  0  0  0  0  0
  161.2080  205.1380  153.2130 C   0  0  0  0  0  2  0  0  0  0  0  0
  161.2960  204.7510  151.8700 C   0  0  0  0  0  0  0  0  0  0  0  0
  160.8360  207.6790  149.0540 N   0  0  0  0  0  0  0  0  0  0  0  0
  161.1550  206.1190  147.2730 C   0  0  0  0  0  0  0  0  0  0  0  0
  161.0760  205.9690  145.7820 C   0  0  0  0  0  2  0  0  0  0  0  0
  160.5880  201.9290  149.9100 C   0  0  0  0  0  0  0  0  0  0  0  0
  159.3880  202.2800  149.7600 O   0  0  0  0  0  0  0  0  0  0  0  0
  160.9570  200.5780  149.6670 N   0  0  0  0  0  1  0  0  0  0  0  0
  161.5910  202.8680  150.3200 N   0  0  0  0  0  2  0  0  0  0  0  0
  160.6290  208.5740  151.8260 C   0  0  0  0  0  2  0  0  0  0  0  0
  162.6510  209.9230  151.1390 C   0  0  0  0  0  1  0  0  0  0  0  0
  161.8860  209.3140  152.3000 C   0  0  1  0  0  3  0  0  0  0  0  0
  161.5830  210.3780  153.3500 C   0  0  0  0  0  2  0  0  0  0  0  0
  160.8980  208.1460  156.3230 C   0  0  0  0  0  0  0  0  0  0  0  0
  162.4740  209.7970  156.9790 C   0  0  0  0  0  3  0  0  0  0  0  0
  160.0800  206.9540  156.6670 C   0  0  0  0  0  1  0  0  0  0  0  0
  160.8400  208.6820  155.0350 C   0  0  0  0  0  3  0  0  0  0  0  0
  162.4440  210.3620  155.7020 C   0  0  0  0  0  3  0  0  0  0  0  0
  161.6180  209.8010  154.7250 C   0  0  0  0  0  0  0  0  0  0  0  0
  161.7070  208.7090  157.2610 N   0  0  0  0  0  0  0  0  0  0  0  0
  1 10  2  0  0  0  0
  1  4  1  0  0  0  0
  2  1  1  0  0  0  0
  3  5  1  0  0  0  0
  4 13  2  0  0  0  0
  5  2  1  0  0  0  0
  6 21  1  0  0  0  0
  6  9  2  0  0  0  0
  7 14  2  0  0  0  0
  8  3  1  0  0  0  0
  9 12  1  0  0  0  0
 10  6  1  0  0  0  0
 11  8  2  0  0  0  0
 11 16  1  0  0  0  0
 13  9  1  0  0  0  0
 13 12  1  0  0  0  0
 14 10  1  0  0  0  0
 15  7  1  0  0  0  0
 15  2  2  0  0  0  0
 16 15  1  0  0  0  0
 17 20  1  0  0  0  0
 18 17  2  0  0  0  0
 19 17  1  0  0  0  0
 20  4  1  0  0  0  0
 21 23  1  0  0  0  0
 23 22  1  6  0  0  0
 23 24  1  0  0  0  0
 24 30  1  0  0  0  0
 25 27  1  0  0  0  0
 25 31  1  0  0  0  0
 26 31  2  0  0  0  0
 28 25  2  0  0  0  0
 29 26  1  0  0  0  0
 30 28  1  0  0  0  0
 30 29  2  0  0  0  0
M  END
>  <MODEL>
9

>  <REMARK>
 VINA RESULT:      -9.0      1.757      3.592
  Name = 
  5 active torsions:
  status: ('A' for Active; 'I' for Inactive)
    1  A    between atoms: C_3  and  C_9
    2  A    between atoms: C_3  and  C_22
    3  A    between atoms: C_9  and  C_23
    4  A    between atoms: C_12  and  N_25
    5  A    between atoms: C_15  and  C_23
                            x       y       z     vdW  Elec       q    Type
                         _______ _______ _______ _____ _____    ______ ____

>  <TORSDO>
F 5

$$$$
