=
 OpenBabel11062407443D

 34 39  0  0  1  0  0  0  0  0999 V2000
  161.8840  208.3540  149.0060 C   0  0  0  0  0  0  0  0  0  0  0  0
  161.2530  209.6320  150.9330 C   0  0  0  0  0  0  0  0  0  0  0  0
  160.9020  207.0520  150.9540 C   0  0  1  0  0  3  0  0  0  0  0  0
  160.7820  205.5680  152.7670 C   0  0  2  0  0  3  0  0  0  0  0  0
  162.3890  210.6530  149.1230 C   0  0  0  0  0  3  0  0  0  0  0  0
  161.7840  210.7300  150.3340 N   0  0  0  0  0  0  0  0  0  0  0  0
  161.6320  207.6220  153.2650 C   0  0  0  0  0  2  0  0  0  0  0  0
  161.4030  208.3630  150.3310 C   0  0  0  0  0  0  0  0  0  0  0  0
  161.2120  205.4180  154.2040 C   0  0  0  0  0  2  0  0  0  0  0  0
  162.4090  209.4760  148.4520 N   0  0  0  0  0  0  0  0  0  0  0  0
  161.1400  205.8660  149.9850 C   0  0  1  0  0  3  0  0  0  0  0  0
  161.6930  207.1870  148.2010 N   0  0  0  0  0  2  0  0  0  0  0  0
  160.4470  209.8110  152.0920 N   0  0  0  0  0  1  0  0  0  0  0  0
  160.9130  204.2950  151.9380 C   0  0  0  0  0  2  0  0  0  0  0  0
  160.4560  204.5900  150.5000 C   0  0  2  0  0  3  0  0  0  0  0  0
  161.6460  206.8290  154.5690 C   0  0  2  0  0  3  0  0  0  0  0  0
  161.5890  206.6410  152.1920 N   0  0  2  0  0  0  0  0  0  0  0  0
  160.7820  206.2000  148.6150 N   0  0  0  0  0  2  0  0  0  0  0  0
  161.1480  202.5310  147.3960 C   0  0  0  0  0  0  0  0  0  0  0  0
  161.2550  201.2410  147.9250 C   0  0  0  0  0  3  0  0  0  0  0  0
  160.7320  203.4120  149.6170 C   0  0  0  0  0  0  0  0  0  0  0  0
  161.1000  201.0320  149.2980 C   0  0  0  0  0  3  0  0  0  0  0  0
  160.8880  203.6140  148.2410 C   0  0  0  0  0  3  0  0  0  0  0  0
  160.8390  202.1150  150.1430 C   0  0  0  0  0  3  0  0  0  0  0  0
  161.3430  202.7910  145.6770 Cl  0  0  0  0  0  0  0  0  0  0  0  0
  160.7930  207.4340  155.5970 N   0  0  0  0  0  2  0  0  0  0  0  0
  161.4060  208.6370  156.1560 C   0  0  0  0  0  2  0  0  0  0  0  0
  162.5200  211.1390  155.3410 F   0  0  0  0  0  0  0  0  0  0  0  0
  160.5740  209.8270  155.8260 C   0  0  0  0  0  0  0  0  0  0  0  0
  161.1710  211.0300  155.4200 C   0  0  0  0  0  0  0  0  0  0  0  0
  158.9790  212.0310  155.1670 C   0  0  0  0  0  3  0  0  0  0  0  0
  158.3820  210.8320  155.5640 C   0  0  0  0  0  3  0  0  0  0  0  0
  159.1790  209.7300  155.8910 C   0  0  0  0  0  3  0  0  0  0  0  0
  160.3710  212.1300  155.0940 C   0  0  0  0  0  3  0  0  0  0  0  0
  1  8  1  0  0  0  0
  2 13  1  0  0  0  0
  3  8  1  6  0  0  0
  3 17  1  0  0  0  0
  4 14  1  6  0  0  0
  4  9  1  0  0  0  0
  5  6  2  0  0  0  0
  6  2  1  0  0  0  0
  7 16  1  0  0  0  0
  8  2  2  0  0  0  0
  9 16  1  0  0  0  0
 10  1  2  0  0  0  0
 10  5  1  0  0  0  0
 11 18  1  6  0  0  0
 11 15  1  0  0  0  0
 11  3  1  0  0  0  0
 12 18  1  0  0  0  0
 12  1  1  0  0  0  0
 15 21  1  6  0  0  0
 15 14  1  0  0  0  0
 16 26  1  1  0  0  0
 17  4  1  0  0  0  0
 17  7  1  1  0  0  0
 19 20  2  0  0  0  0
 19 23  1  0  0  0  0
 20 22  1  0  0  0  0
 21 24  1  0  0  0  0
 22 24  2  0  0  0  0
 23 21  2  0  0  0  0
 25 19  1  0  0  0  0
 26 27  1  0  0  0  0
 28 30  1  0  0  0  0
 29 33  1  0  0  0  0
 29 27  1  0  0  0  0
 30 29  2  0  0  0  0
 31 32  1  0  0  0  0
 32 33  2  0  0  0  0
 34 31  2  0  0  0  0
 34 30  1  0  0  0  0
M  END
>  <MODEL>
1

>  <REMARK>
 VINA RESULT:      -8.9      0.000      0.000
  Name = 
  4 active torsions:
  status: ('A' for Active; 'I' for Inactive)
    1  A    between atoms: C_3  and  C_13
    2  A    between atoms: C_3  and  N_17
    3  A    between atoms: C_12  and  C_28
    4  A    between atoms: N_17  and  C_29
                            x       y       z     vdW  Elec       q    Type
                         _______ _______ _______ _____ _____    ______ ____

>  <TORSDO>
F 4

$$$$
=
 OpenBabel11062407443D

 34 39  0  0  1  0  0  0  0  0999 V2000
  160.5620  207.3720  154.2740 C   0  0  0  0  0  0  0  0  0  0  0  0
  161.5570  209.5300  153.9580 C   0  0  0  0  0  0  0  0  0  0  0  0
  161.7590  207.7530  152.0660 C   0  0  1  0  0  3  0  0  0  0  0  0
  162.0750  208.0450  149.7600 C   0  0  2  0  0  3  0  0  0  0  0  0
  160.2130  209.0840  155.8570 C   0  0  0  0  0  3  0  0  0  0  0  0
  161.0030  209.9190  155.1370 N   0  0  0  0  0  0  0  0  0  0  0  0
  161.4320  209.9190  150.8840 C   0  0  0  0  0  2  0  0  0  0  0  0
  161.2430  208.2630  153.4200 C   0  0  0  0  0  0  0  0  0  0  0  0
  161.8660  209.0480  148.6540 C   0  0  0  0  0  2  0  0  0  0  0  0
  160.0230  207.8080  155.4410 N   0  0  0  0  0  0  0  0  0  0  0  0
  161.3060  206.2900  151.8300 C   0  0  1  0  0  3  0  0  0  0  0  0
  160.5590  205.9750  153.9690 N   0  0  0  0  0  2  0  0  0  0  0  0
  162.5420  210.3650  153.3610 N   0  0  0  0  0  1  0  0  0  0  0  0
  161.7430  206.6080  149.3720 C   0  0  0  0  0  2  0  0  0  0  0  0
  161.9880  205.6970  150.5860 C   0  0  2  0  0  3  0  0  0  0  0  0
  161.5740  210.3290  149.4210 C   0  0  2  0  0  3  0  0  0  0  0  0
  161.2500  208.4760  150.8860 N   0  0  2  0  0  0  0  0  0  0  0  0
  161.4650  205.4700  153.0210 N   0  0  0  0  0  2  0  0  0  0  0  0
  160.8960  202.6170  148.6690 C   0  0  0  0  0  0  0  0  0  0  0  0
  160.6270  201.7160  149.7030 C   0  0  0  0  0  3  0  0  0  0  0  0
  161.5110  204.3070  150.2960 C   0  0  0  0  0  0  0  0  0  0  0  0
  160.7970  202.1060  151.0340 C   0  0  0  0  0  3  0  0  0  0  0  0
  161.3380  203.9090  148.9650 C   0  0  0  0  0  3  0  0  0  0  0  0
  161.2390  203.3990  151.3310 C   0  0  0  0  0  3  0  0  0  0  0  0
  160.6820  202.1270  147.0030 Cl  0  0  0  0  0  0  0  0  0  0  0  0
  162.6100  211.3490  149.2280 N   0  0  0  0  0  2  0  0  0  0  0  0
  162.3300  212.1770  148.0570 C   0  0  0  0  0  2  0  0  0  0  0  0
  160.1700  211.8450  146.2170 F   0  0  0  0  0  0  0  0  0  0  0  0
  161.0130  212.8530  148.2210 C   0  0  0  0  0  0  0  0  0  0  0  0
  159.9800  212.6480  147.2930 C   0  0  0  0  0  0  0  0  0  0  0  0
  158.5340  214.1020  148.5830 C   0  0  0  0  0  3  0  0  0  0  0  0
  159.5590  214.3020  149.5110 C   0  0  0  0  0  3  0  0  0  0  0  0
  160.7960  213.6760  149.3320 C   0  0  0  0  0  3  0  0  0  0  0  0
  158.7440  213.2760  147.4760 C   0  0  0  0  0  3  0  0  0  0  0  0
  1 10  2  0  0  0  0
  2  6  1  0  0  0  0
  3  8  1  1  0  0  0
  4  9  1  6  0  0  0
  4 17  1  0  0  0  0
  6  5  2  0  0  0  0
  8  2  2  0  0  0  0
  8  1  1  0  0  0  0
  9 16  1  0  0  0  0
 10  5  1  0  0  0  0
 11  3  1  0  0  0  0
 11 18  1  1  0  0  0
 12  1  1  0  0  0  0
 13  2  1  0  0  0  0
 14  4  1  0  0  0  0
 14 15  1  0  0  0  0
 15 21  1  6  0  0  0
 15 11  1  0  0  0  0
 16 26  1  1  0  0  0
 16  7  1  0  0  0  0
 17  7  1  1  0  0  0
 17  3  1  0  0  0  0
 18 12  1  0  0  0  0
 19 23  2  0  0  0  0
 19 20  1  0  0  0  0
 20 22  2  0  0  0  0
 21 24  2  0  0  0  0
 22 24  1  0  0  0  0
 23 21  1  0  0  0  0
 25 19  1  0  0  0  0
 27 29  1  0  0  0  0
 27 26  1  0  0  0  0
 28 30  1  0  0  0  0
 29 33  1  0  0  0  0
 30 34  1  0  0  0  0
 30 29  2  0  0  0  0
 31 32  1  0  0  0  0
 33 32  2  0  0  0  0
 34 31  2  0  0  0  0
M  END
>  <MODEL>
2

>  <REMARK>
 VINA RESULT:      -8.5      2.689      5.393
  Name = 
  4 active torsions:
  status: ('A' for Active; 'I' for Inactive)
    1  A    between atoms: C_3  and  C_13
    2  A    between atoms: C_3  and  N_17
    3  A    between atoms: C_12  and  C_28
    4  A    between atoms: N_17  and  C_29
                            x       y       z     vdW  Elec       q    Type
                         _______ _______ _______ _____ _____    ______ ____

>  <TORSDO>
F 4

$$$$
=
 OpenBabel11062407443D

 34 39  0  0  1  0  0  0  0  0999 V2000
  161.3710  206.3800  148.9770 C   0  0  0  0  0  0  0  0  0  0  0  0
  161.7070  205.6580  151.2380 C   0  0  0  0  0  0  0  0  0  0  0  0
  161.9130  208.1920  150.6740 C   0  0  1  0  0  3  0  0  0  0  0  0
  161.6220  210.0660  152.0550 C   0  0  2  0  0  3  0  0  0  0  0  0
  160.9750  204.1360  149.5790 C   0  0  0  0  0  3  0  0  0  0  0  0
  161.3530  204.4040  150.8540 N   0  0  0  0  0  0  0  0  0  0  0  0
  160.8050  208.1160  152.9020 C   0  0  0  0  0  2  0  0  0  0  0  0
  161.6030  206.7290  150.3230 C   0  0  0  0  0  0  0  0  0  0  0  0
  160.9300  210.5090  153.3190 C   0  0  0  0  0  2  0  0  0  0  0  0
  161.0160  205.1140  148.6420 N   0  0  0  0  0  0  0  0  0  0  0  0
  161.7930  209.0870  149.4150 C   0  0  1  0  0  3  0  0  0  0  0  0
  161.6450  207.3360  147.9500 N   0  0  0  0  0  2  0  0  0  0  0  0
  162.2960  205.8350  152.5220 N   0  0  0  0  0  1  0  0  0  0  0  0
  161.5770  211.0890  150.9250 C   0  0  0  0  0  2  0  0  0  0  0  0
  162.3040  210.5090  149.7010 C   0  0  2  0  0  3  0  0  0  0  0  0
  160.5110  209.1890  153.9470 C   0  0  2  0  0  3  0  0  0  0  0  0
  160.9910  208.8160  151.6410 N   0  0  2  0  0  0  0  0  0  0  0  0
  162.4120  208.4750  148.2490 N   0  0  0  0  0  2  0  0  0  0  0  0
  160.6770  212.3920  146.8450 C   0  0  0  0  0  0  0  0  0  0  0  0
  161.7600  213.0980  146.3120 C   0  0  0  0  0  3  0  0  0  0  0  0
  162.1320  211.4130  148.5190 C   0  0  0  0  0  0  0  0  0  0  0  0
  163.0300  212.9630  146.8790 C   0  0  0  0  0  3  0  0  0  0  0  0
  160.8630  211.5530  147.9460 C   0  0  0  0  0  3  0  0  0  0  0  0
  163.2170  212.1230  147.9810 C   0  0  0  0  0  3  0  0  0  0  0  0
  159.0870  212.5620  146.1340 Cl  0  0  0  0  0  0  0  0  0  0  0  0
  161.1930  208.9280  155.2180 N   0  0  0  0  0  2  0  0  0  0  0  0
  160.2920  209.1150  156.3540 C   0  0  0  0  0  2  0  0  0  0  0  0
  157.7680  210.3080  155.7460 F   0  0  0  0  0  0  0  0  0  0  0  0
  160.0140  210.5660  156.5420 C   0  0  0  0  0  0  0  0  0  0  0  0
  158.7520  211.1000  156.2380 C   0  0  0  0  0  0  0  0  0  0  0  0
  159.5090  213.2890  156.9520 C   0  0  0  0  0  3  0  0  0  0  0  0
  160.7640  212.7570  157.2610 C   0  0  0  0  0  3  0  0  0  0  0  0
  161.0150  211.3960  157.0590 C   0  0  0  0  0  3  0  0  0  0  0  0
  158.5050  212.4620  156.4410 C   0  0  0  0  0  3  0  0  0  0  0  0
  1  8  1  0  0  0  0
  2 13  1  0  0  0  0
  3  8  1  6  0  0  0
  3 17  1  0  0  0  0
  4 14  1  6  0  0  0
  4  9  1  0  0  0  0
  5  6  2  0  0  0  0
  6  2  1  0  0  0  0
  7 16  1  0  0  0  0
  8  2  2  0  0  0  0
  9 16  1  0  0  0  0
 10  1  2  0  0  0  0
 10  5  1  0  0  0  0
 11 18  1  6  0  0  0
 11 15  1  0  0  0  0
 11  3  1  0  0  0  0
 12 18  1  0  0  0  0
 12  1  1  0  0  0  0
 15 21  1  6  0  0  0
 15 14  1  0  0  0  0
 16 26  1  1  0  0  0
 17  4  1  0  0  0  0
 17  7  1  1  0  0  0
 19 23  1  0  0  0  0
 20 19  2  0  0  0  0
 20 22  1  0  0  0  0
 22 24  2  0  0  0  0
 23 21  2  0  0  0  0
 24 21  1  0  0  0  0
 25 19  1  0  0  0  0
 26 27  1  0  0  0  0
 27 29  1  0  0  0  0
 28 30  1  0  0  0  0
 29 33  1  0  0  0  0
 30 34  1  0  0  0  0
 30 29  2  0  0  0  0
 31 32  1  0  0  0  0
 33 32  2  0  0  0  0
 34 31  2  0  0  0  0
M  END
>  <MODEL>
3

>  <REMARK>
 VINA RESULT:      -8.1      2.558      5.737
  Name = 
  4 active torsions:
  status: ('A' for Active; 'I' for Inactive)
    1  A    between atoms: C_3  and  C_13
    2  A    between atoms: C_3  and  N_17
    3  A    between atoms: C_12  and  C_28
    4  A    between atoms: N_17  and  C_29
                            x       y       z     vdW  Elec       q    Type
                         _______ _______ _______ _____ _____    ______ ____

>  <TORSDO>
F 4

$$$$
=
 OpenBabel11062407443D

 34 39  0  0  1  0  0  0  0  0999 V2000
  161.8820  208.9100  149.0540 C   0  0  0  0  0  0  0  0  0  0  0  0
  161.2080  209.9770  151.0920 C   0  0  0  0  0  0  0  0  0  0  0  0
  160.9060  207.4020  150.8510 C   0  0  1  0  0  3  0  0  0  0  0  0
  160.7980  205.7420  152.5050 C   0  0  2  0  0  3  0  0  0  0  0  0
  162.3410  211.1950  149.4070 C   0  0  0  0  0  3  0  0  0  0  0  0
  161.7230  211.1400  150.6130 N   0  0  0  0  0  0  0  0  0  0  0  0
  161.6040  207.7500  153.2150 C   0  0  0  0  0  2  0  0  0  0  0  0
  161.3880  208.7780  150.3680 C   0  0  0  0  0  0  0  0  0  0  0  0
  161.2180  205.4560  153.9250 C   0  0  0  0  0  2  0  0  0  0  0  0
  162.3890  210.0920  148.6210 N   0  0  0  0  0  0  0  0  0  0  0  0
  161.1770  206.3240  149.7710 C   0  0  1  0  0  3  0  0  0  0  0  0
  161.7200  207.8280  148.1350 N   0  0  0  0  0  2  0  0  0  0  0  0
  160.3880  210.0240  152.2550 N   0  0  0  0  0  1  0  0  0  0  0  0
  160.9620  204.5610  151.5540 C   0  0  0  0  0  2  0  0  0  0  0  0
  160.5120  204.9900  150.1480 C   0  0  2  0  0  3  0  0  0  0  0  0
  161.6220  206.8310  154.4330 C   0  0  2  0  0  3  0  0  0  0  0  0
  161.5900  206.8810  152.0500 N   0  0  2  0  0  0  0  0  0  0  0  0
  160.8250  206.7870  148.4370 N   0  0  0  0  0  2  0  0  0  0  0  0
  161.5830  203.2820  146.9400 C   0  0  0  0  0  0  0  0  0  0  0  0
  161.4120  201.9320  147.2630 C   0  0  0  0  0  3  0  0  0  0  0  0
  160.8190  203.9120  149.1540 C   0  0  0  0  0  0  0  0  0  0  0  0
  160.9450  201.5680  148.5290 C   0  0  0  0  0  3  0  0  0  0  0  0
  161.2880  204.2690  147.8840 C   0  0  0  0  0  3  0  0  0  0  0  0
  160.6490  202.5560  149.4740 C   0  0  0  0  0  3  0  0  0  0  0  0
  162.1680  203.7350  145.3550 Cl  0  0  0  0  0  0  0  0  0  0  0  0
  160.7480  207.3140  155.5070 N   0  0  0  0  0  2  0  0  0  0  0  0
  161.5240  207.8310  156.6320 C   0  0  0  0  0  2  0  0  0  0  0  0
  159.1100  209.1920  155.9340 F   0  0  0  0  0  0  0  0  0  0  0  0
  161.3750  209.3110  156.7100 C   0  0  0  0  0  0  0  0  0  0  0  0
  160.1630  209.9300  156.3650 C   0  0  0  0  0  0  0  0  0  0  0  0
  161.1140  212.0910  156.9110 C   0  0  0  0  0  3  0  0  0  0  0  0
  162.3180  211.4760  157.2600 C   0  0  0  0  0  3  0  0  0  0  0  0
  162.4480  210.0860  157.1630 C   0  0  0  0  0  3  0  0  0  0  0  0
  160.0380  211.3190  156.4640 C   0  0  0  0  0  3  0  0  0  0  0  0
  1  8  1  0  0  0  0
  2 13  1  0  0  0  0
  3  8  1  6  0  0  0
  3 17  1  0  0  0  0
  4 14  1  6  0  0  0
  4  9  1  0  0  0  0
  5  6  2  0  0  0  0
  6  2  1  0  0  0  0
  7 16  1  0  0  0  0
  8  2  2  0  0  0  0
  9 16  1  0  0  0  0
 10  1  2  0  0  0  0
 10  5  1  0  0  0  0
 11 18  1  6  0  0  0
 11 15  1  0  0  0  0
 11  3  1  0  0  0  0
 12 18  1  0  0  0  0
 12  1  1  0  0  0  0
 15 21  1  6  0  0  0
 15 14  1  0  0  0  0
 16 26  1  1  0  0  0
 17  4  1  0  0  0  0
 17  7  1  1  0  0  0
 19 20  2  0  0  0  0
 19 23  1  0  0  0  0
 20 22  1  0  0  0  0
 21 24  1  0  0  0  0
 22 24  2  0  0  0  0
 23 21  2  0  0  0  0
 25 19  1  0  0  0  0
 26 27  1  0  0  0  0
 27 29  1  0  0  0  0
 28 30  1  0  0  0  0
 29 33  1  0  0  0  0
 30 34  1  0  0  0  0
 30 29  2  0  0  0  0
 31 32  1  0  0  0  0
 33 32  2  0  0  0  0
 34 31  2  0  0  0  0
M  END
>  <MODEL>
4

>  <REMARK>
 VINA RESULT:      -8.1      1.113      1.466
  Name = 
  4 active torsions:
  status: ('A' for Active; 'I' for Inactive)
    1  A    between atoms: C_3  and  C_13
    2  A    between atoms: C_3  and  N_17
    3  A    between atoms: C_12  and  C_28
    4  A    between atoms: N_17  and  C_29
                            x       y       z     vdW  Elec       q    Type
                         _______ _______ _______ _____ _____    ______ ____

>  <TORSDO>
F 4

$$$$
=
 OpenBabel11062407443D

 34 39  0  0  1  0  0  0  0  0999 V2000
  161.9880  209.2490  149.2380 C   0  0  0  0  0  0  0  0  0  0  0  0
  161.3090  211.0410  150.6790 C   0  0  0  0  0  0  0  0  0  0  0  0
  160.9760  208.5830  151.4720 C   0  0  1  0  0  3  0  0  0  0  0  0
  160.8310  207.7140  153.6460 C   0  0  2  0  0  3  0  0  0  0  0  0
  162.4730  211.4830  148.6640 C   0  0  0  0  0  3  0  0  0  0  0  0
  161.8430  211.9150  149.7850 N   0  0  0  0  0  0  0  0  0  0  0  0
  161.6560  209.8330  153.5150 C   0  0  0  0  0  2  0  0  0  0  0  0
  161.4800  209.6520  150.4900 C   0  0  0  0  0  0  0  0  0  0  0  0
  161.2330  208.0100  155.0690 C   0  0  0  0  0  2  0  0  0  0  0  0
  162.5150  210.1590  148.3800 N   0  0  0  0  0  0  0  0  0  0  0  0
  161.2430  207.1640  150.9100 C   0  0  1  0  0  3  0  0  0  0  0  0
  161.8210  207.8930  148.8200 N   0  0  0  0  0  2  0  0  0  0  0  0
  160.4790  211.5510  151.7160 N   0  0  0  0  0  1  0  0  0  0  0  0
  160.9890  206.2530  153.2420 C   0  0  0  0  0  2  0  0  0  0  0  0
  160.5580  206.0930  151.7750 C   0  0  2  0  0  3  0  0  0  0  0  0
  161.6500  209.4710  154.9970 C   0  0  2  0  0  3  0  0  0  0  0  0
  161.6420  208.5740  152.7880 N   0  0  2  0  0  0  0  0  0  0  0  0
  160.9100  207.0640  149.4970 N   0  0  0  0  0  2  0  0  0  0  0  0
  161.1660  203.1710  149.4420 C   0  0  0  0  0  0  0  0  0  0  0  0
  161.4260  202.1340  150.3430 C   0  0  0  0  0  3  0  0  0  0  0  0
  160.8600  204.7070  151.2930 C   0  0  0  0  0  0  0  0  0  0  0  0
  161.4030  202.3790  151.7190 C   0  0  0  0  0  3  0  0  0  0  0  0
  160.8850  204.4550  149.9170 C   0  0  0  0  0  3  0  0  0  0  0  0
  161.1210  203.6640  152.1940 C   0  0  0  0  0  3  0  0  0  0  0  0
  161.1950  202.8620  147.7200 Cl  0  0  0  0  0  0  0  0  0  0  0  0
  160.7720  210.3470  155.7800 N   0  0  0  0  0  2  0  0  0  0  0  0
  160.4530  211.5710  155.0490 C   0  0  0  0  0  2  0  0  0  0  0  0
  159.2070  213.7890  153.7480 F   0  0  0  0  0  0  0  0  0  0  0  0
  158.9760  211.7500  154.9860 C   0  0  0  0  0  0  0  0  0  0  0  0
  158.4140  212.8530  154.3250 C   0  0  0  0  0  0  0  0  0  0  0  0
  156.1940  212.0320  154.8460 C   0  0  0  0  0  3  0  0  0  0  0  0
  156.7520  210.9300  155.4990 C   0  0  0  0  0  3  0  0  0  0  0  0
  158.1420  210.7880  155.5660 C   0  0  0  0  0  3  0  0  0  0  0  0
  157.0240  212.9920  154.2590 C   0  0  0  0  0  3  0  0  0  0  0  0
  1  8  1  0  0  0  0
  2 13  1  0  0  0  0
  3  8  1  6  0  0  0
  3 17  1  0  0  0  0
  4 14  1  6  0  0  0
  4  9  1  0  0  0  0
  5  6  2  0  0  0  0
  6  2  1  0  0  0  0
  7 16  1  0  0  0  0
  8  2  2  0  0  0  0
 10  5  1  0  0  0  0
 10  1  2  0  0  0  0
 11 18  1  6  0  0  0
 11  3  1  0  0  0  0
 11 15  1  0  0  0  0
 12  1  1  0  0  0  0
 12 18  1  0  0  0  0
 15 21  1  6  0  0  0
 15 14  1  0  0  0  0
 16  9  1  0  0  0  0
 16 26  1  1  0  0  0
 17  7  1  1  0  0  0
 17  4  1  0  0  0  0
 19 23  2  0  0  0  0
 19 20  1  0  0  0  0
 20 22  2  0  0  0  0
 21 24  2  0  0  0  0
 22 24  1  0  0  0  0
 23 21  1  0  0  0  0
 25 19  1  0  0  0  0
 27 26  1  0  0  0  0
 28 30  1  0  0  0  0
 29 27  1  0  0  0  0
 29 33  1  0  0  0  0
 30 29  2  0  0  0  0
 31 32  1  0  0  0  0
 32 33  2  0  0  0  0
 34 30  1  0  0  0  0
 34 31  2  0  0  0  0
M  END
>  <MODEL>
5

>  <REMARK>
 VINA RESULT:      -8.0      1.571      2.296
  Name = 
  4 active torsions:
  status: ('A' for Active; 'I' for Inactive)
    1  A    between atoms: C_3  and  C_13
    2  A    between atoms: C_3  and  N_17
    3  A    between atoms: C_12  and  C_28
    4  A    between atoms: N_17  and  C_29
                            x       y       z     vdW  Elec       q    Type
                         _______ _______ _______ _____ _____    ______ ____

>  <TORSDO>
F 4

$$$$
=
 OpenBabel11062407443D

 34 39  0  0  1  0  0  0  0  0999 V2000
  161.4430  210.9470  150.6280 C   0  0  0  0  0  0  0  0  0  0  0  0
  162.2130  209.7770  148.6820 C   0  0  0  0  0  0  0  0  0  0  0  0
  161.8090  208.4460  150.8830 C   0  0  1  0  0  3  0  0  0  0  0  0
  161.3150  206.1730  151.1920 C   0  0  2  0  0  3  0  0  0  0  0  0
  161.6060  212.0630  148.5580 C   0  0  0  0  0  3  0  0  0  0  0  0
  162.0820  210.9330  147.9790 N   0  0  0  0  0  0  0  0  0  0  0  0
  161.0410  206.9310  149.0620 C   0  0  0  0  0  2  0  0  0  0  0  0
  161.7690  209.7170  150.0210 C   0  0  0  0  0  0  0  0  0  0  0  0
  160.7160  204.9840  150.4840 C   0  0  0  0  0  2  0  0  0  0  0  0
  161.3200  212.0740  149.8830 N   0  0  0  0  0  0  0  0  0  0  0  0
  161.3420  208.7560  152.3270 C   0  0  1  0  0  3  0  0  0  0  0  0
  161.3740  211.0270  152.0530 N   0  0  0  0  0  2  0  0  0  0  0  0
  162.9140  208.6930  148.0840 N   0  0  0  0  0  1  0  0  0  0  0  0
  160.9110  206.2980  152.6570 C   0  0  0  0  0  2  0  0  0  0  0  0
  161.5770  207.5500  153.2510 C   0  0  2  0  0  3  0  0  0  0  0  0
  160.6680  205.4510  149.0380 C   0  0  2  0  0  3  0  0  0  0  0  0
  160.9110  207.3610  150.4450 N   0  0  2  0  0  0  0  0  0  0  0  0
  161.9180  209.9920  152.8340 N   0  0  0  0  0  2  0  0  0  0  0  0
  160.8230  209.3070  156.5220 C   0  0  0  0  0  0  0  0  0  0  0  0
  160.1300  208.3180  157.2260 C   0  0  0  0  0  3  0  0  0  0  0  0
  161.0680  207.8000  154.6380 C   0  0  0  0  0  0  0  0  0  0  0  0
  159.9040  207.0690  156.6400 C   0  0  0  0  0  3  0  0  0  0  0  0
  161.2900  209.0480  155.2310 C   0  0  0  0  0  3  0  0  0  0  0  0
  160.3720  206.8100  155.3480 C   0  0  0  0  0  3  0  0  0  0  0  0
  161.1040  210.8690  157.2570 Cl  0  0  0  0  0  0  0  0  0  0  0  0
  161.5490  204.6700  148.1640 N   0  0  0  0  0  2  0  0  0  0  0  0
  161.6120  203.2720  148.5840 C   0  0  0  0  0  2  0  0  0  0  0  0
  161.5420  200.4230  148.7870 F   0  0  0  0  0  0  0  0  0  0  0  0
  161.2200  202.3870  147.4520 C   0  0  0  0  0  0  0  0  0  0  0  0
  161.1920  200.9930  147.6070 C   0  0  0  0  0  0  0  0  0  0  0  0
  160.4350  200.7540  145.3170 C   0  0  0  0  0  3  0  0  0  0  0  0
  160.4560  202.1430  145.1630 C   0  0  0  0  0  3  0  0  0  0  0  0
  160.8450  202.9590  146.2310 C   0  0  0  0  0  3  0  0  0  0  0  0
  160.8020  200.1800  146.5380 C   0  0  0  0  0  3  0  0  0  0  0  0
  1 12  1  0  0  0  0
  2  8  2  0  0  0  0
  3  8  1  6  0  0  0
  3 11  1  0  0  0  0
  4  9  1  6  0  0  0
  4 14  1  0  0  0  0
  5 10  1  0  0  0  0
  6  5  2  0  0  0  0
  6  2  1  0  0  0  0
  8  1  1  0  0  0  0
 10  1  2  0  0  0  0
 11 18  1  1  0  0  0
 11 15  1  0  0  0  0
 12 18  1  0  0  0  0
 13  2  1  0  0  0  0
 14 15  1  0  0  0  0
 15 21  1  1  0  0  0
 16 26  1  6  0  0  0
 16  7  1  0  0  0  0
 16  9  1  0  0  0  0
 17  7  1  6  0  0  0
 17  3  1  0  0  0  0
 17  4  1  0  0  0  0
 19 20  1  0  0  0  0
 19 25  1  0  0  0  0
 21 23  1  0  0  0  0
 21 24  2  0  0  0  0
 22 20  2  0  0  0  0
 23 19  2  0  0  0  0
 24 22  1  0  0  0  0
 26 27  1  0  0  0  0
 29 30  1  0  0  0  0
 29 27  1  0  0  0  0
 30 28  1  0  0  0  0
 31 34  1  0  0  0  0
 32 31  2  0  0  0  0
 32 33  1  0  0  0  0
 33 29  2  0  0  0  0
 34 30  2  0  0  0  0
M  END
>  <MODEL>
6

>  <REMARK>
 VINA RESULT:      -8.0      3.663      8.286
  Name = 
  4 active torsions:
  status: ('A' for Active; 'I' for Inactive)
    1  A    between atoms: C_3  and  C_13
    2  A    between atoms: C_3  and  N_17
    3  A    between atoms: C_12  and  C_28
    4  A    between atoms: N_17  and  C_29
                            x       y       z     vdW  Elec       q    Type
                         _______ _______ _______ _____ _____    ______ ____

>  <TORSDO>
F 4

$$$$
=
 OpenBabel11062407443D

 34 39  0  0  1  0  0  0  0  0999 V2000
  160.8180  211.8480  150.9250 C   0  0  0  0  0  0  0  0  0  0  0  0
  161.9480  211.1480  148.9300 C   0  0  0  0  0  0  0  0  0  0  0  0
  161.7520  209.4850  150.9240 C   0  0  1  0  0  3  0  0  0  0  0  0
  161.7940  207.1390  150.9310 C   0  0  2  0  0  3  0  0  0  0  0  0
  160.8250  213.2310  149.0170 C   0  0  0  0  0  3  0  0  0  0  0  0
  161.5850  212.3250  148.3540 N   0  0  0  0  0  0  0  0  0  0  0  0
  161.4640  208.0850  148.8860 C   0  0  0  0  0  2  0  0  0  0  0  0
  161.4590  210.8140  150.2120 C   0  0  0  0  0  0  0  0  0  0  0  0
  161.5330  205.9470  150.0460 C   0  0  0  0  0  2  0  0  0  0  0  0
  160.4730  213.0040  150.3060 N   0  0  0  0  0  0  0  0  0  0  0  0
  161.1470  209.4900  152.3510 C   0  0  1  0  0  3  0  0  0  0  0  0
  160.6560  211.7240  152.3400 N   0  0  0  0  0  2  0  0  0  0  0  0
  162.9170  210.3400  148.2730 N   0  0  0  0  0  1  0  0  0  0  0  0
  161.2930  206.9770  152.3620 C   0  0  0  0  0  2  0  0  0  0  0  0
  161.6110  208.2600  153.1480 C   0  0  2  0  0  3  0  0  0  0  0  0
  161.4540  206.5750  148.6620 C   0  0  2  0  0  3  0  0  0  0  0  0
  161.1610  208.2900  150.2930 N   0  0  2  0  0  0  0  0  0  0  0  0
  161.3860  210.7480  153.0400 N   0  0  0  0  0  2  0  0  0  0  0  0
  160.0980  209.3770  156.4370 C   0  0  0  0  0  0  0  0  0  0  0  0
  159.8010  208.1540  157.0470 C   0  0  0  0  0  3  0  0  0  0  0  0
  160.9820  208.2050  154.5070 C   0  0  0  0  0  0  0  0  0  0  0  0
  160.0940  206.9550  156.3900 C   0  0  0  0  0  3  0  0  0  0  0  0
  160.6870  209.4020  155.1700 C   0  0  0  0  0  3  0  0  0  0  0  0
  160.6830  206.9800  155.1220 C   0  0  0  0  0  3  0  0  0  0  0  0
  159.7310  210.8760  157.2600 Cl  0  0  0  0  0  0  0  0  0  0  0  0
  162.5410  206.1360  147.7810 N   0  0  0  0  0  2  0  0  0  0  0  0
  162.0410  205.7850  146.4540 C   0  0  0  0  0  2  0  0  0  0  0  0
  161.0230  204.4910  144.1180 F   0  0  0  0  0  0  0  0  0  0  0  0
  161.5710  204.3720  146.4490 C   0  0  0  0  0  0  0  0  0  0  0  0
  161.0900  203.7800  145.2710 C   0  0  0  0  0  0  0  0  0  0  0  0
  160.7400  201.6980  146.4620 C   0  0  0  0  0  3  0  0  0  0  0  0
  161.2250  202.2850  147.6340 C   0  0  0  0  0  3  0  0  0  0  0  0
  161.6430  203.6200  147.6260 C   0  0  0  0  0  3  0  0  0  0  0  0
  160.6730  202.4450  145.2820 C   0  0  0  0  0  3  0  0  0  0  0  0
  1 12  1  0  0  0  0
  2  8  2  0  0  0  0
  3  8  1  6  0  0  0
  3 11  1  0  0  0  0
  4  9  1  6  0  0  0
  4 14  1  0  0  0  0
  5 10  1  0  0  0  0
  6  2  1  0  0  0  0
  6  5  2  0  0  0  0
  8  1  1  0  0  0  0
 10  1  2  0  0  0  0
 11 18  1  1  0  0  0
 11 15  1  0  0  0  0
 12 18  1  0  0  0  0
 13  2  1  0  0  0  0
 14 15  1  0  0  0  0
 15 21  1  1  0  0  0
 16 26  1  6  0  0  0
 16  7  1  0  0  0  0
 16  9  1  0  0  0  0
 17  7  1  6  0  0  0
 17  3  1  0  0  0  0
 17  4  1  0  0  0  0
 19 20  1  0  0  0  0
 19 25  1  0  0  0  0
 21 24  2  0  0  0  0
 21 23  1  0  0  0  0
 22 20  2  0  0  0  0
 23 19  2  0  0  0  0
 24 22  1  0  0  0  0
 27 26  1  0  0  0  0
 28 30  1  0  0  0  0
 29 27  1  0  0  0  0
 29 33  1  0  0  0  0
 30 34  1  0  0  0  0
 30 29  2  0  0  0  0
 31 32  1  0  0  0  0
 33 32  2  0  0  0  0
 34 31  2  0  0  0  0
M  END
>  <MODEL>
7

>  <REMARK>
 VINA RESULT:      -7.9      3.771      8.190
  Name = 
  4 active torsions:
  status: ('A' for Active; 'I' for Inactive)
    1  A    between atoms: C_3  and  C_13
    2  A    between atoms: C_3  and  N_17
    3  A    between atoms: C_12  and  C_28
    4  A    between atoms: N_17  and  C_29
                            x       y       z     vdW  Elec       q    Type
                         _______ _______ _______ _____ _____    ______ ____

>  <TORSDO>
F 4

$$$$
=
 OpenBabel11062407443D

 34 39  0  0  1  0  0  0  0  0999 V2000
  160.9400  210.6800  155.0880 C   0  0  0  0  0  0  0  0  0  0  0  0
  160.6170  208.3270  155.4160 C   0  0  0  0  0  0  0  0  0  0  0  0
  160.8070  209.2530  152.9900 C   0  0  1  0  0  3  0  0  0  0  0  0
  161.4850  208.1740  151.0200 C   0  0  2  0  0  3  0  0  0  0  0  0
  160.9880  209.7660  157.2600 C   0  0  0  0  0  3  0  0  0  0  0  0
  160.7340  208.5340  156.7540 N   0  0  0  0  0  0  0  0  0  0  0  0
  162.0110  207.0750  152.9450 C   0  0  0  0  0  2  0  0  0  0  0  0
  160.8470  209.3940  154.5190 C   0  0  0  0  0  0  0  0  0  0  0  0
  162.3130  207.0120  150.5320 C   0  0  0  0  0  2  0  0  0  0  0  0
  161.0580  210.8360  156.4300 N   0  0  0  0  0  0  0  0  0  0  0  0
  161.0030  210.6340  152.3140 C   0  0  1  0  0  3  0  0  0  0  0  0
  160.7730  211.8280  154.2520 N   0  0  0  0  0  2  0  0  0  0  0  0
  160.1390  207.0660  154.9620 N   0  0  0  0  0  1  0  0  0  0  0  0
  161.6370  209.4430  150.1890 C   0  0  0  0  0  2  0  0  0  0  0  0
  160.7550  210.5450  150.8000 C   0  0  2  0  0  3  0  0  0  0  0  0
  162.5390  206.2100  151.8040 C   0  0  2  0  0  3  0  0  0  0  0  0
  161.8740  208.4190  152.4070 N   0  0  2  0  0  0  0  0  0  0  0  0
  160.2260  211.6760  152.9660 N   0  0  0  0  0  2  0  0  0  0  0  0
  162.1220  213.0940  148.3530 C   0  0  0  0  0  0  0  0  0  0  0  0
  161.5090  214.2720  148.7940 C   0  0  0  0  0  3  0  0  0  0  0  0
  161.0080  211.8520  150.1140 C   0  0  0  0  0  0  0  0  0  0  0  0
  160.6470  214.2440  149.8940 C   0  0  0  0  0  3  0  0  0  0  0  0
  161.8700  211.8880  149.0120 C   0  0  0  0  0  3  0  0  0  0  0  0
  160.3960  213.0360  150.5520 C   0  0  0  0  0  3  0  0  0  0  0  0
  163.2000  213.1320  146.9760 Cl  0  0  0  0  0  0  0  0  0  0  0  0
  161.8960  204.8920  151.7610 N   0  0  0  0  0  2  0  0  0  0  0  0
  160.8020  204.8660  150.7930 C   0  0  0  0  0  2  0  0  0  0  0  0
  161.2640  204.9370  147.9740 F   0  0  0  0  0  0  0  0  0  0  0  0
  160.9000  203.6380  149.9560 C   0  0  0  0  0  0  0  0  0  0  0  0
  161.1390  203.7280  148.5750 C   0  0  0  0  0  0  0  0  0  0  0  0
  161.1250  201.3100  148.4170 C   0  0  0  0  0  3  0  0  0  0  0  0
  160.8940  201.2190  149.7920 C   0  0  0  0  0  3  0  0  0  0  0  0
  160.7850  202.3820  150.5610 C   0  0  0  0  0  3  0  0  0  0  0  0
  161.2470  202.5630  147.8100 C   0  0  0  0  0  3  0  0  0  0  0  0
  1 10  2  0  0  0  0
  2  6  1  0  0  0  0
  3  8  1  1  0  0  0
  4 14  1  6  0  0  0
  4 17  1  0  0  0  0
  6  5  2  0  0  0  0
  8  1  1  0  0  0  0
  8  2  2  0  0  0  0
  9  4  1  0  0  0  0
  9 16  1  0  0  0  0
 10  5  1  0  0  0  0
 11 18  1  1  0  0  0
 11  3  1  0  0  0  0
 12  1  1  0  0  0  0
 13  2  1  0  0  0  0
 14 15  1  0  0  0  0
 15 21  1  6  0  0  0
 15 11  1  0  0  0  0
 16 26  1  6  0  0  0
 16  7  1  0  0  0  0
 17  7  1  1  0  0  0
 17  3  1  0  0  0  0
 18 12  1  0  0  0  0
 19 20  2  0  0  0  0
 19 23  1  0  0  0  0
 20 22  1  0  0  0  0
 21 24  1  0  0  0  0
 22 24  2  0  0  0  0
 23 21  2  0  0  0  0
 25 19  1  0  0  0  0
 27 26  1  0  0  0  0
 28 30  1  0  0  0  0
 29 33  1  0  0  0  0
 29 27  1  0  0  0  0
 30 29  2  0  0  0  0
 31 32  1  0  0  0  0
 32 33  2  0  0  0  0
 34 31  2  0  0  0  0
 34 30  1  0  0  0  0
M  END
>  <MODEL>
8

>  <REMARK>
 VINA RESULT:      -7.9      3.068      8.095
  Name = 
  4 active torsions:
  status: ('A' for Active; 'I' for Inactive)
    1  A    between atoms: C_3  and  C_13
    2  A    between atoms: C_3  and  N_17
    3  A    between atoms: C_12  and  C_28
    4  A    between atoms: N_17  and  C_29
                            x       y       z     vdW  Elec       q    Type
                         _______ _______ _______ _____ _____    ______ ____

>  <TORSDO>
F 4

$$$$
=
 OpenBabel11062407443D

 34 39  0  0  1  0  0  0  0  0999 V2000
  161.3440  204.9080  151.1550 C   0  0  0  0  0  0  0  0  0  0  0  0
  160.8530  205.6790  148.9390 C   0  0  0  0  0  0  0  0  0  0  0  0
  160.9420  207.4030  150.8890 C   0  0  1  0  0  3  0  0  0  0  0  0
  161.3850  209.7060  150.8370 C   0  0  2  0  0  3  0  0  0  0  0  0
  161.4740  203.4270  149.3270 C   0  0  0  0  0  3  0  0  0  0  0  0
  161.0830  204.4180  148.4880 N   0  0  0  0  0  0  0  0  0  0  0  0
  161.9560  208.5780  148.9430 C   0  0  0  0  0  2  0  0  0  0  0  0
  161.1040  205.9970  150.2920 C   0  0  0  0  0  0  0  0  0  0  0  0
  162.0760  210.7600  150.0100 C   0  0  0  0  0  2  0  0  0  0  0  0
  161.5710  203.6670  150.6570 N   0  0  0  0  0  0  0  0  0  0  0  0
  161.2020  207.3760  152.4160 C   0  0  1  0  0  3  0  0  0  0  0  0
  161.2110  205.0930  152.5670 N   0  0  0  0  0  2  0  0  0  0  0  0
  160.2410  206.6150  148.0590 N   0  0  0  0  0  1  0  0  0  0  0  0
  161.5790  209.8630  152.3410 C   0  0  0  0  0  2  0  0  0  0  0  0
  160.8380  208.7240  153.0590 C   0  0  2  0  0  3  0  0  0  0  0  0
  162.3270  210.0370  148.6960 C   0  0  2  0  0  3  0  0  0  0  0  0
  161.8920  208.4130  150.3860 N   0  0  2  0  0  0  0  0  0  0  0  0
  160.5620  206.2380  153.0590 N   0  0  0  0  0  2  0  0  0  0  0  0
  162.2890  209.7900  156.3920 C   0  0  0  0  0  0  0  0  0  0  0  0
  161.7510  208.8330  157.2590 C   0  0  0  0  0  3  0  0  0  0  0  0
  161.1480  208.7460  154.5250 C   0  0  0  0  0  0  0  0  0  0  0  0
  160.9120  207.8320  156.7620 C   0  0  0  0  0  3  0  0  0  0  0  0
  161.9870  209.7460  155.0290 C   0  0  0  0  0  3  0  0  0  0  0  0
  160.6100  207.7880  155.3980 C   0  0  0  0  0  3  0  0  0  0  0  0
  163.3390  211.0430  157.0160 Cl  0  0  0  0  0  0  0  0  0  0  0  0
  161.5770  210.6200  147.5790 N   0  0  0  0  0  2  0  0  0  0  0  0
  161.3920  212.0590  147.7560 C   0  0  0  0  0  2  0  0  0  0  0  0
  159.3850  213.4430  149.2470 F   0  0  0  0  0  0  0  0  0  0  0  0
  160.0880  212.4760  147.1700 C   0  0  0  0  0  0  0  0  0  0  0  0
  159.1400  213.1630  147.9440 C   0  0  0  0  0  0  0  0  0  0  0  0
  157.6640  213.2850  146.0250 C   0  0  0  0  0  3  0  0  0  0  0  0
  158.6100  212.6070  145.2520 C   0  0  0  0  0  3  0  0  0  0  0  0
  159.8220  212.2050  145.8230 C   0  0  0  0  0  3  0  0  0  0  0  0
  157.9290  213.5630  147.3690 C   0  0  0  0  0  3  0  0  0  0  0  0
  1 12  1  0  0  0  0
  2  8  2  0  0  0  0
  3  8  1  6  0  0  0
  3 11  1  0  0  0  0
  4  9  1  6  0  0  0
  4 14  1  0  0  0  0
  5 10  1  0  0  0  0
  6  2  1  0  0  0  0
  6  5  2  0  0  0  0
  8  1  1  0  0  0  0
 10  1  2  0  0  0  0
 11 18  1  1  0  0  0
 11 15  1  0  0  0  0
 12 18  1  0  0  0  0
 13  2  1  0  0  0  0
 14 15  1  0  0  0  0
 15 21  1  1  0  0  0
 16 26  1  6  0  0  0
 16  7  1  0  0  0  0
 16  9  1  0  0  0  0
 17  7  1  6  0  0  0
 17  4  1  0  0  0  0
 17  3  1  0  0  0  0
 19 25  1  0  0  0  0
 19 20  1  0  0  0  0
 21 23  1  0  0  0  0
 21 24  2  0  0  0  0
 22 20  2  0  0  0  0
 23 19  2  0  0  0  0
 24 22  1  0  0  0  0
 26 27  1  0  0  0  0
 29 27  1  0  0  0  0
 29 30  1  0  0  0  0
 30 28  1  0  0  0  0
 31 34  1  0  0  0  0
 32 33  1  0  0  0  0
 32 31  2  0  0  0  0
 33 29  2  0  0  0  0
 34 30  2  0  0  0  0
M  END
>  <MODEL>
9

>  <REMARK>
 VINA RESULT:      -7.9      3.683      7.593
  Name = 
  4 active torsions:
  status: ('A' for Active; 'I' for Inactive)
    1  A    between atoms: C_3  and  C_13
    2  A    between atoms: C_3  and  N_17
    3  A    between atoms: C_12  and  C_28
    4  A    between atoms: N_17  and  C_29
                            x       y       z     vdW  Elec       q    Type
                         _______ _______ _______ _____ _____    ______ ____

>  <TORSDO>
F 4

$$$$
