=
 OpenBabel11062407593D

 34 38  0  0  1  0  0  0  0  0999 V2000
  160.1320  209.2640  153.3370 C   0  0  1  0  0  3  0  0  0  0  0  0
  161.8390  210.3180  150.2450 N   0  0  0  0  0  2  0  0  0  0  0  0
  161.0350  207.7660  151.3350 C   0  0  0  0  0  2  0  0  0  0  0  0
  161.8810  209.1400  149.4210 C   0  0  0  0  0  3  0  0  0  0  0  0
  160.2680  210.7740  153.5900 C   0  0  0  0  0  2  0  0  0  0  0  0
  161.6050  210.1540  151.6740 C   0  0  1  0  0  3  0  0  0  0  0  0
  161.0710  211.3690  152.4210 C   0  0  1  0  0  3  0  0  0  0  0  0
  161.5170  207.9360  149.9080 C   0  0  0  0  0  0  0  0  0  0  0  0
  160.5570  209.1070  151.8840 C   0  0  2  0  0  3  0  0  0  0  0  0
  160.3560  207.1590  154.7040 N   0  0  0  0  0  0  0  0  0  0  0  0
  161.3770  209.2960  155.5700 C   0  0  0  0  0  0  0  0  0  0  0  0
  160.4120  207.6130  157.1490 C   0  0  0  0  0  2  0  0  0  0  0  0
  160.9710  208.9280  156.8870 N   0  0  0  0  0  2  0  0  0  0  0  0
  160.9510  208.4710  154.3780 C   0  0  2  0  0  3  0  0  0  0  0  0
  159.5790  207.1570  155.9550 C   0  0  0  0  0  2  0  0  0  0  0  0
  162.2630  210.6540  155.3570 S   0  0  0  0  0  0  0  0  0  0  0  0
  161.4250  206.1710  154.7770 C   0  0  0  0  0  2  0  0  0  0  0  0
  161.4170  205.3840  153.6240 O   0  0  0  0  0  1  0  0  0  0  0  0
  159.8790  213.7600  149.7030 C   0  0  0  0  0  0  0  0  0  0  0  0
  158.5870  213.9430  150.0860 N   0  0  0  0  0  0  0  0  0  0  0  0
  160.2110  212.2730  151.5780 C   0  0  0  0  0  0  0  0  0  0  0  0
  158.0760  213.3250  151.1850 C   0  0  0  0  0  3  0  0  0  0  0  0
  160.7160  212.9220  150.4420 C   0  0  0  0  0  3  0  0  0  0  0  0
  158.8800  212.4790  151.9510 C   0  0  0  0  0  3  0  0  0  0  0  0
  160.4020  214.4530  148.4980 C   0  0  0  0  0  1  0  0  0  0  0  0
  161.5810  206.7330  149.0310 C   0  0  0  0  0  2  0  0  0  0  0  0
  160.8040  205.5820  149.6490 C   0  0  0  0  0  2  0  0  0  0  0  0
  160.8250  202.9990  151.1300 O   0  0  0  0  0  1  0  0  0  0  0  0
  161.3270  204.2510  149.1360 C   0  0  1  0  0  3  0  0  0  0  0  0
  160.5560  203.0810  149.7630 C   0  0  1  0  0  3  0  0  0  0  0  0
  160.7910  201.8770  147.5870 C   0  0  0  0  0  2  0  0  0  0  0  0
  161.6480  202.9480  147.0820 N   0  0  0  0  0  2  0  0  0  0  0  0
  161.1600  204.2170  147.6180 C   0  0  0  0  0  2  0  0  0  0  0  0
  160.9450  201.7620  149.1000 C   0  0  0  0  0  2  0  0  0  0  0  0
  1  5  1  1  0  0  0
  1 14  1  0  0  0  0
  4  8  2  0  0  0  0
  4  2  1  0  0  0  0
  6  2  1  6  0  0  0
  6  9  1  0  0  0  0
  6  7  1  0  0  0  0
  7 21  1  6  0  0  0
  7  5  1  0  0  0  0
  8  3  1  0  0  0  0
  9  3  1  1  0  0  0
  9  1  1  0  0  0  0
 10 17  1  0  0  0  0
 10 15  1  0  0  0  0
 11 13  1  0  0  0  0
 13 12  1  0  0  0  0
 14 10  1  0  0  0  0
 14 11  1  1  0  0  0
 15 12  1  0  0  0  0
 16 11  2  0  0  0  0
 18 17  1  0  0  0  0
 19 20  2  0  0  0  0
 19 23  1  0  0  0  0
 20 22  1  0  0  0  0
 21 24  1  0  0  0  0
 22 24  2  0  0  0  0
 23 21  2  0  0  0  0
 25 19  1  0  0  0  0
 26 27  1  0  0  0  0
 26  8  1  0  0  0  0
 29 27  1  1  0  0  0
 29 30  1  0  0  0  0
 30 28  1  1  0  0  0
 31 34  1  0  0  0  0
 32 31  1  0  0  0  0
 32 33  1  0  0  0  0
 33 29  1  0  0  0  0
 34 30  1  0  0  0  0
M  END
>  <MODEL>
1

>  <REMARK>
 VINA RESULT:      -7.4      0.000      0.000
  Name = 
  6 active torsions:
  status: ('A' for Active; 'I' for Inactive)
    1  A    between atoms: N_1  and  C_24
    2  A    between atoms: C_3  and  C_13
    3  A    between atoms: C_3  and  C_17
    4  A    between atoms: C_4  and  C_15
    5  A    between atoms: C_12  and  C_28
    6  A    between atoms: C_17  and  C_29
                            x       y       z     vdW  Elec       q    Type
                         _______ _______ _______ _____ _____    ______ ____

>  <TORSDO>
F 6

$$$$
=
 OpenBabel11062407593D

 34 38  0  0  1  0  0  0  0  0999 V2000
  158.2400  212.1540  153.2110 C   0  0  1  0  0  3  0  0  0  0  0  0
  161.2570  211.3220  151.2640 N   0  0  0  0  0  0  0  0  0  0  0  0
  159.7020  209.9350  153.2650 C   0  0  0  0  0  2  0  0  0  0  0  0
  161.4860  209.9230  151.5090 C   0  0  0  0  0  3  0  0  0  0  0  0
  158.4660  213.4760  152.4610 C   0  0  0  0  0  2  0  0  0  0  0  0
  160.4010  212.0550  152.1890 C   0  0  1  0  0  3  0  0  0  0  0  0
  159.7750  213.3400  151.6650 C   0  0  1  0  0  3  0  0  0  0  0  0
  160.7770  209.2540  152.4420 C   0  0  2  0  0  3  0  0  0  0  0  0
  159.2290  211.2010  152.5570 C   0  0  2  0  0  3  0  0  0  0  0  0
  159.7700  212.7540  155.1220 N   0  0  0  0  0  0  0  0  0  0  0  0
  157.7800  211.2700  155.5650 C   0  0  0  0  0  0  0  0  0  0  0  0
  159.9160  210.9500  156.8280 C   0  0  0  0  0  2  0  0  0  0  0  0
  158.5810  210.5060  156.4640 N   0  0  0  0  0  2  0  0  0  0  0  0
  158.3990  212.3680  154.7310 C   0  0  2  0  0  3  0  0  0  0  0  0
  160.5760  211.6350  155.6340 C   0  0  0  0  0  2  0  0  0  0  0  0
  156.1940  210.9090  155.4040 S   0  0  0  0  0  0  0  0  0  0  0  0
  159.6860  213.8100  156.1220 C   0  0  0  0  0  2  0  0  0  0  0  0
  158.4500  214.4520  156.0280 O   0  0  0  0  0  1  0  0  0  0  0  0
  160.2490  213.3360  147.8840 C   0  0  0  0  0  0  0  0  0  0  0  0
  158.9520  213.3320  147.4730 N   0  0  0  0  0  0  0  0  0  0  0  0
  159.5080  213.3280  150.1830 C   0  0  0  0  0  0  0  0  0  0  0  0
  157.9240  213.3270  148.3640 C   0  0  0  0  0  3  0  0  0  0  0  0
  160.5510  213.3350  149.2460 C   0  0  0  0  0  3  0  0  0  0  0  0
  158.1840  213.3260  149.7350 C   0  0  0  0  0  3  0  0  0  0  0  0
  161.3450  213.3430  146.8810 C   0  0  0  0  0  1  0  0  0  0  0  0
  161.0450  207.8080  152.6780 C   0  0  0  0  0  2  0  0  0  0  0  0
  161.9290  207.2440  151.5770 C   0  0  0  0  0  2  0  0  0  0  0  0
  161.1890  207.6910  148.7280 O   0  0  0  0  0  1  0  0  0  0  0  0
  161.1360  206.2980  150.6910 C   0  0  1  0  0  3  0  0  0  0  0  0
  161.5600  206.4400  149.2220 C   0  0  1  0  0  3  0  0  0  0  0  0
  161.1870  203.9830  148.9710 C   0  0  0  0  0  2  0  0  0  0  0  0
  160.6490  203.9210  150.3280 N   0  0  0  0  0  2  0  0  0  0  0  0
  161.3910  204.8660  151.1590 C   0  0  0  0  0  2  0  0  0  0  0  0
  160.9100  205.3550  148.3660 C   0  0  0  0  0  2  0  0  0  0  0  0
  1  5  1  6  0  0  0
  1 14  1  0  0  0  0
  2  4  2  0  0  0  0
  4  8  1  0  0  0  0
  6  2  1  6  0  0  0
  6  9  1  0  0  0  0
  7 21  1  6  0  0  0
  7  6  1  0  0  0  0
  7  5  1  0  0  0  0
  8 26  1  6  0  0  0
  8  3  1  0  0  0  0
  9  1  1  0  0  0  0
  9  3  1  1  0  0  0
 10 15  1  0  0  0  0
 10 17  1  0  0  0  0
 11 13  1  0  0  0  0
 13 12  1  0  0  0  0
 14 10  1  0  0  0  0
 14 11  1  1  0  0  0
 15 12  1  0  0  0  0
 16 11  2  0  0  0  0
 18 17  1  0  0  0  0
 19 23  1  0  0  0  0
 20 19  2  0  0  0  0
 20 22  1  0  0  0  0
 22 24  2  0  0  0  0
 23 21  2  0  0  0  0
 24 21  1  0  0  0  0
 25 19  1  0  0  0  0
 27 26  1  0  0  0  0
 29 33  1  0  0  0  0
 29 27  1  1  0  0  0
 30 28  1  6  0  0  0
 30 29  1  0  0  0  0
 31 32  1  0  0  0  0
 32 33  1  0  0  0  0
 34 31  1  0  0  0  0
 34 30  1  0  0  0  0
M  END
>  <MODEL>
2

>  <REMARK>
 VINA RESULT:      -7.3      2.923      3.936
  Name = 
  6 active torsions:
  status: ('A' for Active; 'I' for Inactive)
    1  A    between atoms: N_1  and  C_24
    2  A    between atoms: C_3  and  C_13
    3  A    between atoms: C_3  and  C_17
    4  A    between atoms: C_4  and  C_15
    5  A    between atoms: C_12  and  C_28
    6  A    between atoms: C_17  and  C_29
                            x       y       z     vdW  Elec       q    Type
                         _______ _______ _______ _____ _____    ______ ____

>  <TORSDO>
F 6

$$$$
=
 OpenBabel11062407593D

 34 38  0  0  1  0  0  0  0  0999 V2000
  159.3090  210.5560  154.1280 C   0  0  1  0  0  3  0  0  0  0  0  0
  161.6370  210.7160  151.2750 N   0  0  0  0  0  0  0  0  0  0  0  0
  160.7960  208.6190  153.0760 C   0  0  0  0  0  2  0  0  0  0  0  0
  161.9760  209.3470  150.9920 C   0  0  0  0  0  3  0  0  0  0  0  0
  159.2570  212.0570  153.8050 C   0  0  0  0  0  2  0  0  0  0  0  0
  161.0710  211.0320  152.5810 C   0  0  1  0  0  3  0  0  0  0  0  0
  160.2730  212.3250  152.6820 C   0  0  1  0  0  3  0  0  0  0  0  0
  161.6000  208.3510  151.8200 C   0  0  2  0  0  3  0  0  0  0  0  0
  160.0910  209.9680  152.9630 C   0  0  2  0  0  3  0  0  0  0  0  0
  160.9870  211.2820  155.8630 N   0  0  0  0  0  0  0  0  0  0  0  0
  160.2100  208.8830  155.8400 C   0  0  0  0  0  0  0  0  0  0  0  0
  162.5550  209.4580  156.4950 C   0  0  0  0  0  2  0  0  0  0  0  0
  161.5390  208.4750  156.1580 N   0  0  0  0  0  2  0  0  0  0  0  0
  159.9060  210.3310  155.5340 C   0  0  2  0  0  3  0  0  0  0  0  0
  162.3380  210.7280  155.6770 C   0  0  0  0  0  2  0  0  0  0  0  0
  159.0270  207.7580  155.7540 S   0  0  0  0  0  0  0  0  0  0  0  0
  160.8120  211.7250  157.2400 C   0  0  0  0  0  2  0  0  0  0  0  0
  160.4400  213.0700  157.2590 O   0  0  0  0  0  1  0  0  0  0  0  0
  159.6010  213.3500  149.0740 C   0  0  0  0  0  0  0  0  0  0  0  0
  158.2450  213.4530  149.0960 N   0  0  0  0  0  0  0  0  0  0  0  0
  159.5780  212.7150  151.4050 C   0  0  0  0  0  0  0  0  0  0  0  0
  157.5310  213.2030  150.2260 C   0  0  0  0  0  3  0  0  0  0  0  0
  160.2930  212.9800  150.2280 C   0  0  0  0  0  3  0  0  0  0  0  0
  158.1860  212.8300  151.4010 C   0  0  0  0  0  3  0  0  0  0  0  0
  160.3470  213.6330  147.8210 C   0  0  0  0  0  1  0  0  0  0  0  0
  161.9760  206.9450  151.5020 C   0  0  0  0  0  2  0  0  0  0  0  0
  160.8650  206.2610  150.7200 C   0  0  0  0  0  2  0  0  0  0  0  0
  160.8630  203.7220  152.2750 O   0  0  0  0  0  1  0  0  0  0  0  0
  161.3240  204.8990  150.2260 C   0  0  1  0  0  3  0  0  0  0  0  0
  160.5410  203.7740  150.9180 C   0  0  1  0  0  3  0  0  0  0  0  0
  160.6480  202.5020  148.7710 C   0  0  0  0  0  2  0  0  0  0  0  0
  161.5180  203.5280  148.2010 N   0  0  0  0  0  2  0  0  0  0  0  0
  161.0940  204.8280  148.7180 C   0  0  0  0  0  2  0  0  0  0  0  0
  160.8600  202.4240  150.2800 C   0  0  0  0  0  2  0  0  0  0  0  0
  1  5  1  6  0  0  0
  1 14  1  0  0  0  0
  4  2  2  0  0  0  0
  4  8  1  0  0  0  0
  6  2  1  6  0  0  0
  6  7  1  0  0  0  0
  6  9  1  0  0  0  0
  7 21  1  6  0  0  0
  7  5  1  0  0  0  0
  8 26  1  6  0  0  0
  8  3  1  0  0  0  0
  9  3  1  1  0  0  0
  9  1  1  0  0  0  0
 10 17  1  0  0  0  0
 11 13  1  0  0  0  0
 13 12  1  0  0  0  0
 14 11  1  6  0  0  0
 14 10  1  0  0  0  0
 15 10  1  0  0  0  0
 15 12  1  0  0  0  0
 16 11  2  0  0  0  0
 17 18  1  0  0  0  0
 19 20  2  0  0  0  0
 19 23  1  0  0  0  0
 20 22  1  0  0  0  0
 22 24  2  0  0  0  0
 23 21  2  0  0  0  0
 24 21  1  0  0  0  0
 25 19  1  0  0  0  0
 27 26  1  0  0  0  0
 29 27  1  1  0  0  0
 29 30  1  0  0  0  0
 30 28  1  1  0  0  0
 31 34  1  0  0  0  0
 32 33  1  0  0  0  0
 32 31  1  0  0  0  0
 33 29  1  0  0  0  0
 34 30  1  0  0  0  0
M  END
>  <MODEL>
3

>  <REMARK>
 VINA RESULT:      -7.0      2.075      2.627
  Name = 
  6 active torsions:
  status: ('A' for Active; 'I' for Inactive)
    1  A    between atoms: N_1  and  C_24
    2  A    between atoms: C_3  and  C_13
    3  A    between atoms: C_3  and  C_17
    4  A    between atoms: C_4  and  C_15
    5  A    between atoms: C_12  and  C_28
    6  A    between atoms: C_17  and  C_29
                            x       y       z     vdW  Elec       q    Type
                         _______ _______ _______ _____ _____    ______ ____

>  <TORSDO>
F 6

$$$$
=
 OpenBabel11062407593D

 34 38  0  0  1  0  0  0  0  0999 V2000
  159.1990  210.6230  154.0290 C   0  0  1  0  0  3  0  0  0  0  0  0
  161.5730  211.0850  151.2480 N   0  0  0  0  0  0  0  0  0  0  0  0
  160.8390  208.8480  152.9220 C   0  0  0  0  0  2  0  0  0  0  0  0
  162.0120  209.7580  150.9070 C   0  0  0  0  0  3  0  0  0  0  0  0
  159.0500  212.1310  153.7780 C   0  0  0  0  0  2  0  0  0  0  0  0
  160.9570  211.2960  152.5520 C   0  0  1  0  0  3  0  0  0  0  0  0
  160.0700  212.5250  152.6960 C   0  0  1  0  0  3  0  0  0  0  0  0
  161.6880  208.6980  151.6750 C   0  0  2  0  0  3  0  0  0  0  0  0
  160.0460  210.1490  152.8570 C   0  0  2  0  0  3  0  0  0  0  0  0
  160.8300  211.3350  155.8130 N   0  0  0  0  0  0  0  0  0  0  0  0
  160.1140  208.9200  155.7030 C   0  0  0  0  0  0  0  0  0  0  0  0
  162.4330  209.5310  156.4150 C   0  0  0  0  0  2  0  0  0  0  0  0
  161.4470  208.5350  156.0300 N   0  0  0  0  0  2  0  0  0  0  0  0
  159.7780  210.3690  155.4370 C   0  0  2  0  0  3  0  0  0  0  0  0
  162.1970  210.8200  155.6330 C   0  0  0  0  0  2  0  0  0  0  0  0
  158.9610  207.7690  155.5620 S   0  0  0  0  0  0  0  0  0  0  0  0
  160.6220  211.7300  157.2000 C   0  0  0  0  0  2  0  0  0  0  0  0
  160.2970  213.0860  157.2610 O   0  0  0  0  0  1  0  0  0  0  0  0
  159.4090  213.6940  149.1300 C   0  0  0  0  0  0  0  0  0  0  0  0
  158.0490  213.6900  149.1180 N   0  0  0  0  0  0  0  0  0  0  0  0
  159.3780  212.9300  151.4220 C   0  0  0  0  0  0  0  0  0  0  0  0
  157.3290  213.3220  150.2120 C   0  0  0  0  0  3  0  0  0  0  0  0
  160.0990  213.3150  150.2830 C   0  0  0  0  0  3  0  0  0  0  0  0
  157.9820  212.9360  151.3840 C   0  0  0  0  0  3  0  0  0  0  0  0
  160.1610  214.1050  147.9160 C   0  0  0  0  0  1  0  0  0  0  0  0
  162.1660  207.3390  151.2990 C   0  0  0  0  0  2  0  0  0  0  0  0
  161.4210  206.8310  150.0750 C   0  0  0  0  0  2  0  0  0  0  0  0
  160.8300  204.7060  148.0750 O   0  0  0  0  0  1  0  0  0  0  0  0
  160.7970  205.4750  150.3570 C   0  0  1  0  0  3  0  0  0  0  0  0
  161.3010  204.4230  149.3580 C   0  0  1  0  0  3  0  0  0  0  0  0
  161.2170  202.7520  151.2130 C   0  0  0  0  0  2  0  0  0  0  0  0
  160.5990  203.7460  152.0870 N   0  0  0  0  0  2  0  0  0  0  0  0
  161.1750  205.0530  151.7760 C   0  0  0  0  0  2  0  0  0  0  0  0
  160.8320  203.0270  149.7620 C   0  0  0  0  0  2  0  0  0  0  0  0
  1  5  1  6  0  0  0
  1 14  1  0  0  0  0
  4  2  2  0  0  0  0
  4  8  1  0  0  0  0
  6  2  1  6  0  0  0
  6  7  1  0  0  0  0
  6  9  1  0  0  0  0
  7 21  1  6  0  0  0
  7  5  1  0  0  0  0
  8 26  1  6  0  0  0
  8  3  1  0  0  0  0
  9  3  1  1  0  0  0
  9  1  1  0  0  0  0
 10 17  1  0  0  0  0
 11 13  1  0  0  0  0
 13 12  1  0  0  0  0
 14 11  1  6  0  0  0
 14 10  1  0  0  0  0
 15 10  1  0  0  0  0
 15 12  1  0  0  0  0
 16 11  2  0  0  0  0
 17 18  1  0  0  0  0
 19 23  1  0  0  0  0
 20 19  2  0  0  0  0
 20 22  1  0  0  0  0
 22 24  2  0  0  0  0
 23 21  2  0  0  0  0
 24 21  1  0  0  0  0
 25 19  1  0  0  0  0
 27 26  1  0  0  0  0
 29 27  1  6  0  0  0
 29 33  1  0  0  0  0
 30 28  1  6  0  0  0
 30 34  1  0  0  0  0
 30 29  1  0  0  0  0
 31 32  1  0  0  0  0
 33 32  1  0  0  0  0
 34 31  1  0  0  0  0
M  END
>  <MODEL>
4

>  <REMARK>
 VINA RESULT:      -6.8      2.298      3.002
  Name = 
  6 active torsions:
  status: ('A' for Active; 'I' for Inactive)
    1  A    between atoms: N_1  and  C_24
    2  A    between atoms: C_3  and  C_13
    3  A    between atoms: C_3  and  C_17
    4  A    between atoms: C_4  and  C_15
    5  A    between atoms: C_12  and  C_28
    6  A    between atoms: C_17  and  C_29
                            x       y       z     vdW  Elec       q    Type
                         _______ _______ _______ _____ _____    ______ ____

>  <TORSDO>
F 6

$$$$
=
 OpenBabel11062407593D

 34 38  0  0  1  0  0  0  0  0999 V2000
  159.4950  210.6590  153.5920 C   0  0  1  0  0  3  0  0  0  0  0  0
  161.6580  210.9960  150.6270 N   0  0  0  0  0  0  0  0  0  0  0  0
  160.9670  208.8060  152.3810 C   0  0  0  0  0  2  0  0  0  0  0  0
  162.0140  209.6490  150.2690 C   0  0  0  0  0  3  0  0  0  0  0  0
  159.3890  212.1700  153.3360 C   0  0  0  0  0  2  0  0  0  0  0  0
  161.1570  211.2440  151.9740 C   0  0  1  0  0  3  0  0  0  0  0  0
  160.3360  212.5100  152.1720 C   0  0  1  0  0  3  0  0  0  0  0  0
  161.7080  208.6100  151.0730 C   0  0  2  0  0  3  0  0  0  0  0  0
  160.2260  210.1390  152.3630 C   0  0  2  0  0  3  0  0  0  0  0  0
  161.1610  209.2960  154.9040 N   0  0  0  0  0  0  0  0  0  0  0  0
  159.2040  210.3310  156.1110 C   0  0  0  0  0  0  0  0  0  0  0  0
  160.1210  208.1170  156.8310 C   0  0  0  0  0  2  0  0  0  0  0  0
  159.1040  209.1530  156.9080 N   0  0  0  0  0  2  0  0  0  0  0  0
  160.1720  210.3930  154.9530 C   0  0  2  0  0  3  0  0  0  0  0  0
  160.6440  208.0110  155.4010 C   0  0  0  0  0  2  0  0  0  0  0  0
  158.2170  211.5960  156.4270 S   0  0  0  0  0  0  0  0  0  0  0  0
  162.3340  209.6950  155.6710 C   0  0  0  0  0  2  0  0  0  0  0  0
  162.5000  211.0780  155.5930 O   0  0  0  0  0  1  0  0  0  0  0  0
  159.4450  213.7230  148.6720 C   0  0  0  0  0  0  0  0  0  0  0  0
  158.0870  213.7260  148.7500 N   0  0  0  0  0  0  0  0  0  0  0  0
  159.5630  212.9330  150.9520 C   0  0  0  0  0  0  0  0  0  0  0  0
  157.4390  213.3490  149.8860 C   0  0  0  0  0  3  0  0  0  0  0  0
  160.2080  213.3280  149.7710 C   0  0  0  0  0  3  0  0  0  0  0  0
  158.1670  212.9470  151.0070 C   0  0  0  0  0  3  0  0  0  0  0  0
  160.1170  214.1440  147.4150 C   0  0  0  0  0  1  0  0  0  0  0  0
  162.0990  207.2280  150.6770 C   0  0  0  0  0  2  0  0  0  0  0  0
  160.8780  206.3230  150.6290 C   0  0  0  0  0  2  0  0  0  0  0  0
  160.9420  203.9210  152.3870 O   0  0  0  0  0  1  0  0  0  0  0  0
  161.2760  204.9150  150.2200 C   0  0  1  0  0  3  0  0  0  0  0  0
  160.5250  203.8690  151.0560 C   0  0  1  0  0  3  0  0  0  0  0  0
  160.4560  202.4230  149.0210 C   0  0  0  0  0  2  0  0  0  0  0  0
  161.3010  203.3780  148.3070 N   0  0  0  0  0  2  0  0  0  0  0  0
  160.9380  204.7250  148.7420 C   0  0  0  0  0  2  0  0  0  0  0  0
  160.7740  202.4640  150.5120 C   0  0  0  0  0  2  0  0  0  0  0  0
  1  5  1  6  0  0  0
  1 14  1  0  0  0  0
  4  2  2  0  0  0  0
  4  8  1  0  0  0  0
  6  2  1  6  0  0  0
  6  7  1  0  0  0  0
  6  9  1  0  0  0  0
  7 21  1  6  0  0  0
  7  5  1  0  0  0  0
  8 26  1  6  0  0  0
  8  3  1  0  0  0  0
  9  3  1  1  0  0  0
  9  1  1  0  0  0  0
 10 14  1  0  0  0  0
 10 15  1  0  0  0  0
 10 17  1  0  0  0  0
 11 16  2  0  0  0  0
 11 13  1  0  0  0  0
 12 13  1  0  0  0  0
 14 11  1  1  0  0  0
 15 12  1  0  0  0  0
 18 17  1  0  0  0  0
 19 20  2  0  0  0  0
 19 23  1  0  0  0  0
 20 22  1  0  0  0  0
 21 24  1  0  0  0  0
 22 24  2  0  0  0  0
 23 21  2  0  0  0  0
 25 19  1  0  0  0  0
 27 26  1  0  0  0  0
 29 27  1  1  0  0  0
 29 30  1  0  0  0  0
 30 28  1  1  0  0  0
 31 34  1  0  0  0  0
 32 33  1  0  0  0  0
 32 31  1  0  0  0  0
 33 29  1  0  0  0  0
 34 30  1  0  0  0  0
M  END
>  <MODEL>
5

>  <REMARK>
 VINA RESULT:      -6.7      1.749      2.012
  Name = 
  6 active torsions:
  status: ('A' for Active; 'I' for Inactive)
    1  A    between atoms: N_1  and  C_24
    2  A    between atoms: C_3  and  C_13
    3  A    between atoms: C_3  and  C_17
    4  A    between atoms: C_4  and  C_15
    5  A    between atoms: C_12  and  C_28
    6  A    between atoms: C_17  and  C_29
                            x       y       z     vdW  Elec       q    Type
                         _______ _______ _______ _____ _____    ______ ____

>  <TORSDO>
F 6

$$$$
=
 OpenBabel11062407593D

 34 38  0  0  1  0  0  0  0  0999 V2000
  160.1280  209.2550  153.2480 C   0  0  1  0  0  3  0  0  0  0  0  0
  161.9340  210.9010  150.4890 N   0  0  0  0  0  2  0  0  0  0  0  0
  161.4070  208.1500  151.1980 C   0  0  0  0  0  2  0  0  0  0  0  0
  162.2160  209.8510  149.5480 C   0  0  0  0  0  3  0  0  0  0  0  0
  160.0240  210.7260  153.6810 C   0  0  0  0  0  2  0  0  0  0  0  0
  161.6000  210.5310  151.8590 C   0  0  1  0  0  3  0  0  0  0  0  0
  160.8350  211.5630  152.6760 C   0  0  1  0  0  3  0  0  0  0  0  0
  161.9850  208.5580  149.8560 C   0  0  0  0  0  0  0  0  0  0  0  0
  160.6980  209.3370  151.8400 C   0  0  2  0  0  3  0  0  0  0  0  0
  160.4390  207.0850  154.4910 N   0  0  0  0  0  0  0  0  0  0  0  0
  161.2740  209.2240  155.5340 C   0  0  0  0  0  0  0  0  0  0  0  0
  160.3630  207.3810  156.9600 C   0  0  0  0  0  2  0  0  0  0  0  0
  160.8410  208.7450  156.8050 N   0  0  0  0  0  2  0  0  0  0  0  0
  160.9550  208.4520  154.2740 C   0  0  2  0  0  3  0  0  0  0  0  0
  159.6140  206.9500  155.7020 C   0  0  0  0  0  2  0  0  0  0  0  0
  162.0720  210.6480  155.4450 S   0  0  0  0  0  0  0  0  0  0  0  0
  161.5690  206.1670  154.5510 C   0  0  0  0  0  2  0  0  0  0  0  0
  162.1270  206.0230  153.2790 O   0  0  0  0  0  1  0  0  0  0  0  0
  157.8390  213.5910  151.4780 C   0  0  0  0  0  0  0  0  0  0  0  0
  158.3120  214.0480  150.2880 N   0  0  0  0  0  0  0  0  0  0  0  0
  159.9330  212.4440  151.8550 C   0  0  0  0  0  0  0  0  0  0  0  0
  159.5610  213.7330  149.8500 C   0  0  0  0  0  3  0  0  0  0  0  0
  158.6400  212.7800  152.2840 C   0  0  0  0  0  3  0  0  0  0  0  0
  160.3930  212.9250  150.6270 C   0  0  0  0  0  3  0  0  0  0  0  0
  156.4690  213.9540  151.9220 C   0  0  0  0  0  1  0  0  0  0  0  0
  162.2970  207.4930  148.8620 C   0  0  0  0  0  2  0  0  0  0  0  0
  161.1410  207.3170  147.8910 C   0  0  0  0  0  2  0  0  0  0  0  0
  161.3560  205.7950  145.3410 O   0  0  0  0  0  1  0  0  0  0  0  0
  160.8350  205.8410  147.6910 C   0  0  1  0  0  3  0  0  0  0  0  0
  161.7080  205.2490  146.5750 C   0  0  1  0  0  3  0  0  0  0  0  0
  161.7900  203.1270  147.8910 C   0  0  0  0  0  2  0  0  0  0  0  0
  160.8380  203.6800  148.8510 N   0  0  0  0  0  2  0  0  0  0  0  0
  161.1140  205.1070  149.0010 C   0  0  0  0  0  2  0  0  0  0  0  0
  161.5450  203.7320  146.5120 C   0  0  0  0  0  2  0  0  0  0  0  0
  1  5  1  1  0  0  0
  1 14  1  0  0  0  0
  4  8  2  0  0  0  0
  4  2  1  0  0  0  0
  6  2  1  6  0  0  0
  6  7  1  0  0  0  0
  7 21  1  6  0  0  0
  7  5  1  0  0  0  0
  8  3  1  0  0  0  0
  9  3  1  1  0  0  0
  9  6  1  0  0  0  0
  9  1  1  0  0  0  0
 10 17  1  0  0  0  0
 10 15  1  0  0  0  0
 11 13  1  0  0  0  0
 13 12  1  0  0  0  0
 14 10  1  0  0  0  0
 14 11  1  1  0  0  0
 15 12  1  0  0  0  0
 16 11  2  0  0  0  0
 18 17  1  0  0  0  0
 19 25  1  0  0  0  0
 19 23  1  0  0  0  0
 20 19  2  0  0  0  0
 21 23  2  0  0  0  0
 22 20  1  0  0  0  0
 22 24  2  0  0  0  0
 24 21  1  0  0  0  0
 26  8  1  0  0  0  0
 27 26  1  0  0  0  0
 29 27  1  1  0  0  0
 29 33  1  0  0  0  0
 30 28  1  6  0  0  0
 30 29  1  0  0  0  0
 31 32  1  0  0  0  0
 32 33  1  0  0  0  0
 34 30  1  0  0  0  0
 34 31  1  0  0  0  0
M  END
>  <MODEL>
6

>  <REMARK>
 VINA RESULT:      -6.6      1.399      2.071
  Name = 
  6 active torsions:
  status: ('A' for Active; 'I' for Inactive)
    1  A    between atoms: N_1  and  C_24
    2  A    between atoms: C_3  and  C_13
    3  A    between atoms: C_3  and  C_17
    4  A    between atoms: C_4  and  C_15
    5  A    between atoms: C_12  and  C_28
    6  A    between atoms: C_17  and  C_29
                            x       y       z     vdW  Elec       q    Type
                         _______ _______ _______ _____ _____    ______ ____

>  <TORSDO>
F 6

$$$$
=
 OpenBabel11062407593D

 34 38  0  0  1  0  0  0  0  0999 V2000
  160.8310  205.9700  150.4740 C   0  0  1  0  0  3  0  0  0  0  0  0
  162.5260  209.0180  151.6640 N   0  0  0  0  0  2  0  0  0  0  0  0
  161.5090  208.1440  149.1040 C   0  0  0  0  0  2  0  0  0  0  0  0
  162.4220  209.9530  150.5750 C   0  0  0  0  0  3  0  0  0  0  0  0
  161.1260  205.5790  151.9300 C   0  0  0  0  0  2  0  0  0  0  0  0
  162.3270  207.6030  151.3810 C   0  0  1  0  0  3  0  0  0  0  0  0
  161.9440  206.7200  152.5600 C   0  0  1  0  0  3  0  0  0  0  0  0
  161.9560  209.5690  149.3700 C   0  0  0  0  0  0  0  0  0  0  0  0
  161.1880  207.4480  150.4230 C   0  0  2  0  0  3  0  0  0  0  0  0
  161.5440  205.5030  148.1030 N   0  0  0  0  0  0  0  0  0  0  0  0
  161.3190  203.5770  149.7150 C   0  0  0  0  0  0  0  0  0  0  0  0
  160.7660  203.2840  147.2920 C   0  0  0  0  0  2  0  0  0  0  0  0
  160.7740  202.7890  148.6580 N   0  0  0  0  0  2  0  0  0  0  0  0
  161.6020  205.0470  149.5060 C   0  0  2  0  0  3  0  0  0  0  0  0
  160.5420  204.7940  147.2910 C   0  0  0  0  0  2  0  0  0  0  0  0
  161.5810  202.8880  151.1740 S   0  0  0  0  0  0  0  0  0  0  0  0
  162.8670  205.3510  147.5110 C   0  0  0  0  0  2  0  0  0  0  0  0
  162.7990  205.5870  146.1370 O   0  0  0  0  0  1  0  0  0  0  0  0
  160.1040  209.4100  154.5360 C   0  0  0  0  0  0  0  0  0  0  0  0
  159.7090  208.6910  155.6210 N   0  0  0  0  0  0  0  0  0  0  0  0
  161.1490  207.4320  153.6230 C   0  0  0  0  0  0  0  0  0  0  0  0
  160.0060  207.3690  155.7460 C   0  0  0  0  0  3  0  0  0  0  0  0
  160.8330  208.7940  153.5170 C   0  0  0  0  0  3  0  0  0  0  0  0
  160.7320  206.7170  154.7480 C   0  0  0  0  0  3  0  0  0  0  0  0
  159.7630  210.8520  154.4360 C   0  0  0  0  0  1  0  0  0  0  0  0
  161.8690  210.5590  148.2600 C   0  0  0  0  0  2  0  0  0  0  0  0
  162.6680  211.8080  148.5970 C   0  0  0  0  0  2  0  0  0  0  0  0
  162.4940  213.0610  145.9020 O   0  0  0  0  0  1  0  0  0  0  0  0
  161.8840  213.0570  148.2310 C   0  0  1  0  0  3  0  0  0  0  0  0
  161.4060  212.9940  146.7730 C   0  0  1  0  0  3  0  0  0  0  0  0
  159.3290  214.1770  147.4970 C   0  0  0  0  0  2  0  0  0  0  0  0
  159.8870  214.3470  148.8370 N   0  0  0  0  0  2  0  0  0  0  0  0
  160.6750  213.1590  149.1590 C   0  0  0  0  0  2  0  0  0  0  0  0
  160.4540  214.1480  146.4680 C   0  0  0  0  0  2  0  0  0  0  0  0
  1  5  1  1  0  0  0
  3  8  1  0  0  0  0
  4  2  1  0  0  0  0
  5  7  1  0  0  0  0
  6  2  1  1  0  0  0
  6  7  1  0  0  0  0
  7 21  1  1  0  0  0
  8  4  2  0  0  0  0
  9  3  1  6  0  0  0
  9  1  1  0  0  0  0
  9  6  1  0  0  0  0
 10 14  1  0  0  0  0
 11 16  2  0  0  0  0
 12 13  1  0  0  0  0
 13 11  1  0  0  0  0
 14 11  1  6  0  0  0
 14  1  1  0  0  0  0
 15 12  1  0  0  0  0
 15 10  1  0  0  0  0
 17 10  1  0  0  0  0
 18 17  1  0  0  0  0
 19 20  1  0  0  0  0
 20 22  2  0  0  0  0
 21 24  2  0  0  0  0
 23 21  1  0  0  0  0
 23 19  2  0  0  0  0
 24 22  1  0  0  0  0
 25 19  1  0  0  0  0
 26 27  1  0  0  0  0
 26  8  1  0  0  0  0
 29 27  1  1  0  0  0
 29 33  1  0  0  0  0
 30 28  1  6  0  0  0
 30 29  1  0  0  0  0
 31 32  1  0  0  0  0
 32 33  1  0  0  0  0
 34 30  1  0  0  0  0
 34 31  1  0  0  0  0
M  END
>  <MODEL>
7

>  <REMARK>
 VINA RESULT:      -6.5      3.036      7.601
  Name = 
  6 active torsions:
  status: ('A' for Active; 'I' for Inactive)
    1  A    between atoms: N_1  and  C_24
    2  A    between atoms: C_3  and  C_13
    3  A    between atoms: C_3  and  C_17
    4  A    between atoms: C_4  and  C_15
    5  A    between atoms: C_12  and  C_28
    6  A    between atoms: C_17  and  C_29
                            x       y       z     vdW  Elec       q    Type
                         _______ _______ _______ _____ _____    ______ ____

>  <TORSDO>
F 6

$$$$
=
 OpenBabel11062407593D

 34 38  0  0  1  0  0  0  0  0999 V2000
  159.4970  211.0090  153.4240 C   0  0  1  0  0  3  0  0  0  0  0  0
  161.6640  211.0010  150.4440 N   0  0  0  0  0  0  0  0  0  0  0  0
  160.9430  209.0190  152.4180 C   0  0  0  0  0  2  0  0  0  0  0  0
  162.0010  209.6200  150.2300 C   0  0  0  0  0  3  0  0  0  0  0  0
  159.4110  212.4860  153.0100 C   0  0  0  0  0  2  0  0  0  0  0  0
  161.1660  211.3970  151.7550 C   0  0  1  0  0  3  0  0  0  0  0  0
  160.3620  212.6890  151.8180 C   0  0  1  0  0  3  0  0  0  0  0  0
  161.6810  208.6760  151.1390 C   0  0  2  0  0  3  0  0  0  0  0  0
  160.2200  210.3530  152.2580 C   0  0  2  0  0  3  0  0  0  0  0  0
  161.4220  210.0960  154.7700 N   0  0  0  0  0  0  0  0  0  0  0  0
  159.2140  210.5080  155.9160 C   0  0  0  0  0  0  0  0  0  0  0  0
  160.6740  208.5980  156.6100 C   0  0  0  0  0  2  0  0  0  0  0  0
  159.4110  209.3140  156.6710 N   0  0  0  0  0  2  0  0  0  0  0  0
  160.1710  210.8800  154.8070 C   0  0  2  0  0  3  0  0  0  0  0  0
  161.2580  208.6990  155.2030 C   0  0  0  0  0  2  0  0  0  0  0  0
  157.9090  211.4430  156.2250 S   0  0  0  0  0  0  0  0  0  0  0  0
  162.4130  210.7650  155.6030 C   0  0  0  0  0  2  0  0  0  0  0  0
  162.9650  209.8530  156.5040 O   0  0  0  0  0  1  0  0  0  0  0  0
  159.4870  213.5700  148.2160 C   0  0  0  0  0  0  0  0  0  0  0  0
  158.1280  213.5640  148.2840 N   0  0  0  0  0  0  0  0  0  0  0  0
  159.5950  212.9910  150.5590 C   0  0  0  0  0  0  0  0  0  0  0  0
  157.4760  213.2830  149.4440 C   0  0  0  0  0  3  0  0  0  0  0  0
  160.2450  213.2850  149.3520 C   0  0  0  0  0  3  0  0  0  0  0  0
  158.1980  212.9920  150.6020 C   0  0  0  0  0  3  0  0  0  0  0  0
  160.1640  213.8830  146.9310 C   0  0  0  0  0  1  0  0  0  0  0  0
  162.0530  207.2550  150.8920 C   0  0  0  0  0  2  0  0  0  0  0  0
  160.8560  206.3450  151.1150 C   0  0  0  0  0  2  0  0  0  0  0  0
  160.7840  207.2230  148.2710 O   0  0  0  0  0  1  0  0  0  0  0  0
  160.6280  205.4580  149.9020 C   0  0  1  0  0  3  0  0  0  0  0  0
  161.3590  206.0160  148.6730 C   0  0  1  0  0  3  0  0  0  0  0  0
  161.7910  203.6580  147.9710 C   0  0  0  0  0  2  0  0  0  0  0  0
  160.9610  203.1740  149.0720 N   0  0  0  0  0  2  0  0  0  0  0  0
  161.1550  204.0600  150.2180 C   0  0  0  0  0  2  0  0  0  0  0  0
  161.2950  205.0260  147.5120 C   0  0  0  0  0  2  0  0  0  0  0  0
  1  5  1  6  0  0  0
  1 14  1  0  0  0  0
  4  2  2  0  0  0  0
  4  8  1  0  0  0  0
  6  2  1  6  0  0  0
  6  7  1  0  0  0  0
  6  9  1  0  0  0  0
  7 21  1  6  0  0  0
  7  5  1  0  0  0  0
  8 26  1  6  0  0  0
  8  3  1  0  0  0  0
  9  3  1  1  0  0  0
  9  1  1  0  0  0  0
 10 14  1  0  0  0  0
 10 15  1  0  0  0  0
 10 17  1  0  0  0  0
 11 16  2  0  0  0  0
 11 13  1  0  0  0  0
 12 13  1  0  0  0  0
 14 11  1  1  0  0  0
 15 12  1  0  0  0  0
 17 18  1  0  0  0  0
 19 20  2  0  0  0  0
 19 23  1  0  0  0  0
 20 22  1  0  0  0  0
 21 24  1  0  0  0  0
 22 24  2  0  0  0  0
 23 21  2  0  0  0  0
 25 19  1  0  0  0  0
 26 27  1  0  0  0  0
 29 33  1  0  0  0  0
 29 27  1  1  0  0  0
 30 28  1  6  0  0  0
 30 29  1  0  0  0  0
 31 32  1  0  0  0  0
 32 33  1  0  0  0  0
 34 31  1  0  0  0  0
 34 30  1  0  0  0  0
M  END
>  <MODEL>
8

>  <REMARK>
 VINA RESULT:      -5.8      2.023      2.537
  Name = 
  6 active torsions:
  status: ('A' for Active; 'I' for Inactive)
    1  A    between atoms: N_1  and  C_24
    2  A    between atoms: C_3  and  C_13
    3  A    between atoms: C_3  and  C_17
    4  A    between atoms: C_4  and  C_15
    5  A    between atoms: C_12  and  C_28
    6  A    between atoms: C_17  and  C_29
                            x       y       z     vdW  Elec       q    Type
                         _______ _______ _______ _____ _____    ______ ____

>  <TORSDO>
F 6

$$$$
=
 OpenBabel11062407593D

 34 38  0  0  1  0  0  0  0  0999 V2000
  161.7650  207.4600  152.9210 C   0  0  1  0  0  3  0  0  0  0  0  0
  160.5190  206.9550  149.4900 N   0  0  0  0  0  2  0  0  0  0  0  0
  162.1270  208.9840  150.7730 C   0  0  0  0  0  2  0  0  0  0  0  0
  161.2070  207.9360  148.6940 C   0  0  0  0  0  3  0  0  0  0  0  0
  160.9030  206.2040  153.1160 C   0  0  0  0  0  2  0  0  0  0  0  0
  160.4700  207.1470  150.9340 C   0  0  1  0  0  3  0  0  0  0  0  0
  160.2060  205.9070  151.7780 C   0  0  1  0  0  3  0  0  0  0  0  0
  161.9590  208.8960  149.2690 C   0  0  0  0  0  0  0  0  0  0  0  0
  161.8010  207.6360  151.4100 C   0  0  2  0  0  3  0  0  0  0  0  0
  161.8310  209.9290  153.4200 N   0  0  0  0  0  0  0  0  0  0  0  0
  161.0290  208.3410  155.2060 C   0  0  0  0  0  0  0  0  0  0  0  0
  162.3030  210.4060  155.8150 C   0  0  0  0  0  2  0  0  0  0  0  0
  161.7060  209.1320  156.1800 N   0  0  0  0  0  2  0  0  0  0  0  0
  161.1860  208.6380  153.7330 C   0  0  2  0  0  3  0  0  0  0  0  0
  162.8580  210.3290  154.3950 C   0  0  0  0  0  2  0  0  0  0  0  0
  160.1240  207.0700  155.6970 S   0  0  0  0  0  0  0  0  0  0  0  0
  160.7990  210.9540  153.3310 C   0  0  0  0  0  2  0  0  0  0  0  0
  159.6500  210.4170  152.7480 O   0  0  0  0  0  1  0  0  0  0  0  0
  161.2050  203.2200  149.2670 C   0  0  0  0  0  0  0  0  0  0  0  0
  161.6690  202.2570  150.1090 N   0  0  0  0  0  0  0  0  0  0  0  0
  160.7250  204.6330  151.1680 C   0  0  0  0  0  0  0  0  0  0  0  0
  161.6780  202.4360  151.4580 C   0  0  0  0  0  3  0  0  0  0  0  0
  160.7240  204.4250  149.7810 C   0  0  0  0  0  3  0  0  0  0  0  0
  161.2050  203.6270  152.0100 C   0  0  0  0  0  3  0  0  0  0  0  0
  161.2090  202.9880  147.8000 C   0  0  0  0  0  1  0  0  0  0  0  0
  162.6510  209.9030  148.4170 C   0  0  0  0  0  2  0  0  0  0  0  0
  162.4780  211.2990  148.9940 C   0  0  0  0  0  2  0  0  0  0  0  0
  160.2790  212.8700  150.2430 O   0  0  0  0  0  1  0  0  0  0  0  0
  161.3730  212.0430  148.2640 C   0  0  1  0  0  3  0  0  0  0  0  0
  160.9160  213.2690  149.0670 C   0  0  1  0  0  3  0  0  0  0  0  0
  160.5760  214.4530  146.8940 C   0  0  0  0  0  2  0  0  0  0  0  0
  160.8730  213.2190  146.1690 N   0  0  0  0  0  2  0  0  0  0  0  0
  161.9060  212.4920  146.9050 C   0  0  0  0  0  2  0  0  0  0  0  0
  159.9520  214.1220  148.2460 C   0  0  0  0  0  2  0  0  0  0  0  0
  1  5  1  6  0  0  0
  1 14  1  0  0  0  0
  4  8  2  0  0  0  0
  4  2  1  0  0  0  0
  6  2  1  6  0  0  0
  6  9  1  0  0  0  0
  6  7  1  0  0  0  0
  7 21  1  6  0  0  0
  7  5  1  0  0  0  0
  8  3  1  0  0  0  0
  9  3  1  1  0  0  0
  9  1  1  0  0  0  0
 10 14  1  0  0  0  0
 10 15  1  0  0  0  0
 11 16  2  0  0  0  0
 11 13  1  0  0  0  0
 12 13  1  0  0  0  0
 14 11  1  1  0  0  0
 15 12  1  0  0  0  0
 17 10  1  0  0  0  0
 18 17  1  0  0  0  0
 19 23  2  0  0  0  0
 19 20  1  0  0  0  0
 20 22  2  0  0  0  0
 21 24  2  0  0  0  0
 22 24  1  0  0  0  0
 23 21  1  0  0  0  0
 25 19  1  0  0  0  0
 26 27  1  0  0  0  0
 26  8  1  0  0  0  0
 29 27  1  1  0  0  0
 29 30  1  0  0  0  0
 30 28  1  1  0  0  0
 31 34  1  0  0  0  0
 32 31  1  0  0  0  0
 32 33  1  0  0  0  0
 33 29  1  0  0  0  0
 34 30  1  0  0  0  0
M  END
>  <MODEL>
9

>  <REMARK>
 VINA RESULT:      -5.8      2.647      7.188
  Name = 
  6 active torsions:
  status: ('A' for Active; 'I' for Inactive)
    1  A    between atoms: N_1  and  C_24
    2  A    between atoms: C_3  and  C_13
    3  A    between atoms: C_3  and  C_17
    4  A    between atoms: C_4  and  C_15
    5  A    between atoms: C_12  and  C_28
    6  A    between atoms: C_17  and  C_29
                            x       y       z     vdW  Elec       q    Type
                         _______ _______ _______ _____ _____    ______ ____

>  <TORSDO>
F 6

$$$$
