=
 OpenBabel11052422143D

 25 28  0  0  1  0  0  0  0  0999 V2000
  161.3880  205.3310  149.2740 C   0  0  0  0  0  0  0  0  0  0  0  0
  161.4270  206.2530  150.3360 C   0  0  0  0  0  0  0  0  0  0  0  0
  161.8220  207.1130  147.6890 C   0  0  0  0  0  3  0  0  0  0  0  0
  161.1690  203.9420  149.3220 C   0  0  0  0  0  0  0  0  0  0  0  0
  160.7830  201.2220  148.9600 C   0  0  0  0  0  3  0  0  0  0  0  0
  161.8600  207.9960  148.7240 N   0  0  0  0  0  0  0  0  0  0  0  0
  161.2010  203.3540  148.0630 C   0  0  2  0  0  3  0  0  0  0  0  0
  161.0140  202.0230  147.8810 N   0  0  0  0  0  0  0  0  0  0  0  0
  161.7050  208.5830  151.0780 N   0  0  0  0  0  0  0  0  0  0  0  0
  161.9890  209.9790  150.7950 C   0  0  0  0  0  1  0  0  0  0  0  0
  161.2690  205.8140  151.7690 C   0  0  0  0  0  3  0  0  0  0  0  0
  160.7400  201.7670  150.2570 C   0  0  0  0  0  3  0  0  0  0  0  0
  161.5840  205.7740  147.9680 C   0  0  0  0  0  0  0  0  0  0  0  0
  161.4950  204.4990  146.8650 S   0  0  0  0  0  0  0  0  0  0  0  0
  161.4010  208.2100  152.4240 C   0  0  0  0  0  3  0  0  0  0  0  0
  160.9350  203.1440  150.4430 C   0  0  0  0  0  3  0  0  0  0  0  0
  161.1550  206.9410  152.7610 C   0  0  0  0  0  0  0  0  0  0  0  0
  161.6720  207.6090  150.0240 C   0  0  0  0  0  0  0  0  0  0  0  0
  160.8640  206.6020  154.1830 C   0  0  0  0  0  2  0  0  0  0  0  0
  160.4670  207.8470  154.9560 C   0  0  0  0  0  2  0  0  0  0  0  0
  161.4840  208.1070  156.0470 C   0  0  0  0  0  2  0  0  0  0  0  0
  161.2830  209.3860  156.5730 O   0  0  0  0  0  0  0  0  0  0  0  0
  161.8010  210.2280  155.6470 N   0  0  0  0  0  0  0  0  0  0  0  0
  160.9360  211.3940  155.6080 C   0  0  0  0  0  1  0  0  0  0  0  0
  163.0820  210.6820  156.1600 C   0  0  0  0  0  1  0  0  0  0  0  0
  1  4  2  0  0  0  0
  1  2  1  0  0  0  0
  2 11  2  0  0  0  0
  3 13  2  0  0  0  0
  3  6  1  0  0  0  0
  4 16  1  0  0  0  0
  5 12  1  0  0  0  0
  6 18  2  0  0  0  0
  7 14  1  1  0  0  0
  7  4  1  0  0  0  0
  8  7  1  0  0  0  0
  8  5  2  0  0  0  0
  9 15  1  0  0  0  0
 10  9  1  0  0  0  0
 11 17  1  0  0  0  0
 12 16  2  0  0  0  0
 13  1  1  0  0  0  0
 14 13  1  0  0  0  0
 15 17  2  0  0  0  0
 17 19  1  0  0  0  0
 18  2  1  0  0  0  0
 18  9  1  0  0  0  0
 19 20  1  0  0  0  0
 20 21  1  0  0  0  0
 21 22  1  0  0  0  0
 23 25  1  0  0  0  0
 23 22  1  0  0  0  0
 24 23  1  0  0  0  0
M  END
>  <MODEL>
1

>  <REMARK>
 VINA RESULT:      -9.1      0.000      0.000
  Name = 
  5 active torsions:
  status: ('A' for Active; 'I' for Inactive)
    1  A    between atoms: N_2  and  O_25
    2  A    between atoms: C_6  and  C_15
    3  A    between atoms: C_6  and  C_23
    4  A    between atoms: C_15  and  C_21
    5  A    between atoms: C_21  and  O_25
                            x       y       z     vdW  Elec       q    Type
                         _______ _______ _______ _____ _____    ______ ____

>  <TORSDO>
F 5

$$$$
=
 OpenBabel11052422143D

 25 28  0  0  0  0  0  0  0  0999 V2000
  161.1070  203.9320  149.6550 C   0  0  0  0  0  0  0  0  0  0  0  0
  161.2470  205.2090  150.2280 C   0  0  0  0  0  0  0  0  0  0  0  0
  160.8500  202.9530  151.8580 C   0  0  0  0  0  3  0  0  0  0  0  0
  161.1320  203.5700  148.2960 C   0  0  0  0  0  0  0  0  0  0  0  0
  161.1190  202.4290  145.7700 C   0  0  0  0  0  3  0  0  0  0  0  0
  160.9850  204.1930  152.4010 N   0  0  0  0  0  0  0  0  0  0  0  0
  160.9590  202.2040  148.1050 C   0  0  0  0  0  0  0  0  0  0  0  0
  160.9510  201.6420  146.8710 N   0  0  0  0  0  0  0  0  0  0  0  0
  161.3310  206.5950  152.2600 N   0  0  0  0  0  0  0  0  0  0  0  0
  161.2310  206.7400  153.7020 C   0  0  0  0  0  1  0  0  0  0  0  0
  161.4100  206.4430  149.3780 C   0  0  0  0  0  3  0  0  0  0  0  0
  161.2990  203.8180  145.9080 C   0  0  0  0  0  3  0  0  0  0  0  0
  160.9130  202.8240  150.4770 C   0  0  0  0  0  0  0  0  0  0  0  0
  160.7710  201.4050  149.5730 S   0  0  0  0  0  0  0  0  0  0  0  0
  161.6440  207.7520  151.4800 C   0  0  0  0  0  3  0  0  0  0  0  0
  161.3060  204.3990  147.1850 C   0  0  0  0  0  2  0  0  0  0  0  0
  161.7260  207.6970  150.1480 C   0  0  0  0  0  0  0  0  0  0  0  0
  161.1790  205.3110  151.6360 C   0  0  0  0  0  0  0  0  0  0  0  0
  162.0350  208.9370  149.3810 C   0  0  0  0  0  2  0  0  0  0  0  0
  162.0530  210.1430  150.3020 C   0  0  0  0  0  2  0  0  0  0  0  0
  162.0220  211.4100  149.4730 C   0  0  0  0  0  2  0  0  0  0  0  0
  161.8230  211.0800  148.1300 O   0  0  0  0  0  0  0  0  0  0  0  0
  161.6760  212.2700  147.4990 N   0  0  0  0  0  0  0  0  0  0  0  0
  160.5660  212.9520  148.1400 C   0  0  0  0  0  1  0  0  0  0  0  0
  162.8640  213.0530  147.7930 C   0  0  0  0  0  1  0  0  0  0  0  0
  1  2  1  0  0  0  0
  1 13  1  0  0  0  0
  2 18  1  0  0  0  0
  3  6  1  0  0  0  0
  4  1  2  0  0  0  0
  5 12  2  0  0  0  0
  5  8  1  0  0  0  0
  7  4  1  0  0  0  0
  7 14  1  0  0  0  0
  8  7  2  0  0  0  0
  9 10  1  0  0  0  0
 11 17  1  0  0  0  0
 11  2  2  0  0  0  0
 12 16  1  0  0  0  0
 13  3  2  0  0  0  0
 14 13  1  0  0  0  0
 15  9  1  0  0  0  0
 16  4  1  0  0  0  0
 17 15  2  0  0  0  0
 18  9  1  0  0  0  0
 18  6  2  0  0  0  0
 19 17  1  0  0  0  0
 19 20  1  0  0  0  0
 21 20  1  0  0  0  0
 22 21  1  0  0  0  0
 23 25  1  0  0  0  0
 23 22  1  0  0  0  0
 23 24  1  0  0  0  0
M  END
>  <MODEL>
2

>  <REMARK>
 VINA RESULT:      -9.0      2.923      4.869
  Name = 
  5 active torsions:
  status: ('A' for Active; 'I' for Inactive)
    1  A    between atoms: N_2  and  O_25
    2  A    between atoms: C_6  and  C_15
    3  A    between atoms: C_6  and  C_23
    4  A    between atoms: C_15  and  C_21
    5  A    between atoms: C_21  and  O_25
                            x       y       z     vdW  Elec       q    Type
                         _______ _______ _______ _____ _____    ______ ____

>  <TORSDO>
F 5

$$$$
=
 OpenBabel11052422143D

 25 28  0  0  1  0  0  0  0  0999 V2000
  161.3980  204.9190  148.6210 C   0  0  0  0  0  0  0  0  0  0  0  0
  161.4740  206.0850  149.4040 C   0  0  0  0  0  0  0  0  0  0  0  0
  161.8010  206.2210  146.6160 C   0  0  0  0  0  3  0  0  0  0  0  0
  161.1710  203.5940  149.0350 C   0  0  0  0  0  0  0  0  0  0  0  0
  160.7560  200.8790  149.4050 C   0  0  0  0  0  3  0  0  0  0  0  0
  161.8740  207.3420  147.3840 N   0  0  0  0  0  0  0  0  0  0  0  0
  161.1640  202.6980  147.9730 C   0  0  1  0  0  3  0  0  0  0  0  0
  160.9610  201.3680  148.1490 N   0  0  0  0  0  0  0  0  0  0  0  0
  161.7900  208.5230  149.5060 N   0  0  0  0  0  0  0  0  0  0  0  0
  162.0760  209.7940  148.8620 C   0  0  0  0  0  1  0  0  0  0  0  0
  161.3530  206.0370  150.9060 C   0  0  0  0  0  3  0  0  0  0  0  0
  160.7530  201.7440  150.5160 C   0  0  0  0  0  3  0  0  0  0  0  0
  161.5610  205.0040  147.2400 C   0  0  0  0  0  0  0  0  0  0  0  0
  161.4320  203.4870  146.5110 S   0  0  0  0  0  0  0  0  0  0  0  0
  161.5200  208.5180  150.9110 C   0  0  0  0  0  3  0  0  0  0  0  0
  160.9620  203.1180  150.3310 C   0  0  0  0  0  3  0  0  0  0  0  0
  161.2760  207.3840  151.5730 C   0  0  0  0  0  0  0  0  0  0  0  0
  161.7190  207.3090  148.7440 C   0  0  0  0  0  0  0  0  0  0  0  0
  161.0220  207.4320  153.0410 C   0  0  0  0  0  2  0  0  0  0  0  0
  160.8430  208.8660  153.5030 C   0  0  0  0  0  2  0  0  0  0  0  0
  160.7710  208.9010  155.0160 C   0  0  0  0  0  2  0  0  0  0  0  0
  161.4530  207.7990  155.5380 O   0  0  0  0  0  0  0  0  0  0  0  0
  161.3060  207.9050  156.8810 N   0  0  0  0  0  0  0  0  0  0  0  0
  160.8190  209.2460  157.1470 C   0  0  0  0  0  1  0  0  0  0  0  0
  160.2380  206.9960  157.2610 C   0  0  0  0  0  1  0  0  0  0  0  0
  1  4  2  0  0  0  0
  1  2  1  0  0  0  0
  2 11  2  0  0  0  0
  3 13  2  0  0  0  0
  3  6  1  0  0  0  0
  4 16  1  0  0  0  0
  5 12  1  0  0  0  0
  6 18  2  0  0  0  0
  7 14  1  6  0  0  0
  7  8  1  0  0  0  0
  7  4  1  0  0  0  0
  8  5  2  0  0  0  0
  9 15  1  0  0  0  0
 10  9  1  0  0  0  0
 11 17  1  0  0  0  0
 13  1  1  0  0  0  0
 14 13  1  0  0  0  0
 15 17  2  0  0  0  0
 16 12  2  0  0  0  0
 17 19  1  0  0  0  0
 18  2  1  0  0  0  0
 18  9  1  0  0  0  0
 19 20  1  0  0  0  0
 20 21  1  0  0  0  0
 21 22  1  0  0  0  0
 22 23  1  0  0  0  0
 23 24  1  0  0  0  0
 23 25  1  0  0  0  0
M  END
>  <MODEL>
3

>  <REMARK>
 VINA RESULT:      -8.7      1.365      1.679
  Name = 
  5 active torsions:
  status: ('A' for Active; 'I' for Inactive)
    1  A    between atoms: N_2  and  O_25
    2  A    between atoms: C_6  and  C_15
    3  A    between atoms: C_6  and  C_23
    4  A    between atoms: C_15  and  C_21
    5  A    between atoms: C_21  and  O_25
                            x       y       z     vdW  Elec       q    Type
                         _______ _______ _______ _____ _____    ______ ____

>  <TORSDO>
F 5

$$$$
=
 OpenBabel11052422143D

 25 28  0  0  1  0  0  0  0  0999 V2000
  161.4200  207.6680  151.1130 C   0  0  0  0  0  0  0  0  0  0  0  0
  161.3120  206.5320  150.2900 C   0  0  0  0  0  0  0  0  0  0  0  0
  161.9970  209.0260  149.1900 C   0  0  0  0  0  3  0  0  0  0  0  0
  161.2230  207.7700  152.5020 C   0  0  0  0  0  0  0  0  0  0  0  0
  160.9410  208.4140  155.1820 C   0  0  0  0  0  3  0  0  0  0  0  0
  161.8880  207.9220  148.4030 N   0  0  0  0  0  0  0  0  0  0  0  0
  161.4180  209.0620  152.9740 C   0  0  2  0  0  3  0  0  0  0  0  0
  161.2800  209.3830  154.2850 N   0  0  0  0  0  0  0  0  0  0  0  0
  161.4690  205.5560  148.0370 N   0  0  0  0  0  0  0  0  0  0  0  0
  161.6800  205.6940  146.6060 C   0  0  0  0  0  1  0  0  0  0  0  0
  160.8970  205.1930  150.8430 C   0  0  0  0  0  3  0  0  0  0  0  0
  160.7330  207.0880  154.7570 C   0  0  0  0  0  3  0  0  0  0  0  0
  161.7620  208.8970  150.5520 C   0  0  0  0  0  0  0  0  0  0  0  0
  161.8300  210.1100  151.7240 S   0  0  0  0  0  0  0  0  0  0  0  0
  161.2330  204.2480  148.5670 C   0  0  0  0  0  3  0  0  0  0  0  0
  160.8760  206.7590  153.4010 C   0  0  0  0  0  3  0  0  0  0  0  0
  161.0060  204.0510  149.8680 C   0  0  0  0  0  0  0  0  0  0  0  0
  161.5560  206.6930  148.9080 C   0  0  0  0  0  0  0  0  0  0  0  0
  160.7440  202.6710  150.3650 C   0  0  0  0  0  2  0  0  0  0  0  0
  160.1040  201.8260  149.2790 C   0  0  0  0  0  2  0  0  0  0  0  0
  161.0800  200.7580  148.8320 C   0  0  0  0  0  2  0  0  0  0  0  0
  161.6540  201.1350  147.6140 O   0  0  0  0  0  0  0  0  0  0  0  0
  160.7490  200.7680  146.6750 N   0  0  0  0  0  0  0  0  0  0  0  0
  160.7360  201.8170  145.6700 C   0  0  0  0  0  1  0  0  0  0  0  0
  161.2770  199.5810  146.0240 C   0  0  0  0  0  1  0  0  0  0  0  0
  1  4  2  0  0  0  0
  2 11  2  0  0  0  0
  2  1  1  0  0  0  0
  3 13  2  0  0  0  0
  4  7  1  0  0  0  0
  4 16  1  0  0  0  0
  6 18  2  0  0  0  0
  6  3  1  0  0  0  0
  7 14  1  6  0  0  0
  7  8  1  0  0  0  0
  8  5  2  0  0  0  0
  9 15  1  0  0  0  0
  9 18  1  0  0  0  0
 10  9  1  0  0  0  0
 12  5  1  0  0  0  0
 13  1  1  0  0  0  0
 13 14  1  0  0  0  0
 15 17  2  0  0  0  0
 16 12  2  0  0  0  0
 17 19  1  0  0  0  0
 17 11  1  0  0  0  0
 18  2  1  0  0  0  0
 20 19  1  0  0  0  0
 21 20  1  0  0  0  0
 22 21  1  0  0  0  0
 23 22  1  0  0  0  0
 24 23  1  0  0  0  0
 25 23  1  0  0  0  0
M  END
>  <MODEL>
4

>  <REMARK>
 VINA RESULT:      -8.7      3.176      7.678
  Name = 
  5 active torsions:
  status: ('A' for Active; 'I' for Inactive)
    1  A    between atoms: N_2  and  O_25
    2  A    between atoms: C_6  and  C_15
    3  A    between atoms: C_6  and  C_23
    4  A    between atoms: C_15  and  C_21
    5  A    between atoms: C_21  and  O_25
                            x       y       z     vdW  Elec       q    Type
                         _______ _______ _______ _____ _____    ______ ____

>  <TORSDO>
F 5

$$$$
=
 OpenBabel11052422143D

 25 28  0  0  1  0  0  0  0  0999 V2000
  161.4190  204.9720  148.6660 C   0  0  0  0  0  0  0  0  0  0  0  0
  161.4620  206.1290  149.4660 C   0  0  0  0  0  0  0  0  0  0  0  0
  161.9300  206.2950  146.7000 C   0  0  0  0  0  3  0  0  0  0  0  0
  161.1640  203.6440  149.0520 C   0  0  0  0  0  0  0  0  0  0  0  0
  160.7140  200.9280  149.3690 C   0  0  0  0  0  3  0  0  0  0  0  0
  161.9700  207.4070  147.4830 N   0  0  0  0  0  0  0  0  0  0  0  0
  161.2050  202.7610  147.9800 C   0  0  1  0  0  3  0  0  0  0  0  0
  160.9860  201.4310  148.1310 N   0  0  0  0  0  0  0  0  0  0  0  0
  161.7860  208.5640  149.6120 N   0  0  0  0  0  0  0  0  0  0  0  0
  162.1110  209.8400  148.9980 C   0  0  0  0  0  1  0  0  0  0  0  0
  161.2650  206.0640  150.9590 C   0  0  0  0  0  3  0  0  0  0  0  0
  160.6610  201.7800  150.4880 C   0  0  0  0  0  3  0  0  0  0  0  0
  161.6520  205.0730  147.2960 C   0  0  0  0  0  0  0  0  0  0  0  0
  161.5510  203.5640  146.5430 S   0  0  0  0  0  0  0  0  0  0  0  0
  161.4460  208.5440  151.0020 C   0  0  0  0  0  3  0  0  0  0  0  0
  160.8870  203.1550  150.3310 C   0  0  0  0  0  3  0  0  0  0  0  0
  161.1620  207.4040  151.6370 C   0  0  0  0  0  0  0  0  0  0  0  0
  161.7470  207.3590  148.8330 C   0  0  0  0  0  0  0  0  0  0  0  0
  160.8340  207.4370  153.0900 C   0  0  0  0  0  2  0  0  0  0  0  0
  161.5300  208.6040  153.7670 C   0  0  0  0  0  2  0  0  0  0  0  0
  160.4910  209.5740  154.2900 C   0  0  0  0  0  2  0  0  0  0  0  0
  160.6710  210.8190  153.6820 O   0  0  0  0  0  0  0  0  0  0  0  0
  159.5390  211.0220  152.9660 N   0  0  0  0  0  0  0  0  0  0  0  0
  158.5050  211.4040  153.9130 C   0  0  0  0  0  1  0  0  0  0  0  0
  159.7750  212.1840  152.1250 C   0  0  0  0  0  1  0  0  0  0  0  0
  1  4  2  0  0  0  0
  1  2  1  0  0  0  0
  2 11  2  0  0  0  0
  3 13  2  0  0  0  0
  3  6  1  0  0  0  0
  4 16  1  0  0  0  0
  5 12  1  0  0  0  0
  6 18  2  0  0  0  0
  7 14  1  6  0  0  0
  7  8  1  0  0  0  0
  7  4  1  0  0  0  0
  8  5  2  0  0  0  0
  9 15  1  0  0  0  0
 10  9  1  0  0  0  0
 11 17  1  0  0  0  0
 13  1  1  0  0  0  0
 14 13  1  0  0  0  0
 15 17  2  0  0  0  0
 16 12  2  0  0  0  0
 17 19  1  0  0  0  0
 18  2  1  0  0  0  0
 18  9  1  0  0  0  0
 19 20  1  0  0  0  0
 20 21  1  0  0  0  0
 22 21  1  0  0  0  0
 23 22  1  0  0  0  0
 23 24  1  0  0  0  0
 25 23  1  0  0  0  0
M  END
>  <MODEL>
5

>  <REMARK>
 VINA RESULT:      -8.3      1.640      1.923
  Name = 
  5 active torsions:
  status: ('A' for Active; 'I' for Inactive)
    1  A    between atoms: N_2  and  O_25
    2  A    between atoms: C_6  and  C_15
    3  A    between atoms: C_6  and  C_23
    4  A    between atoms: C_15  and  C_21
    5  A    between atoms: C_21  and  O_25
                            x       y       z     vdW  Elec       q    Type
                         _______ _______ _______ _____ _____    ______ ____

>  <TORSDO>
F 5

$$$$
=
 OpenBabel11052422143D

 25 28  0  0  0  0  0  0  0  0999 V2000
  161.1950  204.1960  149.3310 C   0  0  0  0  0  0  0  0  0  0  0  0
  161.2810  205.2800  150.2230 C   0  0  0  0  0  0  0  0  0  0  0  0
  160.9030  202.6690  151.1910 C   0  0  0  0  0  3  0  0  0  0  0  0
  161.2690  204.2040  147.9270 C   0  0  0  0  0  0  0  0  0  0  0  0
  161.3600  203.7660  145.1920 C   0  0  0  0  0  3  0  0  0  0  0  0
  160.9870  203.7250  152.0450 N   0  0  0  0  0  0  0  0  0  0  0  0
  161.1410  202.9330  147.3800 C   0  0  0  0  0  0  0  0  0  0  0  0
  161.1840  202.7140  146.0420 N   0  0  0  0  0  0  0  0  0  0  0  0
  161.2670  206.0860  152.5490 N   0  0  0  0  0  0  0  0  0  0  0  0
  161.1220  205.8460  153.9740 C   0  0  0  0  0  1  0  0  0  0  0  0
  161.4330  206.6970  149.7320 C   0  0  0  0  0  3  0  0  0  0  0  0
  161.4960  205.0740  145.6940 C   0  0  0  0  0  3  0  0  0  0  0  0
  161.0090  202.9080  149.8280 C   0  0  0  0  0  0  0  0  0  0  0  0
  160.9340  201.7730  148.5800 S   0  0  0  0  0  0  0  0  0  0  0  0
  161.5680  207.4140  152.1100 C   0  0  0  0  0  3  0  0  0  0  0  0
  161.4510  205.2990  147.0780 C   0  0  0  0  0  2  0  0  0  0  0  0
  161.6900  207.7120  150.8140 C   0  0  0  0  0  0  0  0  0  0  0  0
  161.1700  205.0090  151.6060 C   0  0  0  0  0  0  0  0  0  0  0  0
  161.9850  209.1160  150.4090 C   0  0  0  0  0  2  0  0  0  0  0  0
  162.2950  209.9670  151.6260 C   0  0  0  0  0  2  0  0  0  0  0  0
  161.0610  210.7510  152.0200 C   0  0  0  0  0  2  0  0  0  0  0  0
  161.1030  211.0270  153.3890 O   0  0  0  0  0  0  0  0  0  0  0  0
  160.1010  210.2880  153.9230 N   0  0  0  0  0  0  0  0  0  0  0  0
  160.6700  209.5460  155.0350 C   0  0  0  0  0  1  0  0  0  0  0  0
  159.1480  211.2220  154.4970 C   0  0  0  0  0  1  0  0  0  0  0  0
  1 13  1  0  0  0  0
  1  2  1  0  0  0  0
  2 18  1  0  0  0  0
  3  6  1  0  0  0  0
  4  1  2  0  0  0  0
  5 12  2  0  0  0  0
  5  8  1  0  0  0  0
  7  4  1  0  0  0  0
  7 14  1  0  0  0  0
  8  7  2  0  0  0  0
  9 10  1  0  0  0  0
 11  2  2  0  0  0  0
 11 17  1  0  0  0  0
 12 16  1  0  0  0  0
 13  3  2  0  0  0  0
 14 13  1  0  0  0  0
 15  9  1  0  0  0  0
 16  4  1  0  0  0  0
 17 15  2  0  0  0  0
 18  6  2  0  0  0  0
 18  9  1  0  0  0  0
 19 17  1  0  0  0  0
 19 20  1  0  0  0  0
 20 21  1  0  0  0  0
 21 22  1  0  0  0  0
 22 23  1  0  0  0  0
 23 25  1  0  0  0  0
 23 24  1  0  0  0  0
M  END
>  <MODEL>
6

>  <REMARK>
 VINA RESULT:      -8.3      1.964      3.609
  Name = 
  5 active torsions:
  status: ('A' for Active; 'I' for Inactive)
    1  A    between atoms: N_2  and  O_25
    2  A    between atoms: C_6  and  C_15
    3  A    between atoms: C_6  and  C_23
    4  A    between atoms: C_15  and  C_21
    5  A    between atoms: C_21  and  O_25
                            x       y       z     vdW  Elec       q    Type
                         _______ _______ _______ _____ _____    ______ ____

>  <TORSDO>
F 5

$$$$
=
 OpenBabel11052422143D

 25 28  0  0  0  0  0  0  0  0999 V2000
  161.2930  205.5130  151.0460 C   0  0  0  0  0  0  0  0  0  0  0  0
  161.4780  206.9070  151.0390 C   0  0  0  0  0  0  0  0  0  0  0  0
  161.1860  205.5230  153.4680 C   0  0  0  0  0  3  0  0  0  0  0  0
  161.2210  204.6300  149.9540 C   0  0  0  0  0  0  0  0  0  0  0  0
  161.0260  202.5620  148.1190 C   0  0  0  0  0  3  0  0  0  0  0  0
  161.3640  206.8720  153.4490 N   0  0  0  0  0  0  0  0  0  0  0  0
  161.0290  203.3110  150.3480 C   0  0  0  0  0  0  0  0  0  0  0  0
  160.9320  202.2960  149.4530 N   0  0  0  0  0  0  0  0  0  0  0  0
  161.7100  208.9960  152.3190 N   0  0  0  0  0  0  0  0  0  0  0  0
  161.7120  209.7180  153.5800 C   0  0  0  0  0  1  0  0  0  0  0  0
  161.5870  207.6840  149.7510 C   0  0  0  0  0  3  0  0  0  0  0  0
  161.2210  203.8800  147.6670 C   0  0  0  0  0  3  0  0  0  0  0  0
  161.1510  204.8420  152.2590 C   0  0  0  0  0  0  0  0  0  0  0  0
  160.9390  203.1830  152.0230 S   0  0  0  0  0  0  0  0  0  0  0  0
  161.9740  209.7260  151.1180 C   0  0  0  0  0  3  0  0  0  0  0  0
  161.3210  204.9290  148.5930 C   0  0  0  0  0  2  0  0  0  0  0  0
  161.9620  209.1320  149.9210 C   0  0  0  0  0  0  0  0  0  0  0  0
  161.5090  207.5760  152.2840 C   0  0  0  0  0  0  0  0  0  0  0  0
  162.2220  209.9420  148.6980 C   0  0  0  0  0  2  0  0  0  0  0  0
  161.9690  211.4130  148.9700 C   0  0  0  0  0  2  0  0  0  0  0  0
  162.0530  212.1860  147.6710 C   0  0  0  0  0  2  0  0  0  0  0  0
  160.7660  212.3680  147.1550 O   0  0  0  0  0  0  0  0  0  0  0  0
  160.9130  213.2850  146.1690 N   0  0  0  0  0  0  0  0  0  0  0  0
  162.3270  213.3260  145.8400 C   0  0  0  0  0  1  0  0  0  0  0  0
  160.2330  212.7580  144.9990 C   0  0  0  0  0  1  0  0  0  0  0  0
  1 13  1  0  0  0  0
  2  1  1  0  0  0  0
  2 18  1  0  0  0  0
  4  7  1  0  0  0  0
  4  1  2  0  0  0  0
  5  8  1  0  0  0  0
  6  3  1  0  0  0  0
  7 14  1  0  0  0  0
  8  7  2  0  0  0  0
  9 10  1  0  0  0  0
 11 17  1  0  0  0  0
 11  2  2  0  0  0  0
 12  5  2  0  0  0  0
 12 16  1  0  0  0  0
 13  3  2  0  0  0  0
 14 13  1  0  0  0  0
 15  9  1  0  0  0  0
 16  4  1  0  0  0  0
 17 15  2  0  0  0  0
 18  9  1  0  0  0  0
 18  6  2  0  0  0  0
 19 20  1  0  0  0  0
 19 17  1  0  0  0  0
 21 20  1  0  0  0  0
 22 21  1  0  0  0  0
 23 22  1  0  0  0  0
 24 23  1  0  0  0  0
 25 23  1  0  0  0  0
M  END
>  <MODEL>
7

>  <REMARK>
 VINA RESULT:      -8.0      3.405      5.653
  Name = 
  5 active torsions:
  status: ('A' for Active; 'I' for Inactive)
    1  A    between atoms: N_2  and  O_25
    2  A    between atoms: C_6  and  C_15
    3  A    between atoms: C_6  and  C_23
    4  A    between atoms: C_15  and  C_21
    5  A    between atoms: C_21  and  O_25
                            x       y       z     vdW  Elec       q    Type
                         _______ _______ _______ _____ _____    ______ ____

>  <TORSDO>
F 5

$$$$
=
 OpenBabel11052422143D

 25 28  0  0  1  0  0  0  0  0999 V2000
  161.1720  208.6220  153.0550 C   0  0  0  0  0  0  0  0  0  0  0  0
  161.3920  207.6410  152.0710 C   0  0  0  0  0  0  0  0  0  0  0  0
  161.6620  210.3680  151.4450 C   0  0  0  0  0  3  0  0  0  0  0  0
  160.8080  208.4510  154.4020 C   0  0  0  0  0  0  0  0  0  0  0  0
  160.1060  208.5720  157.0800 C   0  0  0  0  0  3  0  0  0  0  0  0
  161.8710  209.4100  150.5020 N   0  0  0  0  0  0  0  0  0  0  0  0
  160.6780  209.6600  155.0760 C   0  0  1  0  0  3  0  0  0  0  0  0
  160.3340  209.7240  156.3870 N   0  0  0  0  0  0  0  0  0  0  0  0
  161.9940  207.1030  149.7460 N   0  0  0  0  0  0  0  0  0  0  0  0
  162.3260  207.5170  148.3940 C   0  0  0  0  0  1  0  0  0  0  0  0
  161.2050  206.1740  152.3630 C   0  0  0  0  0  3  0  0  0  0  0  0
  160.2250  207.3210  156.4460 C   0  0  0  0  0  3  0  0  0  0  0  0
  161.3110  209.9700  152.7280 C   0  0  0  0  0  0  0  0  0  0  0  0
  160.9990  210.9610  154.0590 S   0  0  0  0  0  0  0  0  0  0  0  0
  161.9760  205.7050  150.0450 C   0  0  0  0  0  3  0  0  0  0  0  0
  160.5800  207.2570  155.0900 C   0  0  0  0  0  3  0  0  0  0  0  0
  161.6540  205.2530  151.2600 C   0  0  0  0  0  0  0  0  0  0  0  0
  161.7470  208.0740  150.7740 C   0  0  0  0  0  0  0  0  0  0  0  0
  161.6300  203.7850  151.5140 C   0  0  0  0  0  2  0  0  0  0  0  0
  160.3340  203.1780  151.0110 C   0  0  0  0  0  2  0  0  0  0  0  0
  160.6200  202.3070  149.8060 C   0  0  0  0  0  2  0  0  0  0  0  0
  160.3500  203.0260  148.6380 O   0  0  0  0  0  0  0  0  0  0  0  0
  161.3490  202.6920  147.7860 N   0  0  0  0  0  0  0  0  0  0  0  0
  160.8320  201.6470  146.9210 C   0  0  0  0  0  1  0  0  0  0  0  0
  161.5830  203.8490  146.9380 C   0  0  0  0  0  1  0  0  0  0  0  0
  1  4  2  0  0  0  0
  2 11  2  0  0  0  0
  2  1  1  0  0  0  0
  3 13  2  0  0  0  0
  4  7  1  0  0  0  0
  4 16  1  0  0  0  0
  6 18  2  0  0  0  0
  6  3  1  0  0  0  0
  7 14  1  1  0  0  0
  7  8  1  0  0  0  0
  8  5  2  0  0  0  0
  9 15  1  0  0  0  0
  9 18  1  0  0  0  0
 10  9  1  0  0  0  0
 12  5  1  0  0  0  0
 13  1  1  0  0  0  0
 13 14  1  0  0  0  0
 15 17  2  0  0  0  0
 16 12  2  0  0  0  0
 17 19  1  0  0  0  0
 17 11  1  0  0  0  0
 18  2  1  0  0  0  0
 20 19  1  0  0  0  0
 21 20  1  0  0  0  0
 22 21  1  0  0  0  0
 23 22  1  0  0  0  0
 24 23  1  0  0  0  0
 25 23  1  0  0  0  0
M  END
>  <MODEL>
8

>  <REMARK>
 VINA RESULT:      -7.7      3.082      7.427
  Name = 
  5 active torsions:
  status: ('A' for Active; 'I' for Inactive)
    1  A    between atoms: N_2  and  O_25
    2  A    between atoms: C_6  and  C_15
    3  A    between atoms: C_6  and  C_23
    4  A    between atoms: C_15  and  C_21
    5  A    between atoms: C_21  and  O_25
                            x       y       z     vdW  Elec       q    Type
                         _______ _______ _______ _____ _____    ______ ____

>  <TORSDO>
F 5

$$$$
=
 OpenBabel11052422143D

 25 28  0  0  1  0  0  0  0  0999 V2000
  161.4160  206.0740  149.7000 C   0  0  0  0  0  0  0  0  0  0  0  0
  161.5780  207.3890  150.1710 C   0  0  0  0  0  0  0  0  0  0  0  0
  161.6260  206.8500  147.4130 C   0  0  0  0  0  3  0  0  0  0  0  0
  161.2230  204.8920  150.4380 C   0  0  0  0  0  0  0  0  0  0  0  0
  160.8270  202.3560  151.4830 C   0  0  0  0  0  3  0  0  0  0  0  0
  161.7830  208.1190  147.8800 N   0  0  0  0  0  0  0  0  0  0  0  0
  161.1030  203.7710  149.6260 C   0  0  2  0  0  3  0  0  0  0  0  0
  160.9100  202.5270  150.1330 N   0  0  0  0  0  0  0  0  0  0  0  0
  161.9190  209.7720  149.6570 N   0  0  0  0  0  0  0  0  0  0  0  0
  162.1480  210.8440  148.7040 C   0  0  0  0  0  1  0  0  0  0  0  0
  161.6070  207.7020  151.6450 C   0  0  0  0  0  3  0  0  0  0  0  0
  160.9410  203.4590  152.3510 C   0  0  0  0  0  3  0  0  0  0  0  0
  161.4420  205.8240  148.3290 C   0  0  0  0  0  0  0  0  0  0  0  0
  161.2300  204.1820  147.9990 S   0  0  0  0  0  0  0  0  0  0  0  0
  161.7910  210.1080  151.0410 C   0  0  0  0  0  3  0  0  0  0  0  0
  161.1410  204.7440  151.8240 C   0  0  0  0  0  3  0  0  0  0  0  0
  161.6050  209.1710  151.9750 C   0  0  0  0  0  0  0  0  0  0  0  0
  161.7650  208.4140  149.2170 C   0  0  0  0  0  0  0  0  0  0  0  0
  161.4990  209.5730  153.4060 C   0  0  0  0  0  2  0  0  0  0  0  0
  160.9990  208.4140  154.2490 C   0  0  0  0  0  2  0  0  0  0  0  0
  160.7450  208.8940  155.6630 C   0  0  0  0  0  2  0  0  0  0  0  0
  161.8950  208.6980  156.4330 O   0  0  0  0  0  0  0  0  0  0  0  0
  161.9460  209.7700  157.2590 N   0  0  0  0  0  0  0  0  0  0  0  0
  162.9290  210.6830  156.7040 C   0  0  0  0  0  1  0  0  0  0  0  0
  160.6610  210.4400  157.1610 C   0  0  0  0  0  1  0  0  0  0  0  0
  1  2  1  0  0  0  0
  1  4  2  0  0  0  0
  2 11  2  0  0  0  0
  3  6  1  0  0  0  0
  3 13  2  0  0  0  0
  4 16  1  0  0  0  0
  5 12  1  0  0  0  0
  6 18  2  0  0  0  0
  7 14  1  1  0  0  0
  7  8  1  0  0  0  0
  7  4  1  0  0  0  0
  8  5  2  0  0  0  0
  9 15  1  0  0  0  0
 10  9  1  0  0  0  0
 11 17  1  0  0  0  0
 13  1  1  0  0  0  0
 14 13  1  0  0  0  0
 15 17  2  0  0  0  0
 16 12  2  0  0  0  0
 17 19  1  0  0  0  0
 18  9  1  0  0  0  0
 18  2  1  0  0  0  0
 19 20  1  0  0  0  0
 20 21  1  0  0  0  0
 21 22  1  0  0  0  0
 22 23  1  0  0  0  0
 24 23  1  0  0  0  0
 25 23  1  0  0  0  0
M  END
>  <MODEL>
9

>  <REMARK>
 VINA RESULT:      -7.7      1.307      1.874
  Name = 
  5 active torsions:
  status: ('A' for Active; 'I' for Inactive)
    1  A    between atoms: N_2  and  O_25
    2  A    between atoms: C_6  and  C_15
    3  A    between atoms: C_6  and  C_23
    4  A    between atoms: C_15  and  C_21
    5  A    between atoms: C_21  and  O_25
                            x       y       z     vdW  Elec       q    Type
                         _______ _______ _______ _____ _____    ______ ____

>  <TORSDO>
F 5

$$$$
