=
 OpenBabel11062410553D

 32 34  0  0  1  0  0  0  0  0999 V2000
  160.5550  208.7440  156.8700 C   0  0  0  0  0  2  0  0  0  0  0  0
  161.5810  209.8700  156.8120 C   0  0  0  0  0  2  0  0  0  0  0  0
  160.6980  207.8500  155.6440 C   0  0  0  0  0  2  0  0  0  0  0  0
  160.4840  208.6580  154.3650 C   0  0  1  0  0  3  0  0  0  0  0  0
  161.3680  210.7090  155.5570 C   0  0  0  0  0  2  0  0  0  0  0  0
  161.4670  209.8380  154.3020 C   0  0  2  0  0  3  0  0  0  0  0  0
  160.6650  207.7950  153.2060 N   0  0  0  0  0  2  0  0  0  0  0  0
  161.9890  206.2330  154.3340 O   0  0  0  0  0  0  0  0  0  0  0  0
  161.4390  206.5910  153.2580 C   0  0  0  0  0  0  0  0  0  0  0  0
  160.8700  204.4130  152.2310 C   0  0  0  0  0  2  0  0  0  0  0  0
  161.0640  204.1120  149.7590 C   0  0  0  0  0  0  0  0  0  0  0  0
  161.2100  205.6120  149.5540 C   0  0  2  0  0  3  0  0  0  0  0  0
  160.9640  203.5740  150.9880 C   0  0  0  0  0  3  0  0  0  0  0  0
  161.0080  206.4500  150.8250 C   0  0  0  0  0  2  0  0  0  0  0  0
  161.5910  205.7430  152.0420 C   0  0  1  0  0  3  0  0  0  0  0  0
  161.1660  206.5910  147.2210 C   0  0  0  0  0  1  0  0  0  0  0  0
  160.3380  206.1400  148.4150 C   0  0  0  0  0  2  0  0  0  0  0  0
  161.1700  203.1980  148.5770 C   0  0  0  0  0  2  0  0  0  0  0  0
  160.9750  201.7530  148.9970 C   0  0  0  0  0  2  0  0  0  0  0  0
  161.1010  200.8550  147.7850 C   0  0  0  0  0  2  0  0  0  0  0  0
  160.8230  201.6560  146.5310 C   0  0  0  0  0  1  0  0  0  0  0  0
  161.2950  210.6840  153.0340 C   0  0  0  0  0  2  0  0  0  0  0  0
  160.3200  211.8450  153.2070 C   0  0  0  0  0  2  0  0  0  0  0  0
  158.9380  211.4740  152.7000 C   0  0  0  0  0  2  0  0  0  0  0  0
  157.0590  211.4520  154.4430 C   0  0  1  0  0  3  0  0  0  0  0  0
  157.4220  213.4460  153.2520 C   0  0  0  0  0  0  0  0  0  0  0  0
  156.1910  213.7320  154.0110 C   0  0  0  0  0  3  0  0  0  0  0  0
  155.9720  212.4610  154.8350 C   0  0  0  0  0  3  0  0  0  0  0  0
  157.9940  214.4340  152.0780 S   0  0  0  0  0  0  0  0  0  0  0  0
  157.9210  212.1430  153.5000 N   0  0  0  0  0  0  0  0  0  0  0  0
  157.7750  212.1530  156.7280 C   0  0  0  0  0  1  0  0  0  0  0  0
  157.8380  211.0520  155.6880 C   0  0  0  0  0  2  0  0  0  0  0  0
  2  1  1  0  0  0  0
  3  1  1  0  0  0  0
  4  7  1  6  0  0  0
  4  3  1  0  0  0  0
  5  2  1  0  0  0  0
  6 22  1  6  0  0  0
  6  4  1  0  0  0  0
  6  5  1  0  0  0  0
  7  9  1  0  0  0  0
  9  8  2  0  0  0  0
 11 13  2  0  0  0  0
 12 17  1  6  0  0  0
 12 11  1  0  0  0  0
 12 14  1  0  0  0  0
 13 10  1  0  0  0  0
 14 15  1  0  0  0  0
 15 10  1  0  0  0  0
 15  9  1  1  0  0  0
 16 17  1  0  0  0  0
 18 19  1  0  0  0  0
 18 11  1  0  0  0  0
 20 19  1  0  0  0  0
 21 20  1  0  0  0  0
 22 23  1  0  0  0  0
 24 23  1  0  0  0  0
 24 30  1  0  0  0  0
 25 28  1  0  0  0  0
 25 32  1  1  0  0  0
 26 30  1  0  0  0  0
 26 27  1  0  0  0  0
 27 28  2  0  0  0  0
 29 26  2  0  0  0  0
 30 25  1  0  0  0  0
 32 31  1  0  0  0  0
M  END
>  <MODEL>
1

>  <REMARK>
 VINA RESULT:      -7.7      0.000      0.000
  Name = 
  11 active torsions:
  status: ('A' for Active; 'I' for Inactive)
    1  A    between atoms: C_1  and  C_20
    2  A    between atoms: C_2  and  C_12
    3  A    between atoms: C_2  and  C_20
    4  A    between atoms: N_3  and  C_15
    5  A    between atoms: C_6  and  C_16
    6  A    between atoms: C_6  and  C_26
    7  A    between atoms: C_7  and  C_31
    8  A    between atoms: C_14  and  C_28
    9  A    between atoms: C_16  and  C_27
   10  A    between atoms: C_19  and  C_24
   11  A    between atoms: C_27  and  N_32
                            x       y       z     vdW  Elec       q    Type
                         _______ _______ _______ _____ _____    ______ ____

>  <TORSDO>
F 11

$$$$
=
 OpenBabel11062410553D

 32 34  0  0  1  0  0  0  0  0999 V2000
  161.5180  210.0260  156.8330 C   0  0  0  0  0  2  0  0  0  0  0  0
  161.5000  211.4700  156.3470 C   0  0  0  0  0  2  0  0  0  0  0  0
  161.8290  209.0920  155.6690 C   0  0  0  0  0  2  0  0  0  0  0  0
  160.7760  209.2380  154.5710 C   0  0  1  0  0  3  0  0  0  0  0  0
  160.4350  211.6470  155.2700 C   0  0  0  0  0  2  0  0  0  0  0  0
  160.6910  210.6980  154.0970 C   0  0  2  0  0  3  0  0  0  0  0  0
  161.1130  208.3680  153.4530 N   0  0  0  0  0  2  0  0  0  0  0  0
  160.5320  206.3940  154.5630 O   0  0  0  0  0  0  0  0  0  0  0  0
  160.9710  206.9450  153.5180 C   0  0  0  0  0  0  0  0  0  0  0  0
  160.7710  204.6910  152.5130 C   0  0  0  0  0  2  0  0  0  0  0  0
  161.2060  204.3710  150.0740 C   0  0  0  0  0  0  0  0  0  0  0  0
  161.1760  205.8740  149.8380 C   0  0  2  0  0  3  0  0  0  0  0  0
  161.0730  203.8480  151.3070 C   0  0  0  0  0  3  0  0  0  0  0  0
  160.7650  206.7030  151.0630 C   0  0  0  0  0  2  0  0  0  0  0  0
  161.3300  206.1000  152.3430 C   0  0  1  0  0  3  0  0  0  0  0  0
  161.2090  206.6040  147.4140 C   0  0  0  0  0  1  0  0  0  0  0  0
  160.3420  206.2630  148.6180 C   0  0  0  0  0  2  0  0  0  0  0  0
  161.5250  203.4570  148.9320 C   0  0  0  0  0  2  0  0  0  0  0  0
  160.6220  202.2370  148.9530 C   0  0  0  0  0  2  0  0  0  0  0  0
  161.0540  201.2720  147.8700 C   0  0  0  0  0  2  0  0  0  0  0  0
  160.8020  201.8900  146.5110 C   0  0  0  0  0  1  0  0  0  0  0  0
  159.6470  210.8990  152.9920 C   0  0  0  0  0  2  0  0  0  0  0  0
  160.2170  211.5380  151.7280 C   0  0  0  0  0  2  0  0  0  0  0  0
  159.9750  213.0370  151.7210 C   0  0  0  0  0  2  0  0  0  0  0  0
  157.5950  213.2230  150.7910 C   0  0  1  0  0  3  0  0  0  0  0  0
  159.3800  213.6020  149.3090 C   0  0  0  0  0  0  0  0  0  0  0  0
  158.2030  213.6130  148.4210 C   0  0  0  0  0  3  0  0  0  0  0  0
  157.0260  213.4230  149.3800 C   0  0  0  0  0  3  0  0  0  0  0  0
  160.9190  213.5990  148.7490 S   0  0  0  0  0  0  0  0  0  0  0  0
  159.0330  213.3820  150.6650 N   0  0  0  0  0  0  0  0  0  0  0  0
  156.7440  213.7030  153.0860 C   0  0  0  0  0  1  0  0  0  0  0  0
  157.0170  214.2850  151.7140 C   0  0  0  0  0  2  0  0  0  0  0  0
  2  1  1  0  0  0  0
  3  1  1  0  0  0  0
  4  7  1  6  0  0  0
  4  3  1  0  0  0  0
  5  2  1  0  0  0  0
  6 22  1  6  0  0  0
  6  4  1  0  0  0  0
  6  5  1  0  0  0  0
  7  9  1  0  0  0  0
  9  8  2  0  0  0  0
 11 13  2  0  0  0  0
 12 17  1  6  0  0  0
 12 11  1  0  0  0  0
 12 14  1  0  0  0  0
 13 10  1  0  0  0  0
 14 15  1  0  0  0  0
 15 10  1  0  0  0  0
 15  9  1  1  0  0  0
 16 17  1  0  0  0  0
 18 19  1  0  0  0  0
 18 11  1  0  0  0  0
 20 19  1  0  0  0  0
 21 20  1  0  0  0  0
 23 22  1  0  0  0  0
 24 23  1  0  0  0  0
 25 32  1  1  0  0  0
 26 30  1  0  0  0  0
 27 26  1  0  0  0  0
 27 28  2  0  0  0  0
 28 25  1  0  0  0  0
 29 26  2  0  0  0  0
 30 25  1  0  0  0  0
 30 24  1  0  0  0  0
 32 31  1  0  0  0  0
M  END
>  <MODEL>
2

>  <REMARK>
 VINA RESULT:      -7.6      1.897      2.530
  Name = 
  11 active torsions:
  status: ('A' for Active; 'I' for Inactive)
    1  A    between atoms: C_1  and  C_20
    2  A    between atoms: C_2  and  C_12
    3  A    between atoms: C_2  and  C_20
    4  A    between atoms: N_3  and  C_15
    5  A    between atoms: C_6  and  C_16
    6  A    between atoms: C_6  and  C_26
    7  A    between atoms: C_7  and  C_31
    8  A    between atoms: C_14  and  C_28
    9  A    between atoms: C_16  and  C_27
   10  A    between atoms: C_19  and  C_24
   11  A    between atoms: C_27  and  N_32
                            x       y       z     vdW  Elec       q    Type
                         _______ _______ _______ _____ _____    ______ ____

>  <TORSDO>
F 11

$$$$
=
 OpenBabel11062410553D

 32 34  0  0  1  0  0  0  0  0999 V2000
  161.5150  206.2660  153.4410 C   0  0  0  0  0  2  0  0  0  0  0  0
  160.8510  205.1290  152.6730 C   0  0  0  0  0  2  0  0  0  0  0  0
  161.3080  207.5820  152.6980 C   0  0  0  0  0  2  0  0  0  0  0  0
  161.9110  207.5040  151.2960 C   0  0  1  0  0  3  0  0  0  0  0  0
  161.4580  205.0140  151.2790 C   0  0  0  0  0  2  0  0  0  0  0  0
  161.3030  206.3300  150.5130 C   0  0  2  0  0  3  0  0  0  0  0  0
  161.6680  208.7550  150.5910 N   0  0  0  0  0  2  0  0  0  0  0  0
  162.9680  210.0490  152.0400 O   0  0  0  0  0  0  0  0  0  0  0  0
  162.2260  210.0010  151.0220 C   0  0  0  0  0  0  0  0  0  0  0  0
  161.7620  210.9420  148.7810 C   0  0  0  0  0  2  0  0  0  0  0  0
  160.7530  213.2170  148.5690 C   0  0  0  0  0  0  0  0  0  0  0  0
  160.4100  213.2400  150.0520 C   0  0  2  0  0  3  0  0  0  0  0  0
  161.4170  212.1870  148.0140 C   0  0  0  0  0  3  0  0  0  0  0  0
  160.6800  211.9190  150.7860 C   0  0  0  0  0  2  0  0  0  0  0  0
  161.9450  211.2530  150.2630 C   0  0  1  0  0  3  0  0  0  0  0  0
  158.3130  212.9420  151.4360 C   0  0  0  0  0  1  0  0  0  0  0  0
  158.9870  213.7280  150.3210 C   0  0  0  0  0  2  0  0  0  0  0  0
  160.4670  214.4270  147.7330 C   0  0  0  0  0  2  0  0  0  0  0  0
  159.6490  214.0540  146.5120 C   0  0  0  0  0  2  0  0  0  0  0  0
  158.3620  213.3880  146.9520 C   0  0  0  0  0  2  0  0  0  0  0  0
  157.6950  212.7400  145.7570 C   0  0  0  0  0  1  0  0  0  0  0  0
  161.8750  206.2080  149.0940 C   0  0  0  0  0  2  0  0  0  0  0  0
  161.1060  205.2280  148.2120 C   0  0  0  0  0  2  0  0  0  0  0  0
  162.0380  204.1900  147.6130 C   0  0  0  0  0  2  0  0  0  0  0  0
  161.1310  201.7990  147.4590 C   0  0  1  0  0  3  0  0  0  0  0  0
  160.8120  203.2100  145.6060 C   0  0  0  0  0  0  0  0  0  0  0  0
  160.3410  201.9030  145.1130 C   0  0  0  0  0  3  0  0  0  0  0  0
  160.4910  200.9840  146.3270 C   0  0  0  0  0  3  0  0  0  0  0  0
  161.0170  204.5090  144.6310 S   0  0  0  0  0  0  0  0  0  0  0  0
  161.2620  203.1530  146.9480 N   0  0  0  0  0  0  0  0  0  0  0  0
  161.0130  201.5020  149.9330 C   0  0  0  0  0  1  0  0  0  0  0  0
  160.2140  201.7690  148.6720 C   0  0  0  0  0  2  0  0  0  0  0  0
  2  1  1  0  0  0  0
  3  1  1  0  0  0  0
  4  7  1  6  0  0  0
  4  3  1  0  0  0  0
  5  2  1  0  0  0  0
  6 22  1  6  0  0  0
  6  5  1  0  0  0  0
  6  4  1  0  0  0  0
  7  9  1  0  0  0  0
  9  8  2  0  0  0  0
 10 15  1  0  0  0  0
 11 12  1  0  0  0  0
 12 17  1  6  0  0  0
 12 14  1  0  0  0  0
 13 11  2  0  0  0  0
 13 10  1  0  0  0  0
 15 14  1  0  0  0  0
 15  9  1  1  0  0  0
 17 16  1  0  0  0  0
 18 11  1  0  0  0  0
 19 20  1  0  0  0  0
 19 18  1  0  0  0  0
 21 20  1  0  0  0  0
 23 22  1  0  0  0  0
 24 23  1  0  0  0  0
 25 32  1  1  0  0  0
 26 30  1  0  0  0  0
 27 26  1  0  0  0  0
 27 28  2  0  0  0  0
 28 25  1  0  0  0  0
 29 26  2  0  0  0  0
 30 25  1  0  0  0  0
 30 24  1  0  0  0  0
 32 31  1  0  0  0  0
M  END
>  <MODEL>
3

>  <REMARK>
 VINA RESULT:      -7.0      4.179      9.458
  Name = 
  11 active torsions:
  status: ('A' for Active; 'I' for Inactive)
    1  A    between atoms: C_1  and  C_20
    2  A    between atoms: C_2  and  C_12
    3  A    between atoms: C_2  and  C_20
    4  A    between atoms: N_3  and  C_15
    5  A    between atoms: C_6  and  C_16
    6  A    between atoms: C_6  and  C_26
    7  A    between atoms: C_7  and  C_31
    8  A    between atoms: C_14  and  C_28
    9  A    between atoms: C_16  and  C_27
   10  A    between atoms: C_19  and  C_24
   11  A    between atoms: C_27  and  N_32
                            x       y       z     vdW  Elec       q    Type
                         _______ _______ _______ _____ _____    ______ ____

>  <TORSDO>
F 11

$$$$
=
 OpenBabel11062410553D

 32 34  0  0  1  0  0  0  0  0999 V2000
  162.4970  213.3720  147.9150 C   0  0  0  0  0  2  0  0  0  0  0  0
  161.1520  214.0590  148.1220 C   0  0  0  0  0  2  0  0  0  0  0  0
  162.3760  211.8880  148.2430 C   0  0  0  0  0  2  0  0  0  0  0  0
  161.9330  211.6960  149.6930 C   0  0  1  0  0  3  0  0  0  0  0  0
  160.7030  213.9050  149.5710 C   0  0  0  0  0  2  0  0  0  0  0  0
  160.6050  212.4260  149.9520 C   0  0  2  0  0  3  0  0  0  0  0  0
  161.7860  210.2750  149.9740 N   0  0  0  0  0  2  0  0  0  0  0  0
  162.9410  210.3590  152.0050 O   0  0  0  0  0  0  0  0  0  0  0  0
  162.3220  209.6660  151.1530 C   0  0  0  0  0  0  0  0  0  0  0  0
  161.1980  207.9740  152.5690 C   0  0  0  0  0  2  0  0  0  0  0  0
  161.0050  205.6140  151.7740 C   0  0  0  0  0  0  0  0  0  0  0  0
  161.4220  206.0180  150.3670 C   0  0  2  0  0  3  0  0  0  0  0  0
  160.9600  206.5060  152.7800 C   0  0  0  0  0  3  0  0  0  0  0  0
  161.5600  207.5330  150.1560 C   0  0  0  0  0  2  0  0  0  0  0  0
  162.1410  208.2050  151.3920 C   0  0  1  0  0  3  0  0  0  0  0  0
  160.5330  206.2210  148.0070 C   0  0  0  0  0  1  0  0  0  0  0  0
  160.5350  205.4000  149.2880 C   0  0  0  0  0  2  0  0  0  0  0  0
  160.7710  204.1670  152.0810 C   0  0  0  0  0  2  0  0  0  0  0  0
  161.6830  203.2870  151.2460 C   0  0  0  0  0  2  0  0  0  0  0  0
  160.9570  202.0100  150.8820 C   0  0  0  0  0  2  0  0  0  0  0  0
  160.9140  201.8650  149.3750 C   0  0  0  0  0  1  0  0  0  0  0  0
  160.1150  212.2640  151.3960 C   0  0  0  0  0  2  0  0  0  0  0  0
  158.7510  212.9000  151.6490 C   0  0  0  0  0  2  0  0  0  0  0  0
  158.7340  213.6430  152.9730 C   0  0  0  0  0  2  0  0  0  0  0  0
  158.3530  211.6150  154.4920 C   0  0  1  0  0  3  0  0  0  0  0  0
  156.5870  213.1480  154.2500 C   0  0  0  0  0  0  0  0  0  0  0  0
  155.9730  212.0520  155.0230 C   0  0  0  0  0  3  0  0  0  0  0  0
  157.1270  211.0700  155.2360 C   0  0  0  0  0  3  0  0  0  0  0  0
  155.7200  214.3820  153.6120 S   0  0  0  0  0  0  0  0  0  0  0  0
  157.9490  212.9000  153.9480 N   0  0  0  0  0  0  0  0  0  0  0  0
  160.8000  211.3100  154.8690 C   0  0  0  0  0  1  0  0  0  0  0  0
  159.4970  211.7870  155.4800 C   0  0  0  0  0  2  0  0  0  0  0  0
  1  2  1  0  0  0  0
  1  3  1  0  0  0  0
  2  5  1  0  0  0  0
  3  4  1  0  0  0  0
  4  6  1  0  0  0  0
  4  7  1  6  0  0  0
  5  6  1  0  0  0  0
  6 22  1  1  0  0  0
  7  9  1  0  0  0  0
  9  8  2  0  0  0  0
 10 13  1  0  0  0  0
 11 18  1  0  0  0  0
 11 13  2  0  0  0  0
 12 17  1  6  0  0  0
 12 11  1  0  0  0  0
 14 12  1  0  0  0  0
 14 15  1  0  0  0  0
 15  9  1  6  0  0  0
 15 10  1  0  0  0  0
 16 17  1  0  0  0  0
 19 18  1  0  0  0  0
 20 19  1  0  0  0  0
 21 20  1  0  0  0  0
 22 23  1  0  0  0  0
 23 24  1  0  0  0  0
 24 30  1  0  0  0  0
 25 28  1  0  0  0  0
 25 32  1  1  0  0  0
 26 27  1  0  0  0  0
 27 28  2  0  0  0  0
 29 26  2  0  0  0  0
 30 26  1  0  0  0  0
 30 25  1  0  0  0  0
 31 32  1  0  0  0  0
M  END
>  <MODEL>
4

>  <REMARK>
 VINA RESULT:      -7.0      2.617      4.224
  Name = 
  11 active torsions:
  status: ('A' for Active; 'I' for Inactive)
    1  A    between atoms: C_1  and  C_20
    2  A    between atoms: C_2  and  C_12
    3  A    between atoms: C_2  and  C_20
    4  A    between atoms: N_3  and  C_15
    5  A    between atoms: C_6  and  C_16
    6  A    between atoms: C_6  and  C_26
    7  A    between atoms: C_7  and  C_31
    8  A    between atoms: C_14  and  C_28
    9  A    between atoms: C_16  and  C_27
   10  A    between atoms: C_19  and  C_24
   11  A    between atoms: C_27  and  N_32
                            x       y       z     vdW  Elec       q    Type
                         _______ _______ _______ _____ _____    ______ ____

>  <TORSDO>
F 11

$$$$
=
 OpenBabel11062410553D

 32 34  0  0  1  0  0  0  0  0999 V2000
  161.1540  213.3230  149.7090 C   0  0  0  0  0  2  0  0  0  0  0  0
  159.8780  213.6170  150.4900 C   0  0  0  0  0  2  0  0  0  0  0  0
  161.2940  211.8200  149.4950 C   0  0  0  0  0  2  0  0  0  0  0  0
  161.3480  211.0920  150.8380 C   0  0  1  0  0  3  0  0  0  0  0  0
  159.9220  212.9240  151.8460 C   0  0  0  0  0  2  0  0  0  0  0  0
  160.0990  211.4140  151.6750 C   0  0  2  0  0  3  0  0  0  0  0  0
  161.4410  209.6560  150.6110 N   0  0  0  0  0  2  0  0  0  0  0  0
  162.3070  209.8590  148.4490 O   0  0  0  0  0  0  0  0  0  0  0  0
  161.9280  209.1030  149.3830 C   0  0  0  0  0  0  0  0  0  0  0  0
  160.8230  206.9480  149.8900 C   0  0  0  0  0  2  0  0  0  0  0  0
  161.3940  204.9110  148.5610 C   0  0  0  0  0  0  0  0  0  0  0  0
  162.1190  205.7520  147.5210 C   0  0  2  0  0  3  0  0  0  0  0  0
  160.8550  205.4630  149.6630 C   0  0  0  0  0  3  0  0  0  0  0  0
  161.9830  207.2690  147.7230 C   0  0  0  0  0  2  0  0  0  0  0  0
  162.0040  207.6250  149.2030 C   0  0  1  0  0  3  0  0  0  0  0  0
  160.4310  205.9700  145.6480 C   0  0  0  0  0  1  0  0  0  0  0  0
  161.7550  205.3630  146.0890 C   0  0  0  0  0  2  0  0  0  0  0  0
  161.3970  203.4190  148.4270 C   0  0  0  0  0  2  0  0  0  0  0  0
  160.5560  202.7810  149.5170 C   0  0  0  0  0  2  0  0  0  0  0  0
  160.4220  201.2980  149.2470 C   0  0  0  0  0  2  0  0  0  0  0  0
  161.2110  200.9370  148.0060 C   0  0  0  0  0  1  0  0  0  0  0  0
  160.1030  210.7050  153.0360 C   0  0  0  0  0  2  0  0  0  0  0  0
  161.2870  211.0920  153.9180 C   0  0  0  0  0  2  0  0  0  0  0  0
  162.2490  209.9280  154.0750 C   0  0  0  0  0  2  0  0  0  0  0  0
  160.7710  207.8350  154.0370 C   0  0  1  0  0  3  0  0  0  0  0  0
  161.3570  208.7220  156.1340 C   0  0  0  0  0  0  0  0  0  0  0  0
  160.3870  207.6670  156.4790 C   0  0  0  0  0  3  0  0  0  0  0  0
  160.0370  207.0420  155.1270 C   0  0  0  0  0  3  0  0  0  0  0  0
  161.9150  209.8090  157.2240 S   0  0  0  0  0  0  0  0  0  0  0  0
  161.5800  208.8180  154.7380 N   0  0  0  0  0  0  0  0  0  0  0  0
  161.2010  205.4520  153.4400 C   0  0  0  0  0  1  0  0  0  0  0  0
  161.6520  206.8850  153.2400 C   0  0  0  0  0  2  0  0  0  0  0  0
  1  2  1  0  0  0  0
  2  5  1  0  0  0  0
  3  1  1  0  0  0  0
  3  4  1  0  0  0  0
  4  7  1  6  0  0  0
  4  6  1  0  0  0  0
  6  5  1  0  0  0  0
  6 22  1  1  0  0  0
  8  9  2  0  0  0  0
  9  7  1  0  0  0  0
 11 13  2  0  0  0  0
 12 17  1  6  0  0  0
 12 14  1  0  0  0  0
 12 11  1  0  0  0  0
 13 10  1  0  0  0  0
 14 15  1  0  0  0  0
 15  9  1  6  0  0  0
 15 10  1  0  0  0  0
 16 17  1  0  0  0  0
 18 11  1  0  0  0  0
 18 19  1  0  0  0  0
 20 19  1  0  0  0  0
 21 20  1  0  0  0  0
 22 23  1  0  0  0  0
 23 24  1  0  0  0  0
 24 30  1  0  0  0  0
 25 32  1  1  0  0  0
 25 30  1  0  0  0  0
 25 28  1  0  0  0  0
 26 27  1  0  0  0  0
 26 29  2  0  0  0  0
 28 27  2  0  0  0  0
 30 26  1  0  0  0  0
 32 31  1  0  0  0  0
M  END
>  <MODEL>
5

>  <REMARK>
 VINA RESULT:      -6.8      2.898      4.917
  Name = 
  11 active torsions:
  status: ('A' for Active; 'I' for Inactive)
    1  A    between atoms: C_1  and  C_20
    2  A    between atoms: C_2  and  C_12
    3  A    between atoms: C_2  and  C_20
    4  A    between atoms: N_3  and  C_15
    5  A    between atoms: C_6  and  C_16
    6  A    between atoms: C_6  and  C_26
    7  A    between atoms: C_7  and  C_31
    8  A    between atoms: C_14  and  C_28
    9  A    between atoms: C_16  and  C_27
   10  A    between atoms: C_19  and  C_24
   11  A    between atoms: C_27  and  N_32
                            x       y       z     vdW  Elec       q    Type
                         _______ _______ _______ _____ _____    ______ ____

>  <TORSDO>
F 11

$$$$
=
 OpenBabel11062410553D

 32 34  0  0  1  0  0  0  0  0999 V2000
  161.2520  209.4790  156.2800 C   0  0  0  0  0  2  0  0  0  0  0  0
  161.5240  210.9190  155.8600 C   0  0  0  0  0  2  0  0  0  0  0  0
  161.5530  208.5360  155.1200 C   0  0  0  0  0  2  0  0  0  0  0  0
  160.6810  208.8800  153.9120 C   0  0  1  0  0  3  0  0  0  0  0  0
  160.6430  211.2940  154.6730 C   0  0  0  0  0  2  0  0  0  0  0  0
  160.8900  210.3450  153.4980 C   0  0  2  0  0  3  0  0  0  0  0  0
  161.0120  207.9940  152.8040 N   0  0  0  0  0  2  0  0  0  0  0  0
  160.8780  206.0370  154.0750 O   0  0  0  0  0  0  0  0  0  0  0  0
  161.0990  206.5730  152.9570 C   0  0  0  0  0  0  0  0  0  0  0  0
  160.8420  204.3210  151.9630 C   0  0  0  0  0  2  0  0  0  0  0  0
  161.2820  203.9760  149.5280 C   0  0  0  0  0  0  0  0  0  0  0  0
  161.2960  205.4780  149.2830 C   0  0  2  0  0  3  0  0  0  0  0  0
  161.1280  203.4640  150.7630 C   0  0  0  0  0  3  0  0  0  0  0  0
  160.9010  206.3240  150.5020 C   0  0  0  0  0  2  0  0  0  0  0  0
  161.4410  205.7130  151.7880 C   0  0  1  0  0  3  0  0  0  0  0  0
  161.3640  206.3550  146.9110 C   0  0  0  0  0  1  0  0  0  0  0  0
  160.4800  205.8830  148.0560 C   0  0  0  0  0  2  0  0  0  0  0  0
  161.5820  203.0460  148.3930 C   0  0  0  0  0  2  0  0  0  0  0  0
  160.5580  201.9280  148.3300 C   0  0  0  0  0  2  0  0  0  0  0  0
  161.2540  200.6260  147.9990 C   0  0  0  0  0  2  0  0  0  0  0  0
  161.0100  200.2770  146.5460 C   0  0  0  0  0  1  0  0  0  0  0  0
  160.0370  210.7420  152.2860 C   0  0  0  0  0  2  0  0  0  0  0  0
  160.7690  211.6460  151.2980 C   0  0  0  0  0  2  0  0  0  0  0  0
  160.1570  213.0360  151.2770 C   0  0  0  0  0  2  0  0  0  0  0  0
  160.8130  213.9150  148.9620 C   0  0  1  0  0  3  0  0  0  0  0  0
  158.5230  213.6460  149.4200 C   0  0  0  0  0  0  0  0  0  0  0  0
  158.5230  214.3180  148.1080 C   0  0  0  0  0  3  0  0  0  0  0  0
  160.0090  214.4510  147.7700 C   0  0  0  0  0  3  0  0  0  0  0  0
  157.1660  213.4260  150.3090 S   0  0  0  0  0  0  0  0  0  0  0  0
  159.8330  213.4130  149.9090 N   0  0  0  0  0  0  0  0  0  0  0  0
  161.5620  212.5820  146.9910 C   0  0  0  0  0  1  0  0  0  0  0  0
  161.7210  212.7930  148.4840 C   0  0  0  0  0  2  0  0  0  0  0  0
  2  1  1  0  0  0  0
  3  1  1  0  0  0  0
  4  7  1  6  0  0  0
  4  3  1  0  0  0  0
  5  2  1  0  0  0  0
  6 22  1  6  0  0  0
  6  4  1  0  0  0  0
  6  5  1  0  0  0  0
  7  9  1  0  0  0  0
  9  8  2  0  0  0  0
 11 13  2  0  0  0  0
 12 17  1  6  0  0  0
 12 11  1  0  0  0  0
 12 14  1  0  0  0  0
 13 10  1  0  0  0  0
 14 15  1  0  0  0  0
 15 10  1  0  0  0  0
 15  9  1  1  0  0  0
 16 17  1  0  0  0  0
 18 11  1  0  0  0  0
 19 18  1  0  0  0  0
 20 19  1  0  0  0  0
 21 20  1  0  0  0  0
 23 22  1  0  0  0  0
 24 23  1  0  0  0  0
 25 32  1  6  0  0  0
 25 30  1  0  0  0  0
 26 30  1  0  0  0  0
 26 29  2  0  0  0  0
 27 26  1  0  0  0  0
 28 27  2  0  0  0  0
 28 25  1  0  0  0  0
 30 24  1  0  0  0  0
 31 32  1  0  0  0  0
M  END
>  <MODEL>
6

>  <REMARK>
 VINA RESULT:      -6.8      2.541      3.558
  Name = 
  11 active torsions:
  status: ('A' for Active; 'I' for Inactive)
    1  A    between atoms: C_1  and  C_20
    2  A    between atoms: C_2  and  C_12
    3  A    between atoms: C_2  and  C_20
    4  A    between atoms: N_3  and  C_15
    5  A    between atoms: C_6  and  C_16
    6  A    between atoms: C_6  and  C_26
    7  A    between atoms: C_7  and  C_31
    8  A    between atoms: C_14  and  C_28
    9  A    between atoms: C_16  and  C_27
   10  A    between atoms: C_19  and  C_24
   11  A    between atoms: C_27  and  N_32
                            x       y       z     vdW  Elec       q    Type
                         _______ _______ _______ _____ _____    ______ ____

>  <TORSDO>
F 11

$$$$
=
 OpenBabel11062410553D

 32 34  0  0  1  0  0  0  0  0999 V2000
  161.4650  205.2060  153.5030 C   0  0  0  0  0  2  0  0  0  0  0  0
  161.2280  204.5870  152.1300 C   0  0  0  0  0  2  0  0  0  0  0  0
  160.8840  206.6150  153.5420 C   0  0  0  0  0  2  0  0  0  0  0  0
  161.5390  207.4930  152.4760 C   0  0  1  0  0  3  0  0  0  0  0  0
  161.8990  205.4310  151.0520 C   0  0  0  0  0  2  0  0  0  0  0  0
  161.3680  206.8660  151.0830 C   0  0  2  0  0  3  0  0  0  0  0  0
  160.9430  208.8210  152.5040 N   0  0  0  0  0  2  0  0  0  0  0  0
  161.3710  209.1770  154.7740 O   0  0  0  0  0  0  0  0  0  0  0  0
  160.8860  209.6130  153.6950 C   0  0  0  0  0  0  0  0  0  0  0  0
  159.2590  211.0650  152.5260 C   0  0  0  0  0  2  0  0  0  0  0  0
  158.3870  213.1170  153.6510 C   0  0  0  0  0  0  0  0  0  0  0  0
  158.9510  212.6640  154.9890 C   0  0  2  0  0  3  0  0  0  0  0  0
  158.5810  212.4060  152.5250 C   0  0  0  0  0  3  0  0  0  0  0  0
  159.5470  211.2490  154.9810 C   0  0  0  0  0  2  0  0  0  0  0  0
  160.2650  210.9680  153.6680 C   0  0  1  0  0  3  0  0  0  0  0  0
  157.0280  211.6220  156.2620 C   0  0  0  0  0  1  0  0  0  0  0  0
  157.9520  212.8240  156.1350 C   0  0  0  0  0  2  0  0  0  0  0  0
  157.7160  214.4530  153.5530 C   0  0  0  0  0  2  0  0  0  0  0  0
  156.6300  214.4330  152.4940 C   0  0  0  0  0  2  0  0  0  0  0  0
  155.4190  213.6990  153.0280 C   0  0  0  0  0  2  0  0  0  0  0  0
  154.8580  214.4490  154.2180 C   0  0  0  0  0  1  0  0  0  0  0  0
  162.0090  207.7100  149.9740 C   0  0  0  0  0  2  0  0  0  0  0  0
  162.0440  207.0070  148.6200 C   0  0  0  0  0  2  0  0  0  0  0  0
  160.7170  206.3310  148.3250 C   0  0  0  0  0  2  0  0  0  0  0  0
  161.5840  203.9270  148.1450 C   0  0  1  0  0  3  0  0  0  0  0  0
  160.8730  204.9830  146.1680 C   0  0  0  0  0  0  0  0  0  0  0  0
  161.4570  203.7210  145.6790 C   0  0  0  0  0  3  0  0  0  0  0  0
  161.8750  202.9960  146.9600 C   0  0  0  0  0  3  0  0  0  0  0  0
  160.4260  206.2030  145.1730 S   0  0  0  0  0  0  0  0  0  0  0  0
  160.9430  205.1010  147.5790 N   0  0  0  0  0  0  0  0  0  0  0  0
  160.4570  201.7720  148.7030 C   0  0  0  0  0  1  0  0  0  0  0  0
  160.6490  203.2190  149.1130 C   0  0  0  0  0  2  0  0  0  0  0  0
  1  3  1  0  0  0  0
  2  1  1  0  0  0  0
  4  7  1  6  0  0  0
  4  3  1  0  0  0  0
  5  6  1  0  0  0  0
  5  2  1  0  0  0  0
  6 22  1  6  0  0  0
  6  4  1  0  0  0  0
  7  9  1  0  0  0  0
  9  8  2  0  0  0  0
 10 15  1  0  0  0  0
 11 12  1  0  0  0  0
 12 17  1  1  0  0  0
 13 10  1  0  0  0  0
 13 11  2  0  0  0  0
 14 12  1  0  0  0  0
 15  9  1  1  0  0  0
 15 14  1  0  0  0  0
 17 16  1  0  0  0  0
 18 11  1  0  0  0  0
 19 20  1  0  0  0  0
 19 18  1  0  0  0  0
 20 21  1  0  0  0  0
 23 22  1  0  0  0  0
 24 23  1  0  0  0  0
 25 32  1  1  0  0  0
 26 30  1  0  0  0  0
 27 26  1  0  0  0  0
 27 28  2  0  0  0  0
 28 25  1  0  0  0  0
 29 26  2  0  0  0  0
 30 25  1  0  0  0  0
 30 24  1  0  0  0  0
 31 32  1  0  0  0  0
M  END
>  <MODEL>
7

>  <REMARK>
 VINA RESULT:      -6.7      2.612      9.517
  Name = 
  11 active torsions:
  status: ('A' for Active; 'I' for Inactive)
    1  A    between atoms: C_1  and  C_20
    2  A    between atoms: C_2  and  C_12
    3  A    between atoms: C_2  and  C_20
    4  A    between atoms: N_3  and  C_15
    5  A    between atoms: C_6  and  C_16
    6  A    between atoms: C_6  and  C_26
    7  A    between atoms: C_7  and  C_31
    8  A    between atoms: C_14  and  C_28
    9  A    between atoms: C_16  and  C_27
   10  A    between atoms: C_19  and  C_24
   11  A    between atoms: C_27  and  N_32
                            x       y       z     vdW  Elec       q    Type
                         _______ _______ _______ _____ _____    ______ ____

>  <TORSDO>
F 11

$$$$
=
 OpenBabel11062410553D

 32 34  0  0  1  0  0  0  0  0999 V2000
  162.6340  213.8490  148.0090 C   0  0  0  0  0  2  0  0  0  0  0  0
  161.2910  214.4300  148.4370 C   0  0  0  0  0  2  0  0  0  0  0  0
  162.5200  212.3350  147.8650 C   0  0  0  0  0  2  0  0  0  0  0  0
  162.1000  211.7030  149.1910 C   0  0  1  0  0  3  0  0  0  0  0  0
  160.8650  213.8340  149.7740 C   0  0  0  0  0  2  0  0  0  0  0  0
  160.7750  212.3100  149.6820 C   0  0  2  0  0  3  0  0  0  0  0  0
  161.9580  210.2630  149.0220 N   0  0  0  0  0  2  0  0  0  0  0  0
  162.7230  209.7410  151.1680 O   0  0  0  0  0  0  0  0  0  0  0  0
  162.2950  209.3320  150.0560 C   0  0  0  0  0  0  0  0  0  0  0  0
  160.9420  207.3400  150.6270 C   0  0  0  0  0  2  0  0  0  0  0  0
  161.0580  205.3010  149.1890 C   0  0  0  0  0  0  0  0  0  0  0  0
  161.7840  206.0710  148.0960 C   0  0  2  0  0  3  0  0  0  0  0  0
  160.7280  205.8770  150.3590 C   0  0  0  0  0  3  0  0  0  0  0  0
  161.8980  207.5810  148.3520 C   0  0  0  0  0  2  0  0  0  0  0  0
  162.1300  207.8670  149.8300 C   0  0  1  0  0  3  0  0  0  0  0  0
  162.3060  205.5200  145.6820 C   0  0  0  0  0  1  0  0  0  0  0  0
  161.2140  205.8000  146.7040 C   0  0  0  0  0  2  0  0  0  0  0  0
  160.8240  203.8310  149.0160 C   0  0  0  0  0  2  0  0  0  0  0  0
  160.9580  203.1070  150.3430 C   0  0  0  0  0  2  0  0  0  0  0  0
  160.7170  201.6270  150.1360 C   0  0  0  0  0  2  0  0  0  0  0  0
  160.9360  201.2790  148.6790 C   0  0  0  0  0  1  0  0  0  0  0  0
  160.3070  211.7070  151.0120 C   0  0  0  0  0  2  0  0  0  0  0  0
  159.6830  212.7310  151.9560 C   0  0  0  0  0  2  0  0  0  0  0  0
  158.6930  212.0690  152.8980 C   0  0  0  0  0  2  0  0  0  0  0  0
  158.3090  213.9150  154.6330 C   0  0  1  0  0  3  0  0  0  0  0  0
  159.7530  212.1530  155.2140 C   0  0  0  0  0  0  0  0  0  0  0  0
  159.9050  213.0920  156.3400 C   0  0  0  0  0  3  0  0  0  0  0  0
  158.9290  214.2210  156.0030 C   0  0  0  0  0  3  0  0  0  0  0  0
  160.7170  210.8460  155.0070 S   0  0  0  0  0  0  0  0  0  0  0  0
  158.8390  212.6220  154.2380 N   0  0  0  0  0  0  0  0  0  0  0  0
  156.3760  214.2980  156.1620 C   0  0  0  0  0  1  0  0  0  0  0  0
  156.7960  213.8550  154.7740 C   0  0  0  0  0  2  0  0  0  0  0  0
  1  2  1  0  0  0  0
  2  5  1  0  0  0  0
  3  1  1  0  0  0  0
  3  4  1  0  0  0  0
  4  7  1  6  0  0  0
  4  6  1  0  0  0  0
  6  5  1  0  0  0  0
  6 22  1  1  0  0  0
  7  9  1  0  0  0  0
  9  8  2  0  0  0  0
 11 13  2  0  0  0  0
 12 17  1  6  0  0  0
 12 14  1  0  0  0  0
 12 11  1  0  0  0  0
 13 10  1  0  0  0  0
 14 15  1  0  0  0  0
 15  9  1  6  0  0  0
 15 10  1  0  0  0  0
 16 17  1  0  0  0  0
 18 11  1  0  0  0  0
 18 19  1  0  0  0  0
 20 19  1  0  0  0  0
 21 20  1  0  0  0  0
 22 23  1  0  0  0  0
 23 24  1  0  0  0  0
 24 30  1  0  0  0  0
 25 32  1  1  0  0  0
 25 28  1  0  0  0  0
 26 27  1  0  0  0  0
 28 27  2  0  0  0  0
 29 26  2  0  0  0  0
 30 25  1  0  0  0  0
 30 26  1  0  0  0  0
 32 31  1  0  0  0  0
M  END
>  <MODEL>
8

>  <REMARK>
 VINA RESULT:      -6.7      2.980      4.443
  Name = 
  11 active torsions:
  status: ('A' for Active; 'I' for Inactive)
    1  A    between atoms: C_1  and  C_20
    2  A    between atoms: C_2  and  C_12
    3  A    between atoms: C_2  and  C_20
    4  A    between atoms: N_3  and  C_15
    5  A    between atoms: C_6  and  C_16
    6  A    between atoms: C_6  and  C_26
    7  A    between atoms: C_7  and  C_31
    8  A    between atoms: C_14  and  C_28
    9  A    between atoms: C_16  and  C_27
   10  A    between atoms: C_19  and  C_24
   11  A    between atoms: C_27  and  N_32
                            x       y       z     vdW  Elec       q    Type
                         _______ _______ _______ _____ _____    ______ ____

>  <TORSDO>
F 11

$$$$
=
 OpenBabel11062410553D

 32 34  0  0  1  0  0  0  0  0999 V2000
  162.3730  213.9740  148.2560 C   0  0  0  0  0  2  0  0  0  0  0  0
  161.0260  214.4530  148.7850 C   0  0  0  0  0  2  0  0  0  0  0  0
  162.3290  212.4680  148.0180 C   0  0  0  0  0  2  0  0  0  0  0  0
  162.0100  211.7310  149.3180 C   0  0  1  0  0  3  0  0  0  0  0  0
  160.7000  213.7510  150.0990 C   0  0  0  0  0  2  0  0  0  0  0  0
  160.6830  212.2330  149.9100 C   0  0  2  0  0  3  0  0  0  0  0  0
  161.9330  210.3000  149.0610 N   0  0  0  0  0  2  0  0  0  0  0  0
  162.7090  209.6820  151.1780 O   0  0  0  0  0  0  0  0  0  0  0  0
  162.3050  209.3230  150.0400 C   0  0  0  0  0  0  0  0  0  0  0  0
  161.2490  207.1820  150.6920 C   0  0  0  0  0  2  0  0  0  0  0  0
  161.2190  205.2670  149.0880 C   0  0  0  0  0  0  0  0  0  0  0  0
  161.6480  206.1750  147.9440 C   0  0  2  0  0  3  0  0  0  0  0  0
  161.0940  205.7280  150.3460 C   0  0  0  0  0  3  0  0  0  0  0  0
  161.6990  207.6670  148.3030 C   0  0  0  0  0  2  0  0  0  0  0  0
  162.2070  207.8690  149.7250 C   0  0  1  0  0  3  0  0  0  0  0  0
  161.5600  205.0810  145.6640 C   0  0  0  0  0  1  0  0  0  0  0  0
  160.8280  205.9520  146.6740 C   0  0  0  0  0  2  0  0  0  0  0  0
  161.0650  203.7980  148.8380 C   0  0  0  0  0  2  0  0  0  0  0  0
  160.4760  203.1060  150.0530 C   0  0  0  0  0  2  0  0  0  0  0  0
  160.0790  201.6930  149.6850 C   0  0  0  0  0  2  0  0  0  0  0  0
  161.0650  201.1360  148.6800 C   0  0  0  0  0  1  0  0  0  0  0  0
  160.3150  211.5230  151.2190 C   0  0  0  0  0  2  0  0  0  0  0  0
  159.5640  212.4150  152.2030 C   0  0  0  0  0  2  0  0  0  0  0  0
  158.8640  211.5850  153.2640 C   0  0  0  0  0  2  0  0  0  0  0  0
  160.0810  210.6420  155.3130 C   0  0  1  0  0  3  0  0  0  0  0  0
  159.4760  212.9140  155.3500 C   0  0  0  0  0  0  0  0  0  0  0  0
  159.9770  212.6810  156.7170 C   0  0  0  0  0  3  0  0  0  0  0  0
  160.4270  211.2190  156.6920 C   0  0  0  0  0  3  0  0  0  0  0  0
  158.7120  214.2910  154.9040 S   0  0  0  0  0  0  0  0  0  0  0  0
  159.5370  211.7490  154.5450 N   0  0  0  0  0  0  0  0  0  0  0  0
  161.1080  208.7400  154.0670 C   0  0  0  0  0  1  0  0  0  0  0  0
  161.3510  210.1120  154.6640 C   0  0  0  0  0  2  0  0  0  0  0  0
  1  2  1  0  0  0  0
  2  5  1  0  0  0  0
  3  1  1  0  0  0  0
  3  4  1  0  0  0  0
  4  7  1  6  0  0  0
  4  6  1  0  0  0  0
  6  5  1  0  0  0  0
  6 22  1  1  0  0  0
  7  9  1  0  0  0  0
  9  8  2  0  0  0  0
 11 13  2  0  0  0  0
 12 17  1  6  0  0  0
 12 14  1  0  0  0  0
 12 11  1  0  0  0  0
 13 10  1  0  0  0  0
 14 15  1  0  0  0  0
 15  9  1  1  0  0  0
 15 10  1  0  0  0  0
 16 17  1  0  0  0  0
 18 11  1  0  0  0  0
 18 19  1  0  0  0  0
 20 19  1  0  0  0  0
 21 20  1  0  0  0  0
 22 23  1  0  0  0  0
 23 24  1  0  0  0  0
 24 30  1  0  0  0  0
 25 32  1  6  0  0  0
 25 28  1  0  0  0  0
 26 27  1  0  0  0  0
 28 27  2  0  0  0  0
 29 26  2  0  0  0  0
 30 25  1  0  0  0  0
 30 26  1  0  0  0  0
 31 32  1  0  0  0  0
M  END
>  <MODEL>
9

>  <REMARK>
 VINA RESULT:      -6.7      2.740      4.447
  Name = 
  11 active torsions:
  status: ('A' for Active; 'I' for Inactive)
    1  A    between atoms: C_1  and  C_20
    2  A    between atoms: C_2  and  C_12
    3  A    between atoms: C_2  and  C_20
    4  A    between atoms: N_3  and  C_15
    5  A    between atoms: C_6  and  C_16
    6  A    between atoms: C_6  and  C_26
    7  A    between atoms: C_7  and  C_31
    8  A    between atoms: C_14  and  C_28
    9  A    between atoms: C_16  and  C_27
   10  A    between atoms: C_19  and  C_24
   11  A    between atoms: C_27  and  N_32
                            x       y       z     vdW  Elec       q    Type
                         _______ _______ _______ _____ _____    ______ ____

>  <TORSDO>
F 11

$$$$
