=
 OpenBabel11052423183D

 27 31  0  0  1  0  0  0  0  0999 V2000
  162.3190  209.3700  149.0350 C   0  0  0  0  0  3  0  0  0  0  0  0
  161.4240  210.1760  151.2480 C   0  0  0  0  0  0  0  0  0  0  0  0
  161.3510  207.6650  151.3770 C   0  0  0  0  0  3  0  0  0  0  0  0
  160.1020  209.6180  154.9790 N   0  0  0  0  0  0  0  0  0  0  0  0
  159.4480  207.4590  156.0840 C   0  0  0  0  0  1  0  0  0  0  0  0
  161.0000  211.3430  152.0820 C   0  0  0  0  0  3  0  0  0  0  0  0
  161.2220  207.7710  154.2690 C   0  0  0  0  0  0  0  0  0  0  0  0
  160.1410  205.7580  148.3370 C   0  0  0  0  0  3  0  0  0  0  0  0
  161.5850  206.5680  154.1870 O   0  0  0  0  0  0  0  0  0  0  0  0
  160.9690  205.7280  147.2950 C   0  0  0  0  0  3  0  0  0  0  0  0
  161.7490  208.9060  153.4510 C   0  0  2  0  0  3  0  0  0  0  0  0
  161.7640  210.3910  149.9490 C   0  0  0  0  0  0  0  0  0  0  0  0
  160.2970  208.2590  155.2220 N   0  0  0  0  0  0  0  0  0  0  0  0
  160.8890  209.9960  154.0230 C   0  0  0  0  0  0  0  0  0  0  0  0
  162.0670  208.0650  148.9790 C   0  0  0  0  0  0  0  0  0  0  0  0
  161.5170  208.8560  151.9570 C   0  0  0  0  0  0  0  0  0  0  0  0
  160.3780  206.3790  149.6480 C   0  0  0  0  0  3  0  0  0  0  0  0
  160.7260  211.2410  153.3500 N   0  0  0  0  0  0  0  0  0  0  0  0
  162.3070  206.3260  147.2030 C   0  0  0  0  0  3  0  0  0  0  0  0
  162.7810  207.3380  147.9240 C   0  0  0  0  0  3  0  0  0  0  0  0
  161.1970  207.3860  149.9530 C   0  0  0  0  0  0  0  0  0  0  0  0
  161.5480  214.2510  148.1450 C   0  0  0  0  0  3  0  0  0  0  0  0
  161.6900  211.7470  149.3510 C   0  0  0  0  0  0  0  0  0  0  0  0
  160.6320  212.6140  149.6540 C   0  0  0  0  0  3  0  0  0  0  0  0
  160.5600  213.8730  149.0550 C   0  0  0  0  0  3  0  0  0  0  0  0
  162.5640  213.3960  147.8470 N   0  0  0  0  0  0  0  0  0  0  0  0
  162.6510  212.1670  148.4200 C   0  0  0  0  0  3  0  0  0  0  0  0
  1 12  1  0  0  0  0
  2 16  1  0  0  0  0
  2  6  1  0  0  0  0
  3 16  2  0  0  0  0
  4 13  1  0  0  0  0
  6 18  2  0  0  0  0
  7 13  1  0  0  0  0
  8 17  1  0  0  0  0
  9  7  2  0  0  0  0
 10  8  2  0  0  0  0
 11 16  1  6  0  0  0
 11 14  1  0  0  0  0
 11  7  1  0  0  0  0
 12  2  2  0  0  0  0
 13  5  1  0  0  0  0
 14  4  2  0  0  0  0
 15  1  2  0  0  0  0
 15 21  1  0  0  0  0
 17 21  2  0  0  0  0
 18 14  1  0  0  0  0
 19 10  1  0  0  0  0
 19 20  2  0  0  0  0
 20 15  1  0  0  0  0
 21  3  1  0  0  0  0
 22 25  1  0  0  0  0
 23 24  1  0  0  0  0
 23 12  1  0  0  0  0
 25 24  2  0  0  0  0
 26 22  2  0  0  0  0
 26 27  1  0  0  0  0
 27 23  2  0  0  0  0
M  END
>  <MODEL>
1

>  <REMARK>
 VINA RESULT:      -7.0      0.000      0.000
  Name = 
  1 active torsions:
  status: ('A' for Active; 'I' for Inactive)
    1  A    between atoms: C_9  and  C_15
                            x       y       z     vdW  Elec       q    Type
                         _______ _______ _______ _____ _____    ______ ____

>  <TORSDO>
F 1

$$$$
=
 OpenBabel11052423183D

 27 31  0  0  1  0  0  0  0  0999 V2000
  160.8990  208.8290  153.4740 C   0  0  0  0  0  3  0  0  0  0  0  0
  161.2590  209.0790  150.9930 C   0  0  0  0  0  0  0  0  0  0  0  0
  160.4470  211.3270  151.7770 C   0  0  0  0  0  3  0  0  0  0  0  0
  161.4150  211.1970  147.6060 N   0  0  0  0  0  0  0  0  0  0  0  0
  160.5980  213.5390  147.2050 C   0  0  0  0  0  1  0  0  0  0  0  0
  161.5950  208.4110  149.6980 C   0  0  0  0  0  3  0  0  0  0  0  0
  161.5110  212.5930  149.3990 C   0  0  0  0  0  0  0  0  0  0  0  0
  157.5960  211.4230  154.2680 C   0  0  0  0  0  3  0  0  0  0  0  0
  161.4070  213.6440  150.0850 O   0  0  0  0  0  0  0  0  0  0  0  0
  157.8880  211.0430  155.5100 C   0  0  0  0  0  3  0  0  0  0  0  0
  162.0030  211.2690  149.8870 C   0  0  2  0  0  3  0  0  0  0  0  0
  161.1080  208.3110  152.1050 C   0  0  0  0  0  0  0  0  0  0  0  0
  161.2450  212.5200  148.0110 N   0  0  0  0  0  0  0  0  0  0  0  0
  161.8360  210.4960  148.6100 C   0  0  0  0  0  0  0  0  0  0  0  0
  160.2440  209.9150  153.8720 C   0  0  0  0  0  0  0  0  0  0  0  0
  161.1980  210.5800  150.9650 C   0  0  0  0  0  0  0  0  0  0  0  0
  158.5160  211.5280  153.1260 C   0  0  0  0  0  3  0  0  0  0  0  0
  161.8270  209.0720  148.6020 N   0  0  0  0  0  0  0  0  0  0  0  0
  159.1950  210.6180  156.0270 C   0  0  0  0  0  3  0  0  0  0  0  0
  160.2110  210.1260  155.3230 C   0  0  0  0  0  3  0  0  0  0  0  0
  159.6630  210.8790  152.9230 C   0  0  0  0  0  0  0  0  0  0  0  0
  161.4110  204.0580  151.9720 C   0  0  0  0  0  3  0  0  0  0  0  0
  161.2410  206.8340  152.0410 C   0  0  0  0  0  0  0  0  0  0  0  0
  161.2240  206.1600  150.8130 C   0  0  0  0  0  3  0  0  0  0  0  0
  161.3150  204.7680  150.7740 C   0  0  0  0  0  3  0  0  0  0  0  0
  161.4130  204.7220  153.1600 N   0  0  0  0  0  0  0  0  0  0  0  0
  161.3250  206.0770  153.2180 C   0  0  0  0  0  3  0  0  0  0  0  0
  1 15  1  0  0  0  0
  2 12  1  0  0  0  0
  3 21  2  0  0  0  0
  4 13  1  0  0  0  0
  4 14  2  0  0  0  0
  5 13  1  0  0  0  0
  6  2  1  0  0  0  0
  7 11  1  0  0  0  0
  7  9  2  0  0  0  0
  8 10  1  0  0  0  0
 10 19  2  0  0  0  0
 11 14  1  6  0  0  0
 11 16  1  0  0  0  0
 12  1  2  0  0  0  0
 13  7  1  0  0  0  0
 15 20  2  0  0  0  0
 16  2  2  0  0  0  0
 16  3  1  0  0  0  0
 17  8  2  0  0  0  0
 18 14  1  0  0  0  0
 18  6  2  0  0  0  0
 20 19  1  0  0  0  0
 21 17  1  0  0  0  0
 21 15  1  0  0  0  0
 22 26  1  0  0  0  0
 23 12  1  0  0  0  0
 23 27  1  0  0  0  0
 24 23  2  0  0  0  0
 25 24  1  0  0  0  0
 25 22  2  0  0  0  0
 26 27  2  0  0  0  0
M  END
>  <MODEL>
2

>  <REMARK>
 VINA RESULT:      -6.5      2.795      7.202
  Name = 
  1 active torsions:
  status: ('A' for Active; 'I' for Inactive)
    1  A    between atoms: C_9  and  C_15
                            x       y       z     vdW  Elec       q    Type
                         _______ _______ _______ _____ _____    ______ ____

>  <TORSDO>
F 1

$$$$
=
 OpenBabel11052423183D

 27 31  0  0  1  0  0  0  0  0999 V2000
  161.5620  206.0230  153.0290 C   0  0  0  0  0  3  0  0  0  0  0  0
  161.4650  206.8560  150.6530 C   0  0  0  0  0  0  0  0  0  0  0  0
  161.4070  208.9230  152.0870 C   0  0  0  0  0  3  0  0  0  0  0  0
  161.4520  209.7350  147.8800 N   0  0  0  0  0  0  0  0  0  0  0  0
  161.1740  212.2100  148.2170 C   0  0  0  0  0  1  0  0  0  0  0  0
  161.3570  206.5090  149.2030 C   0  0  0  0  0  3  0  0  0  0  0  0
  162.2480  210.5560  149.8460 C   0  0  0  0  0  0  0  0  0  0  0  0
  159.2300  208.8850  155.1850 C   0  0  0  0  0  3  0  0  0  0  0  0
  162.5470  211.3850  150.7460 O   0  0  0  0  0  0  0  0  0  0  0  0
  159.6640  208.1370  156.1980 C   0  0  0  0  0  3  0  0  0  0  0  0
  162.4870  209.0810  149.8940 C   0  0  2  0  0  3  0  0  0  0  0  0
  161.3560  205.8610  151.5740 C   0  0  0  0  0  0  0  0  0  0  0  0
  161.6990  210.9090  148.5910 N   0  0  0  0  0  0  0  0  0  0  0  0
  161.8810  208.7250  148.5670 C   0  0  0  0  0  0  0  0  0  0  0  0
  161.2890  207.0660  153.8070 C   0  0  0  0  0  0  0  0  0  0  0  0
  161.7710  208.2930  150.9670 C   0  0  0  0  0  0  0  0  0  0  0  0
  159.8980  209.1160  153.8960 C   0  0  0  0  0  3  0  0  0  0  0  0
  161.5200  207.3830  148.2540 N   0  0  0  0  0  0  0  0  0  0  0  0
  160.9020  207.3510  156.2580 C   0  0  0  0  0  3  0  0  0  0  0  0
  161.6020  206.8830  155.2280 C   0  0  0  0  0  3  0  0  0  0  0  0
  160.7840  208.3410  153.2700 C   0  0  0  0  0  0  0  0  0  0  0  0
  160.6950  201.8390  150.3160 C   0  0  0  0  0  3  0  0  0  0  0  0
  161.1060  204.4580  151.1610 C   0  0  0  0  0  0  0  0  0  0  0  0
  161.4090  203.3890  152.0150 C   0  0  0  0  0  3  0  0  0  0  0  0
  161.1990  202.0740  151.5960 C   0  0  0  0  0  3  0  0  0  0  0  0
  160.4160  202.8840  149.4900 N   0  0  0  0  0  0  0  0  0  0  0  0
  160.6140  204.1720  149.8800 C   0  0  0  0  0  3  0  0  0  0  0  0
  1 15  1  0  0  0  0
  2 16  2  0  0  0  0
  2 12  1  0  0  0  0
  3 21  2  0  0  0  0
  4 14  2  0  0  0  0
  4 13  1  0  0  0  0
  5 13  1  0  0  0  0
  6  2  1  0  0  0  0
  7 11  1  0  0  0  0
  7  9  2  0  0  0  0
  8 10  1  0  0  0  0
 10 19  2  0  0  0  0
 11 14  1  6  0  0  0
 11 16  1  0  0  0  0
 12  1  2  0  0  0  0
 13  7  1  0  0  0  0
 15 20  2  0  0  0  0
 16  3  1  0  0  0  0
 17  8  2  0  0  0  0
 18 14  1  0  0  0  0
 18  6  2  0  0  0  0
 20 19  1  0  0  0  0
 21 15  1  0  0  0  0
 21 17  1  0  0  0  0
 22 25  1  0  0  0  0
 23 12  1  0  0  0  0
 23 24  1  0  0  0  0
 25 24  2  0  0  0  0
 26 27  1  0  0  0  0
 26 22  2  0  0  0  0
 27 23  2  0  0  0  0
M  END
>  <MODEL>
3

>  <REMARK>
 VINA RESULT:      -6.0      3.058      7.278
  Name = 
  1 active torsions:
  status: ('A' for Active; 'I' for Inactive)
    1  A    between atoms: C_9  and  C_15
                            x       y       z     vdW  Elec       q    Type
                         _______ _______ _______ _____ _____    ______ ____

>  <TORSDO>
F 1

$$$$
=
 OpenBabel11052423183D

 27 31  0  0  1  0  0  0  0  0999 V2000
  161.9310  203.6850  148.0770 C   0  0  0  0  0  3  0  0  0  0  0  0
  161.6630  206.1010  148.7410 C   0  0  0  0  0  0  0  0  0  0  0  0
  161.3890  204.7900  150.8710 C   0  0  0  0  0  3  0  0  0  0  0  0
  161.2110  209.0350  151.4180 N   0  0  0  0  0  0  0  0  0  0  0  0
  160.6370  208.8340  153.8560 C   0  0  0  0  0  1  0  0  0  0  0  0
  161.5570  207.5230  148.2930 C   0  0  0  0  0  3  0  0  0  0  0  0
  161.9550  207.1510  152.4510 C   0  0  0  0  0  0  0  0  0  0  0  0
  159.3240  201.6170  150.7600 C   0  0  0  0  0  3  0  0  0  0  0  0
  162.1740  206.3130  153.3650 O   0  0  0  0  0  0  0  0  0  0  0  0
  159.8760  200.5780  150.1360 C   0  0  0  0  0  3  0  0  0  0  0  0
  162.3770  207.0260  151.0230 C   0  0  2  0  0  3  0  0  0  0  0  0
  161.7050  205.1200  147.8000 C   0  0  0  0  0  0  0  0  0  0  0  0
  161.3300  208.4040  152.6550 N   0  0  0  0  0  0  0  0  0  0  0  0
  161.7820  208.3060  150.5120 C   0  0  0  0  0  0  0  0  0  0  0  0
  161.5530  202.9600  149.1250 C   0  0  0  0  0  0  0  0  0  0  0  0
  161.7960  205.8820  150.2210 C   0  0  0  0  0  0  0  0  0  0  0  0
  159.9200  202.9410  150.9900 C   0  0  0  0  0  3  0  0  0  0  0  0
  161.5820  208.5270  149.1200 N   0  0  0  0  0  0  0  0  0  0  0  0
  161.2050  200.5180  149.5130 C   0  0  0  0  0  3  0  0  0  0  0  0
  161.9270  201.5440  149.0710 C   0  0  0  0  0  3  0  0  0  0  0  0
  160.8780  203.5520  150.2920 C   0  0  0  0  0  0  0  0  0  0  0  0
  161.4770  205.9520  143.6230 C   0  0  0  0  0  3  0  0  0  0  0  0
  161.6200  205.4400  146.3540 C   0  0  0  0  0  0  0  0  0  0  0  0
  160.4360  205.9400  145.7940 C   0  0  0  0  0  3  0  0  0  0  0  0
  160.3620  206.2030  144.4250 C   0  0  0  0  0  3  0  0  0  0  0  0
  162.6160  205.4540  144.1740 N   0  0  0  0  0  0  0  0  0  0  0  0
  162.7070  205.1920  145.5050 C   0  0  0  0  0  3  0  0  0  0  0  0
  1 15  1  0  0  0  0
  2 16  2  0  0  0  0
  4 13  1  0  0  0  0
  6  2  1  0  0  0  0
  6 18  2  0  0  0  0
  7 13  1  0  0  0  0
  7  9  2  0  0  0  0
  8 17  2  0  0  0  0
 10  8  1  0  0  0  0
 11 16  1  6  0  0  0
 11  7  1  0  0  0  0
 12  1  2  0  0  0  0
 12  2  1  0  0  0  0
 13  5  1  0  0  0  0
 14 11  1  0  0  0  0
 14  4  2  0  0  0  0
 15 21  1  0  0  0  0
 16  3  1  0  0  0  0
 18 14  1  0  0  0  0
 19 10  2  0  0  0  0
 20 15  2  0  0  0  0
 20 19  1  0  0  0  0
 21  3  2  0  0  0  0
 21 17  1  0  0  0  0
 22 26  2  0  0  0  0
 22 25  1  0  0  0  0
 23 12  1  0  0  0  0
 24 23  1  0  0  0  0
 25 24  2  0  0  0  0
 26 27  1  0  0  0  0
 27 23  2  0  0  0  0
M  END
>  <MODEL>
4

>  <REMARK>
 VINA RESULT:      -5.4      3.407      5.537
  Name = 
  1 active torsions:
  status: ('A' for Active; 'I' for Inactive)
    1  A    between atoms: C_9  and  C_15
                            x       y       z     vdW  Elec       q    Type
                         _______ _______ _______ _____ _____    ______ ____

>  <TORSDO>
F 1

$$$$
=
 OpenBabel11052423183D

 27 31  0  0  1  0  0  0  0  0999 V2000
  162.0760  211.2900  150.5790 C   0  0  0  0  0  3  0  0  0  0  0  0
  161.4470  208.8740  150.9220 C   0  0  0  0  0  0  0  0  0  0  0  0
  161.8250  209.1190  148.4470 C   0  0  0  0  0  3  0  0  0  0  0  0
  160.8930  205.1190  149.6680 N   0  0  0  0  0  0  0  0  0  0  0  0
  160.8130  204.2720  147.3040 C   0  0  0  0  0  1  0  0  0  0  0  0
  160.9780  207.8210  151.8740 C   0  0  0  0  0  3  0  0  0  0  0  0
  162.1730  206.2560  148.1710 C   0  0  0  0  0  0  0  0  0  0  0  0
  160.4570  212.2050  146.7300 C   0  0  0  0  0  3  0  0  0  0  0  0
  162.7160  206.5710  147.0790 O   0  0  0  0  0  0  0  0  0  0  0  0
  161.0880  213.3490  146.9870 C   0  0  0  0  0  3  0  0  0  0  0  0
  162.3520  206.9610  149.4770 C   0  0  2  0  0  3  0  0  0  0  0  0
  161.5190  210.1620  151.3560 C   0  0  0  0  0  0  0  0  0  0  0  0
  161.3540  205.1170  148.3520 N   0  0  0  0  0  0  0  0  0  0  0  0
  161.4300  206.1110  150.3040 C   0  0  0  0  0  0  0  0  0  0  0  0
  162.0430  211.5070  149.2680 C   0  0  0  0  0  0  0  0  0  0  0  0
  161.8820  208.3950  149.5670 C   0  0  0  0  0  0  0  0  0  0  0  0
  160.8050  210.8630  147.2200 C   0  0  0  0  0  3  0  0  0  0  0  0
  160.9460  206.5570  151.5670 N   0  0  0  0  0  0  0  0  0  0  0  0
  162.2700  213.5420  147.8380 C   0  0  0  0  0  3  0  0  0  0  0  0
  162.6810  212.7510  148.8260 C   0  0  0  0  0  3  0  0  0  0  0  0
  161.4800  210.5310  148.3200 C   0  0  0  0  0  0  0  0  0  0  0  0
  160.4260  211.2860  155.3220 C   0  0  0  0  0  3  0  0  0  0  0  0
  161.1160  210.5300  152.7350 C   0  0  0  0  0  0  0  0  0  0  0  0
  159.8250  211.0020  153.0080 C   0  0  0  0  0  3  0  0  0  0  0  0
  159.4740  211.3780  154.3060 C   0  0  0  0  0  3  0  0  0  0  0  0
  161.6800  210.8390  155.0440 N   0  0  0  0  0  0  0  0  0  0  0  0
  162.0410  210.4700  153.7860 C   0  0  0  0  0  3  0  0  0  0  0  0
  1 12  1  0  0  0  0
  2 12  2  0  0  0  0
  2  6  1  0  0  0  0
  3 16  2  0  0  0  0
  4 14  2  0  0  0  0
  5 13  1  0  0  0  0
  7 13  1  0  0  0  0
  8 10  2  0  0  0  0
  8 17  1  0  0  0  0
  9  7  2  0  0  0  0
 10 19  1  0  0  0  0
 11  7  1  6  0  0  0
 11 16  1  0  0  0  0
 11 14  1  0  0  0  0
 12 23  1  0  0  0  0
 13  4  1  0  0  0  0
 14 18  1  0  0  0  0
 15  1  2  0  0  0  0
 16  2  1  0  0  0  0
 17 21  2  0  0  0  0
 18  6  2  0  0  0  0
 19 20  2  0  0  0  0
 20 15  1  0  0  0  0
 21  3  1  0  0  0  0
 21 15  1  0  0  0  0
 23 24  2  0  0  0  0
 23 27  1  0  0  0  0
 24 25  1  0  0  0  0
 25 22  2  0  0  0  0
 26 22  1  0  0  0  0
 27 26  2  0  0  0  0
M  END
>  <MODEL>
5

>  <REMARK>
 VINA RESULT:      -5.0      2.820      5.623
  Name = 
  1 active torsions:
  status: ('A' for Active; 'I' for Inactive)
    1  A    between atoms: C_9  and  C_15
                            x       y       z     vdW  Elec       q    Type
                         _______ _______ _______ _____ _____    ______ ____

>  <TORSDO>
F 1

$$$$
=
 OpenBabel11052423183D

 27 31  0  0  1  0  0  0  0  0999 V2000
  162.0790  209.9930  150.6520 C   0  0  0  0  0  3  0  0  0  0  0  0
  161.4150  207.5750  150.3990 C   0  0  0  0  0  0  0  0  0  0  0  0
  161.8290  208.4010  148.0590 C   0  0  0  0  0  3  0  0  0  0  0  0
  160.8310  204.2400  148.2750 N   0  0  0  0  0  0  0  0  0  0  0  0
  160.7710  203.9850  145.7760 C   0  0  0  0  0  1  0  0  0  0  0  0
  160.9210  206.3310  151.0660 C   0  0  0  0  0  3  0  0  0  0  0  0
  162.1450  205.6820  147.1080 C   0  0  0  0  0  0  0  0  0  0  0  0
  160.5230  211.8280  147.1190 C   0  0  0  0  0  3  0  0  0  0  0  0
  162.7060  206.2420  146.1280 O   0  0  0  0  0  0  0  0  0  0  0  0
  161.1650  212.8670  147.6490 C   0  0  0  0  0  3  0  0  0  0  0  0
  162.3160  206.0500  148.5460 C   0  0  2  0  0  3  0  0  0  0  0  0
  161.4980  208.7200  151.1300 C   0  0  0  0  0  0  0  0  0  0  0  0
  161.3100  204.5450  147.0020 N   0  0  0  0  0  0  0  0  0  0  0  0
  161.3720  205.0420  149.1360 C   0  0  0  0  0  0  0  0  0  0  0  0
  162.0660  210.5180  149.4300 C   0  0  0  0  0  0  0  0  0  0  0  0
  161.8620  207.4280  148.9730 C   0  0  0  0  0  0  0  0  0  0  0  0
  160.8470  210.4030  147.2760 C   0  0  0  0  0  3  0  0  0  0  0  0
  160.8770  205.1790  150.4650 N   0  0  0  0  0  0  0  0  0  0  0  0
  162.3370  212.8330  148.5330 C   0  0  0  0  0  3  0  0  0  0  0  0
  162.7250  211.8220  149.3060 C   0  0  0  0  0  3  0  0  0  0  0  0
  161.5040  209.8070  148.2710 C   0  0  0  0  0  0  0  0  0  0  0  0
  160.2120  208.8340  155.1950 C   0  0  0  0  0  3  0  0  0  0  0  0
  161.0810  208.7530  152.5530 C   0  0  0  0  0  0  0  0  0  0  0  0
  161.2090  207.6210  153.3700 C   0  0  0  0  0  3  0  0  0  0  0  0
  160.7790  207.6600  154.6970 C   0  0  0  0  0  3  0  0  0  0  0  0
  160.0790  209.9230  154.3890 N   0  0  0  0  0  0  0  0  0  0  0  0
  160.4920  209.9040  153.0940 C   0  0  0  0  0  3  0  0  0  0  0  0
  1 12  1  0  0  0  0
  2  6  1  0  0  0  0
  2 12  2  0  0  0  0
  3 21  1  0  0  0  0
  3 16  2  0  0  0  0
  4 14  2  0  0  0  0
  5 13  1  0  0  0  0
  8 17  1  0  0  0  0
  8 10  2  0  0  0  0
  9  7  2  0  0  0  0
 10 19  1  0  0  0  0
 11  7  1  6  0  0  0
 11 16  1  0  0  0  0
 11 14  1  0  0  0  0
 12 23  1  0  0  0  0
 13  7  1  0  0  0  0
 13  4  1  0  0  0  0
 14 18  1  0  0  0  0
 15  1  2  0  0  0  0
 16  2  1  0  0  0  0
 17 21  2  0  0  0  0
 18  6  2  0  0  0  0
 19 20  2  0  0  0  0
 20 15  1  0  0  0  0
 21 15  1  0  0  0  0
 23 27  2  0  0  0  0
 23 24  1  0  0  0  0
 24 25  2  0  0  0  0
 25 22  1  0  0  0  0
 26 22  2  0  0  0  0
 27 26  1  0  0  0  0
M  END
>  <MODEL>
6

>  <REMARK>
 VINA RESULT:      -4.1      3.245      6.340
  Name = 
  1 active torsions:
  status: ('A' for Active; 'I' for Inactive)
    1  A    between atoms: C_9  and  C_15
                            x       y       z     vdW  Elec       q    Type
                         _______ _______ _______ _____ _____    ______ ____

>  <TORSDO>
F 1

$$$$
