=
 OpenBabel11052422133D

 25 28  0  0  0  0  0  0  0  0999 V2000
  161.2970  205.2870  149.5260 C   0  0  0  0  0  0  0  0  0  0  0  0
  161.3250  206.2560  150.5290 C   0  0  0  0  0  0  0  0  0  0  0  0
  161.7420  206.9300  147.8260 C   0  0  0  0  0  3  0  0  0  0  0  0
  161.0920  203.9260  149.5350 C   0  0  0  0  0  0  0  0  0  0  0  0
  160.7710  201.2590  148.8690 C   0  0  0  0  0  3  0  0  0  0  0  0
  161.7710  207.8880  148.8000 N   0  0  0  0  0  0  0  0  0  0  0  0
  161.1870  203.5270  148.2180 C   0  0  0  0  0  0  0  0  0  0  0  0
  161.0300  202.1930  147.8480 C   0  0  0  0  0  3  0  0  0  0  0  0
  161.6090  208.6080  151.1000 C   0  0  0  0  0  0  0  0  0  0  0  0
  161.8640  210.0300  150.7290 C   0  0  0  0  0  1  0  0  0  0  0  0
  161.1210  205.9510  151.8780 C   0  0  0  0  0  3  0  0  0  0  0  0
  160.6750  201.6720  150.2170 C   0  0  0  0  0  3  0  0  0  0  0  0
  161.5010  205.6140  148.2050 C   0  0  0  0  0  0  0  0  0  0  0  0
  161.4330  204.5520  147.4260 O   0  0  0  0  0  0  0  0  0  0  0  0
  161.4030  208.2880  152.4460 C   0  0  0  0  0  3  0  0  0  0  0  0
  160.8370  203.0250  150.5670 C   0  0  0  0  0  3  0  0  0  0  0  0
  161.1610  206.9680  152.8400 C   0  0  0  0  0  0  0  0  0  0  0  0
  161.5720  207.5960  150.1270 C   0  0  0  0  0  0  0  0  0  0  0  0
  160.9480  206.6770  154.2610 C   0  0  0  0  0  3  0  0  0  0  0  0
  160.1860  207.4200  154.9960 N   0  0  0  0  0  0  0  0  0  0  0  0
  159.9890  207.1250  156.4060 C   0  0  0  0  0  2  0  0  0  0  0  0
  161.0840  207.7610  157.2530 C   0  0  0  0  0  2  0  0  0  0  0  0
  161.1980  209.2230  156.9810 C   0  0  0  0  0  0  0  0  0  0  0  0
  162.3930  209.7510  156.4210 N   0  0  0  0  0  1  0  0  0  0  0  0
  160.2420  209.9930  157.2590 O   0  0  0  0  0  0  0  0  0  0  0  0
  1  4  1  0  0  0  0
  1  2  2  0  0  0  0
  2 11  1  0  0  0  0
  3 13  2  0  0  0  0
  3  6  1  0  0  0  0
  4 16  1  0  0  0  0
  5 12  1  0  0  0  0
  6 18  2  0  0  0  0
  7  4  2  0  0  0  0
  8  7  1  0  0  0  0
  8  5  2  0  0  0  0
  9 15  2  0  0  0  0
 10  9  1  0  0  0  0
 11 17  2  0  0  0  0
 12 16  2  0  0  0  0
 13  1  1  0  0  0  0
 14 13  1  0  0  0  0
 14  7  1  0  0  0  0
 15 17  1  0  0  0  0
 17 19  1  0  0  0  0
 18  2  1  0  0  0  0
 18  9  1  0  0  0  0
 19 20  2  0  0  0  0
 20 21  1  0  0  0  0
 21 22  1  0  0  0  0
 23 22  1  0  0  0  0
 23 25  2  0  0  0  0
 24 23  1  0  0  0  0
M  END
>  <MODEL>
1

>  <REMARK>
 VINA RESULT:      -9.9      0.000      0.000
  Name = 
  4 active torsions:
  status: ('A' for Active; 'I' for Inactive)
    1  A    between atoms: C_2  and  C_25
    2  A    between atoms: C_6  and  C_23
    3  A    between atoms: N_15  and  C_21
    4  A    between atoms: C_21  and  C_25
                            x       y       z     vdW  Elec       q    Type
                         _______ _______ _______ _____ _____    ______ ____

>  <TORSDO>
F 4

$$$$
=
 OpenBabel11052422133D

 25 28  0  0  0  0  0  0  0  0999 V2000
  161.1200  204.3780  149.7780 C   0  0  0  0  0  0  0  0  0  0  0  0
  161.2820  205.6940  150.2110 C   0  0  0  0  0  0  0  0  0  0  0  0
  160.7740  203.6020  152.0290 C   0  0  0  0  0  3  0  0  0  0  0  0
  161.1520  203.7830  148.5370 C   0  0  0  0  0  0  0  0  0  0  0  0
  161.0890  202.0130  146.4110 C   0  0  0  0  0  3  0  0  0  0  0  0
  160.9310  204.8880  152.4650 N   0  0  0  0  0  0  0  0  0  0  0  0
  160.9200  202.4420  148.7620 C   0  0  0  0  0  0  0  0  0  0  0  0
  160.8820  201.5240  147.7150 C   0  0  0  0  0  3  0  0  0  0  0  0
  161.3360  207.2400  152.0950 C   0  0  0  0  0  0  0  0  0  0  0  0
  161.2380  207.5410  153.5510 C   0  0  0  0  0  1  0  0  0  0  0  0
  161.5360  206.7510  149.3330 C   0  0  0  0  0  3  0  0  0  0  0  0
  161.3260  203.3880  146.1850 C   0  0  0  0  0  3  0  0  0  0  0  0
  160.8710  203.3540  150.6640 C   0  0  0  0  0  0  0  0  0  0  0  0
  160.7520  202.1960  150.0460 O   0  0  0  0  0  0  0  0  0  0  0  0
  161.5890  208.2890  151.2040 C   0  0  0  0  0  3  0  0  0  0  0  0
  161.3600  204.2960  147.2590 C   0  0  0  0  0  3  0  0  0  0  0  0
  161.6890  208.0520  149.8280 C   0  0  0  0  0  0  0  0  0  0  0  0
  161.1800  205.9320  151.6080 C   0  0  0  0  0  0  0  0  0  0  0  0
  161.9580  209.1790  148.9310 C   0  0  0  0  0  3  0  0  0  0  0  0
  162.1010  210.3830  149.3820 N   0  0  0  0  0  0  0  0  0  0  0  0
  162.3610  211.4940  148.4800 C   0  0  0  0  0  2  0  0  0  0  0  0
  161.2290  212.5120  148.5310 C   0  0  0  0  0  2  0  0  0  0  0  0
  160.6070  212.6980  147.1890 C   0  0  0  0  0  0  0  0  0  0  0  0
  161.4280  212.9110  146.0480 N   0  0  0  0  0  1  0  0  0  0  0  0
  159.3540  212.6800  147.0660 O   0  0  0  0  0  0  0  0  0  0  0  0
  1  2  2  0  0  0  0
  1 13  1  0  0  0  0
  2 18  1  0  0  0  0
  3  6  1  0  0  0  0
  4  7  1  0  0  0  0
  4  1  1  0  0  0  0
  5  8  1  0  0  0  0
  7 14  1  0  0  0  0
  8  7  2  0  0  0  0
  9 10  1  0  0  0  0
 11 17  2  0  0  0  0
 11  2  1  0  0  0  0
 12  5  2  0  0  0  0
 12 16  1  0  0  0  0
 13  3  2  0  0  0  0
 14 13  1  0  0  0  0
 15  9  2  0  0  0  0
 16  4  2  0  0  0  0
 17 15  1  0  0  0  0
 18  9  1  0  0  0  0
 18  6  2  0  0  0  0
 19 20  2  0  0  0  0
 19 17  1  0  0  0  0
 21 22  1  0  0  0  0
 21 20  1  0  0  0  0
 23 22  1  0  0  0  0
 24 23  1  0  0  0  0
 25 23  2  0  0  0  0
M  END
>  <MODEL>
2

>  <REMARK>
 VINA RESULT:      -9.6      3.116      5.540
  Name = 
  4 active torsions:
  status: ('A' for Active; 'I' for Inactive)
    1  A    between atoms: C_2  and  C_25
    2  A    between atoms: C_6  and  C_23
    3  A    between atoms: N_15  and  C_21
    4  A    between atoms: C_21  and  C_25
                            x       y       z     vdW  Elec       q    Type
                         _______ _______ _______ _____ _____    ______ ____

>  <TORSDO>
F 4

$$$$
=
 OpenBabel11052422133D

 25 28  0  0  0  0  0  0  0  0999 V2000
  161.4180  205.1000  148.9440 C   0  0  0  0  0  0  0  0  0  0  0  0
  161.5000  206.3220  149.6110 C   0  0  0  0  0  0  0  0  0  0  0  0
  161.9480  206.1330  146.8370 C   0  0  0  0  0  3  0  0  0  0  0  0
  161.1400  203.8170  149.3570 C   0  0  0  0  0  0  0  0  0  0  0  0
  160.6740  201.0940  149.5140 C   0  0  0  0  0  3  0  0  0  0  0  0
  162.0300  207.3350  147.4800 N   0  0  0  0  0  0  0  0  0  0  0  0
  161.2110  203.0370  148.2210 C   0  0  0  0  0  0  0  0  0  0  0  0
  160.9820  201.6640  148.2650 C   0  0  0  0  0  3  0  0  0  0  0  0
  161.9100  208.7190  149.4560 C   0  0  0  0  0  0  0  0  0  0  0  0
  162.2420  209.9490  148.6800 C   0  0  0  0  0  1  0  0  0  0  0  0
  161.2810  206.4460  150.9860 C   0  0  0  0  0  3  0  0  0  0  0  0
  160.6030  201.8950  150.6760 C   0  0  0  0  0  3  0  0  0  0  0  0
  161.6370  205.0050  147.5880 C   0  0  0  0  0  0  0  0  0  0  0  0
  161.5110  203.7640  147.1620 O   0  0  0  0  0  0  0  0  0  0  0  0
  161.6900  208.8290  150.8330 C   0  0  0  0  0  3  0  0  0  0  0  0
  160.8380  203.2810  150.6070 C   0  0  0  0  0  3  0  0  0  0  0  0
  161.3770  207.7010  151.6010 C   0  0  0  0  0  0  0  0  0  0  0  0
  161.8170  207.4650  148.8300 C   0  0  0  0  0  0  0  0  0  0  0  0
  161.1520  207.8610  153.0400 C   0  0  0  0  0  3  0  0  0  0  0  0
  160.8010  206.8630  153.7850 N   0  0  0  0  0  0  0  0  0  0  0  0
  160.5740  207.0370  155.2100 C   0  0  0  0  0  2  0  0  0  0  0  0
  161.4000  208.1960  155.7550 C   0  0  0  0  0  2  0  0  0  0  0  0
  160.5250  209.3000  156.2450 C   0  0  0  0  0  0  0  0  0  0  0  0
  160.9910  210.1790  157.2610 N   0  0  0  0  0  1  0  0  0  0  0  0
  159.3680  209.4460  155.7720 O   0  0  0  0  0  0  0  0  0  0  0  0
  1  4  1  0  0  0  0
  1  2  1  0  0  0  0
  2 11  1  0  0  0  0
  3  6  2  0  0  0  0
  3 13  1  0  0  0  0
  4 16  1  0  0  0  0
  5 12  1  0  0  0  0
  6 18  1  0  0  0  0
  7  8  1  0  0  0  0
  7  4  2  0  0  0  0
  8  5  2  0  0  0  0
  9 15  2  0  0  0  0
 10  9  1  0  0  0  0
 11 17  2  0  0  0  0
 13  1  2  0  0  0  0
 14 13  1  0  0  0  0
 14  7  1  0  0  0  0
 15 17  1  0  0  0  0
 16 12  2  0  0  0  0
 17 19  1  0  0  0  0
 18  9  1  0  0  0  0
 18  2  2  0  0  0  0
 19 20  2  0  0  0  0
 20 21  1  0  0  0  0
 21 22  1  0  0  0  0
 22 23  1  0  0  0  0
 23 24  1  0  0  0  0
 25 23  2  0  0  0  0
M  END
>  <MODEL>
3

>  <REMARK>
 VINA RESULT:      -9.4      1.105      1.259
  Name = 
  4 active torsions:
  status: ('A' for Active; 'I' for Inactive)
    1  A    between atoms: C_2  and  C_25
    2  A    between atoms: C_6  and  C_23
    3  A    between atoms: N_15  and  C_21
    4  A    between atoms: C_21  and  C_25
                            x       y       z     vdW  Elec       q    Type
                         _______ _______ _______ _____ _____    ______ ____

>  <TORSDO>
F 4

$$$$
=
 OpenBabel11052422133D

 25 28  0  0  0  0  0  0  0  0999 V2000
  161.2250  208.3110  153.0880 C   0  0  0  0  0  0  0  0  0  0  0  0
  161.2260  207.5280  151.9340 C   0  0  0  0  0  0  0  0  0  0  0  0
  162.0270  210.2280  151.8760 C   0  0  0  0  0  3  0  0  0  0  0  0
  160.8900  208.0570  154.3990 C   0  0  0  0  0  0  0  0  0  0  0  0
  160.3930  208.2150  157.1170 C   0  0  0  0  0  3  0  0  0  0  0  0
  162.0330  209.4700  150.7390 N   0  0  0  0  0  0  0  0  0  0  0  0
  161.1010  209.2430  155.0720 C   0  0  0  0  0  0  0  0  0  0  0  0
  160.8620  209.3570  156.4400 C   0  0  0  0  0  3  0  0  0  0  0  0
  161.6700  207.4050  149.5410 C   0  0  0  0  0  0  0  0  0  0  0  0
  162.1060  208.0130  148.2510 C   0  0  0  0  0  1  0  0  0  0  0  0
  160.8350  206.1860  151.9330 C   0  0  0  0  0  3  0  0  0  0  0  0
  160.1770  207.0030  156.4230 C   0  0  0  0  0  3  0  0  0  0  0  0
  161.6160  209.6300  153.0620 C   0  0  0  0  0  0  0  0  0  0  0  0
  161.5390  210.1830  154.2560 O   0  0  0  0  0  0  0  0  0  0  0  0
  161.2750  206.0620  149.5540 C   0  0  0  0  0  3  0  0  0  0  0  0
  160.4260  206.9120  155.0420 C   0  0  0  0  0  3  0  0  0  0  0  0
  160.8580  205.4500  150.7410 C   0  0  0  0  0  0  0  0  0  0  0  0
  161.6500  208.1510  150.7300 C   0  0  0  0  0  0  0  0  0  0  0  0
  160.4550  204.0410  150.7110 C   0  0  0  0  0  3  0  0  0  0  0  0
  161.3300  203.0880  150.6860 N   0  0  0  0  0  0  0  0  0  0  0  0
  160.9160  201.6950  150.6500 C   0  0  0  0  0  2  0  0  0  0  0  0
  160.1200  201.3970  149.3850 C   0  0  0  0  0  2  0  0  0  0  0  0
  161.0110  201.3100  148.1930 C   0  0  0  0  0  0  0  0  0  0  0  0
  161.2050  202.4500  147.3660 N   0  0  0  0  0  1  0  0  0  0  0  0
  161.5810  200.2240  147.9080 O   0  0  0  0  0  0  0  0  0  0  0  0
  1  4  1  0  0  0  0
  2  1  1  0  0  0  0
  3 13  1  0  0  0  0
  4 16  2  0  0  0  0
  4  7  1  0  0  0  0
  6  3  2  0  0  0  0
  7  8  2  0  0  0  0
  8  5  1  0  0  0  0
  9 15  2  0  0  0  0
  9 18  1  0  0  0  0
 10  9  1  0  0  0  0
 11  2  1  0  0  0  0
 12  5  2  0  0  0  0
 13  1  2  0  0  0  0
 13 14  1  0  0  0  0
 14  7  1  0  0  0  0
 15 17  1  0  0  0  0
 16 12  1  0  0  0  0
 17 11  2  0  0  0  0
 18  6  1  0  0  0  0
 18  2  2  0  0  0  0
 19 17  1  0  0  0  0
 20 19  2  0  0  0  0
 21 20  1  0  0  0  0
 22 21  1  0  0  0  0
 23 22  1  0  0  0  0
 24 23  1  0  0  0  0
 25 23  2  0  0  0  0
M  END
>  <MODEL>
4

>  <REMARK>
 VINA RESULT:      -8.8      2.144      7.385
  Name = 
  4 active torsions:
  status: ('A' for Active; 'I' for Inactive)
    1  A    between atoms: C_2  and  C_25
    2  A    between atoms: C_6  and  C_23
    3  A    between atoms: N_15  and  C_21
    4  A    between atoms: C_21  and  C_25
                            x       y       z     vdW  Elec       q    Type
                         _______ _______ _______ _____ _____    ______ ____

>  <TORSDO>
F 4

$$$$
=
 OpenBabel11052422133D

 25 28  0  0  0  0  0  0  0  0999 V2000
  161.3750  205.4980  149.2460 C   0  0  0  0  0  0  0  0  0  0  0  0
  161.4600  206.7820  149.7850 C   0  0  0  0  0  0  0  0  0  0  0  0
  161.8190  206.3210  147.0290 C   0  0  0  0  0  3  0  0  0  0  0  0
  161.1290  204.2610  149.7950 C   0  0  0  0  0  0  0  0  0  0  0  0
  160.7090  201.5620  150.2390 C   0  0  0  0  0  3  0  0  0  0  0  0
  161.9050  207.5830  147.5460 N   0  0  0  0  0  0  0  0  0  0  0  0
  161.1740  203.3710  148.7400 C   0  0  0  0  0  0  0  0  0  0  0  0
  160.9660  202.0070  148.9290 C   0  0  0  0  0  3  0  0  0  0  0  0
  161.8310  209.1560  149.3760 C   0  0  0  0  0  0  0  0  0  0  0  0
  162.1180  210.3060  148.4710 C   0  0  0  0  0  1  0  0  0  0  0  0
  161.2860  207.0410  151.1470 C   0  0  0  0  0  3  0  0  0  0  0  0
  160.6640  202.4750  151.3160 C   0  0  0  0  0  3  0  0  0  0  0  0
  161.5500  205.2710  147.9000 C   0  0  0  0  0  0  0  0  0  0  0  0
  161.4280  203.9920  147.6050 O   0  0  0  0  0  0  0  0  0  0  0  0
  161.6550  209.4010  150.7430 C   0  0  0  0  0  3  0  0  0  0  0  0
  160.8770  203.8490  151.1010 C   0  0  0  0  0  3  0  0  0  0  0  0
  161.3840  208.3530  151.6290 C   0  0  0  0  0  0  0  0  0  0  0  0
  161.7350  207.8450  148.8830 C   0  0  0  0  0  0  0  0  0  0  0  0
  161.2040  208.6540  153.0520 C   0  0  0  0  0  3  0  0  0  0  0  0
  161.6320  209.7600  153.5690 N   0  0  0  0  0  0  0  0  0  0  0  0
  161.4530  210.0430  154.9830 C   0  0  0  0  0  2  0  0  0  0  0  0
  160.2890  209.2440  155.5550 C   0  0  0  0  0  2  0  0  0  0  0  0
  160.7720  208.0880  156.3640 C   0  0  0  0  0  0  0  0  0  0  0  0
  159.9170  206.9750  156.5950 N   0  0  0  0  0  1  0  0  0  0  0  0
  161.9310  208.1010  156.8550 O   0  0  0  0  0  0  0  0  0  0  0  0
  1  2  1  0  0  0  0
  1  4  1  0  0  0  0
  2 11  1  0  0  0  0
  3  6  2  0  0  0  0
  3 13  1  0  0  0  0
  4 16  1  0  0  0  0
  5 12  1  0  0  0  0
  6 18  1  0  0  0  0
  7  8  1  0  0  0  0
  7  4  2  0  0  0  0
  8  5  2  0  0  0  0
  9 15  2  0  0  0  0
 10  9  1  0  0  0  0
 11 17  2  0  0  0  0
 13  1  2  0  0  0  0
 14 13  1  0  0  0  0
 14  7  1  0  0  0  0
 15 17  1  0  0  0  0
 16 12  2  0  0  0  0
 17 19  1  0  0  0  0
 18  9  1  0  0  0  0
 18  2  2  0  0  0  0
 19 20  2  0  0  0  0
 20 21  1  0  0  0  0
 21 22  1  0  0  0  0
 22 23  1  0  0  0  0
 23 24  1  0  0  0  0
 23 25  2  0  0  0  0
M  END
>  <MODEL>
5

>  <REMARK>
 VINA RESULT:      -8.8      1.352      1.855
  Name = 
  4 active torsions:
  status: ('A' for Active; 'I' for Inactive)
    1  A    between atoms: C_2  and  C_25
    2  A    between atoms: C_6  and  C_23
    3  A    between atoms: N_15  and  C_21
    4  A    between atoms: C_21  and  C_25
                            x       y       z     vdW  Elec       q    Type
                         _______ _______ _______ _____ _____    ______ ____

>  <TORSDO>
F 4

$$$$
=
 OpenBabel11052422133D

 25 28  0  0  0  0  0  0  0  0999 V2000
  161.0370  207.4500  152.5540 C   0  0  0  0  0  0  0  0  0  0  0  0
  161.0560  206.5780  151.4660 C   0  0  0  0  0  0  0  0  0  0  0  0
  161.1910  205.6240  154.1130 C   0  0  0  0  0  3  0  0  0  0  0  0
  160.9590  208.8200  152.6630 C   0  0  0  0  0  0  0  0  0  0  0  0
  160.8310  211.4340  153.5620 C   0  0  0  0  0  3  0  0  0  0  0  0
  161.2100  204.7600  153.0540 N   0  0  0  0  0  0  0  0  0  0  0  0
  160.9840  209.0870  154.0170 C   0  0  0  0  0  0  0  0  0  0  0  0
  160.9210  210.3910  154.5030 C   0  0  0  0  0  3  0  0  0  0  0  0
  161.1670  204.2700  150.6900 C   0  0  0  0  0  0  0  0  0  0  0  0
  161.2610  202.8030  150.9370 C   0  0  0  0  0  1  0  0  0  0  0  0
  160.9890  207.0220  150.1420 C   0  0  0  0  0  3  0  0  0  0  0  0
  160.8060  211.1570  152.1770 C   0  0  0  0  0  3  0  0  0  0  0  0
  161.1030  206.9860  153.8480 C   0  0  0  0  0  0  0  0  0  0  0  0
  161.0710  207.9750  154.7200 O   0  0  0  0  0  0  0  0  0  0  0  0
  161.1000  204.7290  149.3690 C   0  0  0  0  0  3  0  0  0  0  0  0
  160.8710  209.8310  151.7090 C   0  0  0  0  0  3  0  0  0  0  0  0
  161.0120  206.0980  149.0900 C   0  0  0  0  0  0  0  0  0  0  0  0
  161.1460  205.1890  151.7510 C   0  0  0  0  0  0  0  0  0  0  0  0
  160.9420  206.5350  147.6930 C   0  0  0  0  0  3  0  0  0  0  0  0
  160.4620  205.7680  146.7680 N   0  0  0  0  0  0  0  0  0  0  0  0
  160.4040  206.2120  145.3850 C   0  0  0  0  0  2  0  0  0  0  0  0
  161.4190  205.4630  144.5300 C   0  0  0  0  0  2  0  0  0  0  0  0
  161.9870  204.2960  145.2640 C   0  0  0  0  0  0  0  0  0  0  0  0
  161.2050  203.1230  145.4490 N   0  0  0  0  0  1  0  0  0  0  0  0
  163.1540  204.3520  145.7320 O   0  0  0  0  0  0  0  0  0  0  0  0
  1  4  1  0  0  0  0
  1 13  2  0  0  0  0
  2 18  1  0  0  0  0
  2  1  1  0  0  0  0
  4  7  1  0  0  0  0
  5  8  1  0  0  0  0
  6  3  2  0  0  0  0
  7  8  2  0  0  0  0
  7 14  1  0  0  0  0
  9 10  1  0  0  0  0
  9 18  2  0  0  0  0
 11  2  2  0  0  0  0
 12  5  2  0  0  0  0
 13  3  1  0  0  0  0
 13 14  1  0  0  0  0
 15  9  1  0  0  0  0
 16 12  1  0  0  0  0
 16  4  2  0  0  0  0
 17 15  2  0  0  0  0
 17 11  1  0  0  0  0
 18  6  1  0  0  0  0
 19 17  1  0  0  0  0
 20 19  2  0  0  0  0
 21 20  1  0  0  0  0
 22 23  1  0  0  0  0
 22 21  1  0  0  0  0
 23 24  1  0  0  0  0
 23 25  2  0  0  0  0
M  END
>  <MODEL>
6

>  <REMARK>
 VINA RESULT:      -8.5      2.378      8.214
  Name = 
  4 active torsions:
  status: ('A' for Active; 'I' for Inactive)
    1  A    between atoms: C_2  and  C_25
    2  A    between atoms: C_6  and  C_23
    3  A    between atoms: N_15  and  C_21
    4  A    between atoms: C_21  and  C_25
                            x       y       z     vdW  Elec       q    Type
                         _______ _______ _______ _____ _____    ______ ____

>  <TORSDO>
F 4

$$$$
=
 OpenBabel11052422133D

 25 28  0  0  0  0  0  0  0  0999 V2000
  161.1470  205.8600  150.6980 C   0  0  0  0  0  0  0  0  0  0  0  0
  161.0560  206.8730  151.6530 C   0  0  0  0  0  0  0  0  0  0  0  0
  161.1720  204.1590  152.3990 C   0  0  0  0  0  3  0  0  0  0  0  0
  161.2000  205.8640  149.3230 C   0  0  0  0  0  0  0  0  0  0  0  0
  161.3400  205.1810  146.6450 C   0  0  0  0  0  3  0  0  0  0  0  0
  161.0830  205.1430  153.3430 N   0  0  0  0  0  0  0  0  0  0  0  0
  161.2850  204.5370  148.9510 C   0  0  0  0  0  0  0  0  0  0  0  0
  161.3580  204.1600  147.6130 C   0  0  0  0  0  3  0  0  0  0  0  0
  160.9350  207.4580  154.0160 C   0  0  0  0  0  0  0  0  0  0  0  0
  160.8990  207.0910  155.4610 C   0  0  0  0  0  1  0  0  0  0  0  0
  160.9970  208.2270  151.3130 C   0  0  0  0  0  3  0  0  0  0  0  0
  161.2530  206.5380  147.0290 C   0  0  0  0  0  3  0  0  0  0  0  0
  161.2040  204.5340  151.0610 C   0  0  0  0  0  0  0  0  0  0  0  0
  161.2860  203.7460  150.0060 O   0  0  0  0  0  0  0  0  0  0  0  0
  160.8760  208.8100  153.6610 C   0  0  0  0  0  3  0  0  0  0  0  0
  161.1810  206.8960  148.3880 C   0  0  0  0  0  3  0  0  0  0  0  0
  160.9060  209.1990  152.3170 C   0  0  0  0  0  0  0  0  0  0  0  0
  161.0250  206.4750  153.0170 C   0  0  0  0  0  0  0  0  0  0  0  0
  160.8460  210.6260  151.9890 C   0  0  0  0  0  3  0  0  0  0  0  0
  159.8450  211.3620  152.3530 N   0  0  0  0  0  0  0  0  0  0  0  0
  159.7940  212.7750  152.0160 C   0  0  0  0  0  2  0  0  0  0  0  0
  158.3760  213.1970  151.6510 C   0  0  0  0  0  2  0  0  0  0  0  0
  158.2550  213.4790  150.1920 C   0  0  0  0  0  0  0  0  0  0  0  0
  156.9950  213.3520  149.5450 N   0  0  0  0  0  1  0  0  0  0  0  0
  159.2690  213.8170  149.5270 O   0  0  0  0  0  0  0  0  0  0  0  0
  1 13  1  0  0  0  0
  1  2  2  0  0  0  0
  2 18  1  0  0  0  0
  3  6  1  0  0  0  0
  4  1  1  0  0  0  0
  5 12  2  0  0  0  0
  5  8  1  0  0  0  0
  7  4  1  0  0  0  0
  7 14  1  0  0  0  0
  8  7  2  0  0  0  0
  9 10  1  0  0  0  0
 11  2  1  0  0  0  0
 11 17  2  0  0  0  0
 12 16  1  0  0  0  0
 13  3  2  0  0  0  0
 14 13  1  0  0  0  0
 15  9  2  0  0  0  0
 16  4  2  0  0  0  0
 17 15  1  0  0  0  0
 18  6  2  0  0  0  0
 18  9  1  0  0  0  0
 19 17  1  0  0  0  0
 19 20  2  0  0  0  0
 21 20  1  0  0  0  0
 22 21  1  0  0  0  0
 23 22  1  0  0  0  0
 24 23  1  0  0  0  0
 25 23  2  0  0  0  0
M  END
>  <MODEL>
7

>  <REMARK>
 VINA RESULT:      -8.5      3.173      5.009
  Name = 
  4 active torsions:
  status: ('A' for Active; 'I' for Inactive)
    1  A    between atoms: C_2  and  C_25
    2  A    between atoms: C_6  and  C_23
    3  A    between atoms: N_15  and  C_21
    4  A    between atoms: C_21  and  C_25
                            x       y       z     vdW  Elec       q    Type
                         _______ _______ _______ _____ _____    ______ ____

>  <TORSDO>
F 4

$$$$
=
 OpenBabel11052422133D

 25 28  0  0  0  0  0  0  0  0999 V2000
  161.3360  205.9880  149.9860 C   0  0  0  0  0  0  0  0  0  0  0  0
  161.4260  207.1960  150.6780 C   0  0  0  0  0  0  0  0  0  0  0  0
  161.6950  207.0870  147.8760 C   0  0  0  0  0  3  0  0  0  0  0  0
  161.1230  204.6880  150.3840 C   0  0  0  0  0  0  0  0  0  0  0  0
  160.7490  201.9490  150.5010 C   0  0  0  0  0  3  0  0  0  0  0  0
  161.7840  208.2760  148.5430 N   0  0  0  0  0  0  0  0  0  0  0  0
  161.1420  203.9380  149.2250 C   0  0  0  0  0  0  0  0  0  0  0  0
  160.9570  202.5580  149.2490 C   0  0  0  0  0  3  0  0  0  0  0  0
  161.7550  209.6080  150.5570 C   0  0  0  0  0  0  0  0  0  0  0  0
  161.9980  210.8660  149.7940 C   0  0  0  0  0  1  0  0  0  0  0  0
  161.2950  207.2810  152.0670 C   0  0  0  0  0  3  0  0  0  0  0  0
  160.7310  202.7200  151.6850 C   0  0  0  0  0  3  0  0  0  0  0  0
  161.4680  205.9330  148.6170 C   0  0  0  0  0  0  0  0  0  0  0  0
  161.3500  204.6990  148.1690 O   0  0  0  0  0  0  0  0  0  0  0  0
  161.6230  209.6780  151.9490 C   0  0  0  0  0  3  0  0  0  0  0  0
  160.9200  204.1140  151.6360 C   0  0  0  0  0  3  0  0  0  0  0  0
  161.3940  208.5240  152.7060 C   0  0  0  0  0  0  0  0  0  0  0  0
  161.6570  208.3670  149.9070 C   0  0  0  0  0  0  0  0  0  0  0  0
  161.2600  208.6430  154.1600 C   0  0  0  0  0  3  0  0  0  0  0  0
  161.6650  209.6960  154.7930 N   0  0  0  0  0  0  0  0  0  0  0  0
  161.5320  209.7980  156.2370 C   0  0  0  0  0  2  0  0  0  0  0  0
  161.2400  211.2330  156.6560 C   0  0  0  0  0  2  0  0  0  0  0  0
  159.8990  211.6750  156.1780 C   0  0  0  0  0  0  0  0  0  0  0  0
  159.7580  212.9210  155.5070 N   0  0  0  0  0  1  0  0  0  0  0  0
  158.8880  210.9530  156.3790 O   0  0  0  0  0  0  0  0  0  0  0  0
  1  4  1  0  0  0  0
  1  2  1  0  0  0  0
  2 11  1  0  0  0  0
  3  6  2  0  0  0  0
  3 13  1  0  0  0  0
  4 16  1  0  0  0  0
  5 12  1  0  0  0  0
  6 18  1  0  0  0  0
  7  8  1  0  0  0  0
  7  4  2  0  0  0  0
  8  5  2  0  0  0  0
  9 15  2  0  0  0  0
 10  9  1  0  0  0  0
 11 17  2  0  0  0  0
 13  1  2  0  0  0  0
 14 13  1  0  0  0  0
 14  7  1  0  0  0  0
 15 17  1  0  0  0  0
 16 12  2  0  0  0  0
 17 19  1  0  0  0  0
 18  9  1  0  0  0  0
 18  2  2  0  0  0  0
 19 20  2  0  0  0  0
 20 21  1  0  0  0  0
 21 22  1  0  0  0  0
 23 25  2  0  0  0  0
 23 22  1  0  0  0  0
 24 23  1  0  0  0  0
M  END
>  <MODEL>
8

>  <REMARK>
 VINA RESULT:      -8.4      1.482      1.889
  Name = 
  4 active torsions:
  status: ('A' for Active; 'I' for Inactive)
    1  A    between atoms: C_2  and  C_25
    2  A    between atoms: C_6  and  C_23
    3  A    between atoms: N_15  and  C_21
    4  A    between atoms: C_21  and  C_25
                            x       y       z     vdW  Elec       q    Type
                         _______ _______ _______ _____ _____    ______ ____

>  <TORSDO>
F 4

$$$$
=
 OpenBabel11052422133D

 25 28  0  0  0  0  0  0  0  0999 V2000
  161.3820  207.8470  151.4780 C   0  0  0  0  0  0  0  0  0  0  0  0
  161.4120  206.9240  150.4320 C   0  0  0  0  0  0  0  0  0  0  0  0
  161.9280  209.6580  149.9910 C   0  0  0  0  0  3  0  0  0  0  0  0
  161.1340  207.7350  152.8260 C   0  0  0  0  0  0  0  0  0  0  0  0
  160.7460  208.1950  155.5270 C   0  0  0  0  0  3  0  0  0  0  0  0
  161.9610  208.7640  148.9590 N   0  0  0  0  0  0  0  0  0  0  0  0
  161.2520  209.0130  153.3330 C   0  0  0  0  0  0  0  0  0  0  0  0
  161.0640  209.2790  154.6870 C   0  0  0  0  0  3  0  0  0  0  0  0
  161.7590  206.5350  148.0510 C   0  0  0  0  0  0  0  0  0  0  0  0
  162.0720  207.0100  146.6730 C   0  0  0  0  0  1  0  0  0  0  0  0
  161.1620  205.5620  150.6210 C   0  0  0  0  0  3  0  0  0  0  0  0
  160.6250  206.8880  155.0040 C   0  0  0  0  0  3  0  0  0  0  0  0
  161.6330  209.1830  151.2640 C   0  0  0  0  0  0  0  0  0  0  0  0
  161.5530  209.8760  152.3830 O   0  0  0  0  0  0  0  0  0  0  0  0
  161.5050  205.1740  148.2540 C   0  0  0  0  0  3  0  0  0  0  0  0
  160.8200  206.6430  153.6330 C   0  0  0  0  0  3  0  0  0  0  0  0
  161.2070  204.6830  149.5310 C   0  0  0  0  0  0  0  0  0  0  0  0
  161.7150  207.4240  149.1370 C   0  0  0  0  0  0  0  0  0  0  0  0
  160.9510  203.2500  149.6990 C   0  0  0  0  0  3  0  0  0  0  0  0
  160.7760  202.4700  148.6820 N   0  0  0  0  0  0  0  0  0  0  0  0
  160.5150  201.0520  148.8640 C   0  0  0  0  0  2  0  0  0  0  0  0
  161.5390  200.2100  148.1130 C   0  0  0  0  0  2  0  0  0  0  0  0
  161.2090  200.1240  146.6620 C   0  0  0  0  0  0  0  0  0  0  0  0
  160.8250  201.2920  145.9490 N   0  0  0  0  0  1  0  0  0  0  0  0
  161.2560  199.0140  146.0680 O   0  0  0  0  0  0  0  0  0  0  0  0
  1  4  1  0  0  0  0
  2 11  1  0  0  0  0
  2  1  1  0  0  0  0
  3 13  1  0  0  0  0
  4  7  2  0  0  0  0
  4 16  1  0  0  0  0
  6 18  1  0  0  0  0
  6  3  2  0  0  0  0
  7  8  1  0  0  0  0
  8  5  2  0  0  0  0
  9 15  2  0  0  0  0
  9 18  1  0  0  0  0
 10  9  1  0  0  0  0
 12  5  1  0  0  0  0
 13  1  2  0  0  0  0
 13 14  1  0  0  0  0
 14  7  1  0  0  0  0
 15 17  1  0  0  0  0
 16 12  2  0  0  0  0
 17 19  1  0  0  0  0
 17 11  2  0  0  0  0
 18  2  2  0  0  0  0
 20 21  1  0  0  0  0
 20 19  2  0  0  0  0
 22 21  1  0  0  0  0
 23 22  1  0  0  0  0
 24 23  1  0  0  0  0
 25 23  2  0  0  0  0
M  END
>  <MODEL>
9

>  <REMARK>
 VINA RESULT:      -8.1      2.690      7.694
  Name = 
  4 active torsions:
  status: ('A' for Active; 'I' for Inactive)
    1  A    between atoms: C_2  and  C_25
    2  A    between atoms: C_6  and  C_23
    3  A    between atoms: N_15  and  C_21
    4  A    between atoms: C_21  and  C_25
                            x       y       z     vdW  Elec       q    Type
                         _______ _______ _______ _____ _____    ______ ____

>  <TORSDO>
F 4

$$$$
