=
 OpenBabel11052422523D

 28 31  0  0  1  0  0  0  0  0999 V2000
  160.9670  210.6220  153.1820 C   0  0  1  0  0  3  0  0  0  0  0  0
  162.0300  208.6810  156.8610 N   0  0  0  0  0  1  0  0  0  0  0  0
  161.2800  207.3780  152.1250 C   0  0  1  0  0  3  0  0  0  0  0  0
  161.3590  208.5150  154.5180 C   0  0  2  0  0  3  0  0  0  0  0  0
  160.3470  208.4360  152.2160 O   0  0  0  0  0  0  0  0  0  0  0  0
  161.6880  210.7290  155.6050 C   0  0  0  0  0  2  0  0  0  0  0  0
  160.9480  207.0530  154.6280 C   0  0  0  0  0  2  0  0  0  0  0  0
  161.2140  209.2920  155.8250 C   0  0  2  0  0  3  0  0  0  0  0  0
  161.1120  206.3590  153.2710 C   0  0  0  0  0  2  0  0  0  0  0  0
  160.8900  211.4130  154.4910 C   0  0  0  0  0  2  0  0  0  0  0  0
  160.5030  209.1770  153.4220 C   0  0  2  0  0  3  0  0  0  0  0  0
  161.9880  207.6470  149.7520 C   0  0  0  0  0  2  0  0  0  0  0  0
  161.0850  204.5110  149.5080 C   0  0  0  0  0  3  0  0  0  0  0  0
  160.9050  206.4220  147.8490 C   0  0  2  0  0  3  0  0  0  0  0  0
  161.2410  206.7320  150.7330 C   0  0  1  0  0  3  0  0  0  0  0  0
  161.5330  204.4590  151.9090 C   0  0  0  0  0  1  0  0  0  0  0  0
  160.7620  204.9950  148.2960 C   0  0  0  0  0  3  0  0  0  0  0  0
  161.7370  205.2690  150.6380 C   0  0  1  0  0  3  0  0  0  0  0  0
  160.8840  206.4730  146.4560 O   0  0  0  0  0  1  0  0  0  0  0  0
  162.1910  207.0490  148.3610 C   0  0  0  0  0  2  0  0  0  0  0  0
  160.2070  211.3530  152.0620 C   0  0  1  0  0  3  0  0  0  0  0  0
  159.2040  212.3220  152.6920 C   0  0  0  0  0  2  0  0  0  0  0  0
  160.3530  212.9980  150.1370 C   0  0  0  0  0  0  0  0  0  0  0  0
  158.3650  212.9910  151.6150 C   0  0  0  0  0  2  0  0  0  0  0  0
  161.8700  211.0090  150.1960 C   0  0  0  0  0  1  0  0  0  0  0  0
  161.1250  212.0470  151.0270 C   0  0  2  0  0  3  0  0  0  0  0  0
  160.6870  213.1820  148.9770 O   0  0  0  0  0  0  0  0  0  0  0  0
  159.2570  213.8380  150.7190 C   0  0  0  0  0  2  0  0  0  0  0  0
  1 11  1  0  0  0  0
  1 10  1  1  0  0  0
  3  5  1  0  0  0  0
  3  9  1  1  0  0  0
  4  7  1  1  0  0  0
  4  8  1  0  0  0  0
  6  8  1  0  0  0  0
  8  2  1  1  0  0  0
  9  7  1  0  0  0  0
 10  6  1  0  0  0  0
 11  5  1  6  0  0  0
 11  4  1  0  0  0  0
 13 18  1  0  0  0  0
 14 19  1  6  0  0  0
 14 17  1  0  0  0  0
 14 20  1  0  0  0  0
 15 12  1  6  0  0  0
 15  3  1  0  0  0  0
 17 13  2  0  0  0  0
 18 15  1  0  0  0  0
 18 16  1  1  0  0  0
 20 12  1  0  0  0  0
 21 22  1  1  0  0  0
 21  1  1  0  0  0  0
 23 28  1  0  0  0  0
 23 26  1  0  0  0  0
 24 22  1  0  0  0  0
 26 25  1  6  0  0  0
 26 21  1  0  0  0  0
 27 23  2  0  0  0  0
 28 24  1  0  0  0  0
M  END
>  <MODEL>
1

>  <REMARK>
 VINA RESULT:      -8.4      0.000      0.000
  Name = 
  2 active torsions:
  status: ('A' for Active; 'I' for Inactive)
    1  A    between atoms: C_1  and  C_2
    2  A    between atoms: C_10  and  C_13
                            x       y       z     vdW  Elec       q    Type
                         _______ _______ _______ _____ _____    ______ ____

>  <TORSDO>
F 2

$$$$
=
 OpenBabel11052422523D

 28 31  0  0  1  0  0  0  0  0999 V2000
  159.0860  213.1700  152.5300 C   0  0  1  0  0  3  0  0  0  0  0  0
  159.5260  213.2830  156.7990 N   0  0  0  0  0  1  0  0  0  0  0  0
  160.2750  210.0130  153.1330 C   0  0  1  0  0  3  0  0  0  0  0  0
  159.5210  211.9960  154.7230 C   0  0  2  0  0  3  0  0  0  0  0  0
  159.1650  210.7020  152.5940 O   0  0  0  0  0  0  0  0  0  0  0  0
  159.1290  214.4530  154.7090 C   0  0  0  0  0  2  0  0  0  0  0  0
  159.3840  210.6540  155.4300 C   0  0  0  0  0  2  0  0  0  0  0  0
  158.9000  213.1590  155.4930 C   0  0  2  0  0  3  0  0  0  0  0  0
  160.0200  209.5470  154.5810 C   0  0  0  0  0  2  0  0  0  0  0  0
  158.5270  214.3660  153.3050 C   0  0  0  0  0  2  0  0  0  0  0  0
  158.8620  211.8810  153.3350 C   0  0  2  0  0  3  0  0  0  0  0  0
  161.6450  209.4620  151.1270 C   0  0  0  0  0  2  0  0  0  0  0  0
  161.1370  206.3730  152.0810 C   0  0  0  0  0  3  0  0  0  0  0  0
  161.3030  207.3850  149.7600 C   0  0  2  0  0  3  0  0  0  0  0  0
  160.7180  208.8760  152.2020 C   0  0  1  0  0  3  0  0  0  0  0  0
  160.8360  207.3720  154.2900 C   0  0  0  0  0  1  0  0  0  0  0  0
  161.1560  206.2560  150.7420 C   0  0  0  0  0  3  0  0  0  0  0  0
  161.3460  207.6350  152.8810 C   0  0  1  0  0  3  0  0  0  0  0  0
  161.7020  206.8740  148.5260 O   0  0  0  0  0  1  0  0  0  0  0  0
  162.3130  208.4170  150.2330 C   0  0  0  0  0  2  0  0  0  0  0  0
  158.5110  213.1320  151.1030 C   0  0  1  0  0  3  0  0  0  0  0  0
  157.1240  213.7760  151.1090 C   0  0  0  0  0  2  0  0  0  0  0  0
  158.7230  213.9720  148.7190 C   0  0  0  0  0  0  0  0  0  0  0  0
  156.4830  213.6690  149.7330 C   0  0  0  0  0  2  0  0  0  0  0  0
  160.6770  212.8780  149.8350 C   0  0  0  0  0  1  0  0  0  0  0  0
  159.4430  213.7500  150.0320 C   0  0  2  0  0  3  0  0  0  0  0  0
  159.3160  213.8810  147.6560 O   0  0  0  0  0  0  0  0  0  0  0  0
  157.3040  214.4530  148.7200 C   0  0  0  0  0  2  0  0  0  0  0  0
  1 10  1  1  0  0  0
  1 11  1  0  0  0  0
  3  9  1  1  0  0  0
  4  7  1  1  0  0  0
  4  8  1  0  0  0  0
  5  3  1  0  0  0  0
  6  8  1  0  0  0  0
  8  2  1  1  0  0  0
  9  7  1  0  0  0  0
 10  6  1  0  0  0  0
 11  5  1  6  0  0  0
 11  4  1  0  0  0  0
 13 18  1  0  0  0  0
 14 19  1  6  0  0  0
 14 20  1  0  0  0  0
 14 17  1  0  0  0  0
 15 12  1  6  0  0  0
 15 18  1  0  0  0  0
 15  3  1  0  0  0  0
 17 13  2  0  0  0  0
 18 16  1  1  0  0  0
 20 12  1  0  0  0  0
 21 22  1  1  0  0  0
 21  1  1  0  0  0  0
 23 28  1  0  0  0  0
 23 26  1  0  0  0  0
 24 22  1  0  0  0  0
 26 25  1  6  0  0  0
 26 21  1  0  0  0  0
 27 23  2  0  0  0  0
 28 24  1  0  0  0  0
M  END
>  <MODEL>
2

>  <REMARK>
 VINA RESULT:      -7.0      1.953      3.216
  Name = 
  2 active torsions:
  status: ('A' for Active; 'I' for Inactive)
    1  A    between atoms: C_1  and  C_2
    2  A    between atoms: C_10  and  C_13
                            x       y       z     vdW  Elec       q    Type
                         _______ _______ _______ _____ _____    ______ ____

>  <TORSDO>
F 2

$$$$
=
 OpenBabel11052422523D

 28 31  0  0  1  0  0  0  0  0999 V2000
  160.3980  210.8820  151.6880 C   0  0  1  0  0  3  0  0  0  0  0  0
  161.5680  212.7790  148.0190 N   0  0  0  0  0  1  0  0  0  0  0  0
  161.4030  208.1650  149.8570 C   0  0  1  0  0  3  0  0  0  0  0  0
  161.5000  210.7770  149.4180 C   0  0  2  0  0  3  0  0  0  0  0  0
  161.6820  208.8700  151.0500 O   0  0  0  0  0  0  0  0  0  0  0  0
  160.4780  212.9130  150.1830 C   0  0  0  0  0  2  0  0  0  0  0  0
  162.5810  210.0560  148.6250 C   0  0  0  0  0  2  0  0  0  0  0  0
  161.6320  212.2980  149.3890 C   0  0  2  0  0  3  0  0  0  0  0  0
  162.3780  208.5390  148.7220 C   0  0  0  0  0  2  0  0  0  0  0  0
  160.4680  212.4100  151.6290 C   0  0  0  0  0  2  0  0  0  0  0  0
  161.5540  210.2780  150.8740 C   0  0  2  0  0  3  0  0  0  0  0  0
  160.9630  206.4330  151.5930 C   0  0  0  0  0  2  0  0  0  0  0  0
  160.8860  204.4040  149.0260 C   0  0  0  0  0  3  0  0  0  0  0  0
  161.7430  204.0570  151.3900 C   0  0  2  0  0  3  0  0  0  0  0  0
  161.3330  206.6540  150.1190 C   0  0  1  0  0  3  0  0  0  0  0  0
  160.2920  206.4160  147.7750 C   0  0  0  0  0  1  0  0  0  0  0  0
  161.4180  203.6270  149.9860 C   0  0  0  0  0  3  0  0  0  0  0  0
  160.4250  205.8320  149.1730 C   0  0  1  0  0  3  0  0  0  0  0  0
  161.8670  202.9290  152.2000 O   0  0  0  0  0  1  0  0  0  0  0  0
  160.6770  204.9770  151.9600 C   0  0  0  0  0  2  0  0  0  0  0  0
  160.3330  210.3980  153.1470 C   0  0  1  0  0  3  0  0  0  0  0  0
  161.7570  210.1710  153.6600 C   0  0  0  0  0  2  0  0  0  0  0  0
  159.7290  210.9840  155.5400 C   0  0  0  0  0  0  0  0  0  0  0  0
  161.7280  209.5980  155.0690 C   0  0  0  0  0  2  0  0  0  0  0  0
  158.0310  211.2560  153.7220 C   0  0  0  0  0  1  0  0  0  0  0  0
  159.5110  211.3200  154.0800 C   0  0  2  0  0  3  0  0  0  0  0  0
  158.8350  211.1320  156.3580 O   0  0  0  0  0  0  0  0  0  0  0  0
  161.0960  210.6040  156.0200 C   0  0  0  0  0  2  0  0  0  0  0  0
  1 10  1  1  0  0  0
  1 21  1  0  0  0  0
  3  9  1  6  0  0  0
  3 15  1  0  0  0  0
  3  5  1  0  0  0  0
  4  7  1  6  0  0  0
  4 11  1  0  0  0  0
  6 10  1  0  0  0  0
  7  9  1  0  0  0  0
  8  2  1  6  0  0  0
  8  4  1  0  0  0  0
  8  6  1  0  0  0  0
 11  5  1  6  0  0  0
 11  1  1  0  0  0  0
 12 20  1  0  0  0  0
 13 18  1  0  0  0  0
 13 17  2  0  0  0  0
 14 20  1  0  0  0  0
 14 19  1  1  0  0  0
 15 12  1  1  0  0  0
 17 14  1  0  0  0  0
 18 16  1  6  0  0  0
 18 15  1  0  0  0  0
 21 22  1  1  0  0  0
 21 26  1  0  0  0  0
 22 24  1  0  0  0  0
 23 28  1  0  0  0  0
 23 27  2  0  0  0  0
 24 28  1  0  0  0  0
 26 25  1  6  0  0  0
 26 23  1  0  0  0  0
M  END
>  <MODEL>
3

>  <REMARK>
 VINA RESULT:      -6.8      2.593      4.880
  Name = 
  2 active torsions:
  status: ('A' for Active; 'I' for Inactive)
    1  A    between atoms: C_1  and  C_2
    2  A    between atoms: C_10  and  C_13
                            x       y       z     vdW  Elec       q    Type
                         _______ _______ _______ _____ _____    ______ ____

>  <TORSDO>
F 2

$$$$
=
 OpenBabel11052422523D

 28 31  0  0  1  0  0  0  0  0999 V2000
  160.7140  207.8160  152.1790 C   0  0  1  0  0  3  0  0  0  0  0  0
  161.2850  207.8930  156.4330 N   0  0  0  0  0  1  0  0  0  0  0  0
  159.5000  210.9320  152.9290 C   0  0  1  0  0  3  0  0  0  0  0  0
  160.7270  209.0740  154.3690 C   0  0  2  0  0  3  0  0  0  0  0  0
  160.4960  210.2770  152.1700 O   0  0  0  0  0  0  0  0  0  0  0  0
  161.2590  206.6440  154.3520 C   0  0  0  0  0  2  0  0  0  0  0  0
  160.9380  210.4550  154.9750 C   0  0  0  0  0  2  0  0  0  0  0  0
  161.5810  207.9850  155.0130 C   0  0  2  0  0  3  0  0  0  0  0  0
  160.0540  211.4820  154.2590 C   0  0  0  0  0  2  0  0  0  0  0  0
  161.5120  206.6910  152.8430 C   0  0  0  0  0  2  0  0  0  0  0  0
  161.0360  209.1540  152.8620 C   0  0  2  0  0  3  0  0  0  0  0  0
  157.8230  212.7730  153.0010 C   0  0  0  0  0  2  0  0  0  0  0  0
  158.9980  213.4670  150.0270 C   0  0  0  0  0  3  0  0  0  0  0  0
  156.6450  213.6360  150.9610 C   0  0  2  0  0  3  0  0  0  0  0  0
  158.7820  211.9960  152.0880 C   0  0  1  0  0  3  0  0  0  0  0  0
  161.0070  212.3340  150.8330 C   0  0  0  0  0  1  0  0  0  0  0  0
  157.7010  213.7990  149.9040 C   0  0  0  0  0  3  0  0  0  0  0  0
  159.6840  212.9480  151.2660 C   0  0  1  0  0  3  0  0  0  0  0  0
  155.5570  214.4530  150.6550 O   0  0  0  0  0  1  0  0  0  0  0  0
  157.1700  213.9870  152.3430 C   0  0  0  0  0  2  0  0  0  0  0  0
  160.9380  207.8130  150.6560 C   0  0  1  0  0  3  0  0  0  0  0  0
  161.9560  208.9000  150.3020 C   0  0  0  0  0  2  0  0  0  0  0  0
  161.8350  206.5360  148.6570 C   0  0  0  0  0  0  0  0  0  0  0  0
  162.1300  208.9920  148.7940 C   0  0  0  0  0  2  0  0  0  0  0  0
  160.1490  205.4680  150.1670 C   0  0  0  0  0  1  0  0  0  0  0  0
  161.3270  206.4300  150.0800 C   0  0  2  0  0  3  0  0  0  0  0  0
  161.6450  205.6350  147.8550 O   0  0  0  0  0  0  0  0  0  0  0  0
  162.7060  207.6880  148.2610 C   0  0  0  0  0  2  0  0  0  0  0  0
  1 10  1  1  0  0  0
  1 11  1  0  0  0  0
  3  9  1  1  0  0  0
  4  7  1  1  0  0  0
  4  8  1  0  0  0  0
  5  3  1  0  0  0  0
  6  8  1  0  0  0  0
  8  2  1  1  0  0  0
  9  7  1  0  0  0  0
 10  6  1  0  0  0  0
 11  5  1  6  0  0  0
 11  4  1  0  0  0  0
 13 18  1  0  0  0  0
 14 19  1  6  0  0  0
 14 20  1  0  0  0  0
 15  3  1  0  0  0  0
 15 12  1  1  0  0  0
 17 13  2  0  0  0  0
 17 14  1  0  0  0  0
 18 16  1  6  0  0  0
 18 15  1  0  0  0  0
 20 12  1  0  0  0  0
 21 22  1  1  0  0  0
 21  1  1  0  0  0  0
 23 26  1  0  0  0  0
 24 22  1  0  0  0  0
 26 25  1  6  0  0  0
 26 21  1  0  0  0  0
 27 23  2  0  0  0  0
 28 23  1  0  0  0  0
 28 24  1  0  0  0  0
M  END
>  <MODEL>
4

>  <REMARK>
 VINA RESULT:      -6.7      1.579      6.248
  Name = 
  2 active torsions:
  status: ('A' for Active; 'I' for Inactive)
    1  A    between atoms: C_1  and  C_2
    2  A    between atoms: C_10  and  C_13
                            x       y       z     vdW  Elec       q    Type
                         _______ _______ _______ _____ _____    ______ ____

>  <TORSDO>
F 2

$$$$
=
 OpenBabel11052422523D

 28 31  0  0  1  0  0  0  0  0999 V2000
  160.8390  203.6540  148.3680 C   0  0  1  0  0  3  0  0  0  0  0  0
  160.0620  200.5790  151.2610 N   0  0  0  0  0  1  0  0  0  0  0  0
  160.9170  205.4740  151.2710 C   0  0  1  0  0  3  0  0  0  0  0  0
  160.7240  202.8780  150.7680 C   0  0  2  0  0  3  0  0  0  0  0  0
  161.7140  205.1110  150.1610 O   0  0  0  0  0  0  0  0  0  0  0  0
  160.1370  201.2930  148.9420 C   0  0  0  0  0  2  0  0  0  0  0  0
  161.3120  203.1180  152.1520 C   0  0  0  0  0  2  0  0  0  0  0  0
  160.7860  201.4190  150.3220 C   0  0  2  0  0  3  0  0  0  0  0  0
  161.2200  204.6060  152.5100 C   0  0  0  0  0  2  0  0  0  0  0  0
  160.8330  202.1910  147.9160 C   0  0  0  0  0  2  0  0  0  0  0  0
  161.4810  203.7630  149.7600 C   0  0  2  0  0  3  0  0  0  0  0  0
  160.9360  207.2010  153.0660 C   0  0  0  0  0  2  0  0  0  0  0  0
  161.9560  209.1680  150.6580 C   0  0  0  0  0  3  0  0  0  0  0  0
  160.4430  209.6250  152.6430 C   0  0  2  0  0  3  0  0  0  0  0  0
  161.0210  206.9800  151.5490 C   0  0  1  0  0  3  0  0  0  0  0  0
  162.7490  207.0930  149.6410 C   0  0  0  0  0  1  0  0  0  0  0  0
  161.2170  210.0010  151.4100 C   0  0  0  0  0  3  0  0  0  0  0  0
  162.2380  207.7120  150.9330 C   0  0  1  0  0  3  0  0  0  0  0  0
  160.1630  210.7740  153.3810 O   0  0  0  0  0  1  0  0  0  0  0  0
  161.2060  208.6380  153.5100 C   0  0  0  0  0  2  0  0  0  0  0  0
  161.4920  204.5490  147.3000 C   0  0  1  0  0  3  0  0  0  0  0  0
  162.2080  203.6610  146.2790 C   0  0  0  0  0  2  0  0  0  0  0  0
  161.1150  206.1760  145.3910 C   0  0  0  0  0  0  0  0  0  0  0  0
  162.9490  204.5150  145.2610 C   0  0  0  0  0  2  0  0  0  0  0  0
  160.0810  206.6140  147.6270 C   0  0  0  0  0  1  0  0  0  0  0  0
  160.5160  205.5460  146.6310 C   0  0  2  0  0  3  0  0  0  0  0  0
  160.8290  207.3180  145.0680 O   0  0  0  0  0  0  0  0  0  0  0  0
  161.9530  205.3480  144.4660 C   0  0  0  0  0  2  0  0  0  0  0  0
  1 10  1  6  0  0  0
  1 11  1  0  0  0  0
  3 15  1  0  0  0  0
  3  9  1  1  0  0  0
  4  7  1  1  0  0  0
  5  3  1  0  0  0  0
  6  8  1  0  0  0  0
  7  9  1  0  0  0  0
  8  4  1  0  0  0  0
  8  2  1  1  0  0  0
 10  6  1  0  0  0  0
 11  5  1  1  0  0  0
 11  4  1  0  0  0  0
 12 20  1  0  0  0  0
 13 18  1  0  0  0  0
 13 17  2  0  0  0  0
 14 19  1  1  0  0  0
 14 20  1  0  0  0  0
 15 12  1  1  0  0  0
 17 14  1  0  0  0  0
 18 16  1  6  0  0  0
 18 15  1  0  0  0  0
 21 22  1  6  0  0  0
 21  1  1  0  0  0  0
 23 26  1  0  0  0  0
 24 22  1  0  0  0  0
 26 21  1  0  0  0  0
 26 25  1  1  0  0  0
 27 23  2  0  0  0  0
 28 24  1  0  0  0  0
 28 23  1  0  0  0  0
M  END
>  <MODEL>
5

>  <REMARK>
 VINA RESULT:      -6.6      2.925      7.431
  Name = 
  2 active torsions:
  status: ('A' for Active; 'I' for Inactive)
    1  A    between atoms: C_1  and  C_2
    2  A    between atoms: C_10  and  C_13
                            x       y       z     vdW  Elec       q    Type
                         _______ _______ _______ _____ _____    ______ ____

>  <TORSDO>
F 2

$$$$
=
 OpenBabel11052422523D

 28 31  0  0  1  0  0  0  0  0999 V2000
  160.5840  210.6270  151.6360 C   0  0  1  0  0  3  0  0  0  0  0  0
  161.7920  212.2020  147.8280 N   0  0  0  0  0  1  0  0  0  0  0  0
  161.2490  207.7310  149.9290 C   0  0  1  0  0  3  0  0  0  0  0  0
  161.5830  210.2940  149.3400 C   0  0  2  0  0  3  0  0  0  0  0  0
  161.6400  208.4670  151.0700 O   0  0  0  0  0  0  0  0  0  0  0  0
  160.8040  212.5580  150.0170 C   0  0  0  0  0  2  0  0  0  0  0  0
  162.5570  209.4270  148.5540 C   0  0  0  0  0  2  0  0  0  0  0  0
  161.8610  211.7910  149.2210 C   0  0  2  0  0  3  0  0  0  0  0  0
  162.2110  207.9460  148.7430 C   0  0  0  0  0  2  0  0  0  0  0  0
  160.8000  212.1360  151.4880 C   0  0  0  0  0  2  0  0  0  0  0  0
  161.6430  209.8700  150.8190 C   0  0  2  0  0  3  0  0  0  0  0  0
  161.2340  205.4190  149.0010 C   0  0  0  0  0  2  0  0  0  0  0  0
  161.2060  204.5460  152.1550 C   0  0  0  0  0  3  0  0  0  0  0  0
  160.0910  203.4930  150.1330 C   0  0  2  0  0  3  0  0  0  0  0  0
  161.0420  206.2510  150.2780 C   0  0  1  0  0  3  0  0  0  0  0  0
  162.2390  206.7310  152.5080 C   0  0  0  0  0  1  0  0  0  0  0  0
  160.4670  203.5780  151.5860 C   0  0  0  0  0  3  0  0  0  0  0  0
  161.8840  205.6950  151.4520 C   0  0  1  0  0  3  0  0  0  0  0  0
  159.7070  202.1880  149.8310 O   0  0  0  0  0  1  0  0  0  0  0  0
  161.2380  203.9080  149.2280 C   0  0  0  0  0  2  0  0  0  0  0  0
  160.5280  210.2310  153.1210 C   0  0  1  0  0  3  0  0  0  0  0  0
  161.9550  210.1320  153.6630 C   0  0  0  0  0  2  0  0  0  0  0  0
  159.8490  210.9200  155.4660 C   0  0  0  0  0  0  0  0  0  0  0  0
  161.9420  209.6460  155.1050 C   0  0  0  0  0  2  0  0  0  0  0  0
  158.1650  210.9650  153.6150 C   0  0  0  0  0  1  0  0  0  0  0  0
  159.6320  211.1510  153.9850 C   0  0  2  0  0  3  0  0  0  0  0  0
  158.9330  211.0570  156.2620 O   0  0  0  0  0  0  0  0  0  0  0  0
  161.2300  210.6630  155.9850 C   0  0  0  0  0  2  0  0  0  0  0  0
  1 10  1  1  0  0  0
  1 21  1  0  0  0  0
  3  9  1  6  0  0  0
  3 15  1  0  0  0  0
  3  5  1  0  0  0  0
  4  7  1  6  0  0  0
  4 11  1  0  0  0  0
  6 10  1  0  0  0  0
  7  9  1  0  0  0  0
  8  2  1  6  0  0  0
  8  4  1  0  0  0  0
  8  6  1  0  0  0  0
 11  5  1  6  0  0  0
 11  1  1  0  0  0  0
 12 20  1  0  0  0  0
 14 19  1  6  0  0  0
 14 17  1  0  0  0  0
 15 12  1  6  0  0  0
 15 18  1  0  0  0  0
 17 13  2  0  0  0  0
 18 13  1  0  0  0  0
 18 16  1  1  0  0  0
 20 14  1  0  0  0  0
 21 22  1  1  0  0  0
 21 26  1  0  0  0  0
 22 24  1  0  0  0  0
 23 28  1  0  0  0  0
 23 27  2  0  0  0  0
 24 28  1  0  0  0  0
 26 25  1  6  0  0  0
 26 23  1  0  0  0  0
M  END
>  <MODEL>
6

>  <REMARK>
 VINA RESULT:      -6.3      2.614      4.716
  Name = 
  2 active torsions:
  status: ('A' for Active; 'I' for Inactive)
    1  A    between atoms: C_1  and  C_2
    2  A    between atoms: C_10  and  C_13
                            x       y       z     vdW  Elec       q    Type
                         _______ _______ _______ _____ _____    ______ ____

>  <TORSDO>
F 2

$$$$
=
 OpenBabel11052422523D

 28 31  0  0  1  0  0  0  0  0999 V2000
  160.8730  210.6630  152.0130 C   0  0  1  0  0  3  0  0  0  0  0  0
  161.0570  213.8860  149.1830 N   0  0  0  0  0  1  0  0  0  0  0  0
  158.5300  212.7950  153.3200 C   0  0  1  0  0  3  0  0  0  0  0  0
  159.9480  212.8200  151.0810 C   0  0  2  0  0  3  0  0  0  0  0  0
  158.6830  211.4900  152.8020 O   0  0  0  0  0  0  0  0  0  0  0  0
  161.9910  211.8270  150.0660 C   0  0  0  0  0  2  0  0  0  0  0  0
  158.6620  213.6190  150.9150 C   0  0  0  0  0  2  0  0  0  0  0  0
  160.7070  212.6050  149.7730 C   0  0  2  0  0  3  0  0  0  0  0  0
  157.9630  213.7720  152.2710 C   0  0  0  0  0  2  0  0  0  0  0  0
  161.6880  210.4820  150.7300 C   0  0  0  0  0  2  0  0  0  0  0  0
  159.5940  211.4580  151.7070 C   0  0  2  0  0  3  0  0  0  0  0  0
  156.9730  211.4370  154.7110 C   0  0  0  0  0  2  0  0  0  0  0  0
  157.6360  213.6830  156.9970 C   0  0  0  0  0  3  0  0  0  0  0  0
  155.4930  212.4270  156.4790 C   0  0  2  0  0  3  0  0  0  0  0  0
  157.7220  212.7740  154.6250 C   0  0  1  0  0  3  0  0  0  0  0  0
  159.7050  213.9900  155.7340 C   0  0  0  0  0  1  0  0  0  0  0  0
  156.3530  213.3800  157.2610 C   0  0  0  0  0  3  0  0  0  0  0  0
  158.5060  213.0730  155.9260 C   0  0  1  0  0  3  0  0  0  0  0  0
  154.4040  212.0420  157.2600 O   0  0  0  0  0  1  0  0  0  0  0  0
  156.2670  211.1940  156.0440 C   0  0  0  0  0  2  0  0  0  0  0  0
  160.6260  209.3060  152.6950 C   0  0  1  0  0  3  0  0  0  0  0  0
  161.1460  208.1910  151.7850 C   0  0  0  0  0  2  0  0  0  0  0  0
  161.2080  207.7830  154.6370 C   0  0  0  0  0  0  0  0  0  0  0  0
  160.8300  206.8280  152.3820 C   0  0  0  0  0  2  0  0  0  0  0  0
  160.4170  210.1160  155.0750 C   0  0  0  0  0  1  0  0  0  0  0  0
  161.1970  209.2090  154.1300 C   0  0  2  0  0  3  0  0  0  0  0  0
  161.0490  207.5370  155.8230 O   0  0  0  0  0  0  0  0  0  0  0  0
  161.5630  206.6640  153.7060 C   0  0  0  0  0  2  0  0  0  0  0  0
  1 10  1  6  0  0  0
  1 21  1  0  0  0  0
  3  9  1  6  0  0  0
  3 15  1  0  0  0  0
  4  7  1  6  0  0  0
  4 11  1  0  0  0  0
  5  3  1  0  0  0  0
  6 10  1  0  0  0  0
  7  9  1  0  0  0  0
  8  2  1  1  0  0  0
  8  6  1  0  0  0  0
  8  4  1  0  0  0  0
 11  1  1  0  0  0  0
 11  5  1  1  0  0  0
 12 20  1  0  0  0  0
 13 17  2  0  0  0  0
 14 19  1  1  0  0  0
 14 17  1  0  0  0  0
 15 12  1  1  0  0  0
 15 18  1  0  0  0  0
 18 16  1  6  0  0  0
 18 13  1  0  0  0  0
 20 14  1  0  0  0  0
 21 22  1  6  0  0  0
 21 26  1  0  0  0  0
 22 24  1  0  0  0  0
 23 27  2  0  0  0  0
 24 28  1  0  0  0  0
 26 23  1  0  0  0  0
 26 25  1  1  0  0  0
 28 23  1  0  0  0  0
M  END
>  <MODEL>
7

>  <REMARK>
 VINA RESULT:      -6.1      3.472      8.043
  Name = 
  2 active torsions:
  status: ('A' for Active; 'I' for Inactive)
    1  A    between atoms: C_1  and  C_2
    2  A    between atoms: C_10  and  C_13
                            x       y       z     vdW  Elec       q    Type
                         _______ _______ _______ _____ _____    ______ ____

>  <TORSDO>
F 2

$$$$
=
 OpenBabel11052422523D

 28 31  0  0  1  0  0  0  0  0999 V2000
  161.6070  209.7290  152.8220 C   0  0  1  0  0  3  0  0  0  0  0  0
  161.9560  208.1200  156.7870 N   0  0  0  0  0  1  0  0  0  0  0  0
  161.3670  206.3730  152.1730 C   0  0  1  0  0  3  0  0  0  0  0  0
  161.4660  207.7770  154.4190 C   0  0  2  0  0  3  0  0  0  0  0  0
  160.6550  207.5860  152.0440 O   0  0  0  0  0  0  0  0  0  0  0  0
  162.1270  210.0150  155.2810 C   0  0  0  0  0  2  0  0  0  0  0  0
  160.7690  206.4420  154.6460 C   0  0  0  0  0  2  0  0  0  0  0  0
  161.3650  208.7300  155.6080 C   0  0  2  0  0  3  0  0  0  0  0  0
  160.9090  205.5590  153.4010 C   0  0  0  0  0  2  0  0  0  0  0  0
  161.5750  210.6840  154.0190 C   0  0  0  0  0  2  0  0  0  0  0  0
  160.8500  208.4370  153.1710 C   0  0  2  0  0  3  0  0  0  0  0  0
  160.6480  204.2180  151.1490 C   0  0  0  0  0  2  0  0  0  0  0  0
  161.2400  205.7800  148.3340 C   0  0  0  0  0  3  0  0  0  0  0  0
  161.5770  203.3500  148.9850 C   0  0  2  0  0  3  0  0  0  0  0  0
  161.3200  205.5700  150.8660 C   0  0  1  0  0  3  0  0  0  0  0  0
  160.8300  207.7920  149.6570 C   0  0  0  0  0  1  0  0  0  0  0  0
  161.5890  204.5160  148.0360 C   0  0  0  0  0  3  0  0  0  0  0  0
  160.6840  206.2780  149.6450 C   0  0  1  0  0  3  0  0  0  0  0  0
  161.5790  202.1620  148.2560 O   0  0  0  0  0  1  0  0  0  0  0  0
  160.3660  203.3810  149.9020 C   0  0  0  0  0  2  0  0  0  0  0  0
  161.1000  210.4350  151.5520 C   0  0  1  0  0  3  0  0  0  0  0  0
  160.3540  211.7080  151.9560 C   0  0  0  0  0  2  0  0  0  0  0  0
  161.7340  211.6640  149.4260 C   0  0  0  0  0  0  0  0  0  0  0  0
  159.7540  212.3820  150.7310 C   0  0  0  0  0  2  0  0  0  0  0  0
  162.6900  209.3990  149.8900 C   0  0  0  0  0  1  0  0  0  0  0  0
  162.2040  210.7070  150.5010 C   0  0  2  0  0  3  0  0  0  0  0  0
  162.1470  211.5720  148.2800 O   0  0  0  0  0  0  0  0  0  0  0  0
  160.8660  212.8280  149.7930 C   0  0  0  0  0  2  0  0  0  0  0  0
  1 11  1  0  0  0  0
  1 10  1  1  0  0  0
  3  9  1  1  0  0  0
  4  7  1  1  0  0  0
  4  8  1  0  0  0  0
  5  3  1  0  0  0  0
  6  8  1  0  0  0  0
  8  2  1  1  0  0  0
  9  7  1  0  0  0  0
 10  6  1  0  0  0  0
 11  5  1  6  0  0  0
 11  4  1  0  0  0  0
 13 18  1  0  0  0  0
 14 19  1  6  0  0  0
 14 20  1  0  0  0  0
 15 12  1  1  0  0  0
 15  3  1  0  0  0  0
 17 13  2  0  0  0  0
 17 14  1  0  0  0  0
 18 16  1  1  0  0  0
 18 15  1  0  0  0  0
 20 12  1  0  0  0  0
 21 22  1  1  0  0  0
 21  1  1  0  0  0  0
 23 28  1  0  0  0  0
 23 26  1  0  0  0  0
 24 22  1  0  0  0  0
 26 25  1  6  0  0  0
 26 21  1  0  0  0  0
 27 23  2  0  0  0  0
 28 24  1  0  0  0  0
M  END
>  <MODEL>
8

>  <REMARK>
 VINA RESULT:      -6.0      1.417      2.149
  Name = 
  2 active torsions:
  status: ('A' for Active; 'I' for Inactive)
    1  A    between atoms: C_1  and  C_2
    2  A    between atoms: C_10  and  C_13
                            x       y       z     vdW  Elec       q    Type
                         _______ _______ _______ _____ _____    ______ ____

>  <TORSDO>
F 2

$$$$
=
 OpenBabel11052422523D

 28 31  0  0  1  0  0  0  0  0999 V2000
  161.5680  209.5920  149.6900 C   0  0  1  0  0  3  0  0  0  0  0  0
  161.1770  205.3810  150.4300 N   0  0  0  0  0  1  0  0  0  0  0  0
  160.5670  209.6100  152.9680 C   0  0  1  0  0  3  0  0  0  0  0  0
  161.2290  207.6670  151.2900 C   0  0  2  0  0  3  0  0  0  0  0  0
  161.6300  210.0070  152.1250 O   0  0  0  0  0  0  0  0  0  0  0  0
  161.4800  207.2050  148.8580 C   0  0  0  0  0  2  0  0  0  0  0  0
  161.4500  207.2340  152.7320 C   0  0  0  0  0  2  0  0  0  0  0  0
  161.7920  206.6870  150.2630 C   0  0  2  0  0  3  0  0  0  0  0  0
  160.8670  208.2800  153.6890 C   0  0  0  0  0  2  0  0  0  0  0  0
  162.0690  208.6010  148.6360 C   0  0  0  0  0  2  0  0  0  0  0  0
  161.8750  209.0520  151.0960 C   0  0  2  0  0  3  0  0  0  0  0  0
  158.6880  211.0560  153.7290 C   0  0  0  0  0  2  0  0  0  0  0  0
  160.7460  211.8290  156.1530 C   0  0  0  0  0  3  0  0  0  0  0  0
  159.0300  213.2370  154.9230 C   0  0  2  0  0  3  0  0  0  0  0  0
  160.1780  210.7430  153.9270 C   0  0  1  0  0  3  0  0  0  0  0  0
  161.7420  209.6540  155.6600 C   0  0  0  0  0  1  0  0  0  0  0  0
  160.0810  212.9820  155.9670 C   0  0  0  0  0  3  0  0  0  0  0  0
  160.5210  210.5290  155.4210 C   0  0  1  0  0  3  0  0  0  0  0  0
  158.2790  214.3530  155.2870 O   0  0  0  0  0  1  0  0  0  0  0  0
  158.1100  212.0410  154.7450 C   0  0  0  0  0  2  0  0  0  0  0  0
  162.1260  211.0000  149.4190 C   0  0  1  0  0  3  0  0  0  0  0  0
  163.0810  210.9340  148.2250 C   0  0  0  0  0  2  0  0  0  0  0  0
  161.6070  213.3690  148.6770 C   0  0  0  0  0  0  0  0  0  0  0  0
  163.7280  212.2900  147.9880 C   0  0  0  0  0  2  0  0  0  0  0  0
  160.3250  212.3430  150.5650 C   0  0  0  0  0  1  0  0  0  0  0  0
  161.0370  212.0850  149.2430 C   0  0  2  0  0  3  0  0  0  0  0  0
  161.1370  214.4530  148.9850 O   0  0  0  0  0  0  0  0  0  0  0  0
  162.6620  213.3110  147.6160 C   0  0  0  0  0  2  0  0  0  0  0  0
  1 10  1  6  0  0  0
  1 11  1  0  0  0  0
  3  9  1  1  0  0  0
  3 15  1  0  0  0  0
  4  7  1  1  0  0  0
  5  3  1  0  0  0  0
  6  8  1  0  0  0  0
  7  9  1  0  0  0  0
  8  2  1  1  0  0  0
  8  4  1  0  0  0  0
 10  6  1  0  0  0  0
 11  4  1  0  0  0  0
 11  5  1  1  0  0  0
 12 20  1  0  0  0  0
 14 19  1  1  0  0  0
 14 17  1  0  0  0  0
 15 12  1  1  0  0  0
 15 18  1  0  0  0  0
 17 13  2  0  0  0  0
 18 16  1  6  0  0  0
 18 13  1  0  0  0  0
 20 14  1  0  0  0  0
 21 22  1  6  0  0  0
 21  1  1  0  0  0  0
 23 27  2  0  0  0  0
 23 26  1  0  0  0  0
 24 22  1  0  0  0  0
 26 21  1  0  0  0  0
 26 25  1  1  0  0  0
 28 24  1  0  0  0  0
 28 23  1  0  0  0  0
M  END
>  <MODEL>
9

>  <REMARK>
 VINA RESULT:      -5.9      2.518      6.201
  Name = 
  2 active torsions:
  status: ('A' for Active; 'I' for Inactive)
    1  A    between atoms: C_1  and  C_2
    2  A    between atoms: C_10  and  C_13
                            x       y       z     vdW  Elec       q    Type
                         _______ _______ _______ _____ _____    ______ ____

>  <TORSDO>
F 2

$$$$
