=
 OpenBabel11052422103D

 25 28  0  0  1  0  0  0  0  0999 V2000
  160.4790  209.7650  153.5400 C   0  0  2  0  0  3  0  0  0  0  0  0
  161.0850  208.8950  152.4790 C   0  0  0  0  0  0  0  0  0  0  0  0
  161.3080  211.7080  150.4080 O   0  0  0  0  0  0  0  0  0  0  0  0
  161.0990  210.9340  151.3790 C   0  0  0  0  0  0  0  0  0  0  0  0
  161.9660  208.7650  150.2260 C   0  0  0  0  0  0  0  0  0  0  0  0
  162.2390  209.3340  149.1370 O   0  0  0  0  0  0  0  0  0  0  0  0
  161.2240  207.4040  152.6400 C   0  0  0  0  0  2  0  0  0  0  0  0
  160.4120  211.4960  152.9230 S   0  0  0  0  0  0  0  0  0  0  0  0
  162.2290  207.3690  150.3890 N   0  0  0  0  0  0  0  0  0  0  0  0
  161.9450  206.7300  151.4910 C   0  0  0  0  0  0  0  0  0  0  0  0
  161.3890  209.5140  151.3500 C   0  0  0  0  0  0  0  0  0  0  0  0
  161.2040  209.6680  154.8540 C   0  0  0  0  0  0  0  0  0  0  0  0
  162.6450  209.5890  157.2610 C   0  0  0  0  0  3  0  0  0  0  0  0
  160.8340  208.7640  155.8750 C   0  0  0  0  0  0  0  0  0  0  0  0
  161.5600  208.7300  157.0700 C   0  0  0  0  0  3  0  0  0  0  0  0
  163.0120  210.4850  156.2550 C   0  0  0  0  0  3  0  0  0  0  0  0
  159.7250  207.8840  155.7190 N   0  0  0  0  0  1  0  0  0  0  0  0
  162.2930  210.5230  155.0570 C   0  0  0  0  0  3  0  0  0  0  0  0
  162.2130  205.2490  151.5870 C   0  0  2  0  0  3  0  0  0  0  0  0
  161.6340  204.4310  150.4810 N   0  0  0  0  0  0  0  0  0  0  0  0
  160.9950  204.4690  151.8040 C   0  0  0  0  0  2  0  0  0  0  0  0
  160.8070  205.1940  149.6360 N   0  0  0  0  0  2  0  0  0  0  0  0
  160.1550  205.8030  147.4920 O   0  0  0  0  0  0  0  0  0  0  0  0
  162.0500  204.3750  147.5790 C   0  0  0  0  0  1  0  0  0  0  0  0
  160.9570  205.1590  148.2160 C   0  0  0  0  0  0  0  0  0  0  0  0
  1 12  1  1  0  0  0
  2  7  1  0  0  0  0
  2  1  1  0  0  0  0
  3  4  2  0  0  0  0
  4  8  1  0  0  0  0
  5  9  1  0  0  0  0
  5 11  1  0  0  0  0
  6  5  2  0  0  0  0
  8  1  1  0  0  0  0
  9 10  2  0  0  0  0
 10  7  1  0  0  0  0
 11  4  1  0  0  0  0
 11  2  2  0  0  0  0
 12 18  2  0  0  0  0
 12 14  1  0  0  0  0
 14 15  2  0  0  0  0
 15 13  1  0  0  0  0
 16 13  2  0  0  0  0
 17 14  1  0  0  0  0
 18 16  1  0  0  0  0
 19 10  1  6  0  0  0
 19 21  1  0  0  0  0
 20 19  1  0  0  0  0
 20 21  1  0  0  0  0
 22 20  1  0  0  0  0
 23 25  2  0  0  0  0
 24 25  1  0  0  0  0
 25 22  1  0  0  0  0
M  END
>  <MODEL>
1

>  <REMARK>
 VINA RESULT:      -7.0      0.000      0.000
  Name = 
  3 active torsions:
  status: ('A' for Active; 'I' for Inactive)
    1  A    between atoms: C_1  and  C_5
    2  A    between atoms: N_2  and  N_15
    3  A    between atoms: C_6  and  C_23
                            x       y       z     vdW  Elec       q    Type
                         _______ _______ _______ _____ _____    ______ ____

>  <TORSDO>
F 3

$$$$
=
 OpenBabel11052422103D

 25 28  0  0  1  0  0  0  0  0999 V2000
  162.3910  206.9750  151.4060 C   0  0  2  0  0  3  0  0  0  0  0  0
  161.6230  207.8930  152.3100 C   0  0  0  0  0  0  0  0  0  0  0  0
  161.8700  210.3840  149.8650 O   0  0  0  0  0  0  0  0  0  0  0  0
  161.9540  209.3000  150.5010 C   0  0  0  0  0  0  0  0  0  0  0  0
  160.6970  210.1070  152.6350 C   0  0  0  0  0  0  0  0  0  0  0  0
  160.5120  211.2760  152.2050 O   0  0  0  0  0  0  0  0  0  0  0  0
  161.2230  207.4990  153.7090 C   0  0  0  0  0  2  0  0  0  0  0  0
  162.7550  207.8560  149.8340 S   0  0  0  0  0  0  0  0  0  0  0  0
  160.1910  209.7290  153.9180 N   0  0  0  0  0  0  0  0  0  0  0  0
  160.3750  208.5370  154.4160 C   0  0  0  0  0  0  0  0  0  0  0  0
  161.4150  209.1090  151.8330 C   0  0  0  0  0  0  0  0  0  0  0  0
  161.6820  205.6710  151.1650 C   0  0  0  0  0  0  0  0  0  0  0  0
  160.4240  203.1850  150.8290 C   0  0  0  0  0  3  0  0  0  0  0  0
  160.7900  205.4650  150.0890 C   0  0  0  0  0  0  0  0  0  0  0  0
  160.1690  204.2210  149.9280 C   0  0  0  0  0  3  0  0  0  0  0  0
  161.3020  203.3860  151.8950 C   0  0  0  0  0  3  0  0  0  0  0  0
  160.4970  206.5040  149.1590 N   0  0  0  0  0  1  0  0  0  0  0  0
  161.9280  204.6240  152.0610 C   0  0  0  0  0  3  0  0  0  0  0  0
  159.8490  208.2110  155.7910 C   0  0  2  0  0  3  0  0  0  0  0  0
  160.7430  208.6100  156.9180 N   0  0  0  0  0  0  0  0  0  0  0  0
  160.6610  207.2090  156.4820 C   0  0  0  0  0  2  0  0  0  0  0  0
  161.9890  209.0790  156.4640 N   0  0  0  0  0  2  0  0  0  0  0  0
  163.5320  210.8040  156.2810 O   0  0  0  0  0  0  0  0  0  0  0  0
  161.4540  211.4360  157.2400 C   0  0  0  0  0  1  0  0  0  0  0  0
  162.3830  210.4400  156.6400 C   0  0  0  0  0  0  0  0  0  0  0  0
  1 12  1  6  0  0  0
  1  2  1  0  0  0  0
  2  7  1  0  0  0  0
  3  4  2  0  0  0  0
  4 11  1  0  0  0  0
  5  9  1  0  0  0  0
  6  5  2  0  0  0  0
  7 10  1  0  0  0  0
  8  4  1  0  0  0  0
  8  1  1  0  0  0  0
  9 10  2  0  0  0  0
 11  2  2  0  0  0  0
 11  5  1  0  0  0  0
 12 18  1  0  0  0  0
 13 16  1  0  0  0  0
 14 12  2  0  0  0  0
 15 14  1  0  0  0  0
 15 13  2  0  0  0  0
 16 18  2  0  0  0  0
 17 14  1  0  0  0  0
 19 10  1  6  0  0  0
 19 21  1  0  0  0  0
 19 20  1  0  0  0  0
 21 20  1  0  0  0  0
 22 25  1  0  0  0  0
 22 20  1  0  0  0  0
 23 25  2  0  0  0  0
 25 24  1  0  0  0  0
M  END
>  <MODEL>
2

>  <REMARK>
 VINA RESULT:      -6.9      2.205      6.495
  Name = 
  3 active torsions:
  status: ('A' for Active; 'I' for Inactive)
    1  A    between atoms: C_1  and  C_5
    2  A    between atoms: N_2  and  N_15
    3  A    between atoms: C_6  and  C_23
                            x       y       z     vdW  Elec       q    Type
                         _______ _______ _______ _____ _____    ______ ____

>  <TORSDO>
F 3

$$$$
=
 OpenBabel11052422103D

 25 28  0  0  1  0  0  0  0  0999 V2000
  161.7490  209.2850  152.6510 C   0  0  2  0  0  3  0  0  0  0  0  0
  161.8450  209.5310  151.1750 C   0  0  0  0  0  0  0  0  0  0  0  0
  160.9190  206.2000  150.6360 O   0  0  0  0  0  0  0  0  0  0  0  0
  161.2090  207.3040  151.1670 C   0  0  0  0  0  0  0  0  0  0  0  0
  161.6610  208.5930  148.9490 C   0  0  0  0  0  0  0  0  0  0  0  0
  161.4320  207.6020  148.2090 O   0  0  0  0  0  0  0  0  0  0  0  0
  162.3310  210.8390  150.6050 C   0  0  0  0  0  2  0  0  0  0  0  0
  161.2030  207.5510  152.9310 S   0  0  0  0  0  0  0  0  0  0  0  0
  161.9970  209.8570  148.3680 N   0  0  0  0  0  0  0  0  0  0  0  0
  162.2630  210.9090  149.0930 C   0  0  0  0  0  0  0  0  0  0  0  0
  161.5770  208.4850  150.4110 C   0  0  0  0  0  0  0  0  0  0  0  0
  160.8520  210.2720  153.3470 C   0  0  0  0  0  0  0  0  0  0  0  0
  159.0830  212.0930  154.5410 C   0  0  0  0  0  3  0  0  0  0  0  0
  161.2060  210.9230  154.5500 C   0  0  0  0  0  0  0  0  0  0  0  0
  160.3190  211.8310  155.1360 C   0  0  0  0  0  3  0  0  0  0  0  0
  158.7280  211.4500  153.3540 C   0  0  0  0  0  3  0  0  0  0  0  0
  162.4530  210.6680  155.1910 N   0  0  0  0  0  1  0  0  0  0  0  0
  159.6100  210.5430  152.7610 C   0  0  0  0  0  3  0  0  0  0  0  0
  162.6470  212.2030  148.4210 C   0  0  2  0  0  3  0  0  0  0  0  0
  161.5680  213.2340  148.3810 N   0  0  0  0  0  0  0  0  0  0  0  0
  161.8960  212.4410  147.1880 C   0  0  0  0  0  2  0  0  0  0  0  0
  160.3390  212.7330  148.8480 N   0  0  0  0  0  2  0  0  0  0  0  0
  158.5340  212.8930  150.3000 O   0  0  0  0  0  0  0  0  0  0  0  0
  160.2760  214.4530  150.7140 C   0  0  0  0  0  1  0  0  0  0  0  0
  159.6630  213.3280  149.9560 C   0  0  0  0  0  0  0  0  0  0  0  0
  1  8  1  0  0  0  0
  1 12  1  6  0  0  0
  2  1  1  0  0  0  0
  3  4  2  0  0  0  0
  4  8  1  0  0  0  0
  5 11  1  0  0  0  0
  6  5  2  0  0  0  0
  7  2  1  0  0  0  0
  9  5  1  0  0  0  0
  9 10  2  0  0  0  0
 10  7  1  0  0  0  0
 11  4  1  0  0  0  0
 11  2  2  0  0  0  0
 12 14  1  0  0  0  0
 13 15  1  0  0  0  0
 14 15  2  0  0  0  0
 14 17  1  0  0  0  0
 16 13  2  0  0  0  0
 18 12  2  0  0  0  0
 18 16  1  0  0  0  0
 19 10  1  1  0  0  0
 20 19  1  0  0  0  0
 20 22  1  0  0  0  0
 21 20  1  0  0  0  0
 21 19  1  0  0  0  0
 22 25  1  0  0  0  0
 25 23  2  0  0  0  0
 25 24  1  0  0  0  0
M  END
>  <MODEL>
3

>  <REMARK>
 VINA RESULT:      -6.6      3.047      5.518
  Name = 
  3 active torsions:
  status: ('A' for Active; 'I' for Inactive)
    1  A    between atoms: C_1  and  C_5
    2  A    between atoms: N_2  and  N_15
    3  A    between atoms: C_6  and  C_23
                            x       y       z     vdW  Elec       q    Type
                         _______ _______ _______ _____ _____    ______ ____

>  <TORSDO>
F 3

$$$$
=
 OpenBabel11052422103D

 25 28  0  0  1  0  0  0  0  0999 V2000
  160.6200  204.9760  148.7730 C   0  0  2  0  0  3  0  0  0  0  0  0
  161.1840  205.8160  149.8790 C   0  0  0  0  0  0  0  0  0  0  0  0
  161.0800  203.0070  151.9640 O   0  0  0  0  0  0  0  0  0  0  0  0
  160.9940  203.7860  150.9780 C   0  0  0  0  0  0  0  0  0  0  0  0
  161.8830  205.9100  152.1970 C   0  0  0  0  0  0  0  0  0  0  0  0
  162.0340  205.3330  153.3050 O   0  0  0  0  0  0  0  0  0  0  0  0
  161.4190  207.2970  149.7280 C   0  0  0  0  0  2  0  0  0  0  0  0
  160.4060  203.2550  149.3840 S   0  0  0  0  0  0  0  0  0  0  0  0
  162.2370  207.2890  152.0540 N   0  0  0  0  0  0  0  0  0  0  0  0
  162.0800  207.9360  150.9320 C   0  0  0  0  0  0  0  0  0  0  0  0
  161.3600  205.1880  151.0300 C   0  0  0  0  0  0  0  0  0  0  0  0
  161.4540  205.0250  147.5230 C   0  0  0  0  0  0  0  0  0  0  0  0
  163.1050  205.0300  145.2540 C   0  0  0  0  0  3  0  0  0  0  0  0
  161.0910  205.7730  146.3810 C   0  0  0  0  0  0  0  0  0  0  0  0
  161.9210  205.7720  145.2550 C   0  0  0  0  0  3  0  0  0  0  0  0
  163.4660  204.2880  146.3790 C   0  0  0  0  0  3  0  0  0  0  0  0
  159.8830  206.5290  146.3440 N   0  0  0  0  0  1  0  0  0  0  0  0
  162.6430  204.2860  147.5080 C   0  0  0  0  0  3  0  0  0  0  0  0
  162.4380  209.3990  150.8570 C   0  0  2  0  0  3  0  0  0  0  0  0
  161.8760  210.2420  151.9530 N   0  0  0  0  0  0  0  0  0  0  0  0
  161.2740  210.2520  150.6130 C   0  0  0  0  0  2  0  0  0  0  0  0
  160.9820  209.5230  152.7680 N   0  0  0  0  0  2  0  0  0  0  0  0
  160.1000  209.0870  154.8710 O   0  0  0  0  0  0  0  0  0  0  0  0
  161.9390  210.5890  154.8640 C   0  0  0  0  0  1  0  0  0  0  0  0
  160.9590  209.6970  154.1850 C   0  0  0  0  0  0  0  0  0  0  0  0
  1 12  1  6  0  0  0
  1  8  1  0  0  0  0
  1  2  1  0  0  0  0
  2 11  2  0  0  0  0
  4 11  1  0  0  0  0
  4  3  2  0  0  0  0
  5  6  2  0  0  0  0
  7  2  1  0  0  0  0
  7 10  1  0  0  0  0
  8  4  1  0  0  0  0
  9  5  1  0  0  0  0
 10  9  2  0  0  0  0
 11  5  1  0  0  0  0
 13 15  2  0  0  0  0
 13 16  1  0  0  0  0
 14 12  2  0  0  0  0
 15 14  1  0  0  0  0
 16 18  2  0  0  0  0
 17 14  1  0  0  0  0
 18 12  1  0  0  0  0
 19 10  1  1  0  0  0
 19 20  1  0  0  0  0
 20 22  1  0  0  0  0
 21 19  1  0  0  0  0
 21 20  1  0  0  0  0
 22 25  1  0  0  0  0
 25 24  1  0  0  0  0
 25 23  2  0  0  0  0
M  END
>  <MODEL>
4

>  <REMARK>
 VINA RESULT:      -6.4      3.146      7.719
  Name = 
  3 active torsions:
  status: ('A' for Active; 'I' for Inactive)
    1  A    between atoms: C_1  and  C_5
    2  A    between atoms: N_2  and  N_15
    3  A    between atoms: C_6  and  C_23
                            x       y       z     vdW  Elec       q    Type
                         _______ _______ _______ _____ _____    ______ ____

>  <TORSDO>
F 3

$$$$
=
 OpenBabel11052422103D

 25 28  0  0  1  0  0  0  0  0999 V2000
  160.6480  206.1780  148.4510 C   0  0  2  0  0  3  0  0  0  0  0  0
  161.2100  207.4300  149.0570 C   0  0  0  0  0  0  0  0  0  0  0  0
  161.2100  205.8310  152.1700 O   0  0  0  0  0  0  0  0  0  0  0  0
  161.0890  206.0920  150.9450 C   0  0  0  0  0  0  0  0  0  0  0  0
  161.9440  208.5490  151.0760 C   0  0  0  0  0  0  0  0  0  0  0  0
  162.1280  208.5240  152.3210 O   0  0  0  0  0  0  0  0  0  0  0  0
  161.4050  208.6940  148.2620 C   0  0  0  0  0  2  0  0  0  0  0  0
  160.4880  204.9010  149.7640 S   0  0  0  0  0  0  0  0  0  0  0  0
  162.2610  209.7280  150.3300 N   0  0  0  0  0  0  0  0  0  0  0  0
  162.0690  209.8100  149.0420 C   0  0  0  0  0  0  0  0  0  0  0  0
  161.4200  207.3780  150.3620 C   0  0  0  0  0  0  0  0  0  0  0  0
  161.4610  205.6820  147.2870 C   0  0  0  0  0  0  0  0  0  0  0  0
  163.0810  204.7250  145.2050 C   0  0  0  0  0  3  0  0  0  0  0  0
  160.9940  205.7080  145.9530 C   0  0  0  0  0  0  0  0  0  0  0  0
  161.8100  205.2310  144.9220 C   0  0  0  0  0  3  0  0  0  0  0  0
  163.5440  204.6960  146.5220 C   0  0  0  0  0  3  0  0  0  0  0  0
  159.6980  206.2040  145.6310 N   0  0  0  0  0  1  0  0  0  0  0  0
  162.7360  205.1730  147.5570 C   0  0  0  0  0  3  0  0  0  0  0  0
  162.3890  211.0940  148.3190 C   0  0  2  0  0  3  0  0  0  0  0  0
  161.7920  212.3220  148.9220 N   0  0  0  0  0  0  0  0  0  0  0  0
  161.2060  211.7130  147.7200 C   0  0  0  0  0  2  0  0  0  0  0  0
  160.9080  212.0180  149.9740 N   0  0  0  0  0  2  0  0  0  0  0  0
  159.2560  212.6950  151.4590 O   0  0  0  0  0  0  0  0  0  0  0  0
  160.1850  214.4460  150.1500 C   0  0  0  0  0  1  0  0  0  0  0  0
  160.0820  213.0200  150.5670 C   0  0  0  0  0  0  0  0  0  0  0  0
  1 12  1  6  0  0  0
  1  2  1  0  0  0  0
  1  8  1  0  0  0  0
  2 11  2  0  0  0  0
  4  3  2  0  0  0  0
  5  6  2  0  0  0  0
  7 10  1  0  0  0  0
  7  2  1  0  0  0  0
  8  4  1  0  0  0  0
  9  5  1  0  0  0  0
 10  9  2  0  0  0  0
 11  4  1  0  0  0  0
 11  5  1  0  0  0  0
 12 18  1  0  0  0  0
 13 16  1  0  0  0  0
 14 12  2  0  0  0  0
 15 13  2  0  0  0  0
 15 14  1  0  0  0  0
 16 18  2  0  0  0  0
 17 14  1  0  0  0  0
 19 20  1  0  0  0  0
 19 10  1  1  0  0  0
 20 22  1  0  0  0  0
 21 19  1  0  0  0  0
 21 20  1  0  0  0  0
 22 25  1  0  0  0  0
 24 25  1  0  0  0  0
 25 23  2  0  0  0  0
M  END
>  <MODEL>
5

>  <REMARK>
 VINA RESULT:      -6.2      3.935      7.807
  Name = 
  3 active torsions:
  status: ('A' for Active; 'I' for Inactive)
    1  A    between atoms: C_1  and  C_5
    2  A    between atoms: N_2  and  N_15
    3  A    between atoms: C_6  and  C_23
                            x       y       z     vdW  Elec       q    Type
                         _______ _______ _______ _____ _____    ______ ____

>  <TORSDO>
F 3

$$$$
=
 OpenBabel11052422103D

 25 28  0  0  1  0  0  0  0  0999 V2000
  162.3570  206.6890  151.5450 C   0  0  2  0  0  3  0  0  0  0  0  0
  161.7720  205.9180  150.3990 C   0  0  0  0  0  0  0  0  0  0  0  0
  160.8510  203.4100  152.6600 O   0  0  0  0  0  0  0  0  0  0  0  0
  161.2980  204.4670  152.1420 C   0  0  0  0  0  0  0  0  0  0  0  0
  160.6530  203.8910  149.6840 C   0  0  0  0  0  0  0  0  0  0  0  0
  160.1610  202.7690  149.9710 O   0  0  0  0  0  0  0  0  0  0  0  0
  161.8930  206.3790  148.9700 C   0  0  0  0  0  2  0  0  0  0  0  0
  162.0710  205.7530  153.1010 S   0  0  0  0  0  0  0  0  0  0  0  0
  160.6370  204.3550  148.3310 N   0  0  0  0  0  0  0  0  0  0  0  0
  161.1530  205.5010  147.9810 C   0  0  0  0  0  0  0  0  0  0  0  0
  161.2360  204.7520  150.7220 C   0  0  0  0  0  0  0  0  0  0  0  0
  161.8240  208.0930  151.6310 C   0  0  0  0  0  0  0  0  0  0  0  0
  160.9070  210.7440  151.6770 C   0  0  0  0  0  3  0  0  0  0  0  0
  160.9220  208.5160  152.6330 C   0  0  0  0  0  0  0  0  0  0  0  0
  160.4720  209.8400  152.6490 C   0  0  0  0  0  3  0  0  0  0  0  0
  161.7950  210.3290  150.6840 C   0  0  0  0  0  3  0  0  0  0  0  0
  160.4490  207.6170  153.6320 N   0  0  0  0  0  1  0  0  0  0  0  0
  162.2510  209.0080  150.6630 C   0  0  0  0  0  3  0  0  0  0  0  0
  161.1380  205.9170  146.5310 C   0  0  2  0  0  3  0  0  0  0  0  0
  161.2440  204.7940  145.5540 N   0  0  0  0  0  0  0  0  0  0  0  0
  162.4050  205.6420  145.8540 C   0  0  0  0  0  2  0  0  0  0  0  0
  161.4960  203.5630  146.1870 N   0  0  0  0  0  2  0  0  0  0  0  0
  161.1490  201.2710  146.3170 O   0  0  0  0  0  0  0  0  0  0  0  0
  159.8120  202.3820  144.7000 C   0  0  0  0  0  1  0  0  0  0  0  0
  160.8460  202.3620  145.7700 C   0  0  0  0  0  0  0  0  0  0  0  0
  1 12  1  1  0  0  0
  1  8  1  0  0  0  0
  2 11  2  0  0  0  0
  2  1  1  0  0  0  0
  4  3  2  0  0  0  0
  4  8  1  0  0  0  0
  5  6  2  0  0  0  0
  5 11  1  0  0  0  0
  7  2  1  0  0  0  0
  9  5  1  0  0  0  0
 10  9  2  0  0  0  0
 10  7  1  0  0  0  0
 11  4  1  0  0  0  0
 12 14  1  0  0  0  0
 13 15  1  0  0  0  0
 14 15  2  0  0  0  0
 14 17  1  0  0  0  0
 16 13  2  0  0  0  0
 18 16  1  0  0  0  0
 18 12  2  0  0  0  0
 19 10  1  1  0  0  0
 20 21  1  0  0  0  0
 20 22  1  0  0  0  0
 20 19  1  0  0  0  0
 21 19  1  0  0  0  0
 24 25  1  0  0  0  0
 25 22  1  0  0  0  0
 25 23  2  0  0  0  0
M  END
>  <MODEL>
6

>  <REMARK>
 VINA RESULT:      -6.2      3.464      5.001
  Name = 
  3 active torsions:
  status: ('A' for Active; 'I' for Inactive)
    1  A    between atoms: C_1  and  C_5
    2  A    between atoms: N_2  and  N_15
    3  A    between atoms: C_6  and  C_23
                            x       y       z     vdW  Elec       q    Type
                         _______ _______ _______ _____ _____    ______ ____

>  <TORSDO>
F 3

$$$$
=
 OpenBabel11052422103D

 25 28  0  0  1  0  0  0  0  0999 V2000
  160.4670  209.4250  154.3650 C   0  0  2  0  0  3  0  0  0  0  0  0
  159.8540  210.7930  154.3070 C   0  0  0  0  0  0  0  0  0  0  0  0
  161.8030  211.6990  157.0700 O   0  0  0  0  0  0  0  0  0  0  0  0
  161.2750  211.0680  156.1160 C   0  0  0  0  0  0  0  0  0  0  0  0
  159.7280  212.9990  155.3010 C   0  0  0  0  0  0  0  0  0  0  0  0
  160.0970  213.8060  156.1930 O   0  0  0  0  0  0  0  0  0  0  0  0
  158.7530  211.1440  153.3400 C   0  0  0  0  0  2  0  0  0  0  0  0
  161.7000  209.3830  155.7280 S   0  0  0  0  0  0  0  0  0  0  0  0
  158.7720  213.4080  154.3180 N   0  0  0  0  0  0  0  0  0  0  0  0
  158.3420  212.6010  153.3860 C   0  0  0  0  0  0  0  0  0  0  0  0
  160.2720  211.6370  155.2360 C   0  0  0  0  0  0  0  0  0  0  0  0
  161.0690  209.0030  153.0530 C   0  0  0  0  0  0  0  0  0  0  0  0
  162.2100  208.3540  150.5730 C   0  0  0  0  0  3  0  0  0  0  0  0
  161.2160  207.6510  152.6700 C   0  0  0  0  0  0  0  0  0  0  0  0
  161.7830  207.3380  151.4310 C   0  0  0  0  0  3  0  0  0  0  0  0
  162.0690  209.6910  150.9490 C   0  0  0  0  0  3  0  0  0  0  0  0
  160.8040  206.5900  153.5260 N   0  0  0  0  0  1  0  0  0  0  0  0
  161.5000  210.0130  152.1850 C   0  0  0  0  0  3  0  0  0  0  0  0
  157.3060  213.0820  152.4010 C   0  0  2  0  0  3  0  0  0  0  0  0
  157.8210  213.3440  151.0240 N   0  0  0  0  0  0  0  0  0  0  0  0
  157.5500  214.4520  151.9500 C   0  0  0  0  0  2  0  0  0  0  0  0
  159.2220  213.2370  150.9540 N   0  0  0  0  0  2  0  0  0  0  0  0
  161.1770  213.3370  149.7050 O   0  0  0  0  0  0  0  0  0  0  0  0
  159.1810  213.5460  148.4350 C   0  0  0  0  0  1  0  0  0  0  0  0
  159.9190  213.3710  149.7160 C   0  0  0  0  0  0  0  0  0  0  0  0
  1 12  1  6  0  0  0
  1  8  1  0  0  0  0
  2  1  1  0  0  0  0
  2 11  2  0  0  0  0
  4  3  2  0  0  0  0
  5  6  2  0  0  0  0
  7 10  1  0  0  0  0
  7  2  1  0  0  0  0
  8  4  1  0  0  0  0
  9  5  1  0  0  0  0
 10  9  2  0  0  0  0
 11  5  1  0  0  0  0
 11  4  1  0  0  0  0
 13 16  2  0  0  0  0
 13 15  1  0  0  0  0
 14 12  1  0  0  0  0
 14 17  1  0  0  0  0
 15 14  2  0  0  0  0
 16 18  1  0  0  0  0
 18 12  2  0  0  0  0
 19 10  1  1  0  0  0
 20 21  1  0  0  0  0
 20 19  1  0  0  0  0
 21 19  1  0  0  0  0
 22 20  1  0  0  0  0
 23 25  2  0  0  0  0
 24 25  1  0  0  0  0
 25 22  1  0  0  0  0
M  END
>  <MODEL>
7

>  <REMARK>
 VINA RESULT:      -5.8      3.791      6.631
  Name = 
  3 active torsions:
  status: ('A' for Active; 'I' for Inactive)
    1  A    between atoms: C_1  and  C_5
    2  A    between atoms: N_2  and  N_15
    3  A    between atoms: C_6  and  C_23
                            x       y       z     vdW  Elec       q    Type
                         _______ _______ _______ _____ _____    ______ ____

>  <TORSDO>
F 3

$$$$
=
 OpenBabel11052422103D

 25 28  0  0  1  0  0  0  0  0999 V2000
  160.9910  210.2120  154.2910 C   0  0  2  0  0  3  0  0  0  0  0  0
  161.1460  209.1730  153.2200 C   0  0  0  0  0  0  0  0  0  0  0  0
  160.5960  206.7060  155.6410 O   0  0  0  0  0  0  0  0  0  0  0  0
  160.7410  207.8070  155.0470 C   0  0  0  0  0  0  0  0  0  0  0  0
  161.1860  206.8120  152.6810 C   0  0  0  0  0  0  0  0  0  0  0  0
  161.1020  205.6140  153.0590 O   0  0  0  0  0  0  0  0  0  0  0  0
  161.5290  209.5230  151.8060 C   0  0  0  0  0  2  0  0  0  0  0  0
  160.6090  209.3740  155.8820 S   0  0  0  0  0  0  0  0  0  0  0  0
  161.4250  207.1110  151.3020 N   0  0  0  0  0  0  0  0  0  0  0  0
  161.5410  208.3350  150.8650 C   0  0  0  0  0  0  0  0  0  0  0  0
  161.0300  207.9210  153.6300 C   0  0  0  0  0  0  0  0  0  0  0  0
  159.9610  211.2510  153.9460 C   0  0  0  0  0  0  0  0  0  0  0  0
  158.0070  213.1160  153.1830 C   0  0  0  0  0  3  0  0  0  0  0  0
  159.7090  212.3860  154.7490 C   0  0  0  0  0  0  0  0  0  0  0  0
  158.7350  213.3110  154.3600 C   0  0  0  0  0  3  0  0  0  0  0  0
  158.2510  211.9950  152.3890 C   0  0  0  0  0  3  0  0  0  0  0  0
  160.4240  212.6090  155.9620 N   0  0  0  0  0  1  0  0  0  0  0  0
  159.2250  211.0670  152.7700 C   0  0  0  0  0  3  0  0  0  0  0  0
  161.8290  208.5840  149.4060 C   0  0  2  0  0  3  0  0  0  0  0  0
  161.3260  207.5300  148.4770 N   0  0  0  0  0  0  0  0  0  0  0  0
  162.7480  207.5980  148.8370 C   0  0  0  0  0  2  0  0  0  0  0  0
  160.8090  206.4180  149.1680 N   0  0  0  0  0  2  0  0  0  0  0  0
  160.5530  204.1180  149.3510 O   0  0  0  0  0  0  0  0  0  0  0  0
  161.6200  204.8360  147.3550 C   0  0  0  0  0  1  0  0  0  0  0  0
  160.9690  205.0900  148.6700 C   0  0  0  0  0  0  0  0  0  0  0  0
  1 12  1  6  0  0  0
  1  8  1  0  0  0  0
  2 11  2  0  0  0  0
  2  1  1  0  0  0  0
  4  3  2  0  0  0  0
  4  8  1  0  0  0  0
  5  6  2  0  0  0  0
  5 11  1  0  0  0  0
  7  2  1  0  0  0  0
  9  5  1  0  0  0  0
 10  9  2  0  0  0  0
 10  7  1  0  0  0  0
 11  4  1  0  0  0  0
 12 14  1  0  0  0  0
 13 15  1  0  0  0  0
 14 17  1  0  0  0  0
 15 14  2  0  0  0  0
 16 18  1  0  0  0  0
 16 13  2  0  0  0  0
 18 12  2  0  0  0  0
 19 10  1  1  0  0  0
 20 21  1  0  0  0  0
 20 22  1  0  0  0  0
 20 19  1  0  0  0  0
 21 19  1  0  0  0  0
 24 25  1  0  0  0  0
 25 22  1  0  0  0  0
 25 23  2  0  0  0  0
M  END
>  <MODEL>
8

>  <REMARK>
 VINA RESULT:      -5.8      2.850      3.977
  Name = 
  3 active torsions:
  status: ('A' for Active; 'I' for Inactive)
    1  A    between atoms: C_1  and  C_5
    2  A    between atoms: N_2  and  N_15
    3  A    between atoms: C_6  and  C_23
                            x       y       z     vdW  Elec       q    Type
                         _______ _______ _______ _____ _____    ______ ____

>  <TORSDO>
F 3

$$$$
=
 OpenBabel11052422103D

 25 28  0  0  1  0  0  0  0  0999 V2000
  160.2140  210.3660  155.0570 C   0  0  2  0  0  3  0  0  0  0  0  0
  160.5850  209.2870  154.0830 C   0  0  0  0  0  0  0  0  0  0  0  0
  160.7410  207.0340  156.7570 O   0  0  0  0  0  0  0  0  0  0  0  0
  160.5900  208.0660  156.0520 C   0  0  0  0  0  0  0  0  0  0  0  0
  161.1880  206.9610  153.7700 C   0  0  0  0  0  0  0  0  0  0  0  0
  161.4150  205.8270  154.2650 O   0  0  0  0  0  0  0  0  0  0  0  0
  160.8220  209.5650  152.6210 C   0  0  0  0  0  2  0  0  0  0  0  0
  160.1040  209.6350  156.7410 S   0  0  0  0  0  0  0  0  0  0  0  0
  161.2990  207.1610  152.3580 N   0  0  0  0  0  0  0  0  0  0  0  0
  161.0960  208.3220  151.8000 C   0  0  0  0  0  0  0  0  0  0  0  0
  160.7950  208.0950  154.6170 C   0  0  0  0  0  0  0  0  0  0  0  0
  158.9480  211.0820  154.6740 C   0  0  0  0  0  0  0  0  0  0  0  0
  156.5160  212.3360  154.0540 C   0  0  0  0  0  3  0  0  0  0  0  0
  158.9070  212.1190  153.7150 C   0  0  0  0  0  0  0  0  0  0  0  0
  157.6890  212.7360  153.4110 C   0  0  0  0  0  3  0  0  0  0  0  0
  156.5530  211.3140  155.0050 C   0  0  0  0  0  3  0  0  0  0  0  0
  160.0870  212.5600  153.0500 N   0  0  0  0  0  1  0  0  0  0  0  0
  157.7660  210.6910  155.3120 C   0  0  0  0  0  3  0  0  0  0  0  0
  161.2650  208.4760  150.3090 C   0  0  2  0  0  3  0  0  0  0  0  0
  160.9360  207.2580  149.5100 N   0  0  0  0  0  0  0  0  0  0  0  0
  162.3330  207.6310  149.7740 C   0  0  0  0  0  2  0  0  0  0  0  0
  160.6780  206.1430  150.3280 N   0  0  0  0  0  2  0  0  0  0  0  0
  160.6620  203.8400  150.6250 O   0  0  0  0  0  0  0  0  0  0  0  0
  161.2050  204.5470  148.4250 C   0  0  0  0  0  1  0  0  0  0  0  0
  160.8370  204.8090  149.8430 C   0  0  0  0  0  0  0  0  0  0  0  0
  1 12  1  6  0  0  0
  1  8  1  0  0  0  0
  2 11  2  0  0  0  0
  2  1  1  0  0  0  0
  4  8  1  0  0  0  0
  4  3  2  0  0  0  0
  5  6  2  0  0  0  0
  5 11  1  0  0  0  0
  7  2  1  0  0  0  0
  9  5  1  0  0  0  0
 10  9  2  0  0  0  0
 10  7  1  0  0  0  0
 11  4  1  0  0  0  0
 12 18  1  0  0  0  0
 13 16  1  0  0  0  0
 14 12  2  0  0  0  0
 15 14  1  0  0  0  0
 15 13  2  0  0  0  0
 16 18  2  0  0  0  0
 17 14  1  0  0  0  0
 19 10  1  1  0  0  0
 20 21  1  0  0  0  0
 20 19  1  0  0  0  0
 20 22  1  0  0  0  0
 21 19  1  0  0  0  0
 24 25  1  0  0  0  0
 25 22  1  0  0  0  0
 25 23  2  0  0  0  0
M  END
>  <MODEL>
9

>  <REMARK>
 VINA RESULT:      -5.7      3.277      4.365
  Name = 
  3 active torsions:
  status: ('A' for Active; 'I' for Inactive)
    1  A    between atoms: C_1  and  C_5
    2  A    between atoms: N_2  and  N_15
    3  A    between atoms: C_6  and  C_23
                            x       y       z     vdW  Elec       q    Type
                         _______ _______ _______ _____ _____    ______ ____

>  <TORSDO>
F 3

$$$$
