=
 OpenBabel11052422083D

 25 27  0  0  1  0  0  0  0  0999 V2000
  160.7610  205.6640  149.4160 C   0  0  1  0  0  3  0  0  0  0  0  0
  161.4930  206.7320  150.2570 C   0  0  2  0  0  3  0  0  0  0  0  0
  161.7440  206.8820  147.4190 C   0  0  0  0  0  2  0  0  0  0  0  0
  161.7780  208.1310  148.2390 C   0  0  0  0  0  3  0  0  0  0  0  0
  161.7790  209.3140  150.3600 C   0  0  0  0  0  0  0  0  0  0  0  0
  162.5100  210.2540  149.9480 O   0  0  0  0  0  0  0  0  0  0  0  0
  160.8720  206.7990  151.6530 C   0  0  0  0  0  2  0  0  0  0  0  0
  160.6140  205.9880  147.9150 C   0  0  0  0  0  2  0  0  0  0  0  0
  160.9490  209.4820  151.9380 S   0  0  0  0  0  0  0  0  0  0  0  0
  161.5390  207.8670  152.5100 C   0  0  1  0  0  3  0  0  0  0  0  0
  161.6240  208.0820  149.5660 C   0  0  0  0  0  0  0  0  0  0  0  0
  161.3170  204.2590  149.6750 C   0  0  2  0  0  3  0  0  0  0  0  0
  160.3490  201.4760  149.7470 C   0  0  0  0  0  2  0  0  0  0  0  0
  161.3140  203.3660  148.4440 C   0  0  0  0  0  0  0  0  0  0  0  0
  160.9140  202.0910  148.5000 C   0  0  0  0  0  3  0  0  0  0  0  0
  160.9150  202.1490  150.9890 C   0  0  0  0  0  2  0  0  0  0  0  0
  161.8170  203.8490  147.2440 O   0  0  0  0  0  1  0  0  0  0  0  0
  160.6280  203.6410  150.8990 C   0  0  0  0  0  2  0  0  0  0  0  0
  161.1550  207.6860  153.9410 C   0  0  0  0  0  3  0  0  0  0  0  0
  160.3770  208.5780  154.5550 C   0  0  0  0  0  3  0  0  0  0  0  0
  159.9900  208.4000  155.9880 C   0  0  1  0  0  3  0  0  0  0  0  0
  160.2910  206.9790  156.4230 C   0  0  0  0  0  1  0  0  0  0  0  0
  160.7180  209.3670  156.8650 C   0  0  0  0  0  0  0  0  0  0  0  0
  162.0330  209.1240  157.2480 O   0  0  0  0  0  0  0  0  0  0  0  0
  160.1360  210.4100  157.2610 O   0  0  0  0  0  1  0  0  0  0  0  0
  1  8  1  6  0  0  0
  1 12  1  0  0  0  0
  1  2  1  0  0  0  0
  2  7  1  1  0  0  0
  3  8  1  0  0  0  0
  3  4  1  0  0  0  0
  4 11  2  0  0  0  0
  5  9  1  0  0  0  0
  6  5  2  0  0  0  0
  7 10  1  0  0  0  0
  9 10  1  0  0  0  0
 10 19  1  1  0  0  0
 11  2  1  0  0  0  0
 11  5  1  0  0  0  0
 12 18  1  1  0  0  0
 13 16  1  0  0  0  0
 14 15  2  0  0  0  0
 14 12  1  0  0  0  0
 15 13  1  0  0  0  0
 17 14  1  0  0  0  0
 18 16  1  0  0  0  0
 19 20  2  0  0  0  0
 20 21  1  0  0  0  0
 21 22  1  1  0  0  0
 21 23  1  0  0  0  0
 23 24  2  0  0  0  0
 23 25  1  0  0  0  0
M  END
>  <MODEL>
1

>  <REMARK>
 VINA RESULT:      -9.2      0.000      0.000
  Name = 
  4 active torsions:
  status: ('A' for Active; 'I' for Inactive)
    1  A    between atoms: C_1  and  C_5
    2  A    between atoms: C_2  and  C_21
    3  A    between atoms: C_6  and  C_23
    4  A    between atoms: C_15  and  C_21
                            x       y       z     vdW  Elec       q    Type
                         _______ _______ _______ _____ _____    ______ ____

>  <TORSDO>
F 4

$$$$
=
 OpenBabel11052422083D

 25 27  0  0  1  0  0  0  0  0999 V2000
  161.0830  207.2470  151.1210 C   0  0  1  0  0  3  0  0  0  0  0  0
  161.5490  205.8140  150.7860 C   0  0  2  0  0  3  0  0  0  0  0  0
  161.5660  206.6030  153.5270 C   0  0  0  0  0  2  0  0  0  0  0  0
  161.3110  205.1760  153.1620 C   0  0  0  0  0  3  0  0  0  0  0  0
  161.1260  203.3660  151.5530 C   0  0  0  0  0  0  0  0  0  0  0  0
  161.5460  202.4830  152.3490 O   0  0  0  0  0  0  0  0  0  0  0  0
  161.0250  205.4160  149.4050 C   0  0  0  0  0  2  0  0  0  0  0  0
  160.7560  207.5080  152.6060 C   0  0  0  0  0  2  0  0  0  0  0  0
  160.3860  202.8620  150.0020 S   0  0  0  0  0  0  0  0  0  0  0  0
  161.4300  203.9930  149.0440 C   0  0  1  0  0  3  0  0  0  0  0  0
  161.2630  204.7970  151.8810 C   0  0  0  0  0  0  0  0  0  0  0  0
  162.0170  208.3030  150.5180 C   0  0  2  0  0  3  0  0  0  0  0  0
  161.8170  210.8810  149.1010 C   0  0  0  0  0  2  0  0  0  0  0  0
  161.9840  209.6360  151.2510 C   0  0  0  0  0  0  0  0  0  0  0  0
  161.9390  210.8000  150.5950 C   0  0  0  0  0  3  0  0  0  0  0  0
  162.4400  209.6590  148.4400 C   0  0  0  0  0  2  0  0  0  0  0  0
  162.0900  209.6600  152.6360 O   0  0  0  0  0  1  0  0  0  0  0  0
  161.7740  208.4140  149.0070 C   0  0  0  0  0  2  0  0  0  0  0  0
  161.2030  203.7510  147.5890 C   0  0  0  0  0  3  0  0  0  0  0  0
  161.8790  204.4410  146.6700 C   0  0  0  0  0  3  0  0  0  0  0  0
  161.6540  204.1990  145.2110 C   0  0  1  0  0  3  0  0  0  0  0  0
  160.7100  203.0270  145.0300 C   0  0  0  0  0  1  0  0  0  0  0  0
  161.0920  205.4150  144.5470 C   0  0  0  0  0  0  0  0  0  0  0  0
  160.1390  206.1960  145.1900 O   0  0  0  0  0  1  0  0  0  0  0  0
  161.4860  205.7340  143.3950 O   0  0  0  0  0  0  0  0  0  0  0  0
  1  8  1  1  0  0  0
  2  7  1  6  0  0  0
  2  1  1  0  0  0  0
  2 11  1  0  0  0  0
  4  3  1  0  0  0  0
  5 11  1  0  0  0  0
  5  6  2  0  0  0  0
  8  3  1  0  0  0  0
  9  5  1  0  0  0  0
 10 19  1  6  0  0  0
 10  7  1  0  0  0  0
 10  9  1  0  0  0  0
 11  4  2  0  0  0  0
 12 18  1  6  0  0  0
 12  1  1  0  0  0  0
 12 14  1  0  0  0  0
 13 15  1  0  0  0  0
 14 17  1  0  0  0  0
 15 14  2  0  0  0  0
 16 18  1  0  0  0  0
 16 13  1  0  0  0  0
 20 19  2  0  0  0  0
 21 22  1  1  0  0  0
 21 20  1  0  0  0  0
 23 24  1  0  0  0  0
 23 21  1  0  0  0  0
 25 23  2  0  0  0  0
M  END
>  <MODEL>
2

>  <REMARK>
 VINA RESULT:      -9.2      2.762      8.144
  Name = 
  4 active torsions:
  status: ('A' for Active; 'I' for Inactive)
    1  A    between atoms: C_1  and  C_5
    2  A    between atoms: C_2  and  C_21
    3  A    between atoms: C_6  and  C_23
    4  A    between atoms: C_15  and  C_21
                            x       y       z     vdW  Elec       q    Type
                         _______ _______ _______ _____ _____    ______ ____

>  <TORSDO>
F 4

$$$$
=
 OpenBabel11052422083D

 25 27  0  0  1  0  0  0  0  0999 V2000
  161.5560  205.2880  148.7970 C   0  0  1  0  0  3  0  0  0  0  0  0
  161.1380  206.6180  149.4610 C   0  0  2  0  0  3  0  0  0  0  0  0
  160.5160  204.2000  150.8400 C   0  0  0  0  0  2  0  0  0  0  0  0
  160.8080  205.4460  151.6120 C   0  0  0  0  0  3  0  0  0  0  0  0
  161.3060  207.8180  151.7610 C   0  0  0  0  0  0  0  0  0  0  0  0
  160.6910  207.9800  152.8490 O   0  0  0  0  0  0  0  0  0  0  0  0
  161.9540  207.7660  148.8630 C   0  0  0  0  0  2  0  0  0  0  0  0
  161.5400  204.0530  149.7200 C   0  0  0  0  0  2  0  0  0  0  0  0
  162.3680  209.1280  151.1560 S   0  0  0  0  0  0  0  0  0  0  0  0
  161.6030  209.0980  149.5130 C   0  0  1  0  0  3  0  0  0  0  0  0
  161.1380  206.5780  150.9820 C   0  0  0  0  0  0  0  0  0  0  0  0
  160.8150  205.0580  147.4750 C   0  0  2  0  0  3  0  0  0  0  0  0
  161.3710  205.1630  144.5810 C   0  0  0  0  0  2  0  0  0  0  0  0
  161.3160  203.8510  146.6970 C   0  0  0  0  0  0  0  0  0  0  0  0
  161.5220  203.9000  145.3760 C   0  0  0  0  0  3  0  0  0  0  0  0
  160.3500  206.0900  145.2260 C   0  0  0  0  0  2  0  0  0  0  0  0
  161.4880  202.6370  147.3490 O   0  0  0  0  0  1  0  0  0  0  0  0
  160.7820  206.3580  146.6600 C   0  0  0  0  0  2  0  0  0  0  0  0
  162.1500  210.2230  148.7010 C   0  0  0  0  0  3  0  0  0  0  0  0
  161.8220  211.4850  148.9770 C   0  0  0  0  0  3  0  0  0  0  0  0
  162.3700  212.6150  148.1640 C   0  0  1  0  0  3  0  0  0  0  0  0
  163.8210  212.3390  147.8220 C   0  0  0  0  0  1  0  0  0  0  0  0
  161.5780  212.8090  146.9120 C   0  0  0  0  0  0  0  0  0  0  0  0
  160.1950  212.6640  146.9190 O   0  0  0  0  0  1  0  0  0  0  0  0
  162.1680  213.1070  145.8400 O   0  0  0  0  0  0  0  0  0  0  0  0
  1  2  1  0  0  0  0
  1  8  1  1  0  0  0
  2  7  1  1  0  0  0
  2 11  1  0  0  0  0
  3  4  1  0  0  0  0
  5  6  2  0  0  0  0
  7 10  1  0  0  0  0
  8  3  1  0  0  0  0
  9  5  1  0  0  0  0
 10 19  1  6  0  0  0
 10  9  1  0  0  0  0
 11  4  2  0  0  0  0
 11  5  1  0  0  0  0
 12 18  1  6  0  0  0
 12  1  1  0  0  0  0
 13 16  1  0  0  0  0
 13 15  1  0  0  0  0
 14 17  1  0  0  0  0
 14 12  1  0  0  0  0
 15 14  2  0  0  0  0
 16 18  1  0  0  0  0
 19 20  2  0  0  0  0
 21 22  1  6  0  0  0
 21 20  1  0  0  0  0
 23 24  1  0  0  0  0
 23 21  1  0  0  0  0
 25 23  2  0  0  0  0
M  END
>  <MODEL>
3

>  <REMARK>
 VINA RESULT:      -8.7      2.714      5.970
  Name = 
  4 active torsions:
  status: ('A' for Active; 'I' for Inactive)
    1  A    between atoms: C_1  and  C_5
    2  A    between atoms: C_2  and  C_21
    3  A    between atoms: C_6  and  C_23
    4  A    between atoms: C_15  and  C_21
                            x       y       z     vdW  Elec       q    Type
                         _______ _______ _______ _____ _____    ______ ____

>  <TORSDO>
F 4

$$$$
=
 OpenBabel11052422083D

 25 27  0  0  1  0  0  0  0  0999 V2000
  161.8040  205.6900  150.3700 C   0  0  1  0  0  3  0  0  0  0  0  0
  161.3100  207.1000  150.7610 C   0  0  2  0  0  3  0  0  0  0  0  0
  160.8640  204.9810  152.6180 C   0  0  0  0  0  2  0  0  0  0  0  0
  161.0840  206.3740  153.1130 C   0  0  0  0  0  3  0  0  0  0  0  0
  161.4290  208.7520  152.7640 C   0  0  0  0  0  0  0  0  0  0  0  0
  160.8190  209.0950  153.8130 O   0  0  0  0  0  0  0  0  0  0  0  0
  162.0410  208.1490  149.9210 C   0  0  0  0  0  2  0  0  0  0  0  0
  161.8810  204.6710  151.5260 C   0  0  0  0  0  2  0  0  0  0  0  0
  162.3960  209.9730  151.8790 S   0  0  0  0  0  0  0  0  0  0  0  0
  161.6130  209.5610  150.2970 C   0  0  1  0  0  3  0  0  0  0  0  0
  161.3320  207.3710  152.2580 C   0  0  0  0  0  0  0  0  0  0  0  0
  161.0630  205.1500  149.1420 C   0  0  2  0  0  3  0  0  0  0  0  0
  161.6740  203.6830  146.6580 C   0  0  0  0  0  2  0  0  0  0  0  0
  161.0360  203.6310  149.0650 C   0  0  0  0  0  0  0  0  0  0  0  0
  161.2720  202.9790  147.9210 C   0  0  0  0  0  3  0  0  0  0  0  0
  161.1150  205.0990  146.6250 C   0  0  0  0  0  2  0  0  0  0  0  0
  160.6760  202.8930  150.1850 O   0  0  0  0  0  1  0  0  0  0  0  0
  161.5880  205.8320  147.8710 C   0  0  0  0  0  2  0  0  0  0  0  0
  162.0760  210.5280  149.2580 C   0  0  0  0  0  3  0  0  0  0  0  0
  161.6180  211.7800  149.2410 C   0  0  0  0  0  3  0  0  0  0  0  0
  162.0810  212.7510  148.2020 C   0  0  1  0  0  3  0  0  0  0  0  0
  163.5130  212.4400  147.8170 C   0  0  0  0  0  1  0  0  0  0  0  0
  161.2050  212.7010  146.9920 C   0  0  0  0  0  0  0  0  0  0  0  0
  159.8540  212.3920  147.1080 O   0  0  0  0  0  1  0  0  0  0  0  0
  161.6940  212.9390  145.8570 O   0  0  0  0  0  0  0  0  0  0  0  0
  1  2  1  0  0  0  0
  1  8  1  1  0  0  0
  2  7  1  6  0  0  0
  2 11  1  0  0  0  0
  3  4  1  0  0  0  0
  5  6  2  0  0  0  0
  7 10  1  0  0  0  0
  8  3  1  0  0  0  0
  9  5  1  0  0  0  0
 10 19  1  6  0  0  0
 10  9  1  0  0  0  0
 11  5  1  0  0  0  0
 11  4  2  0  0  0  0
 12 18  1  6  0  0  0
 12  1  1  0  0  0  0
 13 15  1  0  0  0  0
 14 12  1  0  0  0  0
 14 17  1  0  0  0  0
 15 14  2  0  0  0  0
 16 13  1  0  0  0  0
 16 18  1  0  0  0  0
 20 19  2  0  0  0  0
 21 22  1  6  0  0  0
 21 20  1  0  0  0  0
 23 24  1  0  0  0  0
 23 21  1  0  0  0  0
 25 23  2  0  0  0  0
M  END
>  <MODEL>
4

>  <REMARK>
 VINA RESULT:      -8.6      2.536      5.778
  Name = 
  4 active torsions:
  status: ('A' for Active; 'I' for Inactive)
    1  A    between atoms: C_1  and  C_5
    2  A    between atoms: C_2  and  C_21
    3  A    between atoms: C_6  and  C_23
    4  A    between atoms: C_15  and  C_21
                            x       y       z     vdW  Elec       q    Type
                         _______ _______ _______ _____ _____    ______ ____

>  <TORSDO>
F 4

$$$$
=
 OpenBabel11052422083D

 25 27  0  0  1  0  0  0  0  0999 V2000
  161.5170  203.8820  148.1740 C   0  0  1  0  0  3  0  0  0  0  0  0
  160.9660  204.5160  149.4700 C   0  0  2  0  0  3  0  0  0  0  0  0
  160.6650  201.6980  149.1450 C   0  0  0  0  0  2  0  0  0  0  0  0
  160.8310  202.2790  150.5120 C   0  0  0  0  0  3  0  0  0  0  0  0
  161.0550  204.1510  152.0420 C   0  0  0  0  0  0  0  0  0  0  0  0
  160.4540  203.5760  152.9900 O   0  0  0  0  0  0  0  0  0  0  0  0
  161.6270  205.8770  149.6940 C   0  0  0  0  0  2  0  0  0  0  0  0
  161.6690  202.3470  148.2000 C   0  0  0  0  0  2  0  0  0  0  0  0
  161.9410  205.6730  152.3670 S   0  0  0  0  0  0  0  0  0  0  0  0
  161.1410  206.5270  150.9820 C   0  0  1  0  0  3  0  0  0  0  0  0
  161.0110  203.5930  150.6790 C   0  0  0  0  0  0  0  0  0  0  0  0
  160.7730  204.3900  146.9340 C   0  0  2  0  0  3  0  0  0  0  0  0
  161.3730  205.8250  144.4290 C   0  0  0  0  0  2  0  0  0  0  0  0
  161.1590  203.6670  145.6520 C   0  0  0  0  0  0  0  0  0  0  0  0
  161.3850  204.3270  144.5110 C   0  0  0  0  0  3  0  0  0  0  0  0
  160.4440  206.4180  145.4790 C   0  0  0  0  0  2  0  0  0  0  0  0
  161.1980  202.2780  145.6330 O   0  0  0  0  0  1  0  0  0  0  0  0
  160.8830  205.9180  146.8470 C   0  0  0  0  0  2  0  0  0  0  0  0
  161.5330  207.9670  151.0070 C   0  0  0  0  0  3  0  0  0  0  0  0
  161.1490  208.7610  152.0070 C   0  0  0  0  0  3  0  0  0  0  0  0
  161.5410  210.2040  152.0340 C   0  0  1  0  0  3  0  0  0  0  0  0
  161.9560  210.6440  150.6440 C   0  0  0  0  0  1  0  0  0  0  0  0
  160.4160  211.0560  152.5250 C   0  0  0  0  0  0  0  0  0  0  0  0
  160.0770  212.2310  151.8620 O   0  0  0  0  0  0  0  0  0  0  0  0
  159.7700  210.7090  153.5470 O   0  0  0  0  0  1  0  0  0  0  0  0
  1  8  1  1  0  0  0
  1  2  1  0  0  0  0
  2  7  1  1  0  0  0
  2 11  1  0  0  0  0
  3  4  1  0  0  0  0
  4 11  2  0  0  0  0
  5  9  1  0  0  0  0
  5  6  2  0  0  0  0
  7 10  1  0  0  0  0
  8  3  1  0  0  0  0
 10 19  1  6  0  0  0
 10  9  1  0  0  0  0
 11  5  1  0  0  0  0
 12 18  1  6  0  0  0
 12  1  1  0  0  0  0
 13 15  1  0  0  0  0
 13 16  1  0  0  0  0
 14 12  1  0  0  0  0
 15 14  2  0  0  0  0
 16 18  1  0  0  0  0
 17 14  1  0  0  0  0
 19 20  2  0  0  0  0
 20 21  1  0  0  0  0
 21 22  1  6  0  0  0
 21 23  1  0  0  0  0
 23 25  1  0  0  0  0
 24 23  2  0  0  0  0
M  END
>  <MODEL>
5

>  <REMARK>
 VINA RESULT:      -8.4      2.565      4.725
  Name = 
  4 active torsions:
  status: ('A' for Active; 'I' for Inactive)
    1  A    between atoms: C_1  and  C_5
    2  A    between atoms: C_2  and  C_21
    3  A    between atoms: C_6  and  C_23
    4  A    between atoms: C_15  and  C_21
                            x       y       z     vdW  Elec       q    Type
                         _______ _______ _______ _____ _____    ______ ____

>  <TORSDO>
F 4

$$$$
=
 OpenBabel11052422083D

 25 27  0  0  1  0  0  0  0  0999 V2000
  161.8110  207.1880  151.3570 C   0  0  1  0  0  3  0  0  0  0  0  0
  160.8390  207.9910  152.2490 C   0  0  2  0  0  3  0  0  0  0  0  0
  161.5120  205.3440  153.0750 C   0  0  0  0  0  2  0  0  0  0  0  0
  161.2070  206.3920  154.0970 C   0  0  0  0  0  3  0  0  0  0  0  0
  160.5160  208.6270  154.7490 C   0  0  0  0  0  0  0  0  0  0  0  0
  159.9490  208.2490  155.8090 O   0  0  0  0  0  0  0  0  0  0  0  0
  160.9780  209.4830  151.9420 C   0  0  0  0  0  2  0  0  0  0  0  0
  162.4290  205.9350  152.0110 C   0  0  0  0  0  2  0  0  0  0  0  0
  160.7940  210.3760  154.4830 S   0  0  0  0  0  0  0  0  0  0  0  0
  160.0630  210.3210  152.8250 C   0  0  1  0  0  3  0  0  0  0  0  0
  160.9270  207.6460  153.7280 C   0  0  0  0  0  0  0  0  0  0  0  0
  161.2110  206.9080  149.9740 C   0  0  2  0  0  3  0  0  0  0  0  0
  161.9100  205.4350  147.5180 C   0  0  0  0  0  2  0  0  0  0  0  0
  160.8260  205.4520  149.7600 C   0  0  0  0  0  0  0  0  0  0  0  0
  161.1100  204.8080  148.6220 C   0  0  0  0  0  3  0  0  0  0  0  0
  161.7340  206.9470  147.5120 C   0  0  0  0  0  2  0  0  0  0  0  0
  160.0860  204.7870  150.7290 O   0  0  0  0  0  1  0  0  0  0  0  0
  162.1230  207.4810  148.8820 C   0  0  0  0  0  2  0  0  0  0  0  0
  159.9680  211.7100  152.2880 C   0  0  0  0  0  3  0  0  0  0  0  0
  158.7830  212.2590  152.0220 C   0  0  0  0  0  3  0  0  0  0  0  0
  158.6850  213.6510  151.4850 C   0  0  1  0  0  3  0  0  0  0  0  0
  159.9360  213.9800  150.6950 C   0  0  0  0  0  1  0  0  0  0  0  0
  157.4780  213.8090  150.6180 C   0  0  0  0  0  0  0  0  0  0  0  0
  156.3340  214.4340  151.1040 O   0  0  0  0  0  1  0  0  0  0  0  0
  157.4960  213.3720  149.4380 O   0  0  0  0  0  0  0  0  0  0  0  0
  1  8  1  1  0  0  0
  1  2  1  0  0  0  0
  2  7  1  1  0  0  0
  2 11  1  0  0  0  0
  3  4  1  0  0  0  0
  5  6  2  0  0  0  0
  7 10  1  0  0  0  0
  8  3  1  0  0  0  0
  9  5  1  0  0  0  0
 10 19  1  6  0  0  0
 10  9  1  0  0  0  0
 11  4  2  0  0  0  0
 11  5  1  0  0  0  0
 12 18  1  6  0  0  0
 12  1  1  0  0  0  0
 13 15  1  0  0  0  0
 14 12  1  0  0  0  0
 14 17  1  0  0  0  0
 15 14  2  0  0  0  0
 16 13  1  0  0  0  0
 16 18  1  0  0  0  0
 20 19  2  0  0  0  0
 21 22  1  6  0  0  0
 21 20  1  0  0  0  0
 23 24  1  0  0  0  0
 23 21  1  0  0  0  0
 25 23  2  0  0  0  0
M  END
>  <MODEL>
6

>  <REMARK>
 VINA RESULT:      -8.3      3.314      5.471
  Name = 
  4 active torsions:
  status: ('A' for Active; 'I' for Inactive)
    1  A    between atoms: C_1  and  C_5
    2  A    between atoms: C_2  and  C_21
    3  A    between atoms: C_6  and  C_23
    4  A    between atoms: C_15  and  C_21
                            x       y       z     vdW  Elec       q    Type
                         _______ _______ _______ _____ _____    ______ ____

>  <TORSDO>
F 4

$$$$
=
 OpenBabel11052422083D

 25 27  0  0  1  0  0  0  0  0999 V2000
  161.7590  207.0730  151.2680 C   0  0  1  0  0  3  0  0  0  0  0  0
  160.9230  208.0880  152.0770 C   0  0  2  0  0  3  0  0  0  0  0  0
  161.3610  205.5170  153.2320 C   0  0  0  0  0  2  0  0  0  0  0  0
  161.2190  206.7170  154.1120 C   0  0  0  0  0  3  0  0  0  0  0  0
  160.7980  209.0800  154.4770 C   0  0  0  0  0  0  0  0  0  0  0  0
  160.2510  208.9110  155.5990 O   0  0  0  0  0  0  0  0  0  0  0  0
  161.2000  209.5030  151.5640 C   0  0  0  0  0  2  0  0  0  0  0  0
  162.2790  205.8580  152.0640 C   0  0  0  0  0  2  0  0  0  0  0  0
  161.2410  210.7380  153.9640 S   0  0  0  0  0  0  0  0  0  0  0  0
  160.4230  210.5450  152.3580 C   0  0  1  0  0  3  0  0  0  0  0  0
  161.0520  207.9340  153.5850 C   0  0  0  0  0  0  0  0  0  0  0  0
  161.0630  206.6800  149.9600 C   0  0  2  0  0  3  0  0  0  0  0  0
  161.7150  205.3070  147.4340 C   0  0  0  0  0  2  0  0  0  0  0  0
  160.9010  205.1780  149.7830 C   0  0  0  0  0  0  0  0  0  0  0  0
  161.1570  204.5740  148.6180 C   0  0  0  0  0  3  0  0  0  0  0  0
  161.2950  206.7710  147.4540 C   0  0  0  0  0  2  0  0  0  0  0  0
  160.3910  204.4160  150.8260 O   0  0  0  0  0  1  0  0  0  0  0  0
  161.7420  207.3800  148.7750 C   0  0  0  0  0  2  0  0  0  0  0  0
  160.4450  211.8530  151.6400 C   0  0  0  0  0  3  0  0  0  0  0  0
  160.5420  211.9000  150.3110 C   0  0  0  0  0  3  0  0  0  0  0  0
  160.5640  213.2100  149.5890 C   0  0  1  0  0  3  0  0  0  0  0  0
  160.5560  214.3440  150.5940 C   0  0  0  0  0  1  0  0  0  0  0  0
  161.7650  213.3170  148.7080 C   0  0  0  0  0  0  0  0  0  0  0  0
  162.4040  212.1740  148.2390 O   0  0  0  0  0  0  0  0  0  0  0  0
  162.2040  214.4520  148.3860 O   0  0  0  0  0  1  0  0  0  0  0  0
  1  8  1  1  0  0  0
  1  2  1  0  0  0  0
  2  7  1  6  0  0  0
  2 11  1  0  0  0  0
  3  4  1  0  0  0  0
  5  6  2  0  0  0  0
  7 10  1  0  0  0  0
  8  3  1  0  0  0  0
  9  5  1  0  0  0  0
 10 19  1  6  0  0  0
 10  9  1  0  0  0  0
 11  4  2  0  0  0  0
 11  5  1  0  0  0  0
 12 18  1  6  0  0  0
 12  1  1  0  0  0  0
 13 16  1  0  0  0  0
 13 15  1  0  0  0  0
 14 12  1  0  0  0  0
 14 17  1  0  0  0  0
 15 14  2  0  0  0  0
 16 18  1  0  0  0  0
 20 19  2  0  0  0  0
 21 20  1  0  0  0  0
 21 22  1  1  0  0  0
 23 21  1  0  0  0  0
 24 23  2  0  0  0  0
 25 23  1  0  0  0  0
M  END
>  <MODEL>
7

>  <REMARK>
 VINA RESULT:      -7.7      2.517      5.607
  Name = 
  4 active torsions:
  status: ('A' for Active; 'I' for Inactive)
    1  A    between atoms: C_1  and  C_5
    2  A    between atoms: C_2  and  C_21
    3  A    between atoms: C_6  and  C_23
    4  A    between atoms: C_15  and  C_21
                            x       y       z     vdW  Elec       q    Type
                         _______ _______ _______ _____ _____    ______ ____

>  <TORSDO>
F 4

$$$$
=
 OpenBabel11052422083D

 25 27  0  0  1  0  0  0  0  0999 V2000
  161.5580  204.6930  151.8380 C   0  0  1  0  0  3  0  0  0  0  0  0
  161.0730  205.9370  151.0620 C   0  0  2  0  0  3  0  0  0  0  0  0
  160.6680  205.8990  153.8850 C   0  0  0  0  0  2  0  0  0  0  0  0
  160.8990  207.1970  153.1810 C   0  0  0  0  0  3  0  0  0  0  0  0
  161.2360  208.5290  151.1790 C   0  0  0  0  0  0  0  0  0  0  0  0
  160.6500  209.5460  151.6360 O   0  0  0  0  0  0  0  0  0  0  0  0
  161.7860  206.0060  149.7100 C   0  0  0  0  0  2  0  0  0  0  0  0
  161.6600  204.8650  153.3680 C   0  0  0  0  0  2  0  0  0  0  0  0
  162.1840  208.6750  149.6650 S   0  0  0  0  0  0  0  0  0  0  0  0
  161.3660  207.2390  148.9210 C   0  0  1  0  0  3  0  0  0  0  0  0
  161.1280  207.2280  151.8640 C   0  0  0  0  0  0  0  0  0  0  0  0
  160.7900  203.4320  151.4260 C   0  0  2  0  0  3  0  0  0  0  0  0
  160.6030  201.6140  149.1120 C   0  0  0  0  0  2  0  0  0  0  0  0
  161.6710  202.2000  151.2840 C   0  0  0  0  0  0  0  0  0  0  0  0
  161.5460  201.3590  150.2520 C   0  0  0  0  0  3  0  0  0  0  0  0
  159.4080  202.4380  149.5710 C   0  0  0  0  0  2  0  0  0  0  0  0
  162.5750  201.8840  152.2900 O   0  0  0  0  0  1  0  0  0  0  0  0
  159.9230  203.7270  150.1940 C   0  0  0  0  0  2  0  0  0  0  0  0
  161.8060  207.1100  147.5010 C   0  0  0  0  0  3  0  0  0  0  0  0
  161.9110  205.9120  146.9260 C   0  0  0  0  0  3  0  0  0  0  0  0
  162.3520  205.7800  145.5030 C   0  0  1  0  0  3  0  0  0  0  0  0
  163.1890  204.5270  145.3440 C   0  0  0  0  0  1  0  0  0  0  0  0
  161.1770  205.7300  144.5800 C   0  0  0  0  0  0  0  0  0  0  0  0
  159.8880  205.9240  145.0640 O   0  0  0  0  0  1  0  0  0  0  0  0
  161.3560  205.5110  143.3540 O   0  0  0  0  0  0  0  0  0  0  0  0
  1  8  1  1  0  0  0
  2  7  1  6  0  0  0
  2  1  1  0  0  0  0
  2 11  1  0  0  0  0
  4  3  1  0  0  0  0
  5  6  2  0  0  0  0
  5 11  1  0  0  0  0
  8  3  1  0  0  0  0
  9  5  1  0  0  0  0
 10 19  1  6  0  0  0
 10  9  1  0  0  0  0
 10  7  1  0  0  0  0
 11  4  2  0  0  0  0
 12 18  1  6  0  0  0
 12  1  1  0  0  0  0
 13 16  1  0  0  0  0
 13 15  1  0  0  0  0
 14 12  1  0  0  0  0
 14 17  1  0  0  0  0
 15 14  2  0  0  0  0
 16 18  1  0  0  0  0
 20 19  2  0  0  0  0
 21 22  1  1  0  0  0
 21 20  1  0  0  0  0
 23 24  1  0  0  0  0
 23 21  1  0  0  0  0
 25 23  2  0  0  0  0
M  END
>  <MODEL>
8

>  <REMARK>
 VINA RESULT:      -7.2      2.477      6.696
  Name = 
  4 active torsions:
  status: ('A' for Active; 'I' for Inactive)
    1  A    between atoms: C_1  and  C_5
    2  A    between atoms: C_2  and  C_21
    3  A    between atoms: C_6  and  C_23
    4  A    between atoms: C_15  and  C_21
                            x       y       z     vdW  Elec       q    Type
                         _______ _______ _______ _____ _____    ______ ____

>  <TORSDO>
F 4

$$$$
=
 OpenBabel11052422083D

 25 27  0  0  1  0  0  0  0  0999 V2000
  158.8570  212.5040  153.5850 C   0  0  1  0  0  3  0  0  0  0  0  0
  160.0760  211.5610  153.6720 C   0  0  2  0  0  3  0  0  0  0  0  0
  159.6980  213.4320  155.7910 C   0  0  0  0  0  2  0  0  0  0  0  0
  160.3340  212.1080  156.0690 C   0  0  0  0  0  3  0  0  0  0  0  0
  161.2180  209.9570  155.3700 C   0  0  0  0  0  0  0  0  0  0  0  0
  162.1040  209.9190  156.2660 O   0  0  0  0  0  0  0  0  0  0  0  0
  159.8540  210.3520  152.7610 C   0  0  0  0  0  2  0  0  0  0  0  0
  158.4820  213.2260  154.8950 C   0  0  0  0  0  2  0  0  0  0  0  0
  160.8800  208.4810  154.4140 S   0  0  0  0  0  0  0  0  0  0  0  0
  161.0170  209.3720  152.8410 C   0  0  1  0  0  3  0  0  0  0  0  0
  160.4840  211.2050  155.0940 C   0  0  0  0  0  0  0  0  0  0  0  0
  158.9590  213.4530  152.3850 C   0  0  2  0  0  3  0  0  0  0  0  0
  158.6680  213.3500  149.4530 C   0  0  0  0  0  2  0  0  0  0  0  0
  157.6300  213.7010  151.6890 C   0  0  0  0  0  0  0  0  0  0  0  0
  157.5200  213.6960  150.3560 C   0  0  0  0  0  3  0  0  0  0  0  0
  159.9970  213.7040  150.1050 C   0  0  0  0  0  2  0  0  0  0  0  0
  156.5100  214.0270  152.4440 O   0  0  0  0  0  1  0  0  0  0  0  0
  160.0810  212.9890  151.4450 C   0  0  0  0  0  2  0  0  0  0  0  0
  160.9370  208.3920  151.7180 C   0  0  0  0  0  3  0  0  0  0  0  0
  162.0420  207.9690  151.1040 C   0  0  0  0  0  3  0  0  0  0  0  0
  161.9660  206.9870  149.9790 C   0  0  1  0  0  3  0  0  0  0  0  0
  160.8240  206.0200  150.2250 C   0  0  0  0  0  1  0  0  0  0  0  0
  161.7720  207.6830  148.6710 C   0  0  0  0  0  0  0  0  0  0  0  0
  161.9570  209.0580  148.5660 O   0  0  0  0  0  1  0  0  0  0  0  0
  161.4380  207.0200  147.6540 O   0  0  0  0  0  0  0  0  0  0  0  0
  1  2  1  0  0  0  0
  1  8  1  1  0  0  0
  2  7  1  6  0  0  0
  2 11  1  0  0  0  0
  3  4  1  0  0  0  0
  5  6  2  0  0  0  0
  7 10  1  0  0  0  0
  8  3  1  0  0  0  0
  9  5  1  0  0  0  0
 10 19  1  6  0  0  0
 10  9  1  0  0  0  0
 11  5  1  0  0  0  0
 11  4  2  0  0  0  0
 12 18  1  6  0  0  0
 12  1  1  0  0  0  0
 13 16  1  0  0  0  0
 13 15  1  0  0  0  0
 14 12  1  0  0  0  0
 14 17  1  0  0  0  0
 15 14  2  0  0  0  0
 16 18  1  0  0  0  0
 20 19  2  0  0  0  0
 21 22  1  1  0  0  0
 21 20  1  0  0  0  0
 23 21  1  0  0  0  0
 24 23  1  0  0  0  0
 25 23  2  0  0  0  0
M  END
>  <MODEL>
9

>  <REMARK>
 VINA RESULT:      -6.8      3.724      8.478
  Name = 
  4 active torsions:
  status: ('A' for Active; 'I' for Inactive)
    1  A    between atoms: C_1  and  C_5
    2  A    between atoms: C_2  and  C_21
    3  A    between atoms: C_6  and  C_23
    4  A    between atoms: C_15  and  C_21
                            x       y       z     vdW  Elec       q    Type
                         _______ _______ _______ _____ _____    ______ ____

>  <TORSDO>
F 4

$$$$
