=
 OpenBabel11062408363D

 55 61  0  0  1  0  0  0  0  0999 V2000
  162.1800  210.4630  152.7300 C   0  0  0  0  0  2  0  0  0  0  0  0
  162.6670  210.3040  155.0660 O   0  0  0  0  0  1  0  0  0  0  0  0
  160.7800  208.5880  152.7320 C   0  0  1  0  0  3  0  0  0  0  0  0
  160.9030  208.9560  154.1860 C   0  0  0  0  0  2  0  0  0  0  0  0
  161.6200  210.3070  154.1450 C   0  0  2  0  0  3  0  0  0  0  0  0
  162.0640  209.0750  152.1440 C   0  0  1  0  0  3  0  0  0  0  0  0
  160.4610  206.9740  151.0280 C   0  0  1  0  0  3  0  0  0  0  0  0
  160.6780  207.1630  152.4750 N   0  0  0  0  0  2  0  0  0  0  0  0
  161.9900  208.9430  150.6470 C   0  0  0  0  0  0  0  0  0  0  0  0
  161.2670  207.9230  150.1270 C   0  0  0  0  0  0  0  0  0  0  0  0
  160.2950  205.0530  149.4690 N   0  0  0  0  0  0  0  0  0  0  0  0
  161.1370  202.8780  150.0080 C   0  0  0  0  0  0  0  0  0  0  0  0
  161.3470  204.7040  151.5840 C   0  0  0  0  0  3  0  0  0  0  0  0
  161.5630  203.3670  151.2470 C   0  0  0  0  0  3  0  0  0  0  0  0
  160.4960  203.7530  149.1230 C   0  0  0  0  0  3  0  0  0  0  0  0
  160.7060  205.5430  150.6710 C   0  0  0  0  0  0  0  0  0  0  0  0
  161.3590  201.4680  149.6480 C   0  0  0  0  0  0  0  0  0  0  0  0
  161.6640  201.1200  148.3370 O   0  0  0  0  0  0  0  0  0  0  0  0
  161.2760  200.5650  150.5220 O   0  0  0  0  0  1  0  0  0  0  0  0
  161.2210  211.5600  149.6020 O   0  0  0  0  0  0  0  0  0  0  0  0
  162.7530  209.8000  149.7810 N   0  0  0  0  0  2  0  0  0  0  0  0
  162.2620  210.9970  149.1700 C   0  0  0  0  0  0  0  0  0  0  0  0
  163.0080  211.6160  148.0380 C   0  0  0  0  0  2  0  0  0  0  0  0
  162.4200  212.9650  147.6700 C   0  0  0  0  0  2  0  0  0  0  0  0
  162.1260  213.0110  146.1850 C   0  0  0  0  0  2  0  0  0  0  0  0
  160.8420  213.7800  145.9480 C   0  0  0  0  0  2  0  0  0  0  0  0
  160.6080  213.9600  144.4540 C   0  0  0  0  0  2  0  0  0  0  0  0
  162.6270  211.4450  138.9900 C   0  0  0  0  0  0  0  0  0  0  0  0
  157.9890  212.7480  138.8710 F   0  0  0  0  0  0  0  0  0  0  0  0
  159.2250  212.6360  140.8840 C   0  0  0  0  0  0  0  0  0  0  0  0
  161.3630  213.2580  142.1120 C   0  0  0  0  0  2  0  0  0  0  0  0
  161.1550  212.8360  143.5610 C   0  0  2  0  0  3  0  0  0  0  0  0
  158.2230  210.7610  139.9010 F   0  0  0  0  0  0  0  0  0  0  0  0
  158.8610  211.9490  139.5920 C   0  0  0  0  0  0  0  0  0  0  0  0
  160.4190  212.1500  141.6720 C   0  0  1  0  0  0  0  0  0  0  0  0
  163.6390  211.1670  139.6860 O   0  0  0  0  0  1  0  0  0  0  0  0
  160.1230  211.8030  143.1220 C   0  0  0  0  0  2  0  0  0  0  0  0
  162.8020  211.8710  137.6800 O   0  0  0  0  0  0  0  0  0  0  0  0
  160.1310  211.6890  138.7380 C   0  0  1  0  0  3  0  0  0  0  0  0
  161.1570  211.0160  140.9670 C   0  0  0  0  0  2  0  0  0  0  0  0
  158.5360  213.5550  141.3010 O   0  0  0  0  0  0  0  0  0  0  0  0
  161.3100  211.3360  139.5470 N   0  0  0  0  0  0  0  0  0  0  0  0
  159.9430  210.6880  137.5870 C   0  0  1  0  0  3  0  0  0  0  0  0
  160.2590  209.3870  137.9870 O   0  0  0  0  0  1  0  0  0  0  0  0
  158.5380  210.7420  137.0110 C   0  0  0  0  0  2  0  0  0  0  0  0
  157.9600  209.4720  137.0480 O   0  0  0  0  0  1  0  0  0  0  0  0
  161.1750  207.7270  148.6430 C   0  0  0  0  0  2  0  0  0  0  0  0
  162.4370  207.0700  148.1080 C   0  0  0  0  0  2  0  0  0  0  0  0
  163.0840  205.2150  146.4500 C   0  0  0  0  0  3  0  0  0  0  0  0
  160.5780  205.8320  144.9320 C   0  0  2  0  0  3  0  0  0  0  0  0
  160.9600  206.5360  146.2200 C   0  0  0  0  0  3  0  0  0  0  0  0
  162.7770  204.4080  145.4290 C   0  0  0  0  0  3  0  0  0  0  0  0
  162.1130  206.2730  146.8940 C   0  0  0  0  0  0  0  0  0  0  0  0
  160.0330  204.5900  145.1230 C   0  0  0  0  0  2  0  0  0  0  0  0
  161.5060  204.6770  144.8800 N   0  0  0  0  0  0  0  0  0  0  0  0
  1  5  1  0  0  0  0
  3  4  1  1  0  0  0
  5  4  1  0  0  0  0
  5  2  1  1  0  0  0
  6  1  1  6  0  0  0
  6  3  1  0  0  0  0
  7 16  1  6  0  0  0
  7  8  1  0  0  0  0
  8  3  1  0  0  0  0
  9  6  1  0  0  0  0
 10  9  2  0  0  0  0
 10  7  1  0  0  0  0
 11 16  1  0  0  0  0
 12 14  2  0  0  0  0
 14 13  1  0  0  0  0
 15 11  2  0  0  0  0
 15 12  1  0  0  0  0
 16 13  2  0  0  0  0
 17 12  1  0  0  0  0
 17 19  1  0  0  0  0
 18 17  2  0  0  0  0
 21  9  1  0  0  0  0
 22 20  2  0  0  0  0
 22 21  1  0  0  0  0
 23 22  1  0  0  0  0
 24 23  1  0  0  0  0
 25 24  1  0  0  0  0
 26 25  1  0  0  0  0
 27 26  1  0  0  0  0
 28 42  1  0  0  0  0
 28 36  1  0  0  0  0
 29 34  1  0  0  0  0
 30 41  2  0  0  0  0
 30 35  1  0  0  0  0
 31 32  1  0  0  0  0
 32 27  1  1  0  0  0
 34 33  1  0  0  0  0
 34 30  1  0  0  0  0
 35 40  1  6  0  0  0
 35 31  1  0  0  0  0
 35 37  1  0  0  0  0
 37 32  1  0  0  0  0
 38 28  2  0  0  0  0
 39 43  1  6  0  0  0
 39 42  1  0  0  0  0
 39 34  1  0  0  0  0
 42 40  1  0  0  0  0
 43 44  1  1  0  0  0
 45 46  1  0  0  0  0
 45 43  1  0  0  0  0
 47 10  1  0  0  0  0
 48 47  1  0  0  0  0
 49 53  1  0  0  0  0
 50 54  1  1  0  0  0
 50 51  1  0  0  0  0
 51 53  2  0  0  0  0
 52 49  2  0  0  0  0
 53 48  1  0  0  0  0
 55 50  1  0  0  0  0
 55 54  1  0  0  0  0
 55 52  1  0  0  0  0
M  END
>  <MODEL>
1

>  <REMARK>
 VINA RESULT:      -7.3      0.000      0.000
  Name = 
  14 active torsions:
  status: ('A' for Active; 'I' for Inactive)
    1  A    between atoms: C_2  and  C_28
    2  A    between atoms: C_2  and  C_44
    3  A    between atoms: C_4  and  C_35
    4  A    between atoms: C_4  and  C_37
    5  A    between atoms: C_8  and  C_51
    6  A    between atoms: C_10  and  C_32
    7  A    between atoms: C_11  and  C_29
    8  A    between atoms: N_19  and  C_45
    9  A    between atoms: C_28  and  C_49
   10  A    between atoms: C_29  and  C_38
   11  A    between atoms: C_33  and  C_52
   12  A    between atoms: C_35  and  C_43
   13  A    between atoms: C_37  and  C_40
   14  A    between atoms: C_43  and  C_51
                            x       y       z     vdW  Elec       q    Type
                         _______ _______ _______ _____ _____    ______ ____

>  <TORSDO>
F 14

$$$$
=
 OpenBabel11062408363D

 55 61  0  0  1  0  0  0  0  0999 V2000
  157.0950  211.9780  154.8740 C   0  0  0  0  0  2  0  0  0  0  0  0
  154.8580  211.5320  155.5940 O   0  0  0  0  0  1  0  0  0  0  0  0
  156.4570  213.7140  153.4410 C   0  0  1  0  0  3  0  0  0  0  0  0
  155.2650  213.5240  154.3400 C   0  0  0  0  0  2  0  0  0  0  0  0
  155.7830  212.5580  155.4080 C   0  0  2  0  0  3  0  0  0  0  0  0
  157.0860  212.3600  153.4120 C   0  0  1  0  0  3  0  0  0  0  0  0
  157.3970  214.3390  151.3590 C   0  0  1  0  0  3  0  0  0  0  0  0
  156.1320  214.0910  152.0780 N   0  0  0  0  0  2  0  0  0  0  0  0
  158.4080  212.4570  152.6990 C   0  0  0  0  0  0  0  0  0  0  0  0
  158.5340  213.3640  151.7010 C   0  0  0  0  0  0  0  0  0  0  0  0
  155.8570  214.3830  149.4160 N   0  0  0  0  0  0  0  0  0  0  0  0
  156.6350  214.4210  147.1530 C   0  0  0  0  0  0  0  0  0  0  0  0
  158.2070  214.3890  148.9940 C   0  0  0  0  0  3  0  0  0  0  0  0
  157.9530  214.4120  147.6230 C   0  0  0  0  0  3  0  0  0  0  0  0
  155.5890  214.4050  148.0830 C   0  0  0  0  0  3  0  0  0  0  0  0
  157.1340  214.3760  149.8880 C   0  0  0  0  0  0  0  0  0  0  0  0
  156.3610  214.4430  145.7070 C   0  0  0  0  0  0  0  0  0  0  0  0
  155.0500  214.4530  145.2440 O   0  0  0  0  0  1  0  0  0  0  0  0
  157.3090  214.4530  144.8770 O   0  0  0  0  0  0  0  0  0  0  0  0
  160.2420  212.5070  154.9720 O   0  0  0  0  0  0  0  0  0  0  0  0
  159.4800  211.5420  152.9810 N   0  0  0  0  0  2  0  0  0  0  0  0
  160.4490  211.7070  154.0210 C   0  0  0  0  0  0  0  0  0  0  0  0
  161.6990  210.8950  154.0100 C   0  0  0  0  0  2  0  0  0  0  0  0
  161.3920  209.4260  153.7910 C   0  0  0  0  0  2  0  0  0  0  0  0
  161.7580  208.6340  155.0290 C   0  0  0  0  0  2  0  0  0  0  0  0
  161.1740  207.2390  154.9280 C   0  0  0  0  0  2  0  0  0  0  0  0
  161.9420  206.4240  153.8950 C   0  0  0  0  0  2  0  0  0  0  0  0
  160.9870  203.1960  148.5180 C   0  0  0  0  0  0  0  0  0  0  0  0
  163.1250  207.4560  147.8100 F   0  0  0  0  0  0  0  0  0  0  0  0
  162.1340  206.8600  149.8720 C   0  0  0  0  0  0  0  0  0  0  0  0
  161.9020  205.1080  151.7020 C   0  0  0  0  0  2  0  0  0  0  0  0
  161.0830  205.7600  152.8080 C   0  0  2  0  0  3  0  0  0  0  0  0
  160.9060  207.7220  148.0730 F   0  0  0  0  0  0  0  0  0  0  0  0
  161.9850  206.9080  148.3730 C   0  0  0  0  0  0  0  0  0  0  0  0
  161.2000  205.9930  150.6850 C   0  0  1  0  0  0  0  0  0  0  0  0
  160.3090  202.4550  149.2790 O   0  0  0  0  0  1  0  0  0  0  0  0
  160.4670  206.7220  151.7990 C   0  0  0  0  0  2  0  0  0  0  0  0
  161.7710  202.6140  147.5300 O   0  0  0  0  0  0  0  0  0  0  0  0
  161.7740  205.4800  147.8020 C   0  0  1  0  0  3  0  0  0  0  0  0
  160.2340  205.2010  149.8070 C   0  0  0  0  0  2  0  0  0  0  0  0
  162.9830  207.5440  150.4230 O   0  0  0  0  0  0  0  0  0  0  0  0
  160.9590  204.6210  148.6770 N   0  0  0  0  0  0  0  0  0  0  0  0
  161.2540  205.4320  146.3560 C   0  0  1  0  0  3  0  0  0  0  0  0
  160.3520  206.4690  146.1060 O   0  0  0  0  0  1  0  0  0  0  0  0
  162.3870  205.4540  145.3430 C   0  0  0  0  0  2  0  0  0  0  0  0
  163.4950  204.7780  145.8570 O   0  0  0  0  0  1  0  0  0  0  0  0
  159.8200  213.4910  150.9400 C   0  0  0  0  0  2  0  0  0  0  0  0
  160.1260  212.2090  150.1820 C   0  0  0  0  0  2  0  0  0  0  0  0
  162.2160  211.2660  149.0200 C   0  0  0  0  0  3  0  0  0  0  0  0
  162.6870  213.9910  147.8720 C   0  0  2  0  0  3  0  0  0  0  0  0
  161.4890  213.6540  148.7390 C   0  0  0  0  0  3  0  0  0  0  0  0
  163.2100  211.3900  148.1340 C   0  0  0  0  0  3  0  0  0  0  0  0
  161.2910  212.4210  149.2820 C   0  0  0  0  0  0  0  0  0  0  0  0
  162.5610  213.5780  146.5720 C   0  0  0  0  0  2  0  0  0  0  0  0
  163.2520  212.6640  147.5310 N   0  0  0  0  0  0  0  0  0  0  0  0
  1  5  1  0  0  0  0
  3  4  1  1  0  0  0
  4  5  1  0  0  0  0
  5  2  1  6  0  0  0
  6  3  1  0  0  0  0
  6  1  1  1  0  0  0
  7 16  1  6  0  0  0
  7 10  1  0  0  0  0
  7  8  1  0  0  0  0
  8  3  1  0  0  0  0
  9 21  1  0  0  0  0
  9  6  1  0  0  0  0
 10  9  2  0  0  0  0
 11 16  1  0  0  0  0
 12 14  2  0  0  0  0
 12 15  1  0  0  0  0
 13 16  2  0  0  0  0
 14 13  1  0  0  0  0
 15 11  2  0  0  0  0
 17 12  1  0  0  0  0
 18 17  1  0  0  0  0
 19 17  2  0  0  0  0
 21 22  1  0  0  0  0
 22 20  2  0  0  0  0
 23 22  1  0  0  0  0
 24 23  1  0  0  0  0
 24 25  1  0  0  0  0
 26 25  1  0  0  0  0
 27 26  1  0  0  0  0
 28 42  1  0  0  0  0
 28 36  1  0  0  0  0
 29 34  1  0  0  0  0
 30 41  2  0  0  0  0
 30 35  1  0  0  0  0
 31 32  1  0  0  0  0
 32 27  1  1  0  0  0
 33 34  1  0  0  0  0
 34 30  1  0  0  0  0
 35 40  1  6  0  0  0
 35 31  1  0  0  0  0
 35 37  1  0  0  0  0
 37 32  1  0  0  0  0
 38 28  2  0  0  0  0
 39 43  1  6  0  0  0
 39 34  1  0  0  0  0
 39 42  1  0  0  0  0
 42 40  1  0  0  0  0
 43 44  1  6  0  0  0
 45 46  1  0  0  0  0
 45 43  1  0  0  0  0
 47 10  1  0  0  0  0
 48 47  1  0  0  0  0
 49 53  1  0  0  0  0
 50 54  1  6  0  0  0
 50 51  1  0  0  0  0
 51 53  2  0  0  0  0
 52 49  2  0  0  0  0
 53 48  1  0  0  0  0
 54 55  1  0  0  0  0
 55 50  1  0  0  0  0
 55 52  1  0  0  0  0
M  END
>  <MODEL>
2

>  <REMARK>
 VINA RESULT:      -6.4      4.832      9.900
  Name = 
  14 active torsions:
  status: ('A' for Active; 'I' for Inactive)
    1  A    between atoms: C_2  and  C_28
    2  A    between atoms: C_2  and  C_44
    3  A    between atoms: C_4  and  C_35
    4  A    between atoms: C_4  and  C_37
    5  A    between atoms: C_8  and  C_51
    6  A    between atoms: C_10  and  C_32
    7  A    between atoms: C_11  and  C_29
    8  A    between atoms: N_19  and  C_45
    9  A    between atoms: C_28  and  C_49
   10  A    between atoms: C_29  and  C_38
   11  A    between atoms: C_33  and  C_52
   12  A    between atoms: C_35  and  C_43
   13  A    between atoms: C_37  and  C_40
   14  A    between atoms: C_43  and  C_51
                            x       y       z     vdW  Elec       q    Type
                         _______ _______ _______ _____ _____    ______ ____

>  <TORSDO>
F 14

$$$$
=
 OpenBabel11062408363D

 55 61  0  0  1  0  0  0  0  0999 V2000
  157.3180  212.2250  155.8700 C   0  0  0  0  0  2  0  0  0  0  0  0
  155.0290  212.7360  156.3370 O   0  0  0  0  0  1  0  0  0  0  0  0
  157.4890  213.8090  154.1570 C   0  0  1  0  0  3  0  0  0  0  0  0
  156.2470  214.2110  154.9060 C   0  0  0  0  0  2  0  0  0  0  0  0
  156.2830  213.3160  156.1470 C   0  0  2  0  0  3  0  0  0  0  0  0
  157.5660  212.3350  154.3840 C   0  0  1  0  0  3  0  0  0  0  0  0
  158.7520  213.7000  152.1560 C   0  0  1  0  0  3  0  0  0  0  0  0
  157.4350  214.0440  152.7260 N   0  0  0  0  0  2  0  0  0  0  0  0
  158.8790  211.8310  153.8470 C   0  0  0  0  0  0  0  0  0  0  0  0
  159.4120  212.4540  152.7680 C   0  0  0  0  0  0  0  0  0  0  0  0
  159.6990  213.8730  149.8710 N   0  0  0  0  0  0  0  0  0  0  0  0
  158.4220  213.3890  147.9060 C   0  0  0  0  0  0  0  0  0  0  0  0
  157.4240  213.1860  150.1020 C   0  0  0  0  0  3  0  0  0  0  0  0
  157.3210  213.0890  148.7140 C   0  0  0  0  0  3  0  0  0  0  0  0
  159.6180  213.7850  148.5160 C   0  0  0  0  0  3  0  0  0  0  0  0
  158.6360  213.5820  150.6710 C   0  0  0  0  0  0  0  0  0  0  0  0
  158.3180  213.2910  146.4410 C   0  0  0  0  0  0  0  0  0  0  0  0
  159.4600  213.3740  145.6510 O   0  0  0  0  0  0  0  0  0  0  0  0
  157.1970  213.1320  145.8880 O   0  0  0  0  0  1  0  0  0  0  0  0
  160.3380  211.5780  156.3640 O   0  0  0  0  0  0  0  0  0  0  0  0
  159.5050  210.6540  154.3820 N   0  0  0  0  0  2  0  0  0  0  0  0
  160.3450  210.6250  155.5410 C   0  0  0  0  0  0  0  0  0  0  0  0
  161.2060  209.4380  155.8070 C   0  0  0  0  0  2  0  0  0  0  0  0
  161.5270  208.6990  154.5210 C   0  0  0  0  0  2  0  0  0  0  0  0
  161.1480  207.2390  154.6590 C   0  0  0  0  0  2  0  0  0  0  0  0
  160.5200  206.7550  153.3680 C   0  0  0  0  0  2  0  0  0  0  0  0
  160.9740  205.3330  153.0650 C   0  0  0  0  0  2  0  0  0  0  0  0
  161.4430  204.6600  146.7740 C   0  0  0  0  0  0  0  0  0  0  0  0
  159.1300  201.0050  148.8990 F   0  0  0  0  0  0  0  0  0  0  0  0
  160.3490  202.6200  150.1230 C   0  0  0  0  0  0  0  0  0  0  0  0
  160.8180  205.0880  150.5240 C   0  0  0  0  0  2  0  0  0  0  0  0
  161.7310  205.1510  151.7410 C   0  0  2  0  0  3  0  0  0  0  0  0
  161.3570  200.7610  149.1160 F   0  0  0  0  0  0  0  0  0  0  0  0
  160.3380  201.6820  148.9430 C   0  0  0  0  0  0  0  0  0  0  0  0
  161.3860  203.7170  150.1910 C   0  0  1  0  0  0  0  0  0  0  0  0
  162.2160  205.6470  146.8940 O   0  0  0  0  0  1  0  0  0  0  0  0
  162.2120  203.7300  151.4660 C   0  0  0  0  0  2  0  0  0  0  0  0
  160.5750  204.6080  145.6910 O   0  0  0  0  0  0  0  0  0  0  0  0
  160.5250  202.4710  147.6200 C   0  0  1  0  0  3  0  0  0  0  0  0
  162.2740  203.7520  148.9500 C   0  0  0  0  0  2  0  0  0  0  0  0
  159.5440  202.4680  151.0300 O   0  0  0  0  0  0  0  0  0  0  0  0
  161.4500  203.6090  147.7500 N   0  0  0  0  0  0  0  0  0  0  0  0
  160.8900  201.6100  146.4000 C   0  0  1  0  0  3  0  0  0  0  0  0
  161.2660  200.3200  146.7820 O   0  0  0  0  0  1  0  0  0  0  0  0
  159.7640  201.5590  145.3820 C   0  0  0  0  0  2  0  0  0  0  0  0
  160.0020  200.5380  144.4600 O   0  0  0  0  0  1  0  0  0  0  0  0
  160.7060  211.9830  152.1740 C   0  0  0  0  0  2  0  0  0  0  0  0
  160.7850  210.4650  152.1910 C   0  0  0  0  0  2  0  0  0  0  0  0
  161.7710  210.9620  149.8700 C   0  0  0  0  0  3  0  0  0  0  0  0
  161.5030  208.0470  149.2390 C   0  0  2  0  0  3  0  0  0  0  0  0
  161.1400  208.6390  150.5880 C   0  0  0  0  0  3  0  0  0  0  0  0
  162.2840  210.5410  148.7090 C   0  0  0  0  0  3  0  0  0  0  0  0
  161.2370  209.9690  150.8630 C   0  0  0  0  0  0  0  0  0  0  0  0
  162.8480  207.8560  149.0640 C   0  0  0  0  0  2  0  0  0  0  0  0
  162.2550  209.1380  148.5730 N   0  0  0  0  0  0  0  0  0  0  0  0
  1  5  1  0  0  0  0
  3  6  1  0  0  0  0
  3  4  1  1  0  0  0
  4  5  1  0  0  0  0
  5  2  1  6  0  0  0
  6  1  1  1  0  0  0
  7 16  1  6  0  0  0
  7  8  1  0  0  0  0
  7 10  1  0  0  0  0
  8  3  1  0  0  0  0
  9 21  1  0  0  0  0
  9  6  1  0  0  0  0
 10  9  2  0  0  0  0
 11 16  1  0  0  0  0
 12 15  1  0  0  0  0
 12 14  2  0  0  0  0
 13 16  2  0  0  0  0
 14 13  1  0  0  0  0
 15 11  2  0  0  0  0
 17 12  1  0  0  0  0
 18 17  2  0  0  0  0
 19 17  1  0  0  0  0
 21 22  1  0  0  0  0
 22 23  1  0  0  0  0
 22 20  2  0  0  0  0
 24 25  1  0  0  0  0
 24 23  1  0  0  0  0
 26 25  1  0  0  0  0
 27 26  1  0  0  0  0
 28 36  1  0  0  0  0
 28 42  1  0  0  0  0
 29 34  1  0  0  0  0
 30 35  1  0  0  0  0
 30 41  2  0  0  0  0
 31 32  1  0  0  0  0
 32 27  1  1  0  0  0
 34 33  1  0  0  0  0
 34 30  1  0  0  0  0
 35 40  1  6  0  0  0
 35 31  1  0  0  0  0
 35 37  1  0  0  0  0
 37 32  1  0  0  0  0
 38 28  2  0  0  0  0
 39 43  1  6  0  0  0
 39 42  1  0  0  0  0
 39 34  1  0  0  0  0
 42 40  1  0  0  0  0
 43 44  1  1  0  0  0
 45 43  1  0  0  0  0
 46 45  1  0  0  0  0
 47 48  1  0  0  0  0
 47 10  1  0  0  0  0
 49 53  1  0  0  0  0
 50 54  1  1  0  0  0
 50 51  1  0  0  0  0
 51 53  2  0  0  0  0
 52 49  2  0  0  0  0
 53 48  1  0  0  0  0
 55 52  1  0  0  0  0
 55 54  1  0  0  0  0
 55 50  1  0  0  0  0
M  END
>  <MODEL>
3

>  <REMARK>
 VINA RESULT:      -5.8      5.272      9.887
  Name = 
  14 active torsions:
  status: ('A' for Active; 'I' for Inactive)
    1  A    between atoms: C_2  and  C_28
    2  A    between atoms: C_2  and  C_44
    3  A    between atoms: C_4  and  C_35
    4  A    between atoms: C_4  and  C_37
    5  A    between atoms: C_8  and  C_51
    6  A    between atoms: C_10  and  C_32
    7  A    between atoms: C_11  and  C_29
    8  A    between atoms: N_19  and  C_45
    9  A    between atoms: C_28  and  C_49
   10  A    between atoms: C_29  and  C_38
   11  A    between atoms: C_33  and  C_52
   12  A    between atoms: C_35  and  C_43
   13  A    between atoms: C_37  and  C_40
   14  A    between atoms: C_43  and  C_51
                            x       y       z     vdW  Elec       q    Type
                         _______ _______ _______ _____ _____    ______ ____

>  <TORSDO>
F 14

$$$$
=
 OpenBabel11062408363D

 55 61  0  0  1  0  0  0  0  0999 V2000
  161.8260  209.2910  153.7630 C   0  0  0  0  0  2  0  0  0  0  0  0
  162.3860  208.6790  156.0070 O   0  0  0  0  0  1  0  0  0  0  0  0
  160.5510  207.3660  153.3870 C   0  0  1  0  0  3  0  0  0  0  0  0
  160.6880  207.4280  154.8840 C   0  0  0  0  0  2  0  0  0  0  0  0
  161.3160  208.8030  155.1210 C   0  0  2  0  0  3  0  0  0  0  0  0
  161.7850  208.0530  152.8990 C   0  0  1  0  0  3  0  0  0  0  0  0
  160.2910  206.1280  151.3840 C   0  0  1  0  0  3  0  0  0  0  0  0
  160.5340  206.0230  152.8360 N   0  0  0  0  0  2  0  0  0  0  0  0
  161.6800  208.2330  151.4080 C   0  0  0  0  0  0  0  0  0  0  0  0
  161.0100  207.2980  150.6940 C   0  0  0  0  0  0  0  0  0  0  0  0
  160.3460  204.6280  149.4100 N   0  0  0  0  0  0  0  0  0  0  0  0
  161.2010  202.3950  149.5100 C   0  0  0  0  0  0  0  0  0  0  0  0
  161.1930  203.7990  151.4830 C   0  0  0  0  0  3  0  0  0  0  0  0
  161.4850  202.5820  150.8670 C   0  0  0  0  0  3  0  0  0  0  0  0
  160.6230  203.4480  148.7920 C   0  0  0  0  0  3  0  0  0  0  0  0
  160.6180  204.8240  150.7290 C   0  0  0  0  0  0  0  0  0  0  0  0
  161.5050  201.1120  148.8560 C   0  0  0  0  0  0  0  0  0  0  0  0
  161.2750  199.9140  149.5240 O   0  0  0  0  0  1  0  0  0  0  0  0
  161.9760  201.0860  147.6870 O   0  0  0  0  0  0  0  0  0  0  0  0
  160.8960  211.0440  151.2760 O   0  0  0  0  0  0  0  0  0  0  0  0
  162.3630  209.3030  150.7340 N   0  0  0  0  0  2  0  0  0  0  0  0
  161.8490  210.6280  150.5660 C   0  0  0  0  0  0  0  0  0  0  0  0
  162.4720  211.5480  149.5720 C   0  0  0  0  0  2  0  0  0  0  0  0
  162.4670  210.9350  148.1840 C   0  0  0  0  0  2  0  0  0  0  0  0
  161.1170  211.1520  147.5310 C   0  0  0  0  0  2  0  0  0  0  0  0
  160.7820  212.6300  147.5430 C   0  0  0  0  0  2  0  0  0  0  0  0
  160.8420  213.1910  146.1280 C   0  0  0  0  0  2  0  0  0  0  0  0
  162.3140  211.1900  140.2900 C   0  0  0  0  0  0  0  0  0  0  0  0
  158.7650  214.4490  140.3320 F   0  0  0  0  0  0  0  0  0  0  0  0
  159.5360  213.3870  142.2990 C   0  0  0  0  0  0  0  0  0  0  0  0
  161.5380  212.7090  143.7140 C   0  0  0  0  0  2  0  0  0  0  0  0
  160.9670  212.1460  145.0090 C   0  0  2  0  0  3  0  0  0  0  0  0
  157.9680  212.4110  140.8570 F   0  0  0  0  0  0  0  0  0  0  0  0
  159.0950  213.2150  140.8670 C   0  0  0  0  0  0  0  0  0  0  0  0
  160.2790  212.2650  142.9870 C   0  0  1  0  0  0  0  0  0  0  0  0
  162.9970  210.3480  140.9320 O   0  0  0  0  0  1  0  0  0  0  0  0
  159.6620  211.8060  144.2980 C   0  0  0  0  0  2  0  0  0  0  0  0
  162.8370  211.7430  139.1290 O   0  0  0  0  0  0  0  0  0  0  0  0
  160.2320  212.5840  140.0200 C   0  0  1  0  0  3  0  0  0  0  0  0
  160.5430  211.0870  142.0530 C   0  0  0  0  0  2  0  0  0  0  0  0
  159.2620  214.4130  142.9020 O   0  0  0  0  0  0  0  0  0  0  0  0
  161.0150  211.5800  140.7590 N   0  0  0  0  0  0  0  0  0  0  0  0
  159.7910  212.0320  138.6550 C   0  0  1  0  0  3  0  0  0  0  0  0
  160.6600  212.4350  137.6390 O   0  0  0  0  0  1  0  0  0  0  0  0
  159.6520  210.5190  138.6710 C   0  0  0  0  0  2  0  0  0  0  0  0
  158.3780  210.1640  139.1190 O   0  0  0  0  0  1  0  0  0  0  0  0
  160.8910  207.4120  149.2030 C   0  0  0  0  0  2  0  0  0  0  0  0
  162.1370  206.8710  148.5210 C   0  0  0  0  0  2  0  0  0  0  0  0
  160.5310  206.6890  146.5220 C   0  0  0  0  0  3  0  0  0  0  0  0
  162.2040  204.4220  145.5090 C   0  0  2  0  0  3  0  0  0  0  0  0
  162.5410  205.2030  146.7650 C   0  0  0  0  0  3  0  0  0  0  0  0
  160.2250  206.1980  145.3160 C   0  0  0  0  0  3  0  0  0  0  0  0
  161.7640  206.2150  147.2380 C   0  0  0  0  0  0  0  0  0  0  0  0
  162.5550  205.0620  144.3500 C   0  0  0  0  0  2  0  0  0  0  0  0
  161.1610  205.2480  144.8570 N   0  0  0  0  0  0  0  0  0  0  0  0
  1  5  1  0  0  0  0
  3  4  1  1  0  0  0
  4  5  1  0  0  0  0
  5  2  1  1  0  0  0
  6  3  1  0  0  0  0
  6  1  1  1  0  0  0
  7 16  1  6  0  0  0
  7  8  1  0  0  0  0
  8  3  1  0  0  0  0
  9  6  1  0  0  0  0
 10  7  1  0  0  0  0
 10  9  2  0  0  0  0
 11 16  1  0  0  0  0
 12 14  2  0  0  0  0
 14 13  1  0  0  0  0
 15 11  2  0  0  0  0
 15 12  1  0  0  0  0
 16 13  2  0  0  0  0
 17 12  1  0  0  0  0
 17 18  1  0  0  0  0
 19 17  2  0  0  0  0
 21  9  1  0  0  0  0
 22 21  1  0  0  0  0
 22 20  2  0  0  0  0
 23 22  1  0  0  0  0
 24 23  1  0  0  0  0
 25 26  1  0  0  0  0
 25 24  1  0  0  0  0
 27 26  1  0  0  0  0
 28 42  1  0  0  0  0
 28 36  1  0  0  0  0
 29 34  1  0  0  0  0
 30 41  2  0  0  0  0
 30 35  1  0  0  0  0
 31 32  1  0  0  0  0
 32 27  1  1  0  0  0
 33 34  1  0  0  0  0
 34 30  1  0  0  0  0
 35 40  1  6  0  0  0
 35 31  1  0  0  0  0
 35 37  1  0  0  0  0
 37 32  1  0  0  0  0
 38 28  2  0  0  0  0
 39 43  1  6  0  0  0
 39 42  1  0  0  0  0
 39 34  1  0  0  0  0
 42 40  1  0  0  0  0
 43 44  1  6  0  0  0
 43 45  1  0  0  0  0
 45 46  1  0  0  0  0
 47 10  1  0  0  0  0
 48 47  1  0  0  0  0
 49 53  1  0  0  0  0
 50 54  1  6  0  0  0
 50 51  1  0  0  0  0
 51 53  2  0  0  0  0
 52 49  2  0  0  0  0
 53 48  1  0  0  0  0
 54 55  1  0  0  0  0
 55 52  1  0  0  0  0
 55 50  1  0  0  0  0
M  END
>  <MODEL>
4

>  <REMARK>
 VINA RESULT:      -4.4      1.234      1.714
  Name = 
  14 active torsions:
  status: ('A' for Active; 'I' for Inactive)
    1  A    between atoms: C_2  and  C_28
    2  A    between atoms: C_2  and  C_44
    3  A    between atoms: C_4  and  C_35
    4  A    between atoms: C_4  and  C_37
    5  A    between atoms: C_8  and  C_51
    6  A    between atoms: C_10  and  C_32
    7  A    between atoms: C_11  and  C_29
    8  A    between atoms: N_19  and  C_45
    9  A    between atoms: C_28  and  C_49
   10  A    between atoms: C_29  and  C_38
   11  A    between atoms: C_33  and  C_52
   12  A    between atoms: C_35  and  C_43
   13  A    between atoms: C_37  and  C_40
   14  A    between atoms: C_43  and  C_51
                            x       y       z     vdW  Elec       q    Type
                         _______ _______ _______ _____ _____    ______ ____

>  <TORSDO>
F 14

$$$$
=
 OpenBabel11062408363D

 55 61  0  0  1  0  0  0  0  0999 V2000
  161.7280  208.8260  153.7840 C   0  0  0  0  0  2  0  0  0  0  0  0
  162.3210  208.0660  155.9730 O   0  0  0  0  0  1  0  0  0  0  0  0
  160.4730  206.9150  153.2870 C   0  0  1  0  0  3  0  0  0  0  0  0
  160.6270  206.8740  154.7840 C   0  0  0  0  0  2  0  0  0  0  0  0
  161.2400  208.2380  155.1090 C   0  0  2  0  0  3  0  0  0  0  0  0
  161.6920  207.6500  152.8350 C   0  0  1  0  0  3  0  0  0  0  0  0
  160.2050  205.8160  151.2050 C   0  0  1  0  0  3  0  0  0  0  0  0
  160.4660  205.6140  152.6440 N   0  0  0  0  0  2  0  0  0  0  0  0
  161.5670  207.9330  151.3620 C   0  0  0  0  0  0  0  0  0  0  0  0
  160.9010  207.0410  150.5910 C   0  0  0  0  0  0  0  0  0  0  0  0
  160.1020  204.3880  149.1820 N   0  0  0  0  0  0  0  0  0  0  0  0
  161.1400  202.2340  149.0690 C   0  0  0  0  0  0  0  0  0  0  0  0
  161.2970  203.5710  151.0810 C   0  0  0  0  0  3  0  0  0  0  0  0
  161.5960  202.4030  150.3810 C   0  0  0  0  0  3  0  0  0  0  0  0
  160.3840  203.2550  148.4820 C   0  0  0  0  0  3  0  0  0  0  0  0
  160.5400  204.5660  150.4580 C   0  0  0  0  0  0  0  0  0  0  0  0
  161.4520  201.0020  148.3250 C   0  0  0  0  0  0  0  0  0  0  0  0
  161.2870  200.9580  146.9450 O   0  0  0  0  0  0  0  0  0  0  0  0
  161.8690  199.9790  148.9300 O   0  0  0  0  0  1  0  0  0  0  0  0
  161.0180  210.7690  151.7950 O   0  0  0  0  0  0  0  0  0  0  0  0
  162.2290  209.0560  150.7570 N   0  0  0  0  0  2  0  0  0  0  0  0
  161.8110  210.4200  150.8810 C   0  0  0  0  0  0  0  0  0  0  0  0
  162.3520  211.4520  149.9520 C   0  0  0  0  0  2  0  0  0  0  0  0
  161.3530  211.7770  148.8580 C   0  0  0  0  0  2  0  0  0  0  0  0
  162.0300  211.7080  147.5050 C   0  0  0  0  0  2  0  0  0  0  0  0
  161.5040  212.8190  146.6180 C   0  0  0  0  0  2  0  0  0  0  0  0
  159.9980  212.6770  146.4400 C   0  0  0  0  0  2  0  0  0  0  0  0
  158.5620  212.5260  140.2620 C   0  0  0  0  0  0  0  0  0  0  0  0
  163.3020  212.3330  141.1060 F   0  0  0  0  0  0  0  0  0  0  0  0
  161.7360  212.8890  142.7870 C   0  0  0  0  0  0  0  0  0  0  0  0
  159.5520  212.2970  143.9500 C   0  0  0  0  0  2  0  0  0  0  0  0
  159.4320  213.2500  145.1320 C   0  0  2  0  0  3  0  0  0  0  0  0
  162.5620  214.4530  141.2520 F   0  0  0  0  0  0  0  0  0  0  0  0
  162.1970  213.1230  141.3710 C   0  0  0  0  0  0  0  0  0  0  0  0
  160.3580  213.3500  143.2060 C   0  0  1  0  0  0  0  0  0  0  0  0
  157.4120  212.8060  140.6940 O   0  0  0  0  0  1  0  0  0  0  0  0
  160.3360  214.2550  144.4260 C   0  0  0  0  0  2  0  0  0  0  0  0
  158.6900  211.6270  139.2120 O   0  0  0  0  0  0  0  0  0  0  0  0
  161.0680  212.7680  140.3660 C   0  0  1  0  0  3  0  0  0  0  0  0
  159.5730  213.9570  142.0460 C   0  0  0  0  0  2  0  0  0  0  0  0
  162.4860  212.3610  143.5930 O   0  0  0  0  0  0  0  0  0  0  0  0
  159.7250  213.1200  140.8560 N   0  0  0  0  0  0  0  0  0  0  0  0
  161.2820  213.3000  138.9390 C   0  0  1  0  0  3  0  0  0  0  0  0
  162.0850  214.4430  138.9380 O   0  0  0  0  0  1  0  0  0  0  0  0
  161.8610  212.2390  138.0190 C   0  0  0  0  0  2  0  0  0  0  0  0
  162.6360  212.8420  137.0270 O   0  0  0  0  0  1  0  0  0  0  0  0
  160.7630  207.2580  149.1140 C   0  0  0  0  0  2  0  0  0  0  0  0
  162.1020  207.0800  148.4170 C   0  0  0  0  0  2  0  0  0  0  0  0
  160.7230  206.5060  146.3250 C   0  0  0  0  0  3  0  0  0  0  0  0
  162.7200  204.3600  145.7160 C   0  0  2  0  0  3  0  0  0  0  0  0
  162.8500  205.3000  146.9000 C   0  0  0  0  0  3  0  0  0  0  0  0
  160.5870  205.8610  145.1620 C   0  0  0  0  0  3  0  0  0  0  0  0
  161.9260  206.2570  147.1900 C   0  0  0  0  0  0  0  0  0  0  0  0
  163.1080  204.9150  144.5260 C   0  0  0  0  0  2  0  0  0  0  0  0
  161.6600  204.9860  144.8910 N   0  0  0  0  0  0  0  0  0  0  0  0
  1  5  1  0  0  0  0
  3  4  1  1  0  0  0
  4  5  1  0  0  0  0
  5  2  1  1  0  0  0
  6  3  1  0  0  0  0
  6  1  1  1  0  0  0
  7 16  1  6  0  0  0
  7  8  1  0  0  0  0
  8  3  1  0  0  0  0
  9  6  1  0  0  0  0
 10  7  1  0  0  0  0
 10  9  2  0  0  0  0
 11 16  1  0  0  0  0
 12 14  2  0  0  0  0
 14 13  1  0  0  0  0
 15 12  1  0  0  0  0
 15 11  2  0  0  0  0
 16 13  2  0  0  0  0
 17 19  1  0  0  0  0
 17 12  1  0  0  0  0
 18 17  2  0  0  0  0
 21 22  1  0  0  0  0
 21  9  1  0  0  0  0
 22 20  2  0  0  0  0
 23 22  1  0  0  0  0
 24 23  1  0  0  0  0
 25 24  1  0  0  0  0
 26 25  1  0  0  0  0
 27 26  1  0  0  0  0
 28 36  1  0  0  0  0
 28 42  1  0  0  0  0
 29 34  1  0  0  0  0
 30 35  1  0  0  0  0
 30 41  2  0  0  0  0
 31 32  1  0  0  0  0
 32 27  1  1  0  0  0
 33 34  1  0  0  0  0
 34 30  1  0  0  0  0
 35 40  1  6  0  0  0
 35 31  1  0  0  0  0
 35 37  1  0  0  0  0
 37 32  1  0  0  0  0
 38 28  2  0  0  0  0
 39 43  1  6  0  0  0
 39 42  1  0  0  0  0
 39 34  1  0  0  0  0
 42 40  1  0  0  0  0
 43 44  1  1  0  0  0
 45 43  1  0  0  0  0
 46 45  1  0  0  0  0
 47 10  1  0  0  0  0
 48 47  1  0  0  0  0
 49 53  1  0  0  0  0
 50 54  1  6  0  0  0
 50 51  1  0  0  0  0
 51 53  2  0  0  0  0
 52 49  2  0  0  0  0
 53 48  1  0  0  0  0
 54 55  1  0  0  0  0
 55 52  1  0  0  0  0
 55 50  1  0  0  0  0
M  END
>  <MODEL>
5

>  <REMARK>
 VINA RESULT:      -4.4      1.839      2.856
  Name = 
  14 active torsions:
  status: ('A' for Active; 'I' for Inactive)
    1  A    between atoms: C_2  and  C_28
    2  A    between atoms: C_2  and  C_44
    3  A    between atoms: C_4  and  C_35
    4  A    between atoms: C_4  and  C_37
    5  A    between atoms: C_8  and  C_51
    6  A    between atoms: C_10  and  C_32
    7  A    between atoms: C_11  and  C_29
    8  A    between atoms: N_19  and  C_45
    9  A    between atoms: C_28  and  C_49
   10  A    between atoms: C_29  and  C_38
   11  A    between atoms: C_33  and  C_52
   12  A    between atoms: C_35  and  C_43
   13  A    between atoms: C_37  and  C_40
   14  A    between atoms: C_43  and  C_51
                            x       y       z     vdW  Elec       q    Type
                         _______ _______ _______ _____ _____    ______ ____

>  <TORSDO>
F 14

$$$$
