=
 OpenBabel11062409493D

 34 38  0  0  1  0  0  0  0  0999 V2000
  161.3850  209.9670  151.6510 C   0  0  1  0  0  0  0  0  0  0  0  0
  160.6590  213.0780  149.8890 O   0  0  0  0  0  0  0  0  0  0  0  0
  160.3790  212.1840  152.1840 C   0  0  1  0  0  3  0  0  0  0  0  0
  162.7430  209.8880  151.9830 O   0  0  0  0  0  1  0  0  0  0  0  0
  160.5960  210.7610  152.7170 C   0  0  2  0  0  3  0  0  0  0  0  0
  161.8340  214.1040  148.0900 C   0  0  0  0  0  1  0  0  0  0  0  0
  161.2480  212.8060  148.6100 C   0  0  1  0  0  0  0  0  0  0  0  0
  162.4130  211.7620  148.6220 C   0  0  0  0  0  2  0  0  0  0  0  0
  161.1820  212.2290  150.8870 C   0  0  1  0  0  3  0  0  0  0  0  0
  162.2030  210.5910  149.4080 O   0  0  0  0  0  0  0  0  0  0  0  0
  161.2120  210.8010  150.3940 C   0  0  1  0  0  3  0  0  0  0  0  0
  160.1940  212.3440  147.5840 C   0  0  1  0  0  3  0  0  0  0  0  0
  158.9120  213.0850  147.6600 C   0  0  0  0  0  2  0  0  0  0  0  0
  159.8860  213.3870  146.6890 O   0  0  0  0  0  0  0  0  0  0  0  0
  160.8290  211.8470  154.8640 O   0  0  0  0  0  1  0  0  0  0  0  0
  161.1860  210.7140  154.1300 C   0  0  1  0  0  3  0  0  0  0  0  0
  160.7160  209.4680  154.8540 C   0  0  0  0  0  1  0  0  0  0  0  0
  158.9410  212.3930  151.9540 C   0  0  0  0  0  0  0  0  0  0  0  0
  157.7620  212.5670  151.7650 C   0  0  0  0  0  3  0  0  0  0  0  0
  160.8300  208.5530  151.4620 C   0  0  0  0  0  2  0  0  0  0  0  0
  161.7040  207.6830  150.5630 C   0  0  2  0  0  3  0  0  0  0  0  0
  160.8410  206.9870  149.5230 C   0  0  0  0  0  2  0  0  0  0  0  0
  161.9420  203.6780  146.9270 C   0  0  2  0  0  3  0  0  0  0  0  0
  160.9900  202.5650  146.5270 C   0  0  0  0  0  2  0  0  0  0  0  0
  161.6430  203.3830  148.4050 C   0  0  1  0  0  3  0  0  0  0  0  0
  161.2580  200.9320  148.3790 C   0  0  0  0  0  1  0  0  0  0  0  0
  160.8790  204.5120  149.1000 C   0  0  0  0  0  2  0  0  0  0  0  0
  160.6860  202.2820  147.9900 C   0  0  2  0  0  3  0  0  0  0  0  0
  161.8350  206.1540  147.3890 C   0  0  0  0  0  2  0  0  0  0  0  0
  161.6010  205.8420  148.8770 C   0  0  1  0  0  3  0  0  0  0  0  0
  161.3890  205.0260  146.4550 C   0  0  0  0  0  2  0  0  0  0  0  0
  162.3960  206.6900  151.3680 N   0  0  0  0  0  2  0  0  0  0  0  0
  161.2590  205.0080  152.6890 C   0  0  0  0  0  1  0  0  0  0  0  0
  161.5940  206.4790  152.5610 C   0  0  0  0  0  2  0  0  0  0  0  0
  1  4  1  1  0  0  0
  1  5  1  0  0  0  0
  3 18  1  6  0  0  0
  3  5  1  0  0  0  0
  5 16  1  1  0  0  0
  7  6  1  6  0  0  0
  7  8  1  0  0  0  0
  7  2  1  0  0  0  0
  8 10  1  0  0  0  0
  9  2  1  6  0  0  0
  9  3  1  0  0  0  0
 11 10  1  6  0  0  0
 11  9  1  0  0  0  0
 11  1  1  0  0  0  0
 12 13  1  1  0  0  0
 12  7  1  0  0  0  0
 14 12  1  0  0  0  0
 14 13  1  0  0  0  0
 16 17  1  1  0  0  0
 16 15  1  0  0  0  0
 19 18  3  0  0  0  0
 20  1  1  0  0  0  0
 21 22  1  6  0  0  0
 21 32  1  0  0  0  0
 21 20  1  0  0  0  0
 23 31  1  6  0  0  0
 23 25  1  0  0  0  0
 24 23  1  0  0  0  0
 24 28  1  0  0  0  0
 25 27  1  6  0  0  0
 28 26  1  1  0  0  0
 28 25  1  0  0  0  0
 29 30  1  0  0  0  0
 30 27  1  0  0  0  0
 30 22  1  6  0  0  0
 31 29  1  0  0  0  0
 32 34  1  0  0  0  0
 34 33  1  0  0  0  0
M  END
>  <MODEL>
1

>  <REMARK>
 VINA RESULT:      -7.1      0.000      0.000
  Name = 
  9 active torsions:
  status: ('A' for Active; 'I' for Inactive)
    1  A    between atoms: C_1  and  C_8
    2  A    between atoms: C_3  and  C_25
    3  A    between atoms: C_5  and  C_19
    4  A    between atoms: C_6  and  C_18
    5  A    between atoms: C_6  and  C_28
    6  A    between atoms: C_8  and  C_18
    7  A    between atoms: C_12  and  C_20
    8  A    between atoms: C_18  and  N_30
    9  A    between atoms: N_30  and  C_31
                            x       y       z     vdW  Elec       q    Type
                         _______ _______ _______ _____ _____    ______ ____

>  <TORSDO>
F 9

$$$$
=
 OpenBabel11062409493D

 34 38  0  0  1  0  0  0  0  0999 V2000
  160.9340  210.5720  152.0450 C   0  0  1  0  0  0  0  0  0  0  0  0
  160.6200  213.1990  149.5340 O   0  0  0  0  0  0  0  0  0  0  0  0
  159.8470  212.8050  151.8550 C   0  0  1  0  0  3  0  0  0  0  0  0
  162.1870  210.6230  152.6660 O   0  0  0  0  0  1  0  0  0  0  0  0
  159.9370  211.5400  152.7190 C   0  0  2  0  0  3  0  0  0  0  0  0
  162.1620  213.8660  147.8450 C   0  0  0  0  0  1  0  0  0  0  0  0
  161.4710  212.6850  148.5000 C   0  0  1  0  0  0  0  0  0  0  0  0
  162.6010  211.7190  148.9860 C   0  0  0  0  0  2  0  0  0  0  0  0
  160.9110  212.6060  150.7810 C   0  0  1  0  0  3  0  0  0  0  0  0
  162.2210  210.7360  149.9460 O   0  0  0  0  0  0  0  0  0  0  0  0
  161.0410  211.1090  150.6290 C   0  0  1  0  0  3  0  0  0  0  0  0
  160.6620  211.9700  147.4000 C   0  0  1  0  0  3  0  0  0  0  0  0
  159.3920  212.6480  147.0460 C   0  0  0  0  0  2  0  0  0  0  0  0
  160.5500  212.7880  146.2580 O   0  0  0  0  0  0  0  0  0  0  0  0
  159.7690  213.0990  154.5600 O   0  0  0  0  0  1  0  0  0  0  0  0
  160.2060  211.8220  154.2020 C   0  0  1  0  0  3  0  0  0  0  0  0
  159.5180  210.7850  155.0670 C   0  0  0  0  0  1  0  0  0  0  0  0
  158.4930  212.8990  151.2850 C   0  0  0  0  0  0  0  0  0  0  0  0
  157.3830  212.9740  150.8200 C   0  0  0  0  0  3  0  0  0  0  0  0
  160.4260  209.1270  152.0550 C   0  0  0  0  0  2  0  0  0  0  0  0
  161.3050  208.1900  152.8800 C   0  0  2  0  0  3  0  0  0  0  0  0
  162.1210  207.3020  151.9550 C   0  0  0  0  0  2  0  0  0  0  0  0
  160.6500  204.6650  148.8270 C   0  0  2  0  0  3  0  0  0  0  0  0
  161.4170  204.3530  147.5560 C   0  0  0  0  0  2  0  0  0  0  0  0
  160.7800  206.1650  148.5210 C   0  0  1  0  0  3  0  0  0  0  0  0
  160.7260  206.1960  146.0420 C   0  0  0  0  0  1  0  0  0  0  0  0
  161.6780  206.9050  149.5160 C   0  0  0  0  0  2  0  0  0  0  0  0
  161.5560  205.8380  147.2600 C   0  0  2  0  0  3  0  0  0  0  0  0
  161.1590  205.1070  151.2570 C   0  0  0  0  0  2  0  0  0  0  0  0
  161.2210  206.6110  150.9460 C   0  0  1  0  0  3  0  0  0  0  0  0
  161.4660  204.2230  150.0460 C   0  0  0  0  0  2  0  0  0  0  0  0
  160.4690  207.3660  153.7380 N   0  0  0  0  0  2  0  0  0  0  0  0
  159.9240  207.2710  156.0960 C   0  0  0  0  0  1  0  0  0  0  0  0
  161.0290  207.4460  155.0760 C   0  0  0  0  0  2  0  0  0  0  0  0
  1 20  1  0  0  0  0
  1  4  1  1  0  0  0
  1  5  1  0  0  0  0
  3 18  1  6  0  0  0
  3  5  1  0  0  0  0
  5 16  1  1  0  0  0
  7  6  1  6  0  0  0
  7  8  1  0  0  0  0
  7  2  1  0  0  0  0
  8 10  1  0  0  0  0
  9  2  1  6  0  0  0
  9  3  1  0  0  0  0
 11 10  1  1  0  0  0
 11  9  1  0  0  0  0
 11  1  1  0  0  0  0
 12 13  1  1  0  0  0
 12  7  1  0  0  0  0
 14 13  1  0  0  0  0
 14 12  1  0  0  0  0
 16 15  1  0  0  0  0
 16 17  1  1  0  0  0
 19 18  3  0  0  0  0
 20 21  1  0  0  0  0
 21 22  1  6  0  0  0
 21 32  1  0  0  0  0
 23 24  1  6  0  0  0
 23 31  1  0  0  0  0
 25 23  1  0  0  0  0
 25 27  1  1  0  0  0
 27 30  1  0  0  0  0
 28 26  1  6  0  0  0
 28 24  1  0  0  0  0
 28 25  1  0  0  0  0
 30 29  1  0  0  0  0
 30 22  1  1  0  0  0
 31 29  1  0  0  0  0
 32 34  1  0  0  0  0
 34 33  1  0  0  0  0
M  END
>  <MODEL>
2

>  <REMARK>
 VINA RESULT:      -6.7      1.333      2.275
  Name = 
  9 active torsions:
  status: ('A' for Active; 'I' for Inactive)
    1  A    between atoms: C_1  and  C_8
    2  A    between atoms: C_3  and  C_25
    3  A    between atoms: C_5  and  C_19
    4  A    between atoms: C_6  and  C_18
    5  A    between atoms: C_6  and  C_28
    6  A    between atoms: C_8  and  C_18
    7  A    between atoms: C_12  and  C_20
    8  A    between atoms: C_18  and  N_30
    9  A    between atoms: N_30  and  C_31
                            x       y       z     vdW  Elec       q    Type
                         _______ _______ _______ _____ _____    ______ ____

>  <TORSDO>
F 9

$$$$
=
 OpenBabel11062409493D

 34 38  0  0  1  0  0  0  0  0999 V2000
  161.0340  209.3770  153.2030 C   0  0  1  0  0  0  0  0  0  0  0  0
  159.2320  212.5460  153.3270 O   0  0  0  0  0  0  0  0  0  0  0  0
  160.0230  210.8430  154.9450 C   0  0  1  0  0  3  0  0  0  0  0  0
  162.4070  209.5910  153.0360 O   0  0  0  0  0  1  0  0  0  0  0  0
  160.6340  209.4580  154.6930 C   0  0  2  0  0  3  0  0  0  0  0  0
  159.4310  214.4530  151.9140 C   0  0  0  0  0  1  0  0  0  0  0  0
  159.2920  212.9430  151.9510 C   0  0  1  0  0  0  0  0  0  0  0  0
  160.5000  212.3630  151.1430 C   0  0  0  0  0  2  0  0  0  0  0  0
  160.2250  211.5910  153.6300 C   0  0  1  0  0  3  0  0  0  0  0  0
  160.7890  210.9820  151.3450 O   0  0  0  0  0  0  0  0  0  0  0  0
  160.2570  210.5160  152.5690 C   0  0  1  0  0  3  0  0  0  0  0  0
  157.9930  212.5930  151.1990 C   0  0  1  0  0  3  0  0  0  0  0  0
  157.2140  213.7740  150.7540 C   0  0  0  0  0  2  0  0  0  0  0  0
  158.0480  213.0610  149.8720 O   0  0  0  0  0  0  0  0  0  0  0  0
  162.0080  210.1310  156.5650 O   0  0  0  0  0  1  0  0  0  0  0  0
  161.7400  209.0800  155.6840 C   0  0  1  0  0  3  0  0  0  0  0  0
  161.3430  207.8450  156.4680 C   0  0  0  0  0  1  0  0  0  0  0  0
  158.5990  210.6840  155.2790 C   0  0  0  0  0  0  0  0  0  0  0  0
  157.4310  210.5530  155.5510 C   0  0  0  0  0  3  0  0  0  0  0  0
  160.6550  208.0300  152.5800 C   0  0  0  0  0  2  0  0  0  0  0  0
  161.6460  207.5630  151.5170 C   0  0  2  0  0  3  0  0  0  0  0  0
  160.8990  207.1660  150.2550 C   0  0  0  0  0  2  0  0  0  0  0  0
  162.1640  204.3740  147.1720 C   0  0  2  0  0  3  0  0  0  0  0  0
  161.2210  203.4330  146.4450 C   0  0  0  0  0  2  0  0  0  0  0  0
  161.6710  203.8110  148.5130 C   0  0  1  0  0  3  0  0  0  0  0  0
  161.1830  201.4480  147.9380 C   0  0  0  0  0  1  0  0  0  0  0  0
  160.8780  204.8290  149.3360 C   0  0  0  0  0  2  0  0  0  0  0  0
  160.7250  202.8850  147.7750 C   0  0  2  0  0  3  0  0  0  0  0  0
  162.1110  206.7090  148.1210 C   0  0  0  0  0  2  0  0  0  0  0  0
  161.6810  206.1230  149.4760 C   0  0  1  0  0  3  0  0  0  0  0  0
  161.7360  205.8250  146.9300 C   0  0  0  0  0  2  0  0  0  0  0  0
  162.3990  206.4250  152.0190 N   0  0  0  0  0  2  0  0  0  0  0  0
  161.0440  204.5820  152.8130 C   0  0  0  0  0  1  0  0  0  0  0  0
  161.6740  205.9110  153.1680 C   0  0  0  0  0  2  0  0  0  0  0  0
  1  4  1  6  0  0  0
  1  5  1  0  0  0  0
  3 18  1  6  0  0  0
  5  3  1  0  0  0  0
  5 16  1  1  0  0  0
  7  6  1  6  0  0  0
  7  2  1  0  0  0  0
  8 10  1  0  0  0  0
  8  7  1  0  0  0  0
  9  2  1  6  0  0  0
  9  3  1  0  0  0  0
 11 10  1  6  0  0  0
 11  1  1  0  0  0  0
 11  9  1  0  0  0  0
 12 13  1  1  0  0  0
 12  7  1  0  0  0  0
 14 13  1  0  0  0  0
 14 12  1  0  0  0  0
 16 17  1  1  0  0  0
 16 15  1  0  0  0  0
 18 19  3  0  0  0  0
 20  1  1  0  0  0  0
 21 22  1  6  0  0  0
 21 32  1  0  0  0  0
 21 20  1  0  0  0  0
 23 24  1  6  0  0  0
 23 25  1  0  0  0  0
 24 28  1  0  0  0  0
 25 27  1  1  0  0  0
 27 30  1  0  0  0  0
 28 26  1  6  0  0  0
 28 25  1  0  0  0  0
 29 30  1  0  0  0  0
 30 22  1  6  0  0  0
 31 23  1  0  0  0  0
 31 29  1  0  0  0  0
 32 34  1  0  0  0  0
 33 34  1  0  0  0  0
M  END
>  <MODEL>
3

>  <REMARK>
 VINA RESULT:      -6.5      1.795      2.454
  Name = 
  9 active torsions:
  status: ('A' for Active; 'I' for Inactive)
    1  A    between atoms: C_1  and  C_8
    2  A    between atoms: C_3  and  C_25
    3  A    between atoms: C_5  and  C_19
    4  A    between atoms: C_6  and  C_18
    5  A    between atoms: C_6  and  C_28
    6  A    between atoms: C_8  and  C_18
    7  A    between atoms: C_12  and  C_20
    8  A    between atoms: C_18  and  N_30
    9  A    between atoms: N_30  and  C_31
                            x       y       z     vdW  Elec       q    Type
                         _______ _______ _______ _____ _____    ______ ____

>  <TORSDO>
F 9

$$$$
=
 OpenBabel11062409493D

 34 38  0  0  1  0  0  0  0  0999 V2000
  160.8230  210.0590  153.5350 C   0  0  1  0  0  0  0  0  0  0  0  0
  159.4350  213.2200  152.3540 O   0  0  0  0  0  0  0  0  0  0  0  0
  159.9140  212.1510  154.5380 C   0  0  1  0  0  3  0  0  0  0  0  0
  162.2190  210.0610  153.4360 O   0  0  0  0  0  1  0  0  0  0  0  0
  160.3560  210.7150  154.8530 C   0  0  2  0  0  3  0  0  0  0  0  0
  159.9520  214.4530  150.3840 C   0  0  0  0  0  1  0  0  0  0  0  0
  159.6210  213.0820  150.9380 C   0  0  1  0  0  0  0  0  0  0  0  0
  160.7860  212.1310  150.5090 C   0  0  0  0  0  2  0  0  0  0  0  0
  160.2800  212.3460  153.0700 C   0  0  1  0  0  3  0  0  0  0  0  0
  160.8860  210.8960  151.2150 O   0  0  0  0  0  0  0  0  0  0  0  0
  160.2330  210.9620  152.4660 C   0  0  1  0  0  3  0  0  0  0  0  0
  158.3300  212.6130  150.2380 C   0  0  1  0  0  3  0  0  0  0  0  0
  157.2050  213.5750  150.3360 C   0  0  0  0  0  2  0  0  0  0  0  0
  158.0000  213.4800  149.1780 O   0  0  0  0  0  0  0  0  0  0  0  0
  161.8970  211.8640  156.3190 O   0  0  0  0  0  1  0  0  0  0  0  0
  161.3500  210.6150  156.0160 C   0  0  1  0  0  3  0  0  0  0  0  0
  160.6660  210.0460  157.2430 C   0  0  0  0  0  1  0  0  0  0  0  0
  158.4650  212.2660  154.7680 C   0  0  0  0  0  0  0  0  0  0  0  0
  157.2780  212.3620  154.9590 C   0  0  0  0  0  3  0  0  0  0  0  0
  160.3100  208.6230  153.3960 C   0  0  0  0  0  2  0  0  0  0  0  0
  161.2400  207.5920  154.0290 C   0  0  2  0  0  3  0  0  0  0  0  0
  162.0350  206.8820  152.9470 C   0  0  0  0  0  2  0  0  0  0  0  0
  160.4500  204.5400  149.6440 C   0  0  2  0  0  3  0  0  0  0  0  0
  161.2060  204.2770  148.3550 C   0  0  0  0  0  2  0  0  0  0  0  0
  160.6550  206.0480  149.4410 C   0  0  1  0  0  3  0  0  0  0  0  0
  160.6140  206.2510  146.9700 C   0  0  0  0  0  1  0  0  0  0  0  0
  161.5840  206.6740  150.4850 C   0  0  0  0  0  2  0  0  0  0  0  0
  161.4200  205.7700  148.1620 C   0  0  2  0  0  3  0  0  0  0  0  0
  160.9690  204.7890  152.0990 C   0  0  0  0  0  2  0  0  0  0  0  0
  161.1070  206.3060  151.8910 C   0  0  1  0  0  3  0  0  0  0  0  0
  161.2370  203.9760  150.8310 C   0  0  0  0  0  2  0  0  0  0  0  0
  160.4560  206.6220  154.7770 N   0  0  0  0  0  2  0  0  0  0  0  0
  159.8050  206.6240  157.1100 C   0  0  0  0  0  1  0  0  0  0  0  0
  159.7240  207.3620  155.7910 C   0  0  0  0  0  2  0  0  0  0  0  0
  1  4  1  6  0  0  0
  1  5  1  0  0  0  0
  3 18  1  6  0  0  0
  3  5  1  0  0  0  0
  5 16  1  1  0  0  0
  7  6  1  6  0  0  0
  7  2  1  0  0  0  0
  8  7  1  0  0  0  0
  8 10  1  0  0  0  0
  9  2  1  6  0  0  0
  9  3  1  0  0  0  0
 11 10  1  6  0  0  0
 11  9  1  0  0  0  0
 11  1  1  0  0  0  0
 12 13  1  1  0  0  0
 12  7  1  0  0  0  0
 14 12  1  0  0  0  0
 14 13  1  0  0  0  0
 16 15  1  0  0  0  0
 16 17  1  1  0  0  0
 18 19  3  0  0  0  0
 20  1  1  0  0  0  0
 20 21  1  0  0  0  0
 21 22  1  6  0  0  0
 21 32  1  0  0  0  0
 23 24  1  6  0  0  0
 23 31  1  0  0  0  0
 25 23  1  0  0  0  0
 25 27  1  1  0  0  0
 27 30  1  0  0  0  0
 28 26  1  6  0  0  0
 28 24  1  0  0  0  0
 28 25  1  0  0  0  0
 30 29  1  0  0  0  0
 30 22  1  1  0  0  0
 31 29  1  0  0  0  0
 32 34  1  0  0  0  0
 34 33  1  0  0  0  0
M  END
>  <MODEL>
4

>  <REMARK>
 VINA RESULT:      -5.2      1.946      3.165
  Name = 
  9 active torsions:
  status: ('A' for Active; 'I' for Inactive)
    1  A    between atoms: C_1  and  C_8
    2  A    between atoms: C_3  and  C_25
    3  A    between atoms: C_5  and  C_19
    4  A    between atoms: C_6  and  C_18
    5  A    between atoms: C_6  and  C_28
    6  A    between atoms: C_8  and  C_18
    7  A    between atoms: C_12  and  C_20
    8  A    between atoms: C_18  and  N_30
    9  A    between atoms: N_30  and  C_31
                            x       y       z     vdW  Elec       q    Type
                         _______ _______ _______ _____ _____    ______ ____

>  <TORSDO>
F 9

$$$$
=
 OpenBabel11062409493D

 34 38  0  0  1  0  0  0  0  0999 V2000
  161.0100  209.3920  153.3010 C   0  0  1  0  0  0  0  0  0  0  0  0
  159.5390  212.7300  153.2220 O   0  0  0  0  0  0  0  0  0  0  0  0
  160.3090  211.1260  154.9480 C   0  0  1  0  0  3  0  0  0  0  0  0
  162.3760  209.4420  153.0000 O   0  0  0  0  0  1  0  0  0  0  0  0
  160.7580  209.6650  154.8010 C   0  0  2  0  0  3  0  0  0  0  0  0
  159.7900  214.4520  151.5960 C   0  0  0  0  0  1  0  0  0  0  0  0
  159.5110  212.9770  151.8100 C   0  0  1  0  0  0  0  0  0  0  0  0
  160.5770  212.1940  150.9750 C   0  0  0  0  0  2  0  0  0  0  0  0
  160.4600  211.7110  153.5460 C   0  0  1  0  0  3  0  0  0  0  0  0
  160.7500  210.8180  151.3040 O   0  0  0  0  0  0  0  0  0  0  0  0
  160.2900  210.5370  152.6100 C   0  0  1  0  0  3  0  0  0  0  0  0
  158.1200  212.6910  151.2100 C   0  0  1  0  0  3  0  0  0  0  0  0
  157.0510  213.5930  151.7030 C   0  0  0  0  0  2  0  0  0  0  0  0
  157.6710  213.7920  150.4550 O   0  0  0  0  0  0  0  0  0  0  0  0
  162.2400  210.3270  156.5920 O   0  0  0  0  0  1  0  0  0  0  0  0
  161.9100  209.2760  155.7340 C   0  0  1  0  0  3  0  0  0  0  0  0
  161.5370  208.0520  156.5450 C   0  0  0  0  0  1  0  0  0  0  0  0
  158.9130  211.1520  155.4130 C   0  0  0  0  0  0  0  0  0  0  0  0
  157.7690  211.1750  155.7940 C   0  0  0  0  0  3  0  0  0  0  0  0
  160.4480  208.0370  152.8630 C   0  0  0  0  0  2  0  0  0  0  0  0
  161.2200  207.4160  151.7020 C   0  0  2  0  0  3  0  0  0  0  0  0
  161.7010  206.0270  152.0880 C   0  0  0  0  0  2  0  0  0  0  0  0
  160.4570  202.2980  150.2300 C   0  0  2  0  0  3  0  0  0  0  0  0
  161.3270  201.4970  149.2780 C   0  0  0  0  0  2  0  0  0  0  0  0
  160.6440  203.5350  149.3390 C   0  0  1  0  0  3  0  0  0  0  0  0
  160.8090  202.5270  147.0790 C   0  0  0  0  0  1  0  0  0  0  0  0
  161.4670  204.6390  150.0080 C   0  0  0  0  0  2  0  0  0  0  0  0
  161.5210  202.7260  148.4030 C   0  0  2  0  0  3  0  0  0  0  0  0
  160.7600  203.7230  152.2880 C   0  0  0  0  0  2  0  0  0  0  0  0
  160.8800  204.9610  151.3840 C   0  0  1  0  0  3  0  0  0  0  0  0
  161.1540  202.4200  151.5890 C   0  0  0  0  0  2  0  0  0  0  0  0
  162.3600  208.2550  151.3700 N   0  0  0  0  0  2  0  0  0  0  0  0
  161.3590  208.0610  149.1720 C   0  0  0  0  0  1  0  0  0  0  0  0
  162.6500  208.0360  149.9630 C   0  0  0  0  0  2  0  0  0  0  0  0
  1  4  1  6  0  0  0
  1  5  1  0  0  0  0
  3 18  1  6  0  0  0
  5  3  1  0  0  0  0
  5 16  1  1  0  0  0
  7  6  1  6  0  0  0
  7  2  1  0  0  0  0
  8 10  1  0  0  0  0
  8  7  1  0  0  0  0
  9  2  1  6  0  0  0
  9  3  1  0  0  0  0
 11 10  1  6  0  0  0
 11  1  1  0  0  0  0
 11  9  1  0  0  0  0
 12 13  1  1  0  0  0
 12  7  1  0  0  0  0
 14 12  1  0  0  0  0
 14 13  1  0  0  0  0
 16 17  1  1  0  0  0
 16 15  1  0  0  0  0
 18 19  3  0  0  0  0
 20  1  1  0  0  0  0
 21 22  1  1  0  0  0
 21 20  1  0  0  0  0
 23 24  1  6  0  0  0
 23 31  1  0  0  0  0
 25 27  1  1  0  0  0
 25 23  1  0  0  0  0
 27 30  1  0  0  0  0
 28 26  1  6  0  0  0
 28 24  1  0  0  0  0
 28 25  1  0  0  0  0
 30 22  1  1  0  0  0
 30 29  1  0  0  0  0
 31 29  1  0  0  0  0
 32 21  1  0  0  0  0
 33 34  1  0  0  0  0
 34 32  1  0  0  0  0
M  END
>  <MODEL>
5

>  <REMARK>
 VINA RESULT:      -5.2      1.992      3.196
  Name = 
  9 active torsions:
  status: ('A' for Active; 'I' for Inactive)
    1  A    between atoms: C_1  and  C_8
    2  A    between atoms: C_3  and  C_25
    3  A    between atoms: C_5  and  C_19
    4  A    between atoms: C_6  and  C_18
    5  A    between atoms: C_6  and  C_28
    6  A    between atoms: C_8  and  C_18
    7  A    between atoms: C_12  and  C_20
    8  A    between atoms: C_18  and  N_30
    9  A    between atoms: N_30  and  C_31
                            x       y       z     vdW  Elec       q    Type
                         _______ _______ _______ _____ _____    ______ ____

>  <TORSDO>
F 9

$$$$
=
 OpenBabel11062409493D

 34 38  0  0  1  0  0  0  0  0999 V2000
  161.4080  209.2340  151.4420 C   0  0  1  0  0  0  0  0  0  0  0  0
  161.0780  212.5300  149.9130 O   0  0  0  0  0  0  0  0  0  0  0  0
  160.7670  211.5320  152.1600 C   0  0  1  0  0  3  0  0  0  0  0  0
  162.7520  208.9350  151.6970 O   0  0  0  0  0  1  0  0  0  0  0  0
  160.7920  210.0590  152.5930 C   0  0  2  0  0  3  0  0  0  0  0  0
  162.3160  213.4930  148.1200 C   0  0  0  0  0  1  0  0  0  0  0  0
  161.5660  212.2620  148.5910 C   0  0  1  0  0  0  0  0  0  0  0  0
  162.5620  211.0610  148.4790 C   0  0  0  0  0  2  0  0  0  0  0  0
  161.5110  211.5470  150.8280 C   0  0  1  0  0  3  0  0  0  0  0  0
  162.2140  209.8830  149.2020 O   0  0  0  0  0  0  0  0  0  0  0  0
  161.3080  210.1670  150.2480 C   0  0  1  0  0  3  0  0  0  0  0  0
  160.4120  212.0290  147.5950 C   0  0  1  0  0  3  0  0  0  0  0  0
  159.2800  212.9740  147.7500 C   0  0  0  0  0  2  0  0  0  0  0  0
  160.2570  213.1460  146.7500 O   0  0  0  0  0  0  0  0  0  0  0  0
  162.2570  210.8970  154.3240 O   0  0  0  0  0  1  0  0  0  0  0  0
  161.4280  209.8310  153.9690 C   0  0  1  0  0  3  0  0  0  0  0  0
  160.3510  209.6480  155.0200 C   0  0  0  0  0  1  0  0  0  0  0  0
  159.3670  211.9630  152.0180 C   0  0  0  0  0  0  0  0  0  0  0  0
  158.2190  212.3150  151.9000 C   0  0  0  0  0  3  0  0  0  0  0  0
  160.6410  207.9310  151.1960 C   0  0  0  0  0  2  0  0  0  0  0  0
  161.5550  206.7460  150.9000 C   0  0  2  0  0  3  0  0  0  0  0  0
  160.7390  205.4640  150.8570 C   0  0  0  0  0  2  0  0  0  0  0  0
  161.1940  203.6530  146.9310 C   0  0  2  0  0  3  0  0  0  0  0  0
  162.4920  203.6580  146.1440 C   0  0  0  0  0  2  0  0  0  0  0  0
  161.2750  205.1820  147.0470 C   0  0  1  0  0  3  0  0  0  0  0  0
  162.3660  205.8090  144.9100 C   0  0  0  0  0  1  0  0  0  0  0  0
  161.5200  205.6640  148.4790 C   0  0  0  0  0  2  0  0  0  0  0  0
  162.5760  205.1710  146.2700 C   0  0  2  0  0  3  0  0  0  0  0  0
  160.4710  203.4990  149.3410 C   0  0  0  0  0  2  0  0  0  0  0  0
  160.4930  205.0340  149.4220 C   0  0  1  0  0  3  0  0  0  0  0  0
  161.4020  202.9330  148.2670 C   0  0  0  0  0  2  0  0  0  0  0  0
  162.5730  206.6440  151.9330 N   0  0  0  0  0  2  0  0  0  0  0  0
  161.4180  206.2840  154.0310 C   0  0  0  0  0  1  0  0  0  0  0  0
  162.1270  205.6250  152.8670 C   0  0  0  0  0  2  0  0  0  0  0  0
  1  4  1  1  0  0  0
  1  5  1  0  0  0  0
  3 18  1  6  0  0  0
  3  5  1  0  0  0  0
  5 16  1  1  0  0  0
  7  6  1  6  0  0  0
  7  2  1  0  0  0  0
  8  7  1  0  0  0  0
  8 10  1  0  0  0  0
  9  2  1  6  0  0  0
  9  3  1  0  0  0  0
 11 10  1  6  0  0  0
 11  9  1  0  0  0  0
 11  1  1  0  0  0  0
 12 13  1  1  0  0  0
 12  7  1  0  0  0  0
 14 12  1  0  0  0  0
 14 13  1  0  0  0  0
 16 15  1  0  0  0  0
 16 17  1  1  0  0  0
 19 18  3  0  0  0  0
 20  1  1  0  0  0  0
 21 22  1  1  0  0  0
 21 20  1  0  0  0  0
 21 32  1  0  0  0  0
 23 24  1  6  0  0  0
 23 25  1  0  0  0  0
 23 31  1  0  0  0  0
 24 28  1  0  0  0  0
 25 27  1  1  0  0  0
 27 30  1  0  0  0  0
 28 26  1  6  0  0  0
 28 25  1  0  0  0  0
 29 30  1  0  0  0  0
 30 22  1  1  0  0  0
 31 29  1  0  0  0  0
 32 34  1  0  0  0  0
 34 33  1  0  0  0  0
M  END
>  <MODEL>
6

>  <REMARK>
 VINA RESULT:      -4.9      0.944      1.784
  Name = 
  9 active torsions:
  status: ('A' for Active; 'I' for Inactive)
    1  A    between atoms: C_1  and  C_8
    2  A    between atoms: C_3  and  C_25
    3  A    between atoms: C_5  and  C_19
    4  A    between atoms: C_6  and  C_18
    5  A    between atoms: C_6  and  C_28
    6  A    between atoms: C_8  and  C_18
    7  A    between atoms: C_12  and  C_20
    8  A    between atoms: C_18  and  N_30
    9  A    between atoms: N_30  and  C_31
                            x       y       z     vdW  Elec       q    Type
                         _______ _______ _______ _____ _____    ______ ____

>  <TORSDO>
F 9

$$$$
=
 OpenBabel11062409493D

 34 38  0  0  1  0  0  0  0  0999 V2000
  160.3160  210.8400  152.6310 C   0  0  1  0  0  0  0  0  0  0  0  0
  159.9960  210.0320  156.1740 O   0  0  0  0  0  0  0  0  0  0  0  0
  159.0790  211.7180  154.6070 C   0  0  1  0  0  3  0  0  0  0  0  0
  159.5510  209.9660  151.8500 O   0  0  0  0  0  1  0  0  0  0  0  0
  159.4610  212.0170  153.1500 C   0  0  2  0  0  3  0  0  0  0  0  0
  160.1120  207.9140  157.2560 C   0  0  0  0  0  1  0  0  0  0  0  0
  160.7750  208.8300  156.2460 C   0  0  1  0  0  0  0  0  0  0  0  0
  160.8800  208.0230  154.9110 C   0  0  0  0  0  2  0  0  0  0  0  0
  159.5910  210.3020  154.8500 C   0  0  1  0  0  3  0  0  0  0  0  0
  161.1260  208.7850  153.7310 O   0  0  0  0  0  0  0  0  0  0  0  0
  160.7570  210.1380  153.9030 C   0  0  1  0  0  3  0  0  0  0  0  0
  162.2030  209.1070  156.7590 C   0  0  1  0  0  3  0  0  0  0  0  0
  162.9160  210.1730  156.0150 C   0  0  0  0  0  2  0  0  0  0  0  0
  162.3020  210.4200  157.2580 O   0  0  0  0  0  0  0  0  0  0  0  0
  157.2460  212.9760  153.0160 O   0  0  0  0  0  1  0  0  0  0  0  0
  158.2700  212.3960  152.2640 C   0  0  1  0  0  3  0  0  0  0  0  0
  158.7100  213.3540  151.1750 C   0  0  0  0  0  1  0  0  0  0  0  0
  159.7330  212.7030  155.4830 C   0  0  0  0  0  0  0  0  0  0  0  0
  160.2670  213.5090  156.2040 C   0  0  0  0  0  3  0  0  0  0  0  0
  161.5190  211.3210  151.8150 C   0  0  0  0  0  2  0  0  0  0  0  0
  161.5940  210.6880  150.4280 C   0  0  2  0  0  3  0  0  0  0  0  0
  162.2820  209.3360  150.5150 C   0  0  0  0  0  2  0  0  0  0  0  0
  160.8370  205.5060  149.0510 C   0  0  2  0  0  3  0  0  0  0  0  0
  161.6770  204.5430  148.2330 C   0  0  0  0  0  2  0  0  0  0  0  0
  161.1390  206.6140  148.0310 C   0  0  1  0  0  3  0  0  0  0  0  0
  161.3040  205.3380  145.9100 C   0  0  0  0  0  1  0  0  0  0  0  0
  162.0160  207.7320  148.6020 C   0  0  0  0  0  2  0  0  0  0  0  0
  161.9860  205.6440  147.2300 C   0  0  2  0  0  3  0  0  0  0  0  0
  161.1740  207.1400  150.9410 C   0  0  0  0  0  2  0  0  0  0  0  0
  161.4100  208.2520  149.9070 C   0  0  1  0  0  3  0  0  0  0  0  0
  161.4970  205.7400  150.4130 C   0  0  0  0  0  2  0  0  0  0  0  0
  162.3380  211.5600  149.5330 N   0  0  0  0  0  2  0  0  0  0  0  0
  160.8560  212.7550  148.0370 C   0  0  0  0  0  1  0  0  0  0  0  0
  161.6780  211.5010  148.2410 C   0  0  0  0  0  2  0  0  0  0  0  0
  1  4  1  6  0  0  0
  1  5  1  0  0  0  0
  1 11  1  0  0  0  0
  2  7  1  0  0  0  0
  3  9  1  0  0  0  0
  3 18  1  1  0  0  0
  5 16  1  6  0  0  0
  5  3  1  0  0  0  0
  7 12  1  0  0  0  0
  7  6  1  1  0  0  0
  8  7  1  0  0  0  0
  9  2  1  1  0  0  0
 10  8  1  0  0  0  0
 11 10  1  6  0  0  0
 11  9  1  0  0  0  0
 12 13  1  6  0  0  0
 12 14  1  0  0  0  0
 13 14  1  0  0  0  0
 16 17  1  6  0  0  0
 16 15  1  0  0  0  0
 18 19  3  0  0  0  0
 20  1  1  0  0  0  0
 21 22  1  1  0  0  0
 21 20  1  0  0  0  0
 23 24  1  6  0  0  0
 23 31  1  0  0  0  0
 25 27  1  1  0  0  0
 25 23  1  0  0  0  0
 27 30  1  0  0  0  0
 28 26  1  6  0  0  0
 28 25  1  0  0  0  0
 28 24  1  0  0  0  0
 30 22  1  1  0  0  0
 30 29  1  0  0  0  0
 31 29  1  0  0  0  0
 32 21  1  0  0  0  0
 33 34  1  0  0  0  0
 34 32  1  0  0  0  0
M  END
>  <MODEL>
7

>  <REMARK>
 VINA RESULT:      -4.9      2.243      5.701
  Name = 
  9 active torsions:
  status: ('A' for Active; 'I' for Inactive)
    1  A    between atoms: C_1  and  C_8
    2  A    between atoms: C_3  and  C_25
    3  A    between atoms: C_5  and  C_19
    4  A    between atoms: C_6  and  C_18
    5  A    between atoms: C_6  and  C_28
    6  A    between atoms: C_8  and  C_18
    7  A    between atoms: C_12  and  C_20
    8  A    between atoms: C_18  and  N_30
    9  A    between atoms: N_30  and  C_31
                            x       y       z     vdW  Elec       q    Type
                         _______ _______ _______ _____ _____    ______ ____

>  <TORSDO>
F 9

$$$$
=
 OpenBabel11062409493D

 34 38  0  0  1  0  0  0  0  0999 V2000
  161.3860  208.1980  150.8330 C   0  0  1  0  0  0  0  0  0  0  0  0
  161.6720  211.7760  150.1780 O   0  0  0  0  0  0  0  0  0  0  0  0
  161.3130  210.3140  152.1470 C   0  0  1  0  0  3  0  0  0  0  0  0
  162.6470  207.5910  150.8410 O   0  0  0  0  0  1  0  0  0  0  0  0
  161.0480  208.8030  152.2140 C   0  0  2  0  0  3  0  0  0  0  0  0
  162.9570  212.9100  148.5250 C   0  0  0  0  0  1  0  0  0  0  0  0
  161.9940  211.7680  148.7800 C   0  0  1  0  0  0  0  0  0  0  0  0
  162.6940  210.4680  148.2650 C   0  0  0  0  0  2  0  0  0  0  0  0
  161.9460  210.5270  150.7750 C   0  0  1  0  0  3  0  0  0  0  0  0
  162.1510  209.2330  148.7270 O   0  0  0  0  0  0  0  0  0  0  0  0
  161.4060  209.4080  149.9150 C   0  0  1  0  0  3  0  0  0  0  0  0
  160.7490  212.0260  147.9080 C   0  0  1  0  0  3  0  0  0  0  0  0
  160.3400  213.4500  147.8440 C   0  0  0  0  0  2  0  0  0  0  0  0
  161.0760  212.8440  146.8090 O   0  0  0  0  0  0  0  0  0  0  0  0
  161.6190  208.8910  154.5610 O   0  0  0  0  0  1  0  0  0  0  0  0
  161.7160  208.1110  153.4070 C   0  0  1  0  0  3  0  0  0  0  0  0
  161.0810  206.7570  153.6510 C   0  0  0  0  0  1  0  0  0  0  0  0
  160.0340  211.0290  152.2850 C   0  0  0  0  0  0  0  0  0  0  0  0
  158.9850  211.6140  152.3970 C   0  0  0  0  0  3  0  0  0  0  0  0
  160.3380  207.1760  150.3830 C   0  0  0  0  0  2  0  0  0  0  0  0
  160.9240  206.0580  149.5250 C   0  0  2  0  0  3  0  0  0  0  0  0
  161.3070  204.8800  150.4060 C   0  0  0  0  0  2  0  0  0  0  0  0
  160.7210  200.8390  148.9120 C   0  0  2  0  0  3  0  0  0  0  0  0
  161.5800  200.2040  147.8340 C   0  0  0  0  0  2  0  0  0  0  0  0
  160.4340  202.0180  147.9700 C   0  0  1  0  0  3  0  0  0  0  0  0
  160.4430  200.9200  145.7460 C   0  0  0  0  0  1  0  0  0  0  0  0
  161.0610  203.3320  148.4440 C   0  0  0  0  0  2  0  0  0  0  0  0
  161.3050  201.3780  146.9070 C   0  0  2  0  0  3  0  0  0  0  0  0
  161.0170  202.4380  150.8390 C   0  0  0  0  0  2  0  0  0  0  0  0
  160.6650  203.6010  149.8970 C   0  0  1  0  0  3  0  0  0  0  0  0
  161.5940  201.2210  150.1110 C   0  0  0  0  0  2  0  0  0  0  0  0
  162.1000  206.5460  148.8230 N   0  0  0  0  0  2  0  0  0  0  0  0
  162.6930  205.6670  146.6450 C   0  0  0  0  0  1  0  0  0  0  0  0
  161.7620  206.5830  147.4100 C   0  0  0  0  0  2  0  0  0  0  0  0
  1  4  1  1  0  0  0
  1  5  1  0  0  0  0
  3  5  1  0  0  0  0
  3 18  1  6  0  0  0
  5 16  1  1  0  0  0
  7  6  1  6  0  0  0
  7  2  1  0  0  0  0
  8 10  1  0  0  0  0
  8  7  1  0  0  0  0
  9  2  1  6  0  0  0
  9  3  1  0  0  0  0
 11 10  1  6  0  0  0
 11  9  1  0  0  0  0
 11  1  1  0  0  0  0
 12 13  1  1  0  0  0
 12  7  1  0  0  0  0
 14 13  1  0  0  0  0
 14 12  1  0  0  0  0
 16 17  1  1  0  0  0
 16 15  1  0  0  0  0
 18 19  3  0  0  0  0
 20  1  1  0  0  0  0
 21 20  1  1  0  0  0
 21 22  1  0  0  0  0
 23 24  1  6  0  0  0
 23 31  1  0  0  0  0
 25 27  1  1  0  0  0
 25 23  1  0  0  0  0
 27 30  1  0  0  0  0
 28 26  1  6  0  0  0
 28 24  1  0  0  0  0
 28 25  1  0  0  0  0
 30 22  1  1  0  0  0
 30 29  1  0  0  0  0
 31 29  1  0  0  0  0
 32 21  1  0  0  0  0
 33 34  1  0  0  0  0
 34 32  1  0  0  0  0
M  END
>  <MODEL>
8

>  <REMARK>
 VINA RESULT:      -4.7      1.475      2.742
  Name = 
  9 active torsions:
  status: ('A' for Active; 'I' for Inactive)
    1  A    between atoms: C_1  and  C_8
    2  A    between atoms: C_3  and  C_25
    3  A    between atoms: C_5  and  C_19
    4  A    between atoms: C_6  and  C_18
    5  A    between atoms: C_6  and  C_28
    6  A    between atoms: C_8  and  C_18
    7  A    between atoms: C_12  and  C_20
    8  A    between atoms: C_18  and  N_30
    9  A    between atoms: N_30  and  C_31
                            x       y       z     vdW  Elec       q    Type
                         _______ _______ _______ _____ _____    ______ ____

>  <TORSDO>
F 9

$$$$
=
 OpenBabel11062409493D

 34 38  0  0  1  0  0  0  0  0999 V2000
  161.3880  208.2500  152.5320 C   0  0  1  0  0  0  0  0  0  0  0  0
  161.2700  209.1840  156.0570 O   0  0  0  0  0  0  0  0  0  0  0  0
  161.1140  207.0990  154.7250 C   0  0  1  0  0  3  0  0  0  0  0  0
  162.7080  208.2330  152.0650 O   0  0  0  0  0  1  0  0  0  0  0  0
  161.0170  206.9100  153.2040 C   0  0  2  0  0  3  0  0  0  0  0  0
  162.3880  210.9560  157.1870 C   0  0  0  0  0  1  0  0  0  0  0  0
  161.5600  210.5860  155.9730 C   0  0  1  0  0  0  0  0  0  0  0  0
  162.3860  211.0210  154.7180 C   0  0  0  0  0  2  0  0  0  0  0  0
  161.6900  208.5020  154.8950 C   0  0  1  0  0  3  0  0  0  0  0  0
  161.9900  210.4500  153.4730 O   0  0  0  0  0  0  0  0  0  0  0  0
  161.2570  209.2570  153.6610 C   0  0  1  0  0  3  0  0  0  0  0  0
  160.2760  211.4370  156.0260 C   0  0  1  0  0  3  0  0  0  0  0  0
  159.0270  210.6420  156.1090 C   0  0  0  0  0  2  0  0  0  0  0  0
  159.6020  211.2380  157.2470 O   0  0  0  0  0  0  0  0  0  0  0  0
  162.9720  205.5000  153.3890 O   0  0  0  0  0  1  0  0  0  0  0  0
  161.7810  205.6880  152.6840 C   0  0  1  0  0  3  0  0  0  0  0  0
  160.9210  204.4450  152.7930 C   0  0  0  0  0  1  0  0  0  0  0  0
  159.7690  206.9780  155.3080 C   0  0  0  0  0  0  0  0  0  0  0  0
  158.6650  206.8790  155.7840 C   0  0  0  0  0  3  0  0  0  0  0  0
  160.4490  208.5890  151.3710 C   0  0  0  0  0  2  0  0  0  0  0  0
  161.1700  208.6970  150.0300 C   0  0  2  0  0  3  0  0  0  0  0  0
  161.9360  207.4150  149.7520 C   0  0  0  0  0  2  0  0  0  0  0  0
  160.9700  204.3290  146.8460 C   0  0  2  0  0  3  0  0  0  0  0  0
  161.9200  203.8680  145.7560 C   0  0  0  0  0  2  0  0  0  0  0  0
  161.1290  205.7750  146.3540 C   0  0  1  0  0  3  0  0  0  0  0  0
  161.4420  205.4630  143.9140 C   0  0  0  0  0  1  0  0  0  0  0  0
  161.8620  206.6720  147.3550 C   0  0  0  0  0  2  0  0  0  0  0  0
  162.0860  205.3020  145.2770 C   0  0  2  0  0  3  0  0  0  0  0  0
  161.1100  205.1150  149.2370 C   0  0  0  0  0  2  0  0  0  0  0  0
  161.2020  206.5640  148.7300 C   0  0  1  0  0  3  0  0  0  0  0  0
  161.6020  204.0830  148.2200 C   0  0  0  0  0  2  0  0  0  0  0  0
  162.0910  209.8220  150.0610 N   0  0  0  0  0  2  0  0  0  0  0  0
  162.2090  211.7420  148.5890 C   0  0  0  0  0  1  0  0  0  0  0  0
  162.3010  210.2340  148.6830 C   0  0  0  0  0  2  0  0  0  0  0  0
  1  4  1  6  0  0  0
  1  5  1  0  0  0  0
  1 11  1  0  0  0  0
  3  9  1  0  0  0  0
  3 18  1  1  0  0  0
  5 16  1  6  0  0  0
  5  3  1  0  0  0  0
  7 12  1  0  0  0  0
  7  2  1  0  0  0  0
  7  6  1  1  0  0  0
  8  7  1  0  0  0  0
  9  2  1  1  0  0  0
 10  8  1  0  0  0  0
 11 10  1  6  0  0  0
 11  9  1  0  0  0  0
 12 13  1  6  0  0  0
 12 14  1  0  0  0  0
 13 14  1  0  0  0  0
 16 17  1  1  0  0  0
 16 15  1  0  0  0  0
 18 19  3  0  0  0  0
 20  1  1  0  0  0  0
 21 22  1  1  0  0  0
 21 32  1  0  0  0  0
 21 20  1  0  0  0  0
 23 24  1  6  0  0  0
 23 31  1  0  0  0  0
 25 23  1  0  0  0  0
 25 27  1  1  0  0  0
 27 30  1  0  0  0  0
 28 26  1  6  0  0  0
 28 24  1  0  0  0  0
 28 25  1  0  0  0  0
 30 29  1  0  0  0  0
 30 22  1  1  0  0  0
 31 29  1  0  0  0  0
 33 34  1  0  0  0  0
 34 32  1  0  0  0  0
M  END
>  <MODEL>
9

>  <REMARK>
 VINA RESULT:      -4.1      2.642      5.472
  Name = 
  9 active torsions:
  status: ('A' for Active; 'I' for Inactive)
    1  A    between atoms: C_1  and  C_8
    2  A    between atoms: C_3  and  C_25
    3  A    between atoms: C_5  and  C_19
    4  A    between atoms: C_6  and  C_18
    5  A    between atoms: C_6  and  C_28
    6  A    between atoms: C_8  and  C_18
    7  A    between atoms: C_12  and  C_20
    8  A    between atoms: C_18  and  N_30
    9  A    between atoms: N_30  and  C_31
                            x       y       z     vdW  Elec       q    Type
                         _______ _______ _______ _____ _____    ______ ____

>  <TORSDO>
F 9

$$$$
