=
 OpenBabel11052422133D

 25 28  0  0  1  0  0  0  0  0999 V2000
  161.4020  205.4020  149.3050 C   0  0  0  0  0  0  0  0  0  0  0  0
  161.4170  206.3430  150.3500 C   0  0  0  0  0  0  0  0  0  0  0  0
  161.9180  207.1570  147.7100 C   0  0  0  0  0  3  0  0  0  0  0  0
  161.1600  204.0160  149.3660 C   0  0  0  0  0  0  0  0  0  0  0  0
  160.7340  201.2670  149.0920 C   0  0  0  0  0  3  0  0  0  0  0  0
  161.9280  208.0600  148.7280 N   0  0  0  0  0  0  0  0  0  0  0  0
  161.2300  203.4010  148.1180 C   0  0  0  0  0  0  0  0  0  0  0  0
  161.0210  202.0330  147.9530 C   0  0  0  0  0  3  0  0  0  0  0  0
  161.7040  208.6540  151.0530 C   0  0  0  0  0  0  0  0  0  0  0  0
  161.9790  210.0900  150.7650 C   0  0  0  0  0  1  0  0  0  0  0  0
  161.1740  205.9940  151.6820 C   0  0  0  0  0  3  0  0  0  0  0  0
  160.6610  201.8720  150.3600 C   0  0  0  0  0  3  0  0  0  0  0  0
  161.6540  205.8240  148.0020 C   0  0  0  0  0  0  0  0  0  0  0  0
  161.5860  204.5320  146.9210 S   0  0  0  0  0  0  0  0  0  0  0  0
  161.4610  208.2730  152.3360 N   0  0  0  0  0  0  0  0  0  0  0  0
  160.8740  203.2520  150.5040 C   0  0  0  0  0  3  0  0  0  0  0  0
  161.2060  206.9780  152.6690 C   0  0  0  0  0  0  0  0  0  0  0  0
  161.6890  207.6970  150.0250 C   0  0  0  0  0  0  0  0  0  0  0  0
  160.9250  206.6190  154.0850 C   0  0  0  0  0  2  0  0  0  0  0  0
  160.6270  207.8730  154.8890 C   0  0  0  0  0  2  0  0  0  0  0  0
  161.2410  207.7720  156.2770 C   0  0  2  0  0  3  0  0  0  0  0  0
  160.2400  207.5180  157.2150 O   0  0  0  0  0  1  0  0  0  0  0  0
  161.9900  209.0480  156.6480 C   0  0  0  0  0  2  0  0  0  0  0  0
  161.9020  209.9890  155.6200 O   0  0  0  0  0  0  0  0  0  0  0  0
  163.0030  210.7000  155.7290 O   0  0  0  0  0  1  0  0  0  0  0  0
  1  4  1  0  0  0  0
  1  2  2  0  0  0  0
  2 11  1  0  0  0  0
  3 13  2  0  0  0  0
  3  6  1  0  0  0  0
  4 16  1  0  0  0  0
  5 12  1  0  0  0  0
  6 18  2  0  0  0  0
  7  4  2  0  0  0  0
  8  7  1  0  0  0  0
  8  5  2  0  0  0  0
  9 15  2  0  0  0  0
 10  9  1  0  0  0  0
 11 17  2  0  0  0  0
 12 16  2  0  0  0  0
 13  1  1  0  0  0  0
 14 13  1  0  0  0  0
 14  7  1  0  0  0  0
 15 17  1  0  0  0  0
 17 19  1  0  0  0  0
 18  2  1  0  0  0  0
 18  9  1  0  0  0  0
 19 20  1  0  0  0  0
 20 21  1  0  0  0  0
 21 23  1  0  0  0  0
 21 22  1  1  0  0  0
 24 25  1  0  0  0  0
 24 23  1  0  0  0  0
M  END
>  <MODEL>
1

>  <REMARK>
 VINA RESULT:      -9.4      0.000      0.000
  Name = 
  5 active torsions:
  status: ('A' for Active; 'I' for Inactive)
    1  A    between atoms: C_2  and  O_7
    2  A    between atoms: C_2  and  C_21
    3  A    between atoms: C_6  and  C_15
    4  A    between atoms: C_6  and  C_23
    5  A    between atoms: C_15  and  C_21
                            x       y       z     vdW  Elec       q    Type
                         _______ _______ _______ _____ _____    ______ ____

>  <TORSDO>
F 5

$$$$
=
 OpenBabel11052422133D

 25 28  0  0  1  0  0  0  0  0999 V2000
  161.1320  204.3730  149.7180 C   0  0  0  0  0  0  0  0  0  0  0  0
  161.3070  205.7150  150.1020 C   0  0  0  0  0  0  0  0  0  0  0  0
  160.7850  203.7500  152.0380 C   0  0  0  0  0  3  0  0  0  0  0  0
  161.1790  203.8080  148.4290 C   0  0  0  0  0  0  0  0  0  0  0  0
  161.1960  202.3390  146.0510 C   0  0  0  0  0  3  0  0  0  0  0  0
  160.9580  205.0510  152.3990 N   0  0  0  0  0  0  0  0  0  0  0  0
  160.9560  202.4330  148.4340 C   0  0  0  0  0  0  0  0  0  0  0  0
  160.9600  201.6770  147.2640 C   0  0  0  0  0  3  0  0  0  0  0  0
  161.3880  207.3660  151.8860 C   0  0  0  0  0  0  0  0  0  0  0  0
  161.3040  207.7530  153.3230 C   0  0  0  0  0  1  0  0  0  0  0  0
  161.5700  206.7330  149.1800 C   0  0  0  0  0  3  0  0  0  0  0  0
  161.4220  203.7280  146.0270 C   0  0  0  0  0  3  0  0  0  0  0  0
  160.8730  203.4130  150.6930 C   0  0  0  0  0  0  0  0  0  0  0  0
  160.7000  201.8830  150.0060 S   0  0  0  0  0  0  0  0  0  0  0  0
  161.6440  208.3270  150.9580 N   0  0  0  0  0  0  0  0  0  0  0  0
  161.4150  204.4700  147.2190 C   0  0  0  0  0  3  0  0  0  0  0  0
  161.7310  208.0440  149.6300 C   0  0  0  0  0  0  0  0  0  0  0  0
  161.2130  206.0320  151.4810 C   0  0  0  0  0  0  0  0  0  0  0  0
  162.0340  209.1300  148.6590 C   0  0  0  0  0  2  0  0  0  0  0  0
  162.0750  210.4690  149.3740 C   0  0  0  0  0  2  0  0  0  0  0  0
  161.9700  211.6090  148.3730 C   0  0  2  0  0  3  0  0  0  0  0  0
  163.2460  212.0770  148.0600 O   0  0  0  0  0  1  0  0  0  0  0  0
  161.1150  212.7500  148.9150 C   0  0  0  0  0  2  0  0  0  0  0  0
  160.1170  213.0960  148.0010 O   0  0  0  0  0  0  0  0  0  0  0  0
  160.2070  212.1870  147.0550 O   0  0  0  0  0  1  0  0  0  0  0  0
  1  2  2  0  0  0  0
  1 13  1  0  0  0  0
  2 18  1  0  0  0  0
  3  6  1  0  0  0  0
  4  7  1  0  0  0  0
  4  1  1  0  0  0  0
  5  8  1  0  0  0  0
  7 14  1  0  0  0  0
  8  7  2  0  0  0  0
  9 10  1  0  0  0  0
 11 17  2  0  0  0  0
 11  2  1  0  0  0  0
 12  5  2  0  0  0  0
 12 16  1  0  0  0  0
 13  3  2  0  0  0  0
 14 13  1  0  0  0  0
 15  9  2  0  0  0  0
 16  4  2  0  0  0  0
 17 15  1  0  0  0  0
 18  9  1  0  0  0  0
 18  6  2  0  0  0  0
 19 20  1  0  0  0  0
 19 17  1  0  0  0  0
 21 22  1  1  0  0  0
 21 23  1  0  0  0  0
 21 20  1  0  0  0  0
 24 23  1  0  0  0  0
 25 24  1  0  0  0  0
M  END
>  <MODEL>
2

>  <REMARK>
 VINA RESULT:      -9.0      3.498      5.193
  Name = 
  5 active torsions:
  status: ('A' for Active; 'I' for Inactive)
    1  A    between atoms: C_2  and  O_7
    2  A    between atoms: C_2  and  C_21
    3  A    between atoms: C_6  and  C_15
    4  A    between atoms: C_6  and  C_23
    5  A    between atoms: C_15  and  C_21
                            x       y       z     vdW  Elec       q    Type
                         _______ _______ _______ _____ _____    ______ ____

>  <TORSDO>
F 5

$$$$
=
 OpenBabel11052422133D

 25 28  0  0  1  0  0  0  0  0999 V2000
  161.4020  205.1050  148.8920 C   0  0  0  0  0  0  0  0  0  0  0  0
  161.4350  206.2620  149.6900 C   0  0  0  0  0  0  0  0  0  0  0  0
  161.9130  206.4380  146.9290 C   0  0  0  0  0  3  0  0  0  0  0  0
  161.1500  203.7730  149.2750 C   0  0  0  0  0  0  0  0  0  0  0  0
  160.7020  201.0390  149.6490 C   0  0  0  0  0  3  0  0  0  0  0  0
  161.9400  207.5530  147.7110 N   0  0  0  0  0  0  0  0  0  0  0  0
  161.2020  202.8850  148.2020 C   0  0  0  0  0  0  0  0  0  0  0  0
  160.9820  201.5190  148.3610 C   0  0  0  0  0  3  0  0  0  0  0  0
  161.7460  208.6700  149.8370 C   0  0  0  0  0  0  0  0  0  0  0  0
  162.0280  209.9980  149.2220 C   0  0  0  0  0  1  0  0  0  0  0  0
  161.2040  206.2330  151.0690 C   0  0  0  0  0  3  0  0  0  0  0  0
  160.6470  201.9220  150.7430 C   0  0  0  0  0  3  0  0  0  0  0  0
  161.6420  205.2120  147.5250 C   0  0  0  0  0  0  0  0  0  0  0  0
  161.5530  203.7050  146.7730 S   0  0  0  0  0  0  0  0  0  0  0  0
  161.5140  208.5990  151.1750 N   0  0  0  0  0  0  0  0  0  0  0  0
  160.8710  203.2960  150.5610 C   0  0  0  0  0  3  0  0  0  0  0  0
  161.2530  207.4190  151.8010 C   0  0  0  0  0  0  0  0  0  0  0  0
  161.7120  207.5010  149.0580 C   0  0  0  0  0  0  0  0  0  0  0  0
  160.9860  207.4000  153.2650 C   0  0  0  0  0  2  0  0  0  0  0  0
  160.8730  208.8210  153.7900 C   0  0  0  0  0  2  0  0  0  0  0  0
  160.5000  208.8140  155.2640 C   0  0  2  0  0  3  0  0  0  0  0  0
  160.3910  210.1250  155.7270 O   0  0  0  0  0  1  0  0  0  0  0  0
  161.5280  208.0530  156.0950 C   0  0  0  0  0  2  0  0  0  0  0  0
  160.9030  207.3430  157.1230 O   0  0  0  0  0  0  0  0  0  0  0  0
  159.7550  206.9600  156.6090 O   0  0  0  0  0  1  0  0  0  0  0  0
  1  4  1  0  0  0  0
  1  2  2  0  0  0  0
  2 11  1  0  0  0  0
  3 13  2  0  0  0  0
  3  6  1  0  0  0  0
  4 16  1  0  0  0  0
  5 12  1  0  0  0  0
  6 18  2  0  0  0  0
  7  8  1  0  0  0  0
  7  4  2  0  0  0  0
  8  5  2  0  0  0  0
  9 15  2  0  0  0  0
 10  9  1  0  0  0  0
 11 17  2  0  0  0  0
 13  1  1  0  0  0  0
 14 13  1  0  0  0  0
 14  7  1  0  0  0  0
 15 17  1  0  0  0  0
 16 12  2  0  0  0  0
 17 19  1  0  0  0  0
 18  2  1  0  0  0  0
 18  9  1  0  0  0  0
 19 20  1  0  0  0  0
 20 21  1  0  0  0  0
 21 22  1  1  0  0  0
 21 23  1  0  0  0  0
 23 24  1  0  0  0  0
 25 24  1  0  0  0  0
M  END
>  <MODEL>
3

>  <REMARK>
 VINA RESULT:      -8.9      1.040      1.620
  Name = 
  5 active torsions:
  status: ('A' for Active; 'I' for Inactive)
    1  A    between atoms: C_2  and  O_7
    2  A    between atoms: C_2  and  C_21
    3  A    between atoms: C_6  and  C_15
    4  A    between atoms: C_6  and  C_23
    5  A    between atoms: C_15  and  C_21
                            x       y       z     vdW  Elec       q    Type
                         _______ _______ _______ _____ _____    ______ ____

>  <TORSDO>
F 5

$$$$
=
 OpenBabel11052422133D

 25 28  0  0  1  0  0  0  0  0999 V2000
  161.4620  207.5050  150.8940 C   0  0  0  0  0  0  0  0  0  0  0  0
  161.4250  206.4160  150.0050 C   0  0  0  0  0  0  0  0  0  0  0  0
  162.0120  208.9930  149.0570 C   0  0  0  0  0  3  0  0  0  0  0  0
  161.2370  207.5200  152.2840 C   0  0  0  0  0  0  0  0  0  0  0  0
  160.8600  207.9420  155.0210 C   0  0  0  0  0  3  0  0  0  0  0  0
  161.9750  207.9310  148.2040 N   0  0  0  0  0  0  0  0  0  0  0  0
  161.3590  208.7930  152.8360 C   0  0  0  0  0  0  0  0  0  0  0  0
  161.1770  209.0310  154.1960 C   0  0  0  0  0  3  0  0  0  0  0  0
  161.6650  205.5890  147.7290 C   0  0  0  0  0  0  0  0  0  0  0  0
  161.9430  205.7950  146.2800 C   0  0  0  0  0  1  0  0  0  0  0  0
  161.1390  205.1120  150.4220 C   0  0  0  0  0  3  0  0  0  0  0  0
  160.7320  206.6500  154.4800 C   0  0  0  0  0  3  0  0  0  0  0  0
  161.7540  208.7750  150.4050 C   0  0  0  0  0  0  0  0  0  0  0  0
  161.7430  209.9200  151.6430 S   0  0  0  0  0  0  0  0  0  0  0  0
  161.3840  204.3360  148.1760 N   0  0  0  0  0  0  0  0  0  0  0  0
  160.9210  206.4320  153.1060 C   0  0  0  0  0  3  0  0  0  0  0  0
  161.1170  204.0780  149.4860 C   0  0  0  0  0  0  0  0  0  0  0  0
  161.6930  206.6640  148.6340 C   0  0  0  0  0  0  0  0  0  0  0  0
  160.8370  202.6850  149.9250 C   0  0  0  0  0  2  0  0  0  0  0  0
  159.8930  202.0120  148.9440 C   0  0  0  0  0  2  0  0  0  0  0  0
  160.6420  200.9910  148.1020 C   0  0  2  0  0  3  0  0  0  0  0  0
  161.8250  200.6290  148.7460 O   0  0  0  0  0  1  0  0  0  0  0  0
  160.9510  201.5340  146.7110 C   0  0  0  0  0  2  0  0  0  0  0  0
  160.6060  200.6030  145.7290 O   0  0  0  0  0  0  0  0  0  0  0  0
  159.9180  201.2940  144.8470 O   0  0  0  0  0  1  0  0  0  0  0  0
  1  4  1  0  0  0  0
  2 11  1  0  0  0  0
  2  1  1  0  0  0  0
  3 13  1  0  0  0  0
  4  7  2  0  0  0  0
  4 16  1  0  0  0  0
  6 18  1  0  0  0  0
  6  3  2  0  0  0  0
  7  8  1  0  0  0  0
  8  5  2  0  0  0  0
  9 15  2  0  0  0  0
  9 18  1  0  0  0  0
 10  9  1  0  0  0  0
 12  5  1  0  0  0  0
 13  1  2  0  0  0  0
 13 14  1  0  0  0  0
 14  7  1  0  0  0  0
 15 17  1  0  0  0  0
 16 12  2  0  0  0  0
 17 19  1  0  0  0  0
 17 11  2  0  0  0  0
 18  2  2  0  0  0  0
 20 19  1  0  0  0  0
 21 22  1  1  0  0  0
 21 20  1  0  0  0  0
 23 21  1  0  0  0  0
 24 23  1  0  0  0  0
 25 24  1  0  0  0  0
M  END
>  <MODEL>
4

>  <REMARK>
 VINA RESULT:      -8.9      4.820      7.454
  Name = 
  5 active torsions:
  status: ('A' for Active; 'I' for Inactive)
    1  A    between atoms: C_2  and  O_7
    2  A    between atoms: C_2  and  C_21
    3  A    between atoms: C_6  and  C_15
    4  A    between atoms: C_6  and  C_23
    5  A    between atoms: C_15  and  C_21
                            x       y       z     vdW  Elec       q    Type
                         _______ _______ _______ _____ _____    ______ ____

>  <TORSDO>
F 5

$$$$
=
 OpenBabel11052422133D

 25 28  0  0  1  0  0  0  0  0999 V2000
  161.2050  206.3370  151.7240 C   0  0  0  0  0  0  0  0  0  0  0  0
  161.2770  205.6940  150.4760 C   0  0  0  0  0  0  0  0  0  0  0  0
  160.8130  204.2020  152.8080 C   0  0  0  0  0  3  0  0  0  0  0  0
  161.3370  207.7080  152.0220 C   0  0  0  0  0  0  0  0  0  0  0  0
  161.5400  210.3210  152.9940 C   0  0  0  0  0  3  0  0  0  0  0  0
  160.8830  203.5880  151.5940 N   0  0  0  0  0  0  0  0  0  0  0  0
  161.2070  207.9780  153.3830 C   0  0  0  0  0  0  0  0  0  0  0  0
  161.3030  209.2710  153.8930 C   0  0  0  0  0  3  0  0  0  0  0  0
  161.1720  203.6240  149.2020 C   0  0  0  0  0  0  0  0  0  0  0  0
  160.9960  202.1470  149.1080 C   0  0  0  0  0  1  0  0  0  0  0  0
  161.5050  206.3880  149.2830 C   0  0  0  0  0  3  0  0  0  0  0  0
  161.6740  210.0640  151.6170 C   0  0  0  0  0  3  0  0  0  0  0  0
  160.9750  205.5800  152.8700 C   0  0  0  0  0  0  0  0  0  0  0  0
  160.9290  206.5560  154.2430 S   0  0  0  0  0  0  0  0  0  0  0  0
  161.3940  204.3360  148.0640 N   0  0  0  0  0  0  0  0  0  0  0  0
  161.5730  208.7540  151.1230 C   0  0  0  0  0  3  0  0  0  0  0  0
  161.5660  205.6860  148.0790 C   0  0  0  0  0  0  0  0  0  0  0  0
  161.1080  204.2860  150.4390 C   0  0  0  0  0  0  0  0  0  0  0  0
  161.7850  206.4190  146.8030 C   0  0  0  0  0  2  0  0  0  0  0  0
  162.1440  205.4410  145.6970 C   0  0  0  0  0  2  0  0  0  0  0  0
  161.0090  205.3390  144.6900 C   0  0  2  0  0  3  0  0  0  0  0  0
  159.9920  206.2280  145.0380 O   0  0  0  0  0  1  0  0  0  0  0  0
  160.4560  203.9190  144.6160 C   0  0  0  0  0  2  0  0  0  0  0  0
  161.3030  203.0240  145.2740 O   0  0  0  0  0  0  0  0  0  0  0  0
  160.5570  201.9630  145.4900 O   0  0  0  0  0  1  0  0  0  0  0  0
  1  4  1  0  0  0  0
  1 13  2  0  0  0  0
  2  1  1  0  0  0  0
  3 13  1  0  0  0  0
  4  7  1  0  0  0  0
  5  8  1  0  0  0  0
  6  3  2  0  0  0  0
  7  8  2  0  0  0  0
  7 14  1  0  0  0  0
  9 18  2  0  0  0  0
 10  9  1  0  0  0  0
 11  2  2  0  0  0  0
 12  5  2  0  0  0  0
 13 14  1  0  0  0  0
 15 17  2  0  0  0  0
 15  9  1  0  0  0  0
 16 12  1  0  0  0  0
 16  4  2  0  0  0  0
 17 11  1  0  0  0  0
 18  2  1  0  0  0  0
 18  6  1  0  0  0  0
 19 17  1  0  0  0  0
 20 19  1  0  0  0  0
 21 22  1  1  0  0  0
 21 20  1  0  0  0  0
 23 21  1  0  0  0  0
 23 24  1  0  0  0  0
 24 25  1  0  0  0  0
M  END
>  <MODEL>
5

>  <REMARK>
 VINA RESULT:      -8.8      4.913      8.086
  Name = 
  5 active torsions:
  status: ('A' for Active; 'I' for Inactive)
    1  A    between atoms: C_2  and  O_7
    2  A    between atoms: C_2  and  C_21
    3  A    between atoms: C_6  and  C_15
    4  A    between atoms: C_6  and  C_23
    5  A    between atoms: C_15  and  C_21
                            x       y       z     vdW  Elec       q    Type
                         _______ _______ _______ _____ _____    ______ ____

>  <TORSDO>
F 5

$$$$
=
 OpenBabel11052422133D

 25 28  0  0  1  0  0  0  0  0999 V2000
  161.4350  205.0230  148.6770 C   0  0  0  0  0  0  0  0  0  0  0  0
  161.4960  206.1710  149.4870 C   0  0  0  0  0  0  0  0  0  0  0  0
  161.8980  206.3750  146.7150 C   0  0  0  0  0  3  0  0  0  0  0  0
  161.1880  203.6890  149.0530 C   0  0  0  0  0  0  0  0  0  0  0  0
  160.7360  200.9530  149.4090 C   0  0  0  0  0  3  0  0  0  0  0  0
  161.9530  207.4810  147.5080 N   0  0  0  0  0  0  0  0  0  0  0  0
  161.2050  202.8120  147.9690 C   0  0  0  0  0  0  0  0  0  0  0  0
  160.9830  201.4450  148.1190 C   0  0  0  0  0  3  0  0  0  0  0  0
  161.8230  208.5770  149.6500 C   0  0  0  0  0  0  0  0  0  0  0  0
  162.0950  209.9090  149.0420 C   0  0  0  0  0  1  0  0  0  0  0  0
  161.3030  206.1280  150.8710 C   0  0  0  0  0  3  0  0  0  0  0  0
  160.7160  201.8240  150.5140 C   0  0  0  0  0  3  0  0  0  0  0  0
  161.6380  205.1440  147.3050 C   0  0  0  0  0  0  0  0  0  0  0  0
  161.5200  203.6460  146.5400 S   0  0  0  0  0  0  0  0  0  0  0  0
  161.6280  208.4920  150.9940 N   0  0  0  0  0  0  0  0  0  0  0  0
  160.9420  203.1990  150.3400 C   0  0  0  0  0  3  0  0  0  0  0  0
  161.3790  207.3060  151.6140 C   0  0  0  0  0  0  0  0  0  0  0  0
  161.7620  207.4170  148.8600 C   0  0  0  0  0  0  0  0  0  0  0  0
  161.1520  207.2730  153.0840 C   0  0  0  0  0  2  0  0  0  0  0  0
  160.6160  208.6130  153.5570 C   0  0  0  0  0  2  0  0  0  0  0  0
  161.5000  209.1800  154.6560 C   0  0  2  0  0  3  0  0  0  0  0  0
  161.0090  208.7910  155.9020 O   0  0  0  0  0  1  0  0  0  0  0  0
  161.5770  210.7020  154.5790 C   0  0  0  0  0  2  0  0  0  0  0  0
  160.3880  211.2790  155.0290 O   0  0  0  0  0  0  0  0  0  0  0  0
  160.1000  212.1890  154.1240 O   0  0  0  0  0  1  0  0  0  0  0  0
  1  4  1  0  0  0  0
  1  2  2  0  0  0  0
  2 11  1  0  0  0  0
  3 13  2  0  0  0  0
  3  6  1  0  0  0  0
  4 16  1  0  0  0  0
  5 12  1  0  0  0  0
  6 18  2  0  0  0  0
  7  8  1  0  0  0  0
  7  4  2  0  0  0  0
  8  5  2  0  0  0  0
  9 15  2  0  0  0  0
 10  9  1  0  0  0  0
 11 17  2  0  0  0  0
 13  1  1  0  0  0  0
 14 13  1  0  0  0  0
 14  7  1  0  0  0  0
 15 17  1  0  0  0  0
 16 12  2  0  0  0  0
 17 19  1  0  0  0  0
 18  2  1  0  0  0  0
 18  9  1  0  0  0  0
 19 20  1  0  0  0  0
 20 21  1  0  0  0  0
 21 22  1  1  0  0  0
 23 21  1  0  0  0  0
 23 24  1  0  0  0  0
 25 24  1  0  0  0  0
M  END
>  <MODEL>
6

>  <REMARK>
 VINA RESULT:      -8.6      1.353      1.486
  Name = 
  5 active torsions:
  status: ('A' for Active; 'I' for Inactive)
    1  A    between atoms: C_2  and  O_7
    2  A    between atoms: C_2  and  C_21
    3  A    between atoms: C_6  and  C_15
    4  A    between atoms: C_6  and  C_23
    5  A    between atoms: C_15  and  C_21
                            x       y       z     vdW  Elec       q    Type
                         _______ _______ _______ _____ _____    ______ ____

>  <TORSDO>
F 5

$$$$
=
 OpenBabel11052422133D

 25 28  0  0  1  0  0  0  0  0999 V2000
  161.3520  205.2680  149.6400 C   0  0  0  0  0  0  0  0  0  0  0  0
  161.3950  206.3720  150.5100 C   0  0  0  0  0  0  0  0  0  0  0  0
  160.8640  203.8030  151.5120 C   0  0  0  0  0  3  0  0  0  0  0  0
  161.5470  205.2350  148.2450 C   0  0  0  0  0  0  0  0  0  0  0  0
  161.8680  204.7730  145.5070 C   0  0  0  0  0  3  0  0  0  0  0  0
  160.9090  204.8780  152.3470 N   0  0  0  0  0  0  0  0  0  0  0  0
  161.4270  203.9510  147.7160 C   0  0  0  0  0  0  0  0  0  0  0  0
  161.5830  203.6930  146.3560 C   0  0  0  0  0  3  0  0  0  0  0  0
  161.2060  207.2300  152.7790 C   0  0  0  0  0  0  0  0  0  0  0  0
  160.9750  207.0430  154.2390 C   0  0  0  0  0  1  0  0  0  0  0  0
  161.6550  207.6720  150.0660 C   0  0  0  0  0  3  0  0  0  0  0  0
  161.9900  206.0750  146.0250 C   0  0  0  0  0  3  0  0  0  0  0  0
  161.0870  204.0030  150.1550 C   0  0  0  0  0  0  0  0  0  0  0  0
  161.0850  202.8390  148.9350 S   0  0  0  0  0  0  0  0  0  0  0  0
  161.4630  208.4800  152.3070 N   0  0  0  0  0  0  0  0  0  0  0  0
  161.8310  206.3130  147.3990 C   0  0  0  0  0  3  0  0  0  0  0  0
  161.6800  208.7220  150.9850 C   0  0  0  0  0  0  0  0  0  0  0  0
  161.1640  206.1420  151.8910 C   0  0  0  0  0  0  0  0  0  0  0  0
  161.9790  210.1050  150.5240 C   0  0  0  0  0  2  0  0  0  0  0  0
  162.1020  210.1320  149.0110 C   0  0  0  0  0  2  0  0  0  0  0  0
  161.8130  211.5270  148.4800 C   0  0  2  0  0  3  0  0  0  0  0  0
  160.8320  211.4580  147.4900 O   0  0  0  0  0  1  0  0  0  0  0  0
  163.0710  212.1820  147.9200 C   0  0  0  0  0  2  0  0  0  0  0  0
  162.7420  213.2760  147.1160 O   0  0  0  0  0  0  0  0  0  0  0  0
  162.9510  214.3240  147.8840 O   0  0  0  0  0  1  0  0  0  0  0  0
  1 13  1  0  0  0  0
  1  2  2  0  0  0  0
  2 18  1  0  0  0  0
  3  6  1  0  0  0  0
  4  1  1  0  0  0  0
  5 12  2  0  0  0  0
  5  8  1  0  0  0  0
  7  4  1  0  0  0  0
  7 14  1  0  0  0  0
  8  7  2  0  0  0  0
  9 10  1  0  0  0  0
 11  2  1  0  0  0  0
 11 17  2  0  0  0  0
 12 16  1  0  0  0  0
 13  3  2  0  0  0  0
 14 13  1  0  0  0  0
 15  9  2  0  0  0  0
 16  4  2  0  0  0  0
 17 15  1  0  0  0  0
 18  6  2  0  0  0  0
 18  9  1  0  0  0  0
 19 17  1  0  0  0  0
 20 19  1  0  0  0  0
 21 22  1  6  0  0  0
 21 20  1  0  0  0  0
 23 21  1  0  0  0  0
 24 25  1  0  0  0  0
 24 23  1  0  0  0  0
M  END
>  <MODEL>
7

>  <REMARK>
 VINA RESULT:      -8.6      3.529      5.310
  Name = 
  5 active torsions:
  status: ('A' for Active; 'I' for Inactive)
    1  A    between atoms: C_2  and  O_7
    2  A    between atoms: C_2  and  C_21
    3  A    between atoms: C_6  and  C_15
    4  A    between atoms: C_6  and  C_23
    5  A    between atoms: C_15  and  C_21
                            x       y       z     vdW  Elec       q    Type
                         _______ _______ _______ _____ _____    ______ ____

>  <TORSDO>
F 5

$$$$
=
 OpenBabel11052422133D

 25 28  0  0  1  0  0  0  0  0999 V2000
  161.2560  204.4820  149.4500 C   0  0  0  0  0  0  0  0  0  0  0  0
  161.3480  205.5430  150.3690 C   0  0  0  0  0  0  0  0  0  0  0  0
  160.8660  202.9280  151.2730 C   0  0  0  0  0  3  0  0  0  0  0  0
  161.3750  204.5150  148.0470 C   0  0  0  0  0  0  0  0  0  0  0  0
  161.5470  204.1860  145.2770 C   0  0  0  0  0  3  0  0  0  0  0  0
  160.9580  203.9620  152.1550 N   0  0  0  0  0  0  0  0  0  0  0  0
  161.2240  203.2580  147.4640 C   0  0  0  0  0  0  0  0  0  0  0  0
  161.3060  203.0660  146.0870 C   0  0  0  0  0  3  0  0  0  0  0  0
  161.2840  206.2910  152.6830 C   0  0  0  0  0  0  0  0  0  0  0  0
  161.1320  206.0330  154.1430 C   0  0  0  0  0  1  0  0  0  0  0  0
  161.5870  206.8630  149.9750 C   0  0  0  0  0  3  0  0  0  0  0  0
  161.7010  205.4620  145.8490 C   0  0  0  0  0  3  0  0  0  0  0  0
  161.0160  203.1930  149.9180 C   0  0  0  0  0  0  0  0  0  0  0  0
  160.9460  202.0890  148.6450 S   0  0  0  0  0  0  0  0  0  0  0  0
  161.5190  207.5610  152.2590 N   0  0  0  0  0  0  0  0  0  0  0  0
  161.6160  205.6330  147.2400 C   0  0  0  0  0  3  0  0  0  0  0  0
  161.6640  207.8670  150.9400 C   0  0  0  0  0  0  0  0  0  0  0  0
  161.1920  205.2460  151.7480 C   0  0  0  0  0  0  0  0  0  0  0  0
  161.9410  209.2700  150.5310 C   0  0  0  0  0  2  0  0  0  0  0  0
  162.1710  210.1330  151.7590 C   0  0  0  0  0  2  0  0  0  0  0  0
  160.8560  210.7100  152.2570 C   0  0  2  0  0  3  0  0  0  0  0  0
  160.5210  211.8340  151.5020 O   0  0  0  0  0  1  0  0  0  0  0  0
  160.9320  211.0790  153.7350 C   0  0  0  0  0  2  0  0  0  0  0  0
  161.8870  210.2990  154.3900 O   0  0  0  0  0  0  0  0  0  0  0  0
  161.2120  209.6700  155.3280 O   0  0  0  0  0  1  0  0  0  0  0  0
  1 13  1  0  0  0  0
  1  2  2  0  0  0  0
  2 18  1  0  0  0  0
  3  6  1  0  0  0  0
  4  1  1  0  0  0  0
  5 12  2  0  0  0  0
  5  8  1  0  0  0  0
  7  4  1  0  0  0  0
  7 14  1  0  0  0  0
  8  7  2  0  0  0  0
  9 10  1  0  0  0  0
 11  2  1  0  0  0  0
 11 17  2  0  0  0  0
 12 16  1  0  0  0  0
 13  3  2  0  0  0  0
 14 13  1  0  0  0  0
 15  9  2  0  0  0  0
 16  4  2  0  0  0  0
 17 15  1  0  0  0  0
 18  6  2  0  0  0  0
 18  9  1  0  0  0  0
 19 17  1  0  0  0  0
 19 20  1  0  0  0  0
 20 21  1  0  0  0  0
 21 22  1  6  0  0  0
 21 23  1  0  0  0  0
 23 24  1  0  0  0  0
 24 25  1  0  0  0  0
M  END
>  <MODEL>
8

>  <REMARK>
 VINA RESULT:      -8.4      1.943      3.761
  Name = 
  5 active torsions:
  status: ('A' for Active; 'I' for Inactive)
    1  A    between atoms: C_2  and  O_7
    2  A    between atoms: C_2  and  C_21
    3  A    between atoms: C_6  and  C_15
    4  A    between atoms: C_6  and  C_23
    5  A    between atoms: C_15  and  C_21
                            x       y       z     vdW  Elec       q    Type
                         _______ _______ _______ _____ _____    ______ ____

>  <TORSDO>
F 5

$$$$
=
 OpenBabel11052422133D

 25 28  0  0  1  0  0  0  0  0999 V2000
  161.2230  208.4420  152.6240 C   0  0  0  0  0  0  0  0  0  0  0  0
  161.3330  207.5440  151.5470 C   0  0  0  0  0  0  0  0  0  0  0  0
  161.9550  210.2580  151.1900 C   0  0  0  0  0  3  0  0  0  0  0  0
  160.8230  208.1870  153.9500 C   0  0  0  0  0  0  0  0  0  0  0  0
  160.0900  208.0740  156.6450 C   0  0  0  0  0  3  0  0  0  0  0  0
  162.0600  209.3800  150.1550 N   0  0  0  0  0  0  0  0  0  0  0  0
  160.8350  209.3320  154.7450 C   0  0  0  0  0  0  0  0  0  0  0  0
  160.4750  209.3030  156.0900 C   0  0  0  0  0  3  0  0  0  0  0  0
  161.8840  207.1720  149.2070 C   0  0  0  0  0  0  0  0  0  0  0  0
  162.3370  207.6540  147.8720 C   0  0  0  0  0  1  0  0  0  0  0  0
  161.0370  206.1820  151.6680 C   0  0  0  0  0  3  0  0  0  0  0  0
  160.0720  206.9090  155.8560 C   0  0  0  0  0  3  0  0  0  0  0  0
  161.5350  209.7840  152.4270 C   0  0  0  0  0  0  0  0  0  0  0  0
  161.3320  210.6690  153.8480 S   0  0  0  0  0  0  0  0  0  0  0  0
  161.5870  205.8540  149.3670 N   0  0  0  0  0  0  0  0  0  0  0  0
  160.4400  206.9600  154.5020 C   0  0  0  0  0  3  0  0  0  0  0  0
  161.1650  205.3480  150.5580 C   0  0  0  0  0  0  0  0  0  0  0  0
  161.7640  208.0530  150.2950 C   0  0  0  0  0  0  0  0  0  0  0  0
  160.8750  203.8940  150.6840 C   0  0  0  0  0  2  0  0  0  0  0  0
  160.8350  203.2520  149.3090 C   0  0  0  0  0  2  0  0  0  0  0  0
  160.5070  201.7710  149.4230 C   0  0  2  0  0  3  0  0  0  0  0  0
  160.7480  201.3370  150.7270 O   0  0  0  0  0  1  0  0  0  0  0  0
  161.3240  200.9410  148.4390 C   0  0  0  0  0  2  0  0  0  0  0  0
  161.0680  201.3400  147.1250 O   0  0  0  0  0  0  0  0  0  0  0  0
  161.2230  200.2460  146.4120 O   0  0  0  0  0  1  0  0  0  0  0  0
  1  4  1  0  0  0  0
  2 11  1  0  0  0  0
  2  1  1  0  0  0  0
  3 13  1  0  0  0  0
  4 16  2  0  0  0  0
  4  7  1  0  0  0  0
  6 18  1  0  0  0  0
  6  3  2  0  0  0  0
  7  8  2  0  0  0  0
  8  5  1  0  0  0  0
  9 15  2  0  0  0  0
  9 18  1  0  0  0  0
 10  9  1  0  0  0  0
 12  5  2  0  0  0  0
 13  1  2  0  0  0  0
 13 14  1  0  0  0  0
 14  7  1  0  0  0  0
 15 17  1  0  0  0  0
 16 12  1  0  0  0  0
 17 19  1  0  0  0  0
 17 11  2  0  0  0  0
 18  2  2  0  0  0  0
 20 21  1  0  0  0  0
 20 19  1  0  0  0  0
 21 22  1  1  0  0  0
 23 21  1  0  0  0  0
 24 23  1  0  0  0  0
 25 24  1  0  0  0  0
M  END
>  <MODEL>
9

>  <REMARK>
 VINA RESULT:      -8.3      4.512      7.361
  Name = 
  5 active torsions:
  status: ('A' for Active; 'I' for Inactive)
    1  A    between atoms: C_2  and  O_7
    2  A    between atoms: C_2  and  C_21
    3  A    between atoms: C_6  and  C_15
    4  A    between atoms: C_6  and  C_23
    5  A    between atoms: C_15  and  C_21
                            x       y       z     vdW  Elec       q    Type
                         _______ _______ _______ _____ _____    ______ ____

>  <TORSDO>
F 5

$$$$
