=
 OpenBabel11062410223D

 43 46  0  0  1  0  0  0  0  0999 V2000
  161.0910  207.7840  151.8520 N   0  0  0  0  0  0  0  0  0  0  0  0
  163.2020  210.2890  152.1920 C   0  0  0  0  0  1  0  0  0  0  0  0
  160.6170  211.7890  151.2640 N   0  0  0  0  0  0  0  0  0  0  0  0
  161.0570  209.0730  151.8580 C   0  0  0  0  0  0  0  0  0  0  0  0
  158.5710  213.2350  152.5570 C   0  0  0  0  0  0  0  0  0  0  0  0
  158.8260  211.9870  152.9990 C   0  0  0  0  0  0  0  0  0  0  0  0
  157.4330  214.0430  153.0890 C   0  0  0  0  0  1  0  0  0  0  0  0
  159.8810  209.7540  152.4770 C   0  0  0  0  0  2  0  0  0  0  0  0
  160.0850  211.2640  152.5430 C   0  0  1  0  0  3  0  0  0  0  0  0
  160.3570  213.1540  150.9020 C   0  0  0  0  0  3  0  0  0  0  0  0
  161.6060  211.1000  150.5150 N   0  0  0  0  0  0  0  0  0  0  0  0
  162.1330  209.8990  151.1890 C   0  0  1  0  0  3  0  0  0  0  0  0
  159.4010  213.8480  151.5080 C   0  0  0  0  0  3  0  0  0  0  0  0
  161.1200  210.7840  149.1600 C   0  0  0  0  0  2  0  0  0  0  0  0
  161.1170  213.0410  146.1000 C   0  0  0  0  0  3  0  0  0  0  0  0
  162.4300  213.5210  146.1060 C   0  0  0  0  0  0  0  0  0  0  0  0
  162.8760  212.2520  148.1250 C   0  0  0  0  0  3  0  0  0  0  0  0
  160.6880  212.1590  147.0960 C   0  0  0  0  0  3  0  0  0  0  0  0
  161.5720  211.7460  148.1010 C   0  0  0  0  0  0  0  0  0  0  0  0
  163.3040  213.1320  147.1330 C   0  0  0  0  0  3  0  0  0  0  0  0
  162.8400  214.3780  145.0850 O   0  0  0  0  0  0  0  0  0  0  0  0
  163.4420  213.9110  143.8850 C   0  0  0  0  0  1  0  0  0  0  0  0
  157.9860  211.3850  154.0960 C   0  0  0  0  0  2  0  0  0  0  0  0
  158.5990  211.6240  155.4720 C   0  0  0  0  0  2  0  0  0  0  0  0
  159.2110  210.3570  156.0560 C   0  0  0  0  0  2  0  0  0  0  0  0
  160.6190  210.6310  156.5510 C   0  0  0  0  0  1  0  0  0  0  0  0
  162.1480  207.0360  151.2100 C   0  0  0  0  0  2  0  0  0  0  0  0
  161.8520  205.5440  151.2390 C   0  0  1  0  0  3  0  0  0  0  0  0
  161.1710  205.1710  152.5440 C   0  0  0  0  0  1  0  0  0  0  0  0
  160.9560  205.2270  150.1290 N   0  0  0  0  0  2  0  0  0  0  0  0
  161.3220  203.9600  149.4850 C   0  0  1  0  0  3  0  0  0  0  0  0
  161.1690  201.5600  149.9790 C   0  0  0  0  0  2  0  0  0  0  0  0
  160.7170  202.2850  151.1000 O   0  0  0  0  0  0  0  0  0  0  0  0
  160.3790  202.8070  149.8360 C   0  0  1  0  0  3  0  0  0  0  0  0
  161.5360  204.1350  147.7110 S   0  0  0  0  0  0  0  0  0  0  0  0
  163.0020  204.2220  147.3760 O   0  0  0  0  0  0  0  0  0  0  0  0
  160.9400  202.9420  147.0170 O   0  0  0  0  0  0  0  0  0  0  0  0
  160.7100  205.6060  147.1270 C   0  0  2  0  0  3  0  0  0  0  0  0
  160.5850  206.1410  144.9820 C   0  0  0  0  0  1  0  0  0  0  0  0
  160.0050  205.3240  145.9550 O   0  0  0  0  0  0  0  0  0  0  0  0
  161.7360  206.7100  146.8790 C   0  0  0  0  0  2  0  0  0  0  0  0
  161.7100  207.7460  147.9970 C   0  0  0  0  0  2  0  0  0  0  0  0
  163.0010  208.2210  148.2290 O   0  0  0  0  0  1  0  0  0  0  0  0
  1  4  2  0  0  0  0
  3  9  1  0  0  0  0
  4  8  1  0  0  0  0
  5  6  2  0  0  0  0
  5  7  1  0  0  0  0
  6 23  1  0  0  0  0
  9  8  1  6  0  0  0
  9  6  1  0  0  0  0
 10  3  1  0  0  0  0
 10 13  2  0  0  0  0
 11 12  1  0  0  0  0
 11  3  1  0  0  0  0
 12  4  1  0  0  0  0
 12  2  1  1  0  0  0
 13  5  1  0  0  0  0
 14 11  1  0  0  0  0
 15 16  2  0  0  0  0
 15 18  1  0  0  0  0
 16 20  1  0  0  0  0
 18 19  2  0  0  0  0
 19 17  1  0  0  0  0
 19 14  1  0  0  0  0
 20 17  2  0  0  0  0
 21 16  1  0  0  0  0
 22 21  1  0  0  0  0
 23 24  1  0  0  0  0
 24 25  1  0  0  0  0
 25 26  1  0  0  0  0
 27 28  1  0  0  0  0
 27  1  1  0  0  0  0
 28 29  1  1  0  0  0
 30 28  1  0  0  0  0
 31 30  1  6  0  0  0
 32 33  1  0  0  0  0
 34 31  1  6  0  0  0
 34 32  1  0  0  0  0
 34 33  1  0  0  0  0
 35 31  1  0  0  0  0
 36 35  2  0  0  0  0
 37 35  2  0  0  0  0
 38 41  1  6  0  0  0
 38 35  1  0  0  0  0
 39 40  1  0  0  0  0
 40 38  1  0  0  0  0
 41 42  1  0  0  0  0
 42 43  1  0  0  0  0
M  END
>  <MODEL>
1

>  <REMARK>
 VINA RESULT:      -4.6      0.000      0.000
  Name = 
  16 active torsions:
  status: ('A' for Active; 'I' for Inactive)
    1  A    between atoms: C_1  and  N_34
    2  A    between atoms: C_1  and  C_35
    3  A    between atoms: N_2  and  C_6
    4  A    between atoms: N_3  and  C_4
    5  A    between atoms: N_3  and  C_12
    6  A    between atoms: C_4  and  S_14
    7  A    between atoms: C_4  and  C_42
    8  A    between atoms: C_5  and  C_18
    9  A    between atoms: C_6  and  C_12
   10  A    between atoms: C_11  and  S_14
   11  A    between atoms: C_11  and  O_36
   12  A    between atoms: C_11  and  C_40
   13  A    between atoms: C_18  and  C_24
   14  A    between atoms: C_19  and  O_25
   15  A    between atoms: C_21  and  C_24
   16  A    between atoms: C_26  and  C_40
                            x       y       z     vdW  Elec       q    Type
                         _______ _______ _______ _____ _____    ______ ____

>  <TORSDO>
F 16

$$$$
=
 OpenBabel11062410223D

 43 46  0  0  1  0  0  0  0  0999 V2000
  160.6080  208.0840  153.4260 N   0  0  0  0  0  0  0  0  0  0  0  0
  162.6690  210.6400  153.6880 C   0  0  0  0  0  1  0  0  0  0  0  0
  160.4250  211.8460  151.8690 N   0  0  0  0  0  0  0  0  0  0  0  0
  160.6190  209.3410  153.1370 C   0  0  0  0  0  0  0  0  0  0  0  0
  158.1870  213.5060  152.2890 C   0  0  0  0  0  0  0  0  0  0  0  0
  158.2870  212.3940  153.0440 C   0  0  0  0  0  0  0  0  0  0  0  0
  156.9850  214.3910  152.3450 C   0  0  0  0  0  1  0  0  0  0  0  0
  159.3550  210.1210  153.2940 C   0  0  0  0  0  2  0  0  0  0  0  0
  159.5920  211.6110  153.0700 C   0  0  1  0  0  3  0  0  0  0  0  0
  160.3060  213.0900  151.1620 C   0  0  0  0  0  3  0  0  0  0  0  0
  161.5380  211.0250  151.5460 N   0  0  0  0  0  0  0  0  0  0  0  0
  161.8500  210.0160  152.5740 C   0  0  1  0  0  3  0  0  0  0  0  0
  159.2590  213.8850  151.3560 C   0  0  0  0  0  3  0  0  0  0  0  0
  161.3710  210.4040  150.2190 C   0  0  0  0  0  2  0  0  0  0  0  0
  161.0970  212.5530  147.0940 C   0  0  0  0  0  3  0  0  0  0  0  0
  162.4270  212.9390  146.9030 C   0  0  0  0  0  0  0  0  0  0  0  0
  163.0610  211.7100  148.8970 C   0  0  0  0  0  3  0  0  0  0  0  0
  160.7510  211.7370  148.1750 C   0  0  0  0  0  3  0  0  0  0  0  0
  161.7360  211.2970  149.0690 C   0  0  0  0  0  0  0  0  0  0  0  0
  163.4060  212.5230  147.8190 C   0  0  0  0  0  3  0  0  0  0  0  0
  162.7480  213.7300  145.8010 O   0  0  0  0  0  0  0  0  0  0  0  0
  162.3370  213.4100  144.4790 C   0  0  0  0  0  1  0  0  0  0  0  0
  157.1930  212.0370  154.0180 C   0  0  0  0  0  2  0  0  0  0  0  0
  157.6520  212.1950  155.4650 C   0  0  0  0  0  2  0  0  0  0  0  0
  157.7340  213.6570  155.8840 C   0  0  0  0  0  2  0  0  0  0  0  0
  159.1760  214.0490  156.1490 C   0  0  0  0  0  1  0  0  0  0  0  0
  161.7580  207.2310  153.2330 C   0  0  0  0  0  2  0  0  0  0  0  0
  161.9850  206.9490  151.7560 C   0  0  1  0  0  3  0  0  0  0  0  0
  163.2070  206.0660  151.5730 C   0  0  0  0  0  1  0  0  0  0  0  0
  160.8140  206.2510  151.2310 N   0  0  0  0  0  2  0  0  0  0  0  0
  161.1910  205.0340  150.5030 C   0  0  1  0  0  3  0  0  0  0  0  0
  161.5760  202.8870  151.6280 C   0  0  0  0  0  2  0  0  0  0  0  0
  160.7490  203.6850  152.4430 O   0  0  0  0  0  0  0  0  0  0  0  0
  160.5310  203.7680  151.0540 C   0  0  1  0  0  3  0  0  0  0  0  0
  160.9520  205.1990  148.7310 S   0  0  0  0  0  0  0  0  0  0  0  0
  160.5800  203.8660  148.1360 O   0  0  0  0  0  0  0  0  0  0  0  0
  159.8470  206.1830  148.4660 O   0  0  0  0  0  0  0  0  0  0  0  0
  162.4450  205.7950  147.9550 C   0  0  2  0  0  3  0  0  0  0  0  0
  162.2410  207.9970  147.8360 C   0  0  0  0  0  1  0  0  0  0  0  0
  162.8600  206.9800  148.5650 O   0  0  0  0  0  0  0  0  0  0  0  0
  162.1960  206.0220  146.4650 C   0  0  0  0  0  2  0  0  0  0  0  0
  162.5650  204.7880  145.6510 C   0  0  0  0  0  2  0  0  0  0  0  0
  161.6480  204.6160  144.6130 O   0  0  0  0  0  1  0  0  0  0  0  0
  3  9  1  0  0  0  0
  4  8  1  0  0  0  0
  4  1  2  0  0  0  0
  5  7  1  0  0  0  0
  5  6  2  0  0  0  0
  6  9  1  0  0  0  0
  6 23  1  0  0  0  0
  9  8  1  6  0  0  0
 10 13  2  0  0  0  0
 10  3  1  0  0  0  0
 11  3  1  0  0  0  0
 11 12  1  0  0  0  0
 12  4  1  0  0  0  0
 12  2  1  1  0  0  0
 13  5  1  0  0  0  0
 14 11  1  0  0  0  0
 15 18  1  0  0  0  0
 16 15  2  0  0  0  0
 16 20  1  0  0  0  0
 17 19  1  0  0  0  0
 18 19  2  0  0  0  0
 19 14  1  0  0  0  0
 20 17  2  0  0  0  0
 21 16  1  0  0  0  0
 22 21  1  0  0  0  0
 23 24  1  0  0  0  0
 24 25  1  0  0  0  0
 25 26  1  0  0  0  0
 27  1  1  0  0  0  0
 28 29  1  1  0  0  0
 28 27  1  0  0  0  0
 30 28  1  0  0  0  0
 31 30  1  1  0  0  0
 32 33  1  0  0  0  0
 34 31  1  6  0  0  0
 34 32  1  0  0  0  0
 34 33  1  0  0  0  0
 35 31  1  0  0  0  0
 36 35  2  0  0  0  0
 37 35  2  0  0  0  0
 38 41  1  6  0  0  0
 38 40  1  0  0  0  0
 38 35  1  0  0  0  0
 39 40  1  0  0  0  0
 42 41  1  0  0  0  0
 43 42  1  0  0  0  0
M  END
>  <MODEL>
2

>  <REMARK>
 VINA RESULT:      -3.8      1.448      2.071
  Name = 
  16 active torsions:
  status: ('A' for Active; 'I' for Inactive)
    1  A    between atoms: C_1  and  N_34
    2  A    between atoms: C_1  and  C_35
    3  A    between atoms: N_2  and  C_6
    4  A    between atoms: N_3  and  C_4
    5  A    between atoms: N_3  and  C_12
    6  A    between atoms: C_4  and  S_14
    7  A    between atoms: C_4  and  C_42
    8  A    between atoms: C_5  and  C_18
    9  A    between atoms: C_6  and  C_12
   10  A    between atoms: C_11  and  S_14
   11  A    between atoms: C_11  and  O_36
   12  A    between atoms: C_11  and  C_40
   13  A    between atoms: C_18  and  C_24
   14  A    between atoms: C_19  and  O_25
   15  A    between atoms: C_21  and  C_24
   16  A    between atoms: C_26  and  C_40
                            x       y       z     vdW  Elec       q    Type
                         _______ _______ _______ _____ _____    ______ ____

>  <TORSDO>
F 16

$$$$
=
 OpenBabel11062410223D

 43 46  0  0  1  0  0  0  0  0999 V2000
  160.5060  208.1490  154.0370 N   0  0  0  0  0  0  0  0  0  0  0  0
  162.6120  210.6730  154.2400 C   0  0  0  0  0  1  0  0  0  0  0  0
  159.9180  212.1660  153.6800 N   0  0  0  0  0  0  0  0  0  0  0  0
  160.4570  209.4360  154.1030 C   0  0  0  0  0  0  0  0  0  0  0  0
  158.0180  213.5220  155.2600 C   0  0  0  0  0  0  0  0  0  0  0  0
  158.3370  212.2610  155.6160 C   0  0  0  0  0  0  0  0  0  0  0  0
  156.9390  214.2870  155.9530 C   0  0  0  0  0  1  0  0  0  0  0  0
  159.3520  210.0700  154.8810 C   0  0  0  0  0  2  0  0  0  0  0  0
  159.5440  211.5790  154.9880 C   0  0  1  0  0  3  0  0  0  0  0  0
  159.6020  213.5400  153.4100 C   0  0  0  0  0  3  0  0  0  0  0  0
  160.8230  211.5250  152.7940 N   0  0  0  0  0  0  0  0  0  0  0  0
  161.4390  210.3070  153.3510 C   0  0  1  0  0  3  0  0  0  0  0  0
  158.7130  214.1920  154.1500 C   0  0  0  0  0  3  0  0  0  0  0  0
  160.1880  211.2570  151.4910 C   0  0  0  0  0  2  0  0  0  0  0  0
  162.5690  211.9920  148.6190 C   0  0  0  0  0  3  0  0  0  0  0  0
  162.1000  213.2330  148.1780 C   0  0  0  0  0  0  0  0  0  0  0  0
  160.3590  213.1650  149.8670 C   0  0  0  0  0  3  0  0  0  0  0  0
  161.9440  211.3450  149.6890 C   0  0  0  0  0  3  0  0  0  0  0  0
  160.8490  211.9400  150.3290 C   0  0  0  0  0  0  0  0  0  0  0  0
  160.9820  213.8100  148.8000 C   0  0  0  0  0  3  0  0  0  0  0  0
  162.7600  213.8680  147.1270 O   0  0  0  0  0  0  0  0  0  0  0  0
  162.0710  214.4530  146.0290 C   0  0  0  0  0  1  0  0  0  0  0  0
  157.6360  211.6000  156.7750 C   0  0  0  0  0  2  0  0  0  0  0  0
  156.1190  211.6340  156.6100 C   0  0  0  0  0  2  0  0  0  0  0  0
  155.5750  210.3320  156.0370 C   0  0  0  0  0  2  0  0  0  0  0  0
  155.2890  210.4870  154.5550 C   0  0  0  0  0  1  0  0  0  0  0  0
  161.4910  207.4460  153.2480 C   0  0  0  0  0  2  0  0  0  0  0  0
  161.3530  207.7930  151.7730 C   0  0  1  0  0  3  0  0  0  0  0  0
  162.7160  207.7780  151.1020 C   0  0  0  0  0  1  0  0  0  0  0  0
  160.5020  206.7910  151.1370 N   0  0  0  0  0  2  0  0  0  0  0  0
  161.2950  205.7320  150.5030 C   0  0  1  0  0  3  0  0  0  0  0  0
  162.0330  203.7580  151.7620 C   0  0  0  0  0  2  0  0  0  0  0  0
  160.8810  204.2870  152.3800 O   0  0  0  0  0  0  0  0  0  0  0  0
  160.9130  204.3260  150.9720 C   0  0  1  0  0  3  0  0  0  0  0  0
  161.3000  205.8630  148.7130 S   0  0  0  0  0  0  0  0  0  0  0  0
  159.9170  206.1980  148.2170 O   0  0  0  0  0  0  0  0  0  0  0  0
  162.2510  206.9500  148.2950 O   0  0  0  0  0  0  0  0  0  0  0  0
  161.8320  204.3260  147.9780 C   0  0  2  0  0  3  0  0  0  0  0  0
  161.9240  203.6580  145.8680 C   0  0  0  0  0  1  0  0  0  0  0  0
  162.4780  204.5740  146.7650 O   0  0  0  0  0  0  0  0  0  0  0  0
  160.6270  203.4120  147.7620 C   0  0  0  0  0  2  0  0  0  0  0  0
  160.7590  202.1270  148.5690 C   0  0  0  0  0  2  0  0  0  0  0  0
  161.3590  201.1390  147.7890 O   0  0  0  0  0  1  0  0  0  0  0  0
  1  4  2  0  0  0  0
  3  9  1  0  0  0  0
  4  8  1  0  0  0  0
  5  6  2  0  0  0  0
  5  7  1  0  0  0  0
  6 23  1  0  0  0  0
  9  8  1  6  0  0  0
  9  6  1  0  0  0  0
 10  3  1  0  0  0  0
 10 13  2  0  0  0  0
 11 12  1  0  0  0  0
 11  3  1  0  0  0  0
 12  4  1  0  0  0  0
 12  2  1  1  0  0  0
 13  5  1  0  0  0  0
 14 11  1  0  0  0  0
 15 18  1  0  0  0  0
 16 15  2  0  0  0  0
 16 20  1  0  0  0  0
 17 19  1  0  0  0  0
 18 19  2  0  0  0  0
 19 14  1  0  0  0  0
 20 17  2  0  0  0  0
 21 16  1  0  0  0  0
 22 21  1  0  0  0  0
 24 23  1  0  0  0  0
 25 24  1  0  0  0  0
 26 25  1  0  0  0  0
 27  1  1  0  0  0  0
 28 29  1  6  0  0  0
 28 27  1  0  0  0  0
 30 28  1  0  0  0  0
 31 30  1  1  0  0  0
 32 33  1  0  0  0  0
 34 31  1  1  0  0  0
 34 32  1  0  0  0  0
 34 33  1  0  0  0  0
 35 31  1  0  0  0  0
 36 35  2  0  0  0  0
 37 35  2  0  0  0  0
 38 41  1  6  0  0  0
 38 35  1  0  0  0  0
 39 40  1  0  0  0  0
 40 38  1  0  0  0  0
 41 42  1  0  0  0  0
 43 42  1  0  0  0  0
M  END
>  <MODEL>
3

>  <REMARK>
 VINA RESULT:      -3.5      1.845      3.099
  Name = 
  16 active torsions:
  status: ('A' for Active; 'I' for Inactive)
    1  A    between atoms: C_1  and  N_34
    2  A    between atoms: C_1  and  C_35
    3  A    between atoms: N_2  and  C_6
    4  A    between atoms: N_3  and  C_4
    5  A    between atoms: N_3  and  C_12
    6  A    between atoms: C_4  and  S_14
    7  A    between atoms: C_4  and  C_42
    8  A    between atoms: C_5  and  C_18
    9  A    between atoms: C_6  and  C_12
   10  A    between atoms: C_11  and  S_14
   11  A    between atoms: C_11  and  O_36
   12  A    between atoms: C_11  and  C_40
   13  A    between atoms: C_18  and  C_24
   14  A    between atoms: C_19  and  O_25
   15  A    between atoms: C_21  and  C_24
   16  A    between atoms: C_26  and  C_40
                            x       y       z     vdW  Elec       q    Type
                         _______ _______ _______ _____ _____    ______ ____

>  <TORSDO>
F 16

$$$$
=
 OpenBabel11062410223D

 43 46  0  0  1  0  0  0  0  0999 V2000
  161.5090  207.7550  151.3880 N   0  0  0  0  0  0  0  0  0  0  0  0
  163.3880  210.3420  152.1750 C   0  0  0  0  0  1  0  0  0  0  0  0
  160.5200  211.4970  152.6640 N   0  0  0  0  0  0  0  0  0  0  0  0
  161.3650  208.9120  151.9380 C   0  0  0  0  0  0  0  0  0  0  0  0
  158.8850  211.8980  154.9250 C   0  0  0  0  0  0  0  0  0  0  0  0
  159.3780  210.6580  154.7250 C   0  0  0  0  0  0  0  0  0  0  0  0
  157.9150  212.1920  156.0220 C   0  0  0  0  0  1  0  0  0  0  0  0
  160.3980  209.0530  153.0670 C   0  0  0  0  0  2  0  0  0  0  0  0
  160.4790  210.4380  153.6990 C   0  0  1  0  0  3  0  0  0  0  0  0
  160.0400  212.8110  152.9840 C   0  0  0  0  0  3  0  0  0  0  0  0
  161.2700  211.3580  151.4670 N   0  0  0  0  0  0  0  0  0  0  0  0
  162.0900  210.1340  151.4180 C   0  0  1  0  0  3  0  0  0  0  0  0
  159.2730  213.0150  154.0500 C   0  0  0  0  0  3  0  0  0  0  0  0
  160.4020  211.4700  150.2820 C   0  0  0  0  0  2  0  0  0  0  0  0
  160.7580  213.9360  147.4100 C   0  0  0  0  0  3  0  0  0  0  0  0
  162.0880  213.7330  147.0310 C   0  0  0  0  0  0  0  0  0  0  0  0
  162.3320  212.0880  148.7980 C   0  0  0  0  0  3  0  0  0  0  0  0
  160.2120  213.2080  148.4710 C   0  0  0  0  0  3  0  0  0  0  0  0
  160.9910  212.2670  149.1550 C   0  0  0  0  0  0  0  0  0  0  0  0
  162.8770  212.8140  147.7410 C   0  0  0  0  0  3  0  0  0  0  0  0
  162.6000  214.4530  145.9520 O   0  0  0  0  0  0  0  0  0  0  0  0
  162.8270  213.8690  144.6770 C   0  0  0  0  0  1  0  0  0  0  0  0
  158.9940  209.5320  155.6490 C   0  0  0  0  0  2  0  0  0  0  0  0
  159.9980  209.3670  156.7860 C   0  0  0  0  0  2  0  0  0  0  0  0
  160.3150  207.9040  157.0660 C   0  0  0  0  0  2  0  0  0  0  0  0
  159.7530  207.0240  155.9650 C   0  0  0  0  0  1  0  0  0  0  0  0
  162.3610  207.5370  150.2420 C   0  0  0  0  0  2  0  0  0  0  0  0
  161.5390  207.4100  148.9690 C   0  0  1  0  0  3  0  0  0  0  0  0
  161.5850  208.7100  148.1840 C   0  0  0  0  0  1  0  0  0  0  0  0
  162.1120  206.3430  148.1510 N   0  0  0  0  0  2  0  0  0  0  0  0
  161.0720  205.5790  147.4540 C   0  0  1  0  0  3  0  0  0  0  0  0
  162.3250  205.8700  145.3630 C   0  0  0  0  0  2  0  0  0  0  0  0
  161.4070  204.8130  145.2000 O   0  0  0  0  0  0  0  0  0  0  0  0
  160.9690  205.9120  145.9640 C   0  0  1  0  0  3  0  0  0  0  0  0
  161.2200  203.8120  147.7370 S   0  0  0  0  0  0  0  0  0  0  0  0
  160.4610  203.0550  146.6780 O   0  0  0  0  0  0  0  0  0  0  0  0
  162.6700  203.4180  147.6810 O   0  0  0  0  0  0  0  0  0  0  0  0
  160.5740  203.3830  149.3450 C   0  0  2  0  0  3  0  0  0  0  0  0
  160.9410  204.1460  151.3910 C   0  0  0  0  0  1  0  0  0  0  0  0
  161.5710  203.5220  150.3130 O   0  0  0  0  0  0  0  0  0  0  0  0
  160.0480  201.9490  149.3240 C   0  0  0  0  0  2  0  0  0  0  0  0
  161.1720  200.9470  149.5550 C   0  0  0  0  0  2  0  0  0  0  0  0
  161.5050  200.3260  148.3510 O   0  0  0  0  0  1  0  0  0  0  0  0
  1  4  2  0  0  0  0
  3 10  1  0  0  0  0
  3  9  1  0  0  0  0
  4  8  1  0  0  0  0
  5  7  1  0  0  0  0
  6  5  2  0  0  0  0
  6 23  1  0  0  0  0
  9  8  1  6  0  0  0
  9  6  1  0  0  0  0
 10 13  2  0  0  0  0
 11  3  1  0  0  0  0
 12 11  1  0  0  0  0
 12  4  1  0  0  0  0
 12  2  1  1  0  0  0
 13  5  1  0  0  0  0
 14 11  1  0  0  0  0
 15 18  1  0  0  0  0
 16 15  2  0  0  0  0
 16 20  1  0  0  0  0
 17 19  1  0  0  0  0
 18 19  2  0  0  0  0
 19 14  1  0  0  0  0
 20 17  2  0  0  0  0
 21 16  1  0  0  0  0
 22 21  1  0  0  0  0
 23 24  1  0  0  0  0
 24 25  1  0  0  0  0
 26 25  1  0  0  0  0
 27  1  1  0  0  0  0
 28 29  1  6  0  0  0
 28 27  1  0  0  0  0
 30 28  1  0  0  0  0
 31 35  1  0  0  0  0
 31 30  1  6  0  0  0
 32 34  1  0  0  0  0
 33 32  1  0  0  0  0
 33 34  1  0  0  0  0
 34 31  1  1  0  0  0
 35 38  1  0  0  0  0
 36 35  2  0  0  0  0
 37 35  2  0  0  0  0
 38 41  1  6  0  0  0
 38 40  1  0  0  0  0
 40 39  1  0  0  0  0
 41 42  1  0  0  0  0
 43 42  1  0  0  0  0
M  END
>  <MODEL>
4

>  <REMARK>
 VINA RESULT:      -3.4      1.451      3.395
  Name = 
  16 active torsions:
  status: ('A' for Active; 'I' for Inactive)
    1  A    between atoms: C_1  and  N_34
    2  A    between atoms: C_1  and  C_35
    3  A    between atoms: N_2  and  C_6
    4  A    between atoms: N_3  and  C_4
    5  A    between atoms: N_3  and  C_12
    6  A    between atoms: C_4  and  S_14
    7  A    between atoms: C_4  and  C_42
    8  A    between atoms: C_5  and  C_18
    9  A    between atoms: C_6  and  C_12
   10  A    between atoms: C_11  and  S_14
   11  A    between atoms: C_11  and  O_36
   12  A    between atoms: C_11  and  C_40
   13  A    between atoms: C_18  and  C_24
   14  A    between atoms: C_19  and  O_25
   15  A    between atoms: C_21  and  C_24
   16  A    between atoms: C_26  and  C_40
                            x       y       z     vdW  Elec       q    Type
                         _______ _______ _______ _____ _____    ______ ____

>  <TORSDO>
F 16

$$$$
=
 OpenBabel11062410223D

 43 46  0  0  1  0  0  0  0  0999 V2000
  160.7460  207.9770  151.9610 N   0  0  0  0  0  0  0  0  0  0  0  0
  163.0040  210.3510  152.2940 C   0  0  0  0  0  1  0  0  0  0  0  0
  160.5170  212.0000  151.3520 N   0  0  0  0  0  0  0  0  0  0  0  0
  160.7900  209.2660  151.9600 C   0  0  0  0  0  0  0  0  0  0  0  0
  158.5600  213.5750  152.6320 C   0  0  0  0  0  0  0  0  0  0  0  0
  158.7370  212.3150  153.0810 C   0  0  0  0  0  0  0  0  0  0  0  0
  157.4720  214.4520  153.1570 C   0  0  0  0  0  1  0  0  0  0  0  0
  159.6560  210.0200  152.5720 C   0  0  0  0  0  2  0  0  0  0  0  0
  159.9510  211.5150  152.6320 C   0  0  1  0  0  3  0  0  0  0  0  0
  160.3420  213.3770  150.9830 C   0  0  0  0  0  3  0  0  0  0  0  0
  161.4640  211.2490  150.6090 N   0  0  0  0  0  0  0  0  0  0  0  0
  161.9160  210.0220  151.2910 C   0  0  1  0  0  3  0  0  0  0  0  0
  159.4280  214.1310  151.5820 C   0  0  0  0  0  3  0  0  0  0  0  0
  160.9640  210.9560  149.2540 C   0  0  0  0  0  2  0  0  0  0  0  0
  161.0950  213.1840  146.1760 C   0  0  0  0  0  3  0  0  0  0  0  0
  162.4270  213.6080  146.1940 C   0  0  0  0  0  0  0  0  0  0  0  0
  162.7930  212.3390  148.2300 C   0  0  0  0  0  3  0  0  0  0  0  0
  160.6160  212.3300  147.1740 C   0  0  0  0  0  3  0  0  0  0  0  0
  161.4700  211.8890  148.1930 C   0  0  0  0  0  0  0  0  0  0  0  0
  163.2710  213.1900  147.2350 C   0  0  0  0  0  3  0  0  0  0  0  0
  162.8860  214.4370  145.1720 O   0  0  0  0  0  0  0  0  0  0  0  0
  162.4350  214.3230  143.8290 C   0  0  0  0  0  1  0  0  0  0  0  0
  157.8590  211.7710  154.1780 C   0  0  0  0  0  2  0  0  0  0  0  0
  158.4510  212.0390  155.5590 C   0  0  0  0  0  2  0  0  0  0  0  0
  157.3850  212.4390  156.5720 C   0  0  0  0  0  2  0  0  0  0  0  0
  156.0450  211.8370  156.1920 C   0  0  0  0  0  1  0  0  0  0  0  0
  161.7560  207.1630  151.3260 C   0  0  0  0  0  2  0  0  0  0  0  0
  161.7660  207.3840  149.8210 C   0  0  1  0  0  3  0  0  0  0  0  0
  163.1150  206.9920  149.2430 C   0  0  0  0  0  1  0  0  0  0  0  0
  160.7320  206.5440  149.2210 N   0  0  0  0  0  2  0  0  0  0  0  0
  161.3120  205.4080  148.4960 C   0  0  1  0  0  3  0  0  0  0  0  0
  161.4900  203.5870  150.1320 C   0  0  0  0  0  2  0  0  0  0  0  0
  160.2080  204.1650  150.2330 O   0  0  0  0  0  0  0  0  0  0  0  0
  160.7480  204.0560  148.9360 C   0  0  1  0  0  3  0  0  0  0  0  0
  161.2260  205.6220  146.7150 S   0  0  0  0  0  0  0  0  0  0  0  0
  159.8170  205.9600  146.3040 O   0  0  0  0  0  0  0  0  0  0  0  0
  162.1420  206.7410  146.3030 O   0  0  0  0  0  0  0  0  0  0  0  0
  161.7410  204.1290  145.8840 C   0  0  2  0  0  3  0  0  0  0  0  0
  163.9170  204.2520  146.2730 C   0  0  0  0  0  1  0  0  0  0  0  0
  162.9690  204.3320  145.2520 O   0  0  0  0  0  0  0  0  0  0  0  0
  160.6800  203.7130  144.8660 C   0  0  0  0  0  2  0  0  0  0  0  0
  160.0800  202.3580  145.2180 C   0  0  0  0  0  2  0  0  0  0  0  0
  160.9680  201.6430  146.0220 O   0  0  0  0  0  1  0  0  0  0  0  0
  3  9  1  0  0  0  0
  4  1  2  0  0  0  0
  4  8  1  0  0  0  0
  5  6  2  0  0  0  0
  5  7  1  0  0  0  0
  6 23  1  0  0  0  0
  9  8  1  6  0  0  0
  9  6  1  0  0  0  0
 10  3  1  0  0  0  0
 10 13  2  0  0  0  0
 11 12  1  0  0  0  0
 11  3  1  0  0  0  0
 12  4  1  0  0  0  0
 12  2  1  1  0  0  0
 13  5  1  0  0  0  0
 14 11  1  0  0  0  0
 15 16  2  0  0  0  0
 15 18  1  0  0  0  0
 16 20  1  0  0  0  0
 18 19  2  0  0  0  0
 19 17  1  0  0  0  0
 19 14  1  0  0  0  0
 20 17  2  0  0  0  0
 21 16  1  0  0  0  0
 22 21  1  0  0  0  0
 23 24  1  0  0  0  0
 24 25  1  0  0  0  0
 26 25  1  0  0  0  0
 27  1  1  0  0  0  0
 28 29  1  6  0  0  0
 28 27  1  0  0  0  0
 30 28  1  0  0  0  0
 31 30  1  1  0  0  0
 32 33  1  0  0  0  0
 34 31  1  1  0  0  0
 34 32  1  0  0  0  0
 34 33  1  0  0  0  0
 35 31  1  0  0  0  0
 36 35  2  0  0  0  0
 37 35  2  0  0  0  0
 38 41  1  6  0  0  0
 38 35  1  0  0  0  0
 40 38  1  0  0  0  0
 40 39  1  0  0  0  0
 41 42  1  0  0  0  0
 42 43  1  0  0  0  0
M  END
>  <MODEL>
5

>  <REMARK>
 VINA RESULT:      -3.4      1.405      2.389
  Name = 
  16 active torsions:
  status: ('A' for Active; 'I' for Inactive)
    1  A    between atoms: C_1  and  N_34
    2  A    between atoms: C_1  and  C_35
    3  A    between atoms: N_2  and  C_6
    4  A    between atoms: N_3  and  C_4
    5  A    between atoms: N_3  and  C_12
    6  A    between atoms: C_4  and  S_14
    7  A    between atoms: C_4  and  C_42
    8  A    between atoms: C_5  and  C_18
    9  A    between atoms: C_6  and  C_12
   10  A    between atoms: C_11  and  S_14
   11  A    between atoms: C_11  and  O_36
   12  A    between atoms: C_11  and  C_40
   13  A    between atoms: C_18  and  C_24
   14  A    between atoms: C_19  and  O_25
   15  A    between atoms: C_21  and  C_24
   16  A    between atoms: C_26  and  C_40
                            x       y       z     vdW  Elec       q    Type
                         _______ _______ _______ _____ _____    ______ ____

>  <TORSDO>
F 16

$$$$
=
 OpenBabel11062410223D

 43 46  0  0  1  0  0  0  0  0999 V2000
  160.7520  207.7040  151.4210 N   0  0  0  0  0  0  0  0  0  0  0  0
  163.1480  209.9390  151.7560 C   0  0  0  0  0  1  0  0  0  0  0  0
  160.6550  211.7770  151.3020 N   0  0  0  0  0  0  0  0  0  0  0  0
  160.8590  208.9820  151.5620 C   0  0  0  0  0  0  0  0  0  0  0  0
  158.9320  213.2580  152.9710 C   0  0  0  0  0  0  0  0  0  0  0  0
  159.0970  211.9490  153.2510 C   0  0  0  0  0  0  0  0  0  0  0  0
  157.9540  214.1070  153.7160 C   0  0  0  0  0  1  0  0  0  0  0  0
  159.8390  209.6990  152.3830 C   0  0  0  0  0  2  0  0  0  0  0  0
  160.2120  211.1650  152.5760 C   0  0  1  0  0  3  0  0  0  0  0  0
  160.5080  213.1920  151.1140 C   0  0  0  0  0  3  0  0  0  0  0  0
  161.4760  211.0840  150.3740 N   0  0  0  0  0  0  0  0  0  0  0  0
  161.9390  209.7700  150.8550 C   0  0  1  0  0  3  0  0  0  0  0  0
  159.7040  213.9030  151.8980 C   0  0  0  0  0  3  0  0  0  0  0  0
  160.8130  210.9720  149.0620 C   0  0  0  0  0  2  0  0  0  0  0  0
  161.1850  213.0670  145.9110 C   0  0  0  0  0  3  0  0  0  0  0  0
  162.5310  213.4380  145.9790 C   0  0  0  0  0  0  0  0  0  0  0  0
  162.7460  212.2390  148.0780 C   0  0  0  0  0  3  0  0  0  0  0  0
  160.6240  212.2740  146.9160 C   0  0  0  0  0  3  0  0  0  0  0  0
  161.4080  211.8400  147.9920 C   0  0  0  0  0  0  0  0  0  0  0  0
  163.3060  213.0300  147.0770 C   0  0  0  0  0  3  0  0  0  0  0  0
  163.0720  214.2070  144.9500 O   0  0  0  0  0  0  0  0  0  0  0  0
  162.9450  213.8550  143.5790 C   0  0  0  0  0  1  0  0  0  0  0  0
  158.3210  211.3110  154.3750 C   0  0  0  0  0  2  0  0  0  0  0  0
  159.2460  210.7060  155.4270 C   0  0  0  0  0  2  0  0  0  0  0  0
  160.0390  211.7710  156.1730 C   0  0  0  0  0  2  0  0  0  0  0  0
  161.5090  211.3960  156.2210 C   0  0  0  0  0  1  0  0  0  0  0  0
  161.6440  206.9350  150.5850 C   0  0  0  0  0  2  0  0  0  0  0  0
  160.8670  205.9590  149.7150 C   0  0  1  0  0  3  0  0  0  0  0  0
  160.3360  206.6680  148.4800 C   0  0  0  0  0  1  0  0  0  0  0  0
  161.7700  204.8900  149.2950 N   0  0  0  0  0  2  0  0  0  0  0  0
  161.4630  203.6260  149.9730 C   0  0  1  0  0  3  0  0  0  0  0  0
  160.8410  202.8080  152.2020 C   0  0  0  0  0  2  0  0  0  0  0  0
  161.1980  204.1680  152.3010 O   0  0  0  0  0  0  0  0  0  0  0  0
  160.4900  203.7860  151.1430 C   0  0  1  0  0  3  0  0  0  0  0  0
  160.9290  202.3510  148.8270 S   0  0  0  0  0  0  0  0  0  0  0  0
  161.7970  201.1290  148.9770 O   0  0  0  0  0  0  0  0  0  0  0  0
  159.5020  201.9820  149.1210 O   0  0  0  0  0  0  0  0  0  0  0  0
  161.0310  202.9430  147.1470 C   0  0  2  0  0  3  0  0  0  0  0  0
  160.0410  201.8680  145.4830 C   0  0  0  0  0  1  0  0  0  0  0  0
  161.1940  201.8680  146.2700 O   0  0  0  0  0  0  0  0  0  0  0  0
  162.1980  203.9200  147.0130 C   0  0  0  0  0  2  0  0  0  0  0  0
  162.1860  204.6090  145.6540 C   0  0  0  0  0  2  0  0  0  0  0  0
  162.5400  205.9500  145.8010 O   0  0  0  0  0  1  0  0  0  0  0  0
  1  4  2  0  0  0  0
  3  9  1  0  0  0  0
  4  8  1  0  0  0  0
  5  6  2  0  0  0  0
  5  7  1  0  0  0  0
  6 23  1  0  0  0  0
  9  8  1  6  0  0  0
  9  6  1  0  0  0  0
 10  3  1  0  0  0  0
 10 13  2  0  0  0  0
 11 12  1  0  0  0  0
 11  3  1  0  0  0  0
 12  4  1  0  0  0  0
 12  2  1  1  0  0  0
 13  5  1  0  0  0  0
 14 11  1  0  0  0  0
 15 16  2  0  0  0  0
 15 18  1  0  0  0  0
 16 20  1  0  0  0  0
 18 19  2  0  0  0  0
 19 17  1  0  0  0  0
 19 14  1  0  0  0  0
 20 17  2  0  0  0  0
 21 16  1  0  0  0  0
 22 21  1  0  0  0  0
 23 24  1  0  0  0  0
 24 25  1  0  0  0  0
 25 26  1  0  0  0  0
 27  1  1  0  0  0  0
 28 29  1  6  0  0  0
 28 27  1  0  0  0  0
 30 28  1  0  0  0  0
 31 30  1  6  0  0  0
 32 33  1  0  0  0  0
 34 31  1  6  0  0  0
 34 32  1  0  0  0  0
 34 33  1  0  0  0  0
 35 36  2  0  0  0  0
 35 37  2  0  0  0  0
 35 31  1  0  0  0  0
 38 41  1  1  0  0  0
 38 35  1  0  0  0  0
 39 40  1  0  0  0  0
 40 38  1  0  0  0  0
 42 43  1  0  0  0  0
 42 41  1  0  0  0  0
M  END
>  <MODEL>
6

>  <REMARK>
 VINA RESULT:      -3.4      1.437      1.861
  Name = 
  16 active torsions:
  status: ('A' for Active; 'I' for Inactive)
    1  A    between atoms: C_1  and  N_34
    2  A    between atoms: C_1  and  C_35
    3  A    between atoms: N_2  and  C_6
    4  A    between atoms: N_3  and  C_4
    5  A    between atoms: N_3  and  C_12
    6  A    between atoms: C_4  and  S_14
    7  A    between atoms: C_4  and  C_42
    8  A    between atoms: C_5  and  C_18
    9  A    between atoms: C_6  and  C_12
   10  A    between atoms: C_11  and  S_14
   11  A    between atoms: C_11  and  O_36
   12  A    between atoms: C_11  and  C_40
   13  A    between atoms: C_18  and  C_24
   14  A    between atoms: C_19  and  O_25
   15  A    between atoms: C_21  and  C_24
   16  A    between atoms: C_26  and  C_40
                            x       y       z     vdW  Elec       q    Type
                         _______ _______ _______ _____ _____    ______ ____

>  <TORSDO>
F 16

$$$$
=
 OpenBabel11062410223D

 43 46  0  0  1  0  0  0  0  0999 V2000
  161.3910  208.7690  149.1070 N   0  0  0  0  0  0  0  0  0  0  0  0
  163.8240  207.3070  150.7760 C   0  0  0  0  0  1  0  0  0  0  0  0
  161.5080  205.2310  151.1260 N   0  0  0  0  0  0  0  0  0  0  0  0
  161.6290  207.6230  149.6480 C   0  0  0  0  0  0  0  0  0  0  0  0
  160.7950  202.8020  149.8860 C   0  0  0  0  0  0  0  0  0  0  0  0
  160.9830  203.8760  149.0910 C   0  0  0  0  0  0  0  0  0  0  0  0
  160.3010  201.5000  149.3470 C   0  0  0  0  0  1  0  0  0  0  0  0
  161.1220  206.3930  148.9690 C   0  0  0  0  0  2  0  0  0  0  0  0
  161.6350  205.1300  149.6540 C   0  0  1  0  0  3  0  0  0  0  0  0
  161.3830  204.0310  151.9050 C   0  0  0  0  0  3  0  0  0  0  0  0
  161.7900  206.4310  151.8310 N   0  0  0  0  0  0  0  0  0  0  0  0
  162.3350  207.5050  150.9800 C   0  0  1  0  0  3  0  0  0  0  0  0
  161.0540  202.8790  151.3320 C   0  0  0  0  0  3  0  0  0  0  0  0
  160.6120  206.8910  152.5870 C   0  0  0  0  0  2  0  0  0  0  0  0
  161.5510  208.7860  155.7470 C   0  0  0  0  0  3  0  0  0  0  0  0
  161.3790  210.1120  155.3380 C   0  0  0  0  0  0  0  0  0  0  0  0
  160.7500  209.3400  153.1260 C   0  0  0  0  0  3  0  0  0  0  0  0
  161.3110  207.7400  154.8520 C   0  0  0  0  0  3  0  0  0  0  0  0
  160.8900  208.0130  153.5440 C   0  0  0  0  0  0  0  0  0  0  0  0
  160.9900  210.3840  154.0170 C   0  0  0  0  0  3  0  0  0  0  0  0
  161.6000  211.1360  156.2590 O   0  0  0  0  0  0  0  0  0  0  0  0
  162.6100  211.0680  157.2560 C   0  0  0  0  0  1  0  0  0  0  0  0
  160.7430  203.7720  147.6070 C   0  0  0  0  0  2  0  0  0  0  0  0
  162.0440  203.8760  146.8160 C   0  0  0  0  0  2  0  0  0  0  0  0
  161.8000  204.2220  145.3530 C   0  0  0  0  0  2  0  0  0  0  0  0
  160.5350  203.5470  144.8560 C   0  0  0  0  0  1  0  0  0  0  0  0
  161.7720  210.0170  149.7260 C   0  0  0  0  0  2  0  0  0  0  0  0
  162.1440  211.0540  148.6770 C   0  0  1  0  0  3  0  0  0  0  0  0
  163.3540  210.5870  147.8860 C   0  0  0  0  0  1  0  0  0  0  0  0
  161.0150  211.2150  147.7640 N   0  0  0  0  0  2  0  0  0  0  0  0
  160.3950  212.5380  147.9000 C   0  0  1  0  0  3  0  0  0  0  0  0
  159.9200  214.3690  149.4640 C   0  0  0  0  0  2  0  0  0  0  0  0
  160.0430  213.1680  150.1930 O   0  0  0  0  0  0  0  0  0  0  0  0
  160.9160  213.3320  149.0990 C   0  0  1  0  0  3  0  0  0  0  0  0
  160.4790  213.4890  146.3790 S   0  0  0  0  0  0  0  0  0  0  0  0
  159.2020  214.2630  146.1840 O   0  0  0  0  0  0  0  0  0  0  0  0
  161.6330  214.4500  146.4540 O   0  0  0  0  0  0  0  0  0  0  0  0
  160.7300  212.4060  144.9820 C   0  0  2  0  0  3  0  0  0  0  0  0
  162.8280  213.1150  145.0040 C   0  0  0  0  0  1  0  0  0  0  0  0
  161.7360  212.9150  144.1580 O   0  0  0  0  0  0  0  0  0  0  0  0
  159.4260  212.2610  144.2000 C   0  0  0  0  0  2  0  0  0  0  0  0
  159.5820  212.7610  142.7690 C   0  0  0  0  0  2  0  0  0  0  0  0
  160.5440  211.9990  142.1060 O   0  0  0  0  0  1  0  0  0  0  0  0
  1  4  2  0  0  0  0
  1 27  1  0  0  0  0
  3 11  1  0  0  0  0
  3 10  1  0  0  0  0
  4 12  1  0  0  0  0
  5 13  1  0  0  0  0
  6  9  1  0  0  0  0
  6  5  2  0  0  0  0
  7  5  1  0  0  0  0
  8  4  1  0  0  0  0
  9  8  1  6  0  0  0
  9  3  1  0  0  0  0
 11 14  1  0  0  0  0
 12  2  1  6  0  0  0
 12 11  1  0  0  0  0
 13 10  2  0  0  0  0
 14 19  1  0  0  0  0
 16 15  1  0  0  0  0
 16 21  1  0  0  0  0
 17 19  2  0  0  0  0
 17 20  1  0  0  0  0
 18 15  2  0  0  0  0
 19 18  1  0  0  0  0
 20 16  2  0  0  0  0
 21 22  1  0  0  0  0
 23  6  1  0  0  0  0
 24 23  1  0  0  0  0
 25 24  1  0  0  0  0
 26 25  1  0  0  0  0
 28 29  1  6  0  0  0
 28 27  1  0  0  0  0
 30 28  1  0  0  0  0
 31 30  1  6  0  0  0
 32 33  1  0  0  0  0
 34 31  1  6  0  0  0
 34 32  1  0  0  0  0
 34 33  1  0  0  0  0
 35 37  2  0  0  0  0
 35 31  1  0  0  0  0
 36 35  2  0  0  0  0
 38 41  1  6  0  0  0
 38 35  1  0  0  0  0
 40 38  1  0  0  0  0
 40 39  1  0  0  0  0
 42 41  1  0  0  0  0
 43 42  1  0  0  0  0
M  END
>  <MODEL>
7

>  <REMARK>
 VINA RESULT:      -3.0      3.874      8.943
  Name = 
  16 active torsions:
  status: ('A' for Active; 'I' for Inactive)
    1  A    between atoms: C_1  and  N_34
    2  A    between atoms: C_1  and  C_35
    3  A    between atoms: N_2  and  C_6
    4  A    between atoms: N_3  and  C_4
    5  A    between atoms: N_3  and  C_12
    6  A    between atoms: C_4  and  S_14
    7  A    between atoms: C_4  and  C_42
    8  A    between atoms: C_5  and  C_18
    9  A    between atoms: C_6  and  C_12
   10  A    between atoms: C_11  and  S_14
   11  A    between atoms: C_11  and  O_36
   12  A    between atoms: C_11  and  C_40
   13  A    between atoms: C_18  and  C_24
   14  A    between atoms: C_19  and  O_25
   15  A    between atoms: C_21  and  C_24
   16  A    between atoms: C_26  and  C_40
                            x       y       z     vdW  Elec       q    Type
                         _______ _______ _______ _____ _____    ______ ____

>  <TORSDO>
F 16

$$$$
=
 OpenBabel11062410223D

 43 46  0  0  1  0  0  0  0  0999 V2000
  160.0500  207.5500  154.5980 N   0  0  0  0  0  0  0  0  0  0  0  0
  162.0410  209.5570  156.2870 C   0  0  0  0  0  1  0  0  0  0  0  0
  160.0810  211.6090  154.9660 N   0  0  0  0  0  0  0  0  0  0  0  0
  160.0980  208.7940  154.9330 C   0  0  0  0  0  0  0  0  0  0  0  0
  157.7990  213.0270  155.8180 C   0  0  0  0  0  0  0  0  0  0  0  0
  157.7930  211.6880  155.9740 C   0  0  0  0  0  0  0  0  0  0  0  0
  156.5980  213.8610  156.1250 C   0  0  0  0  0  1  0  0  0  0  0  0
  158.8220  209.4930  155.2700 C   0  0  0  0  0  2  0  0  0  0  0  0
  159.0830  210.9000  155.8000 C   0  0  1  0  0  3  0  0  0  0  0  0
  160.0610  213.0430  154.9130 C   0  0  0  0  0  3  0  0  0  0  0  0
  161.2310  210.9600  154.4460 N   0  0  0  0  0  0  0  0  0  0  0  0
  161.3950  209.5730  154.9150 C   0  0  1  0  0  3  0  0  0  0  0  0
  158.9940  213.7240  155.3180 C   0  0  0  0  0  3  0  0  0  0  0  0
  161.2610  211.0350  152.9740 C   0  0  0  0  0  2  0  0  0  0  0  0
  159.3620  213.7400  151.0920 C   0  0  0  0  0  3  0  0  0  0  0  0
  158.0380  213.3310  151.2760 C   0  0  0  0  0  0  0  0  0  0  0  0
  158.8160  211.4030  152.5280 C   0  0  0  0  0  3  0  0  0  0  0  0
  160.4100  212.9900  151.6360 C   0  0  0  0  0  3  0  0  0  0  0  0
  160.1390  211.8300  152.3720 C   0  0  0  0  0  0  0  0  0  0  0  0
  157.7720  212.1500  151.9860 C   0  0  0  0  0  3  0  0  0  0  0  0
  157.0110  214.1110  150.7470 O   0  0  0  0  0  0  0  0  0  0  0  0
  156.4120  213.8410  149.4870 C   0  0  0  0  0  1  0  0  0  0  0  0
  156.5710  210.9930  156.5170 C   0  0  0  0  0  2  0  0  0  0  0  0
  155.6060  210.5960  155.4030 C   0  0  0  0  0  2  0  0  0  0  0  0
  154.5170  209.6510  155.8970 C   0  0  0  0  0  2  0  0  0  0  0  0
  154.0090  210.0970  157.2560 C   0  0  0  0  0  1  0  0  0  0  0  0
  161.2190  206.8110  154.1810 C   0  0  0  0  0  2  0  0  0  0  0  0
  161.5270  207.0620  152.7120 C   0  0  1  0  0  3  0  0  0  0  0  0
  162.8970  206.5080  152.3630 C   0  0  0  0  0  1  0  0  0  0  0  0
  160.5190  206.3800  151.9030 N   0  0  0  0  0  2  0  0  0  0  0  0
  161.1280  205.4040  150.9930 C   0  0  1  0  0  3  0  0  0  0  0  0
  161.6190  203.0470  151.4730 C   0  0  0  0  0  2  0  0  0  0  0  0
  160.7160  203.5300  152.4410 O   0  0  0  0  0  0  0  0  0  0  0  0
  160.5360  203.9990  151.1250 C   0  0  1  0  0  3  0  0  0  0  0  0
  161.1320  205.9720  149.2900 S   0  0  0  0  0  0  0  0  0  0  0  0
  159.7210  206.2200  148.8260 O   0  0  0  0  0  0  0  0  0  0  0  0
  161.9160  207.2510  149.1920 O   0  0  0  0  0  0  0  0  0  0  0  0
  161.8940  204.7540  148.2300 C   0  0  2  0  0  3  0  0  0  0  0  0
  162.0500  205.7080  146.2370 C   0  0  0  0  0  1  0  0  0  0  0  0
  162.8000  205.3720  147.3660 O   0  0  0  0  0  0  0  0  0  0  0  0
  160.8190  204.0160  147.4340 C   0  0  0  0  0  2  0  0  0  0  0  0
  161.2230  202.5710  147.1710 C   0  0  0  0  0  2  0  0  0  0  0  0
  160.9430  201.7910  148.2930 O   0  0  0  0  0  1  0  0  0  0  0  0
  1  4  2  0  0  0  0
  3  9  1  0  0  0  0
  4  8  1  0  0  0  0
  5  6  2  0  0  0  0
  5  7  1  0  0  0  0
  6 23  1  0  0  0  0
  9  8  1  6  0  0  0
  9  6  1  0  0  0  0
 10  3  1  0  0  0  0
 10 13  2  0  0  0  0
 11 12  1  0  0  0  0
 11  3  1  0  0  0  0
 12  4  1  0  0  0  0
 12  2  1  1  0  0  0
 13  5  1  0  0  0  0
 14 11  1  0  0  0  0
 15 16  2  0  0  0  0
 15 18  1  0  0  0  0
 16 20  1  0  0  0  0
 18 19  2  0  0  0  0
 19 17  1  0  0  0  0
 19 14  1  0  0  0  0
 20 17  2  0  0  0  0
 21 16  1  0  0  0  0
 22 21  1  0  0  0  0
 24 25  1  0  0  0  0
 24 23  1  0  0  0  0
 25 26  1  0  0  0  0
 27  1  1  0  0  0  0
 28 29  1  6  0  0  0
 28 27  1  0  0  0  0
 30 28  1  0  0  0  0
 31 30  1  1  0  0  0
 32 33  1  0  0  0  0
 34 31  1  1  0  0  0
 34 32  1  0  0  0  0
 34 33  1  0  0  0  0
 35 31  1  0  0  0  0
 36 35  2  0  0  0  0
 37 35  2  0  0  0  0
 38 41  1  6  0  0  0
 38 35  1  0  0  0  0
 39 40  1  0  0  0  0
 40 38  1  0  0  0  0
 42 41  1  0  0  0  0
 42 43  1  0  0  0  0
M  END
>  <MODEL>
8

>  <REMARK>
 VINA RESULT:      -2.9      3.114      4.326
  Name = 
  16 active torsions:
  status: ('A' for Active; 'I' for Inactive)
    1  A    between atoms: C_1  and  N_34
    2  A    between atoms: C_1  and  C_35
    3  A    between atoms: N_2  and  C_6
    4  A    between atoms: N_3  and  C_4
    5  A    between atoms: N_3  and  C_12
    6  A    between atoms: C_4  and  S_14
    7  A    between atoms: C_4  and  C_42
    8  A    between atoms: C_5  and  C_18
    9  A    between atoms: C_6  and  C_12
   10  A    between atoms: C_11  and  S_14
   11  A    between atoms: C_11  and  O_36
   12  A    between atoms: C_11  and  C_40
   13  A    between atoms: C_18  and  C_24
   14  A    between atoms: C_19  and  O_25
   15  A    between atoms: C_21  and  C_24
   16  A    between atoms: C_26  and  C_40
                            x       y       z     vdW  Elec       q    Type
                         _______ _______ _______ _____ _____    ______ ____

>  <TORSDO>
F 16

$$$$
=
 OpenBabel11062410223D

 43 46  0  0  1  0  0  0  0  0999 V2000
  162.4710  206.2270  151.6200 N   0  0  0  0  0  0  0  0  0  0  0  0
  159.5250  207.0410  150.3920 C   0  0  0  0  0  1  0  0  0  0  0  0
  161.1310  206.4290  147.7760 N   0  0  0  0  0  0  0  0  0  0  0  0
  161.8620  206.1900  150.4840 C   0  0  0  0  0  0  0  0  0  0  0  0
  161.3400  204.2290  146.0260 C   0  0  0  0  0  0  0  0  0  0  0  0
  161.5590  204.0040  147.3380 C   0  0  0  0  0  0  0  0  0  0  0  0
  161.5400  203.1630  145.0000 C   0  0  0  0  0  1  0  0  0  0  0  0
  162.1130  205.0320  149.5750 C   0  0  0  0  0  2  0  0  0  0  0  0
  161.1920  205.0690  148.3600 C   0  0  1  0  0  3  0  0  0  0  0  0
  160.8210  206.5820  146.3830 C   0  0  0  0  0  3  0  0  0  0  0  0
  161.0820  207.5980  148.5810 N   0  0  0  0  0  0  0  0  0  0  0  0
  160.9690  207.3210  150.0240 C   0  0  1  0  0  3  0  0  0  0  0  0
  160.9090  205.5520  145.5490 C   0  0  0  0  0  3  0  0  0  0  0  0
  162.2210  208.4870  148.2920 C   0  0  0  0  0  2  0  0  0  0  0  0
  161.7280  211.7780  150.1330 C   0  0  0  0  0  3  0  0  0  0  0  0
  161.4320  212.6460  149.0770 C   0  0  0  0  0  0  0  0  0  0  0  0
  161.6940  210.8150  147.5080 C   0  0  0  0  0  3  0  0  0  0  0  0
  161.9930  210.4290  149.8780 C   0  0  0  0  0  3  0  0  0  0  0  0
  161.9570  209.9390  148.5660 C   0  0  0  0  0  0  0  0  0  0  0  0
  161.4300  212.1590  147.7610 C   0  0  0  0  0  3  0  0  0  0  0  0
  161.1450  213.9810  149.3620 O   0  0  0  0  0  0  0  0  0  0  0  0
  160.1670  214.3690  150.3180 C   0  0  0  0  0  1  0  0  0  0  0  0
  161.9700  202.6350  147.8140 C   0  0  0  0  0  2  0  0  0  0  0  0
  160.7850  201.6740  147.8590 C   0  0  0  0  0  2  0  0  0  0  0  0
  160.6800  200.9550  149.1980 C   0  0  0  0  0  2  0  0  0  0  0  0
  161.0360  201.8980  150.3320 C   0  0  0  0  0  1  0  0  0  0  0  0
  162.3520  207.3410  152.5320 C   0  0  0  0  0  2  0  0  0  0  0  0
  161.2670  207.0820  153.5670 C   0  0  1  0  0  3  0  0  0  0  0  0
  161.2040  205.6020  153.9000 C   0  0  0  0  0  1  0  0  0  0  0  0
  161.5970  207.8260  154.7800 N   0  0  0  0  0  2  0  0  0  0  0  0
  160.4590  208.6240  155.2510 C   0  0  1  0  0  3  0  0  0  0  0  0
  159.7060  206.9590  156.8890 C   0  0  0  0  0  2  0  0  0  0  0  0
  160.9870  207.4150  157.2610 O   0  0  0  0  0  0  0  0  0  0  0  0
  160.1100  208.3760  156.7200 C   0  0  1  0  0  3  0  0  0  0  0  0
  160.6600  210.3730  154.8960 S   0  0  0  0  0  0  0  0  0  0  0  0
  161.4130  211.0420  156.0150 O   0  0  0  0  0  0  0  0  0  0  0  0
  161.4300  210.5360  153.6150 O   0  0  0  0  0  0  0  0  0  0  0  0
  159.0670  211.1560  154.7070 C   0  0  2  0  0  3  0  0  0  0  0  0
  158.4620  212.3000  152.9110 C   0  0  0  0  0  1  0  0  0  0  0  0
  159.2150  212.3960  154.0830 O   0  0  0  0  0  0  0  0  0  0  0  0
  158.4090  211.3250  156.0760 C   0  0  0  0  0  2  0  0  0  0  0  0
  156.9610  211.7800  155.9390 C   0  0  0  0  0  2  0  0  0  0  0  0
  156.2080  210.7770  155.3300 O   0  0  0  0  0  1  0  0  0  0  0  0
  1 27  1  0  0  0  0
  3  9  1  0  0  0  0
  3 11  1  0  0  0  0
  4  1  2  0  0  0  0
  5  6  2  0  0  0  0
  6 23  1  0  0  0  0
  6  9  1  0  0  0  0
  7  5  1  0  0  0  0
  8  4  1  0  0  0  0
  9  8  1  1  0  0  0
 10  3  1  0  0  0  0
 11 12  1  0  0  0  0
 12  2  1  6  0  0  0
 12  4  1  0  0  0  0
 13  5  1  0  0  0  0
 13 10  2  0  0  0  0
 14 19  1  0  0  0  0
 14 11  1  0  0  0  0
 16 21  1  0  0  0  0
 16 15  2  0  0  0  0
 17 20  2  0  0  0  0
 17 19  1  0  0  0  0
 18 15  1  0  0  0  0
 19 18  2  0  0  0  0
 20 16  1  0  0  0  0
 21 22  1  0  0  0  0
 23 24  1  0  0  0  0
 24 25  1  0  0  0  0
 25 26  1  0  0  0  0
 27 28  1  0  0  0  0
 28 29  1  1  0  0  0
 28 30  1  0  0  0  0
 31 30  1  1  0  0  0
 32 33  1  0  0  0  0
 34 31  1  6  0  0  0
 34 32  1  0  0  0  0
 34 33  1  0  0  0  0
 35 31  1  0  0  0  0
 35 36  2  0  0  0  0
 37 35  2  0  0  0  0
 38 35  1  0  0  0  0
 38 41  1  1  0  0  0
 39 40  1  0  0  0  0
 40 38  1  0  0  0  0
 42 41  1  0  0  0  0
 43 42  1  0  0  0  0
M  END
>  <MODEL>
9

>  <REMARK>
 VINA RESULT:      -2.7      3.836      8.009
  Name = 
  16 active torsions:
  status: ('A' for Active; 'I' for Inactive)
    1  A    between atoms: C_1  and  N_34
    2  A    between atoms: C_1  and  C_35
    3  A    between atoms: N_2  and  C_6
    4  A    between atoms: N_3  and  C_4
    5  A    between atoms: N_3  and  C_12
    6  A    between atoms: C_4  and  S_14
    7  A    between atoms: C_4  and  C_42
    8  A    between atoms: C_5  and  C_18
    9  A    between atoms: C_6  and  C_12
   10  A    between atoms: C_11  and  S_14
   11  A    between atoms: C_11  and  O_36
   12  A    between atoms: C_11  and  C_40
   13  A    between atoms: C_18  and  C_24
   14  A    between atoms: C_19  and  O_25
   15  A    between atoms: C_21  and  C_24
   16  A    between atoms: C_26  and  C_40
                            x       y       z     vdW  Elec       q    Type
                         _______ _______ _______ _____ _____    ______ ____

>  <TORSDO>
F 16

$$$$
