=
 OpenBabel11052422153D

 25 29  0  0  1  0  0  0  0  0999 V2000
  161.4310  205.0250  148.5230 C   0  0  0  0  0  0  0  0  0  0  0  0
  161.4390  206.2380  149.2290 C   0  0  0  0  0  0  0  0  0  0  0  0
  162.0880  206.1690  146.5250 N   0  0  0  0  0  0  0  0  0  0  0  0
  161.1270  203.7310  148.9790 C   0  0  0  0  0  0  0  0  0  0  0  0
  160.6020  201.0380  149.5090 C   0  0  0  0  0  3  0  0  0  0  0  0
  162.0920  207.3320  147.1860 N   0  0  0  0  0  0  0  0  0  0  0  0
  161.2330  202.7700  147.9740 C   0  0  0  0  0  0  0  0  0  0  0  0
  160.9770  201.4220  148.2130 C   0  0  0  0  0  3  0  0  0  0  0  0
  161.8070  208.7130  149.2050 C   0  0  0  0  0  0  0  0  0  0  0  0
  162.1180  209.7590  148.5770 O   0  0  0  0  0  0  0  0  0  0  0  0
  161.0350  206.3200  150.6770 C   0  0  0  0  0  2  0  0  0  0  0  0
  160.4930  201.9970  150.5320 C   0  0  0  0  0  3  0  0  0  0  0  0
  161.7640  205.0290  147.1770 C   0  0  0  0  0  0  0  0  0  0  0  0
  161.6970  203.4800  146.5150 S   0  0  0  0  0  0  0  0  0  0  0  0
  161.7180  207.4970  151.3770 C   0  0  1  0  0  3  0  0  0  0  0  0
  160.7560  203.3510  150.2730 C   0  0  0  0  0  3  0  0  0  0  0  0
  161.4250  208.8100  150.6510 C   0  0  0  0  0  2  0  0  0  0  0  0
  161.7720  207.4110  148.5130 C   0  0  0  0  0  0  0  0  0  0  0  0
  160.7130  208.8530  154.7890 C   0  0  0  0  0  0  0  0  0  0  0  0
  161.3100  207.5730  152.8140 C   0  0  0  0  0  0  0  0  0  0  0  0
  161.0960  208.8080  153.4460 C   0  0  0  0  0  3  0  0  0  0  0  0
  160.5010  210.0760  155.4110 O   0  0  0  0  0  1  0  0  0  0  0  0
  161.1390  206.3880  153.5380 C   0  0  0  0  0  3  0  0  0  0  0  0
  160.5440  207.6650  155.5080 C   0  0  0  0  0  3  0  0  0  0  0  0
  160.7570  206.4330  154.8820 C   0  0  0  0  0  3  0  0  0  0  0  0
  1  4  1  0  0  0  0
  1  2  1  0  0  0  0
  2 11  1  0  0  0  0
  3 13  1  0  0  0  0
  3  6  2  0  0  0  0
  4 16  1  0  0  0  0
  5 12  1  0  0  0  0
  6 18  1  0  0  0  0
  7  8  1  0  0  0  0
  7  4  2  0  0  0  0
  8  5  2  0  0  0  0
  9 17  1  0  0  0  0
 10  9  2  0  0  0  0
 11 15  1  0  0  0  0
 13  1  2  0  0  0  0
 14 13  1  0  0  0  0
 14  7  1  0  0  0  0
 15 20  1  1  0  0  0
 16 12  2  0  0  0  0
 17 15  1  0  0  0  0
 18  9  1  0  0  0  0
 18  2  2  0  0  0  0
 19 22  1  0  0  0  0
 19 24  1  0  0  0  0
 20 21  1  0  0  0  0
 20 23  2  0  0  0  0
 21 19  2  0  0  0  0
 23 25  1  0  0  0  0
 25 24  2  0  0  0  0
M  END
>  <MODEL>
1

>  <REMARK>
 VINA RESULT:     -11.2      0.000      0.000
  Name = 
  1 active torsions:
  status: ('A' for Active; 'I' for Inactive)
    1  A    between atoms: C_6  and  C_20
                            x       y       z     vdW  Elec       q    Type
                         _______ _______ _______ _____ _____    ______ ____

>  <TORSDO>
F 1

$$$$
=
 OpenBabel11052422153D

 25 29  0  0  1  0  0  0  0  0999 V2000
  161.1960  208.8440  152.9300 C   0  0  0  0  0  0  0  0  0  0  0  0
  161.4270  208.1090  151.7580 C   0  0  0  0  0  0  0  0  0  0  0  0
  161.6160  210.8840  151.7500 N   0  0  0  0  0  0  0  0  0  0  0  0
  160.8590  208.3870  154.2160 C   0  0  0  0  0  0  0  0  0  0  0  0
  160.1850  207.8690  156.8780 C   0  0  0  0  0  3  0  0  0  0  0  0
  161.8450  210.1930  150.6280 N   0  0  0  0  0  0  0  0  0  0  0  0
  160.7070  209.4280  155.1320 C   0  0  0  0  0  0  0  0  0  0  0  0
  160.3720  209.1960  156.4630 C   0  0  0  0  0  3  0  0  0  0  0  0
  162.0120  208.1100  149.3250 C   0  0  0  0  0  0  0  0  0  0  0  0
  162.3030  208.7460  148.2780 O   0  0  0  0  0  0  0  0  0  0  0  0
  161.3920  206.6040  151.7400 C   0  0  0  0  0  2  0  0  0  0  0  0
  160.3340  206.8100  155.9650 C   0  0  0  0  0  3  0  0  0  0  0  0
  161.2950  210.2260  152.8880 C   0  0  0  0  0  0  0  0  0  0  0  0
  160.9810  210.9200  154.3920 S   0  0  0  0  0  0  0  0  0  0  0  0
  161.0140  206.0730  150.3550 C   0  0  1  0  0  3  0  0  0  0  0  0
  160.6710  207.0630  154.6260 C   0  0  0  0  0  3  0  0  0  0  0  0
  161.9650  206.6120  149.2860 C   0  0  0  0  0  2  0  0  0  0  0  0
  161.7690  208.8280  150.5900 C   0  0  0  0  0  0  0  0  0  0  0  0
  160.8130  202.4630  149.1660 C   0  0  0  0  0  0  0  0  0  0  0  0
  160.9840  204.5780  150.3460 C   0  0  0  0  0  0  0  0  0  0  0  0
  160.8350  203.8610  149.1490 C   0  0  0  0  0  3  0  0  0  0  0  0
  160.6670  201.7560  147.9800 O   0  0  0  0  0  1  0  0  0  0  0  0
  161.1060  203.8860  151.5550 C   0  0  0  0  0  3  0  0  0  0  0  0
  160.9350  201.7770  150.3780 C   0  0  0  0  0  3  0  0  0  0  0  0
  161.0820  202.4890  151.5730 C   0  0  0  0  0  3  0  0  0  0  0  0
  1  4  1  0  0  0  0
  2  1  1  0  0  0  0
  3 13  1  0  0  0  0
  4 16  2  0  0  0  0
  4  7  1  0  0  0  0
  6  3  2  0  0  0  0
  7  8  2  0  0  0  0
  8  5  1  0  0  0  0
  9 18  1  0  0  0  0
 10  9  2  0  0  0  0
 11  2  1  0  0  0  0
 12  5  2  0  0  0  0
 13  1  2  0  0  0  0
 13 14  1  0  0  0  0
 14  7  1  0  0  0  0
 15 20  1  1  0  0  0
 15 11  1  0  0  0  0
 16 12  1  0  0  0  0
 17  9  1  0  0  0  0
 17 15  1  0  0  0  0
 18  6  1  0  0  0  0
 18  2  2  0  0  0  0
 19 24  1  0  0  0  0
 20 23  2  0  0  0  0
 21 19  2  0  0  0  0
 21 20  1  0  0  0  0
 22 19  1  0  0  0  0
 23 25  1  0  0  0  0
 24 25  2  0  0  0  0
M  END
>  <MODEL>
2

>  <REMARK>
 VINA RESULT:     -10.6      3.223      6.708
  Name = 
  1 active torsions:
  status: ('A' for Active; 'I' for Inactive)
    1  A    between atoms: C_6  and  C_20
                            x       y       z     vdW  Elec       q    Type
                         _______ _______ _______ _____ _____    ______ ____

>  <TORSDO>
F 1

$$$$
=
 OpenBabel11052422153D

 25 29  0  0  1  0  0  0  0  0999 V2000
  161.4670  206.1800  149.5250 C   0  0  0  0  0  0  0  0  0  0  0  0
  161.4350  207.2950  150.3770 C   0  0  0  0  0  0  0  0  0  0  0  0
  162.2480  207.5560  147.7290 N   0  0  0  0  0  0  0  0  0  0  0  0
  161.1310  204.8420  149.7970 C   0  0  0  0  0  0  0  0  0  0  0  0
  160.5660  202.1100  149.9540 C   0  0  0  0  0  3  0  0  0  0  0  0
  162.2150  208.6270  148.5290 N   0  0  0  0  0  0  0  0  0  0  0  0
  161.2950  204.0130  148.6880 C   0  0  0  0  0  0  0  0  0  0  0  0
  161.0200  202.6480  148.7410 C   0  0  0  0  0  3  0  0  0  0  0  0
  161.8120  209.7490  150.6840 C   0  0  0  0  0  0  0  0  0  0  0  0
  162.1640  210.8620  150.2110 O   0  0  0  0  0  0  0  0  0  0  0  0
  160.9440  207.2010  151.7960 C   0  0  0  0  0  2  0  0  0  0  0  0
  160.3970  202.9350  151.0800 C   0  0  0  0  0  3  0  0  0  0  0  0
  161.8810  206.3470  148.2130 C   0  0  0  0  0  0  0  0  0  0  0  0
  161.8500  204.8930  147.3600 S   0  0  0  0  0  0  0  0  0  0  0  0
  161.5860  208.2740  152.6780 C   0  0  1  0  0  3  0  0  0  0  0  0
  160.6800  204.3080  151.0090 C   0  0  0  0  0  3  0  0  0  0  0  0
  161.3420  209.6710  152.1050 C   0  0  0  0  0  2  0  0  0  0  0  0
  161.8150  208.5440  149.8340 C   0  0  0  0  0  0  0  0  0  0  0  0
  160.5950  209.1790  156.2400 C   0  0  0  0  0  0  0  0  0  0  0  0
  161.0910  208.1750  154.0860 C   0  0  0  0  0  0  0  0  0  0  0  0
  161.0640  209.2970  154.9290 C   0  0  0  0  0  3  0  0  0  0  0  0
  160.5680  210.2910  157.0710 O   0  0  0  0  0  1  0  0  0  0  0  0
  160.6470  206.9390  154.5670 C   0  0  0  0  0  3  0  0  0  0  0  0
  160.1520  207.9410  156.7160 C   0  0  0  0  0  3  0  0  0  0  0  0
  160.1780  206.8210  155.8790 C   0  0  0  0  0  3  0  0  0  0  0  0
  1  4  1  0  0  0  0
  1  2  2  0  0  0  0
  2 11  1  0  0  0  0
  3 13  2  0  0  0  0
  3  6  1  0  0  0  0
  4 16  1  0  0  0  0
  5 12  1  0  0  0  0
  6 18  2  0  0  0  0
  7  8  1  0  0  0  0
  7  4  2  0  0  0  0
  8  5  2  0  0  0  0
  9 17  1  0  0  0  0
 10  9  2  0  0  0  0
 11 15  1  0  0  0  0
 13  1  1  0  0  0  0
 14 13  1  0  0  0  0
 14  7  1  0  0  0  0
 15 20  1  1  0  0  0
 16 12  2  0  0  0  0
 17 15  1  0  0  0  0
 18  2  1  0  0  0  0
 18  9  1  0  0  0  0
 19 24  1  0  0  0  0
 19 22  1  0  0  0  0
 20 23  2  0  0  0  0
 20 21  1  0  0  0  0
 21 19  2  0  0  0  0
 23 25  1  0  0  0  0
 25 24  2  0  0  0  0
M  END
>  <MODEL>
3

>  <REMARK>
 VINA RESULT:     -10.5      1.149      1.532
  Name = 
  1 active torsions:
  status: ('A' for Active; 'I' for Inactive)
    1  A    between atoms: C_6  and  C_20
                            x       y       z     vdW  Elec       q    Type
                         _______ _______ _______ _____ _____    ______ ____

>  <TORSDO>
F 1

$$$$
=
 OpenBabel11052422153D

 25 29  0  0  1  0  0  0  0  0999 V2000
  161.5310  207.3190  151.2030 C   0  0  0  0  0  0  0  0  0  0  0  0
  161.2790  205.9760  150.8840 C   0  0  0  0  0  0  0  0  0  0  0  0
  161.4540  206.7930  153.5370 N   0  0  0  0  0  0  0  0  0  0  0  0
  161.7260  208.4160  150.3460 C   0  0  0  0  0  0  0  0  0  0  0  0
  162.1620  210.8150  148.9800 C   0  0  0  0  0  3  0  0  0  0  0  0
  161.2060  205.5120  153.2450 N   0  0  0  0  0  0  0  0  0  0  0  0
  161.9550  209.6040  151.0410 C   0  0  0  0  0  0  0  0  0  0  0  0
  162.1760  210.8120  150.3830 C   0  0  0  0  0  3  0  0  0  0  0  0
  160.8490  203.6440  151.6810 C   0  0  0  0  0  0  0  0  0  0  0  0
  160.7080  202.8280  152.6310 O   0  0  0  0  0  0  0  0  0  0  0  0
  161.1190  205.5110  149.4610 C   0  0  0  0  0  2  0  0  0  0  0  0
  161.9330  209.6240  148.2680 C   0  0  0  0  0  3  0  0  0  0  0  0
  161.6150  207.6890  152.5360 C   0  0  0  0  0  0  0  0  0  0  0  0
  161.9240  209.3380  152.7070 S   0  0  0  0  0  0  0  0  0  0  0  0
  161.5080  204.0380  149.3120 C   0  0  1  0  0  3  0  0  0  0  0  0
  161.7140  208.4160  148.9470 C   0  0  0  0  0  3  0  0  0  0  0  0
  160.7030  203.1600  150.2700 C   0  0  0  0  0  2  0  0  0  0  0  0
  161.1050  205.0700  151.9550 C   0  0  0  0  0  0  0  0  0  0  0  0
  161.3840  204.0160  145.5080 C   0  0  0  0  0  0  0  0  0  0  0  0
  161.3440  203.5840  147.8960 C   0  0  0  0  0  0  0  0  0  0  0  0
  161.5410  204.4650  146.8220 C   0  0  0  0  0  3  0  0  0  0  0  0
  161.5810  204.8890  144.4470 O   0  0  0  0  0  1  0  0  0  0  0  0
  160.9880  202.2550  147.6440 C   0  0  0  0  0  3  0  0  0  0  0  0
  161.0280  202.6860  145.2610 C   0  0  0  0  0  3  0  0  0  0  0  0
  160.8310  201.8060  146.3290 C   0  0  0  0  0  3  0  0  0  0  0  0
  1 13  1  0  0  0  0
  2  1  2  0  0  0  0
  2 18  1  0  0  0  0
  4  7  1  0  0  0  0
  4  1  1  0  0  0  0
  5  8  1  0  0  0  0
  6  3  1  0  0  0  0
  7 14  1  0  0  0  0
  8  7  2  0  0  0  0
  9 18  1  0  0  0  0
  9 10  2  0  0  0  0
 11  2  1  0  0  0  0
 12 16  1  0  0  0  0
 12  5  2  0  0  0  0
 13 14  1  0  0  0  0
 13  3  2  0  0  0  0
 15 20  1  6  0  0  0
 15 11  1  0  0  0  0
 15 17  1  0  0  0  0
 16  4  2  0  0  0  0
 17  9  1  0  0  0  0
 18  6  2  0  0  0  0
 19 21  1  0  0  0  0
 21 20  2  0  0  0  0
 22 19  1  0  0  0  0
 23 20  1  0  0  0  0
 24 19  2  0  0  0  0
 24 25  1  0  0  0  0
 25 23  2  0  0  0  0
M  END
>  <MODEL>
4

>  <REMARK>
 VINA RESULT:     -10.5      3.490      7.450
  Name = 
  1 active torsions:
  status: ('A' for Active; 'I' for Inactive)
    1  A    between atoms: C_6  and  C_20
                            x       y       z     vdW  Elec       q    Type
                         _______ _______ _______ _____ _____    ______ ____

>  <TORSDO>
F 1

$$$$
=
 OpenBabel11052422153D

 25 29  0  0  1  0  0  0  0  0999 V2000
  161.5470  207.9570  151.0170 C   0  0  0  0  0  0  0  0  0  0  0  0
  161.6660  207.0210  149.9780 C   0  0  0  0  0  0  0  0  0  0  0  0
  161.9540  209.7410  149.4730 N   0  0  0  0  0  0  0  0  0  0  0  0
  161.2860  207.7450  152.3820 C   0  0  0  0  0  0  0  0  0  0  0  0
  160.7860  207.7240  155.1310 C   0  0  0  0  0  3  0  0  0  0  0  0
  162.0770  208.8580  148.4770 N   0  0  0  0  0  0  0  0  0  0  0  0
  161.2380  208.9340  153.1090 C   0  0  0  0  0  0  0  0  0  0  0  0
  160.9900  208.9500  154.4800 C   0  0  0  0  0  3  0  0  0  0  0  0
  162.0760  206.5760  147.5500 C   0  0  0  0  0  0  0  0  0  0  0  0
  162.3130  207.0090  146.3910 O   0  0  0  0  0  0  0  0  0  0  0  0
  161.5760  205.5390  150.2260 C   0  0  0  0  0  2  0  0  0  0  0  0
  160.8310  206.5180  154.4090 C   0  0  0  0  0  3  0  0  0  0  0  0
  161.6920  209.3050  150.7270 C   0  0  0  0  0  0  0  0  0  0  0  0
  161.5110  210.2610  152.1040 S   0  0  0  0  0  0  0  0  0  0  0  0
  161.0820  204.7970  148.9820 C   0  0  1  0  0  3  0  0  0  0  0  0
  161.0810  206.5210  153.0280 C   0  0  0  0  0  3  0  0  0  0  0  0
  161.9720  205.0980  147.7760 C   0  0  0  0  0  2  0  0  0  0  0  0
  161.9500  207.5120  148.6830 C   0  0  0  0  0  0  0  0  0  0  0  0
  161.1190  201.0260  148.4680 C   0  0  0  0  0  0  0  0  0  0  0  0
  160.9970  203.3260  149.2360 C   0  0  0  0  0  0  0  0  0  0  0  0
  161.2010  202.3960  148.2040 C   0  0  0  0  0  3  0  0  0  0  0  0
  161.3220  200.1090  147.4460 O   0  0  0  0  0  1  0  0  0  0  0  0
  160.7100  202.8720  150.5280 C   0  0  0  0  0  3  0  0  0  0  0  0
  160.8310  200.5780  149.7610 C   0  0  0  0  0  3  0  0  0  0  0  0
  160.6280  201.5020  150.7910 C   0  0  0  0  0  3  0  0  0  0  0  0
  1  4  1  0  0  0  0
  2 11  1  0  0  0  0
  2  1  1  0  0  0  0
  3 13  1  0  0  0  0
  4 16  2  0  0  0  0
  4  7  1  0  0  0  0
  6 18  1  0  0  0  0
  6  3  2  0  0  0  0
  7  8  2  0  0  0  0
  8  5  1  0  0  0  0
  9 17  1  0  0  0  0
  9 18  1  0  0  0  0
 10  9  2  0  0  0  0
 12  5  2  0  0  0  0
 13  1  2  0  0  0  0
 13 14  1  0  0  0  0
 14  7  1  0  0  0  0
 15 20  1  1  0  0  0
 15 11  1  0  0  0  0
 16 12  1  0  0  0  0
 17 15  1  0  0  0  0
 18  2  2  0  0  0  0
 19 24  1  0  0  0  0
 20 23  2  0  0  0  0
 21 19  2  0  0  0  0
 21 20  1  0  0  0  0
 22 19  1  0  0  0  0
 23 25  1  0  0  0  0
 24 25  2  0  0  0  0
M  END
>  <MODEL>
5

>  <REMARK>
 VINA RESULT:     -10.4      2.886      6.433
  Name = 
  1 active torsions:
  status: ('A' for Active; 'I' for Inactive)
    1  A    between atoms: C_6  and  C_20
                            x       y       z     vdW  Elec       q    Type
                         _______ _______ _______ _____ _____    ______ ____

>  <TORSDO>
F 1

$$$$
=
 OpenBabel11052422153D

 25 29  0  0  1  0  0  0  0  0999 V2000
  161.1520  203.5370  148.2350 C   0  0  0  0  0  0  0  0  0  0  0  0
  161.1670  204.0090  149.5560 C   0  0  0  0  0  0  0  0  0  0  0  0
  160.6980  201.3210  149.0170 N   0  0  0  0  0  0  0  0  0  0  0  0
  161.3500  204.2420  147.0350 C   0  0  0  0  0  0  0  0  0  0  0  0
  161.6830  205.2900  144.4660 C   0  0  0  0  0  3  0  0  0  0  0  0
  160.7160  201.7570  150.2810 N   0  0  0  0  0  0  0  0  0  0  0  0
  161.2570  203.4230  145.9110 C   0  0  0  0  0  0  0  0  0  0  0  0
  161.4190  203.9210  144.6200 C   0  0  0  0  0  3  0  0  0  0  0  0
  160.9430  203.5090  151.9980 C   0  0  0  0  0  0  0  0  0  0  0  0
  160.7360  202.6790  152.9220 O   0  0  0  0  0  0  0  0  0  0  0  0
  161.4760  205.4450  149.8870 C   0  0  0  0  0  2  0  0  0  0  0  0
  161.7790  206.1280  145.5920 C   0  0  0  0  0  3  0  0  0  0  0  0
  160.9110  202.1920  148.0040 C   0  0  0  0  0  0  0  0  0  0  0  0
  160.9340  201.8280  146.3580 S   0  0  0  0  0  0  0  0  0  0  0  0
  160.8170  205.8660  151.2020 C   0  0  1  0  0  3  0  0  0  0  0  0
  161.6110  205.6080  146.8850 C   0  0  0  0  0  3  0  0  0  0  0  0
  161.2330  204.9380  152.3440 C   0  0  0  0  0  2  0  0  0  0  0  0
  160.9500  203.0690  150.5900 C   0  0  0  0  0  0  0  0  0  0  0  0
  161.8450  209.5140  150.8550 C   0  0  0  0  0  0  0  0  0  0  0  0
  161.1310  207.2920  151.5240 C   0  0  0  0  0  0  0  0  0  0  0  0
  161.5600  208.1850  150.5290 C   0  0  0  0  0  3  0  0  0  0  0  0
  162.2670  210.3950  149.8690 O   0  0  0  0  0  1  0  0  0  0  0  0
  160.9930  207.7400  152.8420 C   0  0  0  0  0  3  0  0  0  0  0  0
  161.7060  209.9560  152.1750 C   0  0  0  0  0  3  0  0  0  0  0  0
  161.2800  209.0690  153.1670 C   0  0  0  0  0  3  0  0  0  0  0  0
  1  2  2  0  0  0  0
  2 11  1  0  0  0  0
  2 18  1  0  0  0  0
  3  6  1  0  0  0  0
  4  1  1  0  0  0  0
  5  8  2  0  0  0  0
  5 12  1  0  0  0  0
  6 18  2  0  0  0  0
  7 14  1  0  0  0  0
  7  4  2  0  0  0  0
  8  7  1  0  0  0  0
  9 17  1  0  0  0  0
  9 10  2  0  0  0  0
 11 15  1  0  0  0  0
 12 16  2  0  0  0  0
 13  1  1  0  0  0  0
 13  3  2  0  0  0  0
 14 13  1  0  0  0  0
 15 20  1  1  0  0  0
 15 17  1  0  0  0  0
 16  4  1  0  0  0  0
 18  9  1  0  0  0  0
 19 24  1  0  0  0  0
 20 23  2  0  0  0  0
 21 19  2  0  0  0  0
 21 20  1  0  0  0  0
 22 19  1  0  0  0  0
 23 25  1  0  0  0  0
 24 25  2  0  0  0  0
M  END
>  <MODEL>
6

>  <REMARK>
 VINA RESULT:     -10.2      2.632      4.351
  Name = 
  1 active torsions:
  status: ('A' for Active; 'I' for Inactive)
    1  A    between atoms: C_6  and  C_20
                            x       y       z     vdW  Elec       q    Type
                         _______ _______ _______ _____ _____    ______ ____

>  <TORSDO>
F 1

$$$$
=
 OpenBabel11052422153D

 25 29  0  0  1  0  0  0  0  0999 V2000
  161.1010  203.5520  148.1120 C   0  0  0  0  0  0  0  0  0  0  0  0
  161.1290  203.9820  149.4470 C   0  0  0  0  0  0  0  0  0  0  0  0
  160.5760  201.3280  148.8240 N   0  0  0  0  0  0  0  0  0  0  0  0
  161.3240  204.2880  146.9350 C   0  0  0  0  0  0  0  0  0  0  0  0
  161.6940  205.4040  144.4000 C   0  0  0  0  0  3  0  0  0  0  0  0
  160.6060  201.7240  150.1010 N   0  0  0  0  0  0  0  0  0  0  0  0
  161.2060  203.5080  145.7850 C   0  0  0  0  0  0  0  0  0  0  0  0
  161.3860  204.0400  144.5110 C   0  0  0  0  0  3  0  0  0  0  0  0
  160.8860  203.4130  151.8720 C   0  0  0  0  0  0  0  0  0  0  0  0
  160.6500  202.5620  152.7700 O   0  0  0  0  0  0  0  0  0  0  0  0
  161.4830  205.3960  149.8230 C   0  0  0  0  0  2  0  0  0  0  0  0
  161.8140  206.2030  145.5510 C   0  0  0  0  0  3  0  0  0  0  0  0
  160.8180  202.2230  147.8390 C   0  0  0  0  0  0  0  0  0  0  0  0
  160.8310  201.9110  146.1820 S   0  0  0  0  0  0  0  0  0  0  0  0
  160.8350  205.7970  151.1500 C   0  0  1  0  0  3  0  0  0  0  0  0
  161.6280  205.6490  146.8280 C   0  0  0  0  0  3  0  0  0  0  0  0
  161.2200  204.8210  152.2630 C   0  0  0  0  0  2  0  0  0  0  0  0
  160.8810  203.0170  150.4510 C   0  0  0  0  0  0  0  0  0  0  0  0
  161.2050  209.0500  153.0910 C   0  0  0  0  0  0  0  0  0  0  0  0
  161.1940  207.2020  151.5170 C   0  0  0  0  0  0  0  0  0  0  0  0
  160.8560  207.7350  152.7710 C   0  0  0  0  0  3  0  0  0  0  0  0
  160.8700  209.5760  154.3310 O   0  0  0  0  0  1  0  0  0  0  0  0
  161.8800  207.9940  150.5910 C   0  0  0  0  0  3  0  0  0  0  0  0
  161.8910  209.8380  152.1610 C   0  0  0  0  0  3  0  0  0  0  0  0
  162.2280  209.3100  150.9110 C   0  0  0  0  0  3  0  0  0  0  0  0
  1  2  2  0  0  0  0
  2 11  1  0  0  0  0
  2 18  1  0  0  0  0
  3  6  1  0  0  0  0
  4  1  1  0  0  0  0
  5  8  2  0  0  0  0
  5 12  1  0  0  0  0
  6 18  2  0  0  0  0
  7 14  1  0  0  0  0
  7  4  2  0  0  0  0
  8  7  1  0  0  0  0
  9 17  1  0  0  0  0
  9 10  2  0  0  0  0
 11 15  1  0  0  0  0
 12 16  2  0  0  0  0
 13  1  1  0  0  0  0
 13  3  2  0  0  0  0
 14 13  1  0  0  0  0
 15 20  1  1  0  0  0
 15 17  1  0  0  0  0
 16  4  1  0  0  0  0
 18  9  1  0  0  0  0
 19 22  1  0  0  0  0
 20 21  2  0  0  0  0
 21 19  1  0  0  0  0
 23 25  2  0  0  0  0
 23 20  1  0  0  0  0
 24 19  2  0  0  0  0
 25 24  1  0  0  0  0
M  END
>  <MODEL>
7

>  <REMARK>
 VINA RESULT:     -10.1      2.653      4.252
  Name = 
  1 active torsions:
  status: ('A' for Active; 'I' for Inactive)
    1  A    between atoms: C_6  and  C_20
                            x       y       z     vdW  Elec       q    Type
                         _______ _______ _______ _____ _____    ______ ____

>  <TORSDO>
F 1

$$$$
=
 OpenBabel11052422153D

 25 29  0  0  1  0  0  0  0  0999 V2000
  161.4170  205.4730  149.0170 C   0  0  0  0  0  0  0  0  0  0  0  0
  161.4630  206.7540  149.5880 C   0  0  0  0  0  0  0  0  0  0  0  0
  162.0480  206.3820  146.8940 N   0  0  0  0  0  0  0  0  0  0  0  0
  161.1010  204.2420  149.6170 C   0  0  0  0  0  0  0  0  0  0  0  0
  160.5400  201.6320  150.4450 C   0  0  0  0  0  3  0  0  0  0  0  0
  162.0880  207.6080  147.4250 N   0  0  0  0  0  0  0  0  0  0  0  0
  161.1660  203.1770  148.7190 C   0  0  0  0  0  0  0  0  0  0  0  0
  160.8920  201.8670  149.1080 C   0  0  0  0  0  3  0  0  0  0  0  0
  161.8740  209.2040  149.2890 C   0  0  0  0  0  0  0  0  0  0  0  0
  162.1890  210.1700  148.5450 O   0  0  0  0  0  0  0  0  0  0  0  0
  161.0940  207.0000  151.0270 C   0  0  0  0  0  2  0  0  0  0  0  0
  160.4710  202.6980  151.3610 C   0  0  0  0  0  3  0  0  0  0  0  0
  161.7190  205.3250  147.6720 C   0  0  0  0  0  0  0  0  0  0  0  0
  161.6090  203.7150  147.1830 S   0  0  0  0  0  0  0  0  0  0  0  0
  161.8140  208.2320  151.5810 C   0  0  1  0  0  3  0  0  0  0  0  0
  160.7530  204.0110  150.9520 C   0  0  0  0  0  3  0  0  0  0  0  0
  161.5270  209.4650  150.7230 C   0  0  0  0  0  2  0  0  0  0  0  0
  161.8000  207.8360  148.7420 C   0  0  0  0  0  0  0  0  0  0  0  0
  160.6670  207.6660  155.1660 C   0  0  0  0  0  0  0  0  0  0  0  0
  161.4400  208.4700  153.0100 C   0  0  0  0  0  0  0  0  0  0  0  0
  161.0080  207.4190  153.8340 C   0  0  0  0  0  3  0  0  0  0  0  0
  160.2410  206.6250  155.9790 O   0  0  0  0  0  1  0  0  0  0  0  0
  161.5250  209.7650  153.5300 C   0  0  0  0  0  3  0  0  0  0  0  0
  160.7540  208.9640  155.6810 C   0  0  0  0  0  3  0  0  0  0  0  0
  161.1830  210.0130  154.8630 C   0  0  0  0  0  3  0  0  0  0  0  0
  1  2  1  0  0  0  0
  1  4  1  0  0  0  0
  2 11  1  0  0  0  0
  3  6  2  0  0  0  0
  3 13  1  0  0  0  0
  4 16  1  0  0  0  0
  5 12  1  0  0  0  0
  6 18  1  0  0  0  0
  7  8  1  0  0  0  0
  7  4  2  0  0  0  0
  8  5  2  0  0  0  0
  9 17  1  0  0  0  0
 10  9  2  0  0  0  0
 11 15  1  0  0  0  0
 13  1  2  0  0  0  0
 14 13  1  0  0  0  0
 14  7  1  0  0  0  0
 15 20  1  1  0  0  0
 16 12  2  0  0  0  0
 17 15  1  0  0  0  0
 18  9  1  0  0  0  0
 18  2  2  0  0  0  0
 19 24  1  0  0  0  0
 19 22  1  0  0  0  0
 20 23  2  0  0  0  0
 20 21  1  0  0  0  0
 21 19  2  0  0  0  0
 23 25  1  0  0  0  0
 25 24  2  0  0  0  0
M  END
>  <MODEL>
8

>  <REMARK>
 VINA RESULT:     -10.1      1.019      1.457
  Name = 
  1 active torsions:
  status: ('A' for Active; 'I' for Inactive)
    1  A    between atoms: C_6  and  C_20
                            x       y       z     vdW  Elec       q    Type
                         _______ _______ _______ _____ _____    ______ ____

>  <TORSDO>
F 1

$$$$
=
 OpenBabel11052422153D

 25 29  0  0  1  0  0  0  0  0999 V2000
  161.1720  203.8170  148.7270 C   0  0  0  0  0  0  0  0  0  0  0  0
  161.2370  204.5900  149.8970 C   0  0  0  0  0  0  0  0  0  0  0  0
  160.8300  201.8410  150.0350 N   0  0  0  0  0  0  0  0  0  0  0  0
  161.2860  204.2210  147.3860 C   0  0  0  0  0  0  0  0  0  0  0  0
  161.4560  204.6360  144.6280 C   0  0  0  0  0  3  0  0  0  0  0  0
  160.8980  202.5660  151.1570 N   0  0  0  0  0  0  0  0  0  0  0  0
  161.1640  203.1570  146.4940 C   0  0  0  0  0  0  0  0  0  0  0  0
  161.2450  203.3370  145.1150 C   0  0  0  0  0  3  0  0  0  0  0  0
  161.1520  204.6790  152.3960 C   0  0  0  0  0  0  0  0  0  0  0  0
  161.0190  204.0880  153.5010 O   0  0  0  0  0  0  0  0  0  0  0  0
  161.5150  206.0690  149.8620 C   0  0  0  0  0  2  0  0  0  0  0  0
  161.5800  205.7190  145.5170 C   0  0  0  0  0  3  0  0  0  0  0  0
  160.9640  202.4510  148.8340 C   0  0  0  0  0  0  0  0  0  0  0  0
  160.9160  201.7080  147.3220 S   0  0  0  0  0  0  0  0  0  0  0  0
  160.9090  206.7760  151.0760 C   0  0  1  0  0  3  0  0  0  0  0  0
  161.4950  205.5180  146.9030 C   0  0  0  0  0  3  0  0  0  0  0  0
  161.4120  206.1550  152.3790 C   0  0  0  0  0  2  0  0  0  0  0  0
  161.1030  203.9170  151.1340 C   0  0  0  0  0  0  0  0  0  0  0  0
  161.9760  210.2250  149.8690 C   0  0  0  0  0  0  0  0  0  0  0  0
  161.1920  208.2450  151.0340 C   0  0  0  0  0  0  0  0  0  0  0  0
  161.7220  208.8510  149.8840 C   0  0  0  0  0  3  0  0  0  0  0  0
  162.4990  210.8220  148.7300 O   0  0  0  0  0  1  0  0  0  0  0  0
  160.9210  209.0240  152.1630 C   0  0  0  0  0  3  0  0  0  0  0  0
  161.7030  210.9990  151.0010 C   0  0  0  0  0  3  0  0  0  0  0  0
  161.1750  210.3980  152.1480 C   0  0  0  0  0  3  0  0  0  0  0  0
  1 13  1  0  0  0  0
  1  2  2  0  0  0  0
  2 18  1  0  0  0  0
  3  6  1  0  0  0  0
  4  1  1  0  0  0  0
  5  8  2  0  0  0  0
  5 12  1  0  0  0  0
  7 14  1  0  0  0  0
  7  4  2  0  0  0  0
  8  7  1  0  0  0  0
  9 10  2  0  0  0  0
 11  2  1  0  0  0  0
 11 15  1  0  0  0  0
 12 16  2  0  0  0  0
 13  3  2  0  0  0  0
 14 13  1  0  0  0  0
 15 20  1  1  0  0  0
 15 17  1  0  0  0  0
 16  4  1  0  0  0  0
 17  9  1  0  0  0  0
 18  6  2  0  0  0  0
 18  9  1  0  0  0  0
 19 21  2  0  0  0  0
 19 24  1  0  0  0  0
 20 23  2  0  0  0  0
 21 20  1  0  0  0  0
 22 19  1  0  0  0  0
 24 25  2  0  0  0  0
 25 23  1  0  0  0  0
M  END
>  <MODEL>
9

>  <REMARK>
 VINA RESULT:      -9.6      2.591      4.379
  Name = 
  1 active torsions:
  status: ('A' for Active; 'I' for Inactive)
    1  A    between atoms: C_6  and  C_20
                            x       y       z     vdW  Elec       q    Type
                         _______ _______ _______ _____ _____    ______ ____

>  <TORSDO>
F 1

$$$$
