=
 OpenBabel11052422533D

 28 31  0  0  1  0  0  0  0  0999 V2000
  161.9680  210.2870  152.4520 C   0  0  0  0  0  2  0  0  0  0  0  0
  160.9780  206.3050  153.1850 C   0  0  0  0  0  3  0  0  0  0  0  0
  161.5300  207.2630  150.3220 C   0  0  0  0  0  3  0  0  0  0  0  0
  160.7510  208.6630  153.7460 C   0  0  2  0  0  3  0  0  0  0  0  0
  160.7490  205.0180  151.0950 C   0  0  0  0  0  0  0  0  0  0  0  0
  161.1100  207.5700  152.7760 C   0  0  0  0  0  0  0  0  0  0  0  0
  162.2860  209.3390  151.2910 C   0  0  0  0  0  2  0  0  0  0  0  0
  160.8640  205.9550  150.1570 C   0  0  0  0  0  3  0  0  0  0  0  0
  160.1450  210.8080  155.3570 C   0  0  2  0  0  3  0  0  0  0  0  0
  160.6680  209.9510  153.0320 N   0  0  1  0  0  0  0  0  0  0  0  0
  161.6900  207.9640  151.4550 C   0  0  0  0  0  0  0  0  0  0  0  0
  161.7740  210.2120  155.9030 S   0  0  0  0  0  0  0  0  0  0  0  0
  160.0900  203.8720  150.7990 F   0  0  0  0  0  0  0  0  0  0  0  0
  161.4480  205.1230  152.4060 C   0  0  0  0  0  2  0  0  0  0  0  0
  161.7630  208.6780  154.9070 C   0  0  0  0  0  2  0  0  0  0  0  0
  160.1690  211.0760  153.8430 C   0  0  1  0  0  3  0  0  0  0  0  0
  158.6510  211.8440  157.2610 O   0  0  0  0  0  1  0  0  0  0  0  0
  161.0660  212.6200  157.2480 O   0  0  0  0  0  1  0  0  0  0  0  0
  159.7070  212.3110  156.2680 S   0  0  0  0  0  3  0  0  0  0  0  0
  158.8050  211.5570  153.3230 C   0  0  2  0  0  3  0  0  0  0  0  0
  158.6350  214.2050  153.4730 C   0  0  0  0  0  1  0  0  0  0  0  0
  158.1600  212.9760  151.3110 C   0  0  0  0  0  2  0  0  0  0  0  0
  158.8550  212.9380  152.6530 C   0  0  2  0  0  0  0  0  0  0  0  0
  159.6790  213.0290  151.3740 C   0  0  2  0  0  3  0  0  0  0  0  0
  160.1100  214.3370  151.1410 O   0  0  0  0  0  1  0  0  0  0  0  0
  157.7660  211.4960  154.4360 C   0  0  0  0  0  2  0  0  0  0  0  0
  155.8140  212.3600  154.6490 O   0  0  0  0  0  1  0  0  0  0  0  0
  156.4800  211.5120  153.8940 O   0  0  0  0  0  0  0  0  0  0  0  0
  3 11  2  0  0  0  0
  4 15  1  1  0  0  0
  5 14  1  0  0  0  0
  6  2  2  0  0  0  0
  6  4  1  0  0  0  0
  7 11  1  0  0  0  0
  7  1  1  0  0  0  0
  8  3  1  0  0  0  0
  8  5  2  0  0  0  0
  9 12  1  0  0  0  0
  9 19  1  1  0  0  0
 10  1  1  1  0  0  0
 10  4  1  0  0  0  0
 10 16  1  0  0  0  0
 11  6  1  0  0  0  0
 13  5  1  0  0  0  0
 14  2  1  0  0  0  0
 15 12  1  0  0  0  0
 16 20  1  6  0  0  0
 16  9  1  0  0  0  0
 19 18  1  0  0  0  0
 19 17  1  0  0  0  0
 20 26  1  1  0  0  0
 22 24  1  0  0  0  0
 22 23  1  0  0  0  0
 23 20  1  0  0  0  0
 23 21  1  1  0  0  0
 24 25  1  1  0  0  0
 24 23  1  0  0  0  0
 28 26  1  0  0  0  0
 28 27  1  0  0  0  0
M  END
>  <MODEL>
1

>  <REMARK>
 VINA RESULT:      -6.4      0.000      0.000
  Name = 
  5 active torsions:
  status: ('A' for Active; 'I' for Inactive)
    1  A    between atoms: C_1  and  C_7
    2  A    between atoms: C_1  and  C_26
    3  A    between atoms: C_1  and  C_27
    4  A    between atoms: O_11  and  C_26
    5  A    between atoms: C_16  and  S_21
                            x       y       z     vdW  Elec       q    Type
                         _______ _______ _______ _____ _____    ______ ____

>  <TORSDO>
F 5

$$$$
=
 OpenBabel11052422533D

 28 31  0  0  1  0  0  0  0  0999 V2000
  161.8860  210.7310  154.5000 C   0  0  0  0  0  2  0  0  0  0  0  0
  158.1560  212.4680  153.8300 C   0  0  0  0  0  3  0  0  0  0  0  0
  159.3960  212.4940  156.6370 C   0  0  0  0  0  3  0  0  0  0  0  0
  159.7940  210.7420  153.3110 C   0  0  2  0  0  3  0  0  0  0  0  0
  157.1330  213.2750  155.9220 C   0  0  0  0  0  0  0  0  0  0  0  0
  159.2350  211.7900  154.2350 C   0  0  0  0  0  0  0  0  0  0  0  0
  161.4220  211.6690  155.6190 C   0  0  0  0  0  2  0  0  0  0  0  0
  157.9760  212.8350  156.8530 C   0  0  0  0  0  3  0  0  0  0  0  0
  160.9700  208.7830  151.7800 C   0  0  2  0  0  3  0  0  0  0  0  0
  160.7680  209.9080  154.0400 N   0  0  1  0  0  0  0  0  0  0  0  0
  159.9770  212.0810  155.5010 C   0  0  0  0  0  0  0  0  0  0  0  0
  161.5220  210.3690  151.0810 S   0  0  0  0  0  0  0  0  0  0  0  0
  155.8480  213.5280  156.2680 F   0  0  0  0  0  0  0  0  0  0  0  0
  157.5900  213.6420  154.5530 C   0  0  0  0  0  2  0  0  0  0  0  0
  160.3890  211.4180  152.0620 C   0  0  0  0  0  2  0  0  0  0  0  0
  161.2710  208.7450  153.2870 C   0  0  1  0  0  3  0  0  0  0  0  0
  160.6570  206.6540  150.2640 O   0  0  0  0  0  1  0  0  0  0  0  0
  162.5910  208.1610  149.6150 O   0  0  0  0  0  1  0  0  0  0  0  0
  161.7960  207.4170  150.9250 S   0  0  0  0  0  3  0  0  0  0  0  0
  160.7980  207.4340  153.9350 C   0  0  2  0  0  3  0  0  0  0  0  0
  161.8610  207.3810  156.3690 C   0  0  0  0  0  1  0  0  0  0  0  0
  159.4300  206.7880  155.9820 C   0  0  0  0  0  2  0  0  0  0  0  0
  160.6440  207.5220  155.4600 C   0  0  2  0  0  0  0  0  0  0  0  0
  159.4410  208.3090  155.9660 C   0  0  2  0  0  3  0  0  0  0  0  0
  159.6570  208.7870  157.2610 O   0  0  0  0  0  1  0  0  0  0  0  0
  161.7020  206.2820  153.5140 C   0  0  0  0  0  2  0  0  0  0  0  0
  161.4040  204.4050  152.5210 O   0  0  0  0  0  1  0  0  0  0  0  0
  161.0060  205.0750  153.5810 O   0  0  0  0  0  0  0  0  0  0  0  0
  1  7  1  0  0  0  0
  2  6  2  0  0  0  0
  2 14  1  0  0  0  0
  3  8  1  0  0  0  0
  4 15  1  6  0  0  0
  4 10  1  0  0  0  0
  4  6  1  0  0  0  0
  5 13  1  0  0  0  0
  5  8  2  0  0  0  0
  6 11  1  0  0  0  0
  9 19  1  6  0  0  0
  9 16  1  0  0  0  0
 10  1  1  6  0  0  0
 11  7  1  0  0  0  0
 11  3  2  0  0  0  0
 12  9  1  0  0  0  0
 12 15  1  0  0  0  0
 14  5  1  0  0  0  0
 16 20  1  1  0  0  0
 16 10  1  0  0  0  0
 17 19  1  0  0  0  0
 18 19  1  0  0  0  0
 20 26  1  1  0  0  0
 20 23  1  0  0  0  0
 23 24  1  0  0  0  0
 23 22  1  0  0  0  0
 23 21  1  1  0  0  0
 24 22  1  0  0  0  0
 24 25  1  1  0  0  0
 26 28  1  0  0  0  0
 27 28  1  0  0  0  0
M  END
>  <MODEL>
2

>  <REMARK>
 VINA RESULT:      -4.8      4.270      7.171
  Name = 
  5 active torsions:
  status: ('A' for Active; 'I' for Inactive)
    1  A    between atoms: C_1  and  C_7
    2  A    between atoms: C_1  and  C_26
    3  A    between atoms: C_1  and  C_27
    4  A    between atoms: O_11  and  C_26
    5  A    between atoms: C_16  and  S_21
                            x       y       z     vdW  Elec       q    Type
                         _______ _______ _______ _____ _____    ______ ____

>  <TORSDO>
F 5

$$$$
=
 OpenBabel11052422533D

 28 31  0  0  1  0  0  0  0  0999 V2000
  161.7700  210.8190  152.9010 C   0  0  0  0  0  2  0  0  0  0  0  0
  161.0380  206.8940  154.0960 C   0  0  0  0  0  3  0  0  0  0  0  0
  161.3560  207.5740  151.1200 C   0  0  0  0  0  3  0  0  0  0  0  0
  160.7250  209.2850  154.4320 C   0  0  2  0  0  3  0  0  0  0  0  0
  160.7440  205.3890  152.1660 C   0  0  0  0  0  0  0  0  0  0  0  0
  161.0780  208.1150  153.5540 C   0  0  0  0  0  0  0  0  0  0  0  0
  162.0630  209.7720  151.8220 C   0  0  0  0  0  2  0  0  0  0  0  0
  160.7500  206.2280  151.1330 C   0  0  0  0  0  3  0  0  0  0  0  0
  160.1120  211.5550  155.8570 C   0  0  2  0  0  3  0  0  0  0  0  0
  160.5300  210.4870  153.6000 N   0  0  1  0  0  0  0  0  0  0  0  0
  161.5510  208.3950  152.1630 C   0  0  0  0  0  0  0  0  0  0  0  0
  161.8010  211.0930  156.3480 S   0  0  0  0  0  0  0  0  0  0  0  0
  160.1280  204.1890  152.0330 F   0  0  0  0  0  0  0  0  0  0  0  0
  161.5180  205.6610  153.4090 C   0  0  0  0  0  2  0  0  0  0  0  0
  161.8060  209.4660  155.5130 C   0  0  0  0  0  2  0  0  0  0  0  0
  160.0250  211.6650  154.3260 C   0  0  1  0  0  3  0  0  0  0  0  0
  160.9560  213.6170  157.2600 O   0  0  0  0  0  1  0  0  0  0  0  0
  159.4050  214.1880  155.3370 O   0  0  0  0  0  1  0  0  0  0  0  0
  159.6550  213.1230  156.6410 S   0  0  0  0  0  3  0  0  0  0  0  0
  158.6080  212.0280  153.8560 C   0  0  2  0  0  3  0  0  0  0  0  0
  157.6400  209.9520  155.2030 C   0  0  0  0  0  1  0  0  0  0  0  0
  156.1070  211.6960  154.1940 C   0  0  0  0  0  2  0  0  0  0  0  0
  157.4970  211.3850  154.6990 C   0  0  2  0  0  0  0  0  0  0  0  0
  156.6060  212.3470  155.4760 C   0  0  2  0  0  3  0  0  0  0  0  0
  156.0200  211.7180  156.5760 O   0  0  0  0  0  1  0  0  0  0  0  0
  158.4510  211.7240  152.3710 C   0  0  0  0  0  2  0  0  0  0  0  0
  159.2680  213.0820  150.9260 O   0  0  0  0  0  1  0  0  0  0  0  0
  158.1940  212.8980  151.6640 O   0  0  0  0  0  0  0  0  0  0  0  0
  3  8  1  0  0  0  0
  3 11  2  0  0  0  0
  4 15  1  1  0  0  0
  5 14  1  0  0  0  0
  6  2  2  0  0  0  0
  6  4  1  0  0  0  0
  7 11  1  0  0  0  0
  7  1  1  0  0  0  0
  8  5  2  0  0  0  0
  9 12  1  0  0  0  0
  9 19  1  1  0  0  0
 10  1  1  1  0  0  0
 10 16  1  0  0  0  0
 10  4  1  0  0  0  0
 11  6  1  0  0  0  0
 13  5  1  0  0  0  0
 14  2  1  0  0  0  0
 15 12  1  0  0  0  0
 16 20  1  1  0  0  0
 16  9  1  0  0  0  0
 18 19  1  0  0  0  0
 19 17  1  0  0  0  0
 20 26  1  6  0  0  0
 20 23  1  0  0  0  0
 22 23  1  0  0  0  0
 22 24  1  0  0  0  0
 23 21  1  1  0  0  0
 23 24  1  0  0  0  0
 24 25  1  1  0  0  0
 27 28  1  0  0  0  0
 28 26  1  0  0  0  0
M  END
>  <MODEL>
3

>  <REMARK>
 VINA RESULT:      -4.5      1.340      2.665
  Name = 
  5 active torsions:
  status: ('A' for Active; 'I' for Inactive)
    1  A    between atoms: C_1  and  C_7
    2  A    between atoms: C_1  and  C_26
    3  A    between atoms: C_1  and  C_27
    4  A    between atoms: O_11  and  C_26
    5  A    between atoms: C_16  and  S_21
                            x       y       z     vdW  Elec       q    Type
                         _______ _______ _______ _____ _____    ______ ____

>  <TORSDO>
F 5

$$$$
=
 OpenBabel11052422533D

 28 31  0  0  1  0  0  0  0  0999 V2000
  162.3440  209.3590  152.0990 C   0  0  0  0  0  2  0  0  0  0  0  0
  160.7950  205.4920  151.9730 C   0  0  0  0  0  3  0  0  0  0  0  0
  161.8850  206.8080  149.4250 C   0  0  0  0  0  3  0  0  0  0  0  0
  160.7620  207.7380  152.9130 C   0  0  2  0  0  3  0  0  0  0  0  0
  160.7380  204.6020  149.6750 C   0  0  0  0  0  0  0  0  0  0  0  0
  161.1350  206.7750  151.8180 C   0  0  0  0  0  0  0  0  0  0  0  0
  162.7230  208.5740  150.8390 C   0  0  0  0  0  2  0  0  0  0  0  0
  161.1040  205.6520  148.9420 C   0  0  0  0  0  3  0  0  0  0  0  0
  160.1740  209.6610  154.7880 C   0  0  2  0  0  3  0  0  0  0  0  0
  160.9410  209.1220  152.4360 N   0  0  1  0  0  0  0  0  0  0  0  0
  161.9510  207.2890  150.6750 C   0  0  0  0  0  0  0  0  0  0  0  0
  161.6190  208.7600  155.4260 S   0  0  0  0  0  0  0  0  0  0  0  0
  160.0030  203.6230  149.0960 F   0  0  0  0  0  0  0  0  0  0  0  0
  161.2360  204.3960  151.0630 C   0  0  0  0  0  2  0  0  0  0  0  0
  161.5800  207.4230  154.1790 C   0  0  0  0  0  2  0  0  0  0  0  0
  160.4590  210.1610  153.3630 C   0  0  1  0  0  3  0  0  0  0  0  0
  159.6440  210.3960  157.2600 O   0  0  0  0  0  1  0  0  0  0  0  0
  161.2390  211.9170  156.0040 O   0  0  0  0  0  1  0  0  0  0  0  0
  159.7810  211.0440  155.8890 S   0  0  0  0  0  3  0  0  0  0  0  0
  159.2560  210.9080  152.7640 C   0  0  2  0  0  3  0  0  0  0  0  0
  161.0070  211.9780  151.0760 C   0  0  0  0  0  1  0  0  0  0  0  0
  159.2570  213.3970  152.2320 C   0  0  0  0  0  2  0  0  0  0  0  0
  159.6500  212.0120  151.7720 C   0  0  2  0  0  0  0  0  0  0  0  0
  158.4970  212.7390  151.0900 C   0  0  2  0  0  3  0  0  0  0  0  0
  158.9000  213.3010  149.8770 O   0  0  0  0  0  1  0  0  0  0  0  0
  158.3530  211.4290  153.8750 C   0  0  0  0  0  2  0  0  0  0  0  0
  156.3580  211.5510  154.6520 O   0  0  0  0  0  1  0  0  0  0  0  0
  157.0340  211.0410  153.6450 O   0  0  0  0  0  0  0  0  0  0  0  0
  3 11  2  0  0  0  0
  4 15  1  1  0  0  0
  5 14  1  0  0  0  0
  6  2  2  0  0  0  0
  6  4  1  0  0  0  0
  7  1  1  0  0  0  0
  8  3  1  0  0  0  0
  8  5  2  0  0  0  0
  9 12  1  0  0  0  0
  9 19  1  1  0  0  0
 10  1  1  1  0  0  0
 10  4  1  0  0  0  0
 10 16  1  0  0  0  0
 11  7  1  0  0  0  0
 11  6  1  0  0  0  0
 13  5  1  0  0  0  0
 14  2  1  0  0  0  0
 15 12  1  0  0  0  0
 16 20  1  6  0  0  0
 16  9  1  0  0  0  0
 19 18  1  0  0  0  0
 19 17  1  0  0  0  0
 20 26  1  1  0  0  0
 23 21  1  6  0  0  0
 23 22  1  0  0  0  0
 23 20  1  0  0  0  0
 24 25  1  6  0  0  0
 24 23  1  0  0  0  0
 24 22  1  0  0  0  0
 28 26  1  0  0  0  0
 28 27  1  0  0  0  0
M  END
>  <MODEL>
4

>  <REMARK>
 VINA RESULT:      -4.2      1.193      1.509
  Name = 
  5 active torsions:
  status: ('A' for Active; 'I' for Inactive)
    1  A    between atoms: C_1  and  C_7
    2  A    between atoms: C_1  and  C_26
    3  A    between atoms: C_1  and  C_27
    4  A    between atoms: O_11  and  C_26
    5  A    between atoms: C_16  and  S_21
                            x       y       z     vdW  Elec       q    Type
                         _______ _______ _______ _____ _____    ______ ____

>  <TORSDO>
F 5

$$$$
=
 OpenBabel11052422533D

 28 31  0  0  1  0  0  0  0  0999 V2000
  162.6030  210.4160  152.6230 C   0  0  0  0  0  2  0  0  0  0  0  0
  160.5470  207.0030  151.3970 C   0  0  0  0  0  3  0  0  0  0  0  0
  162.2590  208.5830  149.3990 C   0  0  0  0  0  3  0  0  0  0  0  0
  160.6790  208.9820  152.8100 C   0  0  2  0  0  3  0  0  0  0  0  0
  160.7730  206.6200  148.9730 C   0  0  0  0  0  0  0  0  0  0  0  0
  161.0960  208.2070  151.5890 C   0  0  0  0  0  0  0  0  0  0  0  0
  163.0810  209.8450  151.2840 C   0  0  0  0  0  2  0  0  0  0  0  0
  161.4150  207.7100  148.5590 C   0  0  0  0  0  3  0  0  0  0  0  0
  160.0550  210.5630  154.9720 C   0  0  2  0  0  3  0  0  0  0  0  0
  161.1430  210.3770  152.6930 N   0  0  1  0  0  0  0  0  0  0  0  0
  162.1700  208.7820  150.7230 C   0  0  0  0  0  0  0  0  0  0  0  0
  161.2130  209.3040  155.5870 S   0  0  0  0  0  0  0  0  0  0  0  0
  160.0160  205.9290  148.0860 F   0  0  0  0  0  0  0  0  0  0  0  0
  160.9780  206.0510  150.3340 C   0  0  0  0  0  2  0  0  0  0  0  0
  161.2010  208.2750  154.0750 C   0  0  0  0  0  2  0  0  0  0  0  0
  160.6620  211.2790  153.7540 C   0  0  1  0  0  3  0  0  0  0  0  0
  158.8140  210.9520  157.2610 O   0  0  0  0  0  1  0  0  0  0  0  0
  161.1530  211.9240  157.1270 O   0  0  0  0  0  1  0  0  0  0  0  0
  159.6800  211.7450  156.2910 S   0  0  0  0  0  3  0  0  0  0  0  0
  159.7090  212.3380  153.1770 C   0  0  2  0  0  3  0  0  0  0  0  0
  157.6560  210.6850  153.5120 C   0  0  0  0  0  1  0  0  0  0  0  0
  157.3000  213.1240  152.9330 C   0  0  0  0  0  2  0  0  0  0  0  0
  158.2340  212.0960  153.5310 C   0  0  2  0  0  0  0  0  0  0  0  0
  157.5830  213.1420  154.4280 C   0  0  2  0  0  3  0  0  0  0  0  0
  156.4900  212.6080  155.1150 O   0  0  0  0  0  1  0  0  0  0  0  0
  159.9240  212.4780  151.6750 C   0  0  0  0  0  2  0  0  0  0  0  0
  159.0600  213.6510  150.1010 O   0  0  0  0  0  1  0  0  0  0  0  0
  159.6510  213.7840  151.2690 O   0  0  0  0  0  0  0  0  0  0  0  0
  2  6  2  0  0  0  0
  3 11  2  0  0  0  0
  4 15  1  1  0  0  0
  5 14  1  0  0  0  0
  6  4  1  0  0  0  0
  7  1  1  0  0  0  0
  8  5  2  0  0  0  0
  8  3  1  0  0  0  0
  9 12  1  0  0  0  0
  9 19  1  1  0  0  0
 10  1  1  1  0  0  0
 10  4  1  0  0  0  0
 10 16  1  0  0  0  0
 11  7  1  0  0  0  0
 11  6  1  0  0  0  0
 13  5  1  0  0  0  0
 14  2  1  0  0  0  0
 15 12  1  0  0  0  0
 16 20  1  6  0  0  0
 16  9  1  0  0  0  0
 19 18  1  0  0  0  0
 19 17  1  0  0  0  0
 20 26  1  6  0  0  0
 20 23  1  0  0  0  0
 22 23  1  0  0  0  0
 22 24  1  0  0  0  0
 23 21  1  1  0  0  0
 23 24  1  0  0  0  0
 24 25  1  1  0  0  0
 27 28  1  0  0  0  0
 28 26  1  0  0  0  0
M  END
>  <MODEL>
5

>  <REMARK>
 VINA RESULT:      -3.7      1.304      2.546
  Name = 
  5 active torsions:
  status: ('A' for Active; 'I' for Inactive)
    1  A    between atoms: C_1  and  C_7
    2  A    between atoms: C_1  and  C_26
    3  A    between atoms: C_1  and  C_27
    4  A    between atoms: O_11  and  C_26
    5  A    between atoms: C_16  and  S_21
                            x       y       z     vdW  Elec       q    Type
                         _______ _______ _______ _____ _____    ______ ____

>  <TORSDO>
F 5

$$$$
=
 OpenBabel11052422533D

 28 31  0  0  1  0  0  0  0  0999 V2000
  163.1430  205.9240  150.7090 C   0  0  0  0  0  2  0  0  0  0  0  0
  160.3400  208.5520  152.3260 C   0  0  0  0  0  3  0  0  0  0  0  0
  161.9160  206.6520  154.1490 C   0  0  0  0  0  3  0  0  0  0  0  0
  161.0640  207.1170  150.4960 C   0  0  2  0  0  3  0  0  0  0  0  0
  160.0600  208.2130  154.7510 C   0  0  0  0  0  0  0  0  0  0  0  0
  161.1150  207.5320  151.9420 C   0  0  0  0  0  0  0  0  0  0  0  0
  163.2680  206.1180  152.2240 C   0  0  0  0  0  2  0  0  0  0  0  0
  160.7980  207.1300  154.9860 C   0  0  0  0  0  3  0  0  0  0  0  0
  161.1190  206.1970  147.9050 C   0  0  2  0  0  3  0  0  0  0  0  0
  161.7340  205.8140  150.3310 N   0  0  1  0  0  0  0  0  0  0  0  0
  162.1010  206.8510  152.8360 C   0  0  0  0  0  0  0  0  0  0  0  0
  162.1310  207.7070  147.9250 S   0  0  0  0  0  0  0  0  0  0  0  0
  159.0490  208.5150  155.6020 F   0  0  0  0  0  0  0  0  0  0  0  0
  160.4020  209.1840  153.6750 C   0  0  0  0  0  2  0  0  0  0  0  0
  161.6720  208.2270  149.6170 C   0  0  0  0  0  2  0  0  0  0  0  0
  161.6140  205.2230  148.9870 C   0  0  1  0  0  3  0  0  0  0  0  0
  160.2320  206.2590  145.4270 O   0  0  0  0  0  1  0  0  0  0  0  0
  162.7280  205.8740  145.6670 O   0  0  0  0  0  1  0  0  0  0  0  0
  161.1960  205.4310  146.2660 S   0  0  0  0  0  3  0  0  0  0  0  0
  160.7720  203.9380  149.0310 C   0  0  2  0  0  3  0  0  0  0  0  0
  161.9820  202.2390  150.6780 C   0  0  0  0  0  1  0  0  0  0  0  0
  159.4970  202.6950  150.8510 C   0  0  0  0  0  2  0  0  0  0  0  0
  160.8400  203.2060  150.3800 C   0  0  2  0  0  0  0  0  0  0  0  0
  160.1360  203.8880  151.5460 C   0  0  2  0  0  3  0  0  0  0  0  0
  160.6730  203.4810  152.7700 O   0  0  0  0  0  1  0  0  0  0  0  0
  161.1370  203.0280  147.8650 C   0  0  0  0  0  2  0  0  0  0  0  0
  161.0800  200.9010  147.6050 O   0  0  0  0  0  1  0  0  0  0  0  0
  160.2850  201.9250  147.8310 O   0  0  0  0  0  0  0  0  0  0  0  0
  1  7  1  0  0  0  0
  2 14  1  0  0  0  0
  3  8  1  0  0  0  0
  4 15  1  6  0  0  0
  4  6  1  0  0  0  0
  5  8  2  0  0  0  0
  5 13  1  0  0  0  0
  6  2  2  0  0  0  0
  6 11  1  0  0  0  0
  7 11  1  0  0  0  0
  9 19  1  6  0  0  0
  9 12  1  0  0  0  0
  9 16  1  0  0  0  0
 10  4  1  0  0  0  0
 10  1  1  6  0  0  0
 11  3  2  0  0  0  0
 12 15  1  0  0  0  0
 14  5  1  0  0  0  0
 16 20  1  1  0  0  0
 16 10  1  0  0  0  0
 17 19  1  0  0  0  0
 18 19  1  0  0  0  0
 20 26  1  6  0  0  0
 20 23  1  0  0  0  0
 22 24  1  0  0  0  0
 23 21  1  1  0  0  0
 23 22  1  0  0  0  0
 23 24  1  0  0  0  0
 24 25  1  1  0  0  0
 27 28  1  0  0  0  0
 28 26  1  0  0  0  0
M  END
>  <MODEL>
6

>  <REMARK>
 VINA RESULT:      -3.6      5.777      8.643
  Name = 
  5 active torsions:
  status: ('A' for Active; 'I' for Inactive)
    1  A    between atoms: C_1  and  C_7
    2  A    between atoms: C_1  and  C_26
    3  A    between atoms: C_1  and  C_27
    4  A    between atoms: O_11  and  C_26
    5  A    between atoms: C_16  and  S_21
                            x       y       z     vdW  Elec       q    Type
                         _______ _______ _______ _____ _____    ______ ____

>  <TORSDO>
F 5

$$$$
