=
 OpenBabel11052422343D

 31 35  0  0  0  0  0  0  0  0999 V2000
  161.6820  211.1400  149.5180 C   0  0  0  0  0  0  0  0  0  0  0  0
  161.0010  208.7840  152.3500 C   0  0  0  0  0  0  0  0  0  0  0  0
  160.3530  209.6240  153.4080 C   0  0  0  0  0  0  0  0  0  0  0  0
  158.8180  211.4020  154.0540 C   0  0  0  0  0  0  0  0  0  0  0  0
  161.4020  209.3020  151.0920 C   0  0  0  0  0  0  0  0  0  0  0  0
  162.2430  210.2670  148.5840 C   0  0  0  0  0  3  0  0  0  0  0  0
  159.5150  210.6990  153.0700 C   0  0  0  0  0  3  0  0  0  0  0  0
  161.8100  206.5930  151.6350 C   0  0  0  0  0  0  0  0  0  0  0  0
  161.4970  212.8370  149.1300 Cl  0  0  0  0  0  0  0  0  0  0  0  0
  161.5050  207.8840  155.2650 S   0  0  0  0  0  0  0  0  0  0  0  0
  158.0220  212.4420  153.7080 F   0  0  0  0  0  0  0  0  0  0  0  0
  162.1680  207.1200  150.4370 N   0  0  0  0  0  0  0  0  0  0  0  0
  161.2290  207.4120  152.6180 C   0  0  0  0  0  0  0  0  0  0  0  0
  161.2690  210.6610  150.7620 C   0  0  0  0  0  3  0  0  0  0  0  0
  158.9230  211.0200  155.3910 C   0  0  0  0  0  3  0  0  0  0  0  0
  161.9860  208.4310  150.1420 C   0  0  0  0  0  0  0  0  0  0  0  0
  162.3960  208.9160  148.8960 C   0  0  0  0  0  3  0  0  0  0  0  0
  160.8340  206.8320  153.9480 C   0  0  0  0  0  2  0  0  0  0  0  0
  160.4620  209.2550  154.7680 C   0  0  0  0  0  0  0  0  0  0  0  0
  159.7400  209.9450  155.7460 C   0  0  0  0  0  3  0  0  0  0  0  0
  162.0910  205.1440  151.8910 C   0  0  0  0  0  2  0  0  0  0  0  0
  159.9930  204.0540  152.1030 O   0  0  0  0  0  0  0  0  0  0  0  0
  160.9800  204.2920  151.3580 C   0  0  0  0  0  0  0  0  0  0  0  0
  161.1340  202.7810  147.3410 C   0  0  0  0  0  0  0  0  0  0  0  0
  161.2820  204.6190  148.9040 C   0  0  0  0  0  3  0  0  0  0  0  0
  160.5810  201.4960  150.7110 F   0  0  0  0  0  0  0  0  0  0  0  0
  161.1840  202.3030  146.0380 O   0  0  0  0  0  1  0  0  0  0  0  0
  161.3330  204.1390  147.5930 C   0  0  0  0  0  3  0  0  0  0  0  0
  160.8350  202.3780  149.7130 C   0  0  0  0  0  0  0  0  0  0  0  0
  161.0310  203.7510  149.9790 C   0  0  0  0  0  0  0  0  0  0  0  0
  160.8860  201.9040  148.3980 C   0  0  0  0  0  3  0  0  0  0  0  0
  1 14  1  0  0  0  0
  2 13  2  0  0  0  0
  2  3  1  0  0  0  0
  3 19  1  0  0  0  0
  4 15  2  0  0  0  0
  5  2  1  0  0  0  0
  6 17  1  0  0  0  0
  6  1  2  0  0  0  0
  7  3  2  0  0  0  0
  7  4  1  0  0  0  0
  8 21  1  0  0  0  0
  8 13  1  0  0  0  0
  9  1  1  0  0  0  0
 11  4  1  0  0  0  0
 12  8  2  0  0  0  0
 13 18  1  0  0  0  0
 14  5  2  0  0  0  0
 15 20  1  0  0  0  0
 16 12  1  0  0  0  0
 16  5  1  0  0  0  0
 17 16  2  0  0  0  0
 18 10  1  0  0  0  0
 19 10  1  0  0  0  0
 19 20  2  0  0  0  0
 23 21  1  0  0  0  0
 23 22  2  0  0  0  0
 24 28  2  0  0  0  0
 24 31  1  0  0  0  0
 25 30  2  0  0  0  0
 27 24  1  0  0  0  0
 28 25  1  0  0  0  0
 29 30  1  0  0  0  0
 29 26  1  0  0  0  0
 30 23  1  0  0  0  0
 31 29  2  0  0  0  0
M  END
>  <MODEL>
1

>  <REMARK>
 VINA RESULT:      -9.4      0.000      0.000
  Name = 
  3 active torsions:
  status: ('A' for Active; 'I' for Inactive)
    1  A    between atoms: C_9  and  C_22
    2  A    between atoms: C_9  and  C_23
    3  A    between atoms: C_15  and  C_23
                            x       y       z     vdW  Elec       q    Type
                         _______ _______ _______ _____ _____    ______ ____

>  <TORSDO>
F 3

$$$$
=
 OpenBabel11052422343D

 31 35  0  0  0  0  0  0  0  0999 V2000
  161.1000  205.2770  148.8070 C   0  0  0  0  0  0  0  0  0  0  0  0
  161.4530  208.3850  150.8700 C   0  0  0  0  0  0  0  0  0  0  0  0
  161.0740  207.9750  152.2600 C   0  0  0  0  0  0  0  0  0  0  0  0
  161.1100  206.3450  154.0710 C   0  0  0  0  0  0  0  0  0  0  0  0
  161.4700  207.4820  149.7760 C   0  0  0  0  0  0  0  0  0  0  0  0
  161.5060  205.7490  147.5570 C   0  0  0  0  0  3  0  0  0  0  0  0
  161.3550  206.6850  152.7390 C   0  0  0  0  0  3  0  0  0  0  0  0
  162.1930  210.1450  149.3460 C   0  0  0  0  0  0  0  0  0  0  0  0
  160.6160  203.6060  148.9980 Cl  0  0  0  0  0  0  0  0  0  0  0  0
  160.1830  210.5990  152.6160 S   0  0  0  0  0  0  0  0  0  0  0  0
  161.3800  205.0930  154.5100 F   0  0  0  0  0  0  0  0  0  0  0  0
  162.2120  209.2500  148.3270 N   0  0  0  0  0  0  0  0  0  0  0  0
  161.8060  209.7370  150.6340 C   0  0  0  0  0  0  0  0  0  0  0  0
  161.0790  206.1380  149.9060 C   0  0  0  0  0  3  0  0  0  0  0  0
  160.6090  207.3010  154.9540 C   0  0  0  0  0  3  0  0  0  0  0  0
  161.8650  207.9510  148.5010 C   0  0  0  0  0  0  0  0  0  0  0  0
  161.8850  207.0830  147.4050 C   0  0  0  0  0  3  0  0  0  0  0  0
  161.7800  210.7270  151.7650 C   0  0  0  0  0  2  0  0  0  0  0  0
  160.5530  208.9300  153.1620 C   0  0  0  0  0  0  0  0  0  0  0  0
  160.3360  208.5930  154.5000 C   0  0  0  0  0  3  0  0  0  0  0  0
  162.5470  211.5710  149.0510 C   0  0  0  0  0  2  0  0  0  0  0  0
  160.4340  212.6460  149.1930 O   0  0  0  0  0  0  0  0  0  0  0  0
  161.3790  212.2840  148.4420 C   0  0  0  0  0  0  0  0  0  0  0  0
  161.3180  213.1330  144.2320 C   0  0  0  0  0  0  0  0  0  0  0  0
  162.5050  212.9950  146.3330 C   0  0  0  0  0  3  0  0  0  0  0  0
  158.9920  212.0270  146.8170 F   0  0  0  0  0  0  0  0  0  0  0  0
  161.3080  213.4130  142.8730 O   0  0  0  0  0  1  0  0  0  0  0  0
  162.4960  213.2760  144.9650 C   0  0  0  0  0  3  0  0  0  0  0  0
  160.1510  212.4260  146.2360 C   0  0  0  0  0  0  0  0  0  0  0  0
  161.3370  212.5710  146.9880 C   0  0  0  0  0  0  0  0  0  0  0  0
  160.1490  212.7100  144.8670 C   0  0  0  0  0  3  0  0  0  0  0  0
  1  9  1  0  0  0  0
  1 14  1  0  0  0  0
  2  3  1  0  0  0  0
  3  7  2  0  0  0  0
  3 19  1  0  0  0  0
  4 11  1  0  0  0  0
  4 15  2  0  0  0  0
  5 14  2  0  0  0  0
  5  2  1  0  0  0  0
  6  1  2  0  0  0  0
  7  4  1  0  0  0  0
  8 13  1  0  0  0  0
 10 19  1  0  0  0  0
 12 16  1  0  0  0  0
 12  8  2  0  0  0  0
 13  2  2  0  0  0  0
 13 18  1  0  0  0  0
 16  5  1  0  0  0  0
 17  6  1  0  0  0  0
 17 16  2  0  0  0  0
 18 10  1  0  0  0  0
 19 20  2  0  0  0  0
 20 15  1  0  0  0  0
 21  8  1  0  0  0  0
 23 21  1  0  0  0  0
 23 22  2  0  0  0  0
 24 31  2  0  0  0  0
 24 28  1  0  0  0  0
 25 30  1  0  0  0  0
 27 24  1  0  0  0  0
 28 25  2  0  0  0  0
 29 26  1  0  0  0  0
 29 30  2  0  0  0  0
 30 23  1  0  0  0  0
 31 29  1  0  0  0  0
M  END
>  <MODEL>
2

>  <REMARK>
 VINA RESULT:      -8.8      4.171      6.915
  Name = 
  3 active torsions:
  status: ('A' for Active; 'I' for Inactive)
    1  A    between atoms: C_9  and  C_22
    2  A    between atoms: C_9  and  C_23
    3  A    between atoms: C_15  and  C_23
                            x       y       z     vdW  Elec       q    Type
                         _______ _______ _______ _____ _____    ______ ____

>  <TORSDO>
F 3

$$$$
=
 OpenBabel11052422343D

 31 35  0  0  0  0  0  0  0  0999 V2000
  160.8000  206.6390  146.6770 C   0  0  0  0  0  0  0  0  0  0  0  0
  161.3530  204.6770  149.8200 C   0  0  0  0  0  0  0  0  0  0  0  0
  161.0500  203.2560  149.4510 C   0  0  0  0  0  0  0  0  0  0  0  0
  161.1610  201.4130  147.8620 C   0  0  0  0  0  0  0  0  0  0  0  0
  161.2810  205.7470  148.8930 C   0  0  0  0  0  0  0  0  0  0  0  0
  161.1390  207.9220  147.1100 C   0  0  0  0  0  3  0  0  0  0  0  0
  161.3310  202.7650  148.1650 C   0  0  0  0  0  3  0  0  0  0  0  0
  162.0380  206.2840  151.5270 C   0  0  0  0  0  0  0  0  0  0  0  0
  160.2900  206.3790  145.0230 Cl  0  0  0  0  0  0  0  0  0  0  0  0
  160.2450  202.9090  152.1030 S   0  0  0  0  0  0  0  0  0  0  0  0
  161.4290  200.9610  146.6130 F   0  0  0  0  0  0  0  0  0  0  0  0
  161.9720  207.2810  150.6090 N   0  0  0  0  0  0  0  0  0  0  0  0
  161.7210  204.9660  151.1570 C   0  0  0  0  0  0  0  0  0  0  0  0
  160.8680  205.5620  147.5620 C   0  0  0  0  0  3  0  0  0  0  0  0
  160.7380  200.5230  148.8490 C   0  0  0  0  0  3  0  0  0  0  0  0
  161.6070  207.0550  149.3230 C   0  0  0  0  0  0  0  0  0  0  0  0
  161.5390  208.1300  148.4300 C   0  0  0  0  0  3  0  0  0  0  0  0
  161.7890  203.8590  152.1720 C   0  0  0  0  0  2  0  0  0  0  0  0
  160.6090  202.3470  150.4390 C   0  0  0  0  0  0  0  0  0  0  0  0
  160.4670  200.9900  150.1370 C   0  0  0  0  0  3  0  0  0  0  0  0
  162.4050  206.6340  152.9360 C   0  0  0  0  0  2  0  0  0  0  0  0
  160.4730  206.2660  154.2660 O   0  0  0  0  0  0  0  0  0  0  0  0
  161.2020  207.1150  153.6870 C   0  0  0  0  0  0  0  0  0  0  0  0
  160.2500  211.3010  153.8370 C   0  0  0  0  0  0  0  0  0  0  0  0
  160.4030  209.2210  152.6150 C   0  0  0  0  0  3  0  0  0  0  0  0
  161.4920  208.7120  156.0890 F   0  0  0  0  0  0  0  0  0  0  0  0
  159.9420  212.6540  153.8740 O   0  0  0  0  0  1  0  0  0  0  0  0
  160.0920  210.5820  152.6520 C   0  0  0  0  0  3  0  0  0  0  0  0
  161.0300  209.2960  154.9550 C   0  0  0  0  0  0  0  0  0  0  0  0
  160.8780  208.5600  153.7600 C   0  0  0  0  0  0  0  0  0  0  0  0
  160.7180  210.6580  154.9850 C   0  0  0  0  0  3  0  0  0  0  0  0
  1  6  2  0  0  0  0
  1 14  1  0  0  0  0
  2 13  2  0  0  0  0
  3  2  1  0  0  0  0
  3 19  1  0  0  0  0
  4  7  1  0  0  0  0
  4 15  2  0  0  0  0
  5 16  1  0  0  0  0
  5  2  1  0  0  0  0
  6 17  1  0  0  0  0
  7  3  2  0  0  0  0
  8 21  1  0  0  0  0
  9  1  1  0  0  0  0
 10 18  1  0  0  0  0
 11  4  1  0  0  0  0
 12  8  2  0  0  0  0
 13  8  1  0  0  0  0
 13 18  1  0  0  0  0
 14  5  2  0  0  0  0
 15 20  1  0  0  0  0
 16 12  1  0  0  0  0
 17 16  2  0  0  0  0
 19 10  1  0  0  0  0
 20 19  2  0  0  0  0
 21 23  1  0  0  0  0
 23 30  1  0  0  0  0
 23 22  2  0  0  0  0
 24 27  1  0  0  0  0
 24 31  1  0  0  0  0
 25 28  1  0  0  0  0
 25 30  2  0  0  0  0
 28 24  2  0  0  0  0
 29 31  2  0  0  0  0
 29 26  1  0  0  0  0
 30 29  1  0  0  0  0
M  END
>  <MODEL>
3

>  <REMARK>
 VINA RESULT:      -8.3      3.039      7.595
  Name = 
  3 active torsions:
  status: ('A' for Active; 'I' for Inactive)
    1  A    between atoms: C_9  and  C_22
    2  A    between atoms: C_9  and  C_23
    3  A    between atoms: C_15  and  C_23
                            x       y       z     vdW  Elec       q    Type
                         _______ _______ _______ _____ _____    ______ ____

>  <TORSDO>
F 3

$$$$
=
 OpenBabel11052422343D

 31 35  0  0  0  0  0  0  0  0999 V2000
  161.6170  211.8330  149.4000 C   0  0  0  0  0  0  0  0  0  0  0  0
  160.7990  210.1860  152.6650 C   0  0  0  0  0  0  0  0  0  0  0  0
  160.3560  211.3000  153.5630 C   0  0  0  0  0  0  0  0  0  0  0  0
  159.1440  213.3860  153.9090 C   0  0  0  0  0  0  0  0  0  0  0  0
  161.1830  210.3890  151.3150 C   0  0  0  0  0  0  0  0  0  0  0  0
  161.9780  210.7230  148.6340 C   0  0  0  0  0  3  0  0  0  0  0  0
  159.6610  212.4100  153.0540 C   0  0  0  0  0  3  0  0  0  0  0  0
  161.2290  207.8010  152.3620 C   0  0  0  0  0  0  0  0  0  0  0  0
  161.6530  213.4340  148.6950 Cl  0  0  0  0  0  0  0  0  0  0  0  0
  161.3700  209.7820  155.6770 S   0  0  0  0  0  0  0  0  0  0  0  0
  158.4860  214.4530  153.3970 F   0  0  0  0  0  0  0  0  0  0  0  0
  161.5760  208.0310  151.0710 N   0  0  0  0  0  0  0  0  0  0  0  0
  160.8440  208.8700  153.1880 C   0  0  0  0  0  0  0  0  0  0  0  0
  161.2260  211.6670  150.7300 C   0  0  0  0  0  3  0  0  0  0  0  0
  159.2860  213.2500  155.2890 C   0  0  0  0  0  3  0  0  0  0  0  0
  161.5660  209.2750  150.5320 C   0  0  0  0  0  0  0  0  0  0  0  0
  161.9550  209.4480  149.1990 C   0  0  0  0  0  3  0  0  0  0  0  0
  160.4630  208.6200  154.6200 C   0  0  0  0  0  2  0  0  0  0  0  0
  160.5040  211.1820  154.9630 C   0  0  0  0  0  0  0  0  0  0  0  0
  159.9600  212.1470  155.8160 C   0  0  0  0  0  3  0  0  0  0  0  0
  161.3150  206.4000  152.8860 C   0  0  0  0  0  2  0  0  0  0  0  0
  163.4320  205.8010  151.9940 O   0  0  0  0  0  0  0  0  0  0  0  0
  162.1940  205.5650  152.0070 C   0  0  0  0  0  0  0  0  0  0  0  0
  160.5550  202.3690  149.6530 C   0  0  0  0  0  0  0  0  0  0  0  0
  161.3510  203.2310  151.7660 C   0  0  0  0  0  3  0  0  0  0  0  0
  161.6070  205.8310  149.1810 F   0  0  0  0  0  0  0  0  0  0  0  0
  160.0270  201.3290  148.9000 O   0  0  0  0  0  1  0  0  0  0  0  0
  160.8190  202.1840  151.0100 C   0  0  0  0  0  3  0  0  0  0  0  0
  161.3530  204.6530  149.8040 C   0  0  0  0  0  0  0  0  0  0  0  0
  161.6280  204.4760  151.1770 C   0  0  0  0  0  0  0  0  0  0  0  0
  160.8220  203.6010  149.0520 C   0  0  0  0  0  3  0  0  0  0  0  0
  1 14  1  0  0  0  0
  2 13  2  0  0  0  0
  2  3  1  0  0  0  0
  3 19  1  0  0  0  0
  4 15  2  0  0  0  0
  5  2  1  0  0  0  0
  6 17  1  0  0  0  0
  6  1  2  0  0  0  0
  7  3  2  0  0  0  0
  7  4  1  0  0  0  0
  8 21  1  0  0  0  0
  8 13  1  0  0  0  0
  9  1  1  0  0  0  0
 11  4  1  0  0  0  0
 12  8  2  0  0  0  0
 13 18  1  0  0  0  0
 14  5  2  0  0  0  0
 15 20  1  0  0  0  0
 16 12  1  0  0  0  0
 16  5  1  0  0  0  0
 17 16  2  0  0  0  0
 18 10  1  0  0  0  0
 19 10  1  0  0  0  0
 19 20  2  0  0  0  0
 22 23  2  0  0  0  0
 23 21  1  0  0  0  0
 24 28  1  0  0  0  0
 26 29  1  0  0  0  0
 27 24  1  0  0  0  0
 28 25  2  0  0  0  0
 29 30  2  0  0  0  0
 30 25  1  0  0  0  0
 30 23  1  0  0  0  0
 31 24  2  0  0  0  0
 31 29  1  0  0  0  0
M  END
>  <MODEL>
4

>  <REMARK>
 VINA RESULT:      -8.2      1.691      2.174
  Name = 
  3 active torsions:
  status: ('A' for Active; 'I' for Inactive)
    1  A    between atoms: C_9  and  C_22
    2  A    between atoms: C_9  and  C_23
    3  A    between atoms: C_15  and  C_23
                            x       y       z     vdW  Elec       q    Type
                         _______ _______ _______ _____ _____    ______ ____

>  <TORSDO>
F 3

$$$$
=
 OpenBabel11052422343D

 31 35  0  0  0  0  0  0  0  0999 V2000
  161.3010  200.6340  148.2240 C   0  0  0  0  0  0  0  0  0  0  0  0
  161.0270  204.3490  148.6220 C   0  0  0  0  0  0  0  0  0  0  0  0
  161.2160  204.9040  147.2430 C   0  0  0  0  0  0  0  0  0  0  0  0
  160.8310  204.7780  144.8400 C   0  0  0  0  0  0  0  0  0  0  0  0
  161.0410  202.9600  148.9040 C   0  0  0  0  0  0  0  0  0  0  0  0
  161.0780  200.2160  149.5370 C   0  0  0  0  0  3  0  0  0  0  0  0
  160.7630  204.2050  146.1110 C   0  0  0  0  0  3  0  0  0  0  0  0
  160.6250  204.7620  150.9960 C   0  0  0  0  0  0  0  0  0  0  0  0
  161.6010  199.4530  146.9670 Cl  0  0  0  0  0  0  0  0  0  0  0  0
  162.3080  207.1600  148.4750 S   0  0  0  0  0  0  0  0  0  0  0  0
  160.3980  204.0840  143.7610 F   0  0  0  0  0  0  0  0  0  0  0  0
  160.6300  203.4250  151.2250 N   0  0  0  0  0  0  0  0  0  0  0  0
  160.8320  205.2530  149.6950 C   0  0  0  0  0  0  0  0  0  0  0  0
  161.2860  201.9940  147.9110 C   0  0  0  0  0  3  0  0  0  0  0  0
  161.3240  206.0740  144.6840 C   0  0  0  0  0  3  0  0  0  0  0  0
  160.8310  202.5230  150.2330 C   0  0  0  0  0  0  0  0  0  0  0  0
  160.8450  201.1590  150.5390 C   0  0  0  0  0  3  0  0  0  0  0  0
  160.8310  206.7340  149.4380 C   0  0  0  0  0  2  0  0  0  0  0  0
  161.7250  206.2100  147.0690 C   0  0  0  0  0  0  0  0  0  0  0  0
  161.7650  206.7900  145.7980 C   0  0  0  0  0  3  0  0  0  0  0  0
  160.4420  205.6860  152.1610 C   0  0  0  0  0  2  0  0  0  0  0  0
  162.7750  206.0700  151.9360 O   0  0  0  0  0  0  0  0  0  0  0  0
  161.6780  206.5050  152.3770 C   0  0  0  0  0  0  0  0  0  0  0  0
  161.4700  210.2480  154.4730 C   0  0  0  0  0  0  0  0  0  0  0  0
  161.2060  207.8460  154.4260 C   0  0  0  0  0  3  0  0  0  0  0  0
  162.3490  209.0410  151.1430 F   0  0  0  0  0  0  0  0  0  0  0  0
  161.3970  211.4530  155.1580 O   0  0  0  0  0  1  0  0  0  0  0  0
  161.1330  209.0580  155.1170 C   0  0  0  0  0  3  0  0  0  0  0  0
  161.9560  209.0170  152.4410 C   0  0  0  0  0  0  0  0  0  0  0  0
  161.6140  207.8070  153.0830 C   0  0  0  0  0  0  0  0  0  0  0  0
  161.8800  210.2270  153.1380 C   0  0  0  0  0  3  0  0  0  0  0  0
  1  6  1  0  0  0  0
  2  5  2  0  0  0  0
  2 13  1  0  0  0  0
  3  2  1  0  0  0  0
  4  7  1  0  0  0  0
  5 16  1  0  0  0  0
  6 17  2  0  0  0  0
  7  3  2  0  0  0  0
  8 12  1  0  0  0  0
  8 21  1  0  0  0  0
  9  1  1  0  0  0  0
 10 18  1  0  0  0  0
 11  4  1  0  0  0  0
 13  8  2  0  0  0  0
 14  1  2  0  0  0  0
 14  5  1  0  0  0  0
 15  4  2  0  0  0  0
 15 20  1  0  0  0  0
 16 17  1  0  0  0  0
 16 12  2  0  0  0  0
 18 13  1  0  0  0  0
 19  3  1  0  0  0  0
 19 10  1  0  0  0  0
 20 19  2  0  0  0  0
 21 23  1  0  0  0  0
 22 23  2  0  0  0  0
 23 30  1  0  0  0  0
 24 28  1  0  0  0  0
 24 27  1  0  0  0  0
 25 28  2  0  0  0  0
 26 29  1  0  0  0  0
 29 30  2  0  0  0  0
 29 31  1  0  0  0  0
 30 25  1  0  0  0  0
 31 24  2  0  0  0  0
M  END
>  <MODEL>
5

>  <REMARK>
 VINA RESULT:      -7.9      3.979      8.430
  Name = 
  3 active torsions:
  status: ('A' for Active; 'I' for Inactive)
    1  A    between atoms: C_9  and  C_22
    2  A    between atoms: C_9  and  C_23
    3  A    between atoms: C_15  and  C_23
                            x       y       z     vdW  Elec       q    Type
                         _______ _______ _______ _____ _____    ______ ____

>  <TORSDO>
F 3

$$$$
=
 OpenBabel11052422343D

 31 35  0  0  0  0  0  0  0  0999 V2000
  161.1130  201.4480  149.9370 C   0  0  0  0  0  0  0  0  0  0  0  0
  161.1840  205.0560  148.9320 C   0  0  0  0  0  0  0  0  0  0  0  0
  161.3780  205.0430  147.4460 C   0  0  0  0  0  0  0  0  0  0  0  0
  160.9100  204.0780  145.2590 C   0  0  0  0  0  0  0  0  0  0  0  0
  161.0830  203.8730  149.7080 C   0  0  0  0  0  0  0  0  0  0  0  0
  160.8940  201.5660  151.3110 C   0  0  0  0  0  3  0  0  0  0  0  0
  160.8300  204.0230  146.6510 C   0  0  0  0  0  3  0  0  0  0  0  0
  160.8940  206.3510  150.9830 C   0  0  0  0  0  0  0  0  0  0  0  0
  161.2670  199.8640  149.2080 Cl  0  0  0  0  0  0  0  0  0  0  0  0
  162.7060  207.4800  147.7610 S   0  0  0  0  0  0  0  0  0  0  0  0
  160.3830  203.0790  144.5110 F   0  0  0  0  0  0  0  0  0  0  0  0
  160.7870  205.1980  151.6910 N   0  0  0  0  0  0  0  0  0  0  0  0
  161.1040  206.3060  149.5940 C   0  0  0  0  0  0  0  0  0  0  0  0
  161.2100  202.5920  149.1440 C   0  0  0  0  0  3  0  0  0  0  0  0
  161.5110  205.1720  144.6370 C   0  0  0  0  0  3  0  0  0  0  0  0
  160.8760  203.9800  151.1030 C   0  0  0  0  0  0  0  0  0  0  0  0
  160.7780  202.8290  151.8920 C   0  0  0  0  0  3  0  0  0  0  0  0
  161.2270  207.5810  148.8070 C   0  0  0  0  0  2  0  0  0  0  0  0
  161.9970  206.1390  146.8040 C   0  0  0  0  0  0  0  0  0  0  0  0
  162.0490  206.2030  145.4090 C   0  0  0  0  0  3  0  0  0  0  0  0
  160.8310  207.6520  151.7230 C   0  0  0  0  0  2  0  0  0  0  0  0
  162.1070  206.5390  153.3870 O   0  0  0  0  0  0  0  0  0  0  0  0
  161.3030  207.4750  153.1330 C   0  0  0  0  0  0  0  0  0  0  0  0
  159.9940  210.1690  156.2110 C   0  0  0  0  0  0  0  0  0  0  0  0
  160.8150  209.7720  153.9730 C   0  0  0  0  0  3  0  0  0  0  0  0
  160.4560  206.5780  155.7560 F   0  0  0  0  0  0  0  0  0  0  0  0
  159.5750  211.0480  157.2010 O   0  0  0  0  0  1  0  0  0  0  0  0
  160.3930  210.6580  154.9670 C   0  0  0  0  0  3  0  0  0  0  0  0
  160.4380  207.9040  155.4700 C   0  0  0  0  0  0  0  0  0  0  0  0
  160.8470  208.3880  154.2080 C   0  0  0  0  0  0  0  0  0  0  0  0
  160.0180  208.7950  156.4610 C   0  0  0  0  0  3  0  0  0  0  0  0
  1  6  1  0  0  0  0
  2 13  2  0  0  0  0
  2  5  1  0  0  0  0
  3  2  1  0  0  0  0
  4  7  1  0  0  0  0
  5 16  2  0  0  0  0
  6 17  2  0  0  0  0
  7  3  2  0  0  0  0
  8 12  2  0  0  0  0
  8 21  1  0  0  0  0
  9  1  1  0  0  0  0
 10 18  1  0  0  0  0
 11  4  1  0  0  0  0
 13  8  1  0  0  0  0
 14  5  1  0  0  0  0
 14  1  2  0  0  0  0
 15  4  2  0  0  0  0
 15 20  1  0  0  0  0
 16 12  1  0  0  0  0
 16 17  1  0  0  0  0
 18 13  1  0  0  0  0
 19  3  1  0  0  0  0
 19 10  1  0  0  0  0
 20 19  2  0  0  0  0
 21 23  1  0  0  0  0
 23 22  2  0  0  0  0
 23 30  1  0  0  0  0
 24 31  1  0  0  0  0
 24 27  1  0  0  0  0
 25 30  2  0  0  0  0
 25 28  1  0  0  0  0
 28 24  2  0  0  0  0
 29 26  1  0  0  0  0
 29 31  2  0  0  0  0
 30 29  1  0  0  0  0
M  END
>  <MODEL>
6

>  <REMARK>
 VINA RESULT:      -7.9      3.895      8.526
  Name = 
  3 active torsions:
  status: ('A' for Active; 'I' for Inactive)
    1  A    between atoms: C_9  and  C_22
    2  A    between atoms: C_9  and  C_23
    3  A    between atoms: C_15  and  C_23
                            x       y       z     vdW  Elec       q    Type
                         _______ _______ _______ _____ _____    ______ ____

>  <TORSDO>
F 3

$$$$
=
 OpenBabel11052422343D

 31 35  0  0  0  0  0  0  0  0999 V2000
  160.0850  209.8500  154.3860 C   0  0  0  0  0  0  0  0  0  0  0  0
  161.5580  208.1200  151.4070 C   0  0  0  0  0  0  0  0  0  0  0  0
  161.6130  209.1670  150.3370 C   0  0  0  0  0  0  0  0  0  0  0  0
  162.0220  211.4670  149.6450 C   0  0  0  0  0  0  0  0  0  0  0  0
  161.0750  208.3780  152.7150 C   0  0  0  0  0  0  0  0  0  0  0  0
  160.1100  208.8160  155.3240 C   0  0  0  0  0  3  0  0  0  0  0  0
  161.8510  210.5150  150.6510 C   0  0  0  0  0  3  0  0  0  0  0  0
  161.9870  205.8140  152.0890 C   0  0  0  0  0  0  0  0  0  0  0  0
  159.4580  211.4220  154.8310 Cl  0  0  0  0  0  0  0  0  0  0  0  0
  161.2840  207.0830  148.5060 S   0  0  0  0  0  0  0  0  0  0  0  0
  162.2410  212.7640  149.9700 F   0  0  0  0  0  0  0  0  0  0  0  0
  161.5310  206.1020  153.3340 N   0  0  0  0  0  0  0  0  0  0  0  0
  162.0010  206.8100  151.0980 C   0  0  0  0  0  0  0  0  0  0  0  0
  160.5610  209.6310  153.0920 C   0  0  0  0  0  3  0  0  0  0  0  0
  161.9920  211.0800  148.3050 C   0  0  0  0  0  3  0  0  0  0  0  0
  161.0800  207.3350  153.6700 C   0  0  0  0  0  0  0  0  0  0  0  0
  160.6040  207.5610  154.9660 C   0  0  0  0  0  3  0  0  0  0  0  0
  162.5010  206.4950  149.7160 C   0  0  0  0  0  2  0  0  0  0  0  0
  161.5710  208.7900  148.9750 C   0  0  0  0  0  0  0  0  0  0  0  0
  161.7710  209.7420  147.9720 C   0  0  0  0  0  3  0  0  0  0  0  0
  162.4220  204.4110  151.7940 C   0  0  0  0  0  2  0  0  0  0  0  0
  160.3340  203.3930  152.2840 O   0  0  0  0  0  0  0  0  0  0  0  0
  161.2420  203.5640  151.4280 C   0  0  0  0  0  0  0  0  0  0  0  0
  160.9350  201.8360  147.5080 C   0  0  0  0  0  0  0  0  0  0  0  0
  161.2110  203.7620  148.9420 C   0  0  0  0  0  3  0  0  0  0  0  0
  160.8740  200.7230  150.9830 F   0  0  0  0  0  0  0  0  0  0  0  0
  160.8340  201.2870  146.2370 O   0  0  0  0  0  1  0  0  0  0  0  0
  161.1110  203.2110  147.6620 C   0  0  0  0  0  3  0  0  0  0  0  0
  160.9610  201.5570  149.9160 C   0  0  0  0  0  0  0  0  0  0  0  0
  161.1350  202.9480  150.0840 C   0  0  0  0  0  0  0  0  0  0  0  0
  160.8600  201.0120  148.6330 C   0  0  0  0  0  3  0  0  0  0  0  0
  1  9  1  0  0  0  0
  1  6  1  0  0  0  0
  2  5  1  0  0  0  0
  3  7  1  0  0  0  0
  3  2  1  0  0  0  0
  4 11  1  0  0  0  0
  4  7  2  0  0  0  0
  5 14  1  0  0  0  0
  5 16  2  0  0  0  0
  8 12  2  0  0  0  0
 10 19  1  0  0  0  0
 10 18  1  0  0  0  0
 12 16  1  0  0  0  0
 13  2  2  0  0  0  0
 13  8  1  0  0  0  0
 14  1  2  0  0  0  0
 15  4  1  0  0  0  0
 16 17  1  0  0  0  0
 17  6  2  0  0  0  0
 18 13  1  0  0  0  0
 19  3  2  0  0  0  0
 20 15  2  0  0  0  0
 20 19  1  0  0  0  0
 21  8  1  0  0  0  0
 23 21  1  0  0  0  0
 23 22  2  0  0  0  0
 24 28  2  0  0  0  0
 24 31  1  0  0  0  0
 25 30  2  0  0  0  0
 27 24  1  0  0  0  0
 28 25  1  0  0  0  0
 29 30  1  0  0  0  0
 29 26  1  0  0  0  0
 30 23  1  0  0  0  0
 31 29  2  0  0  0  0
M  END
>  <MODEL>
7

>  <REMARK>
 VINA RESULT:      -7.6      2.216      4.097
  Name = 
  3 active torsions:
  status: ('A' for Active; 'I' for Inactive)
    1  A    between atoms: C_9  and  C_22
    2  A    between atoms: C_9  and  C_23
    3  A    between atoms: C_15  and  C_23
                            x       y       z     vdW  Elec       q    Type
                         _______ _______ _______ _____ _____    ______ ____

>  <TORSDO>
F 3

$$$$
=
 OpenBabel11052422343D

 31 35  0  0  0  0  0  0  0  0999 V2000
  161.4490  212.8010  149.7120 C   0  0  0  0  0  0  0  0  0  0  0  0
  161.2810  209.3400  151.1360 C   0  0  0  0  0  0  0  0  0  0  0  0
  160.7620  209.5170  152.5300 C   0  0  0  0  0  0  0  0  0  0  0  0
  159.2680  210.6180  154.1080 C   0  0  0  0  0  0  0  0  0  0  0  0
  161.4750  210.4220  150.2410 C   0  0  0  0  0  0  0  0  0  0  0  0
  161.9020  212.5280  148.4200 C   0  0  0  0  0  3  0  0  0  0  0  0
  159.8410  210.5320  152.8380 C   0  0  0  0  0  3  0  0  0  0  0  0
  162.0650  207.8320  149.3810 C   0  0  0  0  0  0  0  0  0  0  0  0
  161.1410  214.4530  150.2010 Cl  0  0  0  0  0  0  0  0  0  0  0  0
  162.2410  207.2430  153.1970 S   0  0  0  0  0  0  0  0  0  0  0  0
  158.3890  211.6110  154.3870 F   0  0  0  0  0  0  0  0  0  0  0  0
  162.2230  208.8910  148.5480 N   0  0  0  0  0  0  0  0  0  0  0  0
  161.6010  208.0320  150.6930 C   0  0  0  0  0  0  0  0  0  0  0  0
  161.2410  211.7570  150.6150 C   0  0  0  0  0  3  0  0  0  0  0  0
  159.5810  209.6700  155.0820 C   0  0  0  0  0  3  0  0  0  0  0  0
  161.9480  210.1610  148.9340 C   0  0  0  0  0  0  0  0  0  0  0  0
  162.1520  211.2110  148.0330 C   0  0  0  0  0  3  0  0  0  0  0  0
  161.4280  206.8630  151.6200 C   0  0  0  0  0  2  0  0  0  0  0  0
  161.0820  208.5710  153.5300 C   0  0  0  0  0  0  0  0  0  0  0  0
  160.4840  208.6450  154.7910 C   0  0  0  0  0  3  0  0  0  0  0  0
  162.4380  206.4690  148.8840 C   0  0  0  0  0  2  0  0  0  0  0  0
  160.3510  206.2960  147.7650 O   0  0  0  0  0  0  0  0  0  0  0  0
  161.2160  205.7090  148.4700 C   0  0  0  0  0  0  0  0  0  0  0  0
  160.6660  201.6260  149.6830 C   0  0  0  0  0  0  0  0  0  0  0  0
  160.7750  203.9820  150.2140 C   0  0  0  0  0  3  0  0  0  0  0  0
  161.3420  203.4850  146.6170 F   0  0  0  0  0  0  0  0  0  0  0  0
  160.4890  200.3100  150.0860 O   0  0  0  0  0  1  0  0  0  0  0  0
  160.5960  202.6580  150.6200 C   0  0  0  0  0  3  0  0  0  0  0  0
  161.0930  203.2430  147.9280 C   0  0  0  0  0  0  0  0  0  0  0  0
  161.0280  204.2940  148.8680 C   0  0  0  0  0  0  0  0  0  0  0  0
  160.9140  201.9190  148.3410 C   0  0  0  0  0  3  0  0  0  0  0  0
  1  9  1  0  0  0  0
  1 14  1  0  0  0  0
  2  3  1  0  0  0  0
  3  7  2  0  0  0  0
  3 19  1  0  0  0  0
  4 11  1  0  0  0  0
  4 15  2  0  0  0  0
  5 14  2  0  0  0  0
  5  2  1  0  0  0  0
  6  1  2  0  0  0  0
  7  4  1  0  0  0  0
  8 13  1  0  0  0  0
 10 19  1  0  0  0  0
 12 16  1  0  0  0  0
 12  8  2  0  0  0  0
 13  2  2  0  0  0  0
 13 18  1  0  0  0  0
 16  5  1  0  0  0  0
 17  6  1  0  0  0  0
 17 16  2  0  0  0  0
 18 10  1  0  0  0  0
 19 20  2  0  0  0  0
 20 15  1  0  0  0  0
 21  8  1  0  0  0  0
 22 23  2  0  0  0  0
 23 30  1  0  0  0  0
 23 21  1  0  0  0  0
 24 27  1  0  0  0  0
 24 28  1  0  0  0  0
 25 28  2  0  0  0  0
 26 29  1  0  0  0  0
 29 31  1  0  0  0  0
 29 30  2  0  0  0  0
 30 25  1  0  0  0  0
 31 24  2  0  0  0  0
M  END
>  <MODEL>
8

>  <REMARK>
 VINA RESULT:      -6.8      1.794      2.420
  Name = 
  3 active torsions:
  status: ('A' for Active; 'I' for Inactive)
    1  A    between atoms: C_9  and  C_22
    2  A    between atoms: C_9  and  C_23
    3  A    between atoms: C_15  and  C_23
                            x       y       z     vdW  Elec       q    Type
                         _______ _______ _______ _____ _____    ______ ____

>  <TORSDO>
F 3

$$$$
=
 OpenBabel11052422343D

 31 35  0  0  0  0  0  0  0  0999 V2000
  161.2160  205.4260  151.4750 C   0  0  0  0  0  0  0  0  0  0  0  0
  160.9460  208.9820  152.6240 C   0  0  0  0  0  0  0  0  0  0  0  0
  160.5630  208.8960  154.0700 C   0  0  0  0  0  0  0  0  0  0  0  0
  160.7670  207.8360  156.2540 C   0  0  0  0  0  0  0  0  0  0  0  0
  161.1690  207.8390  151.8150 C   0  0  0  0  0  0  0  0  0  0  0  0
  161.6070  205.6120  150.1470 C   0  0  0  0  0  3  0  0  0  0  0  0
  161.0250  207.8480  154.8820 C   0  0  0  0  0  3  0  0  0  0  0  0
  161.4700  210.3750  150.6870 C   0  0  0  0  0  0  0  0  0  0  0  0
  161.0010  203.8080  152.1070 Cl  0  0  0  0  0  0  0  0  0  0  0  0
  159.2390  211.3270  153.6960 S   0  0  0  0  0  0  0  0  0  0  0  0
  161.2130  206.8110  157.0180 F   0  0  0  0  0  0  0  0  0  0  0  0
  161.6900  209.2590  149.9480 N   0  0  0  0  0  0  0  0  0  0  0  0
  161.0860  210.2630  152.0340 C   0  0  0  0  0  0  0  0  0  0  0  0
  160.9960  206.5310  152.3000 C   0  0  0  0  0  3  0  0  0  0  0  0
  160.0690  208.8910  156.8420 C   0  0  0  0  0  3  0  0  0  0  0  0
  161.5510  208.0130  150.4640 C   0  0  0  0  0  0  0  0  0  0  0  0
  161.7720  206.9020  149.6430 C   0  0  0  0  0  3  0  0  0  0  0  0
  160.8380  211.4970  152.8550 C   0  0  0  0  0  2  0  0  0  0  0  0
  159.8460  209.9530  154.6750 C   0  0  0  0  0  0  0  0  0  0  0  0
  159.6140  209.9500  156.0530 C   0  0  0  0  0  3  0  0  0  0  0  0
  161.6020  211.7110  150.0210 C   0  0  0  0  0  2  0  0  0  0  0  0
  162.8710  210.7320  148.2690 O   0  0  0  0  0  0  0  0  0  0  0  0
  161.9550  211.5420  148.5750 C   0  0  0  0  0  0  0  0  0  0  0  0
  159.8190  213.7160  145.5500 C   0  0  0  0  0  0  0  0  0  0  0  0
  159.8340  212.3550  147.5470 C   0  0  0  0  0  3  0  0  0  0  0  0
  163.2800  212.9440  146.4110 F   0  0  0  0  0  0  0  0  0  0  0  0
  159.1190  214.4140  144.5750 O   0  0  0  0  0  1  0  0  0  0  0  0
  159.1290  213.0580  146.5670 C   0  0  0  0  0  3  0  0  0  0  0  0
  161.9260  212.9710  146.4900 C   0  0  0  0  0  0  0  0  0  0  0  0
  161.2370  212.2980  147.5220 C   0  0  0  0  0  0  0  0  0  0  0  0
  161.2140  213.6720  145.5120 C   0  0  0  0  0  3  0  0  0  0  0  0
  1  9  1  0  0  0  0
  1 14  1  0  0  0  0
  2  3  1  0  0  0  0
  3 19  2  0  0  0  0
  3  7  1  0  0  0  0
  4 15  1  0  0  0  0
  4 11  1  0  0  0  0
  5 14  2  0  0  0  0
  5  2  1  0  0  0  0
  6  1  2  0  0  0  0
  7  4  2  0  0  0  0
  8 13  1  0  0  0  0
 10 19  1  0  0  0  0
 12 16  1  0  0  0  0
 12  8  2  0  0  0  0
 13  2  2  0  0  0  0
 13 18  1  0  0  0  0
 16  5  1  0  0  0  0
 17  6  1  0  0  0  0
 17 16  2  0  0  0  0
 18 10  1  0  0  0  0
 19 20  1  0  0  0  0
 20 15  2  0  0  0  0
 21  8  1  0  0  0  0
 22 23  2  0  0  0  0
 23 21  1  0  0  0  0
 24 28  1  0  0  0  0
 26 29  1  0  0  0  0
 27 24  1  0  0  0  0
 28 25  2  0  0  0  0
 29 30  2  0  0  0  0
 30 25  1  0  0  0  0
 30 23  1  0  0  0  0
 31 24  2  0  0  0  0
 31 29  1  0  0  0  0
M  END
>  <MODEL>
9

>  <REMARK>
 VINA RESULT:      -6.6      4.354      6.858
  Name = 
  3 active torsions:
  status: ('A' for Active; 'I' for Inactive)
    1  A    between atoms: C_9  and  C_22
    2  A    between atoms: C_9  and  C_23
    3  A    between atoms: C_15  and  C_23
                            x       y       z     vdW  Elec       q    Type
                         _______ _______ _______ _____ _____    ______ ____

>  <TORSDO>
F 3

$$$$
