=
 OpenBabel11062408193D

 32 35  0  0  1  0  0  0  0  0999 V2000
  162.2570  210.1570  151.6960 N   0  0  1  0  0  0  0  0  0  0  0  0
  159.9790  209.9040  152.4210 C   0  0  1  0  0  3  0  0  0  0  0  0
  160.8130  206.0070  151.7620 C   0  0  2  0  0  3  0  0  0  0  0  0
  162.3060  209.6630  150.3050 C   0  0  0  0  0  2  0  0  0  0  0  0
  161.0190  210.9050  151.9740 C   0  0  2  0  0  3  0  0  0  0  0  0
  158.7500  211.9750  153.3530 C   0  0  0  0  0  2  0  0  0  0  0  0
  160.4030  204.6200  152.2290 C   0  0  0  0  0  1  0  0  0  0  0  0
  160.7920  208.8390  153.1420 C   0  0  1  0  0  3  0  0  0  0  0  0
  158.4670  212.6570  152.0200 C   0  0  1  0  0  3  0  0  0  0  0  0
  160.5470  206.2540  150.2700 C   0  0  1  0  0  3  0  0  0  0  0  0
  162.2460  208.1470  150.3000 C   0  0  2  0  0  3  0  0  0  0  0  0
  158.7800  210.4570  153.2130 C   0  0  0  0  0  2  0  0  0  0  0  0
  160.5220  211.7700  150.8140 C   0  0  0  0  0  2  0  0  0  0  0  0
  160.8140  207.7210  149.9500 C   0  0  0  0  0  2  0  0  0  0  0  0
  162.2340  206.3890  152.2060 C   0  0  1  0  0  3  0  0  0  0  0  0
  163.2090  205.4140  151.7430 N   0  0  0  0  0  1  0  0  0  0  0  0
  162.2150  208.9760  152.5710 C   0  0  1  0  0  3  0  0  0  0  0  0
  157.6350  213.8940  152.3200 C   0  0  0  0  0  1  0  0  0  0  0  0
  162.6360  207.7900  151.7190 C   0  0  2  0  0  3  0  0  0  0  0  0
  159.7870  213.0140  151.3030 C   0  0  1  0  0  3  0  0  0  0  0  0
  159.5580  213.8830  150.1040 C   0  0  0  0  0  3  0  0  0  0  0  0
  160.0580  213.5530  148.9150 C   0  0  0  0  0  3  0  0  0  0  0  0
  159.8190  214.4310  147.7380 C   0  0  0  0  0  1  0  0  0  0  0  0
  161.3460  205.3480  149.3360 C   0  0  0  0  0  2  0  0  0  0  0  0
  161.6340  204.5700  147.2930 C   0  0  0  0  0  1  0  0  0  0  0  0
  160.9540  205.5510  148.0130 O   0  0  0  0  0  0  0  0  0  0  0  0
  160.7780  208.9510  154.6780 C   0  0  1  0  0  3  0  0  0  0  0  0
  159.6390  207.4610  156.1640 O   0  0  0  0  0  1  0  0  0  0  0  0
  160.7340  207.5650  155.3070 C   0  0  0  0  0  2  0  0  0  0  0  0
  161.9510  209.7650  155.2210 C   0  0  0  0  0  2  0  0  0  0  0  0
  161.5750  211.0980  155.3900 O   0  0  0  0  0  0  0  0  0  0  0  0
  160.7220  211.0810  156.4920 C   0  0  0  0  0  1  0  0  0  0  0  0
  1  4  1  6  0  0  0
  1  5  1  0  0  0  0
  1 17  1  0  0  0  0
  2  8  1  0  0  0  0
  2 12  1  1  0  0  0
  3 15  1  0  0  0  0
  3  7  1  6  0  0  0
  5 13  1  6  0  0  0
  5  2  1  0  0  0  0
  8 27  1  1  0  0  0
  9 18  1  1  0  0  0
  9  6  1  0  0  0  0
 10 24  1  6  0  0  0
 10  3  1  0  0  0  0
 11 14  1  1  0  0  0
 11  4  1  0  0  0  0
 11 19  1  0  0  0  0
 12  6  1  0  0  0  0
 13 20  1  0  0  0  0
 14 10  1  0  0  0  0
 15 16  1  6  0  0  0
 17  8  1  0  0  0  0
 19 15  1  0  0  0  0
 19 17  1  0  0  0  0
 20  9  1  0  0  0  0
 21 20  1  0  0  0  0
 22 21  2  0  0  0  0
 23 22  1  0  0  0  0
 25 26  1  0  0  0  0
 26 24  1  0  0  0  0
 27 30  1  0  0  0  0
 27 29  1  0  0  0  0
 29 28  1  0  0  0  0
 30 31  1  0  0  0  0
 31 32  1  0  0  0  0
M  END
>  <MODEL>
1

>  <REMARK>
 VINA RESULT:      -4.3      0.000      0.000
  Name = 
  7 active torsions:
  status: ('A' for Active; 'I' for Inactive)
    1  A    between atoms: C_10  and  C_28
    2  A    between atoms: O_11  and  C_12
    3  A    between atoms: C_12  and  C_28
    4  A    between atoms: C_14  and  C_29
    5  A    between atoms: C_15  and  C_19
    6  A    between atoms: C_19  and  O_26
    7  A    between atoms: C_28  and  C_32
                            x       y       z     vdW  Elec       q    Type
                         _______ _______ _______ _____ _____    ______ ____

>  <TORSDO>
F 7

$$$$
=
 OpenBabel11062408193D

 32 35  0  0  1  0  0  0  0  0999 V2000
  161.2560  211.7870  153.7270 N   0  0  1  0  0  0  0  0  0  0  0  0
  158.8760  211.4600  153.7880 C   0  0  1  0  0  3  0  0  0  0  0  0
  159.9780  208.0320  155.6170 C   0  0  2  0  0  3  0  0  0  0  0  0
  161.8040  210.6870  152.9090 C   0  0  0  0  0  2  0  0  0  0  0  0
  159.9840  212.2960  153.1880 C   0  0  2  0  0  3  0  0  0  0  0  0
  157.3490  213.4100  153.0530 C   0  0  0  0  0  2  0  0  0  0  0  0
  159.4610  207.0150  156.6210 C   0  0  0  0  0  1  0  0  0  0  0  0
  159.4060  211.0970  155.1670 C   0  0  1  0  0  3  0  0  0  0  0  0
  157.5400  213.2560  151.5480 C   0  0  1  0  0  3  0  0  0  0  0  0
  160.2490  207.4370  154.2280 C   0  0  1  0  0  3  0  0  0  0  0  0
  161.7840  209.3980  153.7100 C   0  0  2  0  0  3  0  0  0  0  0  0
  157.4620  212.0700  153.7740 C   0  0  0  0  0  2  0  0  0  0  0  0
  159.9080  212.3370  151.6610 C   0  0  0  0  0  2  0  0  0  0  0  0
  160.5780  208.5650  153.2560 C   0  0  0  0  0  2  0  0  0  0  0  0
  161.1410  208.8720  156.1660 C   0  0  1  0  0  3  0  0  0  0  0  0
  162.2390  208.0260  156.6060 N   0  0  0  0  0  1  0  0  0  0  0  0
  160.9350  211.2240  155.0470 C   0  0  1  0  0  3  0  0  0  0  0  0
  156.6270  214.2720  150.8790 C   0  0  0  0  0  1  0  0  0  0  0  0
  161.6570  209.8900  155.1360 C   0  0  2  0  0  3  0  0  0  0  0  0
  159.0190  213.4730  151.1640 C   0  0  1  0  0  3  0  0  0  0  0  0
  159.2080  213.5560  149.6800 C   0  0  0  0  0  3  0  0  0  0  0  0
  160.3910  213.3010  149.1270 C   0  0  0  0  0  3  0  0  0  0  0  0
  160.5570  213.3890  147.6500 C   0  0  0  0  0  1  0  0  0  0  0  0
  161.3470  206.3760  154.2080 C   0  0  0  0  0  2  0  0  0  0  0  0
  161.1320  204.8250  152.6550 C   0  0  0  0  0  1  0  0  0  0  0  0
  161.7040  206.0740  152.8940 O   0  0  0  0  0  0  0  0  0  0  0  0
  158.8480  211.9570  156.3170 C   0  0  1  0  0  3  0  0  0  0  0  0
  156.6800  211.4950  157.2160 O   0  0  0  0  0  1  0  0  0  0  0  0
  158.0160  211.0990  157.2610 C   0  0  0  0  0  2  0  0  0  0  0  0
  159.9410  212.7080  157.0760 C   0  0  0  0  0  2  0  0  0  0  0  0
  160.0770  214.0010  156.5700 O   0  0  0  0  0  0  0  0  0  0  0  0
  158.7680  214.4520  156.4140 C   0  0  0  0  0  1  0  0  0  0  0  0
  1  4  1  6  0  0  0
  1 17  1  0  0  0  0
  2 12  1  1  0  0  0
  2  8  1  0  0  0  0
  3 15  1  0  0  0  0
  3  7  1  1  0  0  0
  5 13  1  6  0  0  0
  5  1  1  0  0  0  0
  5  2  1  0  0  0  0
  6 12  1  0  0  0  0
  8 27  1  1  0  0  0
  9 18  1  6  0  0  0
  9  6  1  0  0  0  0
 10 24  1  1  0  0  0
 10  3  1  0  0  0  0
 11  4  1  6  0  0  0
 11 19  1  0  0  0  0
 14 11  1  0  0  0  0
 14 10  1  0  0  0  0
 15 16  1  6  0  0  0
 17 19  1  0  0  0  0
 17  8  1  0  0  0  0
 19 15  1  0  0  0  0
 20  9  1  0  0  0  0
 20 13  1  0  0  0  0
 21 20  1  0  0  0  0
 22 21  2  0  0  0  0
 23 22  1  0  0  0  0
 25 26  1  0  0  0  0
 26 24  1  0  0  0  0
 27 30  1  0  0  0  0
 27 29  1  0  0  0  0
 28 29  1  0  0  0  0
 31 30  1  0  0  0  0
 32 31  1  0  0  0  0
M  END
>  <MODEL>
2

>  <REMARK>
 VINA RESULT:      -3.5      2.540      3.598
  Name = 
  7 active torsions:
  status: ('A' for Active; 'I' for Inactive)
    1  A    between atoms: C_10  and  C_28
    2  A    between atoms: O_11  and  C_12
    3  A    between atoms: C_12  and  C_28
    4  A    between atoms: C_14  and  C_29
    5  A    between atoms: C_15  and  C_19
    6  A    between atoms: C_19  and  O_26
    7  A    between atoms: C_28  and  C_32
                            x       y       z     vdW  Elec       q    Type
                         _______ _______ _______ _____ _____    ______ ____

>  <TORSDO>
F 7

$$$$
