=
 OpenBabel11062410343D

 43 47  0  0  1  0  0  0  0  0999 V2000
  162.6550  210.2290  156.3180 C   0  0  0  0  0  0  0  0  0  0  0  0
  161.3340  206.8570  152.3720 C   0  0  1  0  0  0  0  0  0  0  0  0
  162.6040  210.0290  153.8750 C   0  0  2  0  0  3  0  0  0  0  0  0
  161.7210  209.0580  156.4760 C   0  0  0  0  0  2  0  0  0  0  0  0
  163.3380  210.5900  157.2600 O   0  0  0  0  0  0  0  0  0  0  0  0
  161.3960  209.0910  153.9360 C   0  0  2  0  0  0  0  0  0  0  0  0
  162.6770  211.0120  155.0380 C   0  0  0  0  0  2  0  0  0  0  0  0
  161.6360  208.2220  155.1880 C   0  0  0  0  0  2  0  0  0  0  0  0
  160.3160  207.8010  152.1190 O   0  0  0  0  0  0  0  0  0  0  0  0
  161.5390  208.3320  152.5930 C   0  0  2  0  0  0  0  0  0  0  0  0
  162.3600  209.3360  151.3000 S   0  0  0  0  0  0  0  0  0  0  0  0
  162.7120  210.6560  152.5030 C   0  0  0  0  0  2  0  0  0  0  0  0
  160.7410  204.5150  153.0570 C   0  0  0  0  0  1  0  0  0  0  0  0
  160.9620  205.9400  153.5310 C   0  0  0  0  0  2  0  0  0  0  0  0
  161.8590  206.1780  151.0950 C   0  0  1  0  0  3  0  0  0  0  0  0
  162.2460  204.8510  151.3110 O   0  0  0  0  0  1  0  0  0  0  0  0
  160.8350  206.2690  149.9670 C   0  0  0  0  0  2  0  0  0  0  0  0
  161.4130  207.9610  148.1740 C   0  0  0  0  0  1  0  0  0  0  0  0
  161.4660  206.4970  148.5930 C   0  0  2  0  0  3  0  0  0  0  0  0
  160.9080  205.5310  147.5320 C   0  0  1  0  0  3  0  0  0  0  0  0
  160.5100  206.2090  146.3750 O   0  0  0  0  0  1  0  0  0  0  0  0
  161.8180  204.3460  147.1700 C   0  0  0  0  0  3  0  0  0  0  0  0
  161.1540  202.6230  146.0810 C   0  0  0  0  0  2  0  0  0  0  0  0
  161.7240  203.9770  145.7000 C   0  0  0  0  0  2  0  0  0  0  0  0
  161.2380  202.9960  147.5490 C   0  0  0  0  0  2  0  0  0  0  0  0
  160.0710  209.9230  154.0510 C   0  0  2  0  0  3  0  0  0  0  0  0
  160.1470  211.4420  153.8270 C   0  0  0  0  0  2  0  0  0  0  0  0
  158.4210  211.2810  152.2200 O   0  0  0  0  0  0  0  0  0  0  0  0
  159.3580  211.9340  152.6550 C   0  0  0  0  0  0  0  0  0  0  0  0
  159.7550  213.2180  151.9980 C   0  0  0  0  0  2  0  0  0  0  0  0
  159.1050  213.3690  150.6320 C   0  0  0  0  0  2  0  0  0  0  0  0
  161.0060  212.8360  149.1950 C   0  0  0  0  0  3  0  0  0  0  0  0
  160.1260  213.7380  149.6110 C   0  0  0  0  0  3  0  0  0  0  0  0
  161.8300  214.1160  147.3990 O   0  0  0  0  0  0  0  0  0  0  0  0
  162.0260  213.1610  148.1940 C   0  0  0  0  0  0  0  0  0  0  0  0
  163.2340  212.4100  148.1070 N   0  0  0  0  0  1  0  0  0  0  0  0
  159.1000  209.5140  155.1620 C   0  0  0  0  0  2  0  0  0  0  0  0
  158.4600  210.7120  155.7720 C   0  0  0  0  0  0  0  0  0  0  0  0
  157.2420  212.9400  156.9490 C   0  0  0  0  0  3  0  0  0  0  0  0
  156.5170  212.1300  156.0680 C   0  0  0  0  0  3  0  0  0  0  0  0
  158.5750  212.6350  157.2440 C   0  0  0  0  0  3  0  0  0  0  0  0
  157.1250  211.0160  155.4820 C   0  0  0  0  0  3  0  0  0  0  0  0
  159.1820  211.5210  156.6570 C   0  0  0  0  0  3  0  0  0  0  0  0
  1  4  1  0  0  0  0
  1  5  2  0  0  0  0
  2 10  1  0  0  0  0
  2 14  1  1  0  0  0
  3 12  1  6  0  0  0
  3  6  1  0  0  0  0
  3  7  1  0  0  0  0
  6 26  1  1  0  0  0
  6  8  1  0  0  0  0
  7  1  1  0  0  0  0
  8  4  1  0  0  0  0
  9  2  1  0  0  0  0
  9 10  1  0  0  0  0
 10 11  1  6  0  0  0
 10  6  1  0  0  0  0
 11 12  1  0  0  0  0
 13 14  1  0  0  0  0
 15 16  1  1  0  0  0
 15  2  1  0  0  0  0
 17 15  1  0  0  0  0
 19 18  1  6  0  0  0
 19 17  1  0  0  0  0
 20 21  1  6  0  0  0
 20 19  1  0  0  0  0
 22 20  1  0  0  0  0
 22 25  1  0  0  0  0
 23 25  1  0  0  0  0
 24 23  1  0  0  0  0
 24 22  1  0  0  0  0
 26 27  1  1  0  0  0
 26 37  1  0  0  0  0
 28 29  2  0  0  0  0
 29 27  1  0  0  0  0
 30 29  1  0  0  0  0
 31 30  1  0  0  0  0
 32 33  2  0  0  0  0
 33 31  1  0  0  0  0
 34 35  2  0  0  0  0
 35 32  1  0  0  0  0
 36 35  1  0  0  0  0
 37 38  1  0  0  0  0
 38 43  1  0  0  0  0
 39 41  1  0  0  0  0
 40 39  2  0  0  0  0
 42 38  2  0  0  0  0
 42 40  1  0  0  0  0
 43 41  2  0  0  0  0
M  END
>  <MODEL>
1

>  <REMARK>
 VINA RESULT:      -5.5      0.000      0.000
  Name = 
  15 active torsions:
  status: ('A' for Active; 'I' for Inactive)
    1  A    between atoms: C_1  and  C_34
    2  A    between atoms: C_1  and  C_35
    3  A    between atoms: C_3  and  C_12
    4  A    between atoms: C_4  and  C_15
    5  A    between atoms: C_8  and  C_13
    6  A    between atoms: C_8  and  C_34
    7  A    between atoms: C_9  and  C_19
    8  A    between atoms: C_9  and  C_35
    9  A    between atoms: C_10  and  C_41
   10  A    between atoms: C_10  and  C_42
   11  A    between atoms: C_11  and  C_14
   12  A    between atoms: C_14  and  C_41
   13  A    between atoms: C_15  and  C_22
   14  A    between atoms: C_21  and  C_41
   15  A    between atoms: C_22  and  C_42
                            x       y       z     vdW  Elec       q    Type
                         _______ _______ _______ _____ _____    ______ ____

>  <TORSDO>
F 15

$$$$
=
 OpenBabel11062410343D

 43 47  0  0  1  0  0  0  0  0999 V2000
  162.4690  210.2020  156.2530 C   0  0  0  0  0  0  0  0  0  0  0  0
  161.0410  207.1640  152.0790 C   0  0  1  0  0  0  0  0  0  0  0  0
  162.5870  210.0900  153.8070 C   0  0  2  0  0  3  0  0  0  0  0  0
  161.3820  209.1600  156.2910 C   0  0  0  0  0  2  0  0  0  0  0  0
  163.1160  210.4380  157.2580 O   0  0  0  0  0  0  0  0  0  0  0  0
  161.2670  209.3180  153.7370 C   0  0  2  0  0  0  0  0  0  0  0  0
  162.6940  211.0160  155.0130 C   0  0  0  0  0  2  0  0  0  0  0  0
  161.2920  208.3850  154.9650 C   0  0  0  0  0  2  0  0  0  0  0  0
  160.1780  208.2430  151.7910 O   0  0  0  0  0  0  0  0  0  0  0  0
  161.4170  208.5910  152.3770 C   0  0  2  0  0  0  0  0  0  0  0  0
  162.4610  209.5190  151.1930 S   0  0  0  0  0  0  0  0  0  0  0  0
  162.8850  210.7420  152.4750 C   0  0  0  0  0  2  0  0  0  0  0  0
  161.5600  205.6700  154.0280 C   0  0  0  0  0  1  0  0  0  0  0  0
  160.4620  206.2670  153.1670 C   0  0  0  0  0  2  0  0  0  0  0  0
  161.5730  206.4640  150.8170 C   0  0  1  0  0  3  0  0  0  0  0  0
  162.3870  205.3660  151.1140 O   0  0  0  0  0  1  0  0  0  0  0  0
  160.4290  206.0580  149.8920 C   0  0  0  0  0  2  0  0  0  0  0  0
  160.6110  203.6730  150.7220 C   0  0  0  0  0  1  0  0  0  0  0  0
  160.4560  204.5790  149.5070 C   0  0  2  0  0  3  0  0  0  0  0  0
  161.4760  204.2910  148.3890 C   0  0  1  0  0  3  0  0  0  0  0  0
  161.8220  202.9370  148.3430 O   0  0  0  0  0  1  0  0  0  0  0  0
  161.0830  204.7900  146.9890 C   0  0  0  0  0  3  0  0  0  0  0  0
  162.4680  205.6560  145.6010 C   0  0  0  0  0  2  0  0  0  0  0  0
  161.9990  204.2460  145.9070 C   0  0  0  0  0  2  0  0  0  0  0  0
  161.5610  206.1990  146.6890 C   0  0  0  0  0  2  0  0  0  0  0  0
  160.0560  210.3150  153.7890 C   0  0  2  0  0  3  0  0  0  0  0  0
  160.3080  211.7830  153.4070 C   0  0  0  0  0  2  0  0  0  0  0  0
  160.4680  212.3970  151.1310 O   0  0  0  0  0  0  0  0  0  0  0  0
  159.7350  212.1850  152.0860 C   0  0  0  0  0  0  0  0  0  0  0  0
  158.2560  212.3600  151.9570 C   0  0  0  0  0  2  0  0  0  0  0  0
  157.8760  213.8290  151.8480 C   0  0  0  0  0  2  0  0  0  0  0  0
  157.1140  213.3570  149.5770 C   0  0  0  0  0  3  0  0  0  0  0  0
  157.6820  214.2090  150.4200 C   0  0  0  0  0  3  0  0  0  0  0  0
  155.9570  214.4530  147.8440 O   0  0  0  0  0  0  0  0  0  0  0  0
  156.9070  213.6930  148.1650 C   0  0  0  0  0  0  0  0  0  0  0  0
  157.7630  213.1700  147.1530 N   0  0  0  0  0  1  0  0  0  0  0  0
  159.0770  210.1420  154.9530 C   0  0  0  0  0  2  0  0  0  0  0  0
  158.3360  211.4070  155.2120 C   0  0  0  0  0  0  0  0  0  0  0  0
  156.9550  213.7990  155.6610 C   0  0  0  0  0  3  0  0  0  0  0  0
  158.3120  213.7040  155.9830 C   0  0  0  0  0  3  0  0  0  0  0  0
  156.2870  212.7000  155.1110 C   0  0  0  0  0  3  0  0  0  0  0  0
  159.0020  212.5100  155.7580 C   0  0  0  0  0  3  0  0  0  0  0  0
  156.9780  211.5050  154.8850 C   0  0  0  0  0  3  0  0  0  0  0  0
  1  4  1  0  0  0  0
  1  5  2  0  0  0  0
  2 10  1  0  0  0  0
  2 14  1  1  0  0  0
  3 12  1  6  0  0  0
  3  7  1  0  0  0  0
  6 26  1  1  0  0  0
  6  3  1  0  0  0  0
  6  8  1  0  0  0  0
  7  1  1  0  0  0  0
  8  4  1  0  0  0  0
  9  2  1  0  0  0  0
  9 10  1  0  0  0  0
 10 11  1  6  0  0  0
 10  6  1  0  0  0  0
 11 12  1  0  0  0  0
 14 13  1  0  0  0  0
 15 16  1  1  0  0  0
 15  2  1  0  0  0  0
 17 15  1  0  0  0  0
 19 17  1  0  0  0  0
 19 18  1  1  0  0  0
 20 21  1  6  0  0  0
 20 19  1  0  0  0  0
 22 20  1  0  0  0  0
 23 24  1  0  0  0  0
 23 25  1  0  0  0  0
 24 22  1  0  0  0  0
 25 22  1  0  0  0  0
 26 27  1  1  0  0  0
 26 37  1  0  0  0  0
 28 29  2  0  0  0  0
 29 27  1  0  0  0  0
 30 29  1  0  0  0  0
 31 30  1  0  0  0  0
 32 33  2  0  0  0  0
 33 31  1  0  0  0  0
 34 35  2  0  0  0  0
 35 32  1  0  0  0  0
 36 35  1  0  0  0  0
 37 38  1  0  0  0  0
 38 42  1  0  0  0  0
 39 40  1  0  0  0  0
 41 39  2  0  0  0  0
 42 40  2  0  0  0  0
 43 41  1  0  0  0  0
 43 38  2  0  0  0  0
M  END
>  <MODEL>
2

>  <REMARK>
 VINA RESULT:      -4.2      1.855      2.367
  Name = 
  15 active torsions:
  status: ('A' for Active; 'I' for Inactive)
    1  A    between atoms: C_1  and  C_34
    2  A    between atoms: C_1  and  C_35
    3  A    between atoms: C_3  and  C_12
    4  A    between atoms: C_4  and  C_15
    5  A    between atoms: C_8  and  C_13
    6  A    between atoms: C_8  and  C_34
    7  A    between atoms: C_9  and  C_19
    8  A    between atoms: C_9  and  C_35
    9  A    between atoms: C_10  and  C_41
   10  A    between atoms: C_10  and  C_42
   11  A    between atoms: C_11  and  C_14
   12  A    between atoms: C_14  and  C_41
   13  A    between atoms: C_15  and  C_22
   14  A    between atoms: C_21  and  C_41
   15  A    between atoms: C_22  and  C_42
                            x       y       z     vdW  Elec       q    Type
                         _______ _______ _______ _____ _____    ______ ____

>  <TORSDO>
F 15

$$$$
