=
 OpenBabel11062408243D

 32 36  0  0  1  0  0  0  0  0999 V2000
  160.8280  208.1920  153.3950 C   0  0  1  0  0  3  0  0  0  0  0  0
  160.5610  210.7210  153.9400 C   0  0  2  0  0  3  0  0  0  0  0  0
  161.4990  206.9500  154.0000 C   0  0  0  0  0  2  0  0  0  0  0  0
  160.9470  209.3140  154.4270 C   0  0  1  0  0  3  0  0  0  0  0  0
  159.0780  210.9970  154.2580 C   0  0  2  0  0  3  0  0  0  0  0  0
  159.0510  214.4530  149.9230 N   0  0  0  0  0  1  0  0  0  0  0  0
  160.8770  210.9720  152.4980 C   0  0  1  0  0  3  0  0  0  0  0  0
  157.9090  212.9890  151.5050 C   0  0  0  0  0  2  0  0  0  0  0  0
  157.9520  211.8520  152.5390 C   0  0  0  0  0  2  0  0  0  0  0  0
  160.0530  208.8950  155.5940 C   0  0  2  0  0  3  0  0  0  0  0  0
  158.6040  212.2160  153.7290 O   0  0  0  0  0  0  0  0  0  0  0  0
  159.7880  209.9920  156.4340 O   0  0  0  0  0  0  0  0  0  0  0  0
  160.7070  207.7200  156.3060 C   0  0  0  0  0  2  0  0  0  0  0  0
  160.7210  209.8470  151.5130 C   0  0  0  0  0  2  0  0  0  0  0  0
  161.4230  208.5950  152.0410 C   0  0  2  0  0  3  0  0  0  0  0  0
  160.8380  212.2040  152.1390 N   0  0  0  0  0  2  0  0  0  0  0  0
  158.8220  210.8180  155.7890 C   0  0  1  0  0  3  0  0  0  0  0  0
  160.8110  206.5450  155.3170 C   0  0  0  0  0  2  0  0  0  0  0  0
  159.2500  213.6310  151.1010 C   0  0  1  0  0  3  0  0  0  0  0  0
  160.3920  212.6490  150.8500 C   0  0  0  0  0  2  0  0  0  0  0  0
  161.5860  206.6920  148.7500 C   0  0  0  0  0  0  0  0  0  0  0  0
  161.9260  206.9120  147.4560 F   0  0  0  0  0  0  0  0  0  0  0  0
  161.3240  207.4880  151.0280 C   0  0  0  0  0  0  0  0  0  0  0  0
  161.1450  205.4250  149.1400 C   0  0  0  0  0  3  0  0  0  0  0  0
  160.8810  206.2120  151.4120 C   0  0  0  0  0  3  0  0  0  0  0  0
  161.6770  207.7250  149.6900 C   0  0  0  0  0  0  0  0  0  0  0  0
  162.1190  208.9820  149.2910 O   0  0  0  0  0  1  0  0  0  0  0  0
  160.7890  205.1790  150.4750 C   0  0  0  0  0  0  0  0  0  0  0  0
  161.1580  203.0320  151.6450 C   0  0  0  0  0  1  0  0  0  0  0  0
  160.3430  203.9230  150.8960 O   0  0  0  0  0  0  0  0  0  0  0  0
  158.7590  212.1500  156.5250 C   0  0  0  0  0  2  0  0  0  0  0  0
  160.0480  212.5820  156.8380 O   0  0  0  0  0  1  0  0  0  0  0  0
  1  3  1  1  0  0  0
  1  4  1  0  0  0  0
  2  5  1  0  0  0  0
  2  4  1  0  0  0  0
  3 18  1  0  0  0  0
  4 10  1  0  0  0  0
  5 17  1  0  0  0  0
  6 19  1  0  0  0  0
  7  2  1  0  0  0  0
  8  9  1  0  0  0  0
  9 11  1  0  0  0  0
 10 13  1  0  0  0  0
 10 12  1  0  0  0  0
 11  5  1  0  0  0  0
 14 15  1  0  0  0  0
 14  7  1  0  0  0  0
 15  1  1  0  0  0  0
 16  7  1  0  0  0  0
 17 12  1  0  0  0  0
 17 31  1  0  0  0  0
 18 13  1  0  0  0  0
 19  8  1  0  0  0  0
 20 19  1  0  0  0  0
 20 16  1  0  0  0  0
 21 24  2  0  0  0  0
 21 26  1  0  0  0  0
 22 21  1  0  0  0  0
 23 25  1  0  0  0  0
 23 15  1  0  0  0  0
 24 28  1  0  0  0  0
 26 23  2  0  0  0  0
 27 26  1  0  0  0  0
 28 30  1  0  0  0  0
 28 25  2  0  0  0  0
 30 29  1  0  0  0  0
 31 32  1  0  0  0  0
M  END
>  <MODEL>
1

>  <REMARK>
 VINA RESULT:      -7.1      0.000      0.000
  Name = 
  3 active torsions:
  status: ('A' for Active; 'I' for Inactive)
    1  A    between atoms: C_13  and  C_29
    2  A    between atoms: O_15  and  C_26
    3  A    between atoms: C_16  and  C_27
                            x       y       z     vdW  Elec       q    Type
                         _______ _______ _______ _____ _____    ______ ____

>  <TORSDO>
F 3

$$$$
=
 OpenBabel11062408243D

 32 36  0  0  1  0  0  0  0  0999 V2000
  161.3400  209.6220  151.2770 C   0  0  1  0  0  3  0  0  0  0  0  0
  162.3770  207.4430  150.3060 C   0  0  2  0  0  3  0  0  0  0  0  0
  161.6310  211.1300  151.2840 C   0  0  0  0  0  2  0  0  0  0  0  0
  162.3190  208.9800  150.2930 C   0  0  1  0  0  3  0  0  0  0  0  0
  161.4110  206.8740  149.2470 C   0  0  2  0  0  3  0  0  0  0  0  0
  161.0070  202.3400  152.4130 N   0  0  0  0  0  1  0  0  0  0  0  0
  162.1410  206.8380  151.6550 C   0  0  1  0  0  3  0  0  0  0  0  0
  160.1340  203.8490  150.7060 C   0  0  0  0  0  2  0  0  0  0  0  0
  160.1320  205.2220  150.0150 C   0  0  0  0  0  2  0  0  0  0  0  0
  161.9020  209.4820  148.9110 C   0  0  2  0  0  3  0  0  0  0  0  0
  161.3030  205.4680  149.2780 O   0  0  0  0  0  0  0  0  0  0  0  0
  162.4790  208.6910  147.9010 O   0  0  0  0  0  0  0  0  0  0  0  0
  162.2500  210.9590  148.8090 C   0  0  0  0  0  2  0  0  0  0  0  0
  161.1500  207.4870  152.5810 C   0  0  0  0  0  2  0  0  0  0  0  0
  161.4300  208.9870  152.6700 C   0  0  2  0  0  3  0  0  0  0  0  0
  162.4620  205.5980  151.7590 N   0  0  0  0  0  2  0  0  0  0  0  0
  161.7610  207.4600  147.8410 C   0  0  1  0  0  3  0  0  0  0  0  0
  161.4490  211.7270  149.8750 C   0  0  0  0  0  2  0  0  0  0  0  0
  161.3210  203.5210  151.6320 C   0  0  1  0  0  3  0  0  0  0  0  0
  161.7480  204.6520  152.5650 C   0  0  0  0  0  2  0  0  0  0  0  0
  159.6910  209.9320  155.9190 C   0  0  0  0  0  0  0  0  0  0  0  0
  159.7740  209.6530  157.2440 F   0  0  0  0  0  0  0  0  0  0  0  0
  160.4810  209.6280  153.6440 C   0  0  0  0  0  0  0  0  0  0  0  0
  158.7170  210.8240  155.4630 C   0  0  0  0  0  3  0  0  0  0  0  0
  159.4990  210.5250  153.1950 C   0  0  0  0  0  3  0  0  0  0  0  0
  160.5740  209.3330  155.0140 C   0  0  0  0  0  0  0  0  0  0  0  0
  161.5410  208.4470  155.4790 O   0  0  0  0  0  1  0  0  0  0  0  0
  158.6160  211.1250  154.0960 C   0  0  0  0  0  0  0  0  0  0  0  0
  156.7040  212.6530  154.4520 C   0  0  0  0  0  1  0  0  0  0  0  0
  157.6520  212.0120  153.6090 O   0  0  0  0  0  0  0  0  0  0  0  0
  162.5560  206.4810  146.9870 C   0  0  0  0  0  2  0  0  0  0  0  0
  161.7550  205.9890  145.9570 O   0  0  0  0  0  1  0  0  0  0  0  0
  1  3  1  1  0  0  0
  1 15  1  0  0  0  0
  2  7  1  0  0  0  0
  4  2  1  0  0  0  0
  4  1  1  0  0  0  0
  5 11  1  0  0  0  0
  5  2  1  0  0  0  0
  7 16  1  0  0  0  0
  7 14  1  0  0  0  0
  8 19  1  0  0  0  0
  9  8  1  0  0  0  0
 10  4  1  0  0  0  0
 11  9  1  0  0  0  0
 12 10  1  0  0  0  0
 13 10  1  0  0  0  0
 13 18  1  0  0  0  0
 14 15  1  0  0  0  0
 15 23  1  0  0  0  0
 16 20  1  0  0  0  0
 17 12  1  0  0  0  0
 17  5  1  0  0  0  0
 18  3  1  0  0  0  0
 19  6  1  0  0  0  0
 19 20  1  0  0  0  0
 21 22  1  0  0  0  0
 23 26  1  0  0  0  0
 24 21  1  0  0  0  0
 25 23  2  0  0  0  0
 25 28  1  0  0  0  0
 26 27  1  0  0  0  0
 26 21  2  0  0  0  0
 28 24  2  0  0  0  0
 30 28  1  0  0  0  0
 30 29  1  0  0  0  0
 31 17  1  0  0  0  0
 32 31  1  0  0  0  0
M  END
>  <MODEL>
2

>  <REMARK>
 VINA RESULT:      -6.8      3.253      7.902
  Name = 
  3 active torsions:
  status: ('A' for Active; 'I' for Inactive)
    1  A    between atoms: C_13  and  C_29
    2  A    between atoms: O_15  and  C_26
    3  A    between atoms: C_16  and  C_27
                            x       y       z     vdW  Elec       q    Type
                         _______ _______ _______ _____ _____    ______ ____

>  <TORSDO>
F 3

$$$$
=
 OpenBabel11062408243D

 32 36  0  0  1  0  0  0  0  0999 V2000
  161.1770  206.0420  150.8140 C   0  0  1  0  0  3  0  0  0  0  0  0
  160.5100  204.4710  148.8500 C   0  0  2  0  0  3  0  0  0  0  0  0
  160.8350  206.2340  152.2990 C   0  0  0  0  0  2  0  0  0  0  0  0
  160.5090  204.7410  150.3650 C   0  0  1  0  0  3  0  0  0  0  0  0
  161.7370  203.6170  148.4720 C   0  0  2  0  0  3  0  0  0  0  0  0
  161.4880  205.9410  143.4440 N   0  0  0  0  0  1  0  0  0  0  0  0
  160.4140  205.7080  148.0130 C   0  0  1  0  0  3  0  0  0  0  0  0
  162.7130  204.8100  145.2250 C   0  0  0  0  0  2  0  0  0  0  0  0
  162.8380  204.3930  146.7000 C   0  0  0  0  0  2  0  0  0  0  0  0
  161.2480  203.6240  151.1020 C   0  0  2  0  0  3  0  0  0  0  0  0
  161.8880  203.4300  147.0810 O   0  0  0  0  0  0  0  0  0  0  0  0
  160.9820  202.3770  150.5070 O   0  0  0  0  0  0  0  0  0  0  0  0
  160.8810  203.6930  152.5760 C   0  0  0  0  0  2  0  0  0  0  0  0
  161.1070  206.9580  148.4790 C   0  0  0  0  0  2  0  0  0  0  0  0
  160.7550  207.2310  149.9420 C   0  0  2  0  0  3  0  0  0  0  0  0
  160.1250  205.5080  146.7780 N   0  0  0  0  0  2  0  0  0  0  0  0
  161.7380  202.2930  149.3010 C   0  0  1  0  0  3  0  0  0  0  0  0
  161.3490  205.0480  153.1350 C   0  0  0  0  0  2  0  0  0  0  0  0
  161.3400  205.3230  144.7470 C   0  0  1  0  0  3  0  0  0  0  0  0
  160.6440  206.2950  145.6970 C   0  0  0  0  0  2  0  0  0  0  0  0
  162.4210  210.6510  149.8630 C   0  0  0  0  0  0  0  0  0  0  0  0
  162.8400  211.5640  148.9530 F   0  0  0  0  0  0  0  0  0  0  0  0
  161.3960  208.5140  150.3910 C   0  0  0  0  0  0  0  0  0  0  0  0
  162.5850  210.9110  151.2260 C   0  0  0  0  0  3  0  0  0  0  0  0
  161.5640  208.7840  151.7590 C   0  0  0  0  0  3  0  0  0  0  0  0
  161.8270  209.4550  149.4420 C   0  0  0  0  0  0  0  0  0  0  0  0
  161.6680  209.2070  148.0830 O   0  0  0  0  0  1  0  0  0  0  0  0
  162.1570  209.9770  152.1820 C   0  0  0  0  0  0  0  0  0  0  0  0
  161.2760  210.7690  154.3530 C   0  0  0  0  0  1  0  0  0  0  0  0
  162.3070  210.2080  153.5520 O   0  0  0  0  0  0  0  0  0  0  0  0
  161.2290  201.1050  148.4960 C   0  0  0  0  0  2  0  0  0  0  0  0
  159.8400  201.0210  148.5960 O   0  0  0  0  0  1  0  0  0  0  0  0
  1  3  1  1  0  0  0
  2  4  1  0  0  0  0
  3 18  1  0  0  0  0
  4  1  1  0  0  0  0
  4 10  1  0  0  0  0
  5  2  1  0  0  0  0
  5 17  1  0  0  0  0
  6 19  1  0  0  0  0
  7 14  1  0  0  0  0
  7  2  1  0  0  0  0
  8  9  1  0  0  0  0
  9 11  1  0  0  0  0
 10 13  1  0  0  0  0
 11  5  1  0  0  0  0
 12 10  1  0  0  0  0
 13 18  1  0  0  0  0
 14 15  1  0  0  0  0
 15 23  1  0  0  0  0
 15  1  1  0  0  0  0
 16  7  1  0  0  0  0
 17 12  1  0  0  0  0
 19  8  1  0  0  0  0
 19 20  1  0  0  0  0
 20 16  1  0  0  0  0
 21 24  1  0  0  0  0
 22 21  1  0  0  0  0
 23 25  2  0  0  0  0
 24 28  2  0  0  0  0
 25 28  1  0  0  0  0
 26 21  2  0  0  0  0
 26 23  1  0  0  0  0
 27 26  1  0  0  0  0
 28 30  1  0  0  0  0
 30 29  1  0  0  0  0
 31 32  1  0  0  0  0
 31 17  1  0  0  0  0
M  END
>  <MODEL>
3

>  <REMARK>
 VINA RESULT:      -6.6      3.487      7.851
  Name = 
  3 active torsions:
  status: ('A' for Active; 'I' for Inactive)
    1  A    between atoms: C_13  and  C_29
    2  A    between atoms: O_15  and  C_26
    3  A    between atoms: C_16  and  C_27
                            x       y       z     vdW  Elec       q    Type
                         _______ _______ _______ _____ _____    ______ ____

>  <TORSDO>
F 3

$$$$
=
 OpenBabel11062408243D

 32 36  0  0  1  0  0  0  0  0999 V2000
  161.3560  207.7010  152.0700 C   0  0  1  0  0  3  0  0  0  0  0  0
  161.6210  210.2590  152.4640 C   0  0  2  0  0  3  0  0  0  0  0  0
  161.7310  206.3860  152.7680 C   0  0  0  0  0  2  0  0  0  0  0  0
  161.6850  208.8350  153.0420 C   0  0  1  0  0  3  0  0  0  0  0  0
  160.2220  210.8610  152.7090 C   0  0  2  0  0  3  0  0  0  0  0  0
  161.0440  213.9690  148.1910 N   0  0  0  0  0  1  0  0  0  0  0  0
  162.0190  210.3470  151.0230 C   0  0  1  0  0  3  0  0  0  0  0  0
  159.5760  212.8800  149.8080 C   0  0  0  0  0  2  0  0  0  0  0  0
  159.3490  211.8270  150.9040 C   0  0  0  0  0  2  0  0  0  0  0  0
  160.6920  208.6880  154.1960 C   0  0  2  0  0  3  0  0  0  0  0  0
  160.0330  212.1180  152.0960 O   0  0  0  0  0  0  0  0  0  0  0  0
  160.6460  209.8660  154.9630 O   0  0  0  0  0  0  0  0  0  0  0  0
  161.0620  207.4480  154.9960 C   0  0  0  0  0  2  0  0  0  0  0  0
  161.6520  209.2220  150.0960 C   0  0  0  0  0  2  0  0  0  0  0  0
  162.0580  207.8850  150.7190 C   0  0  2  0  0  3  0  0  0  0  0  0
  162.2530  211.5360  150.5950 N   0  0  0  0  0  2  0  0  0  0  0  0
  159.8950  210.8360  154.2370 C   0  0  1  0  0  3  0  0  0  0  0  0
  160.9390  206.2180  154.0790 C   0  0  0  0  0  2  0  0  0  0  0  0
  161.0330  213.1980  149.4200 C   0  0  1  0  0  3  0  0  0  0  0  0
  161.9450  211.9830  149.2680 C   0  0  0  0  0  2  0  0  0  0  0  0
  161.7830  205.8430  147.5200 C   0  0  0  0  0  0  0  0  0  0  0  0
  162.0860  205.9580  146.2030 F   0  0  0  0  0  0  0  0  0  0  0  0
  161.7500  206.7630  149.7670 C   0  0  0  0  0  0  0  0  0  0  0  0
  161.1840  204.6710  147.9900 C   0  0  0  0  0  3  0  0  0  0  0  0
  161.1490  205.5820  150.2300 C   0  0  0  0  0  3  0  0  0  0  0  0
  162.0680  206.8900  148.4050 C   0  0  0  0  0  0  0  0  0  0  0  0
  162.6650  208.0520  147.9270 O   0  0  0  0  0  1  0  0  0  0  0  0
  160.8630  204.5350  149.3490 C   0  0  0  0  0  0  0  0  0  0  0  0
  160.4370  202.1020  149.2450 C   0  0  0  0  0  1  0  0  0  0  0  0
  160.2640  203.3760  149.8490 O   0  0  0  0  0  0  0  0  0  0  0  0
  160.0990  212.1940  154.8950 C   0  0  0  0  0  2  0  0  0  0  0  0
  160.8570  212.0510  156.0570 O   0  0  0  0  0  1  0  0  0  0  0  0
  1  3  1  1  0  0  0
  1  4  1  0  0  0  0
  2  5  1  0  0  0  0
  2  4  1  0  0  0  0
  3 18  1  0  0  0  0
  4 10  1  0  0  0  0
  5 17  1  0  0  0  0
  6 19  1  0  0  0  0
  7  2  1  0  0  0  0
  8  9  1  0  0  0  0
  9 11  1  0  0  0  0
 10 12  1  0  0  0  0
 10 13  1  0  0  0  0
 11  5  1  0  0  0  0
 14 15  1  0  0  0  0
 14  7  1  0  0  0  0
 15  1  1  0  0  0  0
 16  7  1  0  0  0  0
 17 31  1  0  0  0  0
 17 12  1  0  0  0  0
 18 13  1  0  0  0  0
 19  8  1  0  0  0  0
 20 19  1  0  0  0  0
 20 16  1  0  0  0  0
 21 24  2  0  0  0  0
 21 26  1  0  0  0  0
 22 21  1  0  0  0  0
 23 25  1  0  0  0  0
 23 15  1  0  0  0  0
 24 28  1  0  0  0  0
 26 23  2  0  0  0  0
 27 26  1  0  0  0  0
 28 30  1  0  0  0  0
 28 25  2  0  0  0  0
 29 30  1  0  0  0  0
 31 32  1  0  0  0  0
M  END
>  <MODEL>
4

>  <REMARK>
 VINA RESULT:      -6.4      1.511      1.833
  Name = 
  3 active torsions:
  status: ('A' for Active; 'I' for Inactive)
    1  A    between atoms: C_13  and  C_29
    2  A    between atoms: O_15  and  C_26
    3  A    between atoms: C_16  and  C_27
                            x       y       z     vdW  Elec       q    Type
                         _______ _______ _______ _____ _____    ______ ____

>  <TORSDO>
F 3

$$$$
=
 OpenBabel11062408243D

 32 36  0  0  1  0  0  0  0  0999 V2000
  160.5240  208.2820  153.9180 C   0  0  1  0  0  3  0  0  0  0  0  0
  160.3810  210.8720  154.1130 C   0  0  2  0  0  3  0  0  0  0  0  0
  161.0220  207.0920  154.7520 C   0  0  0  0  0  2  0  0  0  0  0  0
  160.5990  209.5200  154.8130 C   0  0  1  0  0  3  0  0  0  0  0  0
  158.8940  211.2730  154.1970 C   0  0  2  0  0  3  0  0  0  0  0  0
  159.6570  214.1330  149.5090 N   0  0  0  0  0  1  0  0  0  0  0  0
  160.8890  210.9150  152.7050 C   0  0  1  0  0  3  0  0  0  0  0  0
  158.2240  212.9550  151.0940 C   0  0  0  0  0  2  0  0  0  0  0  0
  158.0540  211.9620  152.2550 C   0  0  0  0  0  2  0  0  0  0  0  0
  159.5390  209.3090  155.8960 C   0  0  2  0  0  3  0  0  0  0  0  0
  158.5810  212.4390  153.4680 O   0  0  0  0  0  0  0  0  0  0  0  0
  159.2560  210.5190  156.5540 O   0  0  0  0  0  0  0  0  0  0  0  0
  160.0120  208.2000  156.8230 C   0  0  0  0  0  2  0  0  0  0  0  0
  160.7720  209.6820  151.8510 C   0  0  0  0  0  2  0  0  0  0  0  0
  161.3090  208.4710  152.6150 C   0  0  2  0  0  3  0  0  0  0  0  0
  160.9860  212.0910  152.1970 N   0  0  0  0  0  2  0  0  0  0  0  0
  158.4400  211.3100  155.6920 C   0  0  1  0  0  3  0  0  0  0  0  0
  160.1490  206.9030  156.0070 C   0  0  0  0  0  2  0  0  0  0  0  0
  159.6480  213.4600  150.7940 C   0  0  1  0  0  3  0  0  0  0  0  0
  160.7360  212.3890  150.8170 C   0  0  0  0  0  2  0  0  0  0  0  0
  161.7330  204.8970  151.3790 C   0  0  0  0  0  0  0  0  0  0  0  0
  162.2490  203.7200  151.8100 F   0  0  0  0  0  0  0  0  0  0  0  0
  161.2530  207.2500  151.7400 C   0  0  0  0  0  0  0  0  0  0  0  0
  161.1430  204.9700  150.1140 C   0  0  0  0  0  3  0  0  0  0  0  0
  160.6620  207.3130  150.4680 C   0  0  0  0  0  3  0  0  0  0  0  0
  161.7890  206.0340  152.1940 C   0  0  0  0  0  0  0  0  0  0  0  0
  162.3780  205.9510  153.4520 O   0  0  0  0  0  1  0  0  0  0  0  0
  160.6050  206.1800  149.6520 C   0  0  0  0  0  0  0  0  0  0  0  0
  160.7610  206.2970  147.1860 C   0  0  0  0  0  1  0  0  0  0  0  0
  160.0090  206.2840  148.3920 O   0  0  0  0  0  0  0  0  0  0  0  0
  158.3870  212.7270  156.2470 C   0  0  0  0  0  2  0  0  0  0  0  0
  159.6620  213.1340  156.6370 O   0  0  0  0  0  1  0  0  0  0  0  0
  1  3  1  1  0  0  0
  1  4  1  0  0  0  0
  2  5  1  0  0  0  0
  2  4  1  0  0  0  0
  3 18  1  0  0  0  0
  4 10  1  0  0  0  0
  5 17  1  0  0  0  0
  6 19  1  0  0  0  0
  7  2  1  0  0  0  0
  8  9  1  0  0  0  0
  9 11  1  0  0  0  0
 10 12  1  0  0  0  0
 10 13  1  0  0  0  0
 11  5  1  0  0  0  0
 14 15  1  0  0  0  0
 14  7  1  0  0  0  0
 15  1  1  0  0  0  0
 16  7  1  0  0  0  0
 17 31  1  0  0  0  0
 17 12  1  0  0  0  0
 18 13  1  0  0  0  0
 19 20  1  0  0  0  0
 19  8  1  0  0  0  0
 20 16  1  0  0  0  0
 21 22  1  0  0  0  0
 21 26  1  0  0  0  0
 23 26  2  0  0  0  0
 23 15  1  0  0  0  0
 24 21  2  0  0  0  0
 25 23  1  0  0  0  0
 26 27  1  0  0  0  0
 28 24  1  0  0  0  0
 28 25  2  0  0  0  0
 29 30  1  0  0  0  0
 30 28  1  0  0  0  0
 31 32  1  0  0  0  0
M  END
>  <MODEL>
5

>  <REMARK>
 VINA RESULT:      -5.7      1.517      2.030
  Name = 
  3 active torsions:
  status: ('A' for Active; 'I' for Inactive)
    1  A    between atoms: C_13  and  C_29
    2  A    between atoms: O_15  and  C_26
    3  A    between atoms: C_16  and  C_27
                            x       y       z     vdW  Elec       q    Type
                         _______ _______ _______ _____ _____    ______ ____

>  <TORSDO>
F 3

$$$$
=
 OpenBabel11062408243D

 32 36  0  0  1  0  0  0  0  0999 V2000
  161.7510  209.2750  149.4340 C   0  0  1  0  0  3  0  0  0  0  0  0
  162.1900  208.3510  151.8260 C   0  0  2  0  0  3  0  0  0  0  0  0
  162.1880  208.9820  147.9910 C   0  0  0  0  0  2  0  0  0  0  0  0
  162.2950  208.1410  150.3060 C   0  0  1  0  0  3  0  0  0  0  0  0
  160.8840  207.7220  152.3520 C   0  0  2  0  0  3  0  0  0  0  0  0
  161.0250  211.4640  156.4410 N   0  0  0  0  0  1  0  0  0  0  0  0
  162.3310  209.7790  152.2530 C   0  0  1  0  0  3  0  0  0  0  0  0
  159.8210  209.9060  155.0000 C   0  0  0  0  0  2  0  0  0  0  0  0
  159.7470  209.0630  153.7170 C   0  0  0  0  0  2  0  0  0  0  0  0
  161.5170  206.8930  149.8890 C   0  0  2  0  0  3  0  0  0  0  0  0
  160.6430  207.9800  153.7180 O   0  0  0  0  0  0  0  0  0  0  0  0
  161.6570  205.8770  150.8520 O   0  0  0  0  0  0  0  0  0  0  0  0
  161.9700  206.4850  148.4950 C   0  0  0  0  0  2  0  0  0  0  0  0
  161.7580  210.8600  151.3790 C   0  0  0  0  0  2  0  0  0  0  0  0
  162.2100  210.6500  149.9330 C   0  0  2  0  0  3  0  0  0  0  0  0
  162.5350  209.9530  153.5090 N   0  0  0  0  0  2  0  0  0  0  0  0
  160.8310  206.2080  151.9660 C   0  0  1  0  0  3  0  0  0  0  0  0
  161.6340  207.6250  147.5180 C   0  0  0  0  0  2  0  0  0  0  0  0
  161.1990  210.4670  155.4020 C   0  0  1  0  0  3  0  0  0  0  0  0
  162.0170  211.0610  154.2580 C   0  0  0  0  0  2  0  0  0  0  0  0
  162.0360  213.3800  147.2880 C   0  0  0  0  0  0  0  0  0  0  0  0
  162.8310  213.9430  146.3450 F   0  0  0  0  0  0  0  0  0  0  0  0
  161.6920  211.7650  149.0680 C   0  0  0  0  0  0  0  0  0  0  0  0
  160.7270  213.8400  147.4510 C   0  0  0  0  0  3  0  0  0  0  0  0
  160.3780  212.2340  149.2250 C   0  0  0  0  0  3  0  0  0  0  0  0
  162.5210  212.3430  148.0940 C   0  0  0  0  0  0  0  0  0  0  0  0
  163.8260  211.8910  147.9220 O   0  0  0  0  0  1  0  0  0  0  0  0
  159.8900  213.2690  148.4220 C   0  0  0  0  0  0  0  0  0  0  0  0
  157.4530  213.0040  148.0970 C   0  0  0  0  0  1  0  0  0  0  0  0
  158.5770  213.7080  148.6090 O   0  0  0  0  0  0  0  0  0  0  0  0
  161.2060  205.3000  153.1300 C   0  0  0  0  0  2  0  0  0  0  0  0
  160.9800  203.9680  152.7870 O   0  0  0  0  0  1  0  0  0  0  0  0
  1  3  1  6  0  0  0
  1 15  1  0  0  0  0
  1  4  1  0  0  0  0
  2  7  1  0  0  0  0
  2  5  1  0  0  0  0
  4  2  1  0  0  0  0
  5 11  1  0  0  0  0
  7 16  1  0  0  0  0
  8 19  1  0  0  0  0
  9 11  1  0  0  0  0
  9  8  1  0  0  0  0
 10  4  1  0  0  0  0
 10 12  1  0  0  0  0
 12 17  1  0  0  0  0
 13 10  1  0  0  0  0
 14  7  1  0  0  0  0
 15 14  1  0  0  0  0
 16 20  1  0  0  0  0
 17  5  1  0  0  0  0
 17 31  1  0  0  0  0
 18  3  1  0  0  0  0
 18 13  1  0  0  0  0
 19  6  1  0  0  0  0
 20 19  1  0  0  0  0
 21 24  2  0  0  0  0
 21 26  1  0  0  0  0
 22 21  1  0  0  0  0
 23 25  1  0  0  0  0
 23 15  1  0  0  0  0
 24 28  1  0  0  0  0
 26 23  2  0  0  0  0
 27 26  1  0  0  0  0
 28 30  1  0  0  0  0
 28 25  2  0  0  0  0
 29 30  1  0  0  0  0
 32 31  1  0  0  0  0
M  END
>  <MODEL>
6

>  <REMARK>
 VINA RESULT:      -5.1      2.960      6.337
  Name = 
  3 active torsions:
  status: ('A' for Active; 'I' for Inactive)
    1  A    between atoms: C_13  and  C_29
    2  A    between atoms: O_15  and  C_26
    3  A    between atoms: C_16  and  C_27
                            x       y       z     vdW  Elec       q    Type
                         _______ _______ _______ _____ _____    ______ ____

>  <TORSDO>
F 3

$$$$
=
 OpenBabel11062408243D

 32 36  0  0  1  0  0  0  0  0999 V2000
  160.5970  210.8710  151.9940 C   0  0  1  0  0  3  0  0  0  0  0  0
  160.4620  210.9390  154.5910 C   0  0  2  0  0  3  0  0  0  0  0  0
  161.5680  210.3910  150.9050 C   0  0  0  0  0  2  0  0  0  0  0  0
  161.1400  210.3690  153.3330 C   0  0  1  0  0  3  0  0  0  0  0  0
  159.3250  210.0000  155.0440 C   0  0  2  0  0  3  0  0  0  0  0  0
  156.8740  214.4520  157.2610 N   0  0  0  0  0  1  0  0  0  0  0  0
  159.9900  212.3510  154.4390 C   0  0  1  0  0  3  0  0  0  0  0  0
  156.7920  212.1950  156.3380 C   0  0  0  0  0  2  0  0  0  0  0  0
  157.4300  211.0710  155.5060 C   0  0  0  0  0  2  0  0  0  0  0  0
  160.9870  208.8480  153.2930 C   0  0  2  0  0  3  0  0  0  0  0  0
  158.5650  210.5120  156.1170 O   0  0  0  0  0  0  0  0  0  0  0  0
  161.1040  208.3050  154.5850 O   0  0  0  0  0  0  0  0  0  0  0  0
  161.9920  208.2880  152.2970 C   0  0  0  0  0  2  0  0  0  0  0  0
  159.4400  212.7960  153.1120 C   0  0  0  0  0  2  0  0  0  0  0  0
  160.3990  212.3920  151.9920 C   0  0  2  0  0  3  0  0  0  0  0  0
  159.6880  212.9450  155.5370 N   0  0  0  0  0  2  0  0  0  0  0  0
  159.8890  208.5630  155.2840 C   0  0  1  0  0  3  0  0  0  0  0  0
  161.6680  208.8530  150.9030 C   0  0  0  0  0  2  0  0  0  0  0  0
  157.6970  213.3690  156.7580 C   0  0  1  0  0  3  0  0  0  0  0  0
  158.6240  213.8980  155.6650 C   0  0  0  0  0  2  0  0  0  0  0  0
  158.0230  213.5290  149.2460 C   0  0  0  0  0  0  0  0  0  0  0  0
  156.6920  213.6960  149.0480 F   0  0  0  0  0  0  0  0  0  0  0  0
  159.8820  212.8910  150.6720 C   0  0  0  0  0  0  0  0  0  0  0  0
  158.9160  213.8290  148.2130 C   0  0  0  0  0  3  0  0  0  0  0  0
  160.7720  213.1940  149.6280 C   0  0  0  0  0  3  0  0  0  0  0  0
  158.5020  213.0610  150.4750 C   0  0  0  0  0  0  0  0  0  0  0  0
  157.6050  212.7680  151.4970 O   0  0  0  0  0  1  0  0  0  0  0  0
  160.2970  213.6610  148.4000 C   0  0  0  0  0  0  0  0  0  0  0  0
  162.5250  213.4010  147.3580 C   0  0  0  0  0  1  0  0  0  0  0  0
  161.2150  213.9520  147.3870 O   0  0  0  0  0  0  0  0  0  0  0  0
  160.1110  208.2670  156.7620 C   0  0  0  0  0  2  0  0  0  0  0  0
  160.1430  206.8890  156.9720 O   0  0  0  0  0  1  0  0  0  0  0  0
  1  3  1  6  0  0  0
  1  4  1  0  0  0  0
  2  5  1  0  0  0  0
  4  2  1  0  0  0  0
  5 17  1  0  0  0  0
  5 11  1  0  0  0  0
  7  2  1  0  0  0  0
  7 16  1  0  0  0  0
  8 19  1  0  0  0  0
  9 11  1  0  0  0  0
  9  8  1  0  0  0  0
 10  4  1  0  0  0  0
 10 12  1  0  0  0  0
 12 17  1  0  0  0  0
 13 10  1  0  0  0  0
 14  7  1  0  0  0  0
 15  1  1  0  0  0  0
 15 14  1  0  0  0  0
 16 20  1  0  0  0  0
 17 31  1  0  0  0  0
 18  3  1  0  0  0  0
 18 13  1  0  0  0  0
 19  6  1  0  0  0  0
 20 19  1  0  0  0  0
 21 26  1  0  0  0  0
 22 21  1  0  0  0  0
 23 15  1  0  0  0  0
 24 28  1  0  0  0  0
 24 21  2  0  0  0  0
 25 23  1  0  0  0  0
 26 23  2  0  0  0  0
 26 27  1  0  0  0  0
 28 25  2  0  0  0  0
 29 30  1  0  0  0  0
 30 28  1  0  0  0  0
 31 32  1  0  0  0  0
M  END
>  <MODEL>
7

>  <REMARK>
 VINA RESULT:      -5.0      3.098      5.738
  Name = 
  3 active torsions:
  status: ('A' for Active; 'I' for Inactive)
    1  A    between atoms: C_13  and  C_29
    2  A    between atoms: O_15  and  C_26
    3  A    between atoms: C_16  and  C_27
                            x       y       z     vdW  Elec       q    Type
                         _______ _______ _______ _____ _____    ______ ____

>  <TORSDO>
F 3

$$$$
=
 OpenBabel11062408243D

 32 36  0  0  1  0  0  0  0  0999 V2000
  161.2040  206.1220  150.5620 C   0  0  1  0  0  3  0  0  0  0  0  0
  160.5760  204.4620  148.6600 C   0  0  2  0  0  3  0  0  0  0  0  0
  160.8900  206.3370  152.0500 C   0  0  0  0  0  2  0  0  0  0  0  0
  160.5980  204.7740  150.1660 C   0  0  1  0  0  3  0  0  0  0  0  0
  161.8390  203.6670  148.2710 C   0  0  2  0  0  3  0  0  0  0  0  0
  161.3330  205.8320  143.1920 N   0  0  0  0  0  1  0  0  0  0  0  0
  160.3900  205.6680  147.7930 C   0  0  1  0  0  3  0  0  0  0  0  0
  162.6630  204.8200  144.9690 C   0  0  0  0  0  2  0  0  0  0  0  0
  162.8500  204.4520  146.4500 C   0  0  0  0  0  2  0  0  0  0  0  0
  161.4180  203.7210  150.9130 C   0  0  2  0  0  3  0  0  0  0  0  0
  161.9650  203.4500  146.8830 O   0  0  0  0  0  0  0  0  0  0  0  0
  161.2060  202.4450  150.3580 O   0  0  0  0  0  0  0  0  0  0  0  0
  161.0850  203.8100  152.3940 C   0  0  0  0  0  2  0  0  0  0  0  0
  161.0240  206.9670  148.2070 C   0  0  0  0  0  2  0  0  0  0  0  0
  160.6940  207.2610  149.6710 C   0  0  2  0  0  3  0  0  0  0  0  0
  160.0810  205.4180  146.5720 N   0  0  0  0  0  2  0  0  0  0  0  0
  161.9350  202.3680  149.1350 C   0  0  1  0  0  3  0  0  0  0  0  0
  161.4910  205.2040  152.9040 C   0  0  0  0  0  2  0  0  0  0  0  0
  161.2530  205.2440  144.5150 C   0  0  1  0  0  3  0  0  0  0  0  0
  160.5270  206.2020  145.4570 C   0  0  0  0  0  2  0  0  0  0  0  0
  161.6780  210.2880  151.7570 C   0  0  0  0  0  0  0  0  0  0  0  0
  161.5500  210.7390  153.0290 F   0  0  0  0  0  0  0  0  0  0  0  0
  161.2730  208.5900  150.0690 C   0  0  0  0  0  0  0  0  0  0  0  0
  162.3570  211.0640  150.8150 C   0  0  0  0  0  3  0  0  0  0  0  0
  161.9570  209.3770  149.1290 C   0  0  0  0  0  3  0  0  0  0  0  0
  161.1360  209.0510  151.3880 C   0  0  0  0  0  0  0  0  0  0  0  0
  160.4630  208.2850  152.3340 O   0  0  0  0  0  1  0  0  0  0  0  0
  162.4990  210.6130  149.4940 C   0  0  0  0  0  0  0  0  0  0  0  0
  162.5730  212.4690  147.8610 C   0  0  0  0  0  1  0  0  0  0  0  0
  163.1720  211.3670  148.5290 O   0  0  0  0  0  0  0  0  0  0  0  0
  161.4730  201.1320  148.3760 C   0  0  0  0  0  2  0  0  0  0  0  0
  160.0960  200.9680  148.5260 O   0  0  0  0  0  1  0  0  0  0  0  0
  1  3  1  1  0  0  0
  2  4  1  0  0  0  0
  3 18  1  0  0  0  0
  4  1  1  0  0  0  0
  4 10  1  0  0  0  0
  5  2  1  0  0  0  0
  5 17  1  0  0  0  0
  6 19  1  0  0  0  0
  7 14  1  0  0  0  0
  7  2  1  0  0  0  0
  8  9  1  0  0  0  0
  9 11  1  0  0  0  0
 10 13  1  0  0  0  0
 11  5  1  0  0  0  0
 12 10  1  0  0  0  0
 13 18  1  0  0  0  0
 14 15  1  0  0  0  0
 15 23  1  0  0  0  0
 15  1  1  0  0  0  0
 16  7  1  0  0  0  0
 17 12  1  0  0  0  0
 19  8  1  0  0  0  0
 19 20  1  0  0  0  0
 20 16  1  0  0  0  0
 21 22  1  0  0  0  0
 23 26  2  0  0  0  0
 24 21  2  0  0  0  0
 25 28  2  0  0  0  0
 25 23  1  0  0  0  0
 26 21  1  0  0  0  0
 26 27  1  0  0  0  0
 28 24  1  0  0  0  0
 29 30  1  0  0  0  0
 30 28  1  0  0  0  0
 31 32  1  0  0  0  0
 31 17  1  0  0  0  0
M  END
>  <MODEL>
8

>  <REMARK>
 VINA RESULT:      -4.7      4.038      8.157
  Name = 
  3 active torsions:
  status: ('A' for Active; 'I' for Inactive)
    1  A    between atoms: C_13  and  C_29
    2  A    between atoms: O_15  and  C_26
    3  A    between atoms: C_16  and  C_27
                            x       y       z     vdW  Elec       q    Type
                         _______ _______ _______ _____ _____    ______ ____

>  <TORSDO>
F 3

$$$$
=
 OpenBabel11062408243D

 32 36  0  0  1  0  0  0  0  0999 V2000
  160.9050  210.2200  151.6880 C   0  0  1  0  0  3  0  0  0  0  0  0
  160.8950  210.1930  154.2890 C   0  0  2  0  0  3  0  0  0  0  0  0
  161.7510  209.6580  150.5360 C   0  0  0  0  0  2  0  0  0  0  0  0
  161.4310  209.5910  152.9790 C   0  0  1  0  0  3  0  0  0  0  0  0
  159.6600  209.4000  154.7630 C   0  0  2  0  0  3  0  0  0  0  0  0
  157.9470  214.0450  157.2590 N   0  0  0  0  0  1  0  0  0  0  0  0
  160.6160  211.6620  154.2120 C   0  0  1  0  0  3  0  0  0  0  0  0
  157.5130  211.8620  156.2600 C   0  0  0  0  0  2  0  0  0  0  0  0
  157.9520  210.6980  155.3560 C   0  0  0  0  0  2  0  0  0  0  0  0
  161.0680  208.1080  152.8910 C   0  0  2  0  0  3  0  0  0  0  0  0
  159.0250  209.9630  155.8900 O   0  0  0  0  0  0  0  0  0  0  0  0
  161.1660  207.4980  154.1550 O   0  0  0  0  0  0  0  0  0  0  0  0
  161.9420  207.4600  151.8270 C   0  0  0  0  0  2  0  0  0  0  0  0
  160.0750  212.2340  152.9310 C   0  0  0  0  0  2  0  0  0  0  0  0
  160.9190  211.7510  151.7510 C   0  0  2  0  0  3  0  0  0  0  0  0
  160.4470  212.2430  155.3450 N   0  0  0  0  0  2  0  0  0  0  0  0
  160.0290  207.8900  154.9220 C   0  0  1  0  0  3  0  0  0  0  0  0
  161.6380  208.1230  150.4730 C   0  0  0  0  0  2  0  0  0  0  0  0
  158.5900  212.8820  156.6770 C   0  0  1  0  0  3  0  0  0  0  0  0
  159.5320  213.3260  155.5600 C   0  0  0  0  0  2  0  0  0  0  0  0
  160.7310  212.8910  148.1260 C   0  0  0  0  0  0  0  0  0  0  0  0
  161.4790  212.8370  146.9960 F   0  0  0  0  0  0  0  0  0  0  0  0
  160.4190  212.3730  150.4770 C   0  0  0  0  0  0  0  0  0  0  0  0
  159.4870  213.5260  148.0990 C   0  0  0  0  0  3  0  0  0  0  0  0
  159.1700  213.0140  150.4410 C   0  0  0  0  0  3  0  0  0  0  0  0
  161.2000  212.3130  149.3120 C   0  0  0  0  0  0  0  0  0  0  0  0
  162.4390  211.6820  149.3270 O   0  0  0  0  0  1  0  0  0  0  0  0
  158.6990  213.5920  149.2590 C   0  0  0  0  0  0  0  0  0  0  0  0
  156.3150  213.6630  149.9100 C   0  0  0  0  0  1  0  0  0  0  0  0
  157.4510  214.2200  149.2640 O   0  0  0  0  0  0  0  0  0  0  0  0
  160.2730  207.5030  156.3750 C   0  0  0  0  0  2  0  0  0  0  0  0
  161.5500  207.9030  156.7660 O   0  0  0  0  0  1  0  0  0  0  0  0
  1  3  1  6  0  0  0
  1 15  1  0  0  0  0
  1  4  1  0  0  0  0
  2  5  1  0  0  0  0
  4  2  1  0  0  0  0
  5 17  1  0  0  0  0
  5 11  1  0  0  0  0
  7  2  1  0  0  0  0
  7 16  1  0  0  0  0
  8 19  1  0  0  0  0
  9 11  1  0  0  0  0
  9  8  1  0  0  0  0
 10  4  1  0  0  0  0
 10 12  1  0  0  0  0
 12 17  1  0  0  0  0
 13 10  1  0  0  0  0
 14  7  1  0  0  0  0
 15 14  1  0  0  0  0
 16 20  1  0  0  0  0
 17 31  1  0  0  0  0
 18  3  1  0  0  0  0
 18 13  1  0  0  0  0
 19  6  1  0  0  0  0
 20 19  1  0  0  0  0
 21 26  1  0  0  0  0
 22 21  1  0  0  0  0
 23 15  1  0  0  0  0
 24 21  2  0  0  0  0
 24 28  1  0  0  0  0
 25 23  1  0  0  0  0
 26 27  1  0  0  0  0
 26 23  2  0  0  0  0
 28 30  1  0  0  0  0
 28 25  2  0  0  0  0
 30 29  1  0  0  0  0
 31 32  1  0  0  0  0
M  END
>  <MODEL>
9

>  <REMARK>
 VINA RESULT:      -4.6      2.524      5.390
  Name = 
  3 active torsions:
  status: ('A' for Active; 'I' for Inactive)
    1  A    between atoms: C_13  and  C_29
    2  A    between atoms: O_15  and  C_26
    3  A    between atoms: C_16  and  C_27
                            x       y       z     vdW  Elec       q    Type
                         _______ _______ _______ _____ _____    ______ ____

>  <TORSDO>
F 3

$$$$
