=
 OpenBabel11052423073D

 27 31  0  0  1  0  0  0  0  0999 V2000
  160.3330  209.6830  152.0420 C   0  0  2  0  0  3  0  0  0  0  0  0
  162.1610  209.0710  150.6100 C   0  0  2  0  0  3  0  0  0  0  0  0
  160.9370  208.4050  152.6570 C   0  0  1  0  0  3  0  0  0  0  0  0
  161.4140  205.0910  149.0450 C   0  0  0  0  0  3  0  0  0  0  0  0
  160.4820  202.9110  149.2820 F   0  0  0  0  0  0  0  0  0  0  0  0
  161.8840  208.7300  149.1370 C   0  0  0  0  0  2  0  0  0  0  0  0
  160.8810  205.5850  151.7440 C   0  0  0  0  0  3  0  0  0  0  0  0
  161.8990  208.5520  156.4210 C   0  0  0  0  0  1  0  0  0  0  0  0
  160.5430  204.3530  151.1790 C   0  0  0  0  0  3  0  0  0  0  0  0
  159.9500  209.5040  155.3000 O   0  0  0  0  0  0  0  0  0  0  0  0
  161.9020  207.8970  151.5880 C   0  0  1  0  0  3  0  0  0  0  0  0
  161.2790  210.1480  151.0370 N   0  0  0  0  0  0  0  0  0  0  0  0
  160.8050  204.1080  149.8290 C   0  0  0  0  0  0  0  0  0  0  0  0
  161.7440  206.3290  149.6050 C   0  0  0  0  0  0  0  0  0  0  0  0
  159.8050  210.7760  152.9880 C   0  0  0  0  0  2  0  0  0  0  0  0
  161.4650  206.5910  150.9590 C   0  0  0  0  0  0  0  0  0  0  0  0
  160.9900  208.5500  155.2010 C   0  0  1  0  0  3  0  0  0  0  0  0
  162.4270  207.3580  148.7710 C   0  0  0  0  0  2  0  0  0  0  0  0
  160.4790  210.8170  155.2720 C   0  0  0  0  0  2  0  0  0  0  0  0
  160.8320  211.2380  153.9120 N   0  0  0  0  0  2  0  0  0  0  0  0
  161.7950  208.6400  153.9030 C   0  0  0  0  0  2  0  0  0  0  0  0
  161.1110  213.8900  149.0240 C   0  0  0  0  0  3  0  0  0  0  0  0
  161.2240  211.4240  150.3650 C   0  0  0  0  0  0  0  0  0  0  0  0
  162.0410  211.6670  149.2500 C   0  0  0  0  0  3  0  0  0  0  0  0
  161.9870  212.8940  148.5840 C   0  0  0  0  0  3  0  0  0  0  0  0
  160.2900  213.6580  150.1300 C   0  0  0  0  0  3  0  0  0  0  0  0
  160.3450  212.4290  150.7960 C   0  0  0  0  0  3  0  0  0  0  0  0
  1  3  1  0  0  0  0
  1 15  1  1  0  0  0
  2  6  1  6  0  0  0
  2 12  1  0  0  0  0
  2 11  1  0  0  0  0
  3 21  1  1  0  0  0
  4 14  2  0  0  0  0
  4 13  1  0  0  0  0
  5 13  1  0  0  0  0
  9  7  1  0  0  0  0
 11 16  1  6  0  0  0
 11  3  1  0  0  0  0
 12  1  1  0  0  0  0
 13  9  2  0  0  0  0
 14 16  1  0  0  0  0
 15 20  1  0  0  0  0
 16  7  2  0  0  0  0
 17 10  1  0  0  0  0
 17  8  1  1  0  0  0
 18  6  1  0  0  0  0
 18 14  1  0  0  0  0
 19 10  1  0  0  0  0
 20 19  1  0  0  0  0
 21 17  1  0  0  0  0
 22 26  1  0  0  0  0
 23 27  1  0  0  0  0
 23 12  1  0  0  0  0
 24 23  2  0  0  0  0
 25 22  2  0  0  0  0
 25 24  1  0  0  0  0
 26 27  2  0  0  0  0
M  END
>  <MODEL>
1

>  <REMARK>
 VINA RESULT:      -7.8      0.000      0.000
  Name = 
  1 active torsions:
  status: ('A' for Active; 'I' for Inactive)
    1  A    between atoms: C_9  and  N_15
                            x       y       z     vdW  Elec       q    Type
                         _______ _______ _______ _____ _____    ______ ____

>  <TORSDO>
F 1

$$$$
=
 OpenBabel11052423073D

 27 31  0  0  1  0  0  0  0  0999 V2000
  160.5980  206.4640  150.1840 C   0  0  2  0  0  3  0  0  0  0  0  0
  161.8620  205.9710  152.1670 C   0  0  2  0  0  3  0  0  0  0  0  0
  161.1790  207.8110  150.6570 C   0  0  1  0  0  3  0  0  0  0  0  0
  160.2010  208.2550  155.4630 C   0  0  0  0  0  3  0  0  0  0  0  0
  159.0980  210.1980  156.2920 F   0  0  0  0  0  0  0  0  0  0  0  0
  161.1440  205.3770  153.3900 C   0  0  0  0  0  2  0  0  0  0  0  0
  160.5080  209.5160  152.9870 C   0  0  0  0  0  3  0  0  0  0  0  0
  163.1610  209.8880  148.0330 C   0  0  0  0  0  1  0  0  0  0  0  0
  159.8710  210.1820  154.0370 C   0  0  0  0  0  3  0  0  0  0  0  0
  161.1170  208.5870  147.7310 O   0  0  0  0  0  0  0  0  0  0  0  0
  161.7360  207.5100  152.0470 C   0  0  1  0  0  3  0  0  0  0  0  0
  161.2790  205.4270  150.9470 N   0  0  0  0  0  0  0  0  0  0  0  0
  159.7130  209.5500  155.2720 C   0  0  0  0  0  0  0  0  0  0  0  0
  160.8310  207.5820  154.4120 C   0  0  0  0  0  0  0  0  0  0  0  0
  160.5000  206.1960  148.6720 C   0  0  0  0  0  2  0  0  0  0  0  0
  160.9760  208.2040  153.1580 C   0  0  0  0  0  0  0  0  0  0  0  0
  161.9560  209.2180  148.6780 C   0  0  1  0  0  3  0  0  0  0  0  0
  161.3820  206.2150  154.6350 C   0  0  0  0  0  2  0  0  0  0  0  0
  161.7820  207.4880  147.1360 C   0  0  0  0  0  2  0  0  0  0  0  0
  161.7940  206.3130  148.0130 N   0  0  0  0  0  2  0  0  0  0  0  0
  162.3730  208.3140  149.8410 C   0  0  0  0  0  2  0  0  0  0  0  0
  161.0820  201.2580  150.1360 C   0  0  0  0  0  3  0  0  0  0  0  0
  161.2050  204.0100  150.6820 C   0  0  0  0  0  0  0  0  0  0  0  0
  160.7740  203.5510  149.4280 C   0  0  0  0  0  3  0  0  0  0  0  0
  160.7110  202.1820  149.1560 C   0  0  0  0  0  3  0  0  0  0  0  0
  161.5180  201.7030  151.3860 C   0  0  0  0  0  3  0  0  0  0  0  0
  161.5810  203.0730  151.6570 C   0  0  0  0  0  3  0  0  0  0  0  0
  1 15  1  6  0  0  0
  1  3  1  0  0  0  0
  1 12  1  0  0  0  0
  2  6  1  1  0  0  0
  3 21  1  6  0  0  0
  3 11  1  0  0  0  0
  6 18  1  0  0  0  0
  7 16  2  0  0  0  0
  7  9  1  0  0  0  0
  9 13  2  0  0  0  0
 10 17  1  0  0  0  0
 11  2  1  0  0  0  0
 11 16  1  1  0  0  0
 12  2  1  0  0  0  0
 13  4  1  0  0  0  0
 13  5  1  0  0  0  0
 14 18  1  0  0  0  0
 14  4  2  0  0  0  0
 16 14  1  0  0  0  0
 17  8  1  6  0  0  0
 17 21  1  0  0  0  0
 19 10  1  0  0  0  0
 19 20  1  0  0  0  0
 20 15  1  0  0  0  0
 22 26  1  0  0  0  0
 23 12  1  0  0  0  0
 23 27  1  0  0  0  0
 24 23  2  0  0  0  0
 25 24  1  0  0  0  0
 25 22  2  0  0  0  0
 26 27  2  0  0  0  0
M  END
>  <MODEL>
2

>  <REMARK>
 VINA RESULT:      -7.0      3.525      7.300
  Name = 
  1 active torsions:
  status: ('A' for Active; 'I' for Inactive)
    1  A    between atoms: C_9  and  N_15
                            x       y       z     vdW  Elec       q    Type
                         _______ _______ _______ _____ _____    ______ ____

>  <TORSDO>
F 1

$$$$
=
 OpenBabel11052423073D

 27 31  0  0  1  0  0  0  0  0999 V2000
  159.9060  210.5180  152.8160 C   0  0  2  0  0  3  0  0  0  0  0  0
  161.8050  209.9980  151.4400 C   0  0  2  0  0  3  0  0  0  0  0  0
  160.7360  209.4960  153.6170 C   0  0  1  0  0  3  0  0  0  0  0  0
  161.7780  205.7370  150.6100 C   0  0  0  0  0  3  0  0  0  0  0  0
  161.2570  203.5030  151.2530 F   0  0  0  0  0  0  0  0  0  0  0  0
  161.5830  209.3610  150.0590 C   0  0  0  0  0  2  0  0  0  0  0  0
  161.1840  206.5950  153.2040 C   0  0  0  0  0  3  0  0  0  0  0  0
  161.6830  210.4680  157.2610 C   0  0  0  0  0  1  0  0  0  0  0  0
  161.0710  205.2430  152.8710 C   0  0  0  0  0  3  0  0  0  0  0  0
  159.5870  210.8490  156.0700 O   0  0  0  0  0  0  0  0  0  0  0  0
  161.7700  208.9870  152.6140 C   0  0  1  0  0  3  0  0  0  0  0  0
  160.7450  210.9600  151.7100 N   0  0  0  0  0  0  0  0  0  0  0  0
  161.3630  204.8150  151.5740 C   0  0  0  0  0  0  0  0  0  0  0  0
  161.8830  207.0930  150.9370 C   0  0  0  0  0  0  0  0  0  0  0  0
  159.1970  211.6500  153.5820 C   0  0  0  0  0  2  0  0  0  0  0  0
  161.5710  207.5350  152.2360 C   0  0  0  0  0  0  0  0  0  0  0  0
  160.7810  210.0920  156.0950 C   0  0  1  0  0  3  0  0  0  0  0  0
  162.3630  208.0640  149.9130 C   0  0  0  0  0  2  0  0  0  0  0  0
  159.8690  212.2090  155.7970 C   0  0  0  0  0  2  0  0  0  0  0  0
  160.1290  212.4410  154.3720 N   0  0  0  0  0  2  0  0  0  0  0  0
  161.5470  210.0930  154.7700 C   0  0  0  0  0  2  0  0  0  0  0  0
  159.8940  214.2030  149.0950 C   0  0  0  0  0  3  0  0  0  0  0  0
  160.4550  212.0690  150.8330 C   0  0  0  0  0  0  0  0  0  0  0  0
  161.3000  212.3440  149.7460 C   0  0  0  0  0  3  0  0  0  0  0  0
  161.0220  213.4060  148.8820 C   0  0  0  0  0  3  0  0  0  0  0  0
  159.0440  213.9350  150.1710 C   0  0  0  0  0  3  0  0  0  0  0  0
  159.3220  212.8710  151.0340 C   0  0  0  0  0  3  0  0  0  0  0  0
  1 15  1  1  0  0  0
  1  3  1  0  0  0  0
  2  6  1  6  0  0  0
  2 12  1  0  0  0  0
  2 11  1  0  0  0  0
  3 21  1  1  0  0  0
  4 14  2  0  0  0  0
  4 13  1  0  0  0  0
  5 13  1  0  0  0  0
  9  7  1  0  0  0  0
 10 17  1  0  0  0  0
 11 16  1  6  0  0  0
 11  3  1  0  0  0  0
 12  1  1  0  0  0  0
 13  9  2  0  0  0  0
 14 16  1  0  0  0  0
 15 20  1  0  0  0  0
 16  7  2  0  0  0  0
 17  8  1  1  0  0  0
 18  6  1  0  0  0  0
 18 14  1  0  0  0  0
 19 10  1  0  0  0  0
 20 19  1  0  0  0  0
 21 17  1  0  0  0  0
 22 26  1  0  0  0  0
 23 27  1  0  0  0  0
 23 12  1  0  0  0  0
 24 23  2  0  0  0  0
 25 22  2  0  0  0  0
 25 24  1  0  0  0  0
 26 27  2  0  0  0  0
M  END
>  <MODEL>
3

>  <REMARK>
 VINA RESULT:      -6.9      1.275      1.533
  Name = 
  1 active torsions:
  status: ('A' for Active; 'I' for Inactive)
    1  A    between atoms: C_9  and  N_15
                            x       y       z     vdW  Elec       q    Type
                         _______ _______ _______ _____ _____    ______ ____

>  <TORSDO>
F 1

$$$$
=
 OpenBabel11052423073D

 27 31  0  0  1  0  0  0  0  0999 V2000
  162.2680  208.4600  150.4470 C   0  0  2  0  0  3  0  0  0  0  0  0
  160.5260  206.8200  150.2280 C   0  0  2  0  0  3  0  0  0  0  0  0
  161.8540  208.4840  148.9620 C   0  0  1  0  0  3  0  0  0  0  0  0
  161.8010  203.8310  147.3510 C   0  0  0  0  0  3  0  0  0  0  0  0
  163.0300  203.2180  145.4030 F   0  0  0  0  0  0  0  0  0  0  0  0
  160.8320  205.3480  150.5490 C   0  0  0  0  0  2  0  0  0  0  0  0
  162.2900  206.5240  146.7820 C   0  0  0  0  0  3  0  0  0  0  0  0
  160.9220  211.9450  147.4540 C   0  0  0  0  0  1  0  0  0  0  0  0
  162.7900  205.5290  145.9380 C   0  0  0  0  0  3  0  0  0  0  0  0
  162.7070  211.3890  149.0230 O   0  0  0  0  0  0  0  0  0  0  0  0
  160.9560  207.2580  148.8050 C   0  0  1  0  0  3  0  0  0  0  0  0
  161.2550  207.6830  151.1490 N   0  0  0  0  0  0  0  0  0  0  0  0
  162.5500  204.1830  146.2250 C   0  0  0  0  0  0  0  0  0  0  0  0
  161.3090  204.8230  148.2040 C   0  0  0  0  0  0  0  0  0  0  0  0
  162.6490  209.7880  151.1260 C   0  0  0  0  0  2  0  0  0  0  0  0
  161.5640  206.1810  147.9330 C   0  0  0  0  0  0  0  0  0  0  0  0
  161.8090  210.8690  148.0630 C   0  0  1  0  0  3  0  0  0  0  0  0
  160.4800  204.4400  149.3820 C   0  0  0  0  0  2  0  0  0  0  0  0
  162.0010  211.8640  150.1550 C   0  0  0  0  0  2  0  0  0  0  0  0
  161.5790  210.7720  151.0370 N   0  0  0  0  0  2  0  0  0  0  0  0
  160.9850  209.6790  148.5610 C   0  0  0  0  0  2  0  0  0  0  0  0
  160.8350  207.3920  155.3700 C   0  0  0  0  0  3  0  0  0  0  0  0
  161.1250  207.5810  152.5820 C   0  0  0  0  0  0  0  0  0  0  0  0
  160.5780  208.6450  153.3160 C   0  0  0  0  0  3  0  0  0  0  0  0
  160.4350  208.5520  154.7020 C   0  0  0  0  0  3  0  0  0  0  0  0
  161.3760  206.3240  154.6490 C   0  0  0  0  0  3  0  0  0  0  0  0
  161.5180  206.4170  153.2610 C   0  0  0  0  0  3  0  0  0  0  0  0
  1 15  1  1  0  0  0
  1 12  1  0  0  0  0
  2  6  1  1  0  0  0
  2 12  1  0  0  0  0
  3 21  1  1  0  0  0
  3  1  1  0  0  0  0
  4 14  1  0  0  0  0
  5 13  1  0  0  0  0
  7 16  1  0  0  0  0
  9 13  1  0  0  0  0
  9  7  2  0  0  0  0
 10 19  1  0  0  0  0
 11 16  1  1  0  0  0
 11  3  1  0  0  0  0
 11  2  1  0  0  0  0
 12 23  1  0  0  0  0
 13  4  2  0  0  0  0
 14 18  1  0  0  0  0
 16 14  2  0  0  0  0
 17  8  1  1  0  0  0
 17 21  1  0  0  0  0
 17 10  1  0  0  0  0
 18  6  1  0  0  0  0
 19 20  1  0  0  0  0
 20 15  1  0  0  0  0
 23 27  2  0  0  0  0
 23 24  1  0  0  0  0
 24 25  2  0  0  0  0
 25 22  1  0  0  0  0
 26 22  2  0  0  0  0
 27 26  1  0  0  0  0
M  END
>  <MODEL>
4

>  <REMARK>
 VINA RESULT:      -6.2      2.279      5.373
  Name = 
  1 active torsions:
  status: ('A' for Active; 'I' for Inactive)
    1  A    between atoms: C_9  and  N_15
                            x       y       z     vdW  Elec       q    Type
                         _______ _______ _______ _____ _____    ______ ____

>  <TORSDO>
F 1

$$$$
=
 OpenBabel11052423073D

 27 31  0  0  1  0  0  0  0  0999 V2000
  160.6690  207.2220  149.5100 C   0  0  2  0  0  3  0  0  0  0  0  0
  162.2740  208.7450  150.4450 C   0  0  2  0  0  3  0  0  0  0  0  0
  161.3730  207.8780  148.3070 C   0  0  1  0  0  3  0  0  0  0  0  0
  161.3550  212.7480  149.0400 C   0  0  0  0  0  3  0  0  0  0  0  0
  160.4960  214.2130  147.3690 F   0  0  0  0  0  0  0  0  0  0  0  0
  161.7870  209.9080  151.3240 C   0  0  0  0  0  2  0  0  0  0  0  0
  161.2200  210.6310  147.2190 C   0  0  0  0  0  3  0  0  0  0  0  0
  162.8790  205.4880  145.6350 C   0  0  0  0  0  1  0  0  0  0  0  0
  160.8190  211.9120  146.8340 C   0  0  0  0  0  3  0  0  0  0  0  0
  160.7740  205.2890  146.8550 O   0  0  0  0  0  0  0  0  0  0  0  0
  162.1770  209.0210  148.9240 C   0  0  1  0  0  3  0  0  0  0  0  0
  161.4500  207.5680  150.6900 N   0  0  0  0  0  0  0  0  0  0  0  0
  160.8810  212.9690  147.7450 C   0  0  0  0  0  0  0  0  0  0  0  0
  161.7480  211.4650  149.4330 C   0  0  0  0  0  0  0  0  0  0  0  0
  160.2720  205.7370  149.4110 C   0  0  0  0  0  2  0  0  0  0  0  0
  161.6690  210.3910  148.5270 C   0  0  0  0  0  0  0  0  0  0  0  0
  161.8000  206.1780  146.4570 C   0  0  1  0  0  3  0  0  0  0  0  0
  162.2880  211.2460  150.8060 C   0  0  0  0  0  2  0  0  0  0  0  0
  161.2760  204.3330  147.7700 C   0  0  0  0  0  2  0  0  0  0  0  0
  161.4180  204.8860  149.1210 N   0  0  0  0  0  2  0  0  0  0  0  0
  162.4030  206.9880  147.6060 C   0  0  0  0  0  2  0  0  0  0  0  0
  160.9140  205.8920  154.5610 C   0  0  0  0  0  3  0  0  0  0  0  0
  161.2800  206.9940  152.0030 C   0  0  0  0  0  0  0  0  0  0  0  0
  160.8840  207.8050  153.0790 C   0  0  0  0  0  3  0  0  0  0  0  0
  160.7040  207.2580  154.3510 C   0  0  0  0  0  3  0  0  0  0  0  0
  161.3030  205.0750  153.4970 C   0  0  0  0  0  3  0  0  0  0  0  0
  161.4830  205.6230  152.2230 C   0  0  0  0  0  3  0  0  0  0  0  0
  1 15  1  6  0  0  0
  1 12  1  0  0  0  0
  2 12  1  0  0  0  0
  2  6  1  1  0  0  0
  3 21  1  1  0  0  0
  3 11  1  0  0  0  0
  3  1  1  0  0  0  0
  4 14  1  0  0  0  0
  5 13  1  0  0  0  0
  7 16  1  0  0  0  0
  9  7  2  0  0  0  0
  9 13  1  0  0  0  0
 10 19  1  0  0  0  0
 11 16  1  1  0  0  0
 11  2  1  0  0  0  0
 12 23  1  0  0  0  0
 13  4  2  0  0  0  0
 14 18  1  0  0  0  0
 16 14  2  0  0  0  0
 17  8  1  1  0  0  0
 17 10  1  0  0  0  0
 17 21  1  0  0  0  0
 18  6  1  0  0  0  0
 19 20  1  0  0  0  0
 20 15  1  0  0  0  0
 23 27  2  0  0  0  0
 23 24  1  0  0  0  0
 24 25  2  0  0  0  0
 25 22  1  0  0  0  0
 26 22  2  0  0  0  0
 27 26  1  0  0  0  0
M  END
>  <MODEL>
5

>  <REMARK>
 VINA RESULT:      -5.6      3.466      7.221
  Name = 
  1 active torsions:
  status: ('A' for Active; 'I' for Inactive)
    1  A    between atoms: C_9  and  N_15
                            x       y       z     vdW  Elec       q    Type
                         _______ _______ _______ _____ _____    ______ ____

>  <TORSDO>
F 1

$$$$
=
 OpenBabel11052423073D

 27 31  0  0  1  0  0  0  0  0999 V2000
  160.1470  210.6360  153.7580 C   0  0  2  0  0  3  0  0  0  0  0  0
  161.4680  210.4590  151.7600 C   0  0  2  0  0  3  0  0  0  0  0  0
  161.3550  209.7560  154.1320 C   0  0  1  0  0  3  0  0  0  0  0  0
  161.7830  206.2660  150.6830 C   0  0  0  0  0  3  0  0  0  0  0  0
  161.8760  203.9670  151.3040 F   0  0  0  0  0  0  0  0  0  0  0  0
  160.8560  209.8130  150.5060 C   0  0  0  0  0  2  0  0  0  0  0  0
  162.0540  206.9770  153.3730 C   0  0  0  0  0  3  0  0  0  0  0  0
  163.4080  210.8240  157.2570 C   0  0  0  0  0  1  0  0  0  0  0  0
  162.0330  205.6300  153.0050 C   0  0  0  0  0  3  0  0  0  0  0  0
  160.9890  210.8650  156.9260 O   0  0  0  0  0  0  0  0  0  0  0  0
  162.0160  209.4410  152.7910 C   0  0  1  0  0  3  0  0  0  0  0  0
  160.4470  211.2270  152.4610 N   0  0  0  0  0  0  0  0  0  0  0  0
  161.8920  205.2740  151.6620 C   0  0  0  0  0  0  0  0  0  0  0  0
  161.7940  207.6150  151.0500 C   0  0  0  0  0  0  0  0  0  0  0  0
  159.6030  211.6230  154.8070 C   0  0  0  0  0  2  0  0  0  0  0  0
  161.9150  207.9820  152.4030 C   0  0  0  0  0  0  0  0  0  0  0  0
  162.2100  210.3180  156.4660 C   0  0  1  0  0  3  0  0  0  0  0  0
  161.7150  208.6670  149.9960 C   0  0  0  0  0  2  0  0  0  0  0  0
  160.9440  212.2570  156.6700 C   0  0  0  0  0  2  0  0  0  0  0  0
  160.6290  212.5480  155.2680 N   0  0  0  0  0  2  0  0  0  0  0  0
  162.4300  210.4650  154.9590 C   0  0  0  0  0  2  0  0  0  0  0  0
  158.2180  214.3530  150.6330 C   0  0  0  0  0  3  0  0  0  0  0  0
  159.6940  212.2830  151.8290 C   0  0  0  0  0  0  0  0  0  0  0  0
  158.3580  212.5100  152.1950 C   0  0  0  0  0  3  0  0  0  0  0  0
  157.6230  213.5380  151.5990 C   0  0  0  0  0  3  0  0  0  0  0  0
  159.5490  214.1400  150.2640 C   0  0  0  0  0  3  0  0  0  0  0  0
  160.2840  213.1110  150.8610 C   0  0  0  0  0  3  0  0  0  0  0  0
  1  3  1  0  0  0  0
  1 15  1  1  0  0  0
  2  6  1  6  0  0  0
  2 12  1  0  0  0  0
  2 11  1  0  0  0  0
  3 21  1  1  0  0  0
  4 14  2  0  0  0  0
  4 13  1  0  0  0  0
  5 13  1  0  0  0  0
  9  7  1  0  0  0  0
 11 16  1  6  0  0  0
 11  3  1  0  0  0  0
 12  1  1  0  0  0  0
 13  9  2  0  0  0  0
 14 16  1  0  0  0  0
 15 20  1  0  0  0  0
 16  7  2  0  0  0  0
 17 10  1  0  0  0  0
 17  8  1  1  0  0  0
 18  6  1  0  0  0  0
 18 14  1  0  0  0  0
 19 10  1  0  0  0  0
 20 19  1  0  0  0  0
 21 17  1  0  0  0  0
 22 25  1  0  0  0  0
 23 24  1  0  0  0  0
 23 12  1  0  0  0  0
 25 24  2  0  0  0  0
 26 22  2  0  0  0  0
 26 27  1  0  0  0  0
 27 23  2  0  0  0  0
M  END
>  <MODEL>
6

>  <REMARK>
 VINA RESULT:      -5.1      1.724      2.521
  Name = 
  1 active torsions:
  status: ('A' for Active; 'I' for Inactive)
    1  A    between atoms: C_9  and  N_15
                            x       y       z     vdW  Elec       q    Type
                         _______ _______ _______ _____ _____    ______ ____

>  <TORSDO>
F 1

$$$$
=
 OpenBabel11052423073D

 27 31  0  0  1  0  0  0  0  0999 V2000
  160.7430  207.9490  150.8350 C   0  0  2  0  0  3  0  0  0  0  0  0
  161.6820  207.6900  153.0310 C   0  0  2  0  0  3  0  0  0  0  0  0
  161.2160  209.3540  151.2570 C   0  0  1  0  0  3  0  0  0  0  0  0
  159.4730  210.2190  155.7820 C   0  0  0  0  0  3  0  0  0  0  0  0
  158.2150  212.1930  156.2290 F   0  0  0  0  0  0  0  0  0  0  0  0
  160.7900  207.1910  154.1780 C   0  0  0  0  0  2  0  0  0  0  0  0
  160.1490  211.2490  153.2720 C   0  0  0  0  0  3  0  0  0  0  0  0
  163.5520  211.2390  148.7850 C   0  0  0  0  0  1  0  0  0  0  0  0
  159.3390  211.9890  154.1370 C   0  0  0  0  0  3  0  0  0  0  0  0
  161.6080  209.8460  148.2950 O   0  0  0  0  0  0  0  0  0  0  0  0
  161.5480  209.2060  152.7400 C   0  0  1  0  0  3  0  0  0  0  0  0
  161.3130  207.0130  151.7950 N   0  0  0  0  0  0  0  0  0  0  0  0
  158.9970  211.4720  155.3880 C   0  0  0  0  0  0  0  0  0  0  0  0
  160.2760  209.4710  154.9150 C   0  0  0  0  0  0  0  0  0  0  0  0
  160.8940  207.5350  149.3600 C   0  0  0  0  0  2  0  0  0  0  0  0
  160.6080  209.9760  153.6430 C   0  0  0  0  0  0  0  0  0  0  0  0
  162.2730  210.5930  149.2960 C   0  0  1  0  0  3  0  0  0  0  0  0
  160.8100  208.1510  155.3570 C   0  0  0  0  0  2  0  0  0  0  0  0
  162.3810  208.7190  147.9250 C   0  0  0  0  0  2  0  0  0  0  0  0
  162.2740  207.6340  148.9050 N   0  0  0  0  0  2  0  0  0  0  0  0
  162.5150  209.8180  150.5930 C   0  0  0  0  0  2  0  0  0  0  0  0
  161.2700  202.7770  151.4310 C   0  0  0  0  0  3  0  0  0  0  0  0
  161.3090  205.5760  151.6630 C   0  0  0  0  0  0  0  0  0  0  0  0
  161.2930  204.7660  152.8100 C   0  0  0  0  0  3  0  0  0  0  0  0
  161.2760  203.3740  152.6940 C   0  0  0  0  0  3  0  0  0  0  0  0
  161.2810  203.5740  150.2830 C   0  0  0  0  0  3  0  0  0  0  0  0
  161.2980  204.9670  150.3990 C   0  0  0  0  0  3  0  0  0  0  0  0
  1 15  1  6  0  0  0
  1  3  1  0  0  0  0
  1 12  1  0  0  0  0
  2  6  1  1  0  0  0
  3 21  1  6  0  0  0
  3 11  1  0  0  0  0
  6 18  1  0  0  0  0
  7 16  2  0  0  0  0
  7  9  1  0  0  0  0
  9 13  2  0  0  0  0
 10 17  1  0  0  0  0
 11  2  1  0  0  0  0
 11 16  1  1  0  0  0
 12  2  1  0  0  0  0
 13  4  1  0  0  0  0
 13  5  1  0  0  0  0
 14 18  1  0  0  0  0
 14  4  2  0  0  0  0
 16 14  1  0  0  0  0
 17  8  1  6  0  0  0
 17 21  1  0  0  0  0
 19 10  1  0  0  0  0
 19 20  1  0  0  0  0
 20 15  1  0  0  0  0
 22 25  1  0  0  0  0
 23 12  1  0  0  0  0
 23 24  1  0  0  0  0
 25 24  2  0  0  0  0
 26 27  1  0  0  0  0
 26 22  2  0  0  0  0
 27 23  2  0  0  0  0
M  END
>  <MODEL>
7

>  <REMARK>
 VINA RESULT:      -5.1      3.287      7.112
  Name = 
  1 active torsions:
  status: ('A' for Active; 'I' for Inactive)
    1  A    between atoms: C_9  and  N_15
                            x       y       z     vdW  Elec       q    Type
                         _______ _______ _______ _____ _____    ______ ____

>  <TORSDO>
F 1

$$$$
