=
 OpenBabel11062408273D

 32 37  0  0  1  0  0  0  0  0999 V2000
  161.1030  210.0010  154.4000 C   0  0  1  0  0  3  0  0  0  0  0  0
  159.5620  211.5350  153.5510 C   0  0  0  0  0  0  0  0  0  0  0  0
  162.2700  210.2220  155.3110 C   0  0  0  0  0  3  0  0  0  0  0  0
  159.9340  210.8970  154.7280 C   0  0  0  0  0  0  0  0  0  0  0  0
  157.4300  212.8040  154.2790 C   0  0  0  0  0  0  0  0  0  0  0  0
  158.1110  213.6910  149.8590 C   0  0  0  0  0  3  0  0  0  0  0  0
  158.4740  212.3780  153.3440 C   0  0  0  0  0  0  0  0  0  0  0  0
  156.3440  214.4400  151.3710 C   0  0  0  0  0  3  0  0  0  0  0  0
  156.9630  213.7080  152.3830 C   0  0  0  0  0  0  0  0  0  0  0  0
  157.3070  212.4880  155.6230 C   0  0  0  0  0  0  0  0  0  0  0  0
  159.3310  210.9730  156.0140 C   0  0  0  0  0  0  0  0  0  0  0  0
  156.5380  213.6080  153.6540 N   0  0  0  0  0  0  0  0  0  0  0  0
  159.9330  210.3540  157.2600 C   0  0  0  0  0  2  0  0  0  0  0  0
  161.0080  209.2870  157.0920 C   0  0  0  0  0  2  0  0  0  0  0  0
  160.4420  211.2170  152.4850 N   0  0  0  0  0  2  0  0  0  0  0  0
  158.1810  211.6890  156.3470 C   0  0  0  0  0  3  0  0  0  0  0  0
  161.4830  210.3300  152.9620 C   0  0  2  0  0  3  0  0  0  0  0  0
  158.1130  212.9910  152.1560 C   0  0  0  0  0  0  0  0  0  0  0  0
  156.2290  213.0220  156.3200 O   0  0  0  0  0  1  0  0  0  0  0  0
  162.2060  209.8770  156.5470 N   0  0  0  0  0  0  0  0  0  0  0  0
  156.9320  214.4270  150.0950 C   0  0  0  0  0  3  0  0  0  0  0  0
  158.7150  212.9620  150.8950 C   0  0  0  0  0  3  0  0  0  0  0  0
  161.9150  207.9780  149.9980 C   0  0  0  0  0  0  0  0  0  0  0  0
  162.2200  208.0030  148.5400 C   0  0  0  0  0  1  0  0  0  0  0  0
  161.5520  209.0870  152.1230 C   0  0  0  0  0  0  0  0  0  0  0  0
  161.7130  206.7780  150.6050 N   0  0  0  0  0  0  0  0  0  0  0  0
  161.3540  207.8320  152.7130 C   0  0  0  0  0  3  0  0  0  0  0  0
  161.8400  209.1660  150.7480 C   0  0  0  0  0  0  0  0  0  0  0  0
  162.1070  210.7320  149.9770 Cl  0  0  0  0  0  0  0  0  0  0  0  0
  161.4290  206.6810  151.9290 C   0  0  0  0  0  0  0  0  0  0  0  0
  161.5950  204.3470  151.6450 O   0  0  0  0  0  1  0  0  0  0  0  0
  161.2430  205.3440  152.5540 C   0  0  0  0  0  2  0  0  0  0  0  0
  1  4  1  0  0  0  0
  1  3  1  1  0  0  0
  2  4  1  0  0  0  0
  3 20  2  0  0  0  0
  4 11  2  0  0  0  0
  5 10  1  0  0  0  0
  6 21  2  0  0  0  0
  6 22  1  0  0  0  0
  7  2  2  0  0  0  0
  7  5  1  0  0  0  0
  8  9  2  0  0  0  0
  9 12  1  0  0  0  0
 10 19  1  0  0  0  0
 10 16  2  0  0  0  0
 11 16  1  0  0  0  0
 11 13  1  0  0  0  0
 12  5  2  0  0  0  0
 14 13  1  0  0  0  0
 15 17  1  0  0  0  0
 15  2  1  0  0  0  0
 17 25  1  6  0  0  0
 17  1  1  0  0  0  0
 18  9  1  0  0  0  0
 18  7  1  0  0  0  0
 20 14  1  0  0  0  0
 21  8  1  0  0  0  0
 22 18  2  0  0  0  0
 23 26  2  0  0  0  0
 23 28  1  0  0  0  0
 24 23  1  0  0  0  0
 25 27  1  0  0  0  0
 26 30  1  0  0  0  0
 28 25  2  0  0  0  0
 29 28  1  0  0  0  0
 30 32  1  0  0  0  0
 30 27  2  0  0  0  0
 31 32  1  0  0  0  0
M  END
>  <MODEL>
1

>  <REMARK>
 VINA RESULT:      -7.8      0.000      0.000
  Name = 
  2 active torsions:
  status: ('A' for Active; 'I' for Inactive)
    1  A    between atoms: C_15  and  CA_26
    2  A    between atoms: C_16  and  C_27
                            x       y       z     vdW  Elec       q    Type
                         _______ _______ _______ _____ _____    ______ ____

>  <TORSDO>
F 2

$$$$
=
 OpenBabel11062408273D

 32 37  0  0  1  0  0  0  0  0999 V2000
  160.8520  208.9730  153.0870 C   0  0  1  0  0  3  0  0  0  0  0  0
  160.9600  210.7870  151.6210 C   0  0  0  0  0  0  0  0  0  0  0  0
  161.4680  208.7980  154.4400 C   0  0  0  0  0  3  0  0  0  0  0  0
  160.4050  210.3920  152.8330 C   0  0  0  0  0  0  0  0  0  0  0  0
  159.8820  213.1100  151.2710 C   0  0  0  0  0  0  0  0  0  0  0  0
  162.5850  212.2980  147.6890 C   0  0  0  0  0  3  0  0  0  0  0  0
  160.7460  211.9770  150.9320 C   0  0  0  0  0  0  0  0  0  0  0  0
  161.1670  214.2210  148.2000 C   0  0  0  0  0  3  0  0  0  0  0  0
  160.7990  213.5790  149.3810 C   0  0  0  0  0  0  0  0  0  0  0  0
  159.0940  213.2770  152.3980 C   0  0  0  0  0  0  0  0  0  0  0  0
  159.5200  211.1080  153.6860 C   0  0  0  0  0  0  0  0  0  0  0  0
  159.9470  214.0570  150.3030 N   0  0  0  0  0  0  0  0  0  0  0  0
  159.1160  210.6290  155.0660 C   0  0  0  0  0  2  0  0  0  0  0  0
  159.3350  209.1620  155.4170 C   0  0  0  0  0  2  0  0  0  0  0  0
  161.8180  209.7900  151.0900 N   0  0  0  0  0  2  0  0  0  0  0  0
  158.9810  212.3720  153.4430 C   0  0  0  0  0  3  0  0  0  0  0  0
  161.8690  208.6600  151.9950 C   0  0  2  0  0  3  0  0  0  0  0  0
  161.2980  212.3430  149.7160 C   0  0  0  0  0  0  0  0  0  0  0  0
  158.3600  214.4530  152.5110 O   0  0  0  0  0  1  0  0  0  0  0  0
  160.7470  208.8810  155.4990 N   0  0  0  0  0  0  0  0  0  0  0  0
  162.0730  213.5660  147.3480 C   0  0  0  0  0  3  0  0  0  0  0  0
  162.1980  211.6720  148.8850 C   0  0  0  0  0  3  0  0  0  0  0  0
  161.1710  204.9880  151.2710 C   0  0  0  0  0  0  0  0  0  0  0  0
  161.1490  203.6620  151.9510 C   0  0  0  0  0  1  0  0  0  0  0  0
  161.5210  207.3860  151.2820 C   0  0  0  0  0  0  0  0  0  0  0  0
  160.8400  205.0550  149.9540 N   0  0  0  0  0  0  0  0  0  0  0  0
  161.1710  207.4150  149.9260 C   0  0  0  0  0  3  0  0  0  0  0  0
  161.5200  206.1590  151.9690 C   0  0  0  0  0  0  0  0  0  0  0  0
  161.9440  206.0900  153.6820 Cl  0  0  0  0  0  0  0  0  0  0  0  0
  160.8410  206.2290  149.2720 C   0  0  0  0  0  0  0  0  0  0  0  0
  161.5370  206.6320  147.0570 O   0  0  0  0  0  1  0  0  0  0  0  0
  160.4450  206.2570  147.8390 C   0  0  0  0  0  2  0  0  0  0  0  0
  1  3  1  1  0  0  0
  2  4  1  0  0  0  0
  3 20  2  0  0  0  0
  4  1  1  0  0  0  0
  4 11  2  0  0  0  0
  5 10  1  0  0  0  0
  6 22  1  0  0  0  0
  7  5  1  0  0  0  0
  7  2  2  0  0  0  0
  8  9  2  0  0  0  0
  9 18  1  0  0  0  0
  9 12  1  0  0  0  0
 10 19  1  0  0  0  0
 10 16  2  0  0  0  0
 11 13  1  0  0  0  0
 12  5  2  0  0  0  0
 13 14  1  0  0  0  0
 14 20  1  0  0  0  0
 15  2  1  0  0  0  0
 15 17  1  0  0  0  0
 16 11  1  0  0  0  0
 17 25  1  6  0  0  0
 17  1  1  0  0  0  0
 18  7  1  0  0  0  0
 21  6  2  0  0  0  0
 21  8  1  0  0  0  0
 22 18  2  0  0  0  0
 23 24  1  0  0  0  0
 23 28  1  0  0  0  0
 25 28  2  0  0  0  0
 26 23  2  0  0  0  0
 27 25  1  0  0  0  0
 28 29  1  0  0  0  0
 30 27  2  0  0  0  0
 30 26  1  0  0  0  0
 31 32  1  0  0  0  0
 32 30  1  0  0  0  0
M  END
>  <MODEL>
2

>  <REMARK>
 VINA RESULT:      -7.7      2.663      3.776
  Name = 
  2 active torsions:
  status: ('A' for Active; 'I' for Inactive)
    1  A    between atoms: C_15  and  CA_26
    2  A    between atoms: C_16  and  C_27
                            x       y       z     vdW  Elec       q    Type
                         _______ _______ _______ _____ _____    ______ ____

>  <TORSDO>
F 2

$$$$
=
 OpenBabel11062408273D

 32 37  0  0  1  0  0  0  0  0999 V2000
  161.8580  209.0760  151.1980 C   0  0  1  0  0  3  0  0  0  0  0  0
  161.5950  206.8760  150.4620 C   0  0  0  0  0  0  0  0  0  0  0  0
  163.0350  209.9930  151.0720 C   0  0  0  0  0  3  0  0  0  0  0  0
  161.6880  208.1820  149.9950 C   0  0  0  0  0  0  0  0  0  0  0  0
  161.0690  205.5680  148.2960 C   0  0  0  0  0  0  0  0  0  0  0  0
  161.2020  202.5570  151.7180 C   0  0  0  0  0  3  0  0  0  0  0  0
  161.3330  205.7240  149.7280 C   0  0  0  0  0  0  0  0  0  0  0  0
  160.7590  202.2310  149.3370 C   0  0  0  0  0  3  0  0  0  0  0  0
  160.9310  203.6030  149.1640 C   0  0  0  0  0  0  0  0  0  0  0  0
  161.0570  206.5490  147.3170 C   0  0  0  0  0  0  0  0  0  0  0  0
  161.5810  208.6620  148.6600 C   0  0  0  0  0  0  0  0  0  0  0  0
  160.8310  204.2670  147.9990 N   0  0  0  0  0  0  0  0  0  0  0  0
  161.8660  210.0970  148.2610 C   0  0  0  0  0  2  0  0  0  0  0  0
  161.8900  211.1620  149.3500 C   0  0  0  0  0  2  0  0  0  0  0  0
  161.7850  206.8100  151.8660 N   0  0  0  0  0  2  0  0  0  0  0  0
  161.3050  207.8980  147.5260 C   0  0  0  0  0  3  0  0  0  0  0  0
  162.0420  208.1380  152.3850 C   0  0  2  0  0  3  0  0  0  0  0  0
  161.2290  204.4330  150.2180 C   0  0  0  0  0  0  0  0  0  0  0  0
  160.7900  206.1610  146.0090 O   0  0  0  0  0  1  0  0  0  0  0  0
  163.0230  210.9530  150.2180 N   0  0  0  0  0  0  0  0  0  0  0  0
  160.8980  201.7090  150.6340 C   0  0  0  0  0  3  0  0  0  0  0  0
  161.3710  203.9370  151.5170 C   0  0  0  0  0  3  0  0  0  0  0  0
  159.9280  207.9000  155.5430 C   0  0  0  0  0  0  0  0  0  0  0  0
  159.6080  206.9530  156.6490 C   0  0  0  0  0  1  0  0  0  0  0  0
  161.0860  208.4740  153.4930 C   0  0  0  0  0  0  0  0  0  0  0  0
  159.3490  209.1300  155.5450 N   0  0  0  0  0  0  0  0  0  0  0  0
  160.4730  209.7330  153.5320 C   0  0  0  0  0  3  0  0  0  0  0  0
  160.8150  207.5420  154.5110 C   0  0  0  0  0  0  0  0  0  0  0  0
  161.5810  205.9510  154.4980 Cl  0  0  0  0  0  0  0  0  0  0  0  0
  159.5930  210.0410  154.5680 C   0  0  0  0  0  0  0  0  0  0  0  0
  158.2060  211.6000  153.4740 O   0  0  0  0  0  1  0  0  0  0  0  0
  158.9580  211.3840  154.6280 C   0  0  0  0  0  2  0  0  0  0  0  0
  1  3  1  6  0  0  0
  1 17  1  0  0  0  0
  2 15  1  0  0  0  0
  4  2  1  0  0  0  0
  4  1  1  0  0  0  0
  5  7  1  0  0  0  0
  7 18  1  0  0  0  0
  7  2  2  0  0  0  0
  8 21  1  0  0  0  0
  9  8  2  0  0  0  0
  9 18  1  0  0  0  0
 10 16  2  0  0  0  0
 10  5  1  0  0  0  0
 11  4  2  0  0  0  0
 12  5  2  0  0  0  0
 12  9  1  0  0  0  0
 13 11  1  0  0  0  0
 13 14  1  0  0  0  0
 14 20  1  0  0  0  0
 15 17  1  0  0  0  0
 16 11  1  0  0  0  0
 17 25  1  1  0  0  0
 18 22  2  0  0  0  0
 19 10  1  0  0  0  0
 20  3  2  0  0  0  0
 21  6  2  0  0  0  0
 22  6  1  0  0  0  0
 23 26  1  0  0  0  0
 23 24  1  0  0  0  0
 25 27  2  0  0  0  0
 25 28  1  0  0  0  0
 27 30  1  0  0  0  0
 28 23  2  0  0  0  0
 29 28  1  0  0  0  0
 30 32  1  0  0  0  0
 30 26  2  0  0  0  0
 31 32  1  0  0  0  0
M  END
>  <MODEL>
3

>  <REMARK>
 VINA RESULT:      -7.3      3.164      8.328
  Name = 
  2 active torsions:
  status: ('A' for Active; 'I' for Inactive)
    1  A    between atoms: C_15  and  CA_26
    2  A    between atoms: C_16  and  C_27
                            x       y       z     vdW  Elec       q    Type
                         _______ _______ _______ _____ _____    ______ ____

>  <TORSDO>
F 2

$$$$
=
 OpenBabel11062408273D

 32 37  0  0  1  0  0  0  0  0999 V2000
  161.1080  208.2820  153.0030 C   0  0  1  0  0  3  0  0  0  0  0  0
  160.8740  210.3680  151.9800 C   0  0  0  0  0  0  0  0  0  0  0  0
  161.9550  207.8780  154.1700 C   0  0  0  0  0  3  0  0  0  0  0  0
  160.5550  209.6790  153.1450 C   0  0  0  0  0  0  0  0  0  0  0  0
  159.6380  212.6110  152.3300 C   0  0  0  0  0  0  0  0  0  0  0  0
  161.7260  212.8110  148.2810 C   0  0  0  0  0  3  0  0  0  0  0  0
  160.4860  211.6540  151.6170 C   0  0  0  0  0  0  0  0  0  0  0  0
  160.3230  214.4530  149.4220 C   0  0  0  0  0  3  0  0  0  0  0  0
  160.1940  213.5460  150.4730 C   0  0  0  0  0  0  0  0  0  0  0  0
  159.0480  212.4680  153.5750 C   0  0  0  0  0  0  0  0  0  0  0  0
  159.7950  210.1200  154.2630 C   0  0  0  0  0  0  0  0  0  0  0  0
  159.4900  213.7430  151.6000 N   0  0  0  0  0  0  0  0  0  0  0  0
  159.6560  209.3260  155.5480 C   0  0  0  0  0  2  0  0  0  0  0  0
  160.0040  207.8430  155.5240 C   0  0  0  0  0  2  0  0  0  0  0  0
  161.6770  209.5830  151.1140 N   0  0  0  0  0  2  0  0  0  0  0  0
  159.1600  211.3550  154.3960 C   0  0  0  0  0  3  0  0  0  0  0  0
  161.9370  208.2960  151.7250 C   0  0  2  0  0  3  0  0  0  0  0  0
  160.8040  212.3150  150.4420 C   0  0  0  0  0  0  0  0  0  0  0  0
  158.2870  213.5250  154.0600 O   0  0  0  0  0  1  0  0  0  0  0  0
  161.4230  207.6730  155.3210 N   0  0  0  0  0  0  0  0  0  0  0  0
  161.1010  214.0740  148.3150 C   0  0  0  0  0  3  0  0  0  0  0  0
  161.5810  211.9140  149.3520 C   0  0  0  0  0  3  0  0  0  0  0  0
  161.1600  206.2850  148.5860 C   0  0  0  0  0  0  0  0  0  0  0  0
  161.1330  206.4260  147.1030 C   0  0  0  0  0  1  0  0  0  0  0  0
  161.5370  207.1770  150.8090 C   0  0  0  0  0  0  0  0  0  0  0  0
  160.8300  205.0870  149.1370 N   0  0  0  0  0  0  0  0  0  0  0  0
  161.1940  205.9260  151.3380 C   0  0  0  0  0  3  0  0  0  0  0  0
  161.5240  207.3630  149.4140 C   0  0  0  0  0  0  0  0  0  0  0  0
  161.9630  208.9240  148.7140 Cl  0  0  0  0  0  0  0  0  0  0  0  0
  160.8310  204.8890  150.4800 C   0  0  0  0  0  0  0  0  0  0  0  0
  160.8310  203.5020  152.3860 O   0  0  0  0  0  1  0  0  0  0  0  0
  160.4890  203.5520  151.0350 C   0  0  0  0  0  2  0  0  0  0  0  0
  1  4  1  0  0  0  0
  1  3  1  1  0  0  0
  2  4  1  0  0  0  0
  3 20  2  0  0  0  0
  4 11  2  0  0  0  0
  5 10  1  0  0  0  0
  6 21  2  0  0  0  0
  6 22  1  0  0  0  0
  7  2  2  0  0  0  0
  7  5  1  0  0  0  0
  8  9  2  0  0  0  0
  9 12  1  0  0  0  0
 10 19  1  0  0  0  0
 10 16  2  0  0  0  0
 11 16  1  0  0  0  0
 11 13  1  0  0  0  0
 12  5  2  0  0  0  0
 14 13  1  0  0  0  0
 15 17  1  0  0  0  0
 15  2  1  0  0  0  0
 17 25  1  6  0  0  0
 17  1  1  0  0  0  0
 18  9  1  0  0  0  0
 18  7  1  0  0  0  0
 20 14  1  0  0  0  0
 21  8  1  0  0  0  0
 22 18  2  0  0  0  0
 23 26  2  0  0  0  0
 23 28  1  0  0  0  0
 24 23  1  0  0  0  0
 25 27  1  0  0  0  0
 26 30  1  0  0  0  0
 28 25  2  0  0  0  0
 29 28  1  0  0  0  0
 30 32  1  0  0  0  0
 30 27  2  0  0  0  0
 32 31  1  0  0  0  0
M  END
>  <MODEL>
4

>  <REMARK>
 VINA RESULT:      -7.2      2.103      2.794
  Name = 
  2 active torsions:
  status: ('A' for Active; 'I' for Inactive)
    1  A    between atoms: C_15  and  CA_26
    2  A    between atoms: C_16  and  C_27
                            x       y       z     vdW  Elec       q    Type
                         _______ _______ _______ _____ _____    ______ ____

>  <TORSDO>
F 2

$$$$
=
 OpenBabel11062408273D

 32 37  0  0  1  0  0  0  0  0999 V2000
  161.1250  207.9780  152.7560 C   0  0  1  0  0  3  0  0  0  0  0  0
  161.1350  210.0250  151.6340 C   0  0  0  0  0  0  0  0  0  0  0  0
  161.8630  207.5600  153.9900 C   0  0  0  0  0  3  0  0  0  0  0  0
  160.6890  209.4210  152.8040 C   0  0  0  0  0  0  0  0  0  0  0  0
  160.0820  212.3790  151.8100 C   0  0  0  0  0  0  0  0  0  0  0  0
  162.4150  212.2090  147.8960 C   0  0  0  0  0  3  0  0  0  0  0  0
  160.8840  211.3200  151.1930 C   0  0  0  0  0  0  0  0  0  0  0  0
  161.0960  214.0170  148.8770 C   0  0  0  0  0  3  0  0  0  0  0  0
  160.8260  213.1750  149.9540 C   0  0  0  0  0  0  0  0  0  0  0  0
  159.4080  212.3450  153.0200 C   0  0  0  0  0  0  0  0  0  0  0  0
  159.9050  209.9780  153.8530 C   0  0  0  0  0  0  0  0  0  0  0  0
  160.0760  213.4840  151.0250 N   0  0  0  0  0  0  0  0  0  0  0  0
  159.6220  209.2600  155.1580 C   0  0  0  0  0  2  0  0  0  0  0  0
  159.8400  207.7530  155.2190 C   0  0  0  0  0  2  0  0  0  0  0  0
  161.9160  209.1350  150.8530 N   0  0  0  0  0  2  0  0  0  0  0  0
  159.3740  211.2670  153.8930 C   0  0  0  0  0  3  0  0  0  0  0  0
  162.0270  207.8610  151.5340 C   0  0  2  0  0  3  0  0  0  0  0  0
  161.3260  211.8960  150.0140 C   0  0  0  0  0  0  0  0  0  0  0  0
  158.7150  213.4850  153.4120 O   0  0  0  0  0  1  0  0  0  0  0  0
  161.2470  207.4550  155.1130 N   0  0  0  0  0  0  0  0  0  0  0  0
  161.9020  213.5210  147.8380 C   0  0  0  0  0  3  0  0  0  0  0  0
  162.1290  211.3800  148.9930 C   0  0  0  0  0  3  0  0  0  0  0  0
  161.0050  204.4100  150.2890 C   0  0  0  0  0  0  0  0  0  0  0  0
  160.8300  203.0130  150.7760 C   0  0  0  0  0  1  0  0  0  0  0  0
  161.5850  206.7370  150.6420 C   0  0  0  0  0  0  0  0  0  0  0  0
  160.7320  204.6890  148.9860 N   0  0  0  0  0  0  0  0  0  0  0  0
  161.2890  206.9860  149.2950 C   0  0  0  0  0  3  0  0  0  0  0  0
  161.4390  205.4340  151.1500 C   0  0  0  0  0  0  0  0  0  0  0  0
  161.7910  205.0900  152.8460 Cl  0  0  0  0  0  0  0  0  0  0  0  0
  160.8710  205.9400  148.4750 C   0  0  0  0  0  0  0  0  0  0  0  0
  161.6970  206.2010  146.2830 O   0  0  0  0  0  1  0  0  0  0  0  0
  160.5330  206.2020  147.0500 C   0  0  0  0  0  2  0  0  0  0  0  0
  1  4  1  0  0  0  0
  1  3  1  1  0  0  0
  2  4  1  0  0  0  0
  3 20  2  0  0  0  0
  4 11  2  0  0  0  0
  5 10  1  0  0  0  0
  6 22  1  0  0  0  0
  7  2  2  0  0  0  0
  7  5  1  0  0  0  0
  8  9  2  0  0  0  0
  9 18  1  0  0  0  0
  9 12  1  0  0  0  0
 10 19  1  0  0  0  0
 10 16  2  0  0  0  0
 11 16  1  0  0  0  0
 11 13  1  0  0  0  0
 12  5  2  0  0  0  0
 13 14  1  0  0  0  0
 15 17  1  0  0  0  0
 15  2  1  0  0  0  0
 17 25  1  6  0  0  0
 17  1  1  0  0  0  0
 18  7  1  0  0  0  0
 20 14  1  0  0  0  0
 21  6  2  0  0  0  0
 21  8  1  0  0  0  0
 22 18  2  0  0  0  0
 23 24  1  0  0  0  0
 23 28  1  0  0  0  0
 25 28  2  0  0  0  0
 26 23  2  0  0  0  0
 27 25  1  0  0  0  0
 28 29  1  0  0  0  0
 30 26  1  0  0  0  0
 30 27  2  0  0  0  0
 31 32  1  0  0  0  0
 32 30  1  0  0  0  0
M  END
>  <MODEL>
5

>  <REMARK>
 VINA RESULT:      -7.1      2.777      3.944
  Name = 
  2 active torsions:
  status: ('A' for Active; 'I' for Inactive)
    1  A    between atoms: C_15  and  CA_26
    2  A    between atoms: C_16  and  C_27
                            x       y       z     vdW  Elec       q    Type
                         _______ _______ _______ _____ _____    ______ ____

>  <TORSDO>
F 2

$$$$
=
 OpenBabel11062408273D

 32 37  0  0  1  0  0  0  0  0999 V2000
  161.0250  208.6830  153.8740 C   0  0  1  0  0  3  0  0  0  0  0  0
  160.4390  210.6480  152.7580 C   0  0  0  0  0  0  0  0  0  0  0  0
  161.9550  208.4800  155.0300 C   0  0  0  0  0  3  0  0  0  0  0  0
  160.2630  209.9820  153.9650 C   0  0  0  0  0  0  0  0  0  0  0  0
  158.8760  212.6870  153.0380 C   0  0  0  0  0  0  0  0  0  0  0  0
  160.8010  212.9900  148.9150 C   0  0  0  0  0  3  0  0  0  0  0  0
  159.8450  211.8360  152.3450 C   0  0  0  0  0  0  0  0  0  0  0  0
  159.1870  214.4530  150.0220 C   0  0  0  0  0  3  0  0  0  0  0  0
  159.2300  213.5950  151.1190 C   0  0  0  0  0  0  0  0  0  0  0  0
  158.3470  212.5210  154.3080 C   0  0  0  0  0  0  0  0  0  0  0  0
  159.4720  210.3590  155.0860 C   0  0  0  0  0  0  0  0  0  0  0  0
  158.5320  213.7410  152.2590 N   0  0  0  0  0  0  0  0  0  0  0  0
  159.4930  209.6240  156.4120 C   0  0  0  0  0  2  0  0  0  0  0  0
  160.0700  208.2140  156.4500 C   0  0  0  0  0  2  0  0  0  0  0  0
  161.3330  209.9520  151.9050 N   0  0  0  0  0  2  0  0  0  0  0  0
  158.6540  211.4850  155.1790 C   0  0  0  0  0  3  0  0  0  0  0  0
  161.8090  208.7560  152.5700 C   0  0  2  0  0  3  0  0  0  0  0  0
  160.0240  212.4740  151.1290 C   0  0  0  0  0  0  0  0  0  0  0  0
  157.4420  213.4720  154.7660 O   0  0  0  0  0  1  0  0  0  0  0  0
  161.4910  208.2560  156.2070 N   0  0  0  0  0  0  0  0  0  0  0  0
  159.9860  214.1400  148.9090 C   0  0  0  0  0  3  0  0  0  0  0  0
  160.8260  212.1410  150.0340 C   0  0  0  0  0  3  0  0  0  0  0  0
  161.4070  206.4570  149.5610 C   0  0  0  0  0  0  0  0  0  0  0  0
  161.4590  206.4850  148.0720 C   0  0  0  0  0  1  0  0  0  0  0  0
  161.5660  207.5400  151.7240 C   0  0  0  0  0  0  0  0  0  0  0  0
  161.1510  205.2770  150.1860 N   0  0  0  0  0  0  0  0  0  0  0  0
  161.3030  206.3050  152.3310 C   0  0  0  0  0  3  0  0  0  0  0  0
  161.6220  207.6220  150.3200 C   0  0  0  0  0  0  0  0  0  0  0  0
  161.9640  209.1610  149.5250 Cl  0  0  0  0  0  0  0  0  0  0  0  0
  161.0860  205.1790  151.5390 C   0  0  0  0  0  0  0  0  0  0  0  0
  161.5780  202.8740  151.5360 O   0  0  0  0  0  1  0  0  0  0  0  0
  160.8310  203.8600  152.1780 C   0  0  0  0  0  2  0  0  0  0  0  0
  1  4  1  0  0  0  0
  1  3  1  1  0  0  0
  2  4  1  0  0  0  0
  3 20  2  0  0  0  0
  4 11  2  0  0  0  0
  5 10  1  0  0  0  0
  6 22  1  0  0  0  0
  7  2  2  0  0  0  0
  7  5  1  0  0  0  0
  8  9  2  0  0  0  0
  9 18  1  0  0  0  0
  9 12  1  0  0  0  0
 10 19  1  0  0  0  0
 10 16  2  0  0  0  0
 11 16  1  0  0  0  0
 11 13  1  0  0  0  0
 12  5  2  0  0  0  0
 13 14  1  0  0  0  0
 15 17  1  0  0  0  0
 15  2  1  0  0  0  0
 17 25  1  6  0  0  0
 17  1  1  0  0  0  0
 18  7  1  0  0  0  0
 20 14  1  0  0  0  0
 21  6  2  0  0  0  0
 21  8  1  0  0  0  0
 22 18  2  0  0  0  0
 23 26  2  0  0  0  0
 23 28  1  0  0  0  0
 24 23  1  0  0  0  0
 25 27  1  0  0  0  0
 26 30  1  0  0  0  0
 28 25  2  0  0  0  0
 29 28  1  0  0  0  0
 30 32  1  0  0  0  0
 30 27  2  0  0  0  0
 31 32  1  0  0  0  0
M  END
>  <MODEL>
6

>  <REMARK>
 VINA RESULT:      -6.8      1.524      1.914
  Name = 
  2 active torsions:
  status: ('A' for Active; 'I' for Inactive)
    1  A    between atoms: C_15  and  CA_26
    2  A    between atoms: C_16  and  C_27
                            x       y       z     vdW  Elec       q    Type
                         _______ _______ _______ _____ _____    ______ ____

>  <TORSDO>
F 2

$$$$
=
 OpenBabel11062408273D

 32 37  0  0  1  0  0  0  0  0999 V2000
  161.2120  210.0690  154.3520 C   0  0  1  0  0  3  0  0  0  0  0  0
  159.5840  211.5590  153.5900 C   0  0  0  0  0  0  0  0  0  0  0  0
  162.4060  210.3190  155.2200 C   0  0  0  0  0  3  0  0  0  0  0  0
  160.0260  210.9170  154.7410 C   0  0  0  0  0  0  0  0  0  0  0  0
  157.4390  212.7360  154.4230 C   0  0  0  0  0  0  0  0  0  0  0  0
  157.9100  213.7170  149.9950 C   0  0  0  0  0  3  0  0  0  0  0  0
  158.4590  212.3640  153.4400 C   0  0  0  0  0  0  0  0  0  0  0  0
  156.1790  214.3760  151.5880 C   0  0  0  0  0  3  0  0  0  0  0  0
  156.8640  213.6520  152.5620 C   0  0  0  0  0  0  0  0  0  0  0  0
  157.3800  212.3950  155.7650 C   0  0  0  0  0  0  0  0  0  0  0  0
  159.4710  210.9490  156.0500 C   0  0  0  0  0  0  0  0  0  0  0  0
  156.4930  213.5170  153.8470 N   0  0  0  0  0  0  0  0  0  0  0  0
  160.1450  210.3340  157.2610 C   0  0  0  0  0  2  0  0  0  0  0  0
  161.2500  209.3100  157.0330 C   0  0  0  0  0  2  0  0  0  0  0  0
  160.4320  211.2900  152.4850 N   0  0  0  0  0  2  0  0  0  0  0  0
  158.3100  211.6180  156.4400 C   0  0  0  0  0  3  0  0  0  0  0  0
  161.5220  210.4350  152.9050 C   0  0  2  0  0  3  0  0  0  0  0  0
  158.0290  212.9820  152.2780 C   0  0  0  0  0  0  0  0  0  0  0  0
  156.3120  212.8780  156.5130 O   0  0  0  0  0  1  0  0  0  0  0  0
  162.4040  209.9520  156.4510 N   0  0  0  0  0  0  0  0  0  0  0  0
  156.7160  214.4050  150.2890 C   0  0  0  0  0  3  0  0  0  0  0  0
  158.5820  212.9940  150.9940 C   0  0  0  0  0  3  0  0  0  0  0  0
  161.3500  206.8190  151.7240 C   0  0  0  0  0  0  0  0  0  0  0  0
  161.0150  205.4560  152.2240 C   0  0  0  0  0  1  0  0  0  0  0  0
  161.6040  209.2080  152.0440 C   0  0  0  0  0  0  0  0  0  0  0  0
  161.7250  206.9660  150.4250 N   0  0  0  0  0  0  0  0  0  0  0  0
  161.9820  209.3200  150.6990 C   0  0  0  0  0  3  0  0  0  0  0  0
  161.2800  207.9430  152.5660 C   0  0  0  0  0  0  0  0  0  0  0  0
  160.7870  207.7700  154.2540 Cl  0  0  0  0  0  0  0  0  0  0  0  0
  162.0470  208.1780  149.9030 C   0  0  0  0  0  0  0  0  0  0  0  0
  162.4150  207.0310  147.8770 O   0  0  0  0  0  1  0  0  0  0  0  0
  162.4250  208.2930  148.4690 C   0  0  0  0  0  2  0  0  0  0  0  0
  1  4  1  0  0  0  0
  1  3  1  1  0  0  0
  2  4  1  0  0  0  0
  3 20  2  0  0  0  0
  4 11  2  0  0  0  0
  5 10  1  0  0  0  0
  6 21  2  0  0  0  0
  6 22  1  0  0  0  0
  7  2  2  0  0  0  0
  7  5  1  0  0  0  0
  8  9  2  0  0  0  0
  9 12  1  0  0  0  0
 10 16  2  0  0  0  0
 10 19  1  0  0  0  0
 11 16  1  0  0  0  0
 11 13  1  0  0  0  0
 12  5  2  0  0  0  0
 14 13  1  0  0  0  0
 15 17  1  0  0  0  0
 15  2  1  0  0  0  0
 17 25  1  6  0  0  0
 17  1  1  0  0  0  0
 18  9  1  0  0  0  0
 18  7  1  0  0  0  0
 20 14  1  0  0  0  0
 21  8  1  0  0  0  0
 22 18  2  0  0  0  0
 23 24  1  0  0  0  0
 23 28  1  0  0  0  0
 25 28  2  0  0  0  0
 26 23  2  0  0  0  0
 27 25  1  0  0  0  0
 28 29  1  0  0  0  0
 30 26  1  0  0  0  0
 30 27  2  0  0  0  0
 31 32  1  0  0  0  0
 32 30  1  0  0  0  0
M  END
>  <MODEL>
7

>  <REMARK>
 VINA RESULT:      -6.4      1.278      1.962
  Name = 
  2 active torsions:
  status: ('A' for Active; 'I' for Inactive)
    1  A    between atoms: C_15  and  CA_26
    2  A    between atoms: C_16  and  C_27
                            x       y       z     vdW  Elec       q    Type
                         _______ _______ _______ _____ _____    ______ ____

>  <TORSDO>
F 2

$$$$
=
 OpenBabel11062408273D

 32 37  0  0  1  0  0  0  0  0999 V2000
  161.6850  209.0930  149.7630 C   0  0  1  0  0  3  0  0  0  0  0  0
  161.6400  208.6220  152.0500 C   0  0  0  0  0  0  0  0  0  0  0  0
  162.7070  208.7290  148.7310 C   0  0  0  0  0  3  0  0  0  0  0  0
  161.5060  208.0170  150.8050 C   0  0  0  0  0  0  0  0  0  0  0  0
  161.0610  206.6820  153.6560 C   0  0  0  0  0  0  0  0  0  0  0  0
  161.9710  210.3500  156.2070 C   0  0  0  0  0  3  0  0  0  0  0  0
  161.4570  208.0470  153.3030 C   0  0  0  0  0  0  0  0  0  0  0  0
  161.3180  208.0880  156.8610 C   0  0  0  0  0  3  0  0  0  0  0  0
  161.2840  207.7550  155.5080 C   0  0  0  0  0  0  0  0  0  0  0  0
  160.8110  205.6170  152.8050 C   0  0  0  0  0  0  0  0  0  0  0  0
  161.1890  206.6630  150.5010 C   0  0  0  0  0  0  0  0  0  0  0  0
  160.9690  206.5510  155.0010 N   0  0  0  0  0  0  0  0  0  0  0  0
  161.2340  206.0880  149.0990 C   0  0  0  0  0  2  0  0  0  0  0  0
  161.2340  207.0520  147.9190 C   0  0  0  0  0  2  0  0  0  0  0  0
  161.9900  209.9910  151.9270 N   0  0  0  0  0  2  0  0  0  0  0  0
  160.8970  205.6560  151.4200 C   0  0  0  0  0  3  0  0  0  0  0  0
  162.1210  210.3370  150.5270 C   0  0  2  0  0  3  0  0  0  0  0  0
  161.5810  208.6750  154.5310 C   0  0  0  0  0  0  0  0  0  0  0  0
  160.4560  204.3990  153.3720 O   0  0  0  0  0  1  0  0  0  0  0  0
  162.4730  207.7900  147.8860 N   0  0  0  0  0  0  0  0  0  0  0  0
  161.6670  209.4040  157.2070 C   0  0  0  0  0  3  0  0  0  0  0  0
  161.9300  209.9900  154.8510 C   0  0  0  0  0  3  0  0  0  0  0  0
  160.6470  213.3420  148.7110 C   0  0  0  0  0  0  0  0  0  0  0  0
  160.8480  214.1600  147.4820 C   0  0  0  0  0  1  0  0  0  0  0  0
  161.2560  211.5140  150.1820 C   0  0  0  0  0  0  0  0  0  0  0  0
  159.6240  213.6570  149.5490 N   0  0  0  0  0  0  0  0  0  0  0  0
  160.1890  211.8680  151.0180 C   0  0  0  0  0  3  0  0  0  0  0  0
  161.4910  212.2560  149.0110 C   0  0  0  0  0  0  0  0  0  0  0  0
  162.8200  211.8280  147.9300 Cl  0  0  0  0  0  0  0  0  0  0  0  0
  159.3840  212.9570  150.6870 C   0  0  0  0  0  0  0  0  0  0  0  0
  158.2090  212.4900  152.6760 O   0  0  0  0  0  1  0  0  0  0  0  0
  158.2350  213.3230  151.5580 C   0  0  0  0  0  2  0  0  0  0  0  0
  1  3  1  6  0  0  0
  1 17  1  0  0  0  0
  1  4  1  0  0  0  0
  2  7  1  0  0  0  0
  4  2  2  0  0  0  0
  5 12  1  0  0  0  0
  6 21  1  0  0  0  0
  7  5  1  0  0  0  0
  7 18  2  0  0  0  0
  8 21  2  0  0  0  0
  9  8  1  0  0  0  0
 10 19  1  0  0  0  0
 10  5  2  0  0  0  0
 11  4  1  0  0  0  0
 11 16  2  0  0  0  0
 12  9  2  0  0  0  0
 13 11  1  0  0  0  0
 14 13  1  0  0  0  0
 15  2  1  0  0  0  0
 16 10  1  0  0  0  0
 17 25  1  6  0  0  0
 17 15  1  0  0  0  0
 18 22  1  0  0  0  0
 18  9  1  0  0  0  0
 20 14  1  0  0  0  0
 20  3  2  0  0  0  0
 22  6  2  0  0  0  0
 23 28  2  0  0  0  0
 23 26  1  0  0  0  0
 24 23  1  0  0  0  0
 25 27  2  0  0  0  0
 26 30  2  0  0  0  0
 28 25  1  0  0  0  0
 29 28  1  0  0  0  0
 30 27  1  0  0  0  0
 30 32  1  0  0  0  0
 32 31  1  0  0  0  0
M  END
>  <MODEL>
8

>  <REMARK>
 VINA RESULT:      -6.0      2.364      7.029
  Name = 
  2 active torsions:
  status: ('A' for Active; 'I' for Inactive)
    1  A    between atoms: C_15  and  CA_26
    2  A    between atoms: C_16  and  C_27
                            x       y       z     vdW  Elec       q    Type
                         _______ _______ _______ _____ _____    ______ ____

>  <TORSDO>
F 2

$$$$
=
 OpenBabel11062408273D

 32 37  0  0  1  0  0  0  0  0999 V2000
  160.5320  210.5390  153.7000 C   0  0  1  0  0  3  0  0  0  0  0  0
  159.5590  211.9300  152.0960 C   0  0  0  0  0  0  0  0  0  0  0  0
  161.3660  210.8920  154.8920 C   0  0  0  0  0  3  0  0  0  0  0  0
  159.4490  211.5550  153.4300 C   0  0  0  0  0  0  0  0  0  0  0  0
  157.4940  213.4550  151.7950 C   0  0  0  0  0  0  0  0  0  0  0  0
  159.6600  213.2720  147.7860 C   0  0  0  0  0  3  0  0  0  0  0  0
  158.7160  212.7670  151.3720 C   0  0  0  0  0  0  0  0  0  0  0  0
  157.6190  214.4490  148.4320 C   0  0  0  0  0  3  0  0  0  0  0  0
  157.7800  213.9310  149.7160 C   0  0  0  0  0  0  0  0  0  0  0  0
  156.9080  213.4620  153.0500 C   0  0  0  0  0  0  0  0  0  0  0  0
  158.4820  211.9570  154.3930 C   0  0  0  0  0  0  0  0  0  0  0  0
  156.9620  214.1480  150.7600 N   0  0  0  0  0  0  0  0  0  0  0  0
  158.5680  211.6020  155.8650 C   0  0  0  0  0  2  0  0  0  0  0  0
  159.4890  210.4630  156.2830 C   0  0  0  0  0  2  0  0  0  0  0  0
  160.6830  211.3250  151.4760 N   0  0  0  0  0  2  0  0  0  0  0  0
  157.3910  212.7970  154.1690 C   0  0  0  0  0  3  0  0  0  0  0  0
  161.3900  210.5100  152.4410 C   0  0  2  0  0  3  0  0  0  0  0  0
  158.8370  213.1140  150.0370 C   0  0  0  0  0  0  0  0  0  0  0  0
  155.7440  214.2030  153.2220 O   0  0  0  0  0  1  0  0  0  0  0  0
  160.8660  210.8410  156.0740 N   0  0  0  0  0  0  0  0  0  0  0  0
  158.5760  214.1110  147.4600 C   0  0  0  0  0  3  0  0  0  0  0  0
  159.8000  212.7630  149.0880 C   0  0  0  0  0  3  0  0  0  0  0  0
  162.0450  207.5380  150.1530 C   0  0  0  0  0  0  0  0  0  0  0  0
  162.3860  207.2250  148.7360 C   0  0  0  0  0  1  0  0  0  0  0  0
  161.5590  209.1060  151.9350 C   0  0  0  0  0  0  0  0  0  0  0  0
  161.9020  206.5120  151.0330 N   0  0  0  0  0  0  0  0  0  0  0  0
  161.4230  208.0230  152.8130 C   0  0  0  0  0  3  0  0  0  0  0  0
  161.8770  208.8650  150.5860 C   0  0  0  0  0  0  0  0  0  0  0  0
  162.0670  210.2090  149.4560 Cl  0  0  0  0  0  0  0  0  0  0  0  0
  161.5890  206.7240  152.3380 C   0  0  0  0  0  0  0  0  0  0  0  0
  160.8770  205.9900  154.4610 O   0  0  0  0  0  1  0  0  0  0  0  0
  161.4700  205.5710  153.2710 C   0  0  0  0  0  2  0  0  0  0  0  0
  1  3  1  1  0  0  0
  2  4  1  0  0  0  0
  3 20  2  0  0  0  0
  4  1  1  0  0  0  0
  4 11  2  0  0  0  0
  5 10  1  0  0  0  0
  6 22  1  0  0  0  0
  7  5  1  0  0  0  0
  7  2  2  0  0  0  0
  8  9  2  0  0  0  0
  9 18  1  0  0  0  0
  9 12  1  0  0  0  0
 10 19  1  0  0  0  0
 10 16  2  0  0  0  0
 11 13  1  0  0  0  0
 12  5  2  0  0  0  0
 13 14  1  0  0  0  0
 15  2  1  0  0  0  0
 15 17  1  0  0  0  0
 16 11  1  0  0  0  0
 17 25  1  6  0  0  0
 17  1  1  0  0  0  0
 18  7  1  0  0  0  0
 20 14  1  0  0  0  0
 21  6  2  0  0  0  0
 21  8  1  0  0  0  0
 22 18  2  0  0  0  0
 23 28  2  0  0  0  0
 23 26  1  0  0  0  0
 24 23  1  0  0  0  0
 25 27  2  0  0  0  0
 26 30  2  0  0  0  0
 28 25  1  0  0  0  0
 29 28  1  0  0  0  0
 30 27  1  0  0  0  0
 30 32  1  0  0  0  0
 32 31  1  0  0  0  0
M  END
>  <MODEL>
9

>  <REMARK>
 VINA RESULT:      -5.8      1.452      2.006
  Name = 
  2 active torsions:
  status: ('A' for Active; 'I' for Inactive)
    1  A    between atoms: C_15  and  CA_26
    2  A    between atoms: C_16  and  C_27
                            x       y       z     vdW  Elec       q    Type
                         _______ _______ _______ _____ _____    ______ ____

>  <TORSDO>
F 2

$$$$
