=
 OpenBabel11052423193D

 27 31  0  0  0  0  0  0  0  0999 V2000
  161.8550  210.4970  150.9930 N   0  0  0  0  0  0  0  0  0  0  0  0
  161.9190  208.6330  149.3990 C   0  0  0  0  0  0  0  0  0  0  0  0
  160.4680  207.9190  151.2500 O   0  0  0  0  0  0  0  0  0  0  0  0
  161.9470  204.7040  147.9450 C   0  0  0  0  0  3  0  0  0  0  0  0
  161.2120  202.3800  148.0770 N   0  0  0  0  0  1  0  0  0  0  0  0
  162.6430  208.2750  148.3000 N   0  0  0  0  0  0  0  0  0  0  0  0
  160.4450  204.0190  149.7170 C   0  0  0  0  0  3  0  0  0  0  0  0
  161.1620  208.0460  155.9990 O   0  0  0  0  0  1  0  0  0  0  0  0
  160.4310  205.3230  150.2170 C   0  0  0  0  0  3  0  0  0  0  0  0
  161.3610  208.6170  154.7490 C   0  0  0  0  0  0  0  0  0  0  0  0
  161.1720  206.3330  149.5830 C   0  0  0  0  0  0  0  0  0  0  0  0
  161.8630  210.0750  149.7610 C   0  0  0  0  0  0  0  0  0  0  0  0
  161.2010  203.7090  148.5820 C   0  0  0  0  0  0  0  0  0  0  0  0
  161.9340  206.0110  148.4410 C   0  0  0  0  0  0  0  0  0  0  0  0
  161.7690  209.7630  152.2180 C   0  0  0  0  0  0  0  0  0  0  0  0
  161.1820  207.6450  150.0860 C   0  0  0  0  0  0  0  0  0  0  0  0
  160.8190  208.0160  153.6110 C   0  0  0  0  0  3  0  0  0  0  0  0
  162.6760  207.0070  147.8190 C   0  0  0  0  0  3  0  0  0  0  0  0
  162.0990  209.7950  154.6280 C   0  0  0  0  0  3  0  0  0  0  0  0
  162.2870  210.3700  153.3690 C   0  0  0  0  0  3  0  0  0  0  0  0
  161.0250  208.5730  152.3440 C   0  0  0  0  0  0  0  0  0  0  0  0
  162.0160  213.0960  146.7060 C   0  0  0  0  0  3  0  0  0  0  0  0
  161.9150  211.1050  148.6900 C   0  0  0  0  0  0  0  0  0  0  0  0
  160.7810  211.4000  147.9130 C   0  0  0  0  0  3  0  0  0  0  0  0
  160.8330  212.3870  146.9250 C   0  0  0  0  0  3  0  0  0  0  0  0
  163.1470  212.8200  147.4770 C   0  0  0  0  0  3  0  0  0  0  0  0
  163.0950  211.8320  148.4650 C   0  0  0  0  0  3  0  0  0  0  0  0
  1 15  1  0  0  0  0
  2 12  1  0  0  0  0
  2 16  1  0  0  0  0
  3 21  1  0  0  0  0
  4 14  1  0  0  0  0
  4 13  2  0  0  0  0
  5 13  1  0  0  0  0
  6  2  2  0  0  0  0
  7  9  2  0  0  0  0
 10  8  1  0  0  0  0
 11 16  2  0  0  0  0
 11  9  1  0  0  0  0
 12  1  2  0  0  0  0
 13  7  1  0  0  0  0
 14 11  1  0  0  0  0
 15 21  2  0  0  0  0
 15 20  1  0  0  0  0
 16  3  1  0  0  0  0
 17 10  2  0  0  0  0
 18  6  1  0  0  0  0
 18 14  2  0  0  0  0
 19 10  1  0  0  0  0
 20 19  2  0  0  0  0
 21 17  1  0  0  0  0
 22 25  2  0  0  0  0
 22 26  1  0  0  0  0
 23 12  1  0  0  0  0
 24 23  2  0  0  0  0
 25 24  1  0  0  0  0
 26 27  2  0  0  0  0
 27 23  1  0  0  0  0
M  END
>  <MODEL>
1

>  <REMARK>
 VINA RESULT:      -7.7      0.000      0.000
  Name = 
  1 active torsions:
  status: ('A' for Active; 'I' for Inactive)
    1  A    between atoms: C_9  and  C_15
                            x       y       z     vdW  Elec       q    Type
                         _______ _______ _______ _____ _____    ______ ____

>  <TORSDO>
F 1

$$$$
=
 OpenBabel11052423193D

 27 31  0  0  0  0  0  0  0  0999 V2000
  161.7040  210.6930  151.7130 N   0  0  0  0  0  0  0  0  0  0  0  0
  161.7960  208.9940  149.9480 C   0  0  0  0  0  0  0  0  0  0  0  0
  160.4280  208.0460  151.7560 O   0  0  0  0  0  0  0  0  0  0  0  0
  161.9400  205.2250  148.1220 C   0  0  0  0  0  3  0  0  0  0  0  0
  161.3030  202.8690  148.0490 N   0  0  0  0  0  1  0  0  0  0  0  0
  162.5030  208.7720  148.8020 N   0  0  0  0  0  0  0  0  0  0  0  0
  160.5170  204.3110  149.8560 C   0  0  0  0  0  3  0  0  0  0  0  0
  161.2500  207.7520  156.4770 O   0  0  0  0  0  1  0  0  0  0  0  0
  160.4660  205.5610  150.4800 C   0  0  0  0  0  3  0  0  0  0  0  0
  161.3910  208.4470  155.2830 C   0  0  0  0  0  0  0  0  0  0  0  0
  161.1470  206.6560  149.9280 C   0  0  0  0  0  0  0  0  0  0  0  0
  161.6930  210.3910  150.4470 C   0  0  0  0  0  0  0  0  0  0  0  0
  161.2530  204.1430  148.6790 C   0  0  0  0  0  0  0  0  0  0  0  0
  161.8890  206.4770  148.7420 C   0  0  0  0  0  0  0  0  0  0  0  0
  161.6810  209.8440  152.8650 C   0  0  0  0  0  0  0  0  0  0  0  0
  161.1200  207.9140  150.5540 C   0  0  0  0  0  0  0  0  0  0  0  0
  160.8420  207.9340  154.1060 C   0  0  0  0  0  3  0  0  0  0  0  0
  162.5730  207.5580  148.2000 C   0  0  0  0  0  3  0  0  0  0  0  0
  162.0780  209.6600  155.2570 C   0  0  0  0  0  3  0  0  0  0  0  0
  162.2070  210.3600  154.0560 C   0  0  0  0  0  3  0  0  0  0  0  0
  160.9890  208.6170  152.8930 C   0  0  0  0  0  0  0  0  0  0  0  0
  161.5850  213.6310  147.6240 C   0  0  0  0  0  3  0  0  0  0  0  0
  161.6740  211.5190  149.4790 C   0  0  0  0  0  0  0  0  0  0  0  0
  162.5910  211.5770  148.4150 C   0  0  0  0  0  3  0  0  0  0  0  0
  162.5490  212.6280  147.4950 C   0  0  0  0  0  3  0  0  0  0  0  0
  160.6620  213.5810  148.6700 C   0  0  0  0  0  3  0  0  0  0  0  0
  160.7040  212.5290  149.5900 C   0  0  0  0  0  3  0  0  0  0  0  0
  1 15  1  0  0  0  0
  2 12  1  0  0  0  0
  2 16  1  0  0  0  0
  3 21  1  0  0  0  0
  4 13  2  0  0  0  0
  4 14  1  0  0  0  0
  5 13  1  0  0  0  0
  6  2  2  0  0  0  0
  7  9  2  0  0  0  0
 10  8  1  0  0  0  0
 11  9  1  0  0  0  0
 11 16  2  0  0  0  0
 12  1  2  0  0  0  0
 13  7  1  0  0  0  0
 14 11  1  0  0  0  0
 15 21  2  0  0  0  0
 15 20  1  0  0  0  0
 16  3  1  0  0  0  0
 17 10  2  0  0  0  0
 18 14  2  0  0  0  0
 18  6  1  0  0  0  0
 19 10  1  0  0  0  0
 20 19  2  0  0  0  0
 21 17  1  0  0  0  0
 22 26  1  0  0  0  0
 23 27  1  0  0  0  0
 23 12  1  0  0  0  0
 24 23  2  0  0  0  0
 25 22  2  0  0  0  0
 25 24  1  0  0  0  0
 26 27  2  0  0  0  0
M  END
>  <MODEL>
2

>  <REMARK>
 VINA RESULT:      -7.4      0.832      1.087
  Name = 
  1 active torsions:
  status: ('A' for Active; 'I' for Inactive)
    1  A    between atoms: C_9  and  C_15
                            x       y       z     vdW  Elec       q    Type
                         _______ _______ _______ _____ _____    ______ ____

>  <TORSDO>
F 1

$$$$
=
 OpenBabel11052423193D

 27 31  0  0  0  0  0  0  0  0999 V2000
  161.2690  210.7040  151.8740 N   0  0  0  0  0  0  0  0  0  0  0  0
  161.2060  208.3350  151.2460 C   0  0  0  0  0  0  0  0  0  0  0  0
  162.4520  209.4930  149.4710 O   0  0  0  0  0  0  0  0  0  0  0  0
  161.0260  204.9090  148.8400 C   0  0  0  0  0  3  0  0  0  0  0  0
  161.5860  203.7200  146.7830 N   0  0  0  0  0  1  0  0  0  0  0  0
  160.5490  207.2070  151.6430 N   0  0  0  0  0  0  0  0  0  0  0  0
  162.3300  206.0200  147.1290 C   0  0  0  0  0  3  0  0  0  0  0  0
  161.3890  213.4560  146.9790 O   0  0  0  0  0  1  0  0  0  0  0  0
  162.3930  207.1720  147.9170 C   0  0  0  0  0  3  0  0  0  0  0  0
  161.3310  212.7460  148.1700 C   0  0  0  0  0  0  0  0  0  0  0  0
  161.7760  207.2020  149.1770 C   0  0  0  0  0  0  0  0  0  0  0  0
  161.3310  209.4510  152.2200 C   0  0  0  0  0  0  0  0  0  0  0  0
  161.6480  204.8900  147.5890 C   0  0  0  0  0  0  0  0  0  0  0  0
  161.0880  206.0580  149.6330 C   0  0  0  0  0  0  0  0  0  0  0  0
  161.2060  211.3000  150.5740 C   0  0  0  0  0  0  0  0  0  0  0  0
  161.8160  208.3590  149.9730 C   0  0  0  0  0  0  0  0  0  0  0  0
  161.9190  211.4830  148.2610 C   0  0  0  0  0  3  0  0  0  0  0  0
  160.4680  206.0910  150.8750 C   0  0  0  0  0  3  0  0  0  0  0  0
  160.6870  213.2930  149.2800 C   0  0  0  0  0  3  0  0  0  0  0  0
  160.6400  212.5770  150.4780 C   0  0  0  0  0  3  0  0  0  0  0  0
  161.8550  210.7490  149.4510 C   0  0  0  0  0  0  0  0  0  0  0  0
  161.5740  208.5860  156.4240 C   0  0  0  0  0  3  0  0  0  0  0  0
  161.4360  209.1510  153.6730 C   0  0  0  0  0  0  0  0  0  0  0  0
  161.8840  210.1250  154.5830 C   0  0  0  0  0  3  0  0  0  0  0  0
  161.9560  209.8420  155.9500 C   0  0  0  0  0  3  0  0  0  0  0  0
  161.1190  207.6120  155.5330 C   0  0  0  0  0  3  0  0  0  0  0  0
  161.0460  207.8950  154.1660 C   0  0  0  0  0  3  0  0  0  0  0  0
  1 12  2  0  0  0  0
  2  6  1  0  0  0  0
  2 12  1  0  0  0  0
  3 16  1  0  0  0  0
  4 14  1  0  0  0  0
  5 13  1  0  0  0  0
  7 13  1  0  0  0  0
  7  9  2  0  0  0  0
  8 10  1  0  0  0  0
  9 11  1  0  0  0  0
 10 17  2  0  0  0  0
 10 19  1  0  0  0  0
 11 14  2  0  0  0  0
 11 16  1  0  0  0  0
 12 23  1  0  0  0  0
 13  4  2  0  0  0  0
 14 18  1  0  0  0  0
 15  1  1  0  0  0  0
 16  2  2  0  0  0  0
 17 21  1  0  0  0  0
 18  6  2  0  0  0  0
 19 20  2  0  0  0  0
 20 15  1  0  0  0  0
 21  3  1  0  0  0  0
 21 15  2  0  0  0  0
 23 27  2  0  0  0  0
 23 24  1  0  0  0  0
 24 25  2  0  0  0  0
 25 22  1  0  0  0  0
 26 22  2  0  0  0  0
 27 26  1  0  0  0  0
M  END
>  <MODEL>
3

>  <REMARK>
 VINA RESULT:      -6.9      2.028      5.483
  Name = 
  1 active torsions:
  status: ('A' for Active; 'I' for Inactive)
    1  A    between atoms: C_9  and  C_15
                            x       y       z     vdW  Elec       q    Type
                         _______ _______ _______ _____ _____    ______ ____

>  <TORSDO>
F 1

$$$$
=
 OpenBabel11052423193D

 27 31  0  0  0  0  0  0  0  0999 V2000
  161.6640  208.9750  148.7530 N   0  0  0  0  0  0  0  0  0  0  0  0
  161.2070  209.8920  150.9810 C   0  0  0  0  0  0  0  0  0  0  0  0
  162.1650  207.6560  151.3310 O   0  0  0  0  0  0  0  0  0  0  0  0
  160.1390  210.0350  155.0300 C   0  0  0  0  0  3  0  0  0  0  0  0
  160.1120  209.0450  157.2610 N   0  0  0  0  0  1  0  0  0  0  0  0
  160.5290  210.9510  151.5120 N   0  0  0  0  0  0  0  0  0  0  0  0
  161.1620  207.8710  155.3950 C   0  0  0  0  0  3  0  0  0  0  0  0
  161.0390  203.4260  149.3580 O   0  0  0  0  0  1  0  0  0  0  0  0
  161.5190  207.8070  154.0450 C   0  0  0  0  0  3  0  0  0  0  0  0
  161.1580  204.8040  149.2370 C   0  0  0  0  0  0  0  0  0  0  0  0
  161.1930  208.8580  153.1750 C   0  0  0  0  0  0  0  0  0  0  0  0
  161.6600  209.9910  149.5680 C   0  0  0  0  0  0  0  0  0  0  0  0
  160.4740  208.9830  155.8870 C   0  0  0  0  0  0  0  0  0  0  0  0
  160.4960  209.9750  153.6800 C   0  0  0  0  0  0  0  0  0  0  0  0
  161.3910  207.5930  149.0000 C   0  0  0  0  0  0  0  0  0  0  0  0
  161.5290  208.7990  151.8120 C   0  0  0  0  0  0  0  0  0  0  0  0
  161.6090  205.5650  150.3180 C   0  0  0  0  0  3  0  0  0  0  0  0
  160.1630  211.0130  152.8170 C   0  0  0  0  0  3  0  0  0  0  0  0
  160.8310  205.4310  148.0350 C   0  0  0  0  0  3  0  0  0  0  0  0
  160.9630  206.8160  147.9170 C   0  0  0  0  0  3  0  0  0  0  0  0
  161.7200  206.9560  150.2140 C   0  0  0  0  0  0  0  0  0  0  0  0
  162.7120  213.8130  147.9050 C   0  0  0  0  0  3  0  0  0  0  0  0
  162.0390  211.3140  149.0070 C   0  0  0  0  0  0  0  0  0  0  0  0
  163.2200  211.4740  148.2610 C   0  0  0  0  0  3  0  0  0  0  0  0
  163.5560  212.7160  147.7160 C   0  0  0  0  0  3  0  0  0  0  0  0
  161.5310  213.6670  148.6360 C   0  0  0  0  0  3  0  0  0  0  0  0
  161.1950  212.4230  149.1800 C   0  0  0  0  0  3  0  0  0  0  0  0
  1 15  1  0  0  0  0
  1 12  2  0  0  0  0
  2  6  2  0  0  0  0
  2 16  1  0  0  0  0
  3 16  1  0  0  0  0
  4 13  2  0  0  0  0
  6 18  1  0  0  0  0
  7 13  1  0  0  0  0
  9  7  2  0  0  0  0
 10  8  1  0  0  0  0
 10 17  1  0  0  0  0
 11 14  1  0  0  0  0
 11  9  1  0  0  0  0
 12  2  1  0  0  0  0
 13  5  1  0  0  0  0
 14  4  1  0  0  0  0
 15 21  1  0  0  0  0
 16 11  2  0  0  0  0
 18 14  2  0  0  0  0
 19 10  2  0  0  0  0
 20 19  1  0  0  0  0
 20 15  2  0  0  0  0
 21 17  2  0  0  0  0
 21  3  1  0  0  0  0
 22 26  1  0  0  0  0
 23 27  1  0  0  0  0
 23 12  1  0  0  0  0
 24 23  2  0  0  0  0
 25 22  2  0  0  0  0
 25 24  1  0  0  0  0
 26 27  2  0  0  0  0
M  END
>  <MODEL>
4

>  <REMARK>
 VINA RESULT:      -6.8      2.029      5.448
  Name = 
  1 active torsions:
  status: ('A' for Active; 'I' for Inactive)
    1  A    between atoms: C_9  and  C_15
                            x       y       z     vdW  Elec       q    Type
                         _______ _______ _______ _____ _____    ______ ____

>  <TORSDO>
F 1

$$$$
=
 OpenBabel11052423193D

 27 31  0  0  0  0  0  0  0  0999 V2000
  161.7540  209.1420  149.0150 N   0  0  0  0  0  0  0  0  0  0  0  0
  161.2020  210.7090  150.8200 C   0  0  0  0  0  0  0  0  0  0  0  0
  162.3270  208.7970  151.8770 O   0  0  0  0  0  0  0  0  0  0  0  0
  160.0810  212.1060  154.6070 C   0  0  0  0  0  3  0  0  0  0  0  0
  160.1070  211.9130  157.0410 N   0  0  0  0  0  1  0  0  0  0  0  0
  160.4380  211.8280  150.9800 N   0  0  0  0  0  0  0  0  0  0  0  0
  161.2660  210.2700  155.6540 C   0  0  0  0  0  3  0  0  0  0  0  0
  161.5550  204.0790  151.4370 O   0  0  0  0  0  1  0  0  0  0  0  0
  161.6420  209.7900  154.3970 C   0  0  0  0  0  3  0  0  0  0  0  0
  161.5680  205.3430  150.8640 C   0  0  0  0  0  0  0  0  0  0  0  0
  161.2440  210.4650  153.2330 C   0  0  0  0  0  0  0  0  0  0  0  0
  161.6620  210.3670  149.4470 C   0  0  0  0  0  0  0  0  0  0  0  0
  160.4870  211.4270  155.7600 C   0  0  0  0  0  0  0  0  0  0  0  0
  160.4570  211.6290  153.3490 C   0  0  0  0  0  0  0  0  0  0  0  0
  161.5870  207.9040  149.7120 C   0  0  0  0  0  0  0  0  0  0  0  0
  161.5990  209.9820  151.9610 C   0  0  0  0  0  0  0  0  0  0  0  0
  161.9470  206.4520  151.6240 C   0  0  0  0  0  3  0  0  0  0  0  0
  160.0540  212.2920  152.1960 C   0  0  0  0  0  3  0  0  0  0  0  0
  161.2070  205.5090  149.5270 C   0  0  0  0  0  3  0  0  0  0  0  0
  161.2320  206.7810  148.9530 C   0  0  0  0  0  3  0  0  0  0  0  0
  161.9500  207.7340  151.0630 C   0  0  0  0  0  0  0  0  0  0  0  0
  162.4770  213.4700  146.5860 C   0  0  0  0  0  3  0  0  0  0  0  0
  161.9430  211.4550  148.4730 C   0  0  0  0  0  0  0  0  0  0  0  0
  163.1920  212.0980  148.4460 C   0  0  0  0  0  3  0  0  0  0  0  0
  163.4560  213.1030  147.5110 C   0  0  0  0  0  3  0  0  0  0  0  0
  161.2340  212.8330  146.5940 C   0  0  0  0  0  3  0  0  0  0  0  0
  160.9710  211.8280  147.5300 C   0  0  0  0  0  3  0  0  0  0  0  0
  1 12  2  0  0  0  0
  1 15  1  0  0  0  0
  2  6  2  0  0  0  0
  2 16  1  0  0  0  0
  3 16  1  0  0  0  0
  4 13  2  0  0  0  0
  6 18  1  0  0  0  0
  7 13  1  0  0  0  0
  9  7  2  0  0  0  0
 10  8  1  0  0  0  0
 10 17  1  0  0  0  0
 11 14  1  0  0  0  0
 11  9  1  0  0  0  0
 12  2  1  0  0  0  0
 13  5  1  0  0  0  0
 14  4  1  0  0  0  0
 15 21  1  0  0  0  0
 16 11  2  0  0  0  0
 18 14  2  0  0  0  0
 19 10  2  0  0  0  0
 20 19  1  0  0  0  0
 20 15  2  0  0  0  0
 21 17  2  0  0  0  0
 21  3  1  0  0  0  0
 22 26  2  0  0  0  0
 22 25  1  0  0  0  0
 23 12  1  0  0  0  0
 24 23  1  0  0  0  0
 25 24  2  0  0  0  0
 26 27  1  0  0  0  0
 27 23  2  0  0  0  0
M  END
>  <MODEL>
5

>  <REMARK>
 VINA RESULT:      -6.6      2.063      5.711
  Name = 
  1 active torsions:
  status: ('A' for Active; 'I' for Inactive)
    1  A    between atoms: C_9  and  C_15
                            x       y       z     vdW  Elec       q    Type
                         _______ _______ _______ _____ _____    ______ ____

>  <TORSDO>
F 1

$$$$
=
 OpenBabel11052423193D

 27 31  0  0  0  0  0  0  0  0999 V2000
  161.6500  209.4380  150.3320 N   0  0  0  0  0  0  0  0  0  0  0  0
  161.1040  209.9280  152.6730 C   0  0  0  0  0  0  0  0  0  0  0  0
  159.9750  211.6410  151.3200 O   0  0  0  0  0  0  0  0  0  0  0  0
  160.2430  212.1320  156.1300 C   0  0  0  0  0  3  0  0  0  0  0  0
  159.2110  214.0530  157.2280 N   0  0  0  0  0  1  0  0  0  0  0  0
  161.5250  209.5280  153.9080 N   0  0  0  0  0  0  0  0  0  0  0  0
  159.0520  213.7750  154.8070 C   0  0  0  0  0  3  0  0  0  0  0  0
  161.6420  214.4530  147.8050 O   0  0  0  0  0  1  0  0  0  0  0  0
  159.3370  213.0530  153.6450 C   0  0  0  0  0  3  0  0  0  0  0  0
  161.6630  213.2330  148.4670 C   0  0  0  0  0  0  0  0  0  0  0  0
  160.0750  211.8610  153.7140 C   0  0  0  0  0  0  0  0  0  0  0  0
  161.3410  209.0130  151.5240 C   0  0  0  0  0  0  0  0  0  0  0  0
  159.5030  213.3150  156.0480 C   0  0  0  0  0  0  0  0  0  0  0  0
  160.5280  211.4070  154.9700 C   0  0  0  0  0  0  0  0  0  0  0  0
  161.7090  210.7700  149.8140 C   0  0  0  0  0  0  0  0  0  0  0  0
  160.3850  211.1350  152.5520 C   0  0  0  0  0  0  0  0  0  0  0  0
  160.8150  213.0120  149.5530 C   0  0  0  0  0  3  0  0  0  0  0  0
  161.2670  210.2330  155.0390 C   0  0  0  0  0  3  0  0  0  0  0  0
  162.5290  212.2240  148.0450 C   0  0  0  0  0  3  0  0  0  0  0  0
  162.5380  210.9950  148.7080 C   0  0  0  0  0  3  0  0  0  0  0  0
  160.8370  211.7920  150.2390 C   0  0  0  0  0  0  0  0  0  0  0  0
  161.2390  204.7570  152.1230 C   0  0  0  0  0  3  0  0  0  0  0  0
  161.3250  207.5420  151.7390 C   0  0  0  0  0  0  0  0  0  0  0  0
  161.2430  207.0000  153.0330 C   0  0  0  0  0  3  0  0  0  0  0  0
  161.2040  205.6160  153.2240 C   0  0  0  0  0  3  0  0  0  0  0  0
  161.3110  205.2820  150.8300 C   0  0  0  0  0  3  0  0  0  0  0  0
  161.3500  206.6670  150.6400 C   0  0  0  0  0  3  0  0  0  0  0  0
  1 12  2  0  0  0  0
  2  6  1  0  0  0  0
  3 16  1  0  0  0  0
  6 18  2  0  0  0  0
  7 13  2  0  0  0  0
  8 10  1  0  0  0  0
  9 11  2  0  0  0  0
  9  7  1  0  0  0  0
 10 17  1  0  0  0  0
 11 14  1  0  0  0  0
 12 23  1  0  0  0  0
 12  2  1  0  0  0  0
 13  4  1  0  0  0  0
 13  5  1  0  0  0  0
 14 18  1  0  0  0  0
 14  4  2  0  0  0  0
 15 21  1  0  0  0  0
 15  1  1  0  0  0  0
 16  2  2  0  0  0  0
 16 11  1  0  0  0  0
 17 21  2  0  0  0  0
 19 10  2  0  0  0  0
 19 20  1  0  0  0  0
 20 15  2  0  0  0  0
 21  3  1  0  0  0  0
 22 25  1  0  0  0  0
 23 24  1  0  0  0  0
 24 25  2  0  0  0  0
 26 22  2  0  0  0  0
 27 26  1  0  0  0  0
 27 23  2  0  0  0  0
M  END
>  <MODEL>
6

>  <REMARK>
 VINA RESULT:      -6.0      3.112      7.775
  Name = 
  1 active torsions:
  status: ('A' for Active; 'I' for Inactive)
    1  A    between atoms: C_9  and  C_15
                            x       y       z     vdW  Elec       q    Type
                         _______ _______ _______ _____ _____    ______ ____

>  <TORSDO>
F 1

$$$$
=
 OpenBabel11052423193D

 27 31  0  0  0  0  0  0  0  0999 V2000
  161.8640  208.8460  148.7170 N   0  0  0  0  0  0  0  0  0  0  0  0
  161.5690  208.1060  151.0360 C   0  0  0  0  0  0  0  0  0  0  0  0
  160.4330  210.2770  150.8480 O   0  0  0  0  0  0  0  0  0  0  0  0
  161.1740  208.2950  155.2030 C   0  0  0  0  0  3  0  0  0  0  0  0
  160.3750  209.4200  157.2170 N   0  0  0  0  0  1  0  0  0  0  0  0
  162.0740  207.1380  151.8550 N   0  0  0  0  0  0  0  0  0  0  0  0
  159.9760  210.3910  155.0120 C   0  0  0  0  0  3  0  0  0  0  0  0
  161.9490  214.4530  149.0280 O   0  0  0  0  0  1  0  0  0  0  0  0
  160.1050  210.3440  153.6220 C   0  0  0  0  0  3  0  0  0  0  0  0
  161.9520  213.0650  148.9910 C   0  0  0  0  0  0  0  0  0  0  0  0
  160.7670  209.2700  153.0080 C   0  0  0  0  0  0  0  0  0  0  0  0
  161.6390  207.8860  149.5670 C   0  0  0  0  0  0  0  0  0  0  0  0
  160.5080  209.3680  155.8020 C   0  0  0  0  0  0  0  0  0  0  0  0
  161.3040  208.2440  153.8130 C   0  0  0  0  0  0  0  0  0  0  0  0
  161.9610  210.2580  148.9250 C   0  0  0  0  0  0  0  0  0  0  0  0
  160.9210  209.2190  151.6120 C   0  0  0  0  0  0  0  0  0  0  0  0
  161.1950  212.3400  149.9120 C   0  0  0  0  0  3  0  0  0  0  0  0
  161.9680  207.1850  153.2070 C   0  0  0  0  0  3  0  0  0  0  0  0
  162.7070  212.3930  148.0300 C   0  0  0  0  0  3  0  0  0  0  0  0
  162.6970  210.9970  147.9910 C   0  0  0  0  0  3  0  0  0  0  0  0
  161.2000  210.9400  149.8950 C   0  0  0  0  0  0  0  0  0  0  0  0
  161.3320  203.9110  147.9580 C   0  0  0  0  0  3  0  0  0  0  0  0
  161.5470  206.5050  149.0240 C   0  0  0  0  0  0  0  0  0  0  0  0
  160.9380  205.4750  149.7630 C   0  0  0  0  0  3  0  0  0  0  0  0
  160.8350  204.1850  149.2340 C   0  0  0  0  0  3  0  0  0  0  0  0
  161.9310  204.9260  147.2100 C   0  0  0  0  0  3  0  0  0  0  0  0
  162.0340  206.2160  147.7390 C   0  0  0  0  0  3  0  0  0  0  0  0
  1 15  1  0  0  0  0
  1 12  2  0  0  0  0
  2 16  2  0  0  0  0
  2  6  1  0  0  0  0
  3 16  1  0  0  0  0
  4 13  1  0  0  0  0
  6 18  2  0  0  0  0
  7 13  2  0  0  0  0
  9  7  1  0  0  0  0
 10  8  1  0  0  0  0
 10 17  1  0  0  0  0
 11  9  2  0  0  0  0
 11 14  1  0  0  0  0
 12  2  1  0  0  0  0
 13  5  1  0  0  0  0
 14  4  2  0  0  0  0
 15 21  1  0  0  0  0
 16 11  1  0  0  0  0
 18 14  1  0  0  0  0
 19 10  2  0  0  0  0
 20 19  1  0  0  0  0
 20 15  2  0  0  0  0
 21 17  2  0  0  0  0
 21  3  1  0  0  0  0
 22 25  1  0  0  0  0
 23 12  1  0  0  0  0
 23 24  1  0  0  0  0
 25 24  2  0  0  0  0
 26 27  1  0  0  0  0
 26 22  2  0  0  0  0
 27 23  2  0  0  0  0
M  END
>  <MODEL>
7

>  <REMARK>
 VINA RESULT:      -5.3      2.301      6.413
  Name = 
  1 active torsions:
  status: ('A' for Active; 'I' for Inactive)
    1  A    between atoms: C_9  and  C_15
                            x       y       z     vdW  Elec       q    Type
                         _______ _______ _______ _____ _____    ______ ____

>  <TORSDO>
F 1

$$$$
=
 OpenBabel11052423193D

 27 31  0  0  0  0  0  0  0  0999 V2000
  160.8300  205.4860  153.1330 N   0  0  0  0  0  0  0  0  0  0  0  0
  161.1790  206.6440  151.0000 C   0  0  0  0  0  0  0  0  0  0  0  0
  162.2960  207.9990  152.7200 O   0  0  0  0  0  0  0  0  0  0  0  0
  161.6600  209.7780  148.2610 C   0  0  0  0  0  3  0  0  0  0  0  0
  162.4940  212.0020  147.6950 N   0  0  0  0  0  1  0  0  0  0  0  0
  160.6970  206.5700  149.7260 N   0  0  0  0  0  0  0  0  0  0  0  0
  162.8400  211.0790  149.9290 C   0  0  0  0  0  3  0  0  0  0  0  0
  160.7130  209.5930  156.9630 O   0  0  0  0  0  1  0  0  0  0  0  0
  162.6810  210.0440  150.8550 C   0  0  0  0  0  3  0  0  0  0  0  0
  160.7190  208.6050  155.9870 C   0  0  0  0  0  0  0  0  0  0  0  0
  162.0140  208.8650  150.4920 C   0  0  0  0  0  0  0  0  0  0  0  0
  161.0790  205.4320  151.8560 C   0  0  0  0  0  0  0  0  0  0  0  0
  162.3310  210.9460  148.6340 C   0  0  0  0  0  0  0  0  0  0  0  0
  161.5010  208.7410  149.1840 C   0  0  0  0  0  0  0  0  0  0  0  0
  160.7270  206.6150  154.0060 C   0  0  0  0  0  0  0  0  0  0  0  0
  161.8310  207.8240  151.4180 C   0  0  0  0  0  0  0  0  0  0  0  0
  161.5000  208.7600  154.8400 C   0  0  0  0  0  3  0  0  0  0  0  0
  160.8310  207.5770  148.8260 C   0  0  0  0  0  3  0  0  0  0  0  0
  159.9480  207.4550  156.1520 C   0  0  0  0  0  3  0  0  0  0  0  0
  159.9670  206.4600  155.1720 C   0  0  0  0  0  3  0  0  0  0  0  0
  161.5040  207.7790  153.8420 C   0  0  0  0  0  0  0  0  0  0  0  0
  161.2770  201.5310  150.0620 C   0  0  0  0  0  3  0  0  0  0  0  0
  161.1690  204.0840  151.2370 C   0  0  0  0  0  0  0  0  0  0  0  0
  161.5490  202.9630  151.9940 C   0  0  0  0  0  3  0  0  0  0  0  0
  161.6070  201.6940  151.4100 C   0  0  0  0  0  3  0  0  0  0  0  0
  160.8890  202.6350  149.3000 C   0  0  0  0  0  3  0  0  0  0  0  0
  160.8310  203.9030  149.8860 C   0  0  0  0  0  3  0  0  0  0  0  0
  1 15  1  0  0  0  0
  2 16  1  0  0  0  0
  2 12  1  0  0  0  0
  3 21  1  0  0  0  0
  4 13  2  0  0  0  0
  4 14  1  0  0  0  0
  5 13  1  0  0  0  0
  6  2  2  0  0  0  0
  7  9  2  0  0  0  0
 10 19  1  0  0  0  0
 10  8  1  0  0  0  0
 11  9  1  0  0  0  0
 11 16  2  0  0  0  0
 12  1  2  0  0  0  0
 13  7  1  0  0  0  0
 14 11  1  0  0  0  0
 15 20  1  0  0  0  0
 16  3  1  0  0  0  0
 17 10  2  0  0  0  0
 18 14  2  0  0  0  0
 18  6  1  0  0  0  0
 20 19  2  0  0  0  0
 21 15  2  0  0  0  0
 21 17  1  0  0  0  0
 22 25  1  0  0  0  0
 23 12  1  0  0  0  0
 23 24  1  0  0  0  0
 25 24  2  0  0  0  0
 26 27  1  0  0  0  0
 26 22  2  0  0  0  0
 27 23  2  0  0  0  0
M  END
>  <MODEL>
8

>  <REMARK>
 VINA RESULT:      -5.2      2.133      6.171
  Name = 
  1 active torsions:
  status: ('A' for Active; 'I' for Inactive)
    1  A    between atoms: C_9  and  C_15
                            x       y       z     vdW  Elec       q    Type
                         _______ _______ _______ _____ _____    ______ ____

>  <TORSDO>
F 1

$$$$
=
 OpenBabel11052423193D

 27 31  0  0  0  0  0  0  0  0999 V2000
  158.6470  211.2120  154.8800 N   0  0  0  0  0  0  0  0  0  0  0  0
  160.2590  210.9650  153.0490 C   0  0  0  0  0  0  0  0  0  0  0  0
  159.2090  213.1680  152.7610 O   0  0  0  0  0  0  0  0  0  0  0  0
  161.9590  211.3100  149.2350 C   0  0  0  0  0  3  0  0  0  0  0  0
  162.3540  212.5780  147.1870 N   0  0  0  0  0  1  0  0  0  0  0  0
  161.0120  209.9680  152.5010 N   0  0  0  0  0  0  0  0  0  0  0  0
  160.9990  213.5190  148.9870 C   0  0  0  0  0  3  0  0  0  0  0  0
  154.5840  214.4530  152.7530 O   0  0  0  0  0  1  0  0  0  0  0  0
  160.4200  213.4150  150.2550 C   0  0  0  0  0  3  0  0  0  0  0  0
  155.5920  213.6310  153.2380 C   0  0  0  0  0  0  0  0  0  0  0  0
  160.6090  212.2590  151.0270 C   0  0  0  0  0  0  0  0  0  0  0  0
  159.8110  210.8080  154.4580 C   0  0  0  0  0  0  0  0  0  0  0  0
  161.7670  212.4690  148.4780 C   0  0  0  0  0  0  0  0  0  0  0  0
  161.3840  211.2030  150.5040 C   0  0  0  0  0  0  0  0  0  0  0  0
  157.6320  211.9640  154.2090 C   0  0  0  0  0  0  0  0  0  0  0  0
  160.0180  212.1330  152.2960 C   0  0  0  0  0  0  0  0  0  0  0  0
  156.9030  213.7930  152.7880 C   0  0  0  0  0  3  0  0  0  0  0  0
  161.5630  210.0540  151.2630 C   0  0  0  0  0  3  0  0  0  0  0  0
  155.2970  212.6440  154.1780 C   0  0  0  0  0  3  0  0  0  0  0  0
  156.3170  211.8270  154.6700 C   0  0  0  0  0  3  0  0  0  0  0  0
  157.9270  212.9610  153.2580 C   0  0  0  0  0  0  0  0  0  0  0  0
  162.3330  208.6820  157.2150 C   0  0  0  0  0  3  0  0  0  0  0  0
  160.6690  210.0760  155.4270 C   0  0  0  0  0  0  0  0  0  0  0  0
  160.3170  208.7930  155.8810 C   0  0  0  0  0  3  0  0  0  0  0  0
  161.1420  208.1020  156.7730 C   0  0  0  0  0  3  0  0  0  0  0  0
  162.7000  209.9520  156.7640 C   0  0  0  0  0  3  0  0  0  0  0  0
  161.8740  210.6430  155.8720 C   0  0  0  0  0  3  0  0  0  0  0  0
  2 12  1  0  0  0  0
  3 21  1  0  0  0  0
  4 14  1  0  0  0  0
  5 13  1  0  0  0  0
  6  2  1  0  0  0  0
  7  9  2  0  0  0  0
  8 10  1  0  0  0  0
  9 11  1  0  0  0  0
 10 19  1  0  0  0  0
 11 16  1  0  0  0  0
 12  1  2  0  0  0  0
 12 23  1  0  0  0  0
 13  7  1  0  0  0  0
 13  4  2  0  0  0  0
 14 11  2  0  0  0  0
 14 18  1  0  0  0  0
 15 20  1  0  0  0  0
 15  1  1  0  0  0  0
 16  3  1  0  0  0  0
 16  2  2  0  0  0  0
 17 10  2  0  0  0  0
 17 21  1  0  0  0  0
 18  6  2  0  0  0  0
 19 20  2  0  0  0  0
 21 15  2  0  0  0  0
 23 27  2  0  0  0  0
 23 24  1  0  0  0  0
 24 25  2  0  0  0  0
 25 22  1  0  0  0  0
 26 22  2  0  0  0  0
 27 26  1  0  0  0  0
M  END
>  <MODEL>
9

>  <REMARK>
 VINA RESULT:      -5.1      4.146      7.460
  Name = 
  1 active torsions:
  status: ('A' for Active; 'I' for Inactive)
    1  A    between atoms: C_9  and  C_15
                            x       y       z     vdW  Elec       q    Type
                         _______ _______ _______ _____ _____    ______ ____

>  <TORSDO>
F 1

$$$$
