=
 OpenBabel11052423123D

 27 31  0  0  1  0  0  0  0  0999 V2000
  161.2080  208.6780  153.9490 N   0  0  0  0  0  0  0  0  0  0  0  0
  161.3950  209.3170  151.5740 C   0  0  0  0  0  0  0  0  0  0  0  0
  160.1300  211.2780  152.5960 N   0  0  0  0  0  2  0  0  0  0  0  0
  162.0200  211.9380  147.9250 S   0  0  0  0  0  0  0  0  0  0  0  0
  161.9390  214.4530  149.0190 C   0  0  0  0  0  1  0  0  0  0  0  0
  162.1300  208.8860  150.5050 N   0  0  0  0  0  0  0  0  0  0  0  0
  160.6000  212.7100  150.0800 N   0  0  0  0  0  0  0  0  0  0  0  0
  159.6020  213.4220  150.8640 C   0  0  0  0  0  1  0  0  0  0  0  0
  161.0540  211.3820  150.3440 C   0  0  0  0  0  0  0  0  0  0  0  0
  161.2330  208.3310  152.6960 C   0  0  0  0  0  0  0  0  0  0  0  0
  161.0550  213.2400  148.7970 C   0  0  2  0  0  3  0  0  0  0  0  0
  161.7990  210.8630  149.3240 C   0  0  0  0  0  0  0  0  0  0  0  0
  161.1700  210.0380  154.4300 C   0  0  0  0  0  0  0  0  0  0  0  0
  160.8430  210.6390  151.5220 C   0  0  0  0  0  0  0  0  0  0  0  0
  162.3340  209.6280  149.4170 N   0  0  0  0  0  0  0  0  0  0  0  0
  162.5150  210.6970  154.6330 C   0  0  0  0  0  2  0  0  0  0  0  0
  161.7030  210.2050  155.8350 C   0  0  0  0  0  2  0  0  0  0  0  0
  159.9660  210.8450  153.9730 C   0  0  1  0  0  3  0  0  0  0  0  0
  161.0660  204.1690  151.8950 N   0  0  0  0  0  0  0  0  0  0  0  0
  161.1950  206.8740  152.3970 C   0  0  0  0  0  0  0  0  0  0  0  0
  161.0380  206.4030  151.0880 C   0  0  0  0  0  3  0  0  0  0  0  0
  160.9780  205.0330  150.8510 C   0  0  0  0  0  3  0  0  0  0  0  0
  161.2050  204.6060  153.1470 N   0  0  0  0  0  0  0  0  0  0  0  0
  161.2690  205.9340  153.4320 C   0  0  0  0  0  3  0  0  0  0  0  0
  159.5580  212.0170  154.8720 C   0  0  0  0  0  2  0  0  0  0  0  0
  158.1280  212.4700  154.6240 C   0  0  0  0  0  2  0  0  0  0  0  0
  157.2440  211.3180  154.6500 N   0  0  0  0  0  1  0  0  0  0  0  0
  1 13  1  0  0  0  0
  2 10  1  0  0  0  0
  3 18  1  0  0  0  0
  4 11  1  0  0  0  0
  4 12  1  0  0  0  0
  6  2  2  0  0  0  0
  7  9  1  0  0  0  0
  7  8  1  0  0  0  0
  9 14  2  0  0  0  0
 10  1  2  0  0  0  0
 11  5  1  1  0  0  0
 11  7  1  0  0  0  0
 12 15  2  0  0  0  0
 12  9  1  0  0  0  0
 13 16  1  0  0  0  0
 13 17  1  0  0  0  0
 14  2  1  0  0  0  0
 14  3  1  0  0  0  0
 15  6  1  0  0  0  0
 16 17  1  0  0  0  0
 18 13  1  0  0  0  0
 18 25  1  1  0  0  0
 19 23  1  0  0  0  0
 20 10  1  0  0  0  0
 20 24  1  0  0  0  0
 21 20  2  0  0  0  0
 22 21  1  0  0  0  0
 22 19  2  0  0  0  0
 23 24  2  0  0  0  0
 26 27  1  0  0  0  0
 26 25  1  0  0  0  0
M  END
>  <MODEL>
1

>  <REMARK>
 VINA RESULT:      -5.5      0.000      0.000
  Name = 
  3 active torsions:
  status: ('A' for Active; 'I' for Inactive)
    1  A    between atoms: C_9  and  C_15
    2  A    between atoms: C_10  and  C_20
    3  A    between atoms: C_20  and  C_26
                            x       y       z     vdW  Elec       q    Type
                         _______ _______ _______ _____ _____    ______ ____

>  <TORSDO>
F 3

$$$$
=
 OpenBabel11052423123D

 27 31  0  0  1  0  0  0  0  0999 V2000
  161.2070  206.9170  152.3810 N   0  0  0  0  0  0  0  0  0  0  0  0
  160.7830  209.3470  152.3350 C   0  0  0  0  0  0  0  0  0  0  0  0
  162.2260  208.9810  150.2690 N   0  0  0  0  0  2  0  0  0  0  0  0
  159.8580  213.4600  150.6590 S   0  0  0  0  0  0  0  0  0  0  0  0
  160.1540  213.0460  147.9630 C   0  0  0  0  0  1  0  0  0  0  0  0
  159.9180  210.1960  152.9690 N   0  0  0  0  0  0  0  0  0  0  0  0
  161.5350  211.7170  149.4740 N   0  0  0  0  0  0  0  0  0  0  0  0
  162.6400  211.2390  148.6570 C   0  0  0  0  0  1  0  0  0  0  0  0
  161.0640  211.0840  150.6630 C   0  0  0  0  0  0  0  0  0  0  0  0
  161.0300  208.0340  153.0240 C   0  0  0  0  0  0  0  0  0  0  0  0
  160.9610  213.0410  149.2480 C   0  0  2  0  0  3  0  0  0  0  0  0
  160.1910  211.8630  151.3690 C   0  0  0  0  0  0  0  0  0  0  0  0
  161.3490  206.8010  150.9490 C   0  0  0  0  0  0  0  0  0  0  0  0
  161.3750  209.7840  151.1050 C   0  0  0  0  0  0  0  0  0  0  0  0
  159.6230  211.4110  152.5060 N   0  0  0  0  0  0  0  0  0  0  0  0
  160.0610  206.6400  150.1760 C   0  0  0  0  0  2  0  0  0  0  0  0
  160.9820  205.4380  150.4070 C   0  0  0  0  0  2  0  0  0  0  0  0
  162.5250  207.5620  150.3590 C   0  0  1  0  0  3  0  0  0  0  0  0
  160.8610  207.8930  157.2600 N   0  0  0  0  0  0  0  0  0  0  0  0
  160.9800  207.9590  154.5080 C   0  0  0  0  0  0  0  0  0  0  0  0
  160.2540  206.9560  155.1620 C   0  0  0  0  0  3  0  0  0  0  0  0
  160.2070  206.9350  156.5540 C   0  0  0  0  0  3  0  0  0  0  0  0
  161.5470  208.8590  156.6470 N   0  0  0  0  0  0  0  0  0  0  0  0
  161.6240  208.9240  155.2910 C   0  0  0  0  0  3  0  0  0  0  0  0
  163.0750  207.0300  149.0310 C   0  0  0  0  0  2  0  0  0  0  0  0
  162.2920  207.5400  147.8310 C   0  0  0  0  0  2  0  0  0  0  0  0
  161.9070  206.4180  146.9940 N   0  0  0  0  0  1  0  0  0  0  0  0
  1 10  2  0  0  0  0
  2  6  1  0  0  0  0
  2 10  1  0  0  0  0
  3 18  1  0  0  0  0
  3 14  1  0  0  0  0
  4 12  1  0  0  0  0
  7  9  1  0  0  0  0
  8  7  1  0  0  0  0
  9 14  1  0  0  0  0
  9 12  2  0  0  0  0
 10 20  1  0  0  0  0
 11  5  1  6  0  0  0
 11  7  1  0  0  0  0
 11  4  1  0  0  0  0
 12 15  1  0  0  0  0
 13  1  1  0  0  0  0
 14  2  2  0  0  0  0
 15  6  2  0  0  0  0
 16 17  1  0  0  0  0
 16 13  1  0  0  0  0
 17 13  1  0  0  0  0
 18 25  1  6  0  0  0
 18 13  1  0  0  0  0
 20 21  2  0  0  0  0
 20 24  1  0  0  0  0
 21 22  1  0  0  0  0
 22 19  2  0  0  0  0
 23 19  1  0  0  0  0
 24 23  2  0  0  0  0
 26 25  1  0  0  0  0
 27 26  1  0  0  0  0
M  END
>  <MODEL>
2

>  <REMARK>
 VINA RESULT:      -5.4      2.086      4.955
  Name = 
  3 active torsions:
  status: ('A' for Active; 'I' for Inactive)
    1  A    between atoms: C_9  and  C_15
    2  A    between atoms: C_10  and  C_20
    3  A    between atoms: C_20  and  C_26
                            x       y       z     vdW  Elec       q    Type
                         _______ _______ _______ _____ _____    ______ ____

>  <TORSDO>
F 3

$$$$
=
 OpenBabel11052423123D

 27 31  0  0  1  0  0  0  0  0999 V2000
  161.2170  211.5410  151.1320 N   0  0  0  0  0  0  0  0  0  0  0  0
  161.5440  209.3470  150.0540 C   0  0  0  0  0  0  0  0  0  0  0  0
  162.0180  208.8530  152.5070 N   0  0  0  0  0  2  0  0  0  0  0  0
  161.3680  204.8560  149.4370 S   0  0  0  0  0  0  0  0  0  0  0  0
  160.5890  203.9790  151.9180 C   0  0  0  0  0  1  0  0  0  0  0  0
  161.2410  208.8060  148.8350 N   0  0  0  0  0  0  0  0  0  0  0  0
  161.9410  206.0070  151.8040 N   0  0  0  0  0  0  0  0  0  0  0  0
  162.5070  206.1630  153.1360 C   0  0  0  0  0  1  0  0  0  0  0  0
  161.7400  207.0690  150.8720 C   0  0  0  0  0  0  0  0  0  0  0  0
  161.6100  210.8470  150.1050 C   0  0  0  0  0  0  0  0  0  0  0  0
  161.7460  204.6790  151.2290 C   0  0  2  0  0  3  0  0  0  0  0  0
  161.4330  206.6240  149.6180 C   0  0  0  0  0  0  0  0  0  0  0  0
  160.8210  210.9840  152.4030 C   0  0  0  0  0  0  0  0  0  0  0  0
  161.7830  208.4500  151.1470 C   0  0  0  0  0  0  0  0  0  0  0  0
  161.1800  207.4930  148.6170 N   0  0  0  0  0  0  0  0  0  0  0  0
  159.3600  210.6180  152.5290 C   0  0  0  0  0  2  0  0  0  0  0  0
  159.9040  211.8800  153.2040 C   0  0  0  0  0  2  0  0  0  0  0  0
  161.8940  210.1700  153.1080 C   0  0  1  0  0  3  0  0  0  0  0  0
  162.8990  212.9510  146.6540 N   0  0  0  0  0  0  0  0  0  0  0  0
  162.0500  211.6070  148.9050 C   0  0  0  0  0  0  0  0  0  0  0  0
  161.1310  212.2840  148.0940 C   0  0  0  0  0  3  0  0  0  0  0  0
  161.5760  212.9610  146.9620 C   0  0  0  0  0  3  0  0  0  0  0  0
  163.7820  212.3010  147.4130 N   0  0  0  0  0  0  0  0  0  0  0  0
  163.3980  211.6250  148.5280 C   0  0  0  0  0  3  0  0  0  0  0  0
  161.7730  210.0700  154.6330 C   0  0  0  0  0  2  0  0  0  0  0  0
  161.0810  208.7920  155.0790 C   0  0  0  0  0  2  0  0  0  0  0  0
  161.7410  208.2720  156.2620 N   0  0  0  0  0  1  0  0  0  0  0  0
  1 13  1  0  0  0  0
  2 10  1  0  0  0  0
  2 14  1  0  0  0  0
  3 18  1  0  0  0  0
  4 12  1  0  0  0  0
  4 11  1  0  0  0  0
  6  2  2  0  0  0  0
  7  8  1  0  0  0  0
  9 14  2  0  0  0  0
  9  7  1  0  0  0  0
 10  1  2  0  0  0  0
 11  7  1  0  0  0  0
 11  5  1  1  0  0  0
 12  9  1  0  0  0  0
 13 16  1  0  0  0  0
 13 18  1  0  0  0  0
 13 17  1  0  0  0  0
 14  3  1  0  0  0  0
 15  6  1  0  0  0  0
 15 12  2  0  0  0  0
 16 17  1  0  0  0  0
 18 25  1  1  0  0  0
 19 22  2  0  0  0  0
 19 23  1  0  0  0  0
 20 10  1  0  0  0  0
 21 20  2  0  0  0  0
 22 21  1  0  0  0  0
 23 24  2  0  0  0  0
 24 20  1  0  0  0  0
 25 26  1  0  0  0  0
 26 27  1  0  0  0  0
M  END
>  <MODEL>
3

>  <REMARK>
 VINA RESULT:      -5.1      2.318      6.051
  Name = 
  3 active torsions:
  status: ('A' for Active; 'I' for Inactive)
    1  A    between atoms: C_9  and  C_15
    2  A    between atoms: C_10  and  C_20
    3  A    between atoms: C_20  and  C_26
                            x       y       z     vdW  Elec       q    Type
                         _______ _______ _______ _____ _____    ______ ____

>  <TORSDO>
F 3

$$$$
=
 OpenBabel11052423123D

 27 31  0  0  1  0  0  0  0  0999 V2000
  161.5520  207.6890  150.3270 N   0  0  0  0  0  0  0  0  0  0  0  0
  161.2050  205.3560  151.0470 C   0  0  0  0  0  0  0  0  0  0  0  0
  160.5070  205.3070  148.5980 N   0  0  0  0  0  2  0  0  0  0  0  0
  161.2060  200.8230  150.8860 S   0  0  0  0  0  0  0  0  0  0  0  0
  161.7340  200.3560  148.2330 C   0  0  0  0  0  1  0  0  0  0  0  0
  161.5790  204.6050  152.1270 N   0  0  0  0  0  0  0  0  0  0  0  0
  160.4980  202.3820  148.8060 N   0  0  0  0  0  0  0  0  0  0  0  0
  159.8340  202.7830  147.5750 C   0  0  0  0  0  1  0  0  0  0  0  0
  160.8290  203.2610  149.8810 C   0  0  0  0  0  0  0  0  0  0  0  0
  161.2110  206.8450  151.2540 C   0  0  0  0  0  0  0  0  0  0  0  0
  160.6740  200.9680  149.1310 C   0  0  2  0  0  3  0  0  0  0  0  0
  161.2150  202.5970  151.0100 C   0  0  0  0  0  0  0  0  0  0  0  0
  161.8140  207.3450  148.9500 C   0  0  0  0  0  0  0  0  0  0  0  0
  160.8330  204.6690  149.8460 C   0  0  0  0  0  0  0  0  0  0  0  0
  161.5920  203.2720  152.1160 N   0  0  0  0  0  0  0  0  0  0  0  0
  163.2400  206.9530  148.6350 C   0  0  0  0  0  2  0  0  0  0  0  0
  162.7060  208.3310  148.2310 C   0  0  0  0  0  2  0  0  0  0  0  0
  160.6480  206.7010  148.2180 C   0  0  1  0  0  3  0  0  0  0  0  0
  160.4150  208.4020  155.1190 N   0  0  0  0  0  0  0  0  0  0  0  0
  160.9100  207.4030  152.5990 C   0  0  0  0  0  0  0  0  0  0  0  0
  160.7440  208.7790  152.7960 C   0  0  0  0  0  3  0  0  0  0  0  0
  160.4920  209.2680  154.0750 C   0  0  0  0  0  3  0  0  0  0  0  0
  160.5820  207.0910  154.9450 N   0  0  0  0  0  0  0  0  0  0  0  0
  160.8310  206.5640  153.7170 C   0  0  0  0  0  3  0  0  0  0  0  0
  160.6380  206.8590  146.6930 C   0  0  0  0  0  2  0  0  0  0  0  0
  161.0710  205.5920  145.9740 C   0  0  0  0  0  2  0  0  0  0  0  0
  162.3320  205.8280  145.2950 N   0  0  0  0  0  1  0  0  0  0  0  0
  1 10  2  0  0  0  0
  2 10  1  0  0  0  0
  2  6  1  0  0  0  0
  3 14  1  0  0  0  0
  4 12  1  0  0  0  0
  7 11  1  0  0  0  0
  7  9  1  0  0  0  0
  8  7  1  0  0  0  0
  9 12  2  0  0  0  0
 10 20  1  0  0  0  0
 11  5  1  6  0  0  0
 11  4  1  0  0  0  0
 12 15  1  0  0  0  0
 13  1  1  0  0  0  0
 14  9  1  0  0  0  0
 14  2  2  0  0  0  0
 15  6  2  0  0  0  0
 16 13  1  0  0  0  0
 17 16  1  0  0  0  0
 17 13  1  0  0  0  0
 18 25  1  6  0  0  0
 18  3  1  0  0  0  0
 18 13  1  0  0  0  0
 20 21  2  0  0  0  0
 20 24  1  0  0  0  0
 21 22  1  0  0  0  0
 22 19  2  0  0  0  0
 23 19  1  0  0  0  0
 24 23  2  0  0  0  0
 26 25  1  0  0  0  0
 27 26  1  0  0  0  0
M  END
>  <MODEL>
4

>  <REMARK>
 VINA RESULT:      -4.9      3.689      7.922
  Name = 
  3 active torsions:
  status: ('A' for Active; 'I' for Inactive)
    1  A    between atoms: C_9  and  C_15
    2  A    between atoms: C_10  and  C_20
    3  A    between atoms: C_20  and  C_26
                            x       y       z     vdW  Elec       q    Type
                         _______ _______ _______ _____ _____    ______ ____

>  <TORSDO>
F 3

$$$$
=
 OpenBabel11052423123D

 27 31  0  0  1  0  0  0  0  0999 V2000
  162.1380  209.2410  152.3400 N   0  0  0  0  0  0  0  0  0  0  0  0
  160.3950  210.8940  152.9000 C   0  0  0  0  0  0  0  0  0  0  0  0
  161.1760  211.6460  150.5950 N   0  0  0  0  0  2  0  0  0  0  0  0
  156.8630  213.6860  152.3450 S   0  0  0  0  0  0  0  0  0  0  0  0
  156.6180  213.7450  149.6120 C   0  0  0  0  0  1  0  0  0  0  0  0
  159.4040  210.9840  153.8380 N   0  0  0  0  0  0  0  0  0  0  0  0
  158.8510  213.4330  150.5460 N   0  0  0  0  0  0  0  0  0  0  0  0
  159.7660  213.7970  149.4730 C   0  0  0  0  0  1  0  0  0  0  0  0
  159.1670  212.5580  151.6280 C   0  0  0  0  0  0  0  0  0  0  0  0
  161.5260  209.9620  153.2320 C   0  0  0  0  0  0  0  0  0  0  0  0
  157.5840  214.1390  150.7140 C   0  0  2  0  0  3  0  0  0  0  0  0
  158.2290  212.5810  152.6210 C   0  0  0  0  0  0  0  0  0  0  0  0
  161.9370  209.3430  150.9140 C   0  0  0  0  0  0  0  0  0  0  0  0
  160.2760  211.6930  151.7160 C   0  0  0  0  0  0  0  0  0  0  0  0
  158.3520  211.7920  153.7080 N   0  0  0  0  0  0  0  0  0  0  0  0
  160.8310  208.4850  150.3470 C   0  0  0  0  0  2  0  0  0  0  0  0
  162.2970  208.0880  150.1540 C   0  0  0  0  0  2  0  0  0  0  0  0
  162.2500  210.7070  150.3200 C   0  0  1  0  0  3  0  0  0  0  0  0
  162.6880  209.3190  157.2610 N   0  0  0  0  0  0  0  0  0  0  0  0
  161.9230  209.7610  154.6510 C   0  0  0  0  0  0  0  0  0  0  0  0
  162.7060  210.7030  155.3290 C   0  0  0  0  0  3  0  0  0  0  0  0
  163.0810  210.4660  156.6490 C   0  0  0  0  0  3  0  0  0  0  0  0
  161.9510  208.4100  156.6220 N   0  0  0  0  0  0  0  0  0  0  0  0
  161.5590  208.5930  155.3330 C   0  0  0  0  0  3  0  0  0  0  0  0
  162.6310  210.7260  148.8360 C   0  0  0  0  0  2  0  0  0  0  0  0
  162.0290  211.9100  148.0960 C   0  0  0  0  0  2  0  0  0  0  0  0
  163.0550  212.9140  147.8750 N   0  0  0  0  0  1  0  0  0  0  0  0
  1 10  2  0  0  0  0
  2 10  1  0  0  0  0
  2  6  1  0  0  0  0
  3 14  1  0  0  0  0
  4 12  1  0  0  0  0
  7 11  1  0  0  0  0
  7  9  1  0  0  0  0
  8  7  1  0  0  0  0
  9 14  1  0  0  0  0
  9 12  2  0  0  0  0
 10 20  1  0  0  0  0
 11  5  1  6  0  0  0
 11  4  1  0  0  0  0
 12 15  1  0  0  0  0
 13  1  1  0  0  0  0
 14  2  2  0  0  0  0
 15  6  2  0  0  0  0
 16 13  1  0  0  0  0
 17 16  1  0  0  0  0
 17 13  1  0  0  0  0
 18 25  1  6  0  0  0
 18  3  1  0  0  0  0
 18 13  1  0  0  0  0
 20 21  1  0  0  0  0
 20 24  2  0  0  0  0
 21 22  2  0  0  0  0
 22 19  1  0  0  0  0
 23 19  2  0  0  0  0
 24 23  1  0  0  0  0
 26 25  1  0  0  0  0
 27 26  1  0  0  0  0
M  END
>  <MODEL>
5

>  <REMARK>
 VINA RESULT:      -4.4      2.618      5.143
  Name = 
  3 active torsions:
  status: ('A' for Active; 'I' for Inactive)
    1  A    between atoms: C_9  and  C_15
    2  A    between atoms: C_10  and  C_20
    3  A    between atoms: C_20  and  C_26
                            x       y       z     vdW  Elec       q    Type
                         _______ _______ _______ _____ _____    ______ ____

>  <TORSDO>
F 3

$$$$
=
 OpenBabel11052423123D

 27 31  0  0  1  0  0  0  0  0999 V2000
  161.6260  207.8070  152.5910 N   0  0  0  0  0  0  0  0  0  0  0  0
  161.0620  210.1780  152.2140 C   0  0  0  0  0  0  0  0  0  0  0  0
  162.2450  209.5230  150.0560 N   0  0  0  0  0  2  0  0  0  0  0  0
  159.6950  213.9180  150.0410 S   0  0  0  0  0  0  0  0  0  0  0  0
  159.6640  213.0710  147.4310 C   0  0  0  0  0  1  0  0  0  0  0  0
  160.2390  211.0910  152.8150 N   0  0  0  0  0  0  0  0  0  0  0  0
  161.3020  212.0620  148.9330 N   0  0  0  0  0  0  0  0  0  0  0  0
  162.3180  211.4930  148.0600 C   0  0  0  0  0  1  0  0  0  0  0  0
  161.0250  211.6210  150.2620 C   0  0  0  0  0  0  0  0  0  0  0  0
  161.4700  209.0080  153.0640 C   0  0  0  0  0  0  0  0  0  0  0  0
  160.6290  213.3090  148.5780 C   0  0  2  0  0  3  0  0  0  0  0  0
  160.2070  212.4750  150.9460 C   0  0  0  0  0  0  0  0  0  0  0  0
  161.5890  207.4580  151.1920 C   0  0  0  0  0  0  0  0  0  0  0  0
  161.4650  210.4240  150.8610 C   0  0  0  0  0  0  0  0  0  0  0  0
  159.8180  212.1990  152.2080 N   0  0  0  0  0  0  0  0  0  0  0  0
  160.2230  207.1250  150.6380 C   0  0  0  0  0  2  0  0  0  0  0  0
  161.2330  206.0120  150.9310 C   0  0  0  0  0  2  0  0  0  0  0  0
  162.6330  208.1500  150.3310 C   0  0  1  0  0  3  0  0  0  0  0  0
  161.9280  209.4320  157.2600 N   0  0  0  0  0  0  0  0  0  0  0  0
  161.6170  209.1800  154.5340 C   0  0  0  0  0  0  0  0  0  0  0  0
  162.1710  210.3440  155.0800 C   0  0  0  0  0  3  0  0  0  0  0  0
  162.3190  210.4570  156.4590 C   0  0  0  0  0  3  0  0  0  0  0  0
  161.4080  208.3140  156.7510 N   0  0  0  0  0  0  0  0  0  0  0  0
  161.2440  208.1550  155.4110 C   0  0  0  0  0  3  0  0  0  0  0  0
  163.0360  207.4240  149.0430 C   0  0  0  0  0  2  0  0  0  0  0  0
  162.1070  207.7390  147.8820 C   0  0  0  0  0  2  0  0  0  0  0  0
  161.7900  206.5150  147.1700 N   0  0  0  0  0  1  0  0  0  0  0  0
  1 10  2  0  0  0  0
  2  6  1  0  0  0  0
  2 10  1  0  0  0  0
  3 18  1  0  0  0  0
  3 14  1  0  0  0  0
  4 12  1  0  0  0  0
  7  9  1  0  0  0  0
  8  7  1  0  0  0  0
  9 14  1  0  0  0  0
  9 12  2  0  0  0  0
 10 20  1  0  0  0  0
 11  5  1  6  0  0  0
 11  7  1  0  0  0  0
 11  4  1  0  0  0  0
 12 15  1  0  0  0  0
 13  1  1  0  0  0  0
 14  2  2  0  0  0  0
 15  6  2  0  0  0  0
 16 17  1  0  0  0  0
 16 13  1  0  0  0  0
 17 13  1  0  0  0  0
 18 25  1  6  0  0  0
 18 13  1  0  0  0  0
 20 21  2  0  0  0  0
 20 24  1  0  0  0  0
 21 22  1  0  0  0  0
 22 19  2  0  0  0  0
 23 19  1  0  0  0  0
 24 23  2  0  0  0  0
 26 25  1  0  0  0  0
 27 26  1  0  0  0  0
M  END
>  <MODEL>
6

>  <REMARK>
 VINA RESULT:      -4.2      2.023      5.005
  Name = 
  3 active torsions:
  status: ('A' for Active; 'I' for Inactive)
    1  A    between atoms: C_9  and  C_15
    2  A    between atoms: C_10  and  C_20
    3  A    between atoms: C_20  and  C_26
                            x       y       z     vdW  Elec       q    Type
                         _______ _______ _______ _____ _____    ______ ____

>  <TORSDO>
F 3

$$$$
=
 OpenBabel11052423123D

 27 31  0  0  1  0  0  0  0  0999 V2000
  162.2250  206.9930  147.0580 N   0  0  0  0  0  0  0  0  0  0  0  0
  161.7460  205.8880  149.2100 C   0  0  0  0  0  0  0  0  0  0  0  0
  160.6230  204.3520  147.5170 N   0  0  0  0  0  2  0  0  0  0  0  0
  161.1980  202.5510  152.2340 S   0  0  0  0  0  0  0  0  0  0  0  0
  161.1880  200.3300  150.6230 C   0  0  0  0  0  1  0  0  0  0  0  0
  162.2170  206.0010  150.4890 N   0  0  0  0  0  0  0  0  0  0  0  0
  160.3150  202.4110  149.6940 N   0  0  0  0  0  0  0  0  0  0  0  0
  159.4930  202.0060  148.5620 C   0  0  0  0  0  1  0  0  0  0  0  0
  160.9300  203.6900  149.8410 C   0  0  0  0  0  0  0  0  0  0  0  0
  161.9590  207.0850  148.3270 C   0  0  0  0  0  0  0  0  0  0  0  0
  160.3820  201.5860  150.8970 C   0  0  2  0  0  3  0  0  0  0  0  0
  161.4320  203.8960  151.0950 C   0  0  0  0  0  0  0  0  0  0  0  0
  162.1960  205.7700  146.2930 C   0  0  0  0  0  0  0  0  0  0  0  0
  161.0890  204.6680  148.8400 C   0  0  0  0  0  0  0  0  0  0  0  0
  162.0750  205.0420  151.4030 N   0  0  0  0  0  0  0  0  0  0  0  0
  163.4880  204.9860  146.2670 C   0  0  0  0  0  2  0  0  0  0  0  0
  163.0530  205.8060  145.0490 C   0  0  0  0  0  2  0  0  0  0  0  0
  160.8520  205.0600  146.2700 C   0  0  1  0  0  3  0  0  0  0  0  0
  161.9220  210.9900  149.9840 N   0  0  0  0  0  0  0  0  0  0  0  0
  161.9680  208.4480  148.9230 C   0  0  0  0  0  0  0  0  0  0  0  0
  161.9390  208.6370  150.3100 C   0  0  0  0  0  3  0  0  0  0  0  0
  161.9200  209.9280  150.8300 C   0  0  0  0  0  3  0  0  0  0  0  0
  161.9390  210.8220  148.6610 N   0  0  0  0  0  0  0  0  0  0  0  0
  161.9580  209.5830  148.1030 C   0  0  0  0  0  3  0  0  0  0  0  0
  160.5900  204.1510  145.0640 C   0  0  0  0  0  2  0  0  0  0  0  0
  160.9360  202.6980  145.3450 C   0  0  0  0  0  2  0  0  0  0  0  0
  159.8570  201.8450  144.8810 N   0  0  0  0  0  1  0  0  0  0  0  0
  1 10  2  0  0  0  0
  2  6  1  0  0  0  0
  3 14  1  0  0  0  0
  6 15  2  0  0  0  0
  7  9  1  0  0  0  0
  7 11  1  0  0  0  0
  8  7  1  0  0  0  0
  9 12  2  0  0  0  0
 10 20  1  0  0  0  0
 10  2  1  0  0  0  0
 11  5  1  6  0  0  0
 11  4  1  0  0  0  0
 12 15  1  0  0  0  0
 12  4  1  0  0  0  0
 13  1  1  0  0  0  0
 14  2  2  0  0  0  0
 14  9  1  0  0  0  0
 16 13  1  0  0  0  0
 17 16  1  0  0  0  0
 17 13  1  0  0  0  0
 18 25  1  6  0  0  0
 18 13  1  0  0  0  0
 18  3  1  0  0  0  0
 19 22  1  0  0  0  0
 20 21  1  0  0  0  0
 21 22  2  0  0  0  0
 23 19  2  0  0  0  0
 24 23  1  0  0  0  0
 24 20  2  0  0  0  0
 25 26  1  0  0  0  0
 27 26  1  0  0  0  0
M  END
>  <MODEL>
7

>  <REMARK>
 VINA RESULT:      -3.3      4.226      9.034
  Name = 
  3 active torsions:
  status: ('A' for Active; 'I' for Inactive)
    1  A    between atoms: C_9  and  C_15
    2  A    between atoms: C_10  and  C_20
    3  A    between atoms: C_20  and  C_26
                            x       y       z     vdW  Elec       q    Type
                         _______ _______ _______ _____ _____    ______ ____

>  <TORSDO>
F 3

$$$$
=
 OpenBabel11052423123D

 27 31  0  0  1  0  0  0  0  0999 V2000
  160.9710  204.0780  146.2600 N   0  0  0  0  0  0  0  0  0  0  0  0
  160.9140  203.3840  148.6260 C   0  0  0  0  0  0  0  0  0  0  0  0
  162.2100  205.5750  148.7050 N   0  0  0  0  0  2  0  0  0  0  0  0
  160.5530  203.7180  153.1360 S   0  0  0  0  0  0  0  0  0  0  0  0
  160.6860  206.4340  153.5100 C   0  0  0  0  0  1  0  0  0  0  0  0
  160.2090  202.4660  149.3550 N   0  0  0  0  0  0  0  0  0  0  0  0
  161.9060  205.4870  151.6200 N   0  0  0  0  0  0  0  0  0  0  0  0
  162.8980  206.4920  151.2660 C   0  0  0  0  0  1  0  0  0  0  0  0
  161.3900  204.4980  150.7300 C   0  0  0  0  0  0  0  0  0  0  0  0
  160.9860  203.1270  147.1470 C   0  0  0  0  0  0  0  0  0  0  0  0
  161.5300  205.2730  153.0150 C   0  0  2  0  0  3  0  0  0  0  0  0
  160.6700  203.5310  151.3710 C   0  0  0  0  0  0  0  0  0  0  0  0
  161.0420  205.4880  146.5570 C   0  0  0  0  0  0  0  0  0  0  0  0
  161.5200  204.4780  149.3280 C   0  0  0  0  0  0  0  0  0  0  0  0
  160.0820  202.5320  150.6800 N   0  0  0  0  0  0  0  0  0  0  0  0
  159.7160  206.1710  146.8060 C   0  0  0  0  0  2  0  0  0  0  0  0
  160.4550  206.3710  145.4790 C   0  0  0  0  0  2  0  0  0  0  0  0
  162.2960  205.9240  147.2970 C   0  0  1  0  0  3  0  0  0  0  0  0
  161.0000  199.1640  145.6360 N   0  0  0  0  0  0  0  0  0  0  0  0
  160.9800  201.7300  146.6410 C   0  0  0  0  0  0  0  0  0  0  0  0
  161.5820  200.6910  147.3610 C   0  0  0  0  0  3  0  0  0  0  0  0
  161.5810  199.3990  146.8400 C   0  0  0  0  0  3  0  0  0  0  0  0
  160.4330  200.1480  144.9360 N   0  0  0  0  0  0  0  0  0  0  0  0
  160.4080  201.4250  145.4000 C   0  0  0  0  0  3  0  0  0  0  0  0
  162.7110  207.3890  147.1180 C   0  0  0  0  0  2  0  0  0  0  0  0
  162.7410  208.1500  148.4340 C   0  0  0  0  0  2  0  0  0  0  0  0
  161.5810  209.0190  148.5150 N   0  0  0  0  0  1  0  0  0  0  0  0
  1 13  1  0  0  0  0
  1 10  2  0  0  0  0
  2 14  2  0  0  0  0
  2  6  1  0  0  0  0
  3 14  1  0  0  0  0
  6 15  2  0  0  0  0
  7 11  1  0  0  0  0
  8  7  1  0  0  0  0
  9 12  2  0  0  0  0
  9  7  1  0  0  0  0
 10  2  1  0  0  0  0
 11  4  1  0  0  0  0
 11  5  1  6  0  0  0
 12  4  1  0  0  0  0
 13 16  1  0  0  0  0
 13 18  1  0  0  0  0
 14  9  1  0  0  0  0
 15 12  1  0  0  0  0
 17 13  1  0  0  0  0
 17 16  1  0  0  0  0
 18 25  1  1  0  0  0
 18  3  1  0  0  0  0
 19 22  1  0  0  0  0
 20 10  1  0  0  0  0
 20 21  1  0  0  0  0
 22 21  2  0  0  0  0
 23 24  1  0  0  0  0
 23 19  2  0  0  0  0
 24 20  2  0  0  0  0
 25 26  1  0  0  0  0
 26 27  1  0  0  0  0
M  END
>  <MODEL>
8

>  <REMARK>
 VINA RESULT:      -3.0      4.669      8.303
  Name = 
  3 active torsions:
  status: ('A' for Active; 'I' for Inactive)
    1  A    between atoms: C_9  and  C_15
    2  A    between atoms: C_10  and  C_20
    3  A    between atoms: C_20  and  C_26
                            x       y       z     vdW  Elec       q    Type
                         _______ _______ _______ _____ _____    ______ ____

>  <TORSDO>
F 3

$$$$
=
 OpenBabel11052423123D

 27 31  0  0  1  0  0  0  0  0999 V2000
  161.0940  205.2700  151.8240 N   0  0  0  0  0  0  0  0  0  0  0  0
  161.1240  206.1210  149.5090 C   0  0  0  0  0  0  0  0  0  0  0  0
  161.8320  203.6900  149.2330 N   0  0  0  0  0  2  0  0  0  0  0  0
  160.5270  206.2020  145.0130 S   0  0  0  0  0  0  0  0  0  0  0  0
  159.9690  203.5700  144.4740 C   0  0  0  0  0  1  0  0  0  0  0  0
  160.6430  207.2320  148.8740 N   0  0  0  0  0  0  0  0  0  0  0  0
  161.4540  204.0540  146.3480 N   0  0  0  0  0  0  0  0  0  0  0  0
  162.1770  202.8140  146.5900 C   0  0  0  0  0  1  0  0  0  0  0  0
  161.2320  205.0740  147.3210 C   0  0  0  0  0  0  0  0  0  0  0  0
  161.3120  206.2480  150.9950 C   0  0  0  0  0  0  0  0  0  0  0  0
  161.0910  204.4500  144.9900 C   0  0  2  0  0  3  0  0  0  0  0  0
  160.7510  206.2310  146.7770 C   0  0  0  0  0  0  0  0  0  0  0  0
  160.8020  203.9100  151.4410 C   0  0  0  0  0  0  0  0  0  0  0  0
  161.4140  204.9640  148.7140 C   0  0  0  0  0  0  0  0  0  0  0  0
  160.4550  207.2920  147.5560 N   0  0  0  0  0  0  0  0  0  0  0  0
  159.3410  203.5920  151.2230 C   0  0  0  0  0  2  0  0  0  0  0  0
  160.0550  203.1250  152.4950 C   0  0  0  0  0  2  0  0  0  0  0  0
  161.8810  203.2330  150.6110 C   0  0  1  0  0  3  0  0  0  0  0  0
  162.3050  210.0420  152.6090 N   0  0  0  0  0  0  0  0  0  0  0  0
  161.6710  207.5650  151.5820 C   0  0  0  0  0  0  0  0  0  0  0  0
  161.2490  207.9300  152.8670 C   0  0  0  0  0  3  0  0  0  0  0  0
  161.5810  209.1840  153.3730 C   0  0  0  0  0  3  0  0  0  0  0  0
  162.7030  209.7110  151.3800 N   0  0  0  0  0  0  0  0  0  0  0  0
  162.4050  208.4990  150.8410 C   0  0  0  0  0  3  0  0  0  0  0  0
  161.9260  201.7020  150.6820 C   0  0  0  0  0  2  0  0  0  0  0  0
  160.9000  201.0470  149.7710 C   0  0  0  0  0  2  0  0  0  0  0  0
  161.5790  200.4140  148.6550 N   0  0  0  0  0  1  0  0  0  0  0  0
  2 10  1  0  0  0  0
  3 18  1  0  0  0  0
  4 12  1  0  0  0  0
  6  2  1  0  0  0  0
  7  8  1  0  0  0  0
  7  9  1  0  0  0  0
  9 14  1  0  0  0  0
 10 20  1  0  0  0  0
 10  1  2  0  0  0  0
 11  5  1  1  0  0  0
 11  4  1  0  0  0  0
 11  7  1  0  0  0  0
 12  9  2  0  0  0  0
 12 15  1  0  0  0  0
 13  1  1  0  0  0  0
 13 17  1  0  0  0  0
 14  3  1  0  0  0  0
 14  2  2  0  0  0  0
 15  6  2  0  0  0  0
 16 13  1  0  0  0  0
 16 17  1  0  0  0  0
 18 25  1  6  0  0  0
 18 13  1  0  0  0  0
 19 22  1  0  0  0  0
 20 21  1  0  0  0  0
 21 22  2  0  0  0  0
 23 19  2  0  0  0  0
 24 23  1  0  0  0  0
 24 20  2  0  0  0  0
 26 25  1  0  0  0  0
 27 26  1  0  0  0  0
M  END
>  <MODEL>
9

>  <REMARK>
 VINA RESULT:      -2.8      3.487      7.668
  Name = 
  3 active torsions:
  status: ('A' for Active; 'I' for Inactive)
    1  A    between atoms: C_9  and  C_15
    2  A    between atoms: C_10  and  C_20
    3  A    between atoms: C_20  and  C_26
                            x       y       z     vdW  Elec       q    Type
                         _______ _______ _______ _____ _____    ______ ____

>  <TORSDO>
F 3

$$$$
