=
 OpenBabel11052421453D

 30 33  0  0  1  0  0  0  0  0999 V2000
  162.4420  207.1690  152.6390 C   0  0  0  0  0  2  0  0  0  0  0  0
  161.2260  207.9670  153.0900 C   0  0  1  0  0  0  0  0  0  0  0  0
  159.1200  210.4510  154.8820 C   0  0  0  0  0  2  0  0  0  0  0  0
  159.7310  209.8830  152.4260 C   0  0  0  0  0  2  0  0  0  0  0  0
  161.7980  207.9100  155.6400 C   0  0  0  0  0  2  0  0  0  0  0  0
  161.1770  209.4640  152.6860 C   0  0  2  0  0  3  0  0  0  0  0  0
  161.9640  209.4010  155.9060 C   0  0  0  0  0  2  0  0  0  0  0  0
  160.1770  211.0410  155.6880 N   0  0  0  0  0  2  0  0  0  0  0  0
  161.0790  206.8510  152.0320 C   0  0  2  0  0  0  0  0  0  0  0  0
  159.7040  207.2900  154.7720 O   0  0  0  0  0  0  0  0  0  0  0  0
  160.8390  207.6610  154.5150 C   0  0  0  0  0  0  0  0  0  0  0  0
  160.7080  209.9850  156.5360 C   0  0  0  0  0  2  0  0  0  0  0  0
  159.0230  212.0140  153.1270 O   0  0  0  0  0  0  0  0  0  0  0  0
  159.2770  210.8670  153.4560 C   0  0  0  0  0  0  0  0  0  0  0  0
  160.8750  203.1130  152.2180 C   0  0  1  0  0  3  0  0  0  0  0  0
  161.5010  204.4280  152.6370 C   0  0  1  0  0  3  0  0  0  0  0  0
  160.5050  204.4000  151.5090 C   0  0  2  0  0  3  0  0  0  0  0  0
  161.7800  202.3970  151.4370 O   0  0  0  0  0  1  0  0  0  0  0  0
  160.4530  205.5270  152.5310 C   0  0  2  0  0  3  0  0  0  0  0  0
  163.3370  210.4000  152.1110 O   0  0  0  0  0  1  0  0  0  0  0  0
  162.1390  209.9270  151.5690 C   0  0  2  0  0  3  0  0  0  0  0  0
  161.5300  210.9980  150.6550 C   0  0  0  0  0  2  0  0  0  0  0  0
  161.7660  210.1260  148.3260 C   0  0  0  0  0  1  0  0  0  0  0  0
  162.0250  212.5330  148.7760 C   0  0  0  0  0  1  0  0  0  0  0  0
  162.2690  211.1460  149.3280 C   0  0  0  0  0  3  0  0  0  0  0  0
  160.9120  207.3120  150.5710 C   0  0  2  0  0  3  0  0  0  0  0  0
  159.9300  206.5550  149.9240 O   0  0  0  0  0  0  0  0  0  0  0  0
  160.3670  206.4400  148.6020 C   0  0  0  0  0  1  0  0  0  0  0  0
  162.1830  207.2320  149.8320 C   0  0  0  0  0  0  0  0  0  0  0  0
  163.1820  207.1700  149.2510 N   0  0  0  0  0  0  0  0  0  0  0  0
  2  1  1  1  0  0  0
  2 11  1  0  0  0  0
  3  8  1  0  0  0  0
  4  6  1  0  0  0  0
  4 14  1  0  0  0  0
  5  7  1  0  0  0  0
  6 21  1  6  0  0  0
  6  2  1  0  0  0  0
  7 12  1  0  0  0  0
  8 12  1  0  0  0  0
  9 26  1  6  0  0  0
  9 19  1  0  0  0  0
  9  1  1  0  0  0  0
  9  2  1  0  0  0  0
 11 10  2  0  0  0  0
 11  5  1  0  0  0  0
 13 14  2  0  0  0  0
 14  3  1  0  0  0  0
 15 16  1  0  0  0  0
 17 15  1  0  0  0  0
 17 19  1  0  0  0  0
 17 16  1  0  0  0  0
 18 15  1  0  0  0  0
 19 16  1  0  0  0  0
 21 20  1  0  0  0  0
 22 21  1  0  0  0  0
 23 25  1  0  0  0  0
 24 25  1  0  0  0  0
 25 22  1  0  0  0  0
 27 26  1  0  0  0  0
 28 27  1  0  0  0  0
 29 26  1  0  0  0  0
 30 29  3  0  0  0  0
M  END
>  <MODEL>
1

>  <REMARK>
 VINA RESULT:      -3.2      0.000      0.000
  Name = 
  7 active torsions:
  status: ('A' for Active; 'I' for Inactive)
    1  A    between atoms: O_2  and  C_14
    2  A    between atoms: C_6  and  C_12
    3  A    between atoms: C_6  and  C_21
    4  A    between atoms: C_12  and  C_13
    5  A    between atoms: C_14  and  C_20
    6  A    between atoms: C_14  and  C_22
    7  A    between atoms: C_22  and  C_29
                            x       y       z     vdW  Elec       q    Type
                         _______ _______ _______ _____ _____    ______ ____

>  <TORSDO>
F 7

$$$$
=
 OpenBabel11052421453D

 30 33  0  0  1  0  0  0  0  0999 V2000
  158.0930  211.5420  152.0800 C   0  0  0  0  0  2  0  0  0  0  0  0
  158.0190  212.5600  153.2100 C   0  0  1  0  0  0  0  0  0  0  0  0
  157.5110  214.0330  156.5840 C   0  0  0  0  0  2  0  0  0  0  0  0
  159.4420  213.8160  154.8670 C   0  0  0  0  0  2  0  0  0  0  0  0
  155.7590  211.7000  154.2000 C   0  0  0  0  0  2  0  0  0  0  0  0
  159.0710  212.4300  154.3430 C   0  0  2  0  0  3  0  0  0  0  0  0
  156.2220  211.2790  155.5890 C   0  0  0  0  0  2  0  0  0  0  0  0
  157.1110  212.8090  157.2610 N   0  0  0  0  0  2  0  0  0  0  0  0
  158.4310  213.0010  151.7880 C   0  0  2  0  0  0  0  0  0  0  0  0
  156.1610  213.9520  153.6670 O   0  0  0  0  0  0  0  0  0  0  0  0
  156.6030  212.8140  153.6580 C   0  0  0  0  0  0  0  0  0  0  0  0
  155.8900  212.3460  156.6210 C   0  0  0  0  0  2  0  0  0  0  0  0
  159.7870  214.1010  157.1760 O   0  0  0  0  0  0  0  0  0  0  0  0
  158.9720  213.9880  156.2760 C   0  0  0  0  0  0  0  0  0  0  0  0
  156.7260  213.9820  148.5980 C   0  0  1  0  0  3  0  0  0  0  0  0
  156.9740  212.9900  149.7170 C   0  0  1  0  0  3  0  0  0  0  0  0
  157.8280  214.2250  149.6090 C   0  0  2  0  0  3  0  0  0  0  0  0
  157.2820  213.4950  147.4160 O   0  0  0  0  0  1  0  0  0  0  0  0
  157.3520  213.7560  150.9760 C   0  0  2  0  0  3  0  0  0  0  0  0
  159.9270  210.2810  153.6170 O   0  0  0  0  0  1  0  0  0  0  0  0
  160.3090  211.5490  154.0620 C   0  0  2  0  0  3  0  0  0  0  0  0
  161.2380  211.4100  155.2740 C   0  0  0  0  0  2  0  0  0  0  0  0
  162.2960  209.6730  156.7240 C   0  0  0  0  0  1  0  0  0  0  0  0
  159.9720  210.3780  157.1350 C   0  0  0  0  0  1  0  0  0  0  0  0
  161.0090  210.1250  156.0620 C   0  0  0  0  0  3  0  0  0  0  0  0
  159.9320  213.2700  151.5640 C   0  0  2  0  0  3  0  0  0  0  0  0
  160.1190  214.4530  150.8410 O   0  0  0  0  0  0  0  0  0  0  0  0
  161.1960  214.1980  149.9900 C   0  0  0  0  0  1  0  0  0  0  0  0
  160.5840  212.1460  150.8730 C   0  0  0  0  0  0  0  0  0  0  0  0
  161.0980  211.2620  150.3300 N   0  0  0  0  0  0  0  0  0  0  0  0
  2  1  1  6  0  0  0
  2 11  1  0  0  0  0
  2  6  1  0  0  0  0
  3  8  1  0  0  0  0
  4 14  1  0  0  0  0
  5  7  1  0  0  0  0
  6 21  1  6  0  0  0
  6  4  1  0  0  0  0
  7 12  1  0  0  0  0
  9 26  1  6  0  0  0
  9  1  1  0  0  0  0
  9  2  1  0  0  0  0
 11 10  2  0  0  0  0
 11  5  1  0  0  0  0
 12  8  1  0  0  0  0
 14  3  1  0  0  0  0
 14 13  2  0  0  0  0
 15 17  1  0  0  0  0
 15 16  1  0  0  0  0
 16 19  1  0  0  0  0
 17 16  1  0  0  0  0
 17 19  1  0  0  0  0
 18 15  1  0  0  0  0
 19  9  1  0  0  0  0
 20 21  1  0  0  0  0
 21 22  1  0  0  0  0
 22 25  1  0  0  0  0
 25 23  1  0  0  0  0
 25 24  1  0  0  0  0
 27 26  1  0  0  0  0
 28 27  1  0  0  0  0
 29 26  1  0  0  0  0
 30 29  3  0  0  0  0
M  END
>  <MODEL>
2

>  <REMARK>
 VINA RESULT:      -1.4      4.384      7.077
  Name = 
  7 active torsions:
  status: ('A' for Active; 'I' for Inactive)
    1  A    between atoms: O_2  and  C_14
    2  A    between atoms: C_6  and  C_12
    3  A    between atoms: C_6  and  C_21
    4  A    between atoms: C_12  and  C_13
    5  A    between atoms: C_14  and  C_20
    6  A    between atoms: C_14  and  C_22
    7  A    between atoms: C_22  and  C_29
                            x       y       z     vdW  Elec       q    Type
                         _______ _______ _______ _____ _____    ______ ____

>  <TORSDO>
F 7

$$$$
=
 OpenBabel11052421453D

 30 33  0  0  1  0  0  0  0  0999 V2000
  159.4290  210.0110  152.4880 C   0  0  0  0  0  2  0  0  0  0  0  0
  159.6520  211.3110  153.2490 C   0  0  1  0  0  0  0  0  0  0  0  0
  158.9660  214.4530  155.1120 C   0  0  0  0  0  2  0  0  0  0  0  0
  160.2210  212.2220  155.5280 C   0  0  0  0  0  2  0  0  0  0  0  0
  157.8050  212.6750  152.0000 C   0  0  0  0  0  2  0  0  0  0  0  0
  159.2630  211.3210  154.7510 C   0  0  2  0  0  3  0  0  0  0  0  0
  156.8820  213.0010  153.1670 C   0  0  0  0  0  2  0  0  0  0  0  0
  157.5140  214.3770  155.0730 N   0  0  0  0  0  2  0  0  0  0  0  0
  160.8570  210.4860  152.7450 C   0  0  2  0  0  0  0  0  0  0  0  0
  160.0170  213.4260  152.2520 O   0  0  0  0  0  0  0  0  0  0  0  0
  159.2250  212.5190  152.4550 C   0  0  0  0  0  0  0  0  0  0  0  0
  157.1220  214.4150  153.6730 C   0  0  0  0  0  2  0  0  0  0  0  0
  159.3630  213.5690  157.2560 O   0  0  0  0  0  0  0  0  0  0  0  0
  159.5030  213.4240  156.0530 C   0  0  0  0  0  0  0  0  0  0  0  0
  162.2650  210.1760  149.2860 C   0  0  1  0  0  3  0  0  0  0  0  0
  161.0910  210.3560  150.2260 C   0  0  1  0  0  3  0  0  0  0  0  0
  162.4480  210.0170  150.7810 C   0  0  2  0  0  3  0  0  0  0  0  0
  162.1930  208.9170  148.6910 O   0  0  0  0  0  1  0  0  0  0  0  0
  161.5790  211.0420  151.4950 C   0  0  2  0  0  3  0  0  0  0  0  0
  157.6860  209.7110  155.6410 O   0  0  0  0  0  1  0  0  0  0  0  0
  159.0460  209.9530  155.4360 C   0  0  2  0  0  3  0  0  0  0  0  0
  159.7980  209.8190  156.7660 C   0  0  0  0  0  2  0  0  0  0  0  0
  159.5530  207.4270  156.0900 C   0  0  0  0  0  1  0  0  0  0  0  0
  161.5880  208.1790  157.2560 C   0  0  0  0  0  1  0  0  0  0  0  0
  160.0910  208.3710  157.1470 C   0  0  0  0  0  3  0  0  0  0  0  0
  161.6160  209.6650  153.8060 C   0  0  2  0  0  3  0  0  0  0  0  0
  162.9250  210.1370  153.9510 O   0  0  0  0  0  0  0  0  0  0  0  0
  163.0050  210.6000  155.2660 C   0  0  0  0  0  1  0  0  0  0  0  0
  161.6260  208.2320  153.4720 C   0  0  0  0  0  0  0  0  0  0  0  0
  161.6350  207.1050  153.2080 N   0  0  0  0  0  0  0  0  0  0  0  0
  1  9  1  0  0  0  0
  2  1  1  6  0  0  0
  2  6  1  0  0  0  0
  3 14  1  0  0  0  0
  4 14  1  0  0  0  0
  5 11  1  0  0  0  0
  5  7  1  0  0  0  0
  6 21  1  1  0  0  0
  6  4  1  0  0  0  0
  7 12  1  0  0  0  0
  8  3  1  0  0  0  0
  9  2  1  0  0  0  0
  9 26  1  1  0  0  0
 10 11  2  0  0  0  0
 11  2  1  0  0  0  0
 12  8  1  0  0  0  0
 14 13  2  0  0  0  0
 15 16  1  0  0  0  0
 15 17  1  0  0  0  0
 16 17  1  0  0  0  0
 16 19  1  0  0  0  0
 17 19  1  0  0  0  0
 18 15  1  0  0  0  0
 19  9  1  0  0  0  0
 21 20  1  0  0  0  0
 21 22  1  0  0  0  0
 22 25  1  0  0  0  0
 23 25  1  0  0  0  0
 25 24  1  0  0  0  0
 26 27  1  0  0  0  0
 27 28  1  0  0  0  0
 29 26  1  0  0  0  0
 30 29  3  0  0  0  0
M  END
>  <MODEL>
3

>  <REMARK>
 VINA RESULT:      -0.5      2.908      5.991
  Name = 
  7 active torsions:
  status: ('A' for Active; 'I' for Inactive)
    1  A    between atoms: O_2  and  C_14
    2  A    between atoms: C_6  and  C_12
    3  A    between atoms: C_6  and  C_21
    4  A    between atoms: C_12  and  C_13
    5  A    between atoms: C_14  and  C_20
    6  A    between atoms: C_14  and  C_22
    7  A    between atoms: C_22  and  C_29
                            x       y       z     vdW  Elec       q    Type
                         _______ _______ _______ _____ _____    ______ ____

>  <TORSDO>
F 7

$$$$
