=
 OpenBabel11062408043D

 34 40  0  0  1  0  0  0  0  0999 V2000
  160.8170  206.9850  154.8300 C   0  0  0  0  0  0  0  0  0  0  0  0
  160.3140  209.3590  154.6050 C   0  0  0  0  0  0  0  0  0  0  0  0
  161.2670  208.1330  152.7370 C   0  0  0  0  0  0  0  0  0  0  0  0
  161.6210  209.2600  150.4940 C   0  0  1  0  0  3  0  0  0  0  0  0
  159.9380  208.2270  156.7160 C   0  0  0  0  0  3  0  0  0  0  0  0
  159.8970  209.3920  155.9400 C   0  0  0  0  0  3  0  0  0  0  0  0
  160.3730  210.4330  152.3890 C   0  0  0  0  0  2  0  0  0  0  0  0
  160.7980  208.1610  154.0570 C   0  0  0  0  0  0  0  0  0  0  0  0
  160.3910  207.0240  156.1610 C   0  0  0  0  0  3  0  0  0  0  0  0
  161.6900  206.9080  152.1840 C   0  0  0  0  0  0  0  0  0  0  0  0
  161.2590  205.8230  154.2810 N   0  0  0  0  0  0  0  0  0  0  0  0
  160.2430  210.5100  153.8110 O   0  0  0  0  0  0  0  0  0  0  0  0
  162.6220  208.1410  150.2160 C   0  0  0  0  0  2  0  0  0  0  0  0
  162.0920  206.7980  150.7310 C   0  0  2  0  0  3  0  0  0  0  0  0
  161.4820  209.4450  152.0100 C   0  0  1  0  0  3  0  0  0  0  0  0
  161.6830  205.7610  152.9890 C   0  0  0  0  0  3  0  0  0  0  0  0
  160.9240  204.8270  149.6320 C   0  0  0  0  0  0  0  0  0  0  0  0
  161.6360  204.3000  148.0970 S   0  0  0  0  0  0  0  0  0  0  0  0
  160.9380  206.9590  148.4400 C   0  0  1  0  0  3  0  0  0  0  0  0
  161.2080  205.9080  147.3600 C   0  0  1  0  0  3  0  0  0  0  0  0
  160.9390  206.3010  149.8290 C   0  0  2  0  0  3  0  0  0  0  0  0
  162.2850  206.9020  147.7360 C   0  0  0  0  0  2  0  0  0  0  0  0
  159.9380  204.1150  150.1670 C   0  0  0  0  0  2  0  0  0  0  0  0
  162.1310  210.5290  149.8200 C   0  0  0  0  0  2  0  0  0  0  0  0
  161.8750  210.4980  148.4460 O   0  0  0  0  0  0  0  0  0  0  0  0
  162.2190  211.7310  147.9990 N   0  0  0  0  0  2  0  0  0  0  0  0
  161.1810  212.6450  148.4400 C   0  0  0  0  0  2  0  0  0  0  0  0
  161.8940  214.2330  145.6440 O   0  0  0  0  0  1  0  0  0  0  0  0
  160.4230  213.1820  147.2390 C   0  0  1  0  0  3  0  0  0  0  0  0
  161.2770  213.0230  145.9710 C   0  0  1  0  0  3  0  0  0  0  0  0
  159.3220  213.2660  144.7690 C   0  0  0  0  0  2  0  0  0  0  0  0
  158.4880  213.1520  146.0590 C   0  0  0  0  0  2  0  0  0  0  0  0
  159.2020  212.4970  147.0840 O   0  0  0  0  0  0  0  0  0  0  0  0
  160.5260  212.5340  144.8740 O   0  0  0  0  0  0  0  0  0  0  0  0
  1  9  2  0  0  0  0
  2  6  1  0  0  0  0
  3  8  1  0  0  0  0
  4 24  1  6  0  0  0
  4 15  1  0  0  0  0
  6  5  2  0  0  0  0
  7 12  1  0  0  0  0
  8  2  2  0  0  0  0
  8  1  1  0  0  0  0
  9  5  1  0  0  0  0
 10  3  2  0  0  0  0
 10 16  1  0  0  0  0
 11  1  1  0  0  0  0
 12  2  1  0  0  0  0
 13  4  1  0  0  0  0
 14 13  1  6  0  0  0
 14 10  1  0  0  0  0
 15  7  1  6  0  0  0
 15  3  1  0  0  0  0
 16 11  2  0  0  0  0
 17 23  2  0  0  0  0
 18 17  1  0  0  0  0
 19 22  1  1  0  0  0
 19 21  1  0  0  0  0
 20 22  1  6  0  0  0
 20 18  1  0  0  0  0
 20 19  1  0  0  0  0
 21 17  1  6  0  0  0
 21 14  1  0  0  0  0
 25 24  1  0  0  0  0
 26 27  1  0  0  0  0
 26 25  1  0  0  0  0
 29 27  1  1  0  0  0
 30 28  1  6  0  0  0
 30 29  1  0  0  0  0
 31 34  1  0  0  0  0
 31 32  1  0  0  0  0
 32 33  1  0  0  0  0
 33 29  1  0  0  0  0
 34 30  1  0  0  0  0
M  END
>  <MODEL>
1

>  <REMARK>
 VINA RESULT:      -8.3      0.000      0.000
  Name = 
  6 active torsions:
  status: ('A' for Active; 'I' for Inactive)
    1  A    between atoms: C_3  and  C_13
    2  A    between atoms: C_3  and  N_17
    3  A    between atoms: C_5  and  C_18
    4  A    between atoms: N_17  and  O_29
    5  A    between atoms: C_18  and  O_29
    6  A    between atoms: C_23  and  C_28
                            x       y       z     vdW  Elec       q    Type
                         _______ _______ _______ _____ _____    ______ ____

>  <TORSDO>
F 6

$$$$
=
 OpenBabel11062408043D

 34 40  0  0  1  0  0  0  0  0999 V2000
  160.8830  207.0980  154.7930 C   0  0  0  0  0  0  0  0  0  0  0  0
  160.3940  209.4680  154.5030 C   0  0  0  0  0  0  0  0  0  0  0  0
  161.3160  208.1800  152.6610 C   0  0  0  0  0  0  0  0  0  0  0  0
  161.6510  209.2370  150.3810 C   0  0  1  0  0  3  0  0  0  0  0  0
  160.0350  208.4030  156.6510 C   0  0  0  0  0  3  0  0  0  0  0  0
  159.9940  209.5440  155.8410 C   0  0  0  0  0  3  0  0  0  0  0  0
  160.4340  210.4760  152.2560 C   0  0  0  0  0  2  0  0  0  0  0  0
  160.8630  208.2510  153.9860 C   0  0  0  0  0  0  0  0  0  0  0  0
  160.4730  207.1800  156.1270 C   0  0  0  0  0  3  0  0  0  0  0  0
  161.7240  206.9360  152.1400 C   0  0  0  0  0  0  0  0  0  0  0  0
  161.3100  205.9170  154.2740 N   0  0  0  0  0  0  0  0  0  0  0  0
  160.3220  210.5950  153.6760 O   0  0  0  0  0  0  0  0  0  0  0  0
  162.6400  208.1030  150.1250 C   0  0  0  0  0  2  0  0  0  0  0  0
  162.1070  206.7800  150.6870 C   0  0  2  0  0  3  0  0  0  0  0  0
  161.5310  209.4690  151.8930 C   0  0  1  0  0  3  0  0  0  0  0  0
  161.7180  205.8130  152.9800 C   0  0  0  0  0  3  0  0  0  0  0  0
  160.9380  204.7900  149.6230 C   0  0  0  0  0  0  0  0  0  0  0  0
  161.6210  204.2650  148.0740 S   0  0  0  0  0  0  0  0  0  0  0  0
  160.8980  206.9160  148.4220 C   0  0  1  0  0  3  0  0  0  0  0  0
  161.1560  205.8640  147.3410 C   0  0  1  0  0  3  0  0  0  0  0  0
  160.9390  206.2650  149.8140 C   0  0  2  0  0  3  0  0  0  0  0  0
  162.2290  206.8730  147.6870 C   0  0  0  0  0  2  0  0  0  0  0  0
  159.9730  204.0680  150.1840 C   0  0  0  0  0  2  0  0  0  0  0  0
  162.1620  210.4810  149.6640 C   0  0  0  0  0  2  0  0  0  0  0  0
  161.6300  210.5640  148.3740 O   0  0  0  0  0  0  0  0  0  0  0  0
  161.7370  211.8710  148.0350 N   0  0  0  0  0  2  0  0  0  0  0  0
  160.7220  212.1320  147.0300 C   0  0  0  0  0  2  0  0  0  0  0  0
  157.9490  213.5680  145.9820 O   0  0  0  0  0  1  0  0  0  0  0  0
  159.7550  213.1870  147.5350 C   0  0  1  0  0  3  0  0  0  0  0  0
  158.3230  212.8270  147.1070 C   0  0  1  0  0  3  0  0  0  0  0  0
  157.5960  214.2660  148.7580 C   0  0  0  0  0  2  0  0  0  0  0  0
  159.0270  214.3840  149.3160 C   0  0  0  0  0  2  0  0  0  0  0  0
  159.8250  213.2850  148.9380 O   0  0  0  0  0  0  0  0  0  0  0  0
  157.3870  213.0060  148.1550 O   0  0  0  0  0  0  0  0  0  0  0  0
  1  9  2  0  0  0  0
  2  6  1  0  0  0  0
  3  8  1  0  0  0  0
  4 24  1  6  0  0  0
  4 15  1  0  0  0  0
  6  5  2  0  0  0  0
  7 12  1  0  0  0  0
  8  2  2  0  0  0  0
  8  1  1  0  0  0  0
  9  5  1  0  0  0  0
 10  3  2  0  0  0  0
 10 16  1  0  0  0  0
 11  1  1  0  0  0  0
 12  2  1  0  0  0  0
 13  4  1  0  0  0  0
 14 13  1  6  0  0  0
 14 10  1  0  0  0  0
 15  7  1  6  0  0  0
 15  3  1  0  0  0  0
 16 11  2  0  0  0  0
 17 23  2  0  0  0  0
 18 17  1  0  0  0  0
 19 22  1  1  0  0  0
 19 21  1  0  0  0  0
 20 22  1  6  0  0  0
 20 18  1  0  0  0  0
 20 19  1  0  0  0  0
 21 17  1  6  0  0  0
 21 14  1  0  0  0  0
 25 24  1  0  0  0  0
 26 25  1  0  0  0  0
 27 26  1  0  0  0  0
 29 27  1  1  0  0  0
 29 33  1  0  0  0  0
 30 28  1  6  0  0  0
 30 29  1  0  0  0  0
 30 34  1  0  0  0  0
 31 32  1  0  0  0  0
 33 32  1  0  0  0  0
 34 31  1  0  0  0  0
M  END
>  <MODEL>
2

>  <REMARK>
 VINA RESULT:      -8.1      1.121      1.604
  Name = 
  6 active torsions:
  status: ('A' for Active; 'I' for Inactive)
    1  A    between atoms: C_3  and  C_13
    2  A    between atoms: C_3  and  N_17
    3  A    between atoms: C_5  and  C_18
    4  A    between atoms: N_17  and  O_29
    5  A    between atoms: C_18  and  O_29
    6  A    between atoms: C_23  and  C_28
                            x       y       z     vdW  Elec       q    Type
                         _______ _______ _______ _____ _____    ______ ____

>  <TORSDO>
F 6

$$$$
=
 OpenBabel11062408043D

 34 40  0  0  1  0  0  0  0  0999 V2000
  162.1810  210.1380  150.6570 C   0  0  0  0  0  0  0  0  0  0  0  0
  161.4320  208.3180  149.2210 C   0  0  0  0  0  0  0  0  0  0  0  0
  161.5900  207.9900  151.6230 C   0  0  0  0  0  0  0  0  0  0  0  0
  160.8480  205.8090  152.6840 C   0  0  1  0  0  3  0  0  0  0  0  0
  162.0970  210.4380  148.2540 C   0  0  0  0  0  3  0  0  0  0  0  0
  161.6290  209.1280  148.0990 C   0  0  0  0  0  3  0  0  0  0  0  0
  160.4420  206.2890  150.2070 C   0  0  0  0  0  2  0  0  0  0  0  0
  161.7330  208.8130  150.4990 C   0  0  0  0  0  0  0  0  0  0  0  0
  162.3680  210.9450  149.5310 C   0  0  0  0  0  3  0  0  0  0  0  0
  161.8350  208.5240  152.9030 C   0  0  0  0  0  0  0  0  0  0  0  0
  162.4410  210.6190  151.9010 N   0  0  0  0  0  0  0  0  0  0  0  0
  160.9300  207.0180  149.0780 O   0  0  0  0  0  0  0  0  0  0  0  0
  161.7220  206.2180  153.8660 C   0  0  0  0  0  2  0  0  0  0  0  0
  161.5810  207.7160  154.1550 C   0  0  2  0  0  3  0  0  0  0  0  0
  161.3590  206.5050  151.4160 C   0  0  1  0  0  3  0  0  0  0  0  0
  162.2720  209.8520  153.0120 C   0  0  0  0  0  3  0  0  0  0  0  0
  160.0270  209.4170  155.2280 C   0  0  0  0  0  0  0  0  0  0  0  0
  160.2700  209.6560  156.9670 S   0  0  0  0  0  0  0  0  0  0  0  0
  159.8790  207.0980  155.9790 C   0  0  1  0  0  3  0  0  0  0  0  0
  159.7790  207.9280  157.2610 C   0  0  1  0  0  3  0  0  0  0  0  0
  160.1990  208.0080  154.7830 C   0  0  2  0  0  3  0  0  0  0  0  0
  160.9850  207.0470  157.0220 C   0  0  0  0  0  2  0  0  0  0  0  0
  159.1680  210.1970  154.5800 C   0  0  0  0  0  2  0  0  0  0  0  0
  160.9090  204.2920  152.5510 C   0  0  0  0  0  2  0  0  0  0  0  0
  161.9310  203.9120  151.6760 O   0  0  0  0  0  0  0  0  0  0  0  0
  161.6460  202.6290  151.3440 N   0  0  0  0  0  2  0  0  0  0  0  0
  160.5920  202.6740  150.3470 C   0  0  0  0  0  2  0  0  0  0  0  0
  161.6010  200.3690  148.2210 O   0  0  0  0  0  1  0  0  0  0  0  0
  161.1960  202.6300  148.9550 C   0  0  1  0  0  3  0  0  0  0  0  0
  160.6630  201.4040  148.1950 C   0  0  1  0  0  3  0  0  0  0  0  0
  161.3330  202.4640  146.2580 C   0  0  0  0  0  2  0  0  0  0  0  0
  161.6020  203.7660  147.0370 C   0  0  0  0  0  2  0  0  0  0  0  0
  160.8810  203.8060  148.2470 O   0  0  0  0  0  0  0  0  0  0  0  0
  160.3000  201.7150  146.8610 O   0  0  0  0  0  0  0  0  0  0  0  0
  1 11  1  0  0  0  0
  2  8  1  0  0  0  0
  3 10  2  0  0  0  0
  4 24  1  6  0  0  0
  4 13  1  0  0  0  0
  5  9  2  0  0  0  0
  6  5  1  0  0  0  0
  6  2  2  0  0  0  0
  8  1  2  0  0  0  0
  8  3  1  0  0  0  0
  9  1  1  0  0  0  0
 10 16  1  0  0  0  0
 10 14  1  0  0  0  0
 11 16  2  0  0  0  0
 12  2  1  0  0  0  0
 12  7  1  0  0  0  0
 14 13  1  6  0  0  0
 14 21  1  0  0  0  0
 15  7  1  6  0  0  0
 15  3  1  0  0  0  0
 15  4  1  0  0  0  0
 17 18  1  0  0  0  0
 18 20  1  0  0  0  0
 19 22  1  1  0  0  0
 19 20  1  0  0  0  0
 20 22  1  1  0  0  0
 21 17  1  1  0  0  0
 21 19  1  0  0  0  0
 23 17  2  0  0  0  0
 25 24  1  0  0  0  0
 26 25  1  0  0  0  0
 27 26  1  0  0  0  0
 29 27  1  1  0  0  0
 30 28  1  6  0  0  0
 30 29  1  0  0  0  0
 31 34  1  0  0  0  0
 31 32  1  0  0  0  0
 32 33  1  0  0  0  0
 33 29  1  0  0  0  0
 34 30  1  0  0  0  0
M  END
>  <MODEL>
3

>  <REMARK>
 VINA RESULT:      -6.7      3.852      7.901
  Name = 
  6 active torsions:
  status: ('A' for Active; 'I' for Inactive)
    1  A    between atoms: C_3  and  C_13
    2  A    between atoms: C_3  and  N_17
    3  A    between atoms: C_5  and  C_18
    4  A    between atoms: N_17  and  O_29
    5  A    between atoms: C_18  and  O_29
    6  A    between atoms: C_23  and  C_28
                            x       y       z     vdW  Elec       q    Type
                         _______ _______ _______ _____ _____    ______ ____

>  <TORSDO>
F 6

$$$$
=
 OpenBabel11062408043D

 34 40  0  0  1  0  0  0  0  0999 V2000
  161.7890  204.2110  146.9730 C   0  0  0  0  0  0  0  0  0  0  0  0
  160.6850  202.8280  148.6490 C   0  0  0  0  0  0  0  0  0  0  0  0
  161.6900  204.9460  149.2860 C   0  0  0  0  0  0  0  0  0  0  0  0
  161.4860  205.8140  151.6600 C   0  0  1  0  0  3  0  0  0  0  0  0
  160.8530  202.0630  146.3550 C   0  0  0  0  0  3  0  0  0  0  0  0
  160.4320  201.8570  147.6740 C   0  0  0  0  0  3  0  0  0  0  0  0
  160.2140  203.7360  150.8900 C   0  0  0  0  0  2  0  0  0  0  0  0
  161.3860  203.9930  148.3040 C   0  0  0  0  0  0  0  0  0  0  0  0
  161.5250  203.2400  146.0030 C   0  0  0  0  0  3  0  0  0  0  0  0
  162.3390  206.1390  148.9100 C   0  0  0  0  0  0  0  0  0  0  0  0
  162.4410  205.3570  146.6430 N   0  0  0  0  0  0  0  0  0  0  0  0
  160.2360  202.6470  149.9620 O   0  0  0  0  0  0  0  0  0  0  0  0
  162.6950  206.6830  151.3260 C   0  0  0  0  0  2  0  0  0  0  0  0
  162.5830  207.2490  149.9060 C   0  0  2  0  0  3  0  0  0  0  0  0
  161.4820  204.5840  150.7440 C   0  0  1  0  0  3  0  0  0  0  0  0
  162.7130  206.3150  147.5710 C   0  0  0  0  0  3  0  0  0  0  0  0
  161.8620  209.5200  149.0220 C   0  0  0  0  0  0  0  0  0  0  0  0
  162.4560  210.9060  149.9540 S   0  0  0  0  0  0  0  0  0  0  0  0
  161.1010  208.8650  151.2480 C   0  0  1  0  0  3  0  0  0  0  0  0
  161.4900  210.3380  151.3890 C   0  0  1  0  0  3  0  0  0  0  0  0
  161.4940  208.3450  149.8560 C   0  0  2  0  0  3  0  0  0  0  0  0
  162.2900  209.2730  152.1060 C   0  0  0  0  0  2  0  0  0  0  0  0
  161.2060  209.7360  147.8870 C   0  0  0  0  0  2  0  0  0  0  0  0
  161.5800  205.4160  153.1290 C   0  0  0  0  0  2  0  0  0  0  0  0
  161.7220  206.5450  153.9400 O   0  0  0  0  0  0  0  0  0  0  0  0
  160.4560  206.9040  154.2640 N   0  0  0  0  0  2  0  0  0  0  0  0
  160.4780  207.3250  155.6530 C   0  0  0  0  0  2  0  0  0  0  0  0
  159.9720  210.4030  154.5950 O   0  0  0  0  0  1  0  0  0  0  0  0
  161.1680  208.6720  155.7730 C   0  0  1  0  0  3  0  0  0  0  0  0
  160.1160  209.7910  155.8430 C   0  0  1  0  0  3  0  0  0  0  0  0
  161.7750  211.1310  156.7250 C   0  0  0  0  0  2  0  0  0  0  0  0
  162.7060  209.9140  156.8810 C   0  0  0  0  0  2  0  0  0  0  0  0
  161.9800  208.7060  156.9230 O   0  0  0  0  0  0  0  0  0  0  0  0
  160.4190  210.7530  156.8380 O   0  0  0  0  0  0  0  0  0  0  0  0
  1  8  1  0  0  0  0
  2 12  1  0  0  0  0
  3 15  1  0  0  0  0
  4 24  1  1  0  0  0
  5  6  1  0  0  0  0
  6  2  2  0  0  0  0
  8  2  1  0  0  0  0
  8  3  2  0  0  0  0
  9  5  2  0  0  0  0
  9  1  1  0  0  0  0
 10  3  1  0  0  0  0
 10 14  1  0  0  0  0
 11  1  2  0  0  0  0
 11 16  1  0  0  0  0
 12  7  1  0  0  0  0
 13  4  1  0  0  0  0
 14 13  1  1  0  0  0
 15  7  1  6  0  0  0
 15  4  1  0  0  0  0
 16 10  2  0  0  0  0
 17 18  1  0  0  0  0
 18 20  1  0  0  0  0
 19 20  1  0  0  0  0
 19 22  1  1  0  0  0
 20 22  1  1  0  0  0
 21 17  1  6  0  0  0
 21 14  1  0  0  0  0
 21 19  1  0  0  0  0
 23 17  2  0  0  0  0
 24 25  1  0  0  0  0
 25 26  1  0  0  0  0
 26 27  1  0  0  0  0
 29 27  1  1  0  0  0
 29 30  1  0  0  0  0
 29 33  1  0  0  0  0
 30 28  1  6  0  0  0
 30 34  1  0  0  0  0
 31 34  1  0  0  0  0
 31 32  1  0  0  0  0
 32 33  1  0  0  0  0
M  END
>  <MODEL>
4

>  <REMARK>
 VINA RESULT:      -6.6      3.866      7.975
  Name = 
  6 active torsions:
  status: ('A' for Active; 'I' for Inactive)
    1  A    between atoms: C_3  and  C_13
    2  A    between atoms: C_3  and  N_17
    3  A    between atoms: C_5  and  C_18
    4  A    between atoms: N_17  and  O_29
    5  A    between atoms: C_18  and  O_29
    6  A    between atoms: C_23  and  C_28
                            x       y       z     vdW  Elec       q    Type
                         _______ _______ _______ _____ _____    ______ ____

>  <TORSDO>
F 6

$$$$
=
 OpenBabel11062408043D

 34 40  0  0  1  0  0  0  0  0999 V2000
  159.9410  210.8650  154.6290 C   0  0  0  0  0  0  0  0  0  0  0  0
  160.6760  209.1490  156.1960 C   0  0  0  0  0  0  0  0  0  0  0  0
  160.6180  208.6800  153.8120 C   0  0  0  0  0  0  0  0  0  0  0  0
  161.4490  206.4610  152.9090 C   0  0  1  0  0  3  0  0  0  0  0  0
  159.9270  211.3050  157.0120 C   0  0  0  0  0  3  0  0  0  0  0  0
  160.4180  210.0180  157.2610 C   0  0  0  0  0  3  0  0  0  0  0  0
  161.7490  207.0920  155.3670 C   0  0  0  0  0  2  0  0  0  0  0  0
  160.4130  209.5630  154.8810 C   0  0  0  0  0  0  0  0  0  0  0  0
  159.6940  211.7310  155.6980 C   0  0  0  0  0  3  0  0  0  0  0  0
  160.4100  209.1340  152.4950 C   0  0  0  0  0  0  0  0  0  0  0  0
  159.7180  211.2670  153.3500 N   0  0  0  0  0  0  0  0  0  0  0  0
  161.2020  207.8730  156.4320 O   0  0  0  0  0  0  0  0  0  0  0  0
  160.6120  206.7790  151.6730 C   0  0  0  0  0  2  0  0  0  0  0  0
  160.7300  208.2620  151.3030 C   0  0  2  0  0  3  0  0  0  0  0  0
  160.8750  207.2160  154.1140 C   0  0  1  0  0  3  0  0  0  0  0  0
  159.9470  210.4410  152.2930 C   0  0  0  0  0  3  0  0  0  0  0  0
  162.3390  209.9750  150.3390 C   0  0  0  0  0  0  0  0  0  0  0  0
  162.1300  210.3060  148.6100 S   0  0  0  0  0  0  0  0  0  0  0  0
  162.4460  207.6940  149.4750 C   0  0  1  0  0  3  0  0  0  0  0  0
  162.5850  208.5840  148.2380 C   0  0  1  0  0  3  0  0  0  0  0  0
  162.1280  208.5510  150.7110 C   0  0  2  0  0  3  0  0  0  0  0  0
  161.3550  207.7210  148.4150 C   0  0  0  0  0  2  0  0  0  0  0  0
  163.2060  210.7020  151.0370 C   0  0  0  0  0  2  0  0  0  0  0  0
  161.4170  204.9530  153.1280 C   0  0  0  0  0  2  0  0  0  0  0  0
  161.8340  204.2760  151.9780 O   0  0  0  0  0  0  0  0  0  0  0  0
  161.0990  203.1380  151.9570 N   0  0  0  0  0  2  0  0  0  0  0  0
  160.2190  203.2230  150.8060 C   0  0  0  0  0  2  0  0  0  0  0  0
  161.5420  200.8170  148.9870 O   0  0  0  0  0  1  0  0  0  0  0  0
  161.0300  203.1100  149.5270 C   0  0  1  0  0  3  0  0  0  0  0  0
  160.6200  201.8420  148.7610 C   0  0  1  0  0  3  0  0  0  0  0  0
  161.5810  202.8030  146.8960 C   0  0  0  0  0  2  0  0  0  0  0  0
  161.7280  204.1460  147.6370 C   0  0  0  0  0  2  0  0  0  0  0  0
  160.8290  204.2450  148.7180 O   0  0  0  0  0  0  0  0  0  0  0  0
  160.4660  202.0780  147.3730 O   0  0  0  0  0  0  0  0  0  0  0  0
  1  8  1  0  0  0  0
  1  9  2  0  0  0  0
  2 12  1  0  0  0  0
  2  6  1  0  0  0  0
  3 15  1  0  0  0  0
  3  8  1  0  0  0  0
  4 24  1  1  0  0  0
  4 15  1  0  0  0  0
  5  6  2  0  0  0  0
  7 12  1  0  0  0  0
  8  2  2  0  0  0  0
  9  5  1  0  0  0  0
 10  3  2  0  0  0  0
 11  1  1  0  0  0  0
 13  4  1  0  0  0  0
 14 13  1  1  0  0  0
 14 10  1  0  0  0  0
 15  7  1  1  0  0  0
 16 10  1  0  0  0  0
 16 11  2  0  0  0  0
 17 23  2  0  0  0  0
 18 17  1  0  0  0  0
 19 22  1  6  0  0  0
 19 21  1  0  0  0  0
 20 22  1  6  0  0  0
 20 18  1  0  0  0  0
 20 19  1  0  0  0  0
 21 17  1  6  0  0  0
 21 14  1  0  0  0  0
 25 24  1  0  0  0  0
 26 25  1  0  0  0  0
 27 26  1  0  0  0  0
 29 27  1  1  0  0  0
 30 28  1  6  0  0  0
 30 29  1  0  0  0  0
 31 34  1  0  0  0  0
 31 32  1  0  0  0  0
 32 33  1  0  0  0  0
 33 29  1  0  0  0  0
 34 30  1  0  0  0  0
M  END
>  <MODEL>
5

>  <REMARK>
 VINA RESULT:      -6.3      4.149      6.536
  Name = 
  6 active torsions:
  status: ('A' for Active; 'I' for Inactive)
    1  A    between atoms: C_3  and  C_13
    2  A    between atoms: C_3  and  N_17
    3  A    between atoms: C_5  and  C_18
    4  A    between atoms: N_17  and  O_29
    5  A    between atoms: C_18  and  O_29
    6  A    between atoms: C_23  and  C_28
                            x       y       z     vdW  Elec       q    Type
                         _______ _______ _______ _____ _____    ______ ____

>  <TORSDO>
F 6

$$$$
=
 OpenBabel11062408043D

 34 40  0  0  1  0  0  0  0  0999 V2000
  160.7150  203.5180  149.0950 C   0  0  0  0  0  0  0  0  0  0  0  0
  161.9450  204.4590  147.2140 C   0  0  0  0  0  0  0  0  0  0  0  0
  161.2400  205.8890  149.0480 C   0  0  0  0  0  0  0  0  0  0  0  0
  161.8890  208.3390  149.1030 C   0  0  1  0  0  3  0  0  0  0  0  0
  161.3520  202.1090  147.2290 C   0  0  0  0  0  3  0  0  0  0  0  0
  161.9560  203.2040  146.5990 C   0  0  0  0  0  3  0  0  0  0  0  0
  162.8390  206.7510  147.3410 C   0  0  0  0  0  2  0  0  0  0  0  0
  161.3020  204.6230  148.4500 C   0  0  0  0  0  0  0  0  0  0  0  0
  160.7370  202.2640  148.4780 C   0  0  0  0  0  3  0  0  0  0  0  0
  160.6460  206.0220  150.3180 C   0  0  0  0  0  0  0  0  0  0  0  0
  160.1210  203.6790  150.3070 N   0  0  0  0  0  0  0  0  0  0  0  0
  162.5780  205.5510  146.6080 O   0  0  0  0  0  0  0  0  0  0  0  0
  160.7230  208.5100  150.0720 C   0  0  0  0  0  2  0  0  0  0  0  0
  160.6590  207.3390  151.0590 C   0  0  2  0  0  3  0  0  0  0  0  0
  161.6420  207.1010  148.2320 C   0  0  1  0  0  3  0  0  0  0  0  0
  160.0820  204.8910  150.9260 C   0  0  0  0  0  3  0  0  0  0  0  0
  161.7840  206.3880  153.1290 C   0  0  0  0  0  0  0  0  0  0  0  0
  161.0960  206.9330  154.6690 S   0  0  0  0  0  0  0  0  0  0  0  0
  161.8800  208.8040  152.7820 C   0  0  1  0  0  3  0  0  0  0  0  0
  161.6020  208.6370  154.2780 C   0  0  1  0  0  3  0  0  0  0  0  0
  161.8170  207.4390  152.0780 C   0  0  2  0  0  3  0  0  0  0  0  0
  160.5510  209.2470  153.3760 C   0  0  0  0  0  2  0  0  0  0  0  0
  162.7290  205.4540  153.1360 C   0  0  0  0  0  2  0  0  0  0  0  0
  161.9940  209.6040  148.2600 C   0  0  0  0  0  2  0  0  0  0  0  0
  161.9580  210.7440  149.0690 O   0  0  0  0  0  0  0  0  0  0  0  0
  162.3970  211.7500  148.2740 N   0  0  0  0  0  2  0  0  0  0  0  0
  161.6040  212.9220  148.5990 C   0  0  0  0  0  2  0  0  0  0  0  0
  162.1400  214.4120  145.7100 O   0  0  0  0  0  1  0  0  0  0  0  0
  160.7830  213.3400  147.3920 C   0  0  1  0  0  3  0  0  0  0  0  0
  161.6210  213.1780  146.1130 C   0  0  1  0  0  3  0  0  0  0  0  0
  159.6290  213.2160  144.9480 C   0  0  0  0  0  2  0  0  0  0  0  0
  158.8320  213.1090  146.2630 C   0  0  0  0  0  2  0  0  0  0  0  0
  159.6140  212.5610  147.3010 O   0  0  0  0  0  0  0  0  0  0  0  0
  160.8840  212.5800  145.0600 O   0  0  0  0  0  0  0  0  0  0  0  0
  1 11  1  0  0  0  0
  2  8  1  0  0  0  0
  3 10  2  0  0  0  0
  4 24  1  6  0  0  0
  4 13  1  0  0  0  0
  5  9  2  0  0  0  0
  6  2  2  0  0  0  0
  6  5  1  0  0  0  0
  8  3  1  0  0  0  0
  8  1  2  0  0  0  0
  9  1  1  0  0  0  0
 10 16  1  0  0  0  0
 10 14  1  0  0  0  0
 11 16  2  0  0  0  0
 12  2  1  0  0  0  0
 12  7  1  0  0  0  0
 14 13  1  6  0  0  0
 14 21  1  0  0  0  0
 15  7  1  1  0  0  0
 15  3  1  0  0  0  0
 15  4  1  0  0  0  0
 17 23  2  0  0  0  0
 17 18  1  0  0  0  0
 19 22  1  6  0  0  0
 19 20  1  0  0  0  0
 20 22  1  6  0  0  0
 20 18  1  0  0  0  0
 21 19  1  0  0  0  0
 21 17  1  1  0  0  0
 24 25  1  0  0  0  0
 26 27  1  0  0  0  0
 26 25  1  0  0  0  0
 29 27  1  1  0  0  0
 30 28  1  6  0  0  0
 30 29  1  0  0  0  0
 31 34  1  0  0  0  0
 31 32  1  0  0  0  0
 32 33  1  0  0  0  0
 33 29  1  0  0  0  0
 34 30  1  0  0  0  0
M  END
>  <MODEL>
6

>  <REMARK>
 VINA RESULT:      -5.8      2.137      5.247
  Name = 
  6 active torsions:
  status: ('A' for Active; 'I' for Inactive)
    1  A    between atoms: C_3  and  C_13
    2  A    between atoms: C_3  and  N_17
    3  A    between atoms: C_5  and  C_18
    4  A    between atoms: N_17  and  O_29
    5  A    between atoms: C_18  and  O_29
    6  A    between atoms: C_23  and  C_28
                            x       y       z     vdW  Elec       q    Type
                         _______ _______ _______ _____ _____    ______ ____

>  <TORSDO>
F 6

$$$$
=
 OpenBabel11062408043D

 34 40  0  0  1  0  0  0  0  0999 V2000
  161.1910  208.0130  155.2880 C   0  0  0  0  0  0  0  0  0  0  0  0
  160.2600  210.2370  154.9320 C   0  0  0  0  0  0  0  0  0  0  0  0
  161.2130  209.0010  153.0700 C   0  0  0  0  0  0  0  0  0  0  0  0
  161.1280  209.9390  150.7150 C   0  0  1  0  0  3  0  0  0  0  0  0
  160.3100  209.2790  157.1580 C   0  0  0  0  0  3  0  0  0  0  0  0
  159.9870  210.3360  156.3000 C   0  0  0  0  0  3  0  0  0  0  0  0
  159.8990  211.0770  152.6450 C   0  0  0  0  0  2  0  0  0  0  0  0
  160.8860  209.0860  154.4300 C   0  0  0  0  0  0  0  0  0  0  0  0
  160.9060  208.1160  156.6530 C   0  0  0  0  0  3  0  0  0  0  0  0
  161.7830  207.8130  152.5720 C   0  0  0  0  0  0  0  0  0  0  0  0
  161.7690  206.8900  154.7880 N   0  0  0  0  0  0  0  0  0  0  0  0
  159.9070  211.2740  154.0610 O   0  0  0  0  0  0  0  0  0  0  0  0
  162.2730  208.9770  150.4120 C   0  0  0  0  0  2  0  0  0  0  0  0
  162.0430  207.6240  151.0950 C   0  0  2  0  0  3  0  0  0  0  0  0
  161.1170  210.2510  152.2170 C   0  0  1  0  0  3  0  0  0  0  0  0
  162.0600  206.7670  153.4640 C   0  0  0  0  0  3  0  0  0  0  0  0
  161.0570  205.3770  150.4340 C   0  0  0  0  0  0  0  0  0  0  0  0
  161.7340  204.6720  148.9550 S   0  0  0  0  0  0  0  0  0  0  0  0
  160.7430  207.2580  148.9080 C   0  0  1  0  0  3  0  0  0  0  0  0
  161.0730  206.0720  147.9990 C   0  0  1  0  0  3  0  0  0  0  0  0
  160.9060  206.8560  150.3820 C   0  0  2  0  0  3  0  0  0  0  0  0
  162.0430  207.2260  148.1180 C   0  0  0  0  0  2  0  0  0  0  0  0
  160.1970  204.6660  151.1560 C   0  0  0  0  0  2  0  0  0  0  0  0
  161.3350  211.1990  149.8840 C   0  0  0  0  0  2  0  0  0  0  0  0
  162.6740  211.3270  149.5020 O   0  0  0  0  0  0  0  0  0  0  0  0
  162.6360  211.5410  148.1640 N   0  0  0  0  0  2  0  0  0  0  0  0
  161.3470  212.1400  147.8680 C   0  0  0  0  0  2  0  0  0  0  0  0
  158.9660  212.6820  145.6580 O   0  0  0  0  0  1  0  0  0  0  0  0
  161.2530  212.4570  146.3870 C   0  0  1  0  0  3  0  0  0  0  0  0
  160.0670  213.4010  146.1310 C   0  0  1  0  0  3  0  0  0  0  0  0
  161.0670  213.9170  144.1160 C   0  0  0  0  0  2  0  0  0  0  0  0
  162.3480  213.1720  144.5360 C   0  0  0  0  0  2  0  0  0  0  0  0
  162.4460  213.0550  145.9380 O   0  0  0  0  0  0  0  0  0  0  0  0
  160.3980  214.4510  145.2390 O   0  0  0  0  0  0  0  0  0  0  0  0
  1  9  2  0  0  0  0
  2  6  1  0  0  0  0
  3  8  1  0  0  0  0
  4 24  1  6  0  0  0
  4 15  1  0  0  0  0
  6  5  2  0  0  0  0
  7 12  1  0  0  0  0
  8  2  2  0  0  0  0
  8  1  1  0  0  0  0
  9  5  1  0  0  0  0
 10  3  2  0  0  0  0
 10 16  1  0  0  0  0
 11  1  1  0  0  0  0
 12  2  1  0  0  0  0
 13  4  1  0  0  0  0
 14 13  1  6  0  0  0
 14 10  1  0  0  0  0
 15  7  1  1  0  0  0
 15  3  1  0  0  0  0
 16 11  2  0  0  0  0
 17 23  2  0  0  0  0
 18 17  1  0  0  0  0
 19 22  1  6  0  0  0
 19 21  1  0  0  0  0
 20 22  1  6  0  0  0
 20 19  1  0  0  0  0
 20 18  1  0  0  0  0
 21 17  1  6  0  0  0
 21 14  1  0  0  0  0
 25 24  1  0  0  0  0
 26 25  1  0  0  0  0
 27 26  1  0  0  0  0
 29 27  1  1  0  0  0
 30 28  1  6  0  0  0
 30 29  1  0  0  0  0
 31 32  1  0  0  0  0
 31 34  1  0  0  0  0
 32 33  1  0  0  0  0
 33 29  1  0  0  0  0
 34 30  1  0  0  0  0
M  END
>  <MODEL>
7

>  <REMARK>
 VINA RESULT:      -5.6      1.075      1.515
  Name = 
  6 active torsions:
  status: ('A' for Active; 'I' for Inactive)
    1  A    between atoms: C_3  and  C_13
    2  A    between atoms: C_3  and  N_17
    3  A    between atoms: C_5  and  C_18
    4  A    between atoms: N_17  and  O_29
    5  A    between atoms: C_18  and  O_29
    6  A    between atoms: C_23  and  C_28
                            x       y       z     vdW  Elec       q    Type
                         _______ _______ _______ _____ _____    ______ ____

>  <TORSDO>
F 6

$$$$
=
 OpenBabel11062408043D

 34 40  0  0  1  0  0  0  0  0999 V2000
  160.7450  208.3970  155.6670 C   0  0  0  0  0  0  0  0  0  0  0  0
  160.2730  210.3350  154.2670 C   0  0  0  0  0  0  0  0  0  0  0  0
  161.1470  208.2970  153.2740 C   0  0  0  0  0  0  0  0  0  0  0  0
  161.4480  208.1050  150.7640 C   0  0  1  0  0  3  0  0  0  0  0  0
  159.9460  210.4560  156.6660 C   0  0  0  0  0  3  0  0  0  0  0  0
  159.9000  211.0600  155.4030 C   0  0  0  0  0  3  0  0  0  0  0  0
  160.2800  210.1210  151.8130 C   0  0  0  0  0  2  0  0  0  0  0  0
  160.7210  209.0120  154.4010 C   0  0  0  0  0  0  0  0  0  0  0  0
  160.3620  209.1250  156.7980 C   0  0  0  0  0  3  0  0  0  0  0  0
  161.5320  206.9500  153.4190 C   0  0  0  0  0  0  0  0  0  0  0  0
  161.1510  207.1060  155.7840 N   0  0  0  0  0  0  0  0  0  0  0  0
  160.1960  210.9190  152.9970 O   0  0  0  0  0  0  0  0  0  0  0  0
  162.4200  206.9720  151.0800 C   0  0  0  0  0  2  0  0  0  0  0  0
  161.8860  206.1000  152.2210 C   0  0  2  0  0  3  0  0  0  0  0  0
  161.3590  209.0450  151.9720 C   0  0  1  0  0  3  0  0  0  0  0  0
  161.5320  206.3780  154.6990 C   0  0  0  0  0  3  0  0  0  0  0  0
  160.6710  203.8690  152.2840 C   0  0  0  0  0  0  0  0  0  0  0  0
  161.3200  202.6340  151.1900 S   0  0  0  0  0  0  0  0  0  0  0  0
  160.6420  205.1280  150.1920 C   0  0  1  0  0  3  0  0  0  0  0  0
  160.8660  203.6750  149.7680 C   0  0  1  0  0  3  0  0  0  0  0  0
  160.6970  205.2460  151.7240 C   0  0  2  0  0  3  0  0  0  0  0  0
  161.9600  204.7000  149.5640 C   0  0  0  0  0  2  0  0  0  0  0  0
  159.7050  203.5370  153.1350 C   0  0  0  0  0  2  0  0  0  0  0  0
  161.9560  208.8340  149.5250 C   0  0  0  0  0  2  0  0  0  0  0  0
  162.6850  207.9690  148.7050 O   0  0  0  0  0  0  0  0  0  0  0  0
  161.7850  207.4930  147.8110 N   0  0  0  0  0  2  0  0  0  0  0  0
  162.5210  206.6750  146.8640 C   0  0  0  0  0  2  0  0  0  0  0  0
  159.6830  206.2030  145.2610 O   0  0  0  0  0  1  0  0  0  0  0  0
  161.6690  205.4960  146.4300 C   0  0  1  0  0  3  0  0  0  0  0  0
  161.0080  205.8020  145.0760 C   0  0  1  0  0  3  0  0  0  0  0  0
  160.6810  203.5280  144.8580 C   0  0  0  0  0  2  0  0  0  0  0  0
  161.5800  203.2580  146.0800 C   0  0  0  0  0  2  0  0  0  0  0  0
  162.4580  204.3340  146.3260 O   0  0  0  0  0  0  0  0  0  0  0  0
  161.0770  204.7030  144.1840 O   0  0  0  0  0  0  0  0  0  0  0  0
  1 11  1  0  0  0  0
  1  9  2  0  0  0  0
  2  8  2  0  0  0  0
  2  6  1  0  0  0  0
  3 10  2  0  0  0  0
  3  8  1  0  0  0  0
  4 24  1  6  0  0  0
  4 13  1  0  0  0  0
  4 15  1  0  0  0  0
  5  9  1  0  0  0  0
  6  5  2  0  0  0  0
  7 12  1  0  0  0  0
  8  1  1  0  0  0  0
 10 16  1  0  0  0  0
 12  2  1  0  0  0  0
 14 13  1  6  0  0  0
 14 10  1  0  0  0  0
 15  7  1  6  0  0  0
 15  3  1  0  0  0  0
 16 11  2  0  0  0  0
 17 23  2  0  0  0  0
 18 17  1  0  0  0  0
 19 22  1  6  0  0  0
 19 21  1  0  0  0  0
 20 22  1  6  0  0  0
 20 19  1  0  0  0  0
 20 18  1  0  0  0  0
 21 14  1  0  0  0  0
 21 17  1  1  0  0  0
 25 24  1  0  0  0  0
 26 25  1  0  0  0  0
 27 26  1  0  0  0  0
 29 27  1  6  0  0  0
 30 28  1  1  0  0  0
 30 29  1  0  0  0  0
 31 32  1  0  0  0  0
 32 33  1  0  0  0  0
 33 29  1  0  0  0  0
 34 31  1  0  0  0  0
 34 30  1  0  0  0  0
M  END
>  <MODEL>
8

>  <REMARK>
 VINA RESULT:      -5.5      3.243      4.507
  Name = 
  6 active torsions:
  status: ('A' for Active; 'I' for Inactive)
    1  A    between atoms: C_3  and  C_13
    2  A    between atoms: C_3  and  N_17
    3  A    between atoms: C_5  and  C_18
    4  A    between atoms: N_17  and  O_29
    5  A    between atoms: C_18  and  O_29
    6  A    between atoms: C_23  and  C_28
                            x       y       z     vdW  Elec       q    Type
                         _______ _______ _______ _____ _____    ______ ____

>  <TORSDO>
F 6

$$$$
