=
 OpenBabel11052422513D

 28 30  0  0  1  0  0  0  0  0999 V2000
  159.8320  210.4260  154.5680 C   0  0  2  0  0  3  0  0  0  0  0  0
  161.2000  207.3370  157.2080 O   0  0  0  0  0  1  0  0  0  0  0  0
  161.8490  207.9070  152.3560 C   0  0  1  0  0  3  0  0  0  0  0  0
  160.4280  207.9610  155.0160 C   0  0  1  0  0  3  0  0  0  0  0  0
  161.5850  209.2120  153.1290 C   0  0  0  0  0  2  0  0  0  0  0  0
  160.6600  209.6320  156.9120 C   0  0  0  0  0  2  0  0  0  0  0  0
  161.0540  206.6840  154.4140 C   0  0  0  0  0  2  0  0  0  0  0  0
  161.2250  208.3700  156.2690 C   0  0  1  0  0  3  0  0  0  0  0  0
  161.0720  206.6890  152.8830 C   0  0  0  0  0  2  0  0  0  0  0  0
  160.9690  211.0680  155.8410 S   0  0  0  0  0  0  0  0  0  0  0  0
  160.3160  209.0970  153.9760 C   0  0  2  0  0  3  0  0  0  0  0  0
  159.4930  211.4380  153.5050 C   0  0  0  0  0  0  0  0  0  0  0  0
  160.3890  211.6740  152.4480 C   0  0  0  0  0  3  0  0  0  0  0  0
  157.9400  213.0280  152.5020 C   0  0  0  0  0  0  0  0  0  0  0  0
  160.0710  212.5800  151.4380 C   0  0  0  0  0  3  0  0  0  0  0  0
  157.2680  211.8500  154.6270 C   0  0  0  0  0  1  0  0  0  0  0  0
  158.2530  212.1130  153.5280 C   0  0  0  0  0  0  0  0  0  0  0  0
  156.6400  213.7660  152.4830 C   0  0  0  0  0  1  0  0  0  0  0  0
  158.8510  213.2560  151.4680 C   0  0  0  0  0  3  0  0  0  0  0  0
  161.6540  208.0840  150.9160 N   0  0  0  0  0  0  0  0  0  0  0  0
  160.7520  207.3590  148.8730 O   0  0  0  0  0  0  0  0  0  0  0  0
  161.0750  207.0750  150.0600 C   0  0  0  0  0  0  0  0  0  0  0  0
  161.9710  209.3460  150.3840 C   0  0  0  0  0  0  0  0  0  0  0  0
  162.2470  210.4250  149.9240 C   0  0  0  0  0  3  0  0  0  0  0  0
  160.8800  205.6700  150.5310 C   0  0  0  0  0  2  0  0  0  0  0  0
  160.9200  203.4170  149.5720 C   0  0  0  0  0  3  0  0  0  0  0  0
  160.9270  204.7330  149.3730 C   0  0  0  0  0  3  0  0  0  0  0  0
  160.9610  202.4910  148.4050 C   0  0  0  0  0  1  0  0  0  0  0  0
  1 12  1  6  0  0  0
  1 10  1  0  0  0  0
  3 20  1  6  0  0  0
  3  9  1  0  0  0  0
  3  5  1  0  0  0  0
  4  7  1  6  0  0  0
  4  8  1  0  0  0  0
  8  6  1  0  0  0  0
  8  2  1  1  0  0  0
  9  7  1  0  0  0  0
 10  6  1  0  0  0  0
 11  5  1  1  0  0  0
 11  1  1  0  0  0  0
 11  4  1  0  0  0  0
 12 17  1  0  0  0  0
 13 12  2  0  0  0  0
 14 17  2  0  0  0  0
 15 19  2  0  0  0  0
 15 13  1  0  0  0  0
 17 16  1  0  0  0  0
 18 14  1  0  0  0  0
 19 14  1  0  0  0  0
 21 22  2  0  0  0  0
 22 25  1  0  0  0  0
 22 20  1  0  0  0  0
 23 20  1  0  0  0  0
 24 23  3  0  0  0  0
 27 26  2  0  0  0  0
 27 25  1  0  0  0  0
 28 26  1  0  0  0  0
M  END
>  <MODEL>
1

>  <REMARK>
 VINA RESULT:      -7.4      0.000      0.000
  Name = 
  5 active torsions:
  status: ('A' for Active; 'I' for Inactive)
    1  A    between atoms: C_1  and  C_2
    2  A    between atoms: C_4  and  N_13
    3  A    between atoms: C_9  and  C_15
    4  A    between atoms: C_9  and  C_18
    5  A    between atoms: C_10  and  N_13
                            x       y       z     vdW  Elec       q    Type
                         _______ _______ _______ _____ _____    ______ ____

>  <TORSDO>
F 5

$$$$
=
 OpenBabel11052422513D

 28 30  0  0  1  0  0  0  0  0999 V2000
  161.1900  211.0850  152.6050 C   0  0  2  0  0  3  0  0  0  0  0  0
  161.8070  211.7370  148.4120 O   0  0  0  0  0  1  0  0  0  0  0  0
  161.0180  207.5630  150.9100 C   0  0  1  0  0  3  0  0  0  0  0  0
  162.1120  210.3130  150.3270 C   0  0  1  0  0  3  0  0  0  0  0  0
  160.4730  208.8330  151.5890 C   0  0  0  0  0  2  0  0  0  0  0  0
  160.9350  212.5570  150.4650 C   0  0  0  0  0  2  0  0  0  0  0  0
  162.3420  209.0950  149.4060 C   0  0  0  0  0  2  0  0  0  0  0  0
  161.2060  211.3280  149.6040 C   0  0  1  0  0  3  0  0  0  0  0  0
  162.3460  207.7640  150.1610 C   0  0  0  0  0  2  0  0  0  0  0  0
  159.8720  212.1100  151.8700 S   0  0  0  0  0  0  0  0  0  0  0  0
  161.5660  209.8970  151.7110 C   0  0  2  0  0  3  0  0  0  0  0  0
  160.9020  210.6670  154.0230 C   0  0  0  0  0  0  0  0  0  0  0  0
  159.5790  210.4120  154.4250 C   0  0  0  0  0  3  0  0  0  0  0  0
  161.6670  210.0450  156.2530 C   0  0  0  0  0  0  0  0  0  0  0  0
  159.3020  209.9890  155.7230 C   0  0  0  0  0  3  0  0  0  0  0  0
  163.3770  210.7050  154.5230 C   0  0  0  0  0  1  0  0  0  0  0  0
  161.9560  210.4730  154.9410 C   0  0  0  0  0  0  0  0  0  0  0  0
  162.7490  209.8250  157.2600 C   0  0  0  0  0  1  0  0  0  0  0  0
  160.3440  209.8090  156.6340 C   0  0  0  0  0  3  0  0  0  0  0  0
  161.0970  206.4420  151.8490 N   0  0  0  0  0  0  0  0  0  0  0  0
  161.4200  204.1560  152.2770 O   0  0  0  0  0  0  0  0  0  0  0  0
  161.1540  205.0590  151.4350 C   0  0  0  0  0  0  0  0  0  0  0  0
  161.2150  206.7630  153.2120 C   0  0  0  0  0  0  0  0  0  0  0  0
  161.3100  207.0430  154.3810 C   0  0  0  0  0  3  0  0  0  0  0  0
  160.8640  204.6520  150.0270 C   0  0  0  0  0  2  0  0  0  0  0  0
  160.9150  202.5830  148.7190 C   0  0  0  0  0  3  0  0  0  0  0  0
  160.8670  203.1660  149.9150 C   0  0  0  0  0  3  0  0  0  0  0  0
  160.9240  201.0950  148.6210 C   0  0  0  0  0  1  0  0  0  0  0  0
  1 12  1  1  0  0  0
  3  5  1  0  0  0  0
  3 20  1  1  0  0  0
  4  7  1  6  0  0  0
  4 11  1  0  0  0  0
  6 10  1  0  0  0  0
  7  9  1  0  0  0  0
  8  2  1  6  0  0  0
  8  4  1  0  0  0  0
  8  6  1  0  0  0  0
  9  3  1  0  0  0  0
 10  1  1  0  0  0  0
 11  5  1  6  0  0  0
 11  1  1  0  0  0  0
 12 13  2  0  0  0  0
 12 17  1  0  0  0  0
 13 15  1  0  0  0  0
 14 19  1  0  0  0  0
 14 18  1  0  0  0  0
 15 19  2  0  0  0  0
 16 17  1  0  0  0  0
 17 14  2  0  0  0  0
 20 23  1  0  0  0  0
 22 20  1  0  0  0  0
 22 21  2  0  0  0  0
 23 24  3  0  0  0  0
 25 22  1  0  0  0  0
 26 27  2  0  0  0  0
 27 25  1  0  0  0  0
 28 26  1  0  0  0  0
M  END
>  <MODEL>
2

>  <REMARK>
 VINA RESULT:      -7.4      2.347      4.795
  Name = 
  5 active torsions:
  status: ('A' for Active; 'I' for Inactive)
    1  A    between atoms: C_1  and  C_2
    2  A    between atoms: C_4  and  N_13
    3  A    between atoms: C_9  and  C_15
    4  A    between atoms: C_9  and  C_18
    5  A    between atoms: C_10  and  N_13
                            x       y       z     vdW  Elec       q    Type
                         _______ _______ _______ _____ _____    ______ ____

>  <TORSDO>
F 5

$$$$
=
 OpenBabel11052422513D

 28 30  0  0  1  0  0  0  0  0999 V2000
  161.3450  211.1870  152.5190 C   0  0  2  0  0  3  0  0  0  0  0  0
  162.0560  211.4510  148.2990 O   0  0  0  0  0  1  0  0  0  0  0  0
  160.9650  207.5560  151.1140 C   0  0  1  0  0  3  0  0  0  0  0  0
  162.2430  210.1730  150.3280 C   0  0  1  0  0  3  0  0  0  0  0  0
  160.4960  208.9100  151.6770 C   0  0  0  0  0  2  0  0  0  0  0  0
  161.2140  212.4920  150.2620 C   0  0  0  0  0  2  0  0  0  0  0  0
  162.4040  208.8710  149.5140 C   0  0  0  0  0  2  0  0  0  0  0  0
  161.4150  211.1810  149.5090 C   0  0  1  0  0  3  0  0  0  0  0  0
  162.3120  207.6090  150.3750 C   0  0  0  0  0  2  0  0  0  0  0  0
  160.1060  212.2310  151.6800 S   0  0  0  0  0  0  0  0  0  0  0  0
  161.6540  209.9090  151.7320 C   0  0  2  0  0  3  0  0  0  0  0  0
  161.0120  210.9080  153.9610 C   0  0  0  0  0  0  0  0  0  0  0  0
  162.0400  210.6140  154.8740 C   0  0  0  0  0  3  0  0  0  0  0  0
  159.3950  210.7660  155.7800 C   0  0  0  0  0  0  0  0  0  0  0  0
  161.7490  210.3900  156.2190 C   0  0  0  0  0  3  0  0  0  0  0  0
  158.5730  211.3400  153.4680 C   0  0  0  0  0  1  0  0  0  0  0  0
  159.6790  210.9940  154.4190 C   0  0  0  0  0  0  0  0  0  0  0  0
  158.0010  210.8460  156.3120 C   0  0  0  0  0  1  0  0  0  0  0  0
  160.4300  210.4630  156.6680 C   0  0  0  0  0  3  0  0  0  0  0  0
  160.9590  206.5130  152.1420 N   0  0  0  0  0  0  0  0  0  0  0  0
  161.1200  204.2540  152.7600 O   0  0  0  0  0  0  0  0  0  0  0  0
  160.9230  205.1010  151.8430 C   0  0  0  0  0  0  0  0  0  0  0  0
  161.0870  206.9380  153.4750 C   0  0  0  0  0  0  0  0  0  0  0  0
  161.1960  207.2950  154.6220 C   0  0  0  0  0  3  0  0  0  0  0  0
  160.6170  204.6000  150.4690 C   0  0  0  0  0  2  0  0  0  0  0  0
  160.7600  202.4940  149.2290 C   0  0  0  0  0  3  0  0  0  0  0  0
  160.8970  203.1380  150.3850 C   0  0  0  0  0  3  0  0  0  0  0  0
  161.0480  201.0330  149.1570 C   0  0  0  0  0  1  0  0  0  0  0  0
  1 12  1  1  0  0  0
  3  5  1  0  0  0  0
  3 20  1  1  0  0  0
  4  7  1  6  0  0  0
  4 11  1  0  0  0  0
  6 10  1  0  0  0  0
  7  9  1  0  0  0  0
  8  2  1  6  0  0  0
  8  6  1  0  0  0  0
  8  4  1  0  0  0  0
  9  3  1  0  0  0  0
 10  1  1  0  0  0  0
 11  5  1  6  0  0  0
 11  1  1  0  0  0  0
 12 17  2  0  0  0  0
 12 13  1  0  0  0  0
 13 15  2  0  0  0  0
 14 18  1  0  0  0  0
 14 19  2  0  0  0  0
 15 19  1  0  0  0  0
 16 17  1  0  0  0  0
 17 14  1  0  0  0  0
 20 23  1  0  0  0  0
 22 20  1  0  0  0  0
 22 21  2  0  0  0  0
 23 24  3  0  0  0  0
 25 22  1  0  0  0  0
 26 27  2  0  0  0  0
 27 25  1  0  0  0  0
 28 26  1  0  0  0  0
M  END
>  <MODEL>
3

>  <REMARK>
 VINA RESULT:      -6.5      2.114      4.381
  Name = 
  5 active torsions:
  status: ('A' for Active; 'I' for Inactive)
    1  A    between atoms: C_1  and  C_2
    2  A    between atoms: C_4  and  N_13
    3  A    between atoms: C_9  and  C_15
    4  A    between atoms: C_9  and  C_18
    5  A    between atoms: C_10  and  N_13
                            x       y       z     vdW  Elec       q    Type
                         _______ _______ _______ _____ _____    ______ ____

>  <TORSDO>
F 5

$$$$
=
 OpenBabel11052422513D

 28 30  0  0  1  0  0  0  0  0999 V2000
  161.3200  207.7830  150.3450 C   0  0  2  0  0  3  0  0  0  0  0  0
  161.5820  211.9400  149.3280 O   0  0  0  0  0  1  0  0  0  0  0  0
  161.7580  209.7120  153.7200 C   0  0  1  0  0  3  0  0  0  0  0  0
  160.8640  210.2590  150.8920 C   0  0  1  0  0  3  0  0  0  0  0  0
  162.1800  208.8280  152.5320 C   0  0  0  0  0  2  0  0  0  0  0  0
  162.0360  209.6900  148.7130 C   0  0  0  0  0  2  0  0  0  0  0  0
  160.8010  211.3100  152.0200 C   0  0  0  0  0  2  0  0  0  0  0  0
  161.9190  210.6920  149.8560 C   0  0  1  0  0  3  0  0  0  0  0  0
  160.6150  210.6920  153.4080 C   0  0  0  0  0  2  0  0  0  0  0  0
  162.7810  208.1440  149.3150 S   0  0  0  0  0  0  0  0  0  0  0  0
  161.1080  208.8350  151.4400 C   0  0  2  0  0  3  0  0  0  0  0  0
  161.3050  206.3780  150.8890 C   0  0  0  0  0  0  0  0  0  0  0  0
  161.6370  206.1420  152.2340 C   0  0  0  0  0  3  0  0  0  0  0  0
  160.8590  203.9970  150.6120 C   0  0  0  0  0  0  0  0  0  0  0  0
  161.5910  204.8520  152.7590 C   0  0  0  0  0  3  0  0  0  0  0  0
  160.5100  205.5340  148.6450 C   0  0  0  0  0  1  0  0  0  0  0  0
  160.9030  205.2980  150.0730 C   0  0  0  0  0  0  0  0  0  0  0  0
  160.4390  202.8230  149.7880 C   0  0  0  0  0  1  0  0  0  0  0  0
  161.2060  203.7830  151.9480 C   0  0  0  0  0  3  0  0  0  0  0  0
  161.4660  208.9110  154.9110 N   0  0  0  0  0  0  0  0  0  0  0  0
  161.4130  208.6680  157.2460 O   0  0  0  0  0  0  0  0  0  0  0  0
  161.8630  209.2940  156.2460 C   0  0  0  0  0  0  0  0  0  0  0  0
  160.6780  207.7630  154.7240 C   0  0  0  0  0  0  0  0  0  0  0  0
  159.9960  206.7800  154.5690 C   0  0  0  0  0  3  0  0  0  0  0  0
  162.8380  210.4020  156.4830 C   0  0  0  0  0  2  0  0  0  0  0  0
  160.9990  212.0140  156.6140 C   0  0  0  0  0  3  0  0  0  0  0  0
  162.1470  211.5620  157.1150 C   0  0  0  0  0  3  0  0  0  0  0  0
  160.3150  213.1710  157.2590 C   0  0  0  0  0  1  0  0  0  0  0  0
  1 12  1  1  0  0  0
  1 11  1  0  0  0  0
  3 20  1  1  0  0  0
  4 11  1  0  0  0  0
  4  7  1  1  0  0  0
  5  3  1  0  0  0  0
  6 10  1  0  0  0  0
  6  8  1  0  0  0  0
  7  9  1  0  0  0  0
  8  2  1  6  0  0  0
  8  4  1  0  0  0  0
  9  3  1  0  0  0  0
 10  1  1  0  0  0  0
 11  5  1  1  0  0  0
 12 13  1  0  0  0  0
 13 15  2  0  0  0  0
 14 19  2  0  0  0  0
 16 17  1  0  0  0  0
 17 14  1  0  0  0  0
 17 12  2  0  0  0  0
 18 14  1  0  0  0  0
 19 15  1  0  0  0  0
 20 22  1  0  0  0  0
 22 25  1  0  0  0  0
 22 21  2  0  0  0  0
 23 20  1  0  0  0  0
 24 23  3  0  0  0  0
 25 27  1  0  0  0  0
 26 27  2  0  0  0  0
 26 28  1  0  0  0  0
M  END
>  <MODEL>
4

>  <REMARK>
 VINA RESULT:      -5.8      2.555      7.690
  Name = 
  5 active torsions:
  status: ('A' for Active; 'I' for Inactive)
    1  A    between atoms: C_1  and  C_2
    2  A    between atoms: C_4  and  N_13
    3  A    between atoms: C_9  and  C_15
    4  A    between atoms: C_9  and  C_18
    5  A    between atoms: C_10  and  N_13
                            x       y       z     vdW  Elec       q    Type
                         _______ _______ _______ _____ _____    ______ ____

>  <TORSDO>
F 5

$$$$
=
 OpenBabel11052422513D

 28 30  0  0  1  0  0  0  0  0999 V2000
  160.9010  209.7640  151.6600 C   0  0  2  0  0  3  0  0  0  0  0  0
  160.9140  213.2240  149.1270 O   0  0  0  0  0  1  0  0  0  0  0  0
  159.2370  212.6410  153.7250 C   0  0  1  0  0  3  0  0  0  0  0  0
  159.8110  211.9510  150.8450 C   0  0  1  0  0  3  0  0  0  0  0  0
  160.3460  211.6550  153.3130 C   0  0  0  0  0  2  0  0  0  0  0  0
  161.9980  211.2150  149.7880 C   0  0  0  0  0  2  0  0  0  0  0  0
  159.0060  213.1970  151.2760 C   0  0  0  0  0  2  0  0  0  0  0  0
  161.1490  212.4030  150.2310 C   0  0  1  0  0  3  0  0  0  0  0  0
  158.2570  213.0000  152.5960 C   0  0  0  0  0  2  0  0  0  0  0  0
  162.5930  210.3000  151.2410 S   0  0  0  0  0  0  0  0  0  0  0  0
  159.9880  210.9470  152.0050 C   0  0  2  0  0  3  0  0  0  0  0  0
  160.8580  208.6820  152.7060 C   0  0  0  0  0  0  0  0  0  0  0  0
  160.5520  209.0050  154.0390 C   0  0  0  0  0  3  0  0  0  0  0  0
  160.9850  206.3300  153.3370 C   0  0  0  0  0  0  0  0  0  0  0  0
  160.4730  208.0080  155.0100 C   0  0  0  0  0  3  0  0  0  0  0  0
  161.3590  206.9610  150.9260 C   0  0  0  0  0  1  0  0  0  0  0  0
  161.0670  207.3310  152.3490 C   0  0  0  0  0  0  0  0  0  0  0  0
  161.1970  204.8880  153.0080 C   0  0  0  0  0  1  0  0  0  0  0  0
  160.6910  206.6760  154.6590 C   0  0  0  0  0  3  0  0  0  0  0  0
  158.5300  212.1860  154.9240 N   0  0  0  0  0  0  0  0  0  0  0  0
  158.2670  212.1720  157.2570 O   0  0  0  0  0  0  0  0  0  0  0  0
  159.0140  212.4100  156.2660 C   0  0  0  0  0  0  0  0  0  0  0  0
  157.2740  211.5870  154.7290 C   0  0  0  0  0  0  0  0  0  0  0  0
  156.1930  211.0770  154.5680 C   0  0  0  0  0  3  0  0  0  0  0  0
  160.4070  212.8830  156.5270 C   0  0  0  0  0  2  0  0  0  0  0  0
  162.0660  211.0820  156.5050 C   0  0  0  0  0  3  0  0  0  0  0  0
  161.1920  211.8090  157.1980 C   0  0  0  0  0  3  0  0  0  0  0  0
  162.8500  210.0160  157.1900 C   0  0  0  0  0  1  0  0  0  0  0  0
  1 11  1  0  0  0  0
  1 12  1  1  0  0  0
  3 20  1  1  0  0  0
  4  7  1  1  0  0  0
  4 11  1  0  0  0  0
  5  3  1  0  0  0  0
  6  8  1  0  0  0  0
  6 10  1  0  0  0  0
  7  9  1  0  0  0  0
  8  2  1  6  0  0  0
  8  4  1  0  0  0  0
  9  3  1  0  0  0  0
 10  1  1  0  0  0  0
 11  5  1  1  0  0  0
 12 13  1  0  0  0  0
 13 15  2  0  0  0  0
 14 19  2  0  0  0  0
 16 17  1  0  0  0  0
 17 12  2  0  0  0  0
 17 14  1  0  0  0  0
 18 14  1  0  0  0  0
 19 15  1  0  0  0  0
 20 22  1  0  0  0  0
 22 25  1  0  0  0  0
 22 21  2  0  0  0  0
 23 20  1  0  0  0  0
 24 23  3  0  0  0  0
 25 27  1  0  0  0  0
 26 28  1  0  0  0  0
 26 27  2  0  0  0  0
M  END
>  <MODEL>
5

>  <REMARK>
 VINA RESULT:      -5.6      2.720      7.419
  Name = 
  5 active torsions:
  status: ('A' for Active; 'I' for Inactive)
    1  A    between atoms: C_1  and  C_2
    2  A    between atoms: C_4  and  N_13
    3  A    between atoms: C_9  and  C_15
    4  A    between atoms: C_9  and  C_18
    5  A    between atoms: C_10  and  N_13
                            x       y       z     vdW  Elec       q    Type
                         _______ _______ _______ _____ _____    ______ ____

>  <TORSDO>
F 5

$$$$
=
 OpenBabel11052422513D

 28 30  0  0  1  0  0  0  0  0999 V2000
  159.9650  210.6260  154.0700 C   0  0  2  0  0  3  0  0  0  0  0  0
  161.6920  207.6970  156.6820 O   0  0  0  0  0  1  0  0  0  0  0  0
  161.8620  208.0910  151.7730 C   0  0  1  0  0  3  0  0  0  0  0  0
  160.6960  208.2030  154.5520 C   0  0  1  0  0  3  0  0  0  0  0  0
  161.6210  209.4170  152.5170 C   0  0  0  0  0  2  0  0  0  0  0  0
  161.0380  209.9580  156.3540 C   0  0  0  0  0  2  0  0  0  0  0  0
  161.3110  206.9260  153.9400 C   0  0  0  0  0  2  0  0  0  0  0  0
  161.5900  208.6910  155.7070 C   0  0  1  0  0  3  0  0  0  0  0  0
  161.1860  206.8700  152.4160 C   0  0  0  0  0  2  0  0  0  0  0  0
  161.1900  211.3590  155.2050 S   0  0  0  0  0  0  0  0  0  0  0  0
  160.4420  209.2920  153.4850 C   0  0  2  0  0  3  0  0  0  0  0  0
  159.4890  211.5810  153.0070 C   0  0  0  0  0  0  0  0  0  0  0  0
  160.2870  211.8290  151.8770 C   0  0  0  0  0  3  0  0  0  0  0  0
  157.7760  213.0490  152.0820 C   0  0  0  0  0  0  0  0  0  0  0  0
  159.8420  212.6820  150.8690 C   0  0  0  0  0  3  0  0  0  0  0  0
  157.3360  211.9090  154.2860 C   0  0  0  0  0  1  0  0  0  0  0  0
  158.2180  212.1880  153.1070 C   0  0  0  0  0  0  0  0  0  0  0  0
  156.4390  213.7140  152.1420 C   0  0  0  0  0  1  0  0  0  0  0  0
  158.5910  213.2910  150.9740 C   0  0  0  0  0  3  0  0  0  0  0  0
  161.5270  208.2020  150.3510 N   0  0  0  0  0  0  0  0  0  0  0  0
  161.8020  209.2400  148.2630 O   0  0  0  0  0  0  0  0  0  0  0  0
  161.9530  209.3010  149.5160 C   0  0  0  0  0  0  0  0  0  0  0  0
  160.8310  207.1240  149.7790 C   0  0  0  0  0  0  0  0  0  0  0  0
  160.2310  206.2030  149.2830 C   0  0  0  0  0  3  0  0  0  0  0  0
  162.5410  210.5440  150.1000 C   0  0  0  0  0  2  0  0  0  0  0  0
  162.0780  212.4360  148.6160 C   0  0  0  0  0  3  0  0  0  0  0  0
  162.9240  211.4870  149.0110 C   0  0  0  0  0  3  0  0  0  0  0  0
  162.4750  213.3770  147.5300 C   0  0  0  0  0  1  0  0  0  0  0  0
  1 12  1  6  0  0  0
  1 10  1  0  0  0  0
  3 20  1  6  0  0  0
  3  9  1  0  0  0  0
  3  5  1  0  0  0  0
  4  7  1  6  0  0  0
  4  8  1  0  0  0  0
  8  6  1  0  0  0  0
  8  2  1  1  0  0  0
  9  7  1  0  0  0  0
 10  6  1  0  0  0  0
 11  5  1  1  0  0  0
 11  1  1  0  0  0  0
 11  4  1  0  0  0  0
 12 17  1  0  0  0  0
 13 12  2  0  0  0  0
 14 18  1  0  0  0  0
 14 17  2  0  0  0  0
 15 19  2  0  0  0  0
 15 13  1  0  0  0  0
 17 16  1  0  0  0  0
 19 14  1  0  0  0  0
 21 22  2  0  0  0  0
 22 25  1  0  0  0  0
 22 20  1  0  0  0  0
 23 20  1  0  0  0  0
 24 23  3  0  0  0  0
 26 27  2  0  0  0  0
 27 25  1  0  0  0  0
 28 26  1  0  0  0  0
M  END
>  <MODEL>
6

>  <REMARK>
 VINA RESULT:      -5.6      1.215      3.425
  Name = 
  5 active torsions:
  status: ('A' for Active; 'I' for Inactive)
    1  A    between atoms: C_1  and  C_2
    2  A    between atoms: C_4  and  N_13
    3  A    between atoms: C_9  and  C_15
    4  A    between atoms: C_9  and  C_18
    5  A    between atoms: C_10  and  N_13
                            x       y       z     vdW  Elec       q    Type
                         _______ _______ _______ _____ _____    ______ ____

>  <TORSDO>
F 5

$$$$
=
 OpenBabel11052422513D

 28 30  0  0  1  0  0  0  0  0999 V2000
  160.9230  208.9430  151.2640 C   0  0  2  0  0  3  0  0  0  0  0  0
  160.7690  213.0200  149.9450 O   0  0  0  0  0  1  0  0  0  0  0  0
  161.2070  211.1480  154.4830 C   0  0  1  0  0  3  0  0  0  0  0  0
  160.2350  211.3970  151.6390 C   0  0  1  0  0  3  0  0  0  0  0  0
  161.7010  210.2240  153.3550 C   0  0  0  0  0  2  0  0  0  0  0  0
  161.4330  210.7840  149.4860 C   0  0  0  0  0  2  0  0  0  0  0  0
  160.0810  212.5180  152.6890 C   0  0  0  0  0  2  0  0  0  0  0  0
  161.2310  211.8520  150.5560 C   0  0  1  0  0  3  0  0  0  0  0  0
  159.9710  211.9880  154.1210 C   0  0  0  0  0  2  0  0  0  0  0  0
  162.3310  209.3660  150.1850 S   0  0  0  0  0  0  0  0  0  0  0  0
  160.6220  210.0470  152.2840 C   0  0  2  0  0  3  0  0  0  0  0  0
  161.0510  207.5870  151.9080 C   0  0  0  0  0  0  0  0  0  0  0  0
  161.1260  207.4780  153.3070 C   0  0  0  0  0  3  0  0  0  0  0  0
  161.1200  205.1550  151.7450 C   0  0  0  0  0  0  0  0  0  0  0  0
  161.2060  206.2270  153.9170 C   0  0  0  0  0  3  0  0  0  0  0  0
  160.9230  206.5080  149.6280 C   0  0  0  0  0  1  0  0  0  0  0  0
  161.0380  206.4150  151.1200 C   0  0  0  0  0  0  0  0  0  0  0  0
  161.1090  203.8870  150.9540 C   0  0  0  0  0  1  0  0  0  0  0  0
  161.2060  205.0710  153.1370 C   0  0  0  0  0  3  0  0  0  0  0  0
  161.0070  210.4130  155.7330 N   0  0  0  0  0  0  0  0  0  0  0  0
  159.7030  209.0110  157.0920 O   0  0  0  0  0  0  0  0  0  0  0  0
  159.7550  209.7940  156.1020 C   0  0  0  0  0  0  0  0  0  0  0  0
  162.1360  210.2380  156.5520 C   0  0  0  0  0  0  0  0  0  0  0  0
  163.1000  210.0860  157.2610 C   0  0  0  0  0  3  0  0  0  0  0  0
  158.4910  210.0880  155.3620 C   0  0  0  0  0  2  0  0  0  0  0  0
  156.4310  211.3520  155.7510 C   0  0  0  0  0  3  0  0  0  0  0  0
  157.6880  211.0990  156.1060 C   0  0  0  0  0  3  0  0  0  0  0  0
  155.6360  212.3620  156.5070 C   0  0  0  0  0  1  0  0  0  0  0  0
  1 12  1  1  0  0  0
  1 11  1  0  0  0  0
  3 20  1  1  0  0  0
  4 11  1  0  0  0  0
  4  7  1  1  0  0  0
  5  3  1  0  0  0  0
  6 10  1  0  0  0  0
  6  8  1  0  0  0  0
  7  9  1  0  0  0  0
  8  2  1  6  0  0  0
  8  4  1  0  0  0  0
  9  3  1  0  0  0  0
 10  1  1  0  0  0  0
 11  5  1  6  0  0  0
 12 13  1  0  0  0  0
 13 15  2  0  0  0  0
 14 19  2  0  0  0  0
 16 17  1  0  0  0  0
 17 14  1  0  0  0  0
 17 12  2  0  0  0  0
 18 14  1  0  0  0  0
 19 15  1  0  0  0  0
 20 22  1  0  0  0  0
 20 23  1  0  0  0  0
 22 21  2  0  0  0  0
 23 24  3  0  0  0  0
 25 22  1  0  0  0  0
 25 27  1  0  0  0  0
 26 27  2  0  0  0  0
 26 28  1  0  0  0  0
M  END
>  <MODEL>
7

>  <REMARK>
 VINA RESULT:      -5.6      2.475      7.356
  Name = 
  5 active torsions:
  status: ('A' for Active; 'I' for Inactive)
    1  A    between atoms: C_1  and  C_2
    2  A    between atoms: C_4  and  N_13
    3  A    between atoms: C_9  and  C_15
    4  A    between atoms: C_9  and  C_18
    5  A    between atoms: C_10  and  N_13
                            x       y       z     vdW  Elec       q    Type
                         _______ _______ _______ _____ _____    ______ ____

>  <TORSDO>
F 5

$$$$
=
 OpenBabel11052422513D

 28 30  0  0  1  0  0  0  0  0999 V2000
  158.5530  213.1080  151.9380 C   0  0  2  0  0  3  0  0  0  0  0  0
  158.6110  211.8690  156.0420 O   0  0  0  0  0  1  0  0  0  0  0  0
  161.2260  210.2630  152.1860 C   0  0  1  0  0  3  0  0  0  0  0  0
  158.8350  211.2720  153.7220 C   0  0  1  0  0  3  0  0  0  0  0  0
  160.7060  211.7060  152.0560 C   0  0  0  0  0  2  0  0  0  0  0  0
  158.3120  213.6370  154.4830 C   0  0  0  0  0  2  0  0  0  0  0  0
  159.6140  209.9960  154.1070 C   0  0  0  0  0  2  0  0  0  0  0  0
  159.0540  212.3440  154.8060 C   0  0  1  0  0  3  0  0  0  0  0  0
  160.2630  209.3040  152.9070 C   0  0  0  0  0  2  0  0  0  0  0  0
  159.0810  214.4530  153.0510 S   0  0  0  0  0  0  0  0  0  0  0  0
  159.1970  211.7660  152.3040 C   0  0  2  0  0  3  0  0  0  0  0  0
  158.7150  213.4430  150.4790 C   0  0  0  0  0  0  0  0  0  0  0  0
  160.0000  213.5410  149.9190 C   0  0  0  0  0  3  0  0  0  0  0  0
  157.7560  213.8800  148.2790 C   0  0  0  0  0  0  0  0  0  0  0  0
  160.1630  213.8130  148.5610 C   0  0  0  0  0  3  0  0  0  0  0  0
  156.2020  213.4700  150.2200 C   0  0  0  0  0  1  0  0  0  0  0  0
  157.5820  213.6050  149.6500 C   0  0  0  0  0  0  0  0  0  0  0  0
  156.5890  214.0580  147.3630 C   0  0  0  0  0  1  0  0  0  0  0  0
  159.0440  213.9850  147.7460 C   0  0  0  0  0  3  0  0  0  0  0  0
  161.6490  209.7230  150.8920 N   0  0  0  0  0  0  0  0  0  0  0  0
  161.8110  207.9350  149.3790 O   0  0  0  0  0  0  0  0  0  0  0  0
  161.6240  208.3160  150.5690 C   0  0  0  0  0  0  0  0  0  0  0  0
  162.0050  210.6560  149.9030 C   0  0  0  0  0  0  0  0  0  0  0  0
  162.3180  211.4550  149.0560 C   0  0  0  0  0  3  0  0  0  0  0  0
  161.4200  207.2760  151.6230 C   0  0  0  0  0  2  0  0  0  0  0  0
  161.4660  204.8330  151.4570 C   0  0  0  0  0  3  0  0  0  0  0  0
  160.9980  205.9910  150.9960 C   0  0  0  0  0  3  0  0  0  0  0  0
  161.0310  203.5550  150.8250 C   0  0  0  0  0  1  0  0  0  0  0  0
  1 12  1  6  0  0  0
  1 11  1  0  0  0  0
  1 10  1  0  0  0  0
  3 20  1  6  0  0  0
  3  9  1  0  0  0  0
  4  7  1  1  0  0  0
  4  8  1  0  0  0  0
  5  3  1  0  0  0  0
  6  8  1  0  0  0  0
  8  2  1  1  0  0  0
  9  7  1  0  0  0  0
 10  6  1  0  0  0  0
 11  5  1  1  0  0  0
 11  4  1  0  0  0  0
 13 12  1  0  0  0  0
 14 17  1  0  0  0  0
 15 13  2  0  0  0  0
 17 16  1  0  0  0  0
 17 12  2  0  0  0  0
 18 14  1  0  0  0  0
 19 14  2  0  0  0  0
 19 15  1  0  0  0  0
 21 22  2  0  0  0  0
 22 20  1  0  0  0  0
 22 25  1  0  0  0  0
 23 20  1  0  0  0  0
 24 23  3  0  0  0  0
 27 26  2  0  0  0  0
 27 25  1  0  0  0  0
 28 26  1  0  0  0  0
M  END
>  <MODEL>
8

>  <REMARK>
 VINA RESULT:      -5.6      2.307      3.503
  Name = 
  5 active torsions:
  status: ('A' for Active; 'I' for Inactive)
    1  A    between atoms: C_1  and  C_2
    2  A    between atoms: C_4  and  N_13
    3  A    between atoms: C_9  and  C_15
    4  A    between atoms: C_9  and  C_18
    5  A    between atoms: C_10  and  N_13
                            x       y       z     vdW  Elec       q    Type
                         _______ _______ _______ _____ _____    ______ ____

>  <TORSDO>
F 5

$$$$
=
 OpenBabel11052422513D

 28 30  0  0  1  0  0  0  0  0999 V2000
  161.1920  207.3260  149.3990 C   0  0  2  0  0  3  0  0  0  0  0  0
  162.0220  211.5320  149.3370 O   0  0  0  0  0  1  0  0  0  0  0  0
  161.5850  208.4210  153.1340 C   0  0  1  0  0  3  0  0  0  0  0  0
  160.9900  209.6670  150.4530 C   0  0  1  0  0  3  0  0  0  0  0  0
  161.9930  207.7610  151.8040 C   0  0  0  0  0  2  0  0  0  0  0  0
  162.2550  209.4230  148.2660 C   0  0  0  0  0  2  0  0  0  0  0  0
  160.9610  210.4550  151.7800 C   0  0  0  0  0  2  0  0  0  0  0  0
  162.1670  210.1670  149.5950 C   0  0  1  0  0  3  0  0  0  0  0  0
  160.5940  209.5870  152.9860 C   0  0  0  0  0  2  0  0  0  0  0  0
  162.7620  207.7010  148.5510 S   0  0  0  0  0  0  0  0  0  0  0  0
  161.0190  208.1410  150.6860 C   0  0  2  0  0  3  0  0  0  0  0  0
  160.9680  205.8530  149.6180 C   0  0  0  0  0  0  0  0  0  0  0  0
  160.4560  205.3950  150.8450 C   0  0  0  0  0  3  0  0  0  0  0  0
  160.9620  203.5580  148.7940 C   0  0  0  0  0  0  0  0  0  0  0  0
  160.2090  204.0380  151.0470 C   0  0  0  0  0  3  0  0  0  0  0  0
  161.7270  205.3990  147.2520 C   0  0  0  0  0  1  0  0  0  0  0  0
  161.2150  204.9280  148.5800 C   0  0  0  0  0  0  0  0  0  0  0  0
  161.2060  202.5420  147.7250 C   0  0  0  0  0  1  0  0  0  0  0  0
  160.4650  203.1240  150.0250 C   0  0  0  0  0  3  0  0  0  0  0  0
  161.1070  207.4320  154.1020 N   0  0  0  0  0  0  0  0  0  0  0  0
  159.8080  206.8700  155.9760 O   0  0  0  0  0  0  0  0  0  0  0  0
  160.3600  207.7760  155.2890 C   0  0  0  0  0  0  0  0  0  0  0  0
  161.3230  206.0800  153.7850 C   0  0  0  0  0  0  0  0  0  0  0  0
  161.5000  204.9190  153.5110 C   0  0  0  0  0  3  0  0  0  0  0  0
  160.2500  209.1890  155.7620 C   0  0  0  0  0  2  0  0  0  0  0  0
  162.3240  210.3810  156.2800 C   0  0  0  0  0  3  0  0  0  0  0  0
  161.3900  209.5150  156.6640 C   0  0  0  0  0  3  0  0  0  0  0  0
  163.4570  210.7040  157.1940 C   0  0  0  0  0  1  0  0  0  0  0  0
  1 12  1  1  0  0  0
  1 11  1  0  0  0  0
  3 20  1  1  0  0  0
  4 11  1  0  0  0  0
  4  7  1  1  0  0  0
  5  3  1  0  0  0  0
  6 10  1  0  0  0  0
  6  8  1  0  0  0  0
  7  9  1  0  0  0  0
  8  2  1  6  0  0  0
  8  4  1  0  0  0  0
  9  3  1  0  0  0  0
 10  1  1  0  0  0  0
 11  5  1  1  0  0  0
 12 13  1  0  0  0  0
 13 15  2  0  0  0  0
 14 19  2  0  0  0  0
 16 17  1  0  0  0  0
 17 14  1  0  0  0  0
 17 12  2  0  0  0  0
 18 14  1  0  0  0  0
 19 15  1  0  0  0  0
 20 22  1  0  0  0  0
 22 25  1  0  0  0  0
 22 21  2  0  0  0  0
 23 20  1  0  0  0  0
 24 23  3  0  0  0  0
 25 27  1  0  0  0  0
 26 27  2  0  0  0  0
 26 28  1  0  0  0  0
M  END
>  <MODEL>
9

>  <REMARK>
 VINA RESULT:      -5.5      2.777      7.693
  Name = 
  5 active torsions:
  status: ('A' for Active; 'I' for Inactive)
    1  A    between atoms: C_1  and  C_2
    2  A    between atoms: C_4  and  N_13
    3  A    between atoms: C_9  and  C_15
    4  A    between atoms: C_9  and  C_18
    5  A    between atoms: C_10  and  N_13
                            x       y       z     vdW  Elec       q    Type
                         _______ _______ _______ _____ _____    ______ ____

>  <TORSDO>
F 5

$$$$
