=
 OpenBabel11052423043D

 28 30  0  0  1  0  0  0  0  0999 V2000
  156.7440  213.7530  152.7850 N   0  0  0  0  0  2  0  0  0  0  0  0
  156.2400  211.7140  154.6400 C   0  0  0  0  0  1  0  0  0  0  0  0
  157.3140  212.7500  154.9760 C   0  0  1  0  0  0  0  0  0  0  0  0
  158.9000  214.4350  149.8950 O   0  0  0  0  0  0  0  0  0  0  0  0
  155.4500  214.3120  154.9830 O   0  0  0  0  0  1  0  0  0  0  0  0
  159.1800  211.0220  155.3320 C   0  0  0  0  0  2  0  0  0  0  0  0
  160.0590  211.2710  154.1120 C   0  0  2  0  0  3  0  0  0  0  0  0
  158.4900  212.2820  155.8610 C   0  0  1  0  0  3  0  0  0  0  0  0
  159.7020  213.5000  151.9120 C   0  0  0  0  0  2  0  0  0  0  0  0
  159.2340  211.2150  152.8220 C   0  0  0  0  0  2  0  0  0  0  0  0
  156.2950  214.0390  150.5350 O   0  0  0  0  0  0  0  0  0  0  0  0
  159.9020  212.0080  151.7100 C   0  0  0  0  0  2  0  0  0  0  0  0
  158.5990  213.9940  151.0360 C   0  0  0  0  0  0  0  0  0  0  0  0
  157.1740  213.9270  151.4300 C   0  0  0  0  0  0  0  0  0  0  0  0
  157.6130  213.8450  153.9540 C   0  0  2  0  0  3  0  0  0  0  0  0
  156.8230  214.1730  155.2330 C   0  0  2  0  0  3  0  0  0  0  0  0
  161.5660  208.4130  155.5770 C   0  0  0  0  0  3  0  0  0  0  0  0
  160.8850  209.0230  153.4970 N   0  0  0  0  0  0  0  0  0  0  0  0
  161.1250  207.9720  154.4150 C   0  0  0  0  0  0  0  0  0  0  0  0
  161.2390  210.2860  154.1220 C   0  0  2  0  0  3  0  0  0  0  0  0
  161.6930  209.9050  155.5410 C   0  0  0  0  0  2  0  0  0  0  0  0
  161.7660  205.8580  153.5320 O   0  0  0  0  0  0  0  0  0  0  0  0
  160.8890  206.5560  154.1050 C   0  0  0  0  0  3  0  0  0  0  0  0
  160.6070  208.8510  152.0750 C   0  0  0  0  0  2  0  0  0  0  0  0
  161.8720  209.0040  151.2510 C   0  0  0  0  0  2  0  0  0  0  0  0
  162.3150  207.6680  150.6940 C   0  0  0  0  0  1  0  0  0  0  0  0
  160.4950  212.8000  157.2610 C   0  0  0  0  0  1  0  0  0  0  0  0
  159.5130  213.3530  156.2480 C   0  0  0  0  0  2  0  0  0  0  0  0
  3  2  1  6  0  0  0
  3 16  1  0  0  0  0
  3  8  1  0  0  0  0
  4 13  2  0  0  0  0
  6  8  1  0  0  0  0
  7 10  1  6  0  0  0
  7 20  1  0  0  0  0
  7  6  1  0  0  0  0
  8 28  1  6  0  0  0
 11 14  2  0  0  0  0
 12  9  1  0  0  0  0
 12 10  1  0  0  0  0
 13 14  1  0  0  0  0
 13  9  1  0  0  0  0
 14  1  1  0  0  0  0
 15  1  1  6  0  0  0
 15  3  1  0  0  0  0
 15 16  1  0  0  0  0
 16  5  1  6  0  0  0
 18 20  1  0  0  0  0
 18 19  1  0  0  0  0
 19 17  2  0  0  0  0
 20 21  1  1  0  0  0
 21 17  1  0  0  0  0
 22 23  2  0  0  0  0
 23 19  1  0  0  0  0
 24 18  1  0  0  0  0
 25 24  1  0  0  0  0
 26 25  1  0  0  0  0
 28 27  1  0  0  0  0
M  END
>  <MODEL>
1

>  <REMARK>
 VINA RESULT:      -5.4      0.000      0.000
  Name = 
  5 active torsions:
  status: ('A' for Active; 'I' for Inactive)
    1  A    between atoms: N_9  and  C_18
    2  A    between atoms: C_10  and  C_13
    3  A    between atoms: C_11  and  C_22
    4  A    between atoms: C_12  and  C_23
    5  A    between atoms: C_14  and  C_18
                            x       y       z     vdW  Elec       q    Type
                         _______ _______ _______ _____ _____    ______ ____

>  <TORSDO>
F 5

$$$$
=
 OpenBabel11052423043D

 28 30  0  0  1  0  0  0  0  0999 V2000
  158.8310  212.2600  153.9230 N   0  0  0  0  0  2  0  0  0  0  0  0
  158.2350  209.9430  155.3820 C   0  0  0  0  0  1  0  0  0  0  0  0
  159.6510  210.5140  155.4750 C   0  0  1  0  0  0  0  0  0  0  0  0
  160.1040  213.2360  150.6210 O   0  0  0  0  0  0  0  0  0  0  0  0
  158.5470  212.4160  156.5130 O   0  0  0  0  0  1  0  0  0  0  0  0
  160.8090  208.3460  154.7300 C   0  0  0  0  0  2  0  0  0  0  0  0
  161.3050  208.7310  153.3410 C   0  0  2  0  0  3  0  0  0  0  0  0
  160.7990  209.5110  155.7240 C   0  0  1  0  0  3  0  0  0  0  0  0
  161.1000  211.5470  151.9420 C   0  0  0  0  0  2  0  0  0  0  0  0
  160.1620  209.2910  152.4870 C   0  0  0  0  0  2  0  0  0  0  0  0
  157.8500  213.3360  152.1270 O   0  0  0  0  0  0  0  0  0  0  0  0
  160.6940  210.1930  151.3860 C   0  0  0  0  0  2  0  0  0  0  0  0
  160.0300  212.5540  151.6780 C   0  0  0  0  0  0  0  0  0  0  0  0
  158.8620  212.7310  152.5700 C   0  0  0  0  0  0  0  0  0  0  0  0
  159.9880  211.7590  154.6570 C   0  0  2  0  0  3  0  0  0  0  0  0
  159.7910  211.8610  156.1790 C   0  0  2  0  0  3  0  0  0  0  0  0
  161.2960  205.2400  152.7080 C   0  0  0  0  0  3  0  0  0  0  0  0
  161.3690  207.1340  151.4540 N   0  0  0  0  0  0  0  0  0  0  0  0
  160.9970  205.7710  151.5370 C   0  0  0  0  0  0  0  0  0  0  0  0
  162.0100  207.5260  152.6980 C   0  0  2  0  0  3  0  0  0  0  0  0
  161.9640  206.2630  153.5740 C   0  0  0  0  0  2  0  0  0  0  0  0
  160.9900  204.3080  149.6600 O   0  0  0  0  0  0  0  0  0  0  0  0
  160.3360  205.0430  150.4460 C   0  0  0  0  0  3  0  0  0  0  0  0
  161.3730  207.9320  150.2320 C   0  0  0  0  0  2  0  0  0  0  0  0
  162.6310  207.6800  149.4220 C   0  0  0  0  0  2  0  0  0  0  0  0
  162.2850  207.1850  148.0340 C   0  0  0  0  0  1  0  0  0  0  0  0
  162.7520  209.7800  157.2610 C   0  0  0  0  0  1  0  0  0  0  0  0
  162.1970  210.1100  155.8890 C   0  0  0  0  0  2  0  0  0  0  0  0
  3  2  1  6  0  0  0
  3  8  1  0  0  0  0
  3 16  1  0  0  0  0
  4 13  2  0  0  0  0
  6  8  1  0  0  0  0
  7 10  1  6  0  0  0
  7  6  1  0  0  0  0
  8 28  1  6  0  0  0
 11 14  2  0  0  0  0
 12  9  1  0  0  0  0
 12 10  1  0  0  0  0
 13  9  1  0  0  0  0
 13 14  1  0  0  0  0
 14  1  1  0  0  0  0
 15  1  1  6  0  0  0
 15  3  1  0  0  0  0
 15 16  1  0  0  0  0
 16  5  1  6  0  0  0
 17 21  1  0  0  0  0
 18 19  1  0  0  0  0
 18 20  1  0  0  0  0
 19 17  2  0  0  0  0
 20  7  1  0  0  0  0
 20 21  1  1  0  0  0
 22 23  2  0  0  0  0
 23 19  1  0  0  0  0
 24 18  1  0  0  0  0
 25 24  1  0  0  0  0
 26 25  1  0  0  0  0
 28 27  1  0  0  0  0
M  END
>  <MODEL>
2

>  <REMARK>
 VINA RESULT:      -4.0      2.101      3.181
  Name = 
  5 active torsions:
  status: ('A' for Active; 'I' for Inactive)
    1  A    between atoms: N_9  and  C_18
    2  A    between atoms: C_10  and  C_13
    3  A    between atoms: C_11  and  C_22
    4  A    between atoms: C_12  and  C_23
    5  A    between atoms: C_14  and  C_18
                            x       y       z     vdW  Elec       q    Type
                         _______ _______ _______ _____ _____    ______ ____

>  <TORSDO>
F 5

$$$$
=
 OpenBabel11052423043D

 28 30  0  0  1  0  0  0  0  0999 V2000
  161.4580  204.2480  149.9350 N   0  0  0  0  0  2  0  0  0  0  0  0
  163.2820  204.5810  152.0360 C   0  0  0  0  0  1  0  0  0  0  0  0
  161.8310  205.0090  152.2610 C   0  0  1  0  0  0  0  0  0  0  0  0
  160.1430  206.1000  147.0530 O   0  0  0  0  0  0  0  0  0  0  0  0
  161.3530  202.6400  151.9900 O   0  0  0  0  0  1  0  0  0  0  0  0
  162.4150  207.4220  152.9160 C   0  0  0  0  0  2  0  0  0  0  0  0
  161.9080  208.1950  151.7040 C   0  0  2  0  0  3  0  0  0  0  0  0
  161.5860  206.1770  153.2420 C   0  0  1  0  0  3  0  0  0  0  0  0
  160.3650  207.0490  149.2060 C   0  0  0  0  0  2  0  0  0  0  0  0
  162.4860  207.6190  150.4070 C   0  0  0  0  0  2  0  0  0  0  0  0
  161.6610  203.9340  147.6530 O   0  0  0  0  0  0  0  0  0  0  0  0
  161.5940  207.9420  149.2190 C   0  0  0  0  0  2  0  0  0  0  0  0
  160.5500  205.9330  148.2330 C   0  0  0  0  0  0  0  0  0  0  0  0
  161.2450  204.6740  148.5840 C   0  0  0  0  0  0  0  0  0  0  0  0
  160.8410  204.8580  151.1080 C   0  0  2  0  0  3  0  0  0  0  0  0
  160.7950  203.8880  152.3020 C   0  0  2  0  0  3  0  0  0  0  0  0
  161.2210  211.5340  150.7200 C   0  0  0  0  0  3  0  0  0  0  0  0
  161.1640  210.3510  152.6600 N   0  0  0  0  0  0  0  0  0  0  0  0
  160.6510  211.4340  151.9060 C   0  0  0  0  0  0  0  0  0  0  0  0
  162.2050  209.6910  151.8900 C   0  0  2  0  0  3  0  0  0  0  0  0
  162.2580  210.4650  150.5630 C   0  0  0  0  0  2  0  0  0  0  0  0
  158.4040  211.9270  152.5170 O   0  0  0  0  0  0  0  0  0  0  0  0
  159.5910  212.3280  152.3900 C   0  0  0  0  0  3  0  0  0  0  0  0
  160.9000  210.1110  154.0750 C   0  0  0  0  0  2  0  0  0  0  0  0
  162.0560  210.5920  154.9320 C   0  0  0  0  0  2  0  0  0  0  0  0
  162.1830  209.7490  156.1830 C   0  0  0  0  0  1  0  0  0  0  0  0
  159.9350  206.9150  154.9670 C   0  0  0  0  0  1  0  0  0  0  0  0
  160.1240  206.5390  153.5110 C   0  0  0  0  0  2  0  0  0  0  0  0
  3  2  1  6  0  0  0
  3 16  1  0  0  0  0
  3  8  1  0  0  0  0
  4 13  2  0  0  0  0
  6  8  1  0  0  0  0
  7 10  1  6  0  0  0
  7 20  1  0  0  0  0
  7  6  1  0  0  0  0
  8 28  1  6  0  0  0
  9 12  1  0  0  0  0
 11 14  2  0  0  0  0
 12 10  1  0  0  0  0
 13 14  1  0  0  0  0
 13  9  1  0  0  0  0
 14  1  1  0  0  0  0
 15  1  1  6  0  0  0
 15  3  1  0  0  0  0
 15 16  1  0  0  0  0
 16  5  1  6  0  0  0
 17 19  2  0  0  0  0
 18 24  1  0  0  0  0
 19 23  1  0  0  0  0
 19 18  1  0  0  0  0
 20 21  1  6  0  0  0
 20 18  1  0  0  0  0
 21 17  1  0  0  0  0
 23 22  2  0  0  0  0
 24 25  1  0  0  0  0
 25 26  1  0  0  0  0
 28 27  1  0  0  0  0
M  END
>  <MODEL>
3

>  <REMARK>
 VINA RESULT:      -3.9      2.939      7.700
  Name = 
  5 active torsions:
  status: ('A' for Active; 'I' for Inactive)
    1  A    between atoms: N_9  and  C_18
    2  A    between atoms: C_10  and  C_13
    3  A    between atoms: C_11  and  C_22
    4  A    between atoms: C_12  and  C_23
    5  A    between atoms: C_14  and  C_18
                            x       y       z     vdW  Elec       q    Type
                         _______ _______ _______ _____ _____    ______ ____

>  <TORSDO>
F 5

$$$$
=
 OpenBabel11052423043D

 28 30  0  0  1  0  0  0  0  0999 V2000
  159.7930  212.6010  151.2530 N   0  0  0  0  0  2  0  0  0  0  0  0
  158.4970  210.5720  152.6880 C   0  0  0  0  0  1  0  0  0  0  0  0
  159.9290  210.9380  153.0820 C   0  0  1  0  0  0  0  0  0  0  0  0
  161.9340  213.0090  148.3010 O   0  0  0  0  0  0  0  0  0  0  0  0
  158.9510  213.0830  153.6770 O   0  0  0  0  0  1  0  0  0  0  0  0
  160.8470  208.5560  152.8040 C   0  0  0  0  0  2  0  0  0  0  0  0
  161.7070  208.7080  151.5540 C   0  0  2  0  0  3  0  0  0  0  0  0
  160.8040  209.8130  153.6770 C   0  0  1  0  0  3  0  0  0  0  0  0
  162.3030  211.3510  149.9450 C   0  0  0  0  0  2  0  0  0  0  0  0
  160.9010  209.3300  150.4080 C   0  0  0  0  0  2  0  0  0  0  0  0
  159.4450  213.6020  149.1980 O   0  0  0  0  0  0  0  0  0  0  0  0
  161.8150  210.0160  149.4070 C   0  0  0  0  0  2  0  0  0  0  0  0
  161.5060  212.4660  149.3540 C   0  0  0  0  0  0  0  0  0  0  0  0
  160.2120  212.9100  149.9190 C   0  0  0  0  0  0  0  0  0  0  0  0
  160.6490  212.0220  152.2830 C   0  0  2  0  0  3  0  0  0  0  0  0
  160.1270  212.3210  153.6990 C   0  0  2  0  0  3  0  0  0  0  0  0
  161.7480  205.1980  152.0700 C   0  0  0  0  0  3  0  0  0  0  0  0
  161.4710  206.5920  150.2970 N   0  0  0  0  0  0  0  0  0  0  0  0
  161.1930  205.3320  150.8810 C   0  0  0  0  0  0  0  0  0  0  0  0
  162.3280  207.3490  151.1930 C   0  0  2  0  0  3  0  0  0  0  0  0
  162.5230  206.4330  152.4120 C   0  0  0  0  0  2  0  0  0  0  0  0
  160.8820  203.3010  149.6810 O   0  0  0  0  0  0  0  0  0  0  0  0
  160.3640  204.3050  150.2370 C   0  0  0  0  0  3  0  0  0  0  0  0
  161.1880  206.9580  148.9130 C   0  0  0  0  0  2  0  0  0  0  0  0
  162.4130  206.7640  148.0380 C   0  0  0  0  0  2  0  0  0  0  0  0
  162.0490  206.0440  146.7570 C   0  0  0  0  0  1  0  0  0  0  0  0
  162.2620  210.3020  155.6470 C   0  0  0  0  0  1  0  0  0  0  0  0
  162.2070  210.2170  154.1350 C   0  0  0  0  0  2  0  0  0  0  0  0
  3  2  1  6  0  0  0
  3  8  1  0  0  0  0
  3 16  1  0  0  0  0
  4 13  2  0  0  0  0
  6  8  1  0  0  0  0
  7 10  1  6  0  0  0
  7  6  1  0  0  0  0
  8 28  1  6  0  0  0
 11 14  2  0  0  0  0
 12  9  1  0  0  0  0
 12 10  1  0  0  0  0
 13 14  1  0  0  0  0
 13  9  1  0  0  0  0
 14  1  1  0  0  0  0
 15  1  1  6  0  0  0
 15  3  1  0  0  0  0
 15 16  1  0  0  0  0
 16  5  1  6  0  0  0
 17 21  1  0  0  0  0
 18 19  1  0  0  0  0
 18 20  1  0  0  0  0
 19 17  2  0  0  0  0
 20  7  1  0  0  0  0
 20 21  1  1  0  0  0
 22 23  2  0  0  0  0
 23 19  1  0  0  0  0
 24 18  1  0  0  0  0
 25 24  1  0  0  0  0
 26 25  1  0  0  0  0
 28 27  1  0  0  0  0
M  END
>  <MODEL>
4

>  <REMARK>
 VINA RESULT:      -3.8      2.651      3.996
  Name = 
  5 active torsions:
  status: ('A' for Active; 'I' for Inactive)
    1  A    between atoms: N_9  and  C_18
    2  A    between atoms: C_10  and  C_13
    3  A    between atoms: C_11  and  C_22
    4  A    between atoms: C_12  and  C_23
    5  A    between atoms: C_14  and  C_18
                            x       y       z     vdW  Elec       q    Type
                         _______ _______ _______ _____ _____    ______ ____

>  <TORSDO>
F 5

$$$$
=
 OpenBabel11052423043D

 28 30  0  0  1  0  0  0  0  0999 V2000
  161.3140  207.3360  154.6240 N   0  0  0  0  0  2  0  0  0  0  0  0
  161.8340  209.4750  156.3590 C   0  0  0  0  0  1  0  0  0  0  0  0
  160.3990  209.2700  155.8700 C   0  0  1  0  0  0  0  0  0  0  0  0
  161.2130  206.6150  151.0270 O   0  0  0  0  0  0  0  0  0  0  0  0
  160.5380  207.1840  157.1120 O   0  0  0  0  0  1  0  0  0  0  0  0
  160.1620  211.6350  154.8980 C   0  0  0  0  0  2  0  0  0  0  0  0
  160.1600  211.3470  153.4010 C   0  0  2  0  0  3  0  0  0  0  0  0
  159.5150  210.5300  155.7370 C   0  0  1  0  0  3  0  0  0  0  0  0
  160.2150  208.5300  151.9890 C   0  0  0  0  0  2  0  0  0  0  0  0
  161.3760  210.5010  153.0050 C   0  0  0  0  0  2  0  0  0  0  0  0
  162.6250  206.0060  153.2610 O   0  0  0  0  0  0  0  0  0  0  0  0
  161.1100  209.7290  151.7230 C   0  0  0  0  0  2  0  0  0  0  0  0
  161.0350  207.2860  152.0780 C   0  0  0  0  0  0  0  0  0  0  0  0
  161.6930  206.8510  153.3310 C   0  0  0  0  0  0  0  0  0  0  0  0
  160.1180  208.1250  154.9000 C   0  0  2  0  0  3  0  0  0  0  0  0
  159.6860  208.0170  156.3730 C   0  0  2  0  0  3  0  0  0  0  0  0
  159.7580  212.9640  150.2690 C   0  0  0  0  0  3  0  0  0  0  0  0
  158.6860  212.9810  152.2730 N   0  0  0  0  0  0  0  0  0  0  0  0
  158.6000  213.1560  150.8710 C   0  0  0  0  0  0  0  0  0  0  0  0
  160.0610  212.6700  152.6260 C   0  0  2  0  0  3  0  0  0  0  0  0
  160.8110  212.6400  151.2830 C   0  0  0  0  0  2  0  0  0  0  0  0
  157.0960  213.0280  149.0310 O   0  0  0  0  0  0  0  0  0  0  0  0
  157.3530  213.4950  150.1720 C   0  0  0  0  0  3  0  0  0  0  0  0
  157.6430  213.3330  153.2310 C   0  0  0  0  0  2  0  0  0  0  0  0
  158.1040  214.4490  154.1500 C   0  0  0  0  0  2  0  0  0  0  0  0
  157.4210  214.3500  155.4970 C   0  0  0  0  0  1  0  0  0  0  0  0
  157.1320  211.1670  156.1400 C   0  0  0  0  0  1  0  0  0  0  0  0
  158.0620  210.2950  155.3200 C   0  0  0  0  0  2  0  0  0  0  0  0
  3  2  1  1  0  0  0
  3 16  1  0  0  0  0
  4 13  2  0  0  0  0
  6  8  1  0  0  0  0
  7 10  1  6  0  0  0
  7  6  1  0  0  0  0
  8 28  1  6  0  0  0
  8  3  1  0  0  0  0
  9 13  1  0  0  0  0
 11 14  2  0  0  0  0
 12  9  1  0  0  0  0
 12 10  1  0  0  0  0
 13 14  1  0  0  0  0
 14  1  1  0  0  0  0
 15  1  1  1  0  0  0
 15  3  1  0  0  0  0
 15 16  1  0  0  0  0
 16  5  1  1  0  0  0
 17 19  2  0  0  0  0
 17 21  1  0  0  0  0
 18 20  1  0  0  0  0
 18 24  1  0  0  0  0
 19 18  1  0  0  0  0
 20 21  1  6  0  0  0
 20  7  1  0  0  0  0
 22 23  2  0  0  0  0
 23 19  1  0  0  0  0
 24 25  1  0  0  0  0
 25 26  1  0  0  0  0
 28 27  1  0  0  0  0
M  END
>  <MODEL>
5

>  <REMARK>
 VINA RESULT:      -3.6      1.904      6.468
  Name = 
  5 active torsions:
  status: ('A' for Active; 'I' for Inactive)
    1  A    between atoms: N_9  and  C_18
    2  A    between atoms: C_10  and  C_13
    3  A    between atoms: C_11  and  C_22
    4  A    between atoms: C_12  and  C_23
    5  A    between atoms: C_14  and  C_18
                            x       y       z     vdW  Elec       q    Type
                         _______ _______ _______ _____ _____    ______ ____

>  <TORSDO>
F 5

$$$$
=
 OpenBabel11052423043D

 28 30  0  0  1  0  0  0  0  0999 V2000
  160.9190  203.2110  145.3370 N   0  0  0  0  0  2  0  0  0  0  0  0
  159.5090  205.6140  145.6360 C   0  0  0  0  0  1  0  0  0  0  0  0
  160.9330  205.5350  146.1880 C   0  0  1  0  0  0  0  0  0  0  0  0
  161.4890  200.0610  147.1320 O   0  0  0  0  0  0  0  0  0  0  0  0
  161.5570  205.2630  143.8540 O   0  0  0  0  0  1  0  0  0  0  0  0
  160.2750  206.2030  148.5800 C   0  0  0  0  0  2  0  0  0  0  0  0
  160.4700  204.8870  149.3250 C   0  0  2  0  0  3  0  0  0  0  0  0
  161.2570  206.4060  147.4230 C   0  0  1  0  0  3  0  0  0  0  0  0
  161.6010  202.1800  148.1740 C   0  0  0  0  0  2  0  0  0  0  0  0
  159.7070  203.7500  148.6360 C   0  0  0  0  0  2  0  0  0  0  0  0
  160.3120  201.0260  144.8880 O   0  0  0  0  0  0  0  0  0  0  0  0
  160.3240  202.4000  148.9660 C   0  0  0  0  0  2  0  0  0  0  0  0
  161.3320  201.3040  146.9960 C   0  0  0  0  0  0  0  0  0  0  0  0
  160.8310  201.8300  145.7070 C   0  0  0  0  0  0  0  0  0  0  0  0
  161.6930  204.2180  146.0550 C   0  0  2  0  0  3  0  0  0  0  0  0
  162.0520  205.4150  145.1570 C   0  0  2  0  0  3  0  0  0  0  0  0
  161.2870  204.3290  152.7320 C   0  0  0  0  0  3  0  0  0  0  0  0
  160.8520  206.1360  151.4240 N   0  0  0  0  0  0  0  0  0  0  0  0
  161.5150  205.6180  152.5620 C   0  0  0  0  0  0  0  0  0  0  0  0
  160.0830  205.0730  150.8000 C   0  0  2  0  0  3  0  0  0  0  0  0
  160.3690  203.8300  151.6590 C   0  0  0  0  0  2  0  0  0  0  0  0
  161.8890  207.0860  154.3970 O   0  0  0  0  0  0  0  0  0  0  0  0
  162.3720  206.4260  153.4400 C   0  0  0  0  0  3  0  0  0  0  0  0
  160.7280  207.5530  151.0950 C   0  0  0  0  0  2  0  0  0  0  0  0
  162.0840  208.2340  151.1060 C   0  0  0  0  0  2  0  0  0  0  0  0
  161.9530  209.6820  151.5250 C   0  0  0  0  0  1  0  0  0  0  0  0
  163.1780  207.7690  148.2600 C   0  0  0  0  0  1  0  0  0  0  0  0
  162.7060  206.3710  147.9140 C   0  0  0  0  0  2  0  0  0  0  0  0
  1 14  1  0  0  0  0
  3  2  1  6  0  0  0
  3  8  1  0  0  0  0
  7  6  1  6  0  0  0
  7 20  1  0  0  0  0
  8 28  1  1  0  0  0
  8  6  1  0  0  0  0
  9 12  1  0  0  0  0
 10 12  1  0  0  0  0
 10  7  1  0  0  0  0
 11 14  2  0  0  0  0
 13  4  2  0  0  0  0
 13  9  1  0  0  0  0
 14 13  1  0  0  0  0
 15  1  1  6  0  0  0
 15  3  1  0  0  0  0
 16  5  1  6  0  0  0
 16 15  1  0  0  0  0
 16  3  1  0  0  0  0
 18 19  1  0  0  0  0
 19 17  2  0  0  0  0
 19 23  1  0  0  0  0
 20 18  1  0  0  0  0
 20 21  1  1  0  0  0
 21 17  1  0  0  0  0
 23 22  2  0  0  0  0
 24 25  1  0  0  0  0
 24 18  1  0  0  0  0
 25 26  1  0  0  0  0
 28 27  1  0  0  0  0
M  END
>  <MODEL>
6

>  <REMARK>
 VINA RESULT:      -3.2      5.580     10.094
  Name = 
  5 active torsions:
  status: ('A' for Active; 'I' for Inactive)
    1  A    between atoms: N_9  and  C_18
    2  A    between atoms: C_10  and  C_13
    3  A    between atoms: C_11  and  C_22
    4  A    between atoms: C_12  and  C_23
    5  A    between atoms: C_14  and  C_18
                            x       y       z     vdW  Elec       q    Type
                         _______ _______ _______ _____ _____    ______ ____

>  <TORSDO>
F 5

$$$$
=
 OpenBabel11052423043D

 28 30  0  0  1  0  0  0  0  0999 V2000
  160.9690  211.0810  151.4420 N   0  0  0  0  0  2  0  0  0  0  0  0
  162.7770  210.5230  153.5090 C   0  0  0  0  0  1  0  0  0  0  0  0
  161.4290  209.8000  153.5100 C   0  0  1  0  0  0  0  0  0  0  0  0
  158.2120  213.3820  150.6830 O   0  0  0  0  0  0  0  0  0  0  0  0
  162.2450  208.8030  151.4480 O   0  0  0  0  0  1  0  0  0  0  0  0
  160.7680  210.5760  155.8670 C   0  0  0  0  0  2  0  0  0  0  0  0
  159.6490  211.5640  155.5570 C   0  0  2  0  0  3  0  0  0  0  0  0
  160.8440  209.4050  154.8840 C   0  0  1  0  0  3  0  0  0  0  0  0
  158.4070  212.2340  152.7400 C   0  0  0  0  0  2  0  0  0  0  0  0
  160.1100  212.6090  154.5350 C   0  0  0  0  0  2  0  0  0  0  0  0
  160.7450  212.7980  149.9100 O   0  0  0  0  0  0  0  0  0  0  0  0
  158.9260  213.2020  153.7890 C   0  0  0  0  0  2  0  0  0  0  0  0
  158.9180  212.6150  151.3900 C   0  0  0  0  0  0  0  0  0  0  0  0
  160.2400  212.1810  150.8850 C   0  0  0  0  0  0  0  0  0  0  0  0
  160.4290  210.1250  152.4030 C   0  0  2  0  0  3  0  0  0  0  0  0
  161.2010  208.7940  152.3840 C   0  0  2  0  0  3  0  0  0  0  0  0
  158.4920  214.4530  157.2600 C   0  0  0  0  0  3  0  0  0  0  0  0
  157.6930  212.3670  156.8390 N   0  0  0  0  0  0  0  0  0  0  0  0
  157.4010  213.7290  157.0970 C   0  0  0  0  0  0  0  0  0  0  0  0
  159.1340  212.1800  156.8680 C   0  0  2  0  0  3  0  0  0  0  0  0
  159.7040  213.5820  157.1390 C   0  0  0  0  0  2  0  0  0  0  0  0
  155.2320  214.1170  156.1990 O   0  0  0  0  0  0  0  0  0  0  0  0
  156.0360  214.2670  157.1570 C   0  0  0  0  0  3  0  0  0  0  0  0
  156.7160  211.2840  156.8320 C   0  0  0  0  0  2  0  0  0  0  0  0
  156.1750  211.0500  155.4340 C   0  0  0  0  0  2  0  0  0  0  0  0
  155.1710  209.9170  155.4300 C   0  0  0  0  0  1  0  0  0  0  0  0
  159.6210  207.4210  155.7870 C   0  0  0  0  0  1  0  0  0  0  0  0
  159.5330  208.6160  154.8590 C   0  0  0  0  0  2  0  0  0  0  0  0
  3  2  1  6  0  0  0
  3  8  1  0  0  0  0
  4 13  2  0  0  0  0
  7 10  1  6  0  0  0
  7  6  1  0  0  0  0
  7 20  1  0  0  0  0
  8 28  1  6  0  0  0
  8  6  1  0  0  0  0
  9 12  1  0  0  0  0
 11 14  2  0  0  0  0
 12 10  1  0  0  0  0
 13  9  1  0  0  0  0
 14 13  1  0  0  0  0
 14  1  1  0  0  0  0
 15  1  1  6  0  0  0
 15  3  1  0  0  0  0
 16  5  1  6  0  0  0
 16 15  1  0  0  0  0
 16  3  1  0  0  0  0
 18 20  1  0  0  0  0
 18 19  1  0  0  0  0
 19 23  1  0  0  0  0
 19 17  2  0  0  0  0
 20 21  1  6  0  0  0
 21 17  1  0  0  0  0
 22 23  2  0  0  0  0
 24 18  1  0  0  0  0
 25 24  1  0  0  0  0
 26 25  1  0  0  0  0
 28 27  1  0  0  0  0
M  END
>  <MODEL>
7

>  <REMARK>
 VINA RESULT:      -3.2      1.896      5.851
  Name = 
  5 active torsions:
  status: ('A' for Active; 'I' for Inactive)
    1  A    between atoms: N_9  and  C_18
    2  A    between atoms: C_10  and  C_13
    3  A    between atoms: C_11  and  C_22
    4  A    between atoms: C_12  and  C_23
    5  A    between atoms: C_14  and  C_18
                            x       y       z     vdW  Elec       q    Type
                         _______ _______ _______ _____ _____    ______ ____

>  <TORSDO>
F 5

$$$$
=
 OpenBabel11052423043D

 28 30  0  0  1  0  0  0  0  0999 V2000
  161.4490  204.2860  149.9860 N   0  0  0  0  0  2  0  0  0  0  0  0
  163.3210  204.8040  152.0070 C   0  0  0  0  0  1  0  0  0  0  0  0
  161.8770  205.2590  152.2230 C   0  0  1  0  0  0  0  0  0  0  0  0
  160.0780  205.8700  146.9730 O   0  0  0  0  0  0  0  0  0  0  0  0
  161.3840  202.8780  152.1840 O   0  0  0  0  0  1  0  0  0  0  0  0
  162.4840  207.7200  152.6370 C   0  0  0  0  0  2  0  0  0  0  0  0
  161.9530  208.3790  151.3690 C   0  0  2  0  0  3  0  0  0  0  0  0
  161.6580  206.5150  153.0950 C   0  0  1  0  0  3  0  0  0  0  0  0
  160.3510  207.0140  149.0230 C   0  0  0  0  0  2  0  0  0  0  0  0
  162.5000  207.6810  150.1190 C   0  0  0  0  0  2  0  0  0  0  0  0
  161.6000  203.7610  147.7400 O   0  0  0  0  0  0  0  0  0  0  0  0
  161.5840  207.8970  148.9260 C   0  0  0  0  0  2  0  0  0  0  0  0
  160.5100  205.8110  148.1550 C   0  0  0  0  0  0  0  0  0  0  0  0
  161.2090  204.5870  148.6060 C   0  0  0  0  0  0  0  0  0  0  0  0
  160.8610  205.0070  151.1100 C   0  0  2  0  0  3  0  0  0  0  0  0
  160.8380  204.1530  152.3900 C   0  0  2  0  0  3  0  0  0  0  0  0
  161.2990  211.6080  150.0520 C   0  0  0  0  0  3  0  0  0  0  0  0
  161.2180  210.6240  152.0990 N   0  0  0  0  0  0  0  0  0  0  0  0
  160.7190  211.6300  151.2370 C   0  0  0  0  0  0  0  0  0  0  0  0
  162.2610  209.8840  151.4080 C   0  0  2  0  0  3  0  0  0  0  0  0
  162.3300  210.5220  150.0110 C   0  0  0  0  0  2  0  0  0  0  0  0
  159.8670  213.8170  151.6260 O   0  0  0  0  0  0  0  0  0  0  0  0
  159.6620  212.5750  151.6210 C   0  0  0  0  0  3  0  0  0  0  0  0
  160.9410  210.5270  153.5290 C   0  0  0  0  0  2  0  0  0  0  0  0
  159.4470  210.5100  153.7920 C   0  0  0  0  0  2  0  0  0  0  0  0
  159.1570  210.7820  155.2530 C   0  0  0  0  0  1  0  0  0  0  0  0
  159.9740  207.0990  154.8470 C   0  0  0  0  0  1  0  0  0  0  0  0
  160.2040  206.9090  153.3610 C   0  0  0  0  0  2  0  0  0  0  0  0
  3  2  1  6  0  0  0
  3 16  1  0  0  0  0
  3  8  1  0  0  0  0
  4 13  2  0  0  0  0
  6  8  1  0  0  0  0
  7 10  1  6  0  0  0
  7 20  1  0  0  0  0
  7  6  1  0  0  0  0
  8 28  1  6  0  0  0
 11 14  2  0  0  0  0
 12  9  1  0  0  0  0
 12 10  1  0  0  0  0
 13 14  1  0  0  0  0
 13  9  1  0  0  0  0
 14  1  1  0  0  0  0
 15  1  1  6  0  0  0
 15  3  1  0  0  0  0
 15 16  1  0  0  0  0
 16  5  1  6  0  0  0
 17 19  2  0  0  0  0
 18 24  1  0  0  0  0
 19 23  1  0  0  0  0
 19 18  1  0  0  0  0
 20 21  1  6  0  0  0
 20 18  1  0  0  0  0
 21 17  1  0  0  0  0
 23 22  2  0  0  0  0
 24 25  1  0  0  0  0
 25 26  1  0  0  0  0
 28 27  1  0  0  0  0
M  END
>  <MODEL>
8

>  <REMARK>
 VINA RESULT:      -3.0      2.896      7.792
  Name = 
  5 active torsions:
  status: ('A' for Active; 'I' for Inactive)
    1  A    between atoms: N_9  and  C_18
    2  A    between atoms: C_10  and  C_13
    3  A    between atoms: C_11  and  C_22
    4  A    between atoms: C_12  and  C_23
    5  A    between atoms: C_14  and  C_18
                            x       y       z     vdW  Elec       q    Type
                         _______ _______ _______ _____ _____    ______ ____

>  <TORSDO>
F 5

$$$$
=
 OpenBabel11052423043D

 28 30  0  0  1  0  0  0  0  0999 V2000
  161.6360  207.8730  152.8320 N   0  0  0  0  0  2  0  0  0  0  0  0
  162.3740  210.3280  153.9640 C   0  0  0  0  0  1  0  0  0  0  0  0
  160.9540  210.1810  153.4140 C   0  0  1  0  0  0  0  0  0  0  0  0
  161.6280  206.1860  149.5730 O   0  0  0  0  0  0  0  0  0  0  0  0
  160.7090  208.5300  155.1820 O   0  0  0  0  0  1  0  0  0  0  0  0
  161.1300  212.1860  151.8180 C   0  0  0  0  0  2  0  0  0  0  0  0
  161.1680  211.4900  150.4630 C   0  0  2  0  0  3  0  0  0  0  0  0
  160.2790  211.4550  152.8600 C   0  0  1  0  0  3  0  0  0  0  0  0
  160.8780  208.4060  149.8800 C   0  0  0  0  0  2  0  0  0  0  0  0
  162.2630  210.4180  150.4290 C   0  0  0  0  0  2  0  0  0  0  0  0
  162.8050  206.0550  152.0120 O   0  0  0  0  0  0  0  0  0  0  0  0
  161.9560  209.3560  149.3860 C   0  0  0  0  0  2  0  0  0  0  0  0
  161.4950  207.1430  150.3810 C   0  0  0  0  0  0  0  0  0  0  0  0
  162.0100  206.9980  151.7610 C   0  0  0  0  0  0  0  0  0  0  0  0
  160.5580  208.8550  152.7680 C   0  0  2  0  0  3  0  0  0  0  0  0
  160.0340  209.2230  154.1670 C   0  0  2  0  0  3  0  0  0  0  0  0
  161.1460  212.2030  146.9880 C   0  0  0  0  0  3  0  0  0  0  0  0
  160.0200  212.9380  148.8200 N   0  0  0  0  0  0  0  0  0  0  0  0
  160.0130  212.7230  147.4210 C   0  0  0  0  0  0  0  0  0  0  0  0
  161.3130  212.5420  149.3520 C   0  0  2  0  0  3  0  0  0  0  0  0
  162.0950  212.0270  148.1320 C   0  0  0  0  0  2  0  0  0  0  0  0
  158.6110  212.3410  145.5360 O   0  0  0  0  0  0  0  0  0  0  0  0
  158.8640  213.0300  146.5590 C   0  0  0  0  0  3  0  0  0  0  0  0
  159.0150  213.6930  149.5600 C   0  0  0  0  0  2  0  0  0  0  0  0
  157.6590  213.0160  149.4790 C   0  0  0  0  0  2  0  0  0  0  0  0
  156.5560  213.9770  149.8700 C   0  0  0  0  0  1  0  0  0  0  0  0
  157.9260  212.2480  153.1470 C   0  0  0  0  0  1  0  0  0  0  0  0
  158.8320  211.3020  152.3860 C   0  0  0  0  0  2  0  0  0  0  0  0
  3  2  1  1  0  0  0
  3 16  1  0  0  0  0
  4 13  2  0  0  0  0
  6  8  1  0  0  0  0
  7 10  1  1  0  0  0
  7  6  1  0  0  0  0
  8 28  1  6  0  0  0
  8  3  1  0  0  0  0
  9 13  1  0  0  0  0
 12  9  1  0  0  0  0
 12 10  1  0  0  0  0
 13 14  1  0  0  0  0
 14 11  2  0  0  0  0
 14  1  1  0  0  0  0
 15  1  1  1  0  0  0
 15  3  1  0  0  0  0
 15 16  1  0  0  0  0
 16  5  1  1  0  0  0
 17 19  2  0  0  0  0
 17 21  1  0  0  0  0
 18 20  1  0  0  0  0
 18 24  1  0  0  0  0
 19 18  1  0  0  0  0
 20 21  1  6  0  0  0
 20  7  1  0  0  0  0
 22 23  2  0  0  0  0
 23 19  1  0  0  0  0
 25 24  1  0  0  0  0
 25 26  1  0  0  0  0
 28 27  1  0  0  0  0
M  END
>  <MODEL>
9

>  <REMARK>
 VINA RESULT:      -3.0      3.017      6.980
  Name = 
  5 active torsions:
  status: ('A' for Active; 'I' for Inactive)
    1  A    between atoms: N_9  and  C_18
    2  A    between atoms: C_10  and  C_13
    3  A    between atoms: C_11  and  C_22
    4  A    between atoms: C_12  and  C_23
    5  A    between atoms: C_14  and  C_18
                            x       y       z     vdW  Elec       q    Type
                         _______ _______ _______ _____ _____    ______ ____

>  <TORSDO>
F 5

$$$$
