=
 OpenBabel11062410133D

 43 47  0  0  1  0  0  0  0  0999 V2000
  160.1370  202.0920  149.2980 C   0  0  1  0  0  3  0  0  0  0  0  0
  161.2490  206.3830  151.7650 C   0  0  0  0  0  0  0  0  0  0  0  0
  161.9550  208.1950  149.8060 C   0  0  2  0  0  3  0  0  0  0  0  0
  161.0450  203.6370  150.9610 C   0  0  0  0  0  0  0  0  0  0  0  0
  160.9490  202.7910  148.1980 C   0  0  0  0  0  2  0  0  0  0  0  0
  160.1140  200.7300  149.0740 F   0  0  0  0  0  0  0  0  0  0  0  0
  160.8860  204.7200  149.9160 C   0  0  2  0  0  3  0  0  0  0  0  0
  160.7100  202.3800  150.6540 C   0  0  0  0  0  3  0  0  0  0  0  0
  161.3940  204.2250  148.5540 C   0  0  0  0  0  2  0  0  0  0  0  0
  161.2360  207.0480  149.4250 O   0  0  0  0  0  0  0  0  0  0  0  0
  161.5920  206.0200  150.3240 C   0  0  1  0  0  3  0  0  0  0  0  0
  161.1870  205.2950  152.8110 C   0  0  0  0  0  2  0  0  0  0  0  0
  161.1500  207.6820  152.1150 C   0  0  0  0  0  0  0  0  0  0  0  0
  161.3610  208.7640  151.0930 C   0  0  0  0  0  2  0  0  0  0  0  0
  161.6710  203.9430  152.2880 C   0  0  0  0  0  2  0  0  0  0  0  0
  161.9110  209.2540  148.7100 C   0  0  2  0  0  3  0  0  0  0  0  0
  162.9820  209.0920  147.8250 O   0  0  0  0  0  1  0  0  0  0  0  0
  161.9370  210.5550  149.2850 O   0  0  0  0  0  0  0  0  0  0  0  0
  162.0500  211.7120  148.5050 C   0  0  0  0  0  0  0  0  0  0  0  0
  163.1100  212.3950  148.5270 O   0  0  0  0  0  0  0  0  0  0  0  0
  160.9990  212.1210  147.6870 O   0  0  0  0  0  0  0  0  0  0  0  0
  160.4920  213.4510  147.7040 C   0  0  1  0  0  3  0  0  0  0  0  0
  161.1330  214.2190  146.7240 O   0  0  0  0  0  0  0  0  0  0  0  0
  162.5470  213.8210  145.1510 C   0  0  0  0  0  1  0  0  0  0  0  0
  161.3540  213.3840  145.7270 O   0  0  0  0  0  0  0  0  0  0  0  0
  158.9820  213.4460  147.4570 C   0  0  2  0  0  3  0  0  0  0  0  0
  158.2240  213.6930  148.7240 C   0  0  0  0  0  0  0  0  0  0  0  0
  156.0980  214.0050  149.8520 C   0  0  0  0  0  3  0  0  0  0  0  0
  158.1620  214.1350  151.1110 C   0  0  0  0  0  3  0  0  0  0  0  0
  156.7670  214.1930  151.0650 C   0  0  0  0  0  3  0  0  0  0  0  0
  158.8910  213.8880  149.9440 C   0  0  0  0  0  3  0  0  0  0  0  0
  156.8260  213.7580  148.6840 C   0  0  0  0  0  3  0  0  0  0  0  0
  158.5750  212.2490  146.8540 O   0  0  0  0  0  0  0  0  0  0  0  0
  158.0610  212.6290  145.6140 C   0  0  0  0  0  1  0  0  0  0  0  0
  160.8560  208.0880  153.4590 N   0  0  0  0  0  2  0  0  0  0  0  0
  159.6170  211.6230  153.3400 C   0  0  0  0  0  3  0  0  0  0  0  0
  159.7880  212.0070  154.6770 C   0  0  0  0  0  0  0  0  0  0  0  0
  160.6530  209.8000  155.1880 C   0  0  0  0  0  3  0  0  0  0  0  0
  159.9610  210.3310  152.9310 C   0  0  0  0  0  3  0  0  0  0  0  0
  160.4710  209.4090  153.8570 C   0  0  0  0  0  0  0  0  0  0  0  0
  160.3100  211.0910  155.5970 C   0  0  0  0  0  3  0  0  0  0  0  0
  159.4490  213.2890  155.1060 O   0  0  0  0  0  0  0  0  0  0  0  0
  160.0460  213.8460  156.1680 O   0  0  0  0  0  1  0  0  0  0  0  0
  1  6  1  6  0  0  0
  1  8  1  0  0  0  0
  2 13  2  0  0  0  0
  2 12  1  0  0  0  0
  3 16  1  6  0  0  0
  3 14  1  0  0  0  0
  4 15  1  0  0  0  0
  5  9  1  0  0  0  0
  5  1  1  0  0  0  0
  7  9  1  6  0  0  0
  7 11  1  0  0  0  0
  7  4  1  0  0  0  0
  8  4  2  0  0  0  0
 10  3  1  0  0  0  0
 11 10  1  6  0  0  0
 11  2  1  0  0  0  0
 13 35  1  0  0  0  0
 14 13  1  0  0  0  0
 15 12  1  0  0  0  0
 16 17  1  6  0  0  0
 16 18  1  0  0  0  0
 19 20  2  0  0  0  0
 19 18  1  0  0  0  0
 21 22  1  0  0  0  0
 21 19  1  0  0  0  0
 22 23  1  6  0  0  0
 24 25  1  0  0  0  0
 25 23  1  0  0  0  0
 26 33  1  1  0  0  0
 26 22  1  0  0  0  0
 26 27  1  0  0  0  0
 27 31  1  0  0  0  0
 28 30  2  0  0  0  0
 30 29  1  0  0  0  0
 31 29  2  0  0  0  0
 32 27  2  0  0  0  0
 32 28  1  0  0  0  0
 34 33  1  0  0  0  0
 35 40  1  0  0  0  0
 36 37  1  0  0  0  0
 37 42  1  0  0  0  0
 37 41  2  0  0  0  0
 38 41  1  0  0  0  0
 39 36  2  0  0  0  0
 39 40  1  0  0  0  0
 40 38  2  0  0  0  0
 42 43  1  0  0  0  0
M  END
>  <MODEL>
1

>  <REMARK>
 VINA RESULT:      -8.0      0.000      0.000
  Name = 
  13 active torsions:
  status: ('A' for Active; 'I' for Inactive)
    1  A    between atoms: N_1  and  C_34
    2  A    between atoms: N_1  and  C_35
    3  A    between atoms: C_2  and  O_6
    4  A    between atoms: C_2  and  C_13
    5  A    between atoms: O_3  and  C_4
    6  A    between atoms: O_3  and  C_12
    7  A    between atoms: C_4  and  O_15
    8  A    between atoms: C_4  and  C_22
    9  A    between atoms: O_6  and  C_12
   10  A    between atoms: C_11  and  C_22
   11  A    between atoms: O_14  and  C_22
   12  A    between atoms: O_15  and  O_42
   13  A    between atoms: C_19  and  O_25
                            x       y       z     vdW  Elec       q    Type
                         _______ _______ _______ _____ _____    ______ ____

>  <TORSDO>
F 13

$$$$
=
 OpenBabel11062410133D

 43 47  0  0  1  0  0  0  0  0999 V2000
  160.6070  204.1450  149.2550 C   0  0  1  0  0  3  0  0  0  0  0  0
  161.7550  208.6270  151.3360 C   0  0  0  0  0  0  0  0  0  0  0  0
  162.3110  210.3020  149.2140 C   0  0  2  0  0  3  0  0  0  0  0  0
  161.5690  205.8250  150.7480 C   0  0  0  0  0  0  0  0  0  0  0  0
  161.3420  204.7750  148.0630 C   0  0  0  0  0  2  0  0  0  0  0  0
  160.6030  202.7690  149.1320 F   0  0  0  0  0  0  0  0  0  0  0  0
  161.3290  206.8250  149.6370 C   0  0  2  0  0  3  0  0  0  0  0  0
  161.2480  204.5440  150.5520 C   0  0  0  0  0  3  0  0  0  0  0  0
  161.7730  206.2400  148.2870 C   0  0  0  0  0  2  0  0  0  0  0  0
  161.5990  209.1160  148.9590 O   0  0  0  0  0  0  0  0  0  0  0  0
  162.0270  208.1640  149.9080 C   0  0  1  0  0  3  0  0  0  0  0  0
  161.7750  207.6180  152.4610 C   0  0  0  0  0  2  0  0  0  0  0  0
  161.6460  209.9460  151.5950 C   0  0  0  0  0  0  0  0  0  0  0  0
  161.7760  210.9540  150.4870 C   0  0  0  0  0  2  0  0  0  0  0  0
  162.2600  206.2400  152.0110 C   0  0  0  0  0  2  0  0  0  0  0  0
  162.1840  211.2750  148.0480 C   0  0  2  0  0  3  0  0  0  0  0  0
  163.2390  212.1940  148.0550 O   0  0  0  0  0  1  0  0  0  0  0  0
  160.9360  211.9560  148.1110 O   0  0  0  0  0  0  0  0  0  0  0  0
  160.8410  213.3500  148.0260 C   0  0  0  0  0  0  0  0  0  0  0  0
  160.9650  214.0620  149.0580 O   0  0  0  0  0  0  0  0  0  0  0  0
  160.6200  213.9710  146.7980 O   0  0  0  0  0  0  0  0  0  0  0  0
  160.3710  213.2360  145.6050 C   0  0  1  0  0  3  0  0  0  0  0  0
  159.0550  213.4500  145.1790 O   0  0  0  0  0  0  0  0  0  0  0  0
  157.4260  212.6570  146.3410 C   0  0  0  0  0  1  0  0  0  0  0  0
  158.4270  212.3170  145.4310 O   0  0  0  0  0  0  0  0  0  0  0  0
  161.3500  213.6590  144.5070 C   0  0  2  0  0  3  0  0  0  0  0  0
  160.8310  213.2980  143.1490 C   0  0  0  0  0  0  0  0  0  0  0  0
  160.2950  211.5900  141.5120 C   0  0  0  0  0  3  0  0  0  0  0  0
  159.9790  213.9280  140.9640 C   0  0  0  0  0  3  0  0  0  0  0  0
  159.9040  212.5800  140.6040 C   0  0  0  0  0  3  0  0  0  0  0  0
  160.4440  214.2880  142.2330 C   0  0  0  0  0  3  0  0  0  0  0  0
  160.7600  211.9500  142.7810 C   0  0  0  0  0  3  0  0  0  0  0  0
  162.6170  213.1050  144.7230 O   0  0  0  0  0  0  0  0  0  0  0  0
  163.4770  213.8520  143.9170 C   0  0  0  0  0  1  0  0  0  0  0  0
  161.4170  210.4450  152.9210 N   0  0  0  0  0  2  0  0  0  0  0  0
  157.9150  211.7080  153.3500 C   0  0  0  0  0  3  0  0  0  0  0  0
  157.6460  211.2990  154.6640 C   0  0  0  0  0  0  0  0  0  0  0  0
  159.8640  210.3280  154.8020 C   0  0  0  0  0  3  0  0  0  0  0  0
  159.1530  211.4260  152.7660 C   0  0  0  0  0  3  0  0  0  0  0  0
  160.1310  210.7240  153.4870 C   0  0  0  0  0  0  0  0  0  0  0  0
  158.6270  210.6110  155.3860 C   0  0  0  0  0  3  0  0  0  0  0  0
  156.4180  211.5680  155.2640 O   0  0  0  0  0  0  0  0  0  0  0  0
  156.3190  211.7650  156.5860 O   0  0  0  0  0  1  0  0  0  0  0  0
  1  6  1  6  0  0  0
  1  8  1  0  0  0  0
  2 13  2  0  0  0  0
  2 12  1  0  0  0  0
  3 16  1  6  0  0  0
  3 14  1  0  0  0  0
  4 15  1  0  0  0  0
  5  9  1  0  0  0  0
  5  1  1  0  0  0  0
  7  9  1  6  0  0  0
  7 11  1  0  0  0  0
  7  4  1  0  0  0  0
  8  4  2  0  0  0  0
 10  3  1  0  0  0  0
 11 10  1  6  0  0  0
 11  2  1  0  0  0  0
 13 35  1  0  0  0  0
 14 13  1  0  0  0  0
 15 12  1  0  0  0  0
 16 17  1  1  0  0  0
 16 18  1  0  0  0  0
 19 18  1  0  0  0  0
 19 20  2  0  0  0  0
 21 19  1  0  0  0  0
 22 23  1  6  0  0  0
 22 21  1  0  0  0  0
 23 25  1  0  0  0  0
 25 24  1  0  0  0  0
 26 33  1  1  0  0  0
 26 22  1  0  0  0  0
 27 26  1  0  0  0  0
 28 32  2  0  0  0  0
 29 31  1  0  0  0  0
 30 29  2  0  0  0  0
 30 28  1  0  0  0  0
 31 27  2  0  0  0  0
 32 27  1  0  0  0  0
 34 33  1  0  0  0  0
 35 40  1  0  0  0  0
 36 37  1  0  0  0  0
 37 42  1  0  0  0  0
 37 41  2  0  0  0  0
 38 41  1  0  0  0  0
 39 36  2  0  0  0  0
 39 40  1  0  0  0  0
 40 38  2  0  0  0  0
 42 43  1  0  0  0  0
M  END
>  <MODEL>
2

>  <REMARK>
 VINA RESULT:      -7.6      2.178      4.197
  Name = 
  13 active torsions:
  status: ('A' for Active; 'I' for Inactive)
    1  A    between atoms: N_1  and  C_34
    2  A    between atoms: N_1  and  C_35
    3  A    between atoms: C_2  and  O_6
    4  A    between atoms: C_2  and  C_13
    5  A    between atoms: O_3  and  C_4
    6  A    between atoms: O_3  and  C_12
    7  A    between atoms: C_4  and  O_15
    8  A    between atoms: C_4  and  C_22
    9  A    between atoms: O_6  and  C_12
   10  A    between atoms: C_11  and  C_22
   11  A    between atoms: O_14  and  C_22
   12  A    between atoms: O_15  and  O_42
   13  A    between atoms: C_19  and  O_25
                            x       y       z     vdW  Elec       q    Type
                         _______ _______ _______ _____ _____    ______ ____

>  <TORSDO>
F 13

$$$$
=
 OpenBabel11062410133D

 43 47  0  0  1  0  0  0  0  0999 V2000
  161.4420  202.8420  148.5340 C   0  0  1  0  0  3  0  0  0  0  0  0
  161.5910  207.8020  149.5900 C   0  0  0  0  0  0  0  0  0  0  0  0
  161.0710  207.9930  152.2940 C   0  0  2  0  0  3  0  0  0  0  0  0
  161.0950  205.2570  148.3630 C   0  0  0  0  0  0  0  0  0  0  0  0
  160.6780  202.8210  149.8650 C   0  0  0  0  0  2  0  0  0  0  0  0
  161.1400  201.7120  147.7990 F   0  0  0  0  0  0  0  0  0  0  0  0
  161.3620  205.3130  149.8520 C   0  0  2  0  0  3  0  0  0  0  0  0
  161.1090  204.0740  147.7430 C   0  0  0  0  0  3  0  0  0  0  0  0
  160.6010  204.1900  150.5730 C   0  0  0  0  0  2  0  0  0  0  0  0
  161.4720  206.7470  151.7790 O   0  0  0  0  0  0  0  0  0  0  0  0
  161.0090  206.6820  150.4470 C   0  0  1  0  0  3  0  0  0  0  0  0
  161.5370  207.6890  148.0840 C   0  0  0  0  0  2  0  0  0  0  0  0
  162.0110  208.9390  150.1820 C   0  0  0  0  0  0  0  0  0  0  0  0
  161.9220  209.0990  151.6740 C   0  0  0  0  0  2  0  0  0  0  0  0
  160.7120  206.4940  147.6090 C   0  0  0  0  0  2  0  0  0  0  0  0
  161.2150  208.0270  153.8110 C   0  0  2  0  0  3  0  0  0  0  0  0
  161.3740  206.7340  154.3210 O   0  0  0  0  0  1  0  0  0  0  0  0
  160.0800  208.6530  154.3980 O   0  0  0  0  0  0  0  0  0  0  0  0
  159.7130  208.4350  155.7310 C   0  0  0  0  0  0  0  0  0  0  0  0
  159.3600  207.2870  156.1160 O   0  0  0  0  0  0  0  0  0  0  0  0
  159.7430  209.4780  156.6540 O   0  0  0  0  0  0  0  0  0  0  0  0
  159.5540  210.8370  156.2760 C   0  0  1  0  0  3  0  0  0  0  0  0
  160.6150  211.2580  155.4660 O   0  0  0  0  0  0  0  0  0  0  0  0
  162.7120  210.7950  155.6030 C   0  0  0  0  0  1  0  0  0  0  0  0
  161.6430  211.3760  156.2840 O   0  0  0  0  0  0  0  0  0  0  0  0
  158.2290  211.0010  155.5280 C   0  0  2  0  0  3  0  0  0  0  0  0
  158.3390  212.0330  154.4490 C   0  0  0  0  0  0  0  0  0  0  0  0
  158.5730  212.5650  152.0930 C   0  0  0  0  0  3  0  0  0  0  0  0
  158.4790  214.3480  153.7290 C   0  0  0  0  0  3  0  0  0  0  0  0
  158.5860  213.9290  152.4010 C   0  0  0  0  0  3  0  0  0  0  0  0
  158.3580  213.4030  154.7530 C   0  0  0  0  0  3  0  0  0  0  0  0
  158.4520  211.6190  153.1170 C   0  0  0  0  0  3  0  0  0  0  0  0
  157.1880  211.3080  156.4120 O   0  0  0  0  0  0  0  0  0  0  0  0
  156.0260  210.9060  155.7530 C   0  0  0  0  0  1  0  0  0  0  0  0
  162.5430  210.0380  149.4280 N   0  0  0  0  0  2  0  0  0  0  0  0
  160.6770  213.2870  149.3630 C   0  0  0  0  0  3  0  0  0  0  0  0
  160.2570  213.3220  148.0260 C   0  0  0  0  0  0  0  0  0  0  0  0
  161.3570  211.1970  147.6360 C   0  0  0  0  0  3  0  0  0  0  0  0
  161.4350  212.2110  149.8320 C   0  0  0  0  0  3  0  0  0  0  0  0
  161.7890  211.1640  148.9660 C   0  0  0  0  0  0  0  0  0  0  0  0
  160.5980  212.2720  147.1670 C   0  0  0  0  0  3  0  0  0  0  0  0
  159.5020  214.3870  147.5370 O   0  0  0  0  0  0  0  0  0  0  0  0
  158.9130  214.3270  146.3350 O   0  0  0  0  0  1  0  0  0  0  0  0
  1  6  1  6  0  0  0
  1  5  1  0  0  0  0
  2 13  2  0  0  0  0
  3 16  1  1  0  0  0
  4  7  1  0  0  0  0
  5  9  1  0  0  0  0
  7 11  1  0  0  0  0
  7  9  1  1  0  0  0
  8  4  2  0  0  0  0
  8  1  1  0  0  0  0
 10  3  1  0  0  0  0
 11  2  1  6  0  0  0
 11 10  1  0  0  0  0
 12  2  1  0  0  0  0
 13 14  1  0  0  0  0
 14  3  1  0  0  0  0
 15 12  1  0  0  0  0
 15  4  1  0  0  0  0
 16 17  1  1  0  0  0
 16 18  1  0  0  0  0
 18 19  1  0  0  0  0
 19 20  2  0  0  0  0
 19 21  1  0  0  0  0
 22 23  1  6  0  0  0
 22 21  1  0  0  0  0
 23 25  1  0  0  0  0
 24 25  1  0  0  0  0
 26 22  1  0  0  0  0
 26 33  1  1  0  0  0
 27 31  1  0  0  0  0
 27 26  1  0  0  0  0
 28 30  2  0  0  0  0
 28 32  1  0  0  0  0
 29 31  2  0  0  0  0
 30 29  1  0  0  0  0
 32 27  2  0  0  0  0
 34 33  1  0  0  0  0
 35 13  1  0  0  0  0
 36 39  1  0  0  0  0
 37 36  2  0  0  0  0
 38 40  1  0  0  0  0
 40 35  1  0  0  0  0
 40 39  2  0  0  0  0
 41 38  2  0  0  0  0
 41 37  1  0  0  0  0
 42 37  1  0  0  0  0
 43 42  1  0  0  0  0
M  END
>  <MODEL>
3

>  <REMARK>
 VINA RESULT:      -7.3      2.383      6.281
  Name = 
  13 active torsions:
  status: ('A' for Active; 'I' for Inactive)
    1  A    between atoms: N_1  and  C_34
    2  A    between atoms: N_1  and  C_35
    3  A    between atoms: C_2  and  O_6
    4  A    between atoms: C_2  and  C_13
    5  A    between atoms: O_3  and  C_4
    6  A    between atoms: O_3  and  C_12
    7  A    between atoms: C_4  and  O_15
    8  A    between atoms: C_4  and  C_22
    9  A    between atoms: O_6  and  C_12
   10  A    between atoms: C_11  and  C_22
   11  A    between atoms: O_14  and  C_22
   12  A    between atoms: O_15  and  O_42
   13  A    between atoms: C_19  and  O_25
                            x       y       z     vdW  Elec       q    Type
                         _______ _______ _______ _____ _____    ______ ____

>  <TORSDO>
F 13

$$$$
=
 OpenBabel11062410133D

 43 47  0  0  1  0  0  0  0  0999 V2000
  161.5850  203.3090  148.4360 C   0  0  1  0  0  3  0  0  0  0  0  0
  161.6050  208.1930  149.8070 C   0  0  0  0  0  0  0  0  0  0  0  0
  160.8500  208.2130  152.4620 C   0  0  2  0  0  3  0  0  0  0  0  0
  161.2370  205.7290  148.3860 C   0  0  0  0  0  0  0  0  0  0  0  0
  160.7080  203.2030  149.6910 C   0  0  0  0  0  2  0  0  0  0  0  0
  161.3580  202.2270  147.6080 F   0  0  0  0  0  0  0  0  0  0  0  0
  161.3720  205.6920  149.8930 C   0  0  2  0  0  3  0  0  0  0  0  0
  161.3140  204.5870  147.6970 C   0  0  0  0  0  3  0  0  0  0  0  0
  160.5600  204.5250  150.4730 C   0  0  0  0  0  2  0  0  0  0  0  0
  161.3040  207.0030  151.9070 O   0  0  0  0  0  0  0  0  0  0  0  0
  160.9590  207.0210  150.5390 C   0  0  1  0  0  3  0  0  0  0  0  0
  161.6840  208.1750  148.2990 C   0  0  0  0  0  2  0  0  0  0  0  0
  161.9630  209.2920  150.5040 C   0  0  0  0  0  0  0  0  0  0  0  0
  161.7440  209.3580  151.9890 C   0  0  0  0  0  2  0  0  0  0  0  0
  160.9120  207.0100  147.6800 C   0  0  0  0  0  2  0  0  0  0  0  0
  160.8600  208.1520  153.9850 C   0  0  2  0  0  3  0  0  0  0  0  0
  160.5200  206.8700  154.4300 O   0  0  0  0  0  1  0  0  0  0  0  0
  159.9600  209.1160  154.5210 O   0  0  0  0  0  0  0  0  0  0  0  0
  160.3560  210.0520  155.4830 C   0  0  0  0  0  0  0  0  0  0  0  0
  161.0980  209.7060  156.4420 O   0  0  0  0  0  0  0  0  0  0  0  0
  159.9460  211.3810  155.3900 O   0  0  0  0  0  0  0  0  0  0  0  0
  158.5760  211.7620  155.4410 C   0  0  1  0  0  3  0  0  0  0  0  0
  158.0030  211.3190  156.6400 O   0  0  0  0  0  0  0  0  0  0  0  0
  156.2980  210.5320  155.5890 C   0  0  0  0  0  1  0  0  0  0  0  0
  156.7070  211.5150  156.4900 O   0  0  0  0  0  0  0  0  0  0  0  0
  158.4430  213.2820  155.3290 C   0  0  2  0  0  3  0  0  0  0  0  0
  157.7360  213.6730  154.0690 C   0  0  0  0  0  0  0  0  0  0  0  0
  157.8040  214.0430  151.6720 C   0  0  0  0  0  3  0  0  0  0  0  0
  155.7560  214.4530  152.8980 C   0  0  0  0  0  3  0  0  0  0  0  0
  156.4620  214.4360  151.6930 C   0  0  0  0  0  3  0  0  0  0  0  0
  156.3910  214.0750  154.0850 C   0  0  0  0  0  3  0  0  0  0  0  0
  158.4390  213.6650  152.8590 C   0  0  0  0  0  3  0  0  0  0  0  0
  159.6950  213.9040  155.4160 O   0  0  0  0  0  0  0  0  0  0  0  0
  159.7380  214.4440  156.7020 C   0  0  0  0  0  1  0  0  0  0  0  0
  162.5510  210.4360  149.8690 N   0  0  0  0  0  2  0  0  0  0  0  0
  160.3970  213.4450  149.2740 C   0  0  0  0  0  3  0  0  0  0  0  0
  160.3620  213.4700  147.8730 C   0  0  0  0  0  0  0  0  0  0  0  0
  161.7760  211.5010  147.8130 C   0  0  0  0  0  3  0  0  0  0  0  0
  161.1210  212.4510  149.9400 C   0  0  0  0  0  3  0  0  0  0  0  0
  161.8240  211.4800  149.2110 C   0  0  0  0  0  0  0  0  0  0  0  0
  161.0520  212.4930  147.1470 C   0  0  0  0  0  3  0  0  0  0  0  0
  159.6490  214.4530  147.1890 O   0  0  0  0  0  0  0  0  0  0  0  0
  158.5660  214.1460  146.4630 O   0  0  0  0  0  1  0  0  0  0  0  0
  1  6  1  6  0  0  0
  1  5  1  0  0  0  0
  2 13  2  0  0  0  0
  3 16  1  1  0  0  0
  4  7  1  0  0  0  0
  5  9  1  0  0  0  0
  7  9  1  1  0  0  0
  7 11  1  0  0  0  0
  8  4  2  0  0  0  0
  8  1  1  0  0  0  0
 10  3  1  0  0  0  0
 11  2  1  6  0  0  0
 11 10  1  0  0  0  0
 12  2  1  0  0  0  0
 13 14  1  0  0  0  0
 14  3  1  0  0  0  0
 15 12  1  0  0  0  0
 15  4  1  0  0  0  0
 16 17  1  6  0  0  0
 16 18  1  0  0  0  0
 18 19  1  0  0  0  0
 19 20  2  0  0  0  0
 21 19  1  0  0  0  0
 22 21  1  1  0  0  0
 22 23  1  0  0  0  0
 24 25  1  0  0  0  0
 25 23  1  0  0  0  0
 26 33  1  6  0  0  0
 26 22  1  0  0  0  0
 27 31  1  0  0  0  0
 27 26  1  0  0  0  0
 28 30  2  0  0  0  0
 28 32  1  0  0  0  0
 29 31  2  0  0  0  0
 30 29  1  0  0  0  0
 32 27  2  0  0  0  0
 33 34  1  0  0  0  0
 35 13  1  0  0  0  0
 36 39  1  0  0  0  0
 37 36  2  0  0  0  0
 38 40  1  0  0  0  0
 40 35  1  0  0  0  0
 40 39  2  0  0  0  0
 41 38  2  0  0  0  0
 41 37  1  0  0  0  0
 42 37  1  0  0  0  0
 43 42  1  0  0  0  0
M  END
>  <MODEL>
4

>  <REMARK>
 VINA RESULT:      -7.3      2.222      6.300
  Name = 
  13 active torsions:
  status: ('A' for Active; 'I' for Inactive)
    1  A    between atoms: N_1  and  C_34
    2  A    between atoms: N_1  and  C_35
    3  A    between atoms: C_2  and  O_6
    4  A    between atoms: C_2  and  C_13
    5  A    between atoms: O_3  and  C_4
    6  A    between atoms: O_3  and  C_12
    7  A    between atoms: C_4  and  O_15
    8  A    between atoms: C_4  and  C_22
    9  A    between atoms: O_6  and  C_12
   10  A    between atoms: C_11  and  C_22
   11  A    between atoms: O_14  and  C_22
   12  A    between atoms: O_15  and  O_42
   13  A    between atoms: C_19  and  O_25
                            x       y       z     vdW  Elec       q    Type
                         _______ _______ _______ _____ _____    ______ ____

>  <TORSDO>
F 13

$$$$
=
 OpenBabel11062410133D

 43 47  0  0  1  0  0  0  0  0999 V2000
  160.0410  201.8950  149.2430 C   0  0  1  0  0  3  0  0  0  0  0  0
  161.2410  206.1220  151.7790 C   0  0  0  0  0  0  0  0  0  0  0  0
  161.9390  207.9650  149.8460 C   0  0  2  0  0  3  0  0  0  0  0  0
  160.9920  203.3950  150.9240 C   0  0  0  0  0  0  0  0  0  0  0  0
  160.8440  202.6060  148.1460 C   0  0  0  0  0  2  0  0  0  0  0  0
  159.9980  200.5380  148.9930 F   0  0  0  0  0  0  0  0  0  0  0  0
  160.8310  204.5010  149.9030 C   0  0  2  0  0  3  0  0  0  0  0  0
  160.6380  202.1490  150.5970 C   0  0  0  0  0  3  0  0  0  0  0  0
  161.3120  204.0280  148.5230 C   0  0  0  0  0  2  0  0  0  0  0  0
  161.2010  206.8340  149.4540 O   0  0  0  0  0  0  0  0  0  0  0  0
  161.5580  205.7840  150.3260 C   0  0  1  0  0  3  0  0  0  0  0  0
  161.1820  205.0130  152.8040 C   0  0  0  0  0  2  0  0  0  0  0  0
  161.1630  207.4150  152.1560 C   0  0  0  0  0  0  0  0  0  0  0  0
  161.3720  208.5150  151.1540 C   0  0  0  0  0  2  0  0  0  0  0  0
  161.6410  203.6660  152.2470 C   0  0  0  0  0  2  0  0  0  0  0  0
  161.8920  209.0460  148.7730 C   0  0  2  0  0  3  0  0  0  0  0  0
  162.6740  208.6830  147.6720 O   0  0  0  0  0  1  0  0  0  0  0  0
  162.3370  210.2870  149.3080 O   0  0  0  0  0  0  0  0  0  0  0  0
  162.3190  211.4700  148.5600 C   0  0  0  0  0  0  0  0  0  0  0  0
  163.3230  212.2330  148.5470 O   0  0  0  0  0  0  0  0  0  0  0  0
  161.1960  211.8180  147.8110 O   0  0  0  0  0  0  0  0  0  0  0  0
  160.4020  212.9610  148.1130 C   0  0  1  0  0  3  0  0  0  0  0  0
  160.8970  213.5960  149.2580 O   0  0  0  0  0  0  0  0  0  0  0  0
  159.3740  213.8970  150.7490 C   0  0  0  0  0  1  0  0  0  0  0  0
  159.9540  214.4500  149.6080 O   0  0  0  0  0  0  0  0  0  0  0  0
  160.4050  213.9350  146.9330 C   0  0  2  0  0  3  0  0  0  0  0  0
  159.0250  214.1300  146.3860 C   0  0  0  0  0  0  0  0  0  0  0  0
  156.6350  214.2860  146.7740 C   0  0  0  0  0  3  0  0  0  0  0  0
  157.5050  214.4500  144.5190 C   0  0  0  0  0  3  0  0  0  0  0  0
  156.4210  214.4500  145.4010 C   0  0  0  0  0  3  0  0  0  0  0  0
  158.8050  214.2880  145.0090 C   0  0  0  0  0  3  0  0  0  0  0  0
  157.9350  214.1240  147.2630 C   0  0  0  0  0  3  0  0  0  0  0  0
  161.2860  213.5100  145.9320 O   0  0  0  0  0  0  0  0  0  0  0  0
  162.3170  214.4500  145.9380 C   0  0  0  0  0  1  0  0  0  0  0  0
  160.8940  207.7970  153.5130 N   0  0  0  0  0  2  0  0  0  0  0  0
  160.6830  210.8750  155.6400 C   0  0  0  0  0  3  0  0  0  0  0  0
  159.9610  211.7300  154.7950 C   0  0  0  0  0  0  0  0  0  0  0  0
  159.8730  209.9790  153.1190 C   0  0  0  0  0  3  0  0  0  0  0  0
  160.9990  209.5790  155.2230 C   0  0  0  0  0  3  0  0  0  0  0  0
  160.6050  209.1280  153.9540 C   0  0  0  0  0  0  0  0  0  0  0  0
  159.5560  211.2740  153.5350 C   0  0  0  0  0  3  0  0  0  0  0  0
  159.6370  213.0260  155.1900 O   0  0  0  0  0  0  0  0  0  0  0  0
  158.9520  213.2580  156.3180 O   0  0  0  0  0  1  0  0  0  0  0  0
  1  6  1  6  0  0  0
  1  8  1  0  0  0  0
  2 13  2  0  0  0  0
  2 12  1  0  0  0  0
  3 16  1  6  0  0  0
  3 14  1  0  0  0  0
  4 15  1  0  0  0  0
  5  9  1  0  0  0  0
  5  1  1  0  0  0  0
  7  9  1  6  0  0  0
  7 11  1  0  0  0  0
  7  4  1  0  0  0  0
  8  4  2  0  0  0  0
 10  3  1  0  0  0  0
 11 10  1  6  0  0  0
 11  2  1  0  0  0  0
 13 35  1  0  0  0  0
 14 13  1  0  0  0  0
 15 12  1  0  0  0  0
 16 17  1  6  0  0  0
 16 18  1  0  0  0  0
 19 18  1  0  0  0  0
 20 19  2  0  0  0  0
 21 19  1  0  0  0  0
 22 21  1  6  0  0  0
 22 23  1  0  0  0  0
 23 25  1  0  0  0  0
 25 24  1  0  0  0  0
 26 33  1  6  0  0  0
 26 22  1  0  0  0  0
 27 26  1  0  0  0  0
 27 32  1  0  0  0  0
 28 32  2  0  0  0  0
 29 31  1  0  0  0  0
 29 30  2  0  0  0  0
 30 28  1  0  0  0  0
 31 27  2  0  0  0  0
 33 34  1  0  0  0  0
 35 40  1  0  0  0  0
 37 42  1  0  0  0  0
 37 36  2  0  0  0  0
 38 41  2  0  0  0  0
 38 40  1  0  0  0  0
 39 36  1  0  0  0  0
 40 39  2  0  0  0  0
 41 37  1  0  0  0  0
 42 43  1  0  0  0  0
M  END
>  <MODEL>
5

>  <REMARK>
 VINA RESULT:      -7.3      1.030      2.404
  Name = 
  13 active torsions:
  status: ('A' for Active; 'I' for Inactive)
    1  A    between atoms: N_1  and  C_34
    2  A    between atoms: N_1  and  C_35
    3  A    between atoms: C_2  and  O_6
    4  A    between atoms: C_2  and  C_13
    5  A    between atoms: O_3  and  C_4
    6  A    between atoms: O_3  and  C_12
    7  A    between atoms: C_4  and  O_15
    8  A    between atoms: C_4  and  C_22
    9  A    between atoms: O_6  and  C_12
   10  A    between atoms: C_11  and  C_22
   11  A    between atoms: O_14  and  C_22
   12  A    between atoms: O_15  and  O_42
   13  A    between atoms: C_19  and  O_25
                            x       y       z     vdW  Elec       q    Type
                         _______ _______ _______ _____ _____    ______ ____

>  <TORSDO>
F 13

$$$$
=
 OpenBabel11062410133D

 43 47  0  0  1  0  0  0  0  0999 V2000
  161.2130  207.5710  154.7300 C   0  0  1  0  0  3  0  0  0  0  0  0
  161.9260  207.0120  149.7390 C   0  0  0  0  0  0  0  0  0  0  0  0
  161.7060  209.5500  148.6770 C   0  0  2  0  0  3  0  0  0  0  0  0
  161.0750  206.6790  152.4580 C   0  0  0  0  0  0  0  0  0  0  0  0
  160.5910  208.8920  154.2560 C   0  0  0  0  0  2  0  0  0  0  0  0
  160.7350  207.2490  155.9850 F   0  0  0  0  0  0  0  0  0  0  0  0
  161.4970  208.0540  151.9860 C   0  0  2  0  0  3  0  0  0  0  0  0
  160.9160  206.4600  153.7660 C   0  0  0  0  0  3  0  0  0  0  0  0
  160.7140  209.1400  152.7380 C   0  0  0  0  0  2  0  0  0  0  0  0
  161.9360  209.4230  150.0580 O   0  0  0  0  0  0  0  0  0  0  0  0
  161.3350  208.2140  150.4680 C   0  0  1  0  0  3  0  0  0  0  0  0
  161.7080  205.6250  150.2960 C   0  0  0  0  0  2  0  0  0  0  0  0
  162.5080  207.1890  148.5340 C   0  0  0  0  0  0  0  0  0  0  0  0
  162.5880  208.5580  147.9200 C   0  0  0  0  0  2  0  0  0  0  0  0
  160.7320  205.6050  151.4710 C   0  0  0  0  0  2  0  0  0  0  0  0
  162.0070  210.9670  148.2020 C   0  0  2  0  0  3  0  0  0  0  0  0
  162.3130  211.7960  149.2860 O   0  0  0  0  0  1  0  0  0  0  0  0
  160.8980  211.4880  147.4790 O   0  0  0  0  0  0  0  0  0  0  0  0
  160.5660  212.8480  147.5020 C   0  0  0  0  0  0  0  0  0  0  0  0
  159.7010  213.2800  148.3110 O   0  0  0  0  0  0  0  0  0  0  0  0
  161.1920  213.7450  146.6390 O   0  0  0  0  0  0  0  0  0  0  0  0
  160.5510  214.2610  145.4780 C   0  0  1  0  0  3  0  0  0  0  0  0
  161.4800  214.3880  144.4380 O   0  0  0  0  0  0  0  0  0  0  0  0
  163.5200  213.9300  143.9320 C   0  0  0  0  0  1  0  0  0  0  0  0
  162.4510  213.5500  144.7440 O   0  0  0  0  0  0  0  0  0  0  0  0
  159.4090  213.3380  145.0470 C   0  0  2  0  0  3  0  0  0  0  0  0
  159.4490  213.0750  143.5740 C   0  0  0  0  0  0  0  0  0  0  0  0
  160.0850  211.6270  141.7340 C   0  0  0  0  0  3  0  0  0  0  0  0
  159.0140  213.7520  141.2820 C   0  0  0  0  0  3  0  0  0  0  0  0
  159.5800  212.5600  140.8230 C   0  0  0  0  0  3  0  0  0  0  0  0
  158.9490  214.0110  142.6550 C   0  0  0  0  0  3  0  0  0  0  0  0
  160.0210  211.8860  143.1060 C   0  0  0  0  0  3  0  0  0  0  0  0
  158.1680  213.8610  145.4300 O   0  0  0  0  0  0  0  0  0  0  0  0
  157.4010  212.7490  145.7780 C   0  0  0  0  0  1  0  0  0  0  0  0
  163.0590  206.0940  147.7880 N   0  0  0  0  0  2  0  0  0  0  0  0
  161.1290  204.7080  144.8910 C   0  0  0  0  0  3  0  0  0  0  0  0
  160.7890  203.4400  145.3830 C   0  0  0  0  0  0  0  0  0  0  0  0
  161.9570  203.9420  147.4480 C   0  0  0  0  0  3  0  0  0  0  0  0
  161.8810  205.5860  145.6750 C   0  0  0  0  0  3  0  0  0  0  0  0
  162.3090  205.2030  146.9550 C   0  0  0  0  0  0  0  0  0  0  0  0
  161.2040  203.0630  146.6650 C   0  0  0  0  0  3  0  0  0  0  0  0
  160.0410  202.5470  144.6170 O   0  0  0  0  0  0  0  0  0  0  0  0
  160.0410  201.2340  144.8840 O   0  0  0  0  0  1  0  0  0  0  0  0
  1  6  1  1  0  0  0
  2 12  1  0  0  0  0
  3 16  1  6  0  0  0
  3 10  1  0  0  0  0
  4  8  2  0  0  0  0
  5  1  1  0  0  0  0
  7  4  1  0  0  0  0
  7  9  1  1  0  0  0
  8  1  1  0  0  0  0
  9  5  1  0  0  0  0
 10 11  1  0  0  0  0
 11  2  1  6  0  0  0
 11  7  1  0  0  0  0
 12 15  1  0  0  0  0
 13  2  2  0  0  0  0
 14 13  1  0  0  0  0
 14  3  1  0  0  0  0
 15  4  1  0  0  0  0
 16 17  1  1  0  0  0
 18 19  1  0  0  0  0
 18 16  1  0  0  0  0
 19 20  2  0  0  0  0
 21 19  1  0  0  0  0
 22 23  1  6  0  0  0
 22 21  1  0  0  0  0
 23 25  1  0  0  0  0
 24 25  1  0  0  0  0
 26 33  1  6  0  0  0
 26 22  1  0  0  0  0
 27 26  1  0  0  0  0
 28 32  2  0  0  0  0
 29 31  1  0  0  0  0
 30 29  2  0  0  0  0
 30 28  1  0  0  0  0
 31 27  2  0  0  0  0
 32 27  1  0  0  0  0
 33 34  1  0  0  0  0
 35 13  1  0  0  0  0
 36 37  2  0  0  0  0
 36 39  1  0  0  0  0
 37 41  1  0  0  0  0
 39 40  2  0  0  0  0
 40 38  1  0  0  0  0
 40 35  1  0  0  0  0
 41 38  2  0  0  0  0
 42 43  1  0  0  0  0
 42 37  1  0  0  0  0
M  END
>  <MODEL>
6

>  <REMARK>
 VINA RESULT:      -7.2      3.149      6.980
  Name = 
  13 active torsions:
  status: ('A' for Active; 'I' for Inactive)
    1  A    between atoms: N_1  and  C_34
    2  A    between atoms: N_1  and  C_35
    3  A    between atoms: C_2  and  O_6
    4  A    between atoms: C_2  and  C_13
    5  A    between atoms: O_3  and  C_4
    6  A    between atoms: O_3  and  C_12
    7  A    between atoms: C_4  and  O_15
    8  A    between atoms: C_4  and  C_22
    9  A    between atoms: O_6  and  C_12
   10  A    between atoms: C_11  and  C_22
   11  A    between atoms: O_14  and  C_22
   12  A    between atoms: O_15  and  O_42
   13  A    between atoms: C_19  and  O_25
                            x       y       z     vdW  Elec       q    Type
                         _______ _______ _______ _____ _____    ______ ____

>  <TORSDO>
F 13

$$$$
=
 OpenBabel11062410133D

 43 47  0  0  1  0  0  0  0  0999 V2000
  161.2180  207.6930  155.3700 C   0  0  1  0  0  3  0  0  0  0  0  0
  161.8790  207.4370  150.3470 C   0  0  0  0  0  0  0  0  0  0  0  0
  161.6510  210.0350  149.4420 C   0  0  2  0  0  3  0  0  0  0  0  0
  161.0560  206.9400  153.0490 C   0  0  0  0  0  0  0  0  0  0  0  0
  160.5930  209.0400  154.9820 C   0  0  0  0  0  2  0  0  0  0  0  0
  160.7520  207.2950  156.6080 F   0  0  0  0  0  0  0  0  0  0  0  0
  161.4740  208.3410  152.6560 C   0  0  2  0  0  3  0  0  0  0  0  0
  160.9090  206.6430  154.3430 C   0  0  0  0  0  3  0  0  0  0  0  0
  160.7000  209.3800  153.4810 C   0  0  0  0  0  2  0  0  0  0  0  0
  161.8950  209.8240  150.8110 O   0  0  0  0  0  0  0  0  0  0  0  0
  161.2970  208.5930  151.1530 C   0  0  1  0  0  3  0  0  0  0  0  0
  161.6650  206.0180  150.8200 C   0  0  0  0  0  2  0  0  0  0  0  0
  162.4490  207.6860  149.1490 C   0  0  0  0  0  0  0  0  0  0  0  0
  162.5240  209.0900  148.6180 C   0  0  0  0  0  2  0  0  0  0  0  0
  160.7010  205.9280  152.0030 C   0  0  0  0  0  2  0  0  0  0  0  0
  161.9490  211.4780  149.0510 C   0  0  2  0  0  3  0  0  0  0  0  0
  161.2020  212.3650  149.8330 O   0  0  0  0  0  1  0  0  0  0  0  0
  161.6690  211.6800  147.6710 O   0  0  0  0  0  0  0  0  0  0  0  0
  161.8700  212.9140  147.0420 C   0  0  0  0  0  0  0  0  0  0  0  0
  162.7830  213.6890  147.4350 O   0  0  0  0  0  0  0  0  0  0  0  0
  161.0710  213.3010  145.9680 O   0  0  0  0  0  0  0  0  0  0  0  0
  159.7360  212.8370  145.8040 C   0  0  1  0  0  3  0  0  0  0  0  0
  158.8920  213.4840  146.7140 O   0  0  0  0  0  0  0  0  0  0  0  0
  157.4140  212.9330  148.1780 C   0  0  0  0  0  1  0  0  0  0  0  0
  157.8850  212.6510  146.8970 O   0  0  0  0  0  0  0  0  0  0  0  0
  159.2560  213.0940  144.3740 C   0  0  2  0  0  3  0  0  0  0  0  0
  160.2650  212.6280  143.3710 C   0  0  0  0  0  0  0  0  0  0  0  0
  160.8450  211.1600  141.5280 C   0  0  0  0  0  3  0  0  0  0  0  0
  162.4950  212.6980  142.4100 C   0  0  0  0  0  3  0  0  0  0  0  0
  162.1350  211.6990  141.5020 C   0  0  0  0  0  3  0  0  0  0  0  0
  161.5630  213.1610  143.3440 C   0  0  0  0  0  3  0  0  0  0  0  0
  159.9140  211.6230  142.4630 C   0  0  0  0  0  3  0  0  0  0  0  0
  158.9460  214.4450  144.1830 O   0  0  0  0  0  0  0  0  0  0  0  0
  157.6100  214.4530  143.7800 C   0  0  0  0  0  1  0  0  0  0  0  0
  162.9910  206.6380  148.3320 N   0  0  0  0  0  2  0  0  0  0  0  0
  161.3650  203.7380  146.6040 C   0  0  0  0  0  3  0  0  0  0  0  0
  160.8330  204.3710  145.4710 C   0  0  0  0  0  0  0  0  0  0  0  0
  161.7260  206.4870  146.2480 C   0  0  0  0  0  3  0  0  0  0  0  0
  162.0730  204.4790  147.5540 C   0  0  0  0  0  3  0  0  0  0  0  0
  162.2480  205.8610  147.3860 C   0  0  0  0  0  0  0  0  0  0  0  0
  161.0200  205.7460  145.2980 C   0  0  0  0  0  3  0  0  0  0  0  0
  160.1220  203.6510  144.5120 O   0  0  0  0  0  0  0  0  0  0  0  0
  159.8240  202.3580  144.6960 O   0  0  0  0  0  1  0  0  0  0  0  0
  1  6  1  1  0  0  0
  2 12  1  0  0  0  0
  3 16  1  6  0  0  0
  3 10  1  0  0  0  0
  4  8  2  0  0  0  0
  5  1  1  0  0  0  0
  7  4  1  0  0  0  0
  7  9  1  1  0  0  0
  8  1  1  0  0  0  0
  9  5  1  0  0  0  0
 10 11  1  0  0  0  0
 11  2  1  6  0  0  0
 11  7  1  0  0  0  0
 12 15  1  0  0  0  0
 13  2  2  0  0  0  0
 14 13  1  0  0  0  0
 14  3  1  0  0  0  0
 15  4  1  0  0  0  0
 16 17  1  1  0  0  0
 18 16  1  0  0  0  0
 19 20  2  0  0  0  0
 19 18  1  0  0  0  0
 21 19  1  0  0  0  0
 22 21  1  6  0  0  0
 22 23  1  0  0  0  0
 23 25  1  0  0  0  0
 25 24  1  0  0  0  0
 26 33  1  1  0  0  0
 26 22  1  0  0  0  0
 27 26  1  0  0  0  0
 28 32  1  0  0  0  0
 29 31  2  0  0  0  0
 30 28  2  0  0  0  0
 30 29  1  0  0  0  0
 31 27  1  0  0  0  0
 32 27  2  0  0  0  0
 34 33  1  0  0  0  0
 35 13  1  0  0  0  0
 36 39  1  0  0  0  0
 37 36  2  0  0  0  0
 38 40  1  0  0  0  0
 40 39  2  0  0  0  0
 40 35  1  0  0  0  0
 41 37  1  0  0  0  0
 41 38  2  0  0  0  0
 42 43  1  0  0  0  0
 42 37  1  0  0  0  0
M  END
>  <MODEL>
7

>  <REMARK>
 VINA RESULT:      -7.0      3.029      7.028
  Name = 
  13 active torsions:
  status: ('A' for Active; 'I' for Inactive)
    1  A    between atoms: N_1  and  C_34
    2  A    between atoms: N_1  and  C_35
    3  A    between atoms: C_2  and  O_6
    4  A    between atoms: C_2  and  C_13
    5  A    between atoms: O_3  and  C_4
    6  A    between atoms: O_3  and  C_12
    7  A    between atoms: C_4  and  O_15
    8  A    between atoms: C_4  and  C_22
    9  A    between atoms: O_6  and  C_12
   10  A    between atoms: C_11  and  C_22
   11  A    between atoms: O_14  and  C_22
   12  A    between atoms: O_15  and  O_42
   13  A    between atoms: C_19  and  O_25
                            x       y       z     vdW  Elec       q    Type
                         _______ _______ _______ _____ _____    ______ ____

>  <TORSDO>
F 13

$$$$
=
 OpenBabel11062410133D

 43 47  0  0  1  0  0  0  0  0999 V2000
  155.6590  211.7990  156.0240 C   0  0  1  0  0  3  0  0  0  0  0  0
  158.9710  212.9440  152.3560 C   0  0  0  0  0  0  0  0  0  0  0  0
  161.0020  211.0910  152.5960 C   0  0  2  0  0  3  0  0  0  0  0  0
  157.0990  213.0860  154.5250 C   0  0  0  0  0  0  0  0  0  0  0  0
  156.8850  211.0610  156.5780 C   0  0  0  0  0  2  0  0  0  0  0  0
  154.7590  212.0500  157.0420 F   0  0  0  0  0  0  0  0  0  0  0  0
  157.8740  211.8040  154.3090 C   0  0  2  0  0  3  0  0  0  0  0  0
  156.0590  213.0860  155.3640 C   0  0  0  0  0  3  0  0  0  0  0  0
  158.1180  211.0960  155.6500 C   0  0  0  0  0  2  0  0  0  0  0  0
  159.7690  210.8120  153.2110 O   0  0  0  0  0  0  0  0  0  0  0  0
  159.1960  212.0500  153.5710 C   0  0  1  0  0  3  0  0  0  0  0  0
  158.0330  214.1240  152.4650 C   0  0  0  0  0  2  0  0  0  0  0  0
  159.7200  212.7590  151.2500 C   0  0  0  0  0  0  0  0  0  0  0  0
  160.7580  211.6730  151.2050 C   0  0  0  0  0  2  0  0  0  0  0  0
  157.5530  214.3680  153.8960 C   0  0  0  0  0  2  0  0  0  0  0  0
  161.8520  209.8310  152.4820 C   0  0  2  0  0  3  0  0  0  0  0  0
  163.0440  210.0990  151.8000 O   0  0  0  0  0  1  0  0  0  0  0  0
  161.1220  208.8060  151.8160 O   0  0  0  0  0  0  0  0  0  0  0  0
  161.3620  207.4470  152.0510 C   0  0  0  0  0  0  0  0  0  0  0  0
  160.7860  206.8530  153.0010 O   0  0  0  0  0  0  0  0  0  0  0  0
  162.2330  206.7300  151.2330 O   0  0  0  0  0  0  0  0  0  0  0  0
  161.7710  205.8320  150.2290 C   0  0  1  0  0  3  0  0  0  0  0  0
  160.6050  205.1900  150.6640 O   0  0  0  0  0  0  0  0  0  0  0  0
  160.4650  203.0540  150.8770 C   0  0  0  0  0  1  0  0  0  0  0  0
  161.0250  204.2030  151.4320 O   0  0  0  0  0  0  0  0  0  0  0  0
  161.4970  206.5870  148.9270 C   0  0  2  0  0  3  0  0  0  0  0  0
  161.4850  205.6570  147.7530 C   0  0  0  0  0  0  0  0  0  0  0  0
  161.3170  205.3350  145.3540 C   0  0  0  0  0  3  0  0  0  0  0  0
  161.5480  203.4180  146.8160 C   0  0  0  0  0  3  0  0  0  0  0  0
  161.4180  203.9510  145.5310 C   0  0  0  0  0  3  0  0  0  0  0  0
  161.5800  204.2680  147.9260 C   0  0  0  0  0  3  0  0  0  0  0  0
  161.3480  206.1850  146.4640 C   0  0  0  0  0  3  0  0  0  0  0  0
  162.4240  207.6190  148.7400 O   0  0  0  0  0  0  0  0  0  0  0  0
  161.6520  208.7730  148.6010 C   0  0  0  0  0  1  0  0  0  0  0  0
  159.5730  213.5840  150.0840 N   0  0  0  0  0  2  0  0  0  0  0  0
  162.3190  214.0550  147.5780 C   0  0  0  0  0  3  0  0  0  0  0  0
  161.8370  213.2820  146.5120 C   0  0  0  0  0  0  0  0  0  0  0  0
  159.8760  212.7170  147.8220 C   0  0  0  0  0  3  0  0  0  0  0  0
  161.5810  214.1550  148.7610 C   0  0  0  0  0  3  0  0  0  0  0  0
  160.3600  213.4770  148.8930 C   0  0  0  0  0  0  0  0  0  0  0  0
  160.6130  212.6180  146.6390 C   0  0  0  0  0  3  0  0  0  0  0  0
  162.5570  213.1670  145.3240 O   0  0  0  0  0  0  0  0  0  0  0  0
  161.9350  213.0280  144.1460 O   0  0  0  0  0  1  0  0  0  0  0  0
  1  5  1  0  0  0  0
  1  6  1  1  0  0  0
  2 12  1  0  0  0  0
  3 16  1  6  0  0  0
  3 10  1  0  0  0  0
  4  8  2  0  0  0  0
  7  4  1  0  0  0  0
  7  9  1  1  0  0  0
  8  1  1  0  0  0  0
  9  5  1  0  0  0  0
 10 11  1  0  0  0  0
 11  2  1  6  0  0  0
 11  7  1  0  0  0  0
 12 15  1  0  0  0  0
 13  2  2  0  0  0  0
 14 13  1  0  0  0  0
 14  3  1  0  0  0  0
 15  4  1  0  0  0  0
 16 17  1  6  0  0  0
 18 19  1  0  0  0  0
 18 16  1  0  0  0  0
 19 20  2  0  0  0  0
 21 19  1  0  0  0  0
 22 23  1  1  0  0  0
 22 21  1  0  0  0  0
 23 25  1  0  0  0  0
 24 25  1  0  0  0  0
 26 33  1  6  0  0  0
 26 22  1  0  0  0  0
 27 31  1  0  0  0  0
 27 26  1  0  0  0  0
 28 30  2  0  0  0  0
 28 32  1  0  0  0  0
 29 31  2  0  0  0  0
 30 29  1  0  0  0  0
 32 27  2  0  0  0  0
 34 33  1  0  0  0  0
 35 13  1  0  0  0  0
 36 39  1  0  0  0  0
 37 41  1  0  0  0  0
 37 36  2  0  0  0  0
 38 40  1  0  0  0  0
 39 40  2  0  0  0  0
 40 35  1  0  0  0  0
 41 38  2  0  0  0  0
 42 37  1  0  0  0  0
 43 42  1  0  0  0  0
M  END
>  <MODEL>
8

>  <REMARK>
 VINA RESULT:      -6.8      3.321      8.975
  Name = 
  13 active torsions:
  status: ('A' for Active; 'I' for Inactive)
    1  A    between atoms: N_1  and  C_34
    2  A    between atoms: N_1  and  C_35
    3  A    between atoms: C_2  and  O_6
    4  A    between atoms: C_2  and  C_13
    5  A    between atoms: O_3  and  C_4
    6  A    between atoms: O_3  and  C_12
    7  A    between atoms: C_4  and  O_15
    8  A    between atoms: C_4  and  C_22
    9  A    between atoms: O_6  and  C_12
   10  A    between atoms: C_11  and  C_22
   11  A    between atoms: O_14  and  C_22
   12  A    between atoms: O_15  and  O_42
   13  A    between atoms: C_19  and  O_25
                            x       y       z     vdW  Elec       q    Type
                         _______ _______ _______ _____ _____    ______ ____

>  <TORSDO>
F 13

$$$$
=
 OpenBabel11062410133D

 43 47  0  0  1  0  0  0  0  0999 V2000
  160.4390  204.1270  145.3250 C   0  0  1  0  0  3  0  0  0  0  0  0
  161.3730  206.2820  149.8210 C   0  0  0  0  0  0  0  0  0  0  0  0
  162.3110  208.8120  149.2420 C   0  0  2  0  0  3  0  0  0  0  0  0
  161.2000  204.4420  147.6270 C   0  0  0  0  0  0  0  0  0  0  0  0
  161.3730  205.2510  144.8560 C   0  0  0  0  0  2  0  0  0  0  0  0
  160.4130  203.1120  144.3870 F   0  0  0  0  0  0  0  0  0  0  0  0
  161.1710  205.9280  147.3410 C   0  0  2  0  0  3  0  0  0  0  0  0
  160.8750  203.5850  146.6550 C   0  0  0  0  0  3  0  0  0  0  0  0
  161.8070  206.2220  145.9740 C   0  0  0  0  0  2  0  0  0  0  0  0
  161.6140  208.1140  148.2400 O   0  0  0  0  0  0  0  0  0  0  0  0
  161.8560  206.7400  148.4490 C   0  0  1  0  0  3  0  0  0  0  0  0
  161.1830  204.8070  150.0880 C   0  0  0  0  0  2  0  0  0  0  0  0
  161.2640  207.1830  150.8190 C   0  0  0  0  0  0  0  0  0  0  0  0
  161.5990  208.6290  150.5810 C   0  0  0  0  0  2  0  0  0  0  0  0
  161.6920  203.9290  148.9460 C   0  0  0  0  0  2  0  0  0  0  0  0
  162.4010  210.2970  148.9100 C   0  0  2  0  0  3  0  0  0  0  0  0
  162.2850  211.0700  150.0700 O   0  0  0  0  0  1  0  0  0  0  0  0
  161.3890  210.6530  147.9750 O   0  0  0  0  0  0  0  0  0  0  0  0
  161.1270  211.9840  147.6310 C   0  0  0  0  0  0  0  0  0  0  0  0
  160.5330  212.7480  148.4390 O   0  0  0  0  0  0  0  0  0  0  0  0
  161.5270  212.4880  146.3940 O   0  0  0  0  0  0  0  0  0  0  0  0
  160.6080  212.7250  145.3340 C   0  0  1  0  0  3  0  0  0  0  0  0
  159.5980  213.5950  145.7630 O   0  0  0  0  0  0  0  0  0  0  0  0
  157.5200  213.5860  146.3200 C   0  0  0  0  0  1  0  0  0  0  0  0
  158.4710  212.9550  145.5190 O   0  0  0  0  0  0  0  0  0  0  0  0
  161.3330  213.3230  144.1270 C   0  0  2  0  0  3  0  0  0  0  0  0
  160.6450  212.9630  142.8460 C   0  0  0  0  0  0  0  0  0  0  0  0
  158.9260  213.4380  141.2010 C   0  0  0  0  0  3  0  0  0  0  0  0
  160.3480  211.4950  140.9350 C   0  0  0  0  0  3  0  0  0  0  0  0
  159.3040  212.3030  140.4760 C   0  0  0  0  0  3  0  0  0  0  0  0
  161.0160  211.8220  142.1190 C   0  0  0  0  0  3  0  0  0  0  0  0
  159.5950  213.7640  142.3850 C   0  0  0  0  0  3  0  0  0  0  0  0
  162.6770  212.9300  144.1020 O   0  0  0  0  0  0  0  0  0  0  0  0
  163.3710  214.0540  143.6510 C   0  0  0  0  0  1  0  0  0  0  0  0
  160.8400  206.8100  152.1380 N   0  0  0  0  0  2  0  0  0  0  0  0
  160.8950  209.8800  154.2870 C   0  0  0  0  0  3  0  0  0  0  0  0
  160.9590  209.3060  155.5640 C   0  0  0  0  0  0  0  0  0  0  0  0
  160.9360  207.0980  154.5610 C   0  0  0  0  0  3  0  0  0  0  0  0
  160.8500  209.0640  153.1530 C   0  0  0  0  0  3  0  0  0  0  0  0
  160.8590  207.6680  153.2850 C   0  0  0  0  0  0  0  0  0  0  0  0
  160.9820  207.9130  155.6950 C   0  0  0  0  0  3  0  0  0  0  0  0
  161.0020  210.1010  156.7090 O   0  0  0  0  0  0  0  0  0  0  0  0
  161.4240  211.3710  156.6550 O   0  0  0  0  0  1  0  0  0  0  0  0
  1  6  1  6  0  0  0
  1  8  1  0  0  0  0
  2 12  1  0  0  0  0
  2 13  2  0  0  0  0
  3 16  1  6  0  0  0
  3 14  1  0  0  0  0
  4 15  1  0  0  0  0
  5  1  1  0  0  0  0
  5  9  1  0  0  0  0
  7  9  1  6  0  0  0
  7  4  1  0  0  0  0
  7 11  1  0  0  0  0
  8  4  2  0  0  0  0
 10  3  1  0  0  0  0
 11 10  1  6  0  0  0
 11  2  1  0  0  0  0
 13 35  1  0  0  0  0
 14 13  1  0  0  0  0
 15 12  1  0  0  0  0
 16 17  1  1  0  0  0
 18 16  1  0  0  0  0
 19 18  1  0  0  0  0
 19 20  2  0  0  0  0
 21 19  1  0  0  0  0
 22 23  1  1  0  0  0
 22 21  1  0  0  0  0
 25 23  1  0  0  0  0
 25 24  1  0  0  0  0
 26 33  1  6  0  0  0
 26 22  1  0  0  0  0
 27 26  1  0  0  0  0
 28 32  2  0  0  0  0
 29 31  1  0  0  0  0
 30 29  2  0  0  0  0
 30 28  1  0  0  0  0
 31 27  2  0  0  0  0
 32 27  1  0  0  0  0
 34 33  1  0  0  0  0
 35 40  1  0  0  0  0
 36 37  1  0  0  0  0
 37 41  2  0  0  0  0
 37 42  1  0  0  0  0
 38 41  1  0  0  0  0
 39 40  1  0  0  0  0
 39 36  2  0  0  0  0
 40 38  2  0  0  0  0
 43 42  1  0  0  0  0
M  END
>  <MODEL>
9

>  <REMARK>
 VINA RESULT:      -6.8      2.502      4.406
  Name = 
  13 active torsions:
  status: ('A' for Active; 'I' for Inactive)
    1  A    between atoms: N_1  and  C_34
    2  A    between atoms: N_1  and  C_35
    3  A    between atoms: C_2  and  O_6
    4  A    between atoms: C_2  and  C_13
    5  A    between atoms: O_3  and  C_4
    6  A    between atoms: O_3  and  C_12
    7  A    between atoms: C_4  and  O_15
    8  A    between atoms: C_4  and  C_22
    9  A    between atoms: O_6  and  C_12
   10  A    between atoms: C_11  and  C_22
   11  A    between atoms: O_14  and  C_22
   12  A    between atoms: O_15  and  O_42
   13  A    between atoms: C_19  and  O_25
                            x       y       z     vdW  Elec       q    Type
                         _______ _______ _______ _____ _____    ______ ____

>  <TORSDO>
F 13

$$$$
