=
 OpenBabel11062409273D

 34 39  0  0  1  0  0  0  0  0999 V2000
  159.8890  210.0680  153.9490 C   0  0  0  0  0  0  0  0  0  0  0  0
  156.9810  211.6350  155.7660 C   0  0  0  0  0  3  0  0  0  0  0  0
  159.0390  210.7310  156.5830 N   0  0  0  0  0  0  0  0  0  0  0  0
  160.7780  207.8990  153.0070 C   0  0  2  0  0  3  0  0  0  0  0  0
  160.2970  209.3400  152.7040 C   0  0  0  0  0  2  0  0  0  0  0  0
  161.7720  208.9550  155.1450 C   0  0  1  0  0  3  0  0  0  0  0  0
  161.9510  208.7140  156.5970 N   0  0  0  0  0  0  0  0  0  0  0  0
  161.3850  207.6610  154.4210 C   0  0  0  0  0  2  0  0  0  0  0  0
  160.2060  210.2280  156.3310 C   0  0  0  0  0  0  0  0  0  0  0  0
  160.6470  209.9120  155.0270 C   0  0  0  0  0  0  0  0  0  0  0  0
  160.9940  209.5210  157.2570 N   0  0  0  0  0  0  0  0  0  0  0  0
  156.0310  212.0260  154.6710 C   0  0  0  0  0  2  0  0  0  0  0  0
  156.5080  213.2340  153.8470 C   0  0  2  0  0  3  0  0  0  0  0  0
  158.0420  213.3930  153.7470 C   0  0  0  0  0  2  0  0  0  0  0  0
  158.1810  211.1200  155.4930 C   0  0  0  0  0  0  0  0  0  0  0  0
  158.7520  212.1540  153.1930 C   0  0  0  0  0  2  0  0  0  0  0  0
  158.6120  210.8750  154.0380 C   0  0  1  0  0  3  0  0  0  0  0  0
  161.9230  207.1070  149.3970 C   0  0  0  0  0  2  0  0  0  0  0  0
  161.0430  204.9470  151.4750 C   0  0  0  0  0  2  0  0  0  0  0  0
  161.4530  204.0170  147.2790 C   0  0  0  0  0  0  0  0  0  0  0  0
  161.6830  205.3300  147.7040 C   0  0  0  0  0  3  0  0  0  0  0  0
  161.5750  205.6850  149.0530 C   0  0  0  0  0  0  0  0  0  0  0  0
  161.6660  207.3740  151.8780 C   0  0  1  0  0  3  0  0  0  0  0  0
  161.0180  203.3750  149.5750 C   0  0  0  0  0  3  0  0  0  0  0  0
  161.2570  204.6820  150.0100 C   0  0  0  0  0  0  0  0  0  0  0  0
  161.1190  203.0410  148.2240 C   0  0  0  0  0  3  0  0  0  0  0  0
  162.0710  205.9040  152.0630 C   0  0  0  0  0  2  0  0  0  0  0  0
  161.0580  207.6800  150.5080 C   0  0  0  0  0  2  0  0  0  0  0  0
  161.5660  203.6710  145.8530 C   0  0  0  0  0  0  0  0  0  0  0  0
  162.3490  204.3110  145.1010 O   0  0  0  0  0  0  0  0  0  0  0  0
  160.8100  202.6320  145.3220 O   0  0  0  0  0  1  0  0  0  0  0  0
  155.8400  214.4530  154.3140 N   0  0  0  0  0  0  0  0  0  0  0  0
  154.5510  214.4440  153.8930 O   0  0  0  0  0  1  0  0  0  0  0  0
  155.8230  214.4470  155.7690 C   0  0  0  0  0  1  0  0  0  0  0  0
  1 17  1  0  0  0  0
  1 10  2  0  0  0  0
  4  5  1  6  0  0  0
  4  8  1  0  0  0  0
  5  1  1  0  0  0  0
  6  8  1  6  0  0  0
  6  7  1  0  0  0  0
  7 11  2  0  0  0  0
  9  3  2  0  0  0  0
  9 11  1  0  0  0  0
 10  6  1  0  0  0  0
 10  9  1  0  0  0  0
 12  2  1  0  0  0  0
 13 32  1  1  0  0  0
 13 12  1  0  0  0  0
 14 13  1  0  0  0  0
 15  2  2  0  0  0  0
 15  3  1  0  0  0  0
 16 14  1  0  0  0  0
 17 16  1  1  0  0  0
 17 15  1  0  0  0  0
 18 28  1  0  0  0  0
 19 27  1  0  0  0  0
 20 21  2  0  0  0  0
 20 26  1  0  0  0  0
 21 22  1  0  0  0  0
 22 18  1  0  0  0  0
 22 25  2  0  0  0  0
 23 28  1  6  0  0  0
 23 27  1  0  0  0  0
 23  4  1  0  0  0  0
 24 25  1  0  0  0  0
 25 19  1  0  0  0  0
 26 24  2  0  0  0  0
 29 20  1  0  0  0  0
 30 29  2  0  0  0  0
 31 29  1  0  0  0  0
 32 34  1  0  0  0  0
 33 32  1  0  0  0  0
M  END
>  <MODEL>
1

>  <REMARK>
 VINA RESULT:     -10.7      0.000      0.000
  Name = 
  3 active torsions:
  status: ('A' for Active; 'I' for Inactive)
    1  A    between atoms: N_3  and  C_25
    2  A    between atoms: C_7  and  C_11
    3  A    between atoms: C_8  and  C_18
                            x       y       z     vdW  Elec       q    Type
                         _______ _______ _______ _____ _____    ______ ____

>  <TORSDO>
F 3

$$$$
=
 OpenBabel11062409273D

 34 39  0  0  1  0  0  0  0  0999 V2000
  160.3380  209.1420  153.6690 C   0  0  0  0  0  0  0  0  0  0  0  0
  157.8050  211.3280  155.4070 C   0  0  0  0  0  3  0  0  0  0  0  0
  159.6080  210.0180  156.2770 N   0  0  0  0  0  0  0  0  0  0  0  0
  160.7550  206.8170  152.7740 C   0  0  2  0  0  3  0  0  0  0  0  0
  160.6010  208.3230  152.4420 C   0  0  0  0  0  2  0  0  0  0  0  0
  161.9180  207.6730  154.9160 C   0  0  1  0  0  3  0  0  0  0  0  0
  162.0180  207.4250  156.3750 N   0  0  0  0  0  0  0  0  0  0  0  0
  161.2740  206.4800  154.2030 C   0  0  0  0  0  2  0  0  0  0  0  0
  160.6440  209.2720  156.0540 C   0  0  0  0  0  0  0  0  0  0  0  0
  161.0270  208.8460  154.7630 C   0  0  0  0  0  0  0  0  0  0  0  0
  161.2470  208.4290  157.0050 N   0  0  0  0  0  0  0  0  0  0  0  0
  156.9800  211.8950  154.2890 C   0  0  0  0  0  2  0  0  0  0  0  0
  157.7180  212.9580  153.4580 C   0  0  2  0  0  3  0  0  0  0  0  0
  159.2510  212.7820  153.3860 C   0  0  0  0  0  2  0  0  0  0  0  0
  158.8710  210.5630  155.1660 C   0  0  0  0  0  0  0  0  0  0  0  0
  159.6880  211.4110  152.8620 C   0  0  0  0  0  2  0  0  0  0  0  0
  159.2630  210.2060  153.7230 C   0  0  1  0  0  3  0  0  0  0  0  0
  161.5050  205.3400  149.2780 C   0  0  0  0  0  2  0  0  0  0  0  0
  160.9690  203.6240  151.8310 C   0  0  0  0  0  2  0  0  0  0  0  0
  160.9280  201.8800  147.8830 C   0  0  0  0  0  0  0  0  0  0  0  0
  161.1490  203.2560  148.0100 C   0  0  0  0  0  3  0  0  0  0  0  0
  161.1820  203.8720  149.2650 C   0  0  0  0  0  0  0  0  0  0  0  0
  161.5280  206.0940  151.6690 C   0  0  1  0  0  3  0  0  0  0  0  0
  160.7920  201.7020  150.2950 C   0  0  0  0  0  3  0  0  0  0  0  0
  161.0230  203.0750  150.4320 C   0  0  0  0  0  0  0  0  0  0  0  0
  160.7500  201.1070  149.0340 C   0  0  0  0  0  3  0  0  0  0  0  0
  162.0160  204.6990  152.0890 C   0  0  0  0  0  2  0  0  0  0  0  0
  160.7520  206.1070  150.3520 C   0  0  0  0  0  2  0  0  0  0  0  0
  160.8900  201.2580  146.5490 C   0  0  0  0  0  0  0  0  0  0  0  0
  161.1870  200.0420  146.4030 O   0  0  0  0  0  1  0  0  0  0  0  0
  160.5220  202.0070  145.4370 O   0  0  0  0  0  0  0  0  0  0  0  0
  157.3200  214.3000  153.8960 N   0  0  0  0  0  0  0  0  0  0  0  0
  155.9850  214.4520  153.7090 O   0  0  0  0  0  1  0  0  0  0  0  0
  157.5770  214.4200  155.3230 C   0  0  0  0  0  1  0  0  0  0  0  0
  1 17  1  0  0  0  0
  1 10  2  0  0  0  0
  4  5  1  6  0  0  0
  4  8  1  0  0  0  0
  5  1  1  0  0  0  0
  6  8  1  6  0  0  0
  6  7  1  0  0  0  0
  7 11  2  0  0  0  0
  9  3  2  0  0  0  0
  9 11  1  0  0  0  0
 10  6  1  0  0  0  0
 10  9  1  0  0  0  0
 12  2  1  0  0  0  0
 13 32  1  1  0  0  0
 13 12  1  0  0  0  0
 14 13  1  0  0  0  0
 15  2  2  0  0  0  0
 15  3  1  0  0  0  0
 16 14  1  0  0  0  0
 17 16  1  1  0  0  0
 17 15  1  0  0  0  0
 18 28  1  0  0  0  0
 19 27  1  0  0  0  0
 20 21  2  0  0  0  0
 20 26  1  0  0  0  0
 21 22  1  0  0  0  0
 22 18  1  0  0  0  0
 22 25  2  0  0  0  0
 23 28  1  6  0  0  0
 23 27  1  0  0  0  0
 23  4  1  0  0  0  0
 24 25  1  0  0  0  0
 25 19  1  0  0  0  0
 26 24  2  0  0  0  0
 29 20  1  0  0  0  0
 30 29  1  0  0  0  0
 31 29  2  0  0  0  0
 32 34  1  0  0  0  0
 33 32  1  0  0  0  0
M  END
>  <MODEL>
2

>  <REMARK>
 VINA RESULT:     -10.2      1.266      1.659
  Name = 
  3 active torsions:
  status: ('A' for Active; 'I' for Inactive)
    1  A    between atoms: N_3  and  C_25
    2  A    between atoms: C_7  and  C_11
    3  A    between atoms: C_8  and  C_18
                            x       y       z     vdW  Elec       q    Type
                         _______ _______ _______ _____ _____    ______ ____

>  <TORSDO>
F 3

$$$$
=
 OpenBabel11062409273D

 34 39  0  0  1  0  0  0  0  0999 V2000
  161.2250  205.9200  150.1220 C   0  0  0  0  0  0  0  0  0  0  0  0
  162.0880  204.1020  146.9340 C   0  0  0  0  0  3  0  0  0  0  0  0
  161.2950  203.2890  149.0390 N   0  0  0  0  0  0  0  0  0  0  0  0
  162.1840  206.8380  152.2720 C   0  0  2  0  0  3  0  0  0  0  0  0
  161.4850  207.1580  150.9260 C   0  0  0  0  0  2  0  0  0  0  0  0
  160.6980  204.7250  152.2450 C   0  0  1  0  0  3  0  0  0  0  0  0
  160.7230  203.2710  152.5350 N   0  0  0  0  0  0  0  0  0  0  0  0
  161.9090  205.4270  152.8680 C   0  0  0  0  0  2  0  0  0  0  0  0
  160.8500  203.5440  150.2300 C   0  0  0  0  0  0  0  0  0  0  0  0
  160.7930  204.8480  150.7720 C   0  0  0  0  0  0  0  0  0  0  0  0
  160.7960  202.6150  151.2840 N   0  0  0  0  0  0  0  0  0  0  0  0
  162.4840  205.1940  145.9830 C   0  0  0  0  0  2  0  0  0  0  0  0
  161.2980  206.0400  145.4910 C   0  0  2  0  0  3  0  0  0  0  0  0
  160.1200  206.1560  146.4840 C   0  0  0  0  0  2  0  0  0  0  0  0
  161.6290  204.3770  148.1570 C   0  0  0  0  0  0  0  0  0  0  0  0
  160.5260  206.6980  147.8580 C   0  0  0  0  0  2  0  0  0  0  0  0
  161.5300  205.8320  148.6430 C   0  0  1  0  0  3  0  0  0  0  0  0
  160.5230  208.8280  155.1440 C   0  0  0  0  0  2  0  0  0  0  0  0
  160.5250  209.7310  152.1540 C   0  0  0  0  0  2  0  0  0  0  0  0
  157.9270  211.5690  155.0710 C   0  0  0  0  0  0  0  0  0  0  0  0
  158.7570  210.5170  155.4750 C   0  0  0  0  0  3  0  0  0  0  0  0
  159.6260  209.8920  154.5740 C   0  0  0  0  0  0  0  0  0  0  0  0
  161.9620  207.9680  153.2800 C   0  0  1  0  0  3  0  0  0  0  0  0
  158.8470  211.4050  152.8350 C   0  0  0  0  0  3  0  0  0  0  0  0
  159.6880  210.3600  153.2330 C   0  0  0  0  0  0  0  0  0  0  0  0
  157.9780  212.0090  153.7440 C   0  0  0  0  0  3  0  0  0  0  0  0
  161.9240  209.3580  152.6270 C   0  0  0  0  0  2  0  0  0  0  0  0
  160.7640  207.6750  154.1840 C   0  0  0  0  0  2  0  0  0  0  0  0
  157.0170  212.2050  156.0360 C   0  0  0  0  0  0  0  0  0  0  0  0
  157.0780  211.9140  157.2600 O   0  0  0  0  0  1  0  0  0  0  0  0
  156.0790  213.1370  155.6050 O   0  0  0  0  0  0  0  0  0  0  0  0
  160.8770  205.5850  144.1620 N   0  0  0  0  0  0  0  0  0  0  0  0
  161.9660  205.4900  143.3580 O   0  0  0  0  0  1  0  0  0  0  0  0
  160.3090  204.2510  144.2840 C   0  0  0  0  0  1  0  0  0  0  0  0
  1 10  2  0  0  0  0
  1  5  1  0  0  0  0
  2 15  2  0  0  0  0
  3  9  2  0  0  0  0
  4  5  1  6  0  0  0
  4  8  1  0  0  0  0
  4 23  1  0  0  0  0
  6  7  1  0  0  0  0
  6  8  1  1  0  0  0
  9 10  1  0  0  0  0
  9 11  1  0  0  0  0
 10  6  1  0  0  0  0
 11  7  2  0  0  0  0
 12  2  1  0  0  0  0
 13 32  1  6  0  0  0
 13 12  1  0  0  0  0
 13 14  1  0  0  0  0
 14 16  1  0  0  0  0
 15 17  1  0  0  0  0
 15  3  1  0  0  0  0
 17 16  1  6  0  0  0
 17  1  1  0  0  0  0
 19 27  1  0  0  0  0
 19 25  1  0  0  0  0
 20 21  1  0  0  0  0
 20 29  1  0  0  0  0
 22 18  1  0  0  0  0
 22 21  2  0  0  0  0
 23 27  1  6  0  0  0
 23 28  1  0  0  0  0
 24 25  2  0  0  0  0
 24 26  1  0  0  0  0
 25 22  1  0  0  0  0
 26 20  2  0  0  0  0
 28 18  1  0  0  0  0
 29 30  1  0  0  0  0
 31 29  2  0  0  0  0
 32 34  1  0  0  0  0
 33 32  1  0  0  0  0
M  END
>  <MODEL>
3

>  <REMARK>
 VINA RESULT:      -9.5      3.602      9.795
  Name = 
  3 active torsions:
  status: ('A' for Active; 'I' for Inactive)
    1  A    between atoms: N_3  and  C_25
    2  A    between atoms: C_7  and  C_11
    3  A    between atoms: C_8  and  C_18
                            x       y       z     vdW  Elec       q    Type
                         _______ _______ _______ _____ _____    ______ ____

>  <TORSDO>
F 3

$$$$
