=
 OpenBabel11052422123D

 25 28  0  0  1  0  0  0  0  0999 V2000
  160.9740  203.4760  148.4570 C   0  0  0  0  0  0  0  0  0  0  0  0
  161.1560  204.2660  147.2830 C   0  0  0  0  0  0  0  0  0  0  0  0
  160.9170  201.4300  147.1430 C   0  0  0  0  0  3  0  0  0  0  0  0
  160.9910  203.7700  149.8980 C   0  0  0  0  0  0  0  0  0  0  0  0
  161.0660  203.7310  152.6890 C   0  0  0  0  0  3  0  0  0  0  0  0
  161.1640  202.1720  145.9890 C   0  0  0  0  0  3  0  0  0  0  0  0
  160.7880  202.5880  150.5930 C   0  0  2  0  0  3  0  0  0  0  0  0
  160.8170  202.5450  151.9870 C   0  0  0  0  0  3  0  0  0  0  0  0
  161.6350  205.5920  144.8860 C   0  0  0  0  0  3  0  0  0  0  0  0
  161.5410  204.2430  144.8990 N   0  0  0  0  0  0  0  0  0  0  0  0
  161.1960  205.6850  147.2170 C   0  0  0  0  0  0  0  0  0  0  0  0
  161.3030  204.9280  151.9930 C   0  0  0  0  0  3  0  0  0  0  0  0
  160.8220  202.0930  148.3590 C   0  0  0  0  0  0  0  0  0  0  0  0
  160.6410  201.4220  149.6810 C   0  0  0  0  0  3  0  0  0  0  0  0
  161.4490  206.2940  146.0290 N   0  0  0  0  0  0  0  0  0  0  0  0
  161.2810  204.9480  150.5920 C   0  0  0  0  0  3  0  0  0  0  0  0
  161.2940  203.5670  146.0490 C   0  0  0  0  0  0  0  0  0  0  0  0
  160.8180  206.5760  148.3510 C   0  0  0  0  0  2  0  0  0  0  0  0
  161.6580  207.8480  148.3550 C   0  0  0  0  0  2  0  0  0  0  0  0
  162.3370  208.0680  149.7010 C   0  0  0  0  0  2  0  0  0  0  0  0
  162.0440  209.4330  150.2510 C   0  0  0  0  0  0  0  0  0  0  0  0
  162.0720  210.4020  149.5080 O   0  0  0  0  0  0  0  0  0  0  0  0
  161.7030  209.6290  151.6960 C   0  0  1  0  0  3  0  0  0  0  0  0
  161.0910  210.8670  151.8820 O   0  0  0  0  0  1  0  0  0  0  0  0
  160.7990  208.5220  152.2060 C   0  0  0  0  0  1  0  0  0  0  0  0
  1  4  2  0  0  0  0
  2  1  1  0  0  0  0
  3 13  1  0  0  0  0
  4 16  1  0  0  0  0
  4  7  1  0  0  0  0
  6 17  1  0  0  0  0
  6  3  2  0  0  0  0
  7 14  1  6  0  0  0
  7  8  1  0  0  0  0
  8  5  2  0  0  0  0
  9 10  2  0  0  0  0
  9 15  1  0  0  0  0
 10 17  1  0  0  0  0
 11  2  1  0  0  0  0
 11 18  1  0  0  0  0
 12  5  1  0  0  0  0
 13  1  1  0  0  0  0
 13 14  2  0  0  0  0
 15 11  2  0  0  0  0
 16 12  2  0  0  0  0
 17  2  2  0  0  0  0
 18 19  1  0  0  0  0
 19 20  1  0  0  0  0
 20 21  1  0  0  0  0
 21 23  1  0  0  0  0
 22 21  2  0  0  0  0
 23 24  1  0  0  0  0
 23 25  1  6  0  0  0
M  END
>  <MODEL>
1

>  <REMARK>
 VINA RESULT:      -9.7      0.000      0.000
  Name = 
  5 active torsions:
  status: ('A' for Active; 'I' for Inactive)
    1  A    between atoms: C_2  and  C_21
    2  A    between atoms: C_6  and  C_15
    3  A    between atoms: C_6  and  C_23
    4  A    between atoms: C_15  and  C_21
    5  A    between atoms: C_16  and  C_23
                            x       y       z     vdW  Elec       q    Type
                         _______ _______ _______ _____ _____    ______ ____

>  <TORSDO>
F 5

$$$$
=
 OpenBabel11052422123D

 25 28  0  0  1  0  0  0  0  0999 V2000
  161.3970  205.2400  151.1670 C   0  0  0  0  0  0  0  0  0  0  0  0
  161.6150  206.6430  151.0150 C   0  0  2  0  0  3  0  0  0  0  0  0
  161.0660  205.4920  153.5640 C   0  0  0  0  0  3  0  0  0  0  0  0
  161.2560  204.1210  150.2240 C   0  0  0  0  0  0  0  0  0  0  0  0
  160.7720  201.7040  148.9120 C   0  0  0  0  0  3  0  0  0  0  0  0
  161.2050  206.8730  153.4310 C   0  0  0  0  0  3  0  0  0  0  0  0
  161.0170  202.9620  150.9460 C   0  0  0  0  0  0  0  0  0  0  0  0
  160.7770  201.7420  150.3130 C   0  0  0  0  0  3  0  0  0  0  0  0
  161.8780  209.4100  150.9310 C   0  0  0  0  0  3  0  0  0  0  0  0
  161.5860  208.7990  152.1020 N   0  0  0  0  0  0  0  0  0  0  0  0
  161.9840  207.3140  149.8190 C   0  0  0  0  0  0  0  0  0  0  0  0
  160.9830  202.8790  148.1720 C   0  0  0  0  0  3  0  0  0  0  0  0
  161.1680  204.6960  152.4300 C   0  0  0  0  0  0  0  0  0  0  0  0
  160.9600  203.2170  152.4100 C   0  0  0  0  0  3  0  0  0  0  0  0
  162.0860  208.6700  149.8150 N   0  0  0  0  0  0  0  0  0  0  0  0
  161.2110  204.0970  148.8270 C   0  0  0  0  0  3  0  0  0  0  0  0
  161.4660  207.4500  152.1790 C   0  0  0  0  0  0  0  0  0  0  0  0
  162.4300  206.6140  148.5810 C   0  0  0  0  0  2  0  0  0  0  0  0
  161.5770  207.0170  147.3820 C   0  0  0  0  0  2  0  0  0  0  0  0
  162.0760  206.3720  146.0950 C   0  0  0  0  0  2  0  0  0  0  0  0
  160.9650  205.6930  145.3510 C   0  0  0  0  0  0  0  0  0  0  0  0
  159.8500  206.1900  145.3470 O   0  0  0  0  0  0  0  0  0  0  0  0
  161.2010  204.4180  144.6020 C   0  0  1  0  0  3  0  0  0  0  0  0
  162.2940  203.7400  145.1390 O   0  0  0  0  0  1  0  0  0  0  0  0
  159.9750  203.5250  144.6280 C   0  0  0  0  0  1  0  0  0  0  0  0
  1 13  1  0  0  0  0
  2 11  1  1  0  0  0
  2  1  1  0  0  0  0
  2 17  1  0  0  0  0
  4  7  1  0  0  0  0
  4  1  2  0  0  0  0
  5  8  2  0  0  0  0
  6  3  1  0  0  0  0
  7 14  2  0  0  0  0
  8  7  1  0  0  0  0
  9 10  2  0  0  0  0
 10 17  1  0  0  0  0
 12 16  2  0  0  0  0
 12  5  1  0  0  0  0
 13  3  2  0  0  0  0
 14 13  1  0  0  0  0
 15 11  2  0  0  0  0
 15  9  1  0  0  0  0
 16  4  1  0  0  0  0
 17  6  2  0  0  0  0
 18 11  1  0  0  0  0
 19 18  1  0  0  0  0
 20 19  1  0  0  0  0
 21 20  1  0  0  0  0
 22 21  2  0  0  0  0
 23 25  1  1  0  0  0
 23 24  1  0  0  0  0
 23 21  1  0  0  0  0
M  END
>  <MODEL>
2

>  <REMARK>
 VINA RESULT:      -9.7      2.809      5.692
  Name = 
  5 active torsions:
  status: ('A' for Active; 'I' for Inactive)
    1  A    between atoms: C_2  and  C_21
    2  A    between atoms: C_6  and  C_15
    3  A    between atoms: C_6  and  C_23
    4  A    between atoms: C_15  and  C_21
    5  A    between atoms: C_16  and  C_23
                            x       y       z     vdW  Elec       q    Type
                         _______ _______ _______ _____ _____    ______ ____

>  <TORSDO>
F 5

$$$$
=
 OpenBabel11052422123D

 25 28  0  0  1  0  0  0  0  0999 V2000
  161.4200  206.3030  151.4000 C   0  0  0  0  0  0  0  0  0  0  0  0
  161.6180  207.6140  150.8700 C   0  0  2  0  0  3  0  0  0  0  0  0
  161.1900  207.1840  153.6550 C   0  0  0  0  0  3  0  0  0  0  0  0
  161.2500  204.9740  150.7940 C   0  0  0  0  0  0  0  0  0  0  0  0
  160.7330  202.2960  150.1940 C   0  0  0  0  0  3  0  0  0  0  0  0
  161.3110  208.4790  153.1540 C   0  0  0  0  0  3  0  0  0  0  0  0
  161.0530  204.0490  151.8080 C   0  0  0  0  0  0  0  0  0  0  0  0
  160.7980  202.7050  151.5330 C   0  0  0  0  0  3  0  0  0  0  0  0
  161.8510  210.2590  150.0430 C   0  0  0  0  0  3  0  0  0  0  0  0
  161.6150  209.9810  151.3460 N   0  0  0  0  0  0  0  0  0  0  0  0
  161.9300  207.9430  149.5240 C   0  0  0  0  0  0  0  0  0  0  0  0
  160.9010  203.2320  149.1600 C   0  0  0  0  0  3  0  0  0  0  0  0
  161.2510  206.1150  152.7700 C   0  0  0  0  0  0  0  0  0  0  0  0
  161.0570  204.6840  153.1530 C   0  0  0  0  0  3  0  0  0  0  0  0
  162.0180  209.2490  149.1560 N   0  0  0  0  0  0  0  0  0  0  0  0
  161.1450  204.5790  149.4580 C   0  0  0  0  0  3  0  0  0  0  0  0
  161.5110  208.7020  151.7840 C   0  0  0  0  0  0  0  0  0  0  0  0
  162.3290  206.9380  148.4980 C   0  0  0  0  0  2  0  0  0  0  0  0
  161.7040  207.2550  147.1440 C   0  0  0  0  0  2  0  0  0  0  0  0
  160.7650  206.1470  146.6850 C   0  0  0  0  0  2  0  0  0  0  0  0
  161.1880  205.5770  145.3630 C   0  0  0  0  0  0  0  0  0  0  0  0
  160.8100  206.1050  144.3300 O   0  0  0  0  0  0  0  0  0  0  0  0
  162.0790  204.3760  145.2880 C   0  0  1  0  0  3  0  0  0  0  0  0
  163.1850  204.5450  146.1190 O   0  0  0  0  0  1  0  0  0  0  0  0
  161.3350  203.1090  145.6680 C   0  0  0  0  0  1  0  0  0  0  0  0
  1 13  1  0  0  0  0
  2 11  1  1  0  0  0
  2  1  1  0  0  0  0
  2 17  1  0  0  0  0
  4  1  2  0  0  0  0
  4  7  1  0  0  0  0
  5  8  2  0  0  0  0
  6  3  1  0  0  0  0
  7 14  2  0  0  0  0
  8  7  1  0  0  0  0
  9 10  2  0  0  0  0
 10 17  1  0  0  0  0
 12 16  2  0  0  0  0
 12  5  1  0  0  0  0
 13 14  1  0  0  0  0
 13  3  2  0  0  0  0
 15 11  2  0  0  0  0
 15  9  1  0  0  0  0
 16  4  1  0  0  0  0
 17  6  2  0  0  0  0
 18 11  1  0  0  0  0
 19 18  1  0  0  0  0
 20 19  1  0  0  0  0
 21 20  1  0  0  0  0
 22 21  2  0  0  0  0
 23 21  1  0  0  0  0
 23 25  1  1  0  0  0
 23 24  1  0  0  0  0
M  END
>  <MODEL>
3

>  <REMARK>
 VINA RESULT:      -9.5      2.907      5.763
  Name = 
  5 active torsions:
  status: ('A' for Active; 'I' for Inactive)
    1  A    between atoms: C_2  and  C_21
    2  A    between atoms: C_6  and  C_15
    3  A    between atoms: C_6  and  C_23
    4  A    between atoms: C_15  and  C_21
    5  A    between atoms: C_16  and  C_23
                            x       y       z     vdW  Elec       q    Type
                         _______ _______ _______ _____ _____    ______ ____

>  <TORSDO>
F 5

$$$$
=
 OpenBabel11052422123D

 25 28  0  0  1  0  0  0  0  0999 V2000
  161.1400  203.5430  148.4430 C   0  0  0  0  0  0  0  0  0  0  0  0
  161.1200  203.8690  149.8320 C   0  0  2  0  0  3  0  0  0  0  0  0
  160.9550  201.1690  148.9370 C   0  0  0  0  0  3  0  0  0  0  0  0
  161.1090  204.3390  147.2070 C   0  0  0  0  0  0  0  0  0  0  0  0
  160.9180  205.3240  144.6010 C   0  0  0  0  0  3  0  0  0  0  0  0
  160.8630  201.4660  150.2960 C   0  0  0  0  0  3  0  0  0  0  0  0
  161.1130  203.4740  146.1240 C   0  0  0  0  0  0  0  0  0  0  0  0
  161.0230  203.9430  144.8130 C   0  0  0  0  0  3  0  0  0  0  0  0
  160.9310  204.2830  152.5760 C   0  0  0  0  0  3  0  0  0  0  0  0
  160.8300  203.0290  152.0780 N   0  0  0  0  0  0  0  0  0  0  0  0
  161.2860  205.1610  150.3990 C   0  0  0  0  0  0  0  0  0  0  0  0
  160.8830  206.2060  145.6940 C   0  0  0  0  0  3  0  0  0  0  0  0
  161.0970  202.2120  148.0310 C   0  0  0  0  0  0  0  0  0  0  0  0
  161.1270  202.0490  146.5470 C   0  0  0  0  0  3  0  0  0  0  0  0
  161.1700  205.3240  151.7430 N   0  0  0  0  0  0  0  0  0  0  0  0
  160.9630  205.7140  147.0040 C   0  0  0  0  0  3  0  0  0  0  0  0
  160.9320  202.7920  150.7460 C   0  0  0  0  0  0  0  0  0  0  0  0
  161.7430  206.3510  149.6250 C   0  0  0  0  0  2  0  0  0  0  0  0
  161.1810  207.6410  150.2140 C   0  0  0  0  0  2  0  0  0  0  0  0
  162.2900  208.5910  150.6470 C   0  0  0  0  0  2  0  0  0  0  0  0
  161.9000  209.3770  151.8640 C   0  0  0  0  0  0  0  0  0  0  0  0
  162.6370  210.2610  152.2720 O   0  0  0  0  0  0  0  0  0  0  0  0
  160.6150  209.1040  152.5830 C   0  0  1  0  0  3  0  0  0  0  0  0
  160.8370  208.2360  153.6510 O   0  0  0  0  0  1  0  0  0  0  0  0
  159.9770  210.3870  153.0820 C   0  0  0  0  0  1  0  0  0  0  0  0
  2  1  1  1  0  0  0
  2 11  1  0  0  0  0
  2 17  1  0  0  0  0
  3  6  1  0  0  0  0
  4  1  2  0  0  0  0
  5  8  2  0  0  0  0
  5 12  1  0  0  0  0
  6 17  2  0  0  0  0
  7 14  2  0  0  0  0
  7  4  1  0  0  0  0
  8  7  1  0  0  0  0
 10  9  2  0  0  0  0
 11 15  2  0  0  0  0
 12 16  2  0  0  0  0
 13  1  1  0  0  0  0
 13  3  2  0  0  0  0
 14 13  1  0  0  0  0
 15  9  1  0  0  0  0
 16  4  1  0  0  0  0
 17 10  1  0  0  0  0
 18 19  1  0  0  0  0
 18 11  1  0  0  0  0
 19 20  1  0  0  0  0
 20 21  1  0  0  0  0
 21 22  2  0  0  0  0
 21 23  1  0  0  0  0
 23 25  1  1  0  0  0
 23 24  1  0  0  0  0
M  END
>  <MODEL>
4

>  <REMARK>
 VINA RESULT:      -9.4      2.112      4.298
  Name = 
  5 active torsions:
  status: ('A' for Active; 'I' for Inactive)
    1  A    between atoms: C_2  and  C_21
    2  A    between atoms: C_6  and  C_15
    3  A    between atoms: C_6  and  C_23
    4  A    between atoms: C_15  and  C_21
    5  A    between atoms: C_16  and  C_23
                            x       y       z     vdW  Elec       q    Type
                         _______ _______ _______ _____ _____    ______ ____

>  <TORSDO>
F 5

$$$$
=
 OpenBabel11052422123D

 25 28  0  0  1  0  0  0  0  0999 V2000
  161.3080  206.0670  149.8460 C   0  0  0  0  0  0  0  0  0  0  0  0
  161.5110  207.3200  150.4980 C   0  0  0  0  0  0  0  0  0  0  0  0
  161.6650  207.0770  147.6630 C   0  0  0  0  0  3  0  0  0  0  0  0
  161.1300  204.6860  150.3220 C   0  0  0  0  0  0  0  0  0  0  0  0
  160.9070  201.9230  150.6510 C   0  0  0  0  0  3  0  0  0  0  0  0
  161.9350  208.2980  148.2800 C   0  0  0  0  0  3  0  0  0  0  0  0
  161.0100  203.8520  149.2210 C   0  0  0  0  0  0  0  0  0  0  0  0
  160.8940  202.4690  149.3610 C   0  0  0  0  0  3  0  0  0  0  0  0
  162.0670  209.8280  151.5620 C   0  0  0  0  0  3  0  0  0  0  0  0
  162.1510  209.6320  150.2270 N   0  0  0  0  0  0  0  0  0  0  0  0
  161.3700  207.5820  151.8870 C   0  0  0  0  0  0  0  0  0  0  0  0
  161.0580  202.7570  151.7710 C   0  0  0  0  0  3  0  0  0  0  0  0
  161.3510  205.9800  148.4560 C   0  0  0  0  0  0  0  0  0  0  0  0
  161.1180  204.5980  147.9390 C   0  0  0  0  0  3  0  0  0  0  0  0
  161.6680  208.8170  152.3700 N   0  0  0  0  0  0  0  0  0  0  0  0
  161.1860  204.1430  151.6080 C   0  0  0  0  0  3  0  0  0  0  0  0
  161.8720  208.4250  149.6750 C   0  0  1  0  0  3  0  0  0  0  0  0
  160.7570  206.6240  152.8510 C   0  0  0  0  0  2  0  0  0  0  0  0
  161.3850  206.7570  154.2350 C   0  0  0  0  0  2  0  0  0  0  0  0
  160.4510  207.4600  155.2110 C   0  0  0  0  0  2  0  0  0  0  0  0
  161.1810  208.4760  156.0390 C   0  0  0  0  0  0  0  0  0  0  0  0
  162.0140  208.1050  156.8510 O   0  0  0  0  0  0  0  0  0  0  0  0
  160.9160  209.9410  155.8790 C   0  0  1  0  0  3  0  0  0  0  0  0
  162.0080  210.5640  155.2770 O   0  0  0  0  0  1  0  0  0  0  0  0
  159.6620  210.1910  155.0620 C   0  0  0  0  0  1  0  0  0  0  0  0
  1  4  1  0  0  0  0
  1  2  2  0  0  0  0
  2 11  1  0  0  0  0
  3  6  2  0  0  0  0
  3 13  1  0  0  0  0
  4 16  1  0  0  0  0
  5 12  1  0  0  0  0
  7  8  1  0  0  0  0
  7  4  2  0  0  0  0
  8  5  2  0  0  0  0
  9 15  1  0  0  0  0
 10  9  2  0  0  0  0
 11 15  2  0  0  0  0
 11 18  1  0  0  0  0
 13  1  1  0  0  0  0
 14 13  2  0  0  0  0
 14  7  1  0  0  0  0
 16 12  2  0  0  0  0
 17  6  1  6  0  0  0
 17 10  1  0  0  0  0
 17  2  1  0  0  0  0
 18 19  1  0  0  0  0
 19 20  1  0  0  0  0
 20 21  1  0  0  0  0
 21 22  2  0  0  0  0
 23 25  1  6  0  0  0
 23 21  1  0  0  0  0
 24 23  1  0  0  0  0
M  END
>  <MODEL>
5

>  <REMARK>
 VINA RESULT:      -9.4      2.808      4.964
  Name = 
  5 active torsions:
  status: ('A' for Active; 'I' for Inactive)
    1  A    between atoms: C_2  and  C_21
    2  A    between atoms: C_6  and  C_15
    3  A    between atoms: C_6  and  C_23
    4  A    between atoms: C_15  and  C_21
    5  A    between atoms: C_16  and  C_23
                            x       y       z     vdW  Elec       q    Type
                         _______ _______ _______ _____ _____    ______ ____

>  <TORSDO>
F 5

$$$$
=
 OpenBabel11052422123D

 25 28  0  0  1  0  0  0  0  0999 V2000
  161.3470  205.0370  148.9230 C   0  0  0  0  0  0  0  0  0  0  0  0
  161.5320  206.3930  149.3300 C   0  0  0  0  0  0  0  0  0  0  0  0
  161.6480  205.6350  146.5850 C   0  0  0  0  0  3  0  0  0  0  0  0
  161.2070  203.7640  149.6470 C   0  0  0  0  0  0  0  0  0  0  0  0
  161.0500  201.1050  150.4820 C   0  0  0  0  0  3  0  0  0  0  0  0
  161.9010  206.9530  146.9610 C   0  0  0  0  0  3  0  0  0  0  0  0
  161.0890  202.7400  148.7200 C   0  0  0  0  0  0  0  0  0  0  0  0
  161.0050  201.4040  149.1140 C   0  0  0  0  0  3  0  0  0  0  0  0
  162.0490  209.0640  149.9040 C   0  0  0  0  0  3  0  0  0  0  0  0
  162.1170  208.6270  148.6260 N   0  0  0  0  0  0  0  0  0  0  0  0
  161.4070  206.9030  150.6490 C   0  0  0  0  0  0  0  0  0  0  0  0
  161.1990  202.1340  151.4260 C   0  0  0  0  0  3  0  0  0  0  0  0
  161.3710  204.6970  147.5710 C   0  0  0  0  0  0  0  0  0  0  0  0
  161.1610  203.2400  147.3220 C   0  0  0  0  0  3  0  0  0  0  0  0
  161.6850  208.2110  150.8920 N   0  0  0  0  0  0  0  0  0  0  0  0
  161.2940  203.4680  151.0100 C   0  0  0  0  0  3  0  0  0  0  0  0
  161.8560  207.3340  148.3100 C   0  0  1  0  0  3  0  0  0  0  0  0
  160.8300  206.1270  151.7840 C   0  0  0  0  0  2  0  0  0  0  0  0
  161.6830  206.2720  153.0410 C   0  0  0  0  0  2  0  0  0  0  0  0
  160.8310  206.5820  154.2650 C   0  0  0  0  0  2  0  0  0  0  0  0
  161.1630  207.9270  154.8420 C   0  0  0  0  0  0  0  0  0  0  0  0
  161.2040  208.9030  154.1110 O   0  0  0  0  0  0  0  0  0  0  0  0
  161.4330  208.0960  156.3050 C   0  0  1  0  0  3  0  0  0  0  0  0
  161.3650  209.4440  156.6540 O   0  0  0  0  0  1  0  0  0  0  0  0
  160.4550  207.2950  157.1450 C   0  0  0  0  0  1  0  0  0  0  0  0
  1  2  2  0  0  0  0
  1  4  1  0  0  0  0
  2 11  1  0  0  0  0
  3  6  2  0  0  0  0
  3 13  1  0  0  0  0
  4 16  1  0  0  0  0
  5 12  1  0  0  0  0
  7  8  1  0  0  0  0
  7  4  2  0  0  0  0
  8  5  2  0  0  0  0
  9 15  1  0  0  0  0
 10  9  2  0  0  0  0
 11 15  2  0  0  0  0
 11 18  1  0  0  0  0
 13  1  1  0  0  0  0
 14 13  2  0  0  0  0
 14  7  1  0  0  0  0
 16 12  2  0  0  0  0
 17  6  1  6  0  0  0
 17 10  1  0  0  0  0
 17  2  1  0  0  0  0
 18 19  1  0  0  0  0
 19 20  1  0  0  0  0
 20 21  1  0  0  0  0
 21 23  1  0  0  0  0
 22 21  2  0  0  0  0
 23 24  1  0  0  0  0
 23 25  1  1  0  0  0
M  END
>  <MODEL>
6

>  <REMARK>
 VINA RESULT:      -9.3      2.476      4.112
  Name = 
  5 active torsions:
  status: ('A' for Active; 'I' for Inactive)
    1  A    between atoms: C_2  and  C_21
    2  A    between atoms: C_6  and  C_15
    3  A    between atoms: C_6  and  C_23
    4  A    between atoms: C_15  and  C_21
    5  A    between atoms: C_16  and  C_23
                            x       y       z     vdW  Elec       q    Type
                         _______ _______ _______ _____ _____    ______ ____

>  <TORSDO>
F 5

$$$$
=
 OpenBabel11052422123D

 25 28  0  0  1  0  0  0  0  0999 V2000
  161.0230  203.7890  148.7560 C   0  0  0  0  0  0  0  0  0  0  0  0
  161.2160  204.3990  147.4800 C   0  0  0  0  0  0  0  0  0  0  0  0
  160.9450  201.5750  147.7530 C   0  0  0  0  0  3  0  0  0  0  0  0
  161.0410  204.2880  150.1400 C   0  0  0  0  0  0  0  0  0  0  0  0
  161.1120  204.6530  152.9070 C   0  0  0  0  0  3  0  0  0  0  0  0
  161.2030  202.1390  146.5040 C   0  0  0  0  0  3  0  0  0  0  0  0
  160.8240  203.2210  150.9970 C   0  0  0  0  0  0  0  0  0  0  0  0
  160.8500  203.3800  152.3830 C   0  0  0  0  0  3  0  0  0  0  0  0
  161.7120  205.3580  144.9180 C   0  0  0  0  0  3  0  0  0  0  0  0
  161.6040  204.0260  145.1270 N   0  0  0  0  0  0  0  0  0  0  0  0
  161.2710  205.7920  147.2110 C   0  0  0  0  0  0  0  0  0  0  0  0
  161.3630  205.7340  152.0460 C   0  0  0  0  0  3  0  0  0  0  0  0
  160.8550  202.4090  148.8600 C   0  0  0  0  0  0  0  0  0  0  0  0
  160.6650  201.9380  150.2640 C   0  0  0  0  0  3  0  0  0  0  0  0
  161.5330  206.2200  145.9470 N   0  0  0  0  0  0  0  0  0  0  0  0
  161.3440  205.5510  150.6560 C   0  0  0  0  0  3  0  0  0  0  0  0
  161.3470  203.5270  146.3610 C   0  0  1  0  0  3  0  0  0  0  0  0
  160.9010  206.8420  148.2020 C   0  0  0  0  0  2  0  0  0  0  0  0
  161.8320  208.0460  148.1030 C   0  0  0  0  0  2  0  0  0  0  0  0
  162.1160  208.6510  149.4720 C   0  0  0  0  0  2  0  0  0  0  0  0
  161.9700  210.1440  149.4570 C   0  0  0  0  0  0  0  0  0  0  0  0
  161.7860  210.7420  150.5050 O   0  0  0  0  0  0  0  0  0  0  0  0
  162.0570  210.9180  148.1780 C   0  0  1  0  0  3  0  0  0  0  0  0
  160.8160  211.4690  147.8630 O   0  0  0  0  0  1  0  0  0  0  0  0
  163.1030  212.0150  148.2650 C   0  0  0  0  0  1  0  0  0  0  0  0
  1 13  1  0  0  0  0
  1  4  1  0  0  0  0
  2  1  2  0  0  0  0
  3 13  1  0  0  0  0
  4 16  2  0  0  0  0
  4  7  1  0  0  0  0
  6  3  2  0  0  0  0
  7  8  2  0  0  0  0
  8  5  1  0  0  0  0
  9 10  2  0  0  0  0
  9 15  1  0  0  0  0
 10 17  1  0  0  0  0
 11  2  1  0  0  0  0
 11 18  1  0  0  0  0
 12  5  2  0  0  0  0
 13 14  2  0  0  0  0
 14  7  1  0  0  0  0
 15 11  2  0  0  0  0
 16 12  1  0  0  0  0
 17  6  1  6  0  0  0
 17  2  1  0  0  0  0
 19 18  1  0  0  0  0
 19 20  1  0  0  0  0
 21 20  1  0  0  0  0
 21 22  2  0  0  0  0
 23 25  1  1  0  0  0
 23 21  1  0  0  0  0
 24 23  1  0  0  0  0
M  END
>  <MODEL>
7

>  <REMARK>
 VINA RESULT:      -9.2      1.129      1.705
  Name = 
  5 active torsions:
  status: ('A' for Active; 'I' for Inactive)
    1  A    between atoms: C_2  and  C_21
    2  A    between atoms: C_6  and  C_15
    3  A    between atoms: C_6  and  C_23
    4  A    between atoms: C_15  and  C_21
    5  A    between atoms: C_16  and  C_23
                            x       y       z     vdW  Elec       q    Type
                         _______ _______ _______ _____ _____    ______ ____

>  <TORSDO>
F 5

$$$$
=
 OpenBabel11052422123D

 25 28  0  0  1  0  0  0  0  0999 V2000
  161.2740  204.1940  149.3010 C   0  0  0  0  0  0  0  0  0  0  0  0
  161.3020  204.9700  150.4990 C   0  0  2  0  0  3  0  0  0  0  0  0
  160.9180  202.1470  150.5640 C   0  0  0  0  0  3  0  0  0  0  0  0
  161.2820  204.5280  147.8680 C   0  0  0  0  0  0  0  0  0  0  0  0
  161.1220  204.5900  145.0820 C   0  0  0  0  0  3  0  0  0  0  0  0
  160.8710  202.8900  151.7430 C   0  0  0  0  0  3  0  0  0  0  0  0
  161.2020  203.3510  147.1400 C   0  0  0  0  0  0  0  0  0  0  0  0
  161.1250  203.3570  145.7470 C   0  0  0  0  0  3  0  0  0  0  0  0
  161.1930  206.2960  152.9400 C   0  0  0  0  0  3  0  0  0  0  0  0
  160.9880  204.9600  152.8930 N   0  0  0  0  0  0  0  0  0  0  0  0
  161.5760  206.3600  150.5980 C   0  0  0  0  0  0  0  0  0  0  0  0
  161.1730  205.7880  145.8130 C   0  0  0  0  0  3  0  0  0  0  0  0
  161.1220  202.8100  149.3610 C   0  0  0  0  0  0  0  0  0  0  0  0
  161.1150  202.1550  148.0190 C   0  0  0  0  0  3  0  0  0  0  0  0
  161.4950  206.9740  151.8080 N   0  0  0  0  0  0  0  0  0  0  0  0
  161.2370  205.7610  147.2120 C   0  0  0  0  0  3  0  0  0  0  0  0
  161.0490  204.2810  151.7200 C   0  0  0  0  0  0  0  0  0  0  0  0
  162.1080  207.1810  149.4730 C   0  0  0  0  0  2  0  0  0  0  0  0
  162.0030  208.6710  149.7810 C   0  0  0  0  0  2  0  0  0  0  0  0
  161.9110  209.5020  148.5070 C   0  0  0  0  0  2  0  0  0  0  0  0
  161.9630  210.9720  148.8020 C   0  0  0  0  0  0  0  0  0  0  0  0
  162.1700  211.3510  149.9440 O   0  0  0  0  0  0  0  0  0  0  0  0
  161.7760  211.9870  147.7170 C   0  0  1  0  0  3  0  0  0  0  0  0
  160.5300  212.5990  147.8410 O   0  0  0  0  0  1  0  0  0  0  0  0
  162.8730  213.0350  147.7440 C   0  0  0  0  0  1  0  0  0  0  0  0
  1 13  1  0  0  0  0
  2  1  1  1  0  0  0
  2 11  1  0  0  0  0
  2 17  1  0  0  0  0
  3  6  1  0  0  0  0
  4  1  2  0  0  0  0
  5  8  2  0  0  0  0
  5 12  1  0  0  0  0
  7  4  1  0  0  0  0
  7 14  2  0  0  0  0
  8  7  1  0  0  0  0
 10  9  2  0  0  0  0
 11 15  2  0  0  0  0
 12 16  2  0  0  0  0
 13  3  2  0  0  0  0
 14 13  1  0  0  0  0
 15  9  1  0  0  0  0
 16  4  1  0  0  0  0
 17  6  2  0  0  0  0
 17 10  1  0  0  0  0
 18 19  1  0  0  0  0
 18 11  1  0  0  0  0
 20 21  1  0  0  0  0
 20 19  1  0  0  0  0
 21 22  2  0  0  0  0
 23 25  1  1  0  0  0
 23 24  1  0  0  0  0
 23 21  1  0  0  0  0
M  END
>  <MODEL>
8

>  <REMARK>
 VINA RESULT:      -9.2      2.428      4.647
  Name = 
  5 active torsions:
  status: ('A' for Active; 'I' for Inactive)
    1  A    between atoms: C_2  and  C_21
    2  A    between atoms: C_6  and  C_15
    3  A    between atoms: C_6  and  C_23
    4  A    between atoms: C_15  and  C_21
    5  A    between atoms: C_16  and  C_23
                            x       y       z     vdW  Elec       q    Type
                         _______ _______ _______ _____ _____    ______ ____

>  <TORSDO>
F 5

$$$$
=
 OpenBabel11052422123D

 25 28  0  0  1  0  0  0  0  0999 V2000
  161.3500  205.3040  149.9330 C   0  0  0  0  0  0  0  0  0  0  0  0
  161.3080  206.2680  150.9850 C   0  0  2  0  0  3  0  0  0  0  0  0
  161.0820  203.4770  151.5150 C   0  0  0  0  0  3  0  0  0  0  0  0
  161.3710  205.3960  148.4650 C   0  0  0  0  0  0  0  0  0  0  0  0
  161.2700  204.9860  145.7050 C   0  0  0  0  0  3  0  0  0  0  0  0
  160.9670  204.4010  152.5520 C   0  0  0  0  0  3  0  0  0  0  0  0
  161.3740  204.1120  147.9420 C   0  0  0  0  0  0  0  0  0  0  0  0
  161.3280  203.8830  146.5660 C   0  0  0  0  0  3  0  0  0  0  0  0
  161.0690  207.9710  153.1700 C   0  0  0  0  0  3  0  0  0  0  0  0
  160.9410  206.6350  153.3430 N   0  0  0  0  0  0  0  0  0  0  0  0
  161.5000  207.6690  150.8550 C   0  0  0  0  0  0  0  0  0  0  0  0
  161.2370  206.2900  146.2270 C   0  0  0  0  0  3  0  0  0  0  0  0
  161.2760  203.9420  150.2210 C   0  0  0  0  0  0  0  0  0  0  0  0
  161.3350  203.0750  149.0060 C   0  0  0  0  0  3  0  0  0  0  0  0
  161.3580  208.4700  151.9440 N   0  0  0  0  0  0  0  0  0  0  0  0
  161.2710  206.4990  147.6120 C   0  0  0  0  0  3  0  0  0  0  0  0
  161.0670  205.7770  152.3010 C   0  0  0  0  0  0  0  0  0  0  0  0
  162.0100  208.3220  149.6160 C   0  0  0  0  0  2  0  0  0  0  0  0
  162.0840  209.8370  149.7810 C   0  0  0  0  0  2  0  0  0  0  0  0
  161.9670  210.5550  148.4430 C   0  0  0  0  0  2  0  0  0  0  0  0
  161.8650  212.0410  148.6210 C   0  0  0  0  0  0  0  0  0  0  0  0
  161.1310  212.4960  149.4840 O   0  0  0  0  0  0  0  0  0  0  0  0
  162.6590  212.9800  147.7660 C   0  0  1  0  0  3  0  0  0  0  0  0
  162.3070  212.8230  146.4260 O   0  0  0  0  0  1  0  0  0  0  0  0
  162.4540  214.4220  148.1890 C   0  0  0  0  0  1  0  0  0  0  0  0
  1 13  1  0  0  0  0
  2  1  1  1  0  0  0
  2 17  1  0  0  0  0
  3  6  1  0  0  0  0
  4  1  2  0  0  0  0
  5 12  1  0  0  0  0
  5  8  2  0  0  0  0
  7  4  1  0  0  0  0
  7 14  2  0  0  0  0
  8  7  1  0  0  0  0
  9 10  2  0  0  0  0
 11  2  1  0  0  0  0
 11 15  2  0  0  0  0
 12 16  2  0  0  0  0
 13  3  2  0  0  0  0
 14 13  1  0  0  0  0
 15  9  1  0  0  0  0
 16  4  1  0  0  0  0
 17  6  2  0  0  0  0
 17 10  1  0  0  0  0
 18 19  1  0  0  0  0
 18 11  1  0  0  0  0
 20 21  1  0  0  0  0
 20 19  1  0  0  0  0
 21 22  2  0  0  0  0
 23 25  1  1  0  0  0
 23 21  1  0  0  0  0
 24 23  1  0  0  0  0
M  END
>  <MODEL>
9

>  <REMARK>
 VINA RESULT:      -8.8      2.774      5.109
  Name = 
  5 active torsions:
  status: ('A' for Active; 'I' for Inactive)
    1  A    between atoms: C_2  and  C_21
    2  A    between atoms: C_6  and  C_15
    3  A    between atoms: C_6  and  C_23
    4  A    between atoms: C_15  and  C_21
    5  A    between atoms: C_16  and  C_23
                            x       y       z     vdW  Elec       q    Type
                         _______ _______ _______ _____ _____    ______ ____

>  <TORSDO>
F 5

$$$$
