=
 OpenBabel11062407503D

 34 38  0  0  1  0  0  0  0  0999 V2000
  160.7670  206.3270  154.5970 C   0  0  0  0  0  0  0  0  0  0  0  0
  160.7620  206.9040  152.1250 C   0  0  0  0  0  0  0  0  0  0  0  0
  157.8970  213.8770  154.3020 S   0  0  0  0  0  1  0  0  0  0  0  0
  161.1870  208.6440  153.7870 C   0  0  0  0  0  0  0  0  0  0  0  0
  162.7330  211.4530  153.7420 C   0  0  0  0  0  2  0  0  0  0  0  0
  158.6850  207.0120  156.1370 Cl  0  0  0  0  0  0  0  0  0  0  0  0
  159.1110  212.1860  156.8160 C   0  0  0  0  0  0  0  0  0  0  0  0
  159.7160  213.3790  157.2270 C   0  0  0  0  0  3  0  0  0  0  0  0
  160.4540  205.5060  151.7070 C   0  0  0  0  0  1  0  0  0  0  0  0
  161.0990  209.1620  151.4500 N   0  0  0  0  0  0  0  0  0  0  0  0
  156.0710  212.0790  154.6770 F   0  0  0  0  0  0  0  0  0  0  0  0
  161.2990  211.2140  156.3960 C   0  0  0  0  0  0  0  0  0  0  0  0
  159.0140  211.4670  153.0670 O   0  0  0  0  0  0  0  0  0  0  0  0
  157.4300  212.2130  154.8960 C   0  0  2  0  0  0  0  0  0  0  0  0
  160.9140  207.2890  153.4730 C   0  0  0  0  0  0  0  0  0  0  0  0
  161.1140  213.4760  157.2610 C   0  0  0  0  0  3  0  0  0  0  0  0
  160.2600  211.7480  153.6450 C   0  0  0  0  0  2  0  0  0  0  0  0
  161.4540  211.0950  152.9450 C   0  0  1  0  0  0  0  0  0  0  0  0
  160.8740  205.0840  154.4210 O   0  0  0  0  0  0  0  0  0  0  0  0
  161.4010  209.0200  155.2120 C   0  0  0  0  0  0  0  0  0  0  0  0
  159.9090  211.1020  156.4780 C   0  0  0  0  0  3  0  0  0  0  0  0
  160.4490  206.8430  155.9640 C   0  0  2  0  0  3  0  0  0  0  0  0
  160.8620  207.8680  151.1310 C   0  0  0  0  0  3  0  0  0  0  0  0
  163.1080  210.6480  154.8500 O   0  0  0  0  0  0  0  0  0  0  0  0
  161.9040  212.4100  156.8060 C   0  0  0  0  0  3  0  0  0  0  0  0
  161.9930  210.2820  155.5400 N   0  0  0  0  0  0  0  0  0  0  0  0
  161.5800  211.7190  151.7020 O   0  0  0  0  0  1  0  0  0  0  0  0
  157.6610  212.1330  156.4290 C   0  0  0  0  0  2  0  0  0  0  0  0
  161.2670  209.5940  152.7310 C   0  0  0  0  0  0  0  0  0  0  0  0
  161.1000  208.1700  156.2030 C   0  0  0  0  0  3  0  0  0  0  0  0
  158.2020  211.0710  154.1490 C   0  0  1  0  0  3  0  0  0  0  0  0
  157.3820  209.8210  153.8270 C   0  0  0  0  0  2  0  0  0  0  0  0
  156.4850  209.4020  154.9840 C   0  0  0  0  0  2  0  0  0  0  0  0
  155.1460  209.5830  154.6410 O   0  0  0  0  0  1  0  0  0  0  0  0
  1 22  1  0  0  0  0
  2 15  1  0  0  0  0
  4 20  1  0  0  0  0
  5 24  1  0  0  0  0
  7  8  1  0  0  0  0
  8 16  2  0  0  0  0
  9  2  1  0  0  0  0
 10 29  2  0  0  0  0
 11 14  1  0  0  0  0
 12 21  1  0  0  0  0
 12 25  2  0  0  0  0
 13 17  1  0  0  0  0
 13 31  1  0  0  0  0
 14  3  1  6  0  0  0
 14 28  1  0  0  0  0
 15  4  2  0  0  0  0
 15  1  1  0  0  0  0
 18 27  1  6  0  0  0
 18 17  1  0  0  0  0
 18  5  1  0  0  0  0
 19  1  2  0  0  0  0
 20 26  1  0  0  0  0
 20 30  2  0  0  0  0
 21  7  2  0  0  0  0
 22  6  1  6  0  0  0
 22 30  1  0  0  0  0
 23 10  1  0  0  0  0
 23  2  2  0  0  0  0
 24 26  1  0  0  0  0
 25 16  1  0  0  0  0
 26 12  1  0  0  0  0
 28  7  1  0  0  0  0
 29 18  1  0  0  0  0
 29  4  1  0  0  0  0
 31 32  1  6  0  0  0
 31 14  1  0  0  0  0
 32 33  1  0  0  0  0
 34 33  1  0  0  0  0
M  END
>  <MODEL>
1

>  <REMARK>
 VINA RESULT:       5.8      0.000      0.000
  Name = 
  2 active torsions:
  status: ('A' for Active; 'I' for Inactive)
    1  A    between atoms: C_20  and  C_22
    2  A    between atoms: C_20  and  C_34
                            x       y       z     vdW  Elec       q    Type
                         _______ _______ _______ _____ _____    ______ ____

>  <TORSDO>
F 2

$$$$
=
 OpenBabel11062407503D

 34 38  0  0  1  0  0  0  0  0999 V2000
  160.5860  208.2370  156.5090 C   0  0  0  0  0  0  0  0  0  0  0  0
  162.3800  209.9650  157.0020 C   0  0  0  0  0  0  0  0  0  0  0  0
  158.7750  214.4530  151.6700 S   0  0  0  0  0  1  0  0  0  0  0  0
  160.1210  210.6820  156.4070 C   0  0  0  0  0  0  0  0  0  0  0  0
  158.3880  213.3200  156.9750 C   0  0  0  0  0  2  0  0  0  0  0  0
  159.8340  207.7700  153.9810 Cl  0  0  0  0  0  0  0  0  0  0  0  0
  156.9470  211.9170  152.6090 C   0  0  0  0  0  0  0  0  0  0  0  0
  155.8770  212.8160  152.6850 C   0  0  0  0  0  3  0  0  0  0  0  0
  163.4270  208.9350  157.2610 C   0  0  0  0  0  1  0  0  0  0  0  0
  161.8610  212.2800  156.8050 N   0  0  0  0  0  0  0  0  0  0  0  0
  159.9230  212.4770  150.4480 F   0  0  0  0  0  0  0  0  0  0  0  0
  156.8570  211.5940  155.0160 C   0  0  0  0  0  0  0  0  0  0  0  0
  160.3690  213.1590  153.7600 O   0  0  0  0  0  0  0  0  0  0  0  0
  159.1630  212.6680  151.5890 C   0  0  2  0  0  0  0  0  0  0  0  0
  161.0510  209.6420  156.6560 C   0  0  0  0  0  0  0  0  0  0  0  0
  155.2700  213.0730  153.9230 C   0  0  0  0  0  3  0  0  0  0  0  0
  159.2970  213.2820  154.6530 C   0  0  0  0  0  2  0  0  0  0  0  0
  159.6860  213.2360  156.1330 C   0  0  1  0  0  0  0  0  0  0  0  0
  161.2090  207.2760  157.0330 O   0  0  0  0  0  0  0  0  0  0  0  0
  158.7090  210.3220  156.1000 C   0  0  0  0  0  0  0  0  0  0  0  0
  157.3720  211.2670  153.7590 C   0  0  0  0  0  3  0  0  0  0  0  0
  159.3680  207.9530  155.6900 C   0  0  2  0  0  3  0  0  0  0  0  0
  162.7560  211.3000  157.0700 C   0  0  0  0  0  3  0  0  0  0  0  0
  157.6690  212.1290  157.2610 O   0  0  0  0  0  0  0  0  0  0  0  0
  155.7860  212.4960  155.0920 C   0  0  0  0  0  3  0  0  0  0  0  0
  157.6840  211.3190  156.1670 N   0  0  0  0  0  0  0  0  0  0  0  0
  160.3990  214.4070  156.3960 O   0  0  0  0  0  1  0  0  0  0  0  0
  157.8460  211.8670  151.4070 C   0  0  0  0  0  2  0  0  0  0  0  0
  160.5620  212.0320  156.4780 C   0  0  0  0  0  0  0  0  0  0  0  0
  158.3660  209.0590  155.8140 C   0  0  0  0  0  3  0  0  0  0  0  0
  159.9580  212.1700  152.8440 C   0  0  1  0  0  3  0  0  0  0  0  0
  161.0610  211.1480  152.5640 C   0  0  0  0  0  2  0  0  0  0  0  0
  160.5120  209.8330  152.0290 C   0  0  0  0  0  2  0  0  0  0  0  0
  161.5260  209.1110  151.4010 O   0  0  0  0  0  1  0  0  0  0  0  0
  1 15  1  0  0  0  0
  1 19  2  0  0  0  0
  2 23  1  0  0  0  0
  2  9  1  0  0  0  0
  4 29  2  0  0  0  0
  4 15  1  0  0  0  0
  5 24  1  0  0  0  0
  7  8  2  0  0  0  0
  7 21  1  0  0  0  0
  8 16  1  0  0  0  0
 10 23  2  0  0  0  0
 12 25  1  0  0  0  0
 12 26  1  0  0  0  0
 13 17  1  0  0  0  0
 14 11  1  6  0  0  0
 14  3  1  0  0  0  0
 14 31  1  0  0  0  0
 15  2  2  0  0  0  0
 16 25  2  0  0  0  0
 17 18  1  0  0  0  0
 18 27  1  1  0  0  0
 18 29  1  0  0  0  0
 18  5  1  0  0  0  0
 20 26  1  0  0  0  0
 20  4  1  0  0  0  0
 21 12  2  0  0  0  0
 22  6  1  6  0  0  0
 22 30  1  0  0  0  0
 22  1  1  0  0  0  0
 26 24  1  0  0  0  0
 28 14  1  0  0  0  0
 28  7  1  0  0  0  0
 29 10  1  0  0  0  0
 30 20  2  0  0  0  0
 31 32  1  6  0  0  0
 31 13  1  0  0  0  0
 33 32  1  0  0  0  0
 34 33  1  0  0  0  0
M  END
>  <MODEL>
2

>  <REMARK>
 VINA RESULT:       5.8      2.615      4.788
  Name = 
  2 active torsions:
  status: ('A' for Active; 'I' for Inactive)
    1  A    between atoms: C_20  and  C_22
    2  A    between atoms: C_20  and  C_34
                            x       y       z     vdW  Elec       q    Type
                         _______ _______ _______ _____ _____    ______ ____

>  <TORSDO>
F 2

$$$$
=
 OpenBabel11062407503D

 34 38  0  0  1  0  0  0  0  0999 V2000
  157.9680  212.6270  153.8490 C   0  0  0  0  0  0  0  0  0  0  0  0
  159.2350  213.4650  155.8830 C   0  0  0  0  0  0  0  0  0  0  0  0
  161.8780  206.1130  156.6100 S   0  0  0  0  0  1  0  0  0  0  0  0
  160.1850  211.6930  154.4940 C   0  0  0  0  0  0  0  0  0  0  0  0
  163.1650  210.6580  153.9150 C   0  0  0  0  0  2  0  0  0  0  0  0
  156.7070  210.2640  153.9360 Cl  0  0  0  0  0  0  0  0  0  0  0  0
  160.5010  206.6630  153.7020 C   0  0  0  0  0  0  0  0  0  0  0  0
  161.5880  205.9810  153.1440 C   0  0  0  0  0  3  0  0  0  0  0  0
  158.1770  214.4510  156.2470 C   0  0  0  0  0  1  0  0  0  0  0  0
  161.3120  212.4600  156.4650 N   0  0  0  0  0  0  0  0  0  0  0  0
  159.3560  206.1480  157.2030 F   0  0  0  0  0  0  0  0  0  0  0  0
  161.2300  208.7180  152.6290 C   0  0  0  0  0  0  0  0  0  0  0  0
  161.2040  208.9640  156.6670 O   0  0  0  0  0  0  0  0  0  0  0  0
  160.1830  206.6880  156.2340 C   0  0  2  0  0  0  0  0  0  0  0  0
  159.1430  212.6160  154.7600 C   0  0  0  0  0  0  0  0  0  0  0  0
  162.4740  206.6590  152.2960 C   0  0  0  0  0  3  0  0  0  0  0  0
  161.9490  209.1630  155.4960 C   0  0  0  0  0  2  0  0  0  0  0  0
  162.4190  210.6020  155.2720 C   0  0  1  0  0  0  0  0  0  0  0  0
  157.1860  213.6110  153.7900 O   0  0  0  0  0  0  0  0  0  0  0  0
  160.0970  210.8450  153.2740 C   0  0  0  0  0  0  0  0  0  0  0  0
  160.2970  207.9970  153.3790 C   0  0  0  0  0  3  0  0  0  0  0  0
  157.6880  211.4240  153.0050 C   0  0  2  0  0  3  0  0  0  0  0  0
  160.3380  213.3630  156.7190 C   0  0  0  0  0  3  0  0  0  0  0  0
  162.4190  210.8540  152.7230 O   0  0  0  0  0  0  0  0  0  0  0  0
  162.3200  208.0350  152.0730 C   0  0  0  0  0  3  0  0  0  0  0  0
  161.2560  210.1520  152.7970 N   0  0  0  0  0  0  0  0  0  0  0  0
  163.3750  210.8680  156.2550 O   0  0  0  0  0  1  0  0  0  0  0  0
  159.7360  206.1030  154.8680 C   0  0  0  0  0  2  0  0  0  0  0  0
  161.2870  211.6210  155.3910 C   0  0  0  0  0  0  0  0  0  0  0  0
  158.9590  210.7620  152.5710 C   0  0  0  0  0  3  0  0  0  0  0  0
  160.0640  208.2500  156.2460 C   0  0  1  0  0  3  0  0  0  0  0  0
  158.7770  208.8090  156.8550 C   0  0  0  0  0  2  0  0  0  0  0  0
  158.9090  210.2740  157.2470 C   0  0  0  0  0  2  0  0  0  0  0  0
  157.6530  210.8810  157.2610 O   0  0  0  0  0  1  0  0  0  0  0  0
  1 15  1  0  0  0  0
  2  9  1  0  0  0  0
  2 23  1  0  0  0  0
  4 15  1  0  0  0  0
  4 29  2  0  0  0  0
  5 18  1  0  0  0  0
  7 28  1  0  0  0  0
  8  7  2  0  0  0  0
 10 23  2  0  0  0  0
 12 26  1  0  0  0  0
 12 21  2  0  0  0  0
 14 31  1  0  0  0  0
 14  3  1  1  0  0  0
 14 11  1  0  0  0  0
 15  2  2  0  0  0  0
 16  8  1  0  0  0  0
 17 13  1  0  0  0  0
 18 29  1  0  0  0  0
 18 17  1  0  0  0  0
 18 27  1  1  0  0  0
 19  1  2  0  0  0  0
 20  4  1  0  0  0  0
 21  7  1  0  0  0  0
 22  1  1  0  0  0  0
 22  6  1  1  0  0  0
 24 26  1  0  0  0  0
 24  5  1  0  0  0  0
 25 16  2  0  0  0  0
 25 12  1  0  0  0  0
 26 20  1  0  0  0  0
 28 14  1  0  0  0  0
 29 10  1  0  0  0  0
 30 22  1  0  0  0  0
 30 20  2  0  0  0  0
 31 13  1  0  0  0  0
 31 32  1  1  0  0  0
 32 33  1  0  0  0  0
 33 34  1  0  0  0  0
M  END
>  <MODEL>
3

>  <REMARK>
 VINA RESULT:       6.9      2.760      5.861
  Name = 
  2 active torsions:
  status: ('A' for Active; 'I' for Inactive)
    1  A    between atoms: C_20  and  C_22
    2  A    between atoms: C_20  and  C_34
                            x       y       z     vdW  Elec       q    Type
                         _______ _______ _______ _____ _____    ______ ____

>  <TORSDO>
F 2

$$$$
=
 OpenBabel11062407503D

 34 38  0  0  1  0  0  0  0  0999 V2000
  157.9320  212.0840  154.3700 C   0  0  0  0  0  0  0  0  0  0  0  0
  159.5480  212.1970  156.3250 C   0  0  0  0  0  0  0  0  0  0  0  0
  162.7930  205.7090  153.3340 S   0  0  0  0  0  1  0  0  0  0  0  0
  160.2960  211.3260  154.1680 C   0  0  0  0  0  0  0  0  0  0  0  0
  163.1440  211.1010  152.7110 C   0  0  0  0  0  2  0  0  0  0  0  0
  156.8880  209.7310  153.6290 Cl  0  0  0  0  0  0  0  0  0  0  0  0
  160.7830  207.1850  151.2280 C   0  0  0  0  0  0  0  0  0  0  0  0
  161.7680  206.9720  150.2570 C   0  0  0  0  0  3  0  0  0  0  0  0
  158.5270  212.7670  157.2510 C   0  0  0  0  0  1  0  0  0  0  0  0
  161.7670  211.3790  156.0580 N   0  0  0  0  0  0  0  0  0  0  0  0
  160.4630  205.1030  154.2930 F   0  0  0  0  0  0  0  0  0  0  0  0
  161.1170  209.5860  151.0500 C   0  0  0  0  0  0  0  0  0  0  0  0
  161.9500  208.1400  154.7350 O   0  0  0  0  0  0  0  0  0  0  0  0
  161.0210  206.1150  153.5320 C   0  0  2  0  0  0  0  0  0  0  0  0
  159.2740  211.8830  154.9770 C   0  0  0  0  0  0  0  0  0  0  0  0
  162.4000  208.0690  149.6530 C   0  0  0  0  0  3  0  0  0  0  0  0
  162.4070  208.9170  153.6620 C   0  0  0  0  0  2  0  0  0  0  0  0
  162.7160  210.3750  154.0110 C   0  0  1  0  0  0  0  0  0  0  0  0
  157.0880  212.8700  154.8760 O   0  0  0  0  0  0  0  0  0  0  0  0
  160.0050  211.0540  152.7330 C   0  0  0  0  0  0  0  0  0  0  0  0
  160.4220  208.4850  151.5550 C   0  0  0  0  0  3  0  0  0  0  0  0
  157.5600  211.3080  153.1470 C   0  0  2  0  0  3  0  0  0  0  0  0
  160.8100  211.9340  156.8380 C   0  0  0  0  0  3  0  0  0  0  0  0
  162.1460  211.6510  151.8640 O   0  0  0  0  0  0  0  0  0  0  0  0
  162.1060  209.3720  150.0800 C   0  0  0  0  0  3  0  0  0  0  0  0
  161.0780  210.8080  151.8180 N   0  0  0  0  0  0  0  0  0  0  0  0
  163.8410  210.3590  154.8390 O   0  0  0  0  0  1  0  0  0  0  0  0
  160.3300  206.0840  152.1430 C   0  0  0  0  0  2  0  0  0  0  0  0
  161.5680  211.0640  154.7480 C   0  0  0  0  0  0  0  0  0  0  0  0
  158.7500  211.0910  152.2640 C   0  0  0  0  0  3  0  0  0  0  0  0
  160.7980  207.4950  154.2420 C   0  0  1  0  0  3  0  0  0  0  0  0
  159.6380  207.5450  155.2370 C   0  0  0  0  0  2  0  0  0  0  0  0
  160.1080  207.7790  156.6660 C   0  0  0  0  0  2  0  0  0  0  0  0
  160.4540  206.5660  157.2600 O   0  0  0  0  0  1  0  0  0  0  0  0
  1 19  2  0  0  0  0
  1 15  1  0  0  0  0
  2 23  1  0  0  0  0
  2  9  1  0  0  0  0
  4 29  2  0  0  0  0
  4 15  1  0  0  0  0
  5 18  1  0  0  0  0
  7 21  1  0  0  0  0
  7 28  1  0  0  0  0
  8  7  2  0  0  0  0
 10 23  2  0  0  0  0
 12 21  2  0  0  0  0
 12 26  1  0  0  0  0
 14  3  1  6  0  0  0
 14 31  1  0  0  0  0
 14 11  1  0  0  0  0
 15  2  2  0  0  0  0
 16 25  2  0  0  0  0
 16  8  1  0  0  0  0
 17 18  1  0  0  0  0
 17 13  1  0  0  0  0
 18 29  1  0  0  0  0
 18 27  1  1  0  0  0
 20  4  1  0  0  0  0
 22  6  1  1  0  0  0
 22  1  1  0  0  0  0
 24  5  1  0  0  0  0
 25 12  1  0  0  0  0
 26 24  1  0  0  0  0
 26 20  1  0  0  0  0
 28 14  1  0  0  0  0
 29 10  1  0  0  0  0
 30 20  2  0  0  0  0
 30 22  1  0  0  0  0
 31 13  1  0  0  0  0
 31 32  1  1  0  0  0
 32 33  1  0  0  0  0
 33 34  1  0  0  0  0
M  END
>  <MODEL>
4

>  <REMARK>
 VINA RESULT:       8.0      2.750      6.114
  Name = 
  2 active torsions:
  status: ('A' for Active; 'I' for Inactive)
    1  A    between atoms: C_20  and  C_22
    2  A    between atoms: C_20  and  C_34
                            x       y       z     vdW  Elec       q    Type
                         _______ _______ _______ _____ _____    ______ ____

>  <TORSDO>
F 2

$$$$
