=
 OpenBabel11062409223D

 37 42  0  0  1  0  0  0  0  0999 V2000
  159.5770  204.2860  152.6860 F   0  0  0  0  0  0  0  0  0  0  0  0
  162.4140  207.6500  150.3870 C   0  0  2  0  0  3  0  0  0  0  0  0
  161.0480  209.4430  147.5930 O   0  0  0  0  0  1  0  0  0  0  0  0
  160.9020  206.0520  151.4990 C   0  0  2  0  0  3  0  0  0  0  0  0
  161.4530  207.9370  149.3350 N   0  0  1  0  0  0  0  0  0  0  0  0
  162.2110  206.2010  150.7290 C   0  0  1  0  0  3  0  0  0  0  0  0
  161.8570  209.1930  148.7040 C   0  0  2  0  0  3  0  0  0  0  0  0
  160.8910  206.9740  152.7120 C   0  0  0  0  0  2  0  0  0  0  0  0
  162.0370  205.5960  149.3490 C   0  0  1  0  0  3  0  0  0  0  0  0
  160.6420  203.6680  150.6050 C   0  0  2  0  0  3  0  0  0  0  0  0
  160.9390  209.1690  153.4810 C   0  0  0  0  0  1  0  0  0  0  0  0
  160.9500  208.3710  152.2640 N   0  0  0  0  0  0  0  0  0  0  0  0
  161.1950  204.2900  149.2900 C   0  0  2  0  0  3  0  0  0  0  0  0
  162.2350  208.5970  151.5780 C   0  0  2  0  0  3  0  0  0  0  0  0
  161.5640  206.7700  148.4540 C   0  0  1  0  0  3  0  0  0  0  0  0
  160.6100  204.5900  151.8190 C   0  0  2  0  0  0  0  0  0  0  0  0
  161.6800  210.3360  149.7400 C   0  0  1  0  0  3  0  0  0  0  0  0
  161.7070  203.5430  151.6930 C   0  0  0  0  0  2  0  0  0  0  0  0
  162.3980  210.0430  151.0730 C   0  0  0  0  0  2  0  0  0  0  0  0
  162.0690  211.6720  149.2570 N   0  0  0  0  0  0  0  0  0  0  0  0
  163.2530  211.6720  148.3780 C   0  0  0  0  0  2  0  0  0  0  0  0
  163.2030  212.7220  147.2710 C   0  0  0  0  0  1  0  0  0  0  0  0
  160.9300  212.3850  148.6850 C   0  0  0  0  0  2  0  0  0  0  0  0
  159.2290  213.3630  150.2210 O   0  0  0  0  0  1  0  0  0  0  0  0
  161.2080  214.4530  149.8330 O   0  0  0  0  0  0  0  0  0  0  0  0
  160.4760  213.4520  149.6180 C   0  0  0  0  0  0  0  0  0  0  0  0
  161.9150  203.2460  148.4470 C   0  0  0  0  0  2  0  0  0  0  0  0
  161.0260  202.1300  148.1540 N   0  0  0  0  0  0  0  0  0  0  0  0
  161.5090  200.9840  148.9160 C   0  0  0  0  0  1  0  0  0  0  0  0
  161.0900  201.8570  146.7120 C   0  0  2  0  0  3  0  0  0  0  0  0
  159.8530  201.5810  144.8810 C   0  0  0  0  0  2  0  0  0  0  0  0
  161.3210  203.1280  145.9250 C   0  0  0  0  0  2  0  0  0  0  0  0
  159.9230  201.2300  146.2360 O   0  0  0  0  0  0  0  0  0  0  0  0
  160.4710  202.9490  144.7040 C   0  0  0  0  0  2  0  0  0  0  0  0
  160.2200  206.5050  147.7750 C   0  0  0  0  0  2  0  0  0  0  0  0
  161.7010  206.1280  145.9390 O   0  0  0  0  0  1  0  0  0  0  0  0
  160.3860  206.4560  146.2660 C   0  0  0  0  0  2  0  0  0  0  0  0
  2  6  1  0  0  0  0
  2 14  1  0  0  0  0
  3  7  1  0  0  0  0
  4 16  1  0  0  0  0
  4  8  1  0  0  0  0
  5  2  1  0  0  0  0
  6  4  1  0  0  0  0
  7  5  1  0  0  0  0
  7 17  1  0  0  0  0
  9  6  1  0  0  0  0
 10 18  1  0  0  0  0
 10 16  1  0  0  0  0
 12  8  1  0  0  0  0
 12 11  1  0  0  0  0
 13  9  1  0  0  0  0
 13 10  1  0  0  0  0
 14 12  1  0  0  0  0
 15  5  1  0  0  0  0
 15  9  1  0  0  0  0
 16  1  1  0  0  0  0
 17 19  1  0  0  0  0
 18 16  1  0  0  0  0
 19 14  1  0  0  0  0
 20 17  1  0  0  0  0
 21 20  1  0  0  0  0
 22 21  1  0  0  0  0
 23 20  1  0  0  0  0
 23 26  1  0  0  0  0
 26 25  2  0  0  0  0
 26 24  1  0  0  0  0
 27 13  1  0  0  0  0
 28 27  1  0  0  0  0
 28 29  1  0  0  0  0
 30 28  1  0  0  0  0
 31 33  1  0  0  0  0
 32 30  1  0  0  0  0
 33 30  1  0  0  0  0
 34 31  1  0  0  0  0
 34 32  1  0  0  0  0
 35 15  1  0  0  0  0
 36 37  1  0  0  0  0
 37 35  1  0  0  0  0
M  END
>  <MODEL>
1

>  <REMARK>
 VINA RESULT:      -5.8      0.000      0.000
  Name = 
  9 active torsions:
  status: ('A' for Active; 'I' for Inactive)
    1  A    between atoms: N_1  and  C_5
    2  A    between atoms: N_1  and  C_23
    3  A    between atoms: C_2  and  N_6
    4  A    between atoms: N_6  and  C_8
    5  A    between atoms: N_6  and  C_31
    6  A    between atoms: C_8  and  C_19
    7  A    between atoms: C_23  and  C_25
    8  A    between atoms: C_29  and  C_33
    9  A    between atoms: C_33  and  C_36
                            x       y       z     vdW  Elec       q    Type
                         _______ _______ _______ _____ _____    ______ ____

>  <TORSDO>
F 9

$$$$
=
 OpenBabel11062409223D

 37 42  0  0  1  0  0  0  0  0999 V2000
  162.6300  205.8310  154.4060 F   0  0  0  0  0  0  0  0  0  0  0  0
  160.3540  205.3250  150.0220 C   0  0  2  0  0  3  0  0  0  0  0  0
  162.0280  206.4770  147.0630 O   0  0  0  0  0  1  0  0  0  0  0  0
  161.5980  205.5610  152.1380 C   0  0  2  0  0  3  0  0  0  0  0  0
  161.3710  206.0310  149.2620 N   0  0  1  0  0  0  0  0  0  0  0  0
  160.3420  205.9760  151.3760 C   0  0  1  0  0  3  0  0  0  0  0  0
  161.1640  205.7120  147.8510 C   0  0  2  0  0  3  0  0  0  0  0  0
  161.7090  204.0430  152.1910 C   0  0  0  0  0  2  0  0  0  0  0  0
  160.4620  207.4400  150.9980 C   0  0  1  0  0  3  0  0  0  0  0  0
  161.5400  207.7630  153.4430 C   0  0  2  0  0  3  0  0  0  0  0  0
  161.9520  202.0710  150.9800 C   0  0  0  0  0  1  0  0  0  0  0  0
  161.8590  203.5160  150.8290 N   0  0  0  0  0  0  0  0  0  0  0  0
  161.1120  208.3600  152.0700 C   0  0  2  0  0  3  0  0  0  0  0  0
  160.6360  203.8190  150.0640 C   0  0  2  0  0  3  0  0  0  0  0  0
  161.1180  207.4380  149.5940 C   0  0  1  0  0  3  0  0  0  0  0  0
  161.6720  206.2450  153.4990 C   0  0  2  0  0  0  0  0  0  0  0  0
  161.4760  204.2040  147.6440 C   0  0  1  0  0  3  0  0  0  0  0  0
  160.4410  206.9190  154.0870 C   0  0  0  0  0  2  0  0  0  0  0  0
  160.6920  203.2990  148.6150 C   0  0  0  0  0  2  0  0  0  0  0  0
  161.2910  203.7190  146.2660 N   0  0  0  0  0  0  0  0  0  0  0  0
  162.2480  204.2840  145.2960 C   0  0  0  0  0  2  0  0  0  0  0  0
  161.6020  205.1530  144.2210 C   0  0  0  0  0  1  0  0  0  0  0  0
  161.2210  202.2610  146.2190 C   0  0  0  0  0  2  0  0  0  0  0  0
  160.1210  200.4940  144.8480 O   0  0  0  0  0  1  0  0  0  0  0  0
  159.4900  202.6870  144.6390 O   0  0  0  0  0  0  0  0  0  0  0  0
  160.2210  201.8320  145.2030 C   0  0  0  0  0  0  0  0  0  0  0  0
  160.2730  209.6170  152.2540 C   0  0  0  0  0  2  0  0  0  0  0  0
  161.1180  210.7390  152.6370 N   0  0  0  0  0  0  0  0  0  0  0  0
  162.4950  210.2570  152.6460 C   0  0  0  0  0  1  0  0  0  0  0  0
  160.7160  211.1810  153.9790 C   0  0  2  0  0  3  0  0  0  0  0  0
  159.5360  210.6080  155.7800 C   0  0  0  0  0  2  0  0  0  0  0  0
  161.7710  210.8360  155.0070 C   0  0  0  0  0  2  0  0  0  0  0  0
  159.4870  210.6210  154.3790 O   0  0  0  0  0  0  0  0  0  0  0  0
  160.9750  210.4300  156.2110 C   0  0  0  0  0  2  0  0  0  0  0  0
  162.4270  208.2260  149.5390 C   0  0  0  0  0  2  0  0  0  0  0  0
  162.0720  210.5810  149.3610 O   0  0  0  0  0  1  0  0  0  0  0  0
  162.2920  209.4230  148.6160 C   0  0  0  0  0  2  0  0  0  0  0  0
  2 14  1  0  0  0  0
  2  6  1  0  0  0  0
  3  7  1  0  0  0  0
  4  8  1  0  0  0  0
  4 16  1  0  0  0  0
  5 15  1  0  0  0  0
  5  2  1  0  0  0  0
  6  4  1  0  0  0  0
  7  5  1  0  0  0  0
  9  6  1  0  0  0  0
  9 13  1  0  0  0  0
 10 16  1  0  0  0  0
 10 18  1  0  0  0  0
 12 11  1  0  0  0  0
 12  8  1  0  0  0  0
 13 27  1  0  0  0  0
 13 10  1  0  0  0  0
 14 12  1  0  0  0  0
 15  9  1  0  0  0  0
 16 18  1  0  0  0  0
 16  1  1  0  0  0  0
 17  7  1  0  0  0  0
 17 19  1  0  0  0  0
 19 14  1  0  0  0  0
 20 17  1  0  0  0  0
 21 20  1  0  0  0  0
 22 21  1  0  0  0  0
 23 20  1  0  0  0  0
 24 26  1  0  0  0  0
 25 26  2  0  0  0  0
 26 23  1  0  0  0  0
 27 28  1  0  0  0  0
 28 29  1  0  0  0  0
 28 30  1  0  0  0  0
 30 33  1  0  0  0  0
 30 32  1  0  0  0  0
 31 34  1  0  0  0  0
 32 34  1  0  0  0  0
 33 31  1  0  0  0  0
 35 15  1  0  0  0  0
 37 36  1  0  0  0  0
 37 35  1  0  0  0  0
M  END
>  <MODEL>
2

>  <REMARK>
 VINA RESULT:      -5.6      2.172      7.941
  Name = 
  9 active torsions:
  status: ('A' for Active; 'I' for Inactive)
    1  A    between atoms: N_1  and  C_5
    2  A    between atoms: N_1  and  C_23
    3  A    between atoms: C_2  and  N_6
    4  A    between atoms: N_6  and  C_8
    5  A    between atoms: N_6  and  C_31
    6  A    between atoms: C_8  and  C_19
    7  A    between atoms: C_23  and  C_25
    8  A    between atoms: C_29  and  C_33
    9  A    between atoms: C_33  and  C_36
                            x       y       z     vdW  Elec       q    Type
                         _______ _______ _______ _____ _____    ______ ____

>  <TORSDO>
F 9

$$$$
=
 OpenBabel11062409223D

 37 42  0  0  1  0  0  0  0  0999 V2000
  162.2200  207.0910  155.5750 F   0  0  0  0  0  0  0  0  0  0  0  0
  160.5100  207.1780  150.9140 C   0  0  2  0  0  3  0  0  0  0  0  0
  162.6250  208.4800  148.3210 O   0  0  0  0  0  1  0  0  0  0  0  0
  161.4790  207.1170  153.1800 C   0  0  2  0  0  3  0  0  0  0  0  0
  161.6600  207.8760  150.3640 N   0  0  1  0  0  0  0  0  0  0  0  0
  160.3620  207.6960  152.3160 C   0  0  1  0  0  3  0  0  0  0  0  0
  161.6200  207.7090  148.9110 C   0  0  2  0  0  3  0  0  0  0  0  0
  161.4880  205.5970  153.0870 C   0  0  0  0  0  2  0  0  0  0  0  0
  160.6210  209.1760  152.1110 C   0  0  1  0  0  3  0  0  0  0  0  0
  161.3870  209.1820  154.6900 C   0  0  2  0  0  3  0  0  0  0  0  0
  161.7650  203.7380  151.7170 C   0  0  0  0  0  1  0  0  0  0  0  0
  161.7810  205.1930  151.7080 N   0  0  0  0  0  0  0  0  0  0  0  0
  161.1810  209.9380  153.3450 C   0  0  2  0  0  3  0  0  0  0  0  0
  160.6900  205.6580  150.8320 C   0  0  2  0  0  3  0  0  0  0  0  0
  161.4540  209.2590  150.8060 C   0  0  1  0  0  3  0  0  0  0  0  0
  161.4160  207.6600  154.6040 C   0  0  2  0  0  0  0  0  0  0  0  0
  161.8620  206.2100  148.5890 C   0  0  1  0  0  3  0  0  0  0  0  0
  160.1640  208.3650  155.1020 C   0  0  0  0  0  2  0  0  0  0  0  0
  160.9030  205.2770  149.3550 C   0  0  0  0  0  2  0  0  0  0  0  0
  161.8300  205.8740  147.1550 N   0  0  0  0  0  0  0  0  0  0  0  0
  162.2730  204.5010  146.8490 C   0  0  0  0  0  2  0  0  0  0  0  0
  163.6070  204.4310  146.1090 C   0  0  0  0  0  1  0  0  0  0  0  0
  160.5370  206.2050  146.5590 C   0  0  0  0  0  2  0  0  0  0  0  0
  159.7500  204.5990  144.8240 O   0  0  0  0  0  1  0  0  0  0  0  0
  161.1490  206.3250  144.2600 O   0  0  0  0  0  0  0  0  0  0  0  0
  160.4900  205.7270  145.1500 C   0  0  0  0  0  0  0  0  0  0  0  0
  160.4040  211.2310  153.5540 C   0  0  0  0  0  2  0  0  0  0  0  0
  159.3530  211.3580  152.5540 N   0  0  0  0  0  0  0  0  0  0  0  0
  159.6840  212.5140  151.7270 C   0  0  0  0  0  1  0  0  0  0  0  0
  158.0780  211.5700  153.2510 C   0  0  2  0  0  3  0  0  0  0  0  0
  157.1650  211.9790  155.2410 C   0  0  0  0  0  2  0  0  0  0  0  0
  157.6350  213.0130  153.1560 C   0  0  0  0  0  2  0  0  0  0  0  0
  158.1440  211.2000  154.6080 O   0  0  0  0  0  0  0  0  0  0  0  0
  157.0410  213.2920  154.5030 C   0  0  0  0  0  2  0  0  0  0  0  0
  162.8050  209.9490  150.9970 C   0  0  0  0  0  2  0  0  0  0  0  0
  161.7800  211.2980  149.3140 O   0  0  0  0  0  1  0  0  0  0  0  0
  162.8760  211.2220  150.1730 C   0  0  0  0  0  2  0  0  0  0  0  0
  2  6  1  0  0  0  0
  3  7  1  0  0  0  0
  4 16  1  0  0  0  0
  5 15  1  0  0  0  0
  5  2  1  0  0  0  0
  6  4  1  0  0  0  0
  7  5  1  0  0  0  0
  8  4  1  0  0  0  0
  9  6  1  0  0  0  0
  9 13  1  0  0  0  0
 10 18  1  0  0  0  0
 12 11  1  0  0  0  0
 12  8  1  0  0  0  0
 13 27  1  0  0  0  0
 13 10  1  0  0  0  0
 14  2  1  0  0  0  0
 14 12  1  0  0  0  0
 15 35  1  0  0  0  0
 15  9  1  0  0  0  0
 16 10  1  0  0  0  0
 16 18  1  0  0  0  0
 16  1  1  0  0  0  0
 17  7  1  0  0  0  0
 17 19  1  0  0  0  0
 19 14  1  0  0  0  0
 20 17  1  0  0  0  0
 21 20  1  0  0  0  0
 22 21  1  0  0  0  0
 23 20  1  0  0  0  0
 24 26  1  0  0  0  0
 25 26  2  0  0  0  0
 26 23  1  0  0  0  0
 28 30  1  0  0  0  0
 28 27  1  0  0  0  0
 29 28  1  0  0  0  0
 30 33  1  0  0  0  0
 32 30  1  0  0  0  0
 32 34  1  0  0  0  0
 33 31  1  0  0  0  0
 34 31  1  0  0  0  0
 36 37  1  0  0  0  0
 37 35  1  0  0  0  0
M  END
>  <MODEL>
3

>  <REMARK>
 VINA RESULT:      -5.6      2.568      7.712
  Name = 
  9 active torsions:
  status: ('A' for Active; 'I' for Inactive)
    1  A    between atoms: N_1  and  C_5
    2  A    between atoms: N_1  and  C_23
    3  A    between atoms: C_2  and  N_6
    4  A    between atoms: N_6  and  C_8
    5  A    between atoms: N_6  and  C_31
    6  A    between atoms: C_8  and  C_19
    7  A    between atoms: C_23  and  C_25
    8  A    between atoms: C_29  and  C_33
    9  A    between atoms: C_33  and  C_36
                            x       y       z     vdW  Elec       q    Type
                         _______ _______ _______ _____ _____    ______ ____

>  <TORSDO>
F 9

$$$$
=
 OpenBabel11062409223D

 37 42  0  0  1  0  0  0  0  0999 V2000
  163.1800  205.7870  146.3630 F   0  0  0  0  0  0  0  0  0  0  0  0
  160.4670  206.8110  150.3940 C   0  0  2  0  0  3  0  0  0  0  0  0
  161.6050  205.6320  153.5880 O   0  0  0  0  0  1  0  0  0  0  0  0
  161.9200  206.3070  148.4670 C   0  0  2  0  0  3  0  0  0  0  0  0
  161.2850  206.0290  151.3060 N   0  0  1  0  0  0  0  0  0  0  0  0
  160.5380  206.0900  149.0770 C   0  0  1  0  0  3  0  0  0  0  0  0
  160.9490  206.4510  152.6660 C   0  0  2  0  0  3  0  0  0  0  0  0
  162.2300  207.7950  148.3670 C   0  0  0  0  0  2  0  0  0  0  0  0
  160.4240  204.6460  149.5260 C   0  0  1  0  0  3  0  0  0  0  0  0
  161.7430  204.0580  147.2560 C   0  0  2  0  0  3  0  0  0  0  0  0
  162.5720  209.7870  149.5190 C   0  0  0  0  0  1  0  0  0  0  0  0
  162.2770  208.3750  149.7150 N   0  0  0  0  0  0  0  0  0  0  0  0
  161.0780  203.5960  148.5850 C   0  0  2  0  0  3  0  0  0  0  0  0
  160.9410  208.2660  150.3280 C   0  0  2  0  0  3  0  0  0  0  0  0
  160.8980  204.6480  151.0020 C   0  0  1  0  0  3  0  0  0  0  0  0
  162.0730  205.5440  147.1550 C   0  0  2  0  0  0  0  0  0  0  0  0
  161.4230  207.9180  152.8500 C   0  0  1  0  0  3  0  0  0  0  0  0
  160.8480  204.9920  146.4420 C   0  0  0  0  0  2  0  0  0  0  0  0
  160.8850  208.8560  151.7500 C   0  0  0  0  0  2  0  0  0  0  0  0
  161.1340  208.4990  154.1720 N   0  0  0  0  0  0  0  0  0  0  0  0
  160.7750  209.9290  154.1350 C   0  0  0  0  0  2  0  0  0  0  0  0
  161.7590  210.8340  154.8710 C   0  0  0  0  0  1  0  0  0  0  0  0
  160.1720  207.6860  154.9120 C   0  0  0  0  0  2  0  0  0  0  0  0
  161.9030  207.9270  156.6880 O   0  0  0  0  0  0  0  0  0  0  0  0
  159.8980  206.9160  157.1500 O   0  0  0  0  0  1  0  0  0  0  0  0
  160.6370  207.4970  156.3140 C   0  0  0  0  0  0  0  0  0  0  0  0
  160.1140  202.4410  148.3460 C   0  0  0  0  0  2  0  0  0  0  0  0
  160.8320  201.1740  148.3450 N   0  0  0  0  0  0  0  0  0  0  0  0
  162.0130  201.3480  149.1830 C   0  0  0  0  0  1  0  0  0  0  0  0
  161.2190  200.8650  146.9620 C   0  0  2  0  0  3  0  0  0  0  0  0
  161.1920  199.2750  145.4020 C   0  0  0  0  0  2  0  0  0  0  0  0
  160.1690  201.3390  145.9820 C   0  0  0  0  0  2  0  0  0  0  0  0
  161.4410  199.4890  146.7650 O   0  0  0  0  0  0  0  0  0  0  0  0
  160.1370  200.2580  144.9450 C   0  0  0  0  0  2  0  0  0  0  0  0
  162.0790  203.7110  151.2560 C   0  0  0  0  0  2  0  0  0  0  0  0
  160.3370  202.6890  152.5310 O   0  0  0  0  0  1  0  0  0  0  0  0
  161.6400  202.5060  152.0690 C   0  0  0  0  0  2  0  0  0  0  0  0
  1 16  1  0  0  0  0
  2  5  1  0  0  0  0
  4  6  1  0  0  0  0
  5  7  1  0  0  0  0
  6  9  1  0  0  0  0
  6  2  1  0  0  0  0
  7 17  1  0  0  0  0
  7  3  1  0  0  0  0
  8  4  1  0  0  0  0
  8 12  1  0  0  0  0
  9 15  1  0  0  0  0
 10 13  1  0  0  0  0
 11 12  1  0  0  0  0
 12 14  1  0  0  0  0
 13  9  1  0  0  0  0
 14  2  1  0  0  0  0
 14 19  1  0  0  0  0
 15 35  1  0  0  0  0
 15  5  1  0  0  0  0
 16 10  1  0  0  0  0
 16  4  1  0  0  0  0
 17 20  1  0  0  0  0
 18 16  1  0  0  0  0
 18 10  1  0  0  0  0
 19 17  1  0  0  0  0
 20 23  1  0  0  0  0
 21 20  1  0  0  0  0
 21 22  1  0  0  0  0
 23 26  1  0  0  0  0
 26 24  2  0  0  0  0
 26 25  1  0  0  0  0
 27 13  1  0  0  0  0
 28 27  1  0  0  0  0
 28 29  1  0  0  0  0
 30 28  1  0  0  0  0
 31 33  1  0  0  0  0
 32 30  1  0  0  0  0
 33 30  1  0  0  0  0
 34 31  1  0  0  0  0
 34 32  1  0  0  0  0
 35 37  1  0  0  0  0
 37 36  1  0  0  0  0
M  END
>  <MODEL>
4

>  <REMARK>
 VINA RESULT:      -5.4      3.383      5.064
  Name = 
  9 active torsions:
  status: ('A' for Active; 'I' for Inactive)
    1  A    between atoms: N_1  and  C_5
    2  A    between atoms: N_1  and  C_23
    3  A    between atoms: C_2  and  N_6
    4  A    between atoms: N_6  and  C_8
    5  A    between atoms: N_6  and  C_31
    6  A    between atoms: C_8  and  C_19
    7  A    between atoms: C_23  and  C_25
    8  A    between atoms: C_29  and  C_33
    9  A    between atoms: C_33  and  C_36
                            x       y       z     vdW  Elec       q    Type
                         _______ _______ _______ _____ _____    ______ ____

>  <TORSDO>
F 9

$$$$
=
 OpenBabel11062409223D

 37 42  0  0  1  0  0  0  0  0999 V2000
  162.6610  205.9890  154.5180 F   0  0  0  0  0  0  0  0  0  0  0  0
  160.4130  205.4650  150.1220 C   0  0  2  0  0  3  0  0  0  0  0  0
  162.0700  206.6780  147.1780 O   0  0  0  0  0  1  0  0  0  0  0  0
  161.6430  205.7130  152.2440 C   0  0  2  0  0  3  0  0  0  0  0  0
  161.4160  206.2010  149.3710 N   0  0  1  0  0  0  0  0  0  0  0  0
  160.3810  206.1050  151.4810 C   0  0  1  0  0  3  0  0  0  0  0  0
  161.2220  205.8870  147.9560 C   0  0  2  0  0  3  0  0  0  0  0  0
  161.7900  204.1970  152.2860 C   0  0  0  0  0  2  0  0  0  0  0  0
  160.4690  207.5740  151.1150 C   0  0  1  0  0  3  0  0  0  0  0  0
  161.5290  207.9030  153.5650 C   0  0  2  0  0  3  0  0  0  0  0  0
  162.0830  202.2420  151.0600 C   0  0  0  0  0  1  0  0  0  0  0  0
  161.9560  203.6850  150.9210 N   0  0  0  0  0  0  0  0  0  0  0  0
  161.0930  208.5000  152.1960 C   0  0  2  0  0  3  0  0  0  0  0  0
  160.7300  203.9660  150.1530 C   0  0  2  0  0  3  0  0  0  0  0  0
  161.1300  207.5980  149.7130 C   0  0  1  0  0  3  0  0  0  0  0  0
  161.6960  206.3880  153.6110 C   0  0  2  0  0  0  0  0  0  0  0  0
  161.5690  204.3890  147.7390 C   0  0  1  0  0  3  0  0  0  0  0  0
  160.4490  207.0290  154.1990 C   0  0  0  0  0  2  0  0  0  0  0  0
  160.8030  203.4580  148.7000 C   0  0  0  0  0  2  0  0  0  0  0  0
  161.4010  203.9110  146.3570 N   0  0  0  0  0  0  0  0  0  0  0  0
  162.4480  204.3750  145.4280 C   0  0  0  0  0  2  0  0  0  0  0  0
  163.8580  204.3280  146.0110 C   0  0  0  0  0  1  0  0  0  0  0  0
  161.1960  202.4650  146.3140 C   0  0  0  0  0  2  0  0  0  0  0  0
  159.6040  203.1150  144.5110 O   0  0  0  0  0  0  0  0  0  0  0  0
  160.0810  200.9070  144.8990 O   0  0  0  0  0  1  0  0  0  0  0  0
  160.2760  202.1140  145.1970 C   0  0  0  0  0  0  0  0  0  0  0  0
  160.2240  209.7360  152.3860 C   0  0  0  0  0  2  0  0  0  0  0  0
  161.0420  210.8750  152.7810 N   0  0  0  0  0  0  0  0  0  0  0  0
  161.4220  210.6700  154.1740 C   0  0  0  0  0  1  0  0  0  0  0  0
  160.2340  212.0930  152.6390 C   0  0  2  0  0  3  0  0  0  0  0  0
  158.2080  212.8520  152.1080 C   0  0  0  0  0  2  0  0  0  0  0  0
  159.6480  212.5180  153.9670 C   0  0  0  0  0  2  0  0  0  0  0  0
  159.1890  211.9340  151.7080 O   0  0  0  0  0  0  0  0  0  0  0  0
  158.2780  213.0090  153.6110 C   0  0  0  0  0  2  0  0  0  0  0  0
  162.4200  208.4170  149.6690 C   0  0  0  0  0  2  0  0  0  0  0  0
  161.9670  210.7580  149.5370 O   0  0  0  0  0  1  0  0  0  0  0  0
  162.2530  209.6290  148.7710 C   0  0  0  0  0  2  0  0  0  0  0  0
  2 14  1  0  0  0  0
  2  6  1  0  0  0  0
  3  7  1  0  0  0  0
  4  8  1  0  0  0  0
  4 16  1  0  0  0  0
  5 15  1  0  0  0  0
  5  2  1  0  0  0  0
  6  4  1  0  0  0  0
  7  5  1  0  0  0  0
  9  6  1  0  0  0  0
  9 13  1  0  0  0  0
 10 16  1  0  0  0  0
 10 18  1  0  0  0  0
 12 11  1  0  0  0  0
 12  8  1  0  0  0  0
 13 27  1  0  0  0  0
 13 10  1  0  0  0  0
 14 12  1  0  0  0  0
 15  9  1  0  0  0  0
 16 18  1  0  0  0  0
 16  1  1  0  0  0  0
 17  7  1  0  0  0  0
 17 19  1  0  0  0  0
 19 14  1  0  0  0  0
 20 17  1  0  0  0  0
 21 22  1  0  0  0  0
 21 20  1  0  0  0  0
 23 20  1  0  0  0  0
 24 26  2  0  0  0  0
 25 26  1  0  0  0  0
 26 23  1  0  0  0  0
 27 28  1  0  0  0  0
 28 29  1  0  0  0  0
 30 28  1  0  0  0  0
 30 32  1  0  0  0  0
 31 34  1  0  0  0  0
 33 31  1  0  0  0  0
 33 30  1  0  0  0  0
 34 32  1  0  0  0  0
 35 15  1  0  0  0  0
 37 36  1  0  0  0  0
 37 35  1  0  0  0  0
M  END
>  <MODEL>
5

>  <REMARK>
 VINA RESULT:      -5.4      2.094      7.902
  Name = 
  9 active torsions:
  status: ('A' for Active; 'I' for Inactive)
    1  A    between atoms: N_1  and  C_5
    2  A    between atoms: N_1  and  C_23
    3  A    between atoms: C_2  and  N_6
    4  A    between atoms: N_6  and  C_8
    5  A    between atoms: N_6  and  C_31
    6  A    between atoms: C_8  and  C_19
    7  A    between atoms: C_23  and  C_25
    8  A    between atoms: C_29  and  C_33
    9  A    between atoms: C_33  and  C_36
                            x       y       z     vdW  Elec       q    Type
                         _______ _______ _______ _____ _____    ______ ____

>  <TORSDO>
F 9

$$$$
=
 OpenBabel11062409223D

 37 42  0  0  1  0  0  0  0  0999 V2000
  163.4490  207.5430  147.1610 F   0  0  0  0  0  0  0  0  0  0  0  0
  160.4540  207.4300  151.1200 C   0  0  2  0  0  3  0  0  0  0  0  0
  161.5160  205.6320  154.0400 O   0  0  0  0  0  1  0  0  0  0  0  0
  162.0420  207.4810  149.2350 C   0  0  2  0  0  3  0  0  0  0  0  0
  161.2850  206.5180  151.8890 N   0  0  1  0  0  0  0  0  0  0  0  0
  160.6530  207.0370  149.6830 C   0  0  1  0  0  3  0  0  0  0  0  0
  160.8440  206.5930  153.2810 C   0  0  2  0  0  3  0  0  0  0  0  0
  162.2330  208.9700  149.4940 C   0  0  0  0  0  2  0  0  0  0  0  0
  160.6340  205.5240  149.7880 C   0  0  1  0  0  3  0  0  0  0  0  0
  162.1140  205.5630  147.5410 C   0  0  2  0  0  3  0  0  0  0  0  0
  162.3500  210.6640  151.0840 C   0  0  0  0  0  1  0  0  0  0  0  0
  162.1620  209.2280  150.9370 N   0  0  0  0  0  0  0  0  0  0  0  0
  161.4200  204.7640  148.6830 C   0  0  2  0  0  3  0  0  0  0  0  0
  160.8100  208.8910  151.4160 C   0  0  2  0  0  3  0  0  0  0  0  0
  161.0290  205.2200  151.2560 C   0  0  1  0  0  3  0  0  0  0  0  0
  162.3260  207.0500  147.8000 C   0  0  2  0  0  0  0  0  0  0  0  0
  161.1850  208.0080  153.8220 C   0  0  1  0  0  3  0  0  0  0  0  0
  161.1900  206.5940  146.8970 C   0  0  0  0  0  2  0  0  0  0  0  0
  160.6310  209.1340  152.9260 C   0  0  0  0  0  2  0  0  0  0  0  0
  160.7810  208.2490  155.2170 N   0  0  0  0  0  0  0  0  0  0  0  0
  159.8860  207.2160  155.7720 C   0  0  0  0  0  2  0  0  0  0  0  0
  160.1050  206.9380  157.2570 C   0  0  0  0  0  1  0  0  0  0  0  0
  161.9370  208.5230  156.0680 C   0  0  0  0  0  2  0  0  0  0  0  0
  163.1590  210.6890  155.9100 O   0  0  0  0  0  0  0  0  0  0  0  0
  161.1300  210.5740  156.9700 O   0  0  0  0  0  1  0  0  0  0  0  0
  162.0400  209.9840  156.3320 C   0  0  0  0  0  0  0  0  0  0  0  0
  160.5690  203.6320  148.1250 C   0  0  0  0  0  2  0  0  0  0  0  0
  161.2880  202.9290  147.0710 N   0  0  0  0  0  0  0  0  0  0  0  0
  161.0930  203.6860  145.8390 C   0  0  0  0  0  1  0  0  0  0  0  0
  160.7190  201.5810  146.9460 C   0  0  2  0  0  3  0  0  0  0  0  0
  160.5850  199.8050  145.6070 C   0  0  0  0  0  2  0  0  0  0  0  0
  161.5980  200.5520  147.6220 C   0  0  0  0  0  2  0  0  0  0  0  0
  160.5260  201.2060  145.6020 O   0  0  0  0  0  0  0  0  0  0  0  0
  161.5240  199.3660  146.7090 C   0  0  0  0  0  2  0  0  0  0  0  0
  162.2680  204.3330  151.3750 C   0  0  0  0  0  2  0  0  0  0  0  0
  160.6490  202.8380  152.2990 O   0  0  0  0  0  1  0  0  0  0  0  0
  161.8690  202.8890  151.6250 C   0  0  0  0  0  2  0  0  0  0  0  0
  1 16  1  0  0  0  0
  2 14  1  0  0  0  0
  2  5  1  0  0  0  0
  4  8  1  0  0  0  0
  4  6  1  0  0  0  0
  5  7  1  0  0  0  0
  6  9  1  0  0  0  0
  6  2  1  0  0  0  0
  7 17  1  0  0  0  0
  7  3  1  0  0  0  0
  8 12  1  0  0  0  0
  9 15  1  0  0  0  0
 10 16  1  0  0  0  0
 10 13  1  0  0  0  0
 12 11  1  0  0  0  0
 12 14  1  0  0  0  0
 13  9  1  0  0  0  0
 14 19  1  0  0  0  0
 15 35  1  0  0  0  0
 15  5  1  0  0  0  0
 16  4  1  0  0  0  0
 17 20  1  0  0  0  0
 18 10  1  0  0  0  0
 18 16  1  0  0  0  0
 19 17  1  0  0  0  0
 20 21  1  0  0  0  0
 20 23  1  0  0  0  0
 21 22  1  0  0  0  0
 23 26  1  0  0  0  0
 24 26  2  0  0  0  0
 26 25  1  0  0  0  0
 27 13  1  0  0  0  0
 28 27  1  0  0  0  0
 29 28  1  0  0  0  0
 30 28  1  0  0  0  0
 30 32  1  0  0  0  0
 31 34  1  0  0  0  0
 33 31  1  0  0  0  0
 33 30  1  0  0  0  0
 34 32  1  0  0  0  0
 35 37  1  0  0  0  0
 37 36  1  0  0  0  0
M  END
>  <MODEL>
6

>  <REMARK>
 VINA RESULT:      -5.4      3.154      5.238
  Name = 
  9 active torsions:
  status: ('A' for Active; 'I' for Inactive)
    1  A    between atoms: N_1  and  C_5
    2  A    between atoms: N_1  and  C_23
    3  A    between atoms: C_2  and  N_6
    4  A    between atoms: N_6  and  C_8
    5  A    between atoms: N_6  and  C_31
    6  A    between atoms: C_8  and  C_19
    7  A    between atoms: C_23  and  C_25
    8  A    between atoms: C_29  and  C_33
    9  A    between atoms: C_33  and  C_36
                            x       y       z     vdW  Elec       q    Type
                         _______ _______ _______ _____ _____    ______ ____

>  <TORSDO>
F 9

$$$$
=
 OpenBabel11062409223D

 37 42  0  0  1  0  0  0  0  0999 V2000
  161.5960  211.5130  156.6420 F   0  0  0  0  0  0  0  0  0  0  0  0
  160.1470  208.3510  153.0980 C   0  0  2  0  0  3  0  0  0  0  0  0
  162.2850  207.8380  150.2610 O   0  0  0  0  0  1  0  0  0  0  0  0
  160.9890  209.8880  154.8320 C   0  0  2  0  0  3  0  0  0  0  0  0
  161.2630  208.6290  152.2090 N   0  0  1  0  0  0  0  0  0  0  0  0
  159.8780  209.6430  153.8160 C   0  0  1  0  0  3  0  0  0  0  0  0
  161.3180  207.5480  151.2250 C   0  0  2  0  0  3  0  0  0  0  0  0
  161.1320  208.6900  155.7620 C   0  0  0  0  0  2  0  0  0  0  0  0
  160.0220  210.6430  152.6840 C   0  0  1  0  0  3  0  0  0  0  0  0
  160.6400  212.4150  154.6120 C   0  0  2  0  0  3  0  0  0  0  0  0
  161.6420  206.4280  155.9480 C   0  0  0  0  0  1  0  0  0  0  0  0
  161.5350  207.5130  154.9840 N   0  0  0  0  0  0  0  0  0  0  0  0
  160.4450  212.0780  153.1050 C   0  0  2  0  0  3  0  0  0  0  0  0
  160.4590  207.1780  154.0340 C   0  0  2  0  0  3  0  0  0  0  0  0
  160.9160  209.9330  151.6350 C   0  0  1  0  0  3  0  0  0  0  0  0
  160.8020  211.2220  155.5480 C   0  0  2  0  0  0  0  0  0  0  0  0
  161.7040  206.2380  151.9650 C   0  0  1  0  0  3  0  0  0  0  0  0
  159.4690  211.9500  155.4770 C   0  0  0  0  0  2  0  0  0  0  0  0
  160.7850  205.9460  153.1690 C   0  0  0  0  0  2  0  0  0  0  0  0
  161.7790  205.0440  151.1070 N   0  0  0  0  0  0  0  0  0  0  0  0
  161.9580  203.7810  151.8480 C   0  0  0  0  0  2  0  0  0  0  0  0
  160.8220  202.7800  151.6500 C   0  0  0  0  0  1  0  0  0  0  0  0
  160.6700  204.9990  150.1570 C   0  0  0  0  0  2  0  0  0  0  0  0
  161.2400  203.4270  148.3090 O   0  0  0  0  0  1  0  0  0  0  0  0
  161.6040  205.6770  148.0730 O   0  0  0  0  0  0  0  0  0  0  0  0
  161.1850  204.7290  148.7860 C   0  0  0  0  0  0  0  0  0  0  0  0
  159.5520  213.1050  152.4220 C   0  0  0  0  0  2  0  0  0  0  0  0
  158.2000  212.5830  152.2760 N   0  0  0  0  0  0  0  0  0  0  0  0
  157.8090  212.7850  150.8860 C   0  0  0  0  0  1  0  0  0  0  0  0
  157.3170  213.3360  153.1770 C   0  0  2  0  0  3  0  0  0  0  0  0
  155.2950  214.2540  153.3550 C   0  0  0  0  0  2  0  0  0  0  0  0
  156.5820  212.4110  154.1210 C   0  0  0  0  0  2  0  0  0  0  0  0
  156.3760  214.1130  152.4740 O   0  0  0  0  0  0  0  0  0  0  0  0
  155.2160  213.0180  154.2230 C   0  0  0  0  0  2  0  0  0  0  0  0
  162.1910  210.7100  151.3070 C   0  0  0  0  0  2  0  0  0  0  0  0
  162.2250  210.5750  148.9230 O   0  0  0  0  0  1  0  0  0  0  0  0
  162.0400  211.4520  149.9910 C   0  0  0  0  0  2  0  0  0  0  0  0
  2  6  1  0  0  0  0
  2 14  1  0  0  0  0
  3  7  1  0  0  0  0
  4 16  1  0  0  0  0
  4  8  1  0  0  0  0
  5  2  1  0  0  0  0
  6  4  1  0  0  0  0
  7 17  1  0  0  0  0
  7  5  1  0  0  0  0
  9 13  1  0  0  0  0
  9  6  1  0  0  0  0
 10 18  1  0  0  0  0
 10 16  1  0  0  0  0
 12  8  1  0  0  0  0
 12 11  1  0  0  0  0
 13 10  1  0  0  0  0
 14 12  1  0  0  0  0
 15  5  1  0  0  0  0
 15  9  1  0  0  0  0
 16  1  1  0  0  0  0
 17 19  1  0  0  0  0
 18 16  1  0  0  0  0
 19 14  1  0  0  0  0
 20 21  1  0  0  0  0
 20 17  1  0  0  0  0
 22 21  1  0  0  0  0
 23 20  1  0  0  0  0
 24 26  1  0  0  0  0
 25 26  2  0  0  0  0
 26 23  1  0  0  0  0
 27 13  1  0  0  0  0
 28 27  1  0  0  0  0
 28 30  1  0  0  0  0
 29 28  1  0  0  0  0
 30 32  1  0  0  0  0
 31 34  1  0  0  0  0
 32 34  1  0  0  0  0
 33 30  1  0  0  0  0
 33 31  1  0  0  0  0
 35 15  1  0  0  0  0
 36 37  1  0  0  0  0
 37 35  1  0  0  0  0
M  END
>  <MODEL>
7

>  <REMARK>
 VINA RESULT:      -3.4      3.309      8.656
  Name = 
  9 active torsions:
  status: ('A' for Active; 'I' for Inactive)
    1  A    between atoms: N_1  and  C_5
    2  A    between atoms: N_1  and  C_23
    3  A    between atoms: C_2  and  N_6
    4  A    between atoms: N_6  and  C_8
    5  A    between atoms: N_6  and  C_31
    6  A    between atoms: C_8  and  C_19
    7  A    between atoms: C_23  and  C_25
    8  A    between atoms: C_29  and  C_33
    9  A    between atoms: C_33  and  C_36
                            x       y       z     vdW  Elec       q    Type
                         _______ _______ _______ _____ _____    ______ ____

>  <TORSDO>
F 9

$$$$
=
 OpenBabel11062409223D

 37 42  0  0  1  0  0  0  0  0999 V2000
  159.7070  202.0710  152.2080 F   0  0  0  0  0  0  0  0  0  0  0  0
  162.2100  206.3300  151.7130 C   0  0  2  0  0  3  0  0  0  0  0  0
  160.6410  209.0680  150.0030 O   0  0  0  0  0  1  0  0  0  0  0  0
  160.8570  204.2840  151.9640 C   0  0  2  0  0  3  0  0  0  0  0  0
  161.2050  206.9790  150.8880 N   0  0  1  0  0  0  0  0  0  0  0  0
  162.1320  204.8710  151.3640 C   0  0  1  0  0  3  0  0  0  0  0  0
  161.4930  208.4130  150.8950 C   0  0  2  0  0  3  0  0  0  0  0  0
  160.8000  204.5580  153.4610 C   0  0  0  0  0  2  0  0  0  0  0  0
  161.9760  204.9380  149.8560 C   0  0  1  0  0  3  0  0  0  0  0  0
  160.7700  202.5440  150.0880 C   0  0  2  0  0  3  0  0  0  0  0  0
  160.6900  206.1690  155.1360 C   0  0  0  0  0  1  0  0  0  0  0  0
  160.7370  206.0070  153.6900 N   0  0  0  0  0  0  0  0  0  0  0  0
  161.2410  203.7340  149.2020 C   0  0  2  0  0  3  0  0  0  0  0  0
  161.9830  206.6220  153.2000 C   0  0  2  0  0  3  0  0  0  0  0  0
  161.3890  206.3460  149.5780 C   0  0  1  0  0  3  0  0  0  0  0  0
  160.6920  202.8160  151.5870 C   0  0  2  0  0  0  0  0  0  0  0  0
  161.2480  208.9500  152.3320 C   0  0  1  0  0  3  0  0  0  0  0  0
  161.8660  202.0320  151.0210 C   0  0  0  0  0  2  0  0  0  0  0  0
  162.0170  208.1490  153.4020 C   0  0  0  0  0  2  0  0  0  0  0  0
  161.5180  210.3860  152.5080 N   0  0  0  0  0  0  0  0  0  0  0  0
  160.4170  211.2630  152.0670 C   0  0  0  0  0  2  0  0  0  0  0  0
  160.8460  212.3480  151.0810 C   0  0  0  0  0  1  0  0  0  0  0  0
  161.9760  210.6800  153.8640 C   0  0  0  0  0  2  0  0  0  0  0  0
  160.0380  210.0370  155.2930 O   0  0  0  0  0  1  0  0  0  0  0  0
  160.5190  212.2460  154.9130 O   0  0  0  0  0  0  0  0  0  0  0  0
  160.8160  211.0380  154.7270 C   0  0  0  0  0  0  0  0  0  0  0  0
  162.0230  203.2430  147.9920 C   0  0  0  0  0  2  0  0  0  0  0  0
  161.1130  202.8930  146.9090 N   0  0  0  0  0  0  0  0  0  0  0  0
  161.0740  201.4370  146.8340 C   0  0  0  0  0  1  0  0  0  0  0  0
  161.6420  203.4620  145.6620 C   0  0  2  0  0  3  0  0  0  0  0  0
  161.4050  205.1330  144.2090 C   0  0  0  0  0  2  0  0  0  0  0  0
  162.8410  204.3450  145.9290 C   0  0  0  0  0  2  0  0  0  0  0  0
  160.6730  204.2050  144.9620 O   0  0  0  0  0  0  0  0  0  0  0  0
  162.6680  205.4790  144.9650 C   0  0  0  0  0  2  0  0  0  0  0  0
  160.0560  206.3050  148.8310 C   0  0  0  0  0  2  0  0  0  0  0  0
  161.4450  207.3380  147.1850 O   0  0  0  0  0  1  0  0  0  0  0  0
  160.2580  206.6270  147.3610 C   0  0  0  0  0  2  0  0  0  0  0  0
  2 14  1  0  0  0  0
  3  7  1  0  0  0  0
  4  8  1  0  0  0  0
  5  7  1  0  0  0  0
  5  2  1  0  0  0  0
  6  2  1  0  0  0  0
  6  4  1  0  0  0  0
  7 17  1  0  0  0  0
  8 12  1  0  0  0  0
  9  6  1  0  0  0  0
 10 18  1  0  0  0  0
 10 16  1  0  0  0  0
 12 11  1  0  0  0  0
 13  9  1  0  0  0  0
 13 10  1  0  0  0  0
 14 19  1  0  0  0  0
 14 12  1  0  0  0  0
 15  9  1  0  0  0  0
 15  5  1  0  0  0  0
 16  4  1  0  0  0  0
 16  1  1  0  0  0  0
 17 20  1  0  0  0  0
 17 19  1  0  0  0  0
 18 16  1  0  0  0  0
 20 23  1  0  0  0  0
 21 20  1  0  0  0  0
 22 21  1  0  0  0  0
 23 26  1  0  0  0  0
 26 25  2  0  0  0  0
 26 24  1  0  0  0  0
 27 13  1  0  0  0  0
 28 27  1  0  0  0  0
 29 28  1  0  0  0  0
 30 32  1  0  0  0  0
 30 28  1  0  0  0  0
 31 33  1  0  0  0  0
 31 34  1  0  0  0  0
 33 30  1  0  0  0  0
 34 32  1  0  0  0  0
 35 15  1  0  0  0  0
 36 37  1  0  0  0  0
 37 35  1  0  0  0  0
M  END
>  <MODEL>
8

>  <REMARK>
 VINA RESULT:      -3.4      2.214      3.004
  Name = 
  9 active torsions:
  status: ('A' for Active; 'I' for Inactive)
    1  A    between atoms: N_1  and  C_5
    2  A    between atoms: N_1  and  C_23
    3  A    between atoms: C_2  and  N_6
    4  A    between atoms: N_6  and  C_8
    5  A    between atoms: N_6  and  C_31
    6  A    between atoms: C_8  and  C_19
    7  A    between atoms: C_23  and  C_25
    8  A    between atoms: C_29  and  C_33
    9  A    between atoms: C_33  and  C_36
                            x       y       z     vdW  Elec       q    Type
                         _______ _______ _______ _____ _____    ______ ____

>  <TORSDO>
F 9

$$$$
=
 OpenBabel11062409223D

 37 42  0  0  1  0  0  0  0  0999 V2000
  163.1720  206.6310  147.4390 F   0  0  0  0  0  0  0  0  0  0  0  0
  160.3840  207.7090  151.4030 C   0  0  2  0  0  3  0  0  0  0  0  0
  161.4680  206.5840  154.6360 O   0  0  0  0  0  1  0  0  0  0  0  0
  161.8730  207.1800  149.5110 C   0  0  2  0  0  3  0  0  0  0  0  0
  161.1880  206.9450  152.3430 N   0  0  1  0  0  0  0  0  0  0  0  0
  160.4810  206.9680  150.1000 C   0  0  1  0  0  3  0  0  0  0  0  0
  160.8260  207.3860  153.6890 C   0  0  2  0  0  3  0  0  0  0  0  0
  162.1800  208.6670  149.3940 C   0  0  0  0  0  2  0  0  0  0  0  0
  160.3630  205.5310  150.5690 C   0  0  1  0  0  3  0  0  0  0  0  0
  161.7250  204.9120  148.3320 C   0  0  2  0  0  3  0  0  0  0  0  0
  162.4950  210.6780  150.5200 C   0  0  0  0  0  1  0  0  0  0  0  0
  162.2010  209.2680  150.7320 N   0  0  0  0  0  0  0  0  0  0  0  0
  161.0370  204.4680  149.6570 C   0  0  2  0  0  3  0  0  0  0  0  0
  160.8550  209.1650  151.3230 C   0  0  2  0  0  3  0  0  0  0  0  0
  160.8110  205.5570  152.0530 C   0  0  1  0  0  3  0  0  0  0  0  0
  162.0520  206.3970  148.2140 C   0  0  2  0  0  0  0  0  0  0  0  0
  161.2920  208.8580  153.8580 C   0  0  1  0  0  3  0  0  0  0  0  0
  160.8420  205.8300  147.4880 C   0  0  0  0  0  2  0  0  0  0  0  0
  160.7710  209.7770  152.7340 C   0  0  0  0  0  2  0  0  0  0  0  0
  160.9770  209.4580  155.1660 N   0  0  0  0  0  0  0  0  0  0  0  0
  162.0920  209.4160  156.1310 C   0  0  0  0  0  2  0  0  0  0  0  0
  162.9030  210.7070  156.1990 C   0  0  0  0  0  1  0  0  0  0  0  0
  160.4010  210.7920  155.0150 C   0  0  0  0  0  2  0  0  0  0  0  0
  157.9170  210.9980  155.0420 O   0  0  0  0  0  0  0  0  0  0  0  0
  159.0940  210.8630  157.0050 O   0  0  0  0  0  1  0  0  0  0  0  0
  159.1070  210.8730  155.7470 C   0  0  0  0  0  0  0  0  0  0  0  0
  160.0820  203.3070  149.4180 C   0  0  0  0  0  2  0  0  0  0  0  0
  160.7490  202.0390  149.6810 N   0  0  0  0  0  0  0  0  0  0  0  0
  161.7420  202.2830  150.7210 C   0  0  0  0  0  1  0  0  0  0  0  0
  161.3970  201.5950  148.4400 C   0  0  2  0  0  3  0  0  0  0  0  0
  161.5760  199.8890  147.0180 C   0  0  0  0  0  2  0  0  0  0  0  0
  160.6240  202.0560  147.2240 C   0  0  0  0  0  2  0  0  0  0  0  0
  161.5440  200.1960  148.3860 O   0  0  0  0  0  0  0  0  0  0  0  0
  160.7280  200.8980  146.2770 C   0  0  0  0  0  2  0  0  0  0  0  0
  161.9900  204.6290  152.3430 C   0  0  0  0  0  2  0  0  0  0  0  0
  163.7780  205.8220  151.3020 O   0  0  0  0  0  1  0  0  0  0  0  0
  163.2650  205.4300  152.5380 C   0  0  0  0  0  2  0  0  0  0  0  0
  1 16  1  0  0  0  0
  2  5  1  0  0  0  0
  4  6  1  0  0  0  0
  5  7  1  0  0  0  0
  6  9  1  0  0  0  0
  6  2  1  0  0  0  0
  7 17  1  0  0  0  0
  7  3  1  0  0  0  0
  8  4  1  0  0  0  0
  8 12  1  0  0  0  0
  9 15  1  0  0  0  0
 10 13  1  0  0  0  0
 11 12  1  0  0  0  0
 12 14  1  0  0  0  0
 13  9  1  0  0  0  0
 14  2  1  0  0  0  0
 14 19  1  0  0  0  0
 15 35  1  0  0  0  0
 15  5  1  0  0  0  0
 16 10  1  0  0  0  0
 16  4  1  0  0  0  0
 17 20  1  0  0  0  0
 18 16  1  0  0  0  0
 18 10  1  0  0  0  0
 19 17  1  0  0  0  0
 20 21  1  0  0  0  0
 21 22  1  0  0  0  0
 23 20  1  0  0  0  0
 23 26  1  0  0  0  0
 24 26  2  0  0  0  0
 26 25  1  0  0  0  0
 27 13  1  0  0  0  0
 27 28  1  0  0  0  0
 28 29  1  0  0  0  0
 30 28  1  0  0  0  0
 31 33  1  0  0  0  0
 32 30  1  0  0  0  0
 33 30  1  0  0  0  0
 34 31  1  0  0  0  0
 34 32  1  0  0  0  0
 35 37  1  0  0  0  0
 36 37  1  0  0  0  0
M  END
>  <MODEL>
9

>  <REMARK>
 VINA RESULT:      -3.2      2.946      4.712
  Name = 
  9 active torsions:
  status: ('A' for Active; 'I' for Inactive)
    1  A    between atoms: N_1  and  C_5
    2  A    between atoms: N_1  and  C_23
    3  A    between atoms: C_2  and  N_6
    4  A    between atoms: N_6  and  C_8
    5  A    between atoms: N_6  and  C_31
    6  A    between atoms: C_8  and  C_19
    7  A    between atoms: C_23  and  C_25
    8  A    between atoms: C_29  and  C_33
    9  A    between atoms: C_33  and  C_36
                            x       y       z     vdW  Elec       q    Type
                         _______ _______ _______ _____ _____    ______ ____

>  <TORSDO>
F 9

$$$$
