=
 OpenBabel11062409233D

 37 37  0  0  1  0  0  0  0  0999 V2000
  163.1300  207.5380  150.3610 O   0  0  0  0  0  1  0  0  0  0  0  0
  161.8420  208.0200  150.6490 C   0  0  1  0  0  0  0  0  0  0  0  0
  161.9340  207.3340  152.9870 O   0  0  0  0  0  0  0  0  0  0  0  0
  162.0590  206.1120  152.2950 C   0  0  2  0  0  3  0  0  0  0  0  0
  161.1970  207.2100  151.7930 C   0  0  2  0  0  3  0  0  0  0  0  0
  161.1890  205.0670  152.9670 C   0  0  0  0  0  2  0  0  0  0  0  0
  162.2010  203.4280  151.5920 F   0  0  0  0  0  0  0  0  0  0  0  0
  160.9760  203.8630  152.0610 C   0  0  0  0  0  0  0  0  0  0  0  0
  160.1820  204.2150  150.9850 F   0  0  0  0  0  0  0  0  0  0  0  0
  160.3740  202.8370  152.7650 F   0  0  0  0  0  0  0  0  0  0  0  0
  161.9550  209.4900  151.1110 C   0  0  2  0  0  3  0  0  0  0  0  0
  160.7080  210.5780  153.0950 C   0  0  0  0  0  0  0  0  0  0  0  0
  160.7510  209.9740  151.7980 N   0  0  0  0  0  2  0  0  0  0  0  0
  161.7450  210.6640  153.8030 O   0  0  0  0  0  0  0  0  0  0  0  0
  159.4730  211.0680  153.5990 N   0  0  0  0  0  1  0  0  0  0  0  0
  162.4460  210.4550  150.0310 C   0  0  0  0  0  2  0  0  0  0  0  0
  161.4700  211.5990  149.8490 C   0  0  0  0  0  2  0  0  0  0  0  0
  161.6960  212.2340  148.4950 C   0  0  0  0  0  2  0  0  0  0  0  0
  160.7650  211.7370  147.5810 O   0  0  0  0  0  0  0  0  0  0  0  0
  161.0240  214.0250  146.9820 C   0  0  0  0  0  1  0  0  0  0  0  0
  160.0630  212.8610  147.1420 C   0  0  1  0  0  3  0  0  0  0  0  0
  159.3890  212.5510  145.8140 C   0  0  0  0  0  2  0  0  0  0  0  0
  157.4770  212.6880  147.4120 C   0  0  0  0  0  1  0  0  0  0  0  0
  157.8750  212.4990  145.9610 C   0  0  0  0  0  2  0  0  0  0  0  0
  160.9440  207.8550  149.4140 C   0  0  0  0  0  2  0  0  0  0  0  0
  161.5870  207.0380  148.3000 C   0  0  0  0  0  2  0  0  0  0  0  0
  160.6470  205.9290  147.8490 C   0  0  0  0  0  2  0  0  0  0  0  0
  160.9510  205.5100  146.4860 N   0  0  0  0  0  0  0  0  0  0  0  0
  161.8580  203.9290  145.0210 O   0  0  0  0  0  0  0  0  0  0  0  0
  161.6010  204.2560  146.2100 C   0  0  0  0  0  0  0  0  0  0  0  0
  160.4450  206.3260  145.3940 C   0  0  0  0  0  1  0  0  0  0  0  0
  161.9920  203.3270  147.3140 C   0  0  0  0  0  2  0  0  0  0  0  0
  160.9660  202.2130  147.4820 C   0  0  1  0  0  3  0  0  0  0  0  0
  160.6970  201.5410  146.1470 C   0  0  0  0  0  1  0  0  0  0  0  0
  161.3800  201.1920  148.5450 C   0  0  0  0  0  2  0  0  0  0  0  0
  160.4680  201.2190  149.7640 C   0  0  0  0  0  2  0  0  0  0  0  0
  159.1400  201.2780  149.3480 O   0  0  0  0  0  1  0  0  0  0  0  0
  2  1  1  6  0  0  0
  2 11  1  0  0  0  0
  4  6  1  1  0  0  0
  4  3  1  0  0  0  0
  5  2  1  6  0  0  0
  5  4  1  0  0  0  0
  5  3  1  0  0  0  0
  7  8  1  0  0  0  0
  8 10  1  0  0  0  0
  8  6  1  0  0  0  0
  9  8  1  0  0  0  0
 11 16  1  6  0  0  0
 11 13  1  0  0  0  0
 12 15  1  0  0  0  0
 12 14  2  0  0  0  0
 13 12  1  0  0  0  0
 17 16  1  0  0  0  0
 18 17  1  0  0  0  0
 19 18  1  0  0  0  0
 21 20  1  6  0  0  0
 21 19  1  0  0  0  0
 22 24  1  0  0  0  0
 22 21  1  0  0  0  0
 24 23  1  0  0  0  0
 25  2  1  0  0  0  0
 26 25  1  0  0  0  0
 27 26  1  0  0  0  0
 28 27  1  0  0  0  0
 29 30  2  0  0  0  0
 30 28  1  0  0  0  0
 30 32  1  0  0  0  0
 31 28  1  0  0  0  0
 32 33  1  0  0  0  0
 33 34  1  6  0  0  0
 33 35  1  0  0  0  0
 35 36  1  0  0  0  0
 37 36  1  0  0  0  0
M  END
>  <MODEL>
1

>  <REMARK>
 VINA RESULT:      -6.3      0.000      0.000
  Name = 
  20 active torsions:
  status: ('A' for Active; 'I' for Inactive)
    1  A    between atoms: C_1  and  N_5
    2  A    between atoms: C_1  and  C_36
    3  A    between atoms: C_6  and  O_8
    4  A    between atoms: C_6  and  C_31
    5  A    between atoms: C_7  and  C_33
    6  A    between atoms: O_8  and  C_19
    7  A    between atoms: C_10  and  C_14
    8  A    between atoms: C_10  and  C_20
    9  A    between atoms: C_10  and  N_22
   10  A    between atoms: C_11  and  C_26
   11  A    between atoms: C_11  and  C_33
   12  A    between atoms: C_14  and  C_31
   13  A    between atoms: C_16  and  C_30
   14  A    between atoms: C_17  and  C_26
   15  A    between atoms: C_18  and  C_19
   16  A    between atoms: C_18  and  C_35
   17  A    between atoms: C_20  and  C_24
   18  A    between atoms: C_20  and  C_29
   19  A    between atoms: C_21  and  C_30
   20  A    between atoms: C_29  and  C_36
                            x       y       z     vdW  Elec       q    Type
                         _______ _______ _______ _____ _____    ______ ____

>  <TORSDO>
F 20

$$$$
=
 OpenBabel11062409233D

 37 37  0  0  1  0  0  0  0  0999 V2000
  163.1260  207.2800  150.4160 O   0  0  0  0  0  1  0  0  0  0  0  0
  161.8910  207.9500  150.4130 C   0  0  1  0  0  0  0  0  0  0  0  0
  160.5010  206.3240  149.2440 O   0  0  0  0  0  0  0  0  0  0  0  0
  161.6250  206.4400  148.4010 C   0  0  2  0  0  3  0  0  0  0  0  0
  161.0820  207.6030  149.1460 C   0  0  2  0  0  3  0  0  0  0  0  0
  161.1630  206.5150  146.9590 C   0  0  0  0  0  2  0  0  0  0  0  0
  162.6120  204.6440  146.9190 F   0  0  0  0  0  0  0  0  0  0  0  0
  161.8550  205.4630  146.1040 C   0  0  0  0  0  0  0  0  0  0  0  0
  162.6860  206.0740  145.1830 F   0  0  0  0  0  0  0  0  0  0  0  0
  160.9150  204.6950  145.4410 F   0  0  0  0  0  0  0  0  0  0  0  0
  161.0740  207.4900  151.6410 C   0  0  2  0  0  3  0  0  0  0  0  0
  160.8380  208.6880  153.9180 C   0  0  0  0  0  0  0  0  0  0  0  0
  160.6490  208.6010  152.5020 N   0  0  0  0  0  2  0  0  0  0  0  0
  161.3370  207.7300  154.5640 O   0  0  0  0  0  0  0  0  0  0  0  0
  160.4380  209.8650  154.6060 N   0  0  0  0  0  1  0  0  0  0  0  0
  161.7080  206.3440  152.4280 C   0  0  0  0  0  2  0  0  0  0  0  0
  160.7560  205.1690  152.5280 C   0  0  0  0  0  2  0  0  0  0  0  0
  161.3530  203.9820  151.8040 C   0  0  0  0  0  2  0  0  0  0  0  0
  160.4400  203.4990  150.8630 O   0  0  0  0  0  0  0  0  0  0  0  0
  160.9940  201.2140  150.4950 C   0  0  0  0  0  1  0  0  0  0  0  0
  161.1900  202.6510  150.0450 C   0  0  1  0  0  3  0  0  0  0  0  0
  160.7430  202.8140  148.6010 C   0  0  0  0  0  2  0  0  0  0  0  0
  160.8320  201.6190  146.4120 C   0  0  0  0  0  1  0  0  0  0  0  0
  160.6150  201.4670  147.9050 C   0  0  0  0  0  2  0  0  0  0  0  0
  162.1300  209.4670  150.3970 C   0  0  0  0  0  2  0  0  0  0  0  0
  162.1590  210.0630  148.9940 C   0  0  0  0  0  2  0  0  0  0  0  0
  161.7450  211.5270  149.0340 C   0  0  0  0  0  2  0  0  0  0  0  0
  162.2050  212.2310  147.8430 N   0  0  0  0  0  0  0  0  0  0  0  0
  161.7190  213.2650  145.8020 O   0  0  0  0  0  0  0  0  0  0  0  0
  161.2880  212.6670  146.8240 C   0  0  0  0  0  0  0  0  0  0  0  0
  163.6050  212.6170  147.7780 C   0  0  0  0  0  1  0  0  0  0  0  0
  159.8190  212.4160  146.9450 C   0  0  0  0  0  2  0  0  0  0  0  0
  159.0210  213.6880  146.6830 C   0  0  1  0  0  3  0  0  0  0  0  0
  158.2780  213.5780  145.3630 C   0  0  0  0  0  1  0  0  0  0  0  0
  158.0680  214.0280  147.8310 C   0  0  0  0  0  2  0  0  0  0  0  0
  158.6940  213.7890  149.1980 C   0  0  0  0  0  2  0  0  0  0  0  0
  157.7850  213.1190  150.0130 O   0  0  0  0  0  1  0  0  0  0  0  0
  2  1  1  6  0  0  0
  2 11  1  0  0  0  0
  4  6  1  6  0  0  0
  4  5  1  0  0  0  0
  4  3  1  0  0  0  0
  5  3  1  0  0  0  0
  5  2  1  1  0  0  0
  8  7  1  0  0  0  0
  8  6  1  0  0  0  0
  9  8  1  0  0  0  0
 10  8  1  0  0  0  0
 11 16  1  1  0  0  0
 11 13  1  0  0  0  0
 12 14  2  0  0  0  0
 12 15  1  0  0  0  0
 13 12  1  0  0  0  0
 16 17  1  0  0  0  0
 18 17  1  0  0  0  0
 19 18  1  0  0  0  0
 21 20  1  1  0  0  0
 21 19  1  0  0  0  0
 22 21  1  0  0  0  0
 23 24  1  0  0  0  0
 24 22  1  0  0  0  0
 25  2  1  0  0  0  0
 26 27  1  0  0  0  0
 26 25  1  0  0  0  0
 28 27  1  0  0  0  0
 29 30  2  0  0  0  0
 30 32  1  0  0  0  0
 30 28  1  0  0  0  0
 31 28  1  0  0  0  0
 33 34  1  6  0  0  0
 33 32  1  0  0  0  0
 33 35  1  0  0  0  0
 35 36  1  0  0  0  0
 36 37  1  0  0  0  0
M  END
>  <MODEL>
2

>  <REMARK>
 VINA RESULT:      -6.3      2.451      7.927
  Name = 
  20 active torsions:
  status: ('A' for Active; 'I' for Inactive)
    1  A    between atoms: C_1  and  N_5
    2  A    between atoms: C_1  and  C_36
    3  A    between atoms: C_6  and  O_8
    4  A    between atoms: C_6  and  C_31
    5  A    between atoms: C_7  and  C_33
    6  A    between atoms: O_8  and  C_19
    7  A    between atoms: C_10  and  C_14
    8  A    between atoms: C_10  and  C_20
    9  A    between atoms: C_10  and  N_22
   10  A    between atoms: C_11  and  C_26
   11  A    between atoms: C_11  and  C_33
   12  A    between atoms: C_14  and  C_31
   13  A    between atoms: C_16  and  C_30
   14  A    between atoms: C_17  and  C_26
   15  A    between atoms: C_18  and  C_19
   16  A    between atoms: C_18  and  C_35
   17  A    between atoms: C_20  and  C_24
   18  A    between atoms: C_20  and  C_29
   19  A    between atoms: C_21  and  C_30
   20  A    between atoms: C_29  and  C_36
                            x       y       z     vdW  Elec       q    Type
                         _______ _______ _______ _____ _____    ______ ____

>  <TORSDO>
F 20

$$$$
=
 OpenBabel11062409233D

 37 37  0  0  1  0  0  0  0  0999 V2000
  160.0360  205.9110  151.6790 O   0  0  0  0  0  1  0  0  0  0  0  0
  161.4260  205.7590  151.5480 C   0  0  1  0  0  0  0  0  0  0  0  0
  161.7130  204.1290  149.7570 O   0  0  0  0  0  0  0  0  0  0  0  0
  160.6610  203.5800  150.5180 C   0  0  2  0  0  3  0  0  0  0  0  0
  161.7850  204.3120  151.1520 C   0  0  2  0  0  3  0  0  0  0  0  0
  160.8880  202.0890  150.6780 C   0  0  0  0  0  2  0  0  0  0  0  0
  161.2050  200.3630  149.0900 F   0  0  0  0  0  0  0  0  0  0  0  0
  160.2940  201.3130  149.5110 C   0  0  0  0  0  0  0  0  0  0  0  0
  160.0220  202.1720  148.4620 F   0  0  0  0  0  0  0  0  0  0  0  0
  159.1300  200.6780  149.9040 F   0  0  0  0  0  0  0  0  0  0  0  0
  161.9240  206.6980  150.4250 C   0  0  2  0  0  3  0  0  0  0  0  0
  161.9170  209.0510  151.4900 C   0  0  0  0  0  0  0  0  0  0  0  0
  162.5770  207.9100  150.9320 N   0  0  0  0  0  2  0  0  0  0  0  0
  160.6610  209.1270  151.5080 O   0  0  0  0  0  0  0  0  0  0  0  0
  162.6920  210.1230  152.0100 N   0  0  0  0  0  1  0  0  0  0  0  0
  160.8850  206.9950  149.3440 C   0  0  0  0  0  2  0  0  0  0  0  0
  161.5480  207.5400  148.0960 C   0  0  0  0  0  2  0  0  0  0  0  0
  162.0090  206.3860  147.2330 C   0  0  0  0  0  2  0  0  0  0  0  0
  161.2060  206.3010  146.0940 O   0  0  0  0  0  0  0  0  0  0  0  0
  163.0640  204.8180  145.9880 C   0  0  0  0  0  1  0  0  0  0  0  0
  161.8800  205.4170  145.2500 C   0  0  1  0  0  3  0  0  0  0  0  0
  160.9290  204.3170  144.8030 C   0  0  0  0  0  2  0  0  0  0  0  0
  160.2370  201.9370  145.0920 C   0  0  0  0  0  1  0  0  0  0  0  0
  161.1640  203.0320  145.5840 C   0  0  0  0  0  2  0  0  0  0  0  0
  162.1030  206.0420  152.8970 C   0  0  0  0  0  2  0  0  0  0  0  0
  161.1220  206.4130  154.0030 C   0  0  0  0  0  2  0  0  0  0  0  0
  161.5210  207.7360  154.6400 C   0  0  0  0  0  2  0  0  0  0  0  0
  160.5930  208.1030  155.7020 N   0  0  0  0  0  0  0  0  0  0  0  0
  159.2370  209.7120  156.7260 O   0  0  0  0  0  0  0  0  0  0  0  0
  160.0300  209.4250  155.7890 C   0  0  0  0  0  0  0  0  0  0  0  0
  160.1280  207.0530  156.5940 C   0  0  0  0  0  1  0  0  0  0  0  0
  160.3750  210.4800  154.7880 C   0  0  0  0  0  2  0  0  0  0  0  0
  159.2630  211.5160  154.6770 C   0  0  1  0  0  3  0  0  0  0  0  0
  159.7070  212.8310  155.2950 C   0  0  0  0  0  1  0  0  0  0  0  0
  158.7870  211.7120  153.2360 C   0  0  0  0  0  2  0  0  0  0  0  0
  159.8070  212.4510  152.3810 C   0  0  0  0  0  2  0  0  0  0  0  0
  159.1940  212.9020  151.2140 O   0  0  0  0  0  1  0  0  0  0  0  0
  2  1  1  1  0  0  0
  2 25  1  0  0  0  0
  3  4  1  0  0  0  0
  3  5  1  0  0  0  0
  4  6  1  1  0  0  0
  4  5  1  0  0  0  0
  5  2  1  6  0  0  0
  7  8  1  0  0  0  0
  8 10  1  0  0  0  0
  8  6  1  0  0  0  0
  9  8  1  0  0  0  0
 11 16  1  1  0  0  0
 11 13  1  0  0  0  0
 11  2  1  0  0  0  0
 12 14  2  0  0  0  0
 12 15  1  0  0  0  0
 13 12  1  0  0  0  0
 17 16  1  0  0  0  0
 18 17  1  0  0  0  0
 19 18  1  0  0  0  0
 21 20  1  1  0  0  0
 21 19  1  0  0  0  0
 22 21  1  0  0  0  0
 22 24  1  0  0  0  0
 23 24  1  0  0  0  0
 25 26  1  0  0  0  0
 26 27  1  0  0  0  0
 27 28  1  0  0  0  0
 28 30  1  0  0  0  0
 28 31  1  0  0  0  0
 30 29  2  0  0  0  0
 32 30  1  0  0  0  0
 33 32  1  0  0  0  0
 33 34  1  6  0  0  0
 35 33  1  0  0  0  0
 36 35  1  0  0  0  0
 37 36  1  0  0  0  0
M  END
>  <MODEL>
3

>  <REMARK>
 VINA RESULT:      -6.2      3.223      7.749
  Name = 
  20 active torsions:
  status: ('A' for Active; 'I' for Inactive)
    1  A    between atoms: C_1  and  N_5
    2  A    between atoms: C_1  and  C_36
    3  A    between atoms: C_6  and  O_8
    4  A    between atoms: C_6  and  C_31
    5  A    between atoms: C_7  and  C_33
    6  A    between atoms: O_8  and  C_19
    7  A    between atoms: C_10  and  C_14
    8  A    between atoms: C_10  and  C_20
    9  A    between atoms: C_10  and  N_22
   10  A    between atoms: C_11  and  C_26
   11  A    between atoms: C_11  and  C_33
   12  A    between atoms: C_14  and  C_31
   13  A    between atoms: C_16  and  C_30
   14  A    between atoms: C_17  and  C_26
   15  A    between atoms: C_18  and  C_19
   16  A    between atoms: C_18  and  C_35
   17  A    between atoms: C_20  and  C_24
   18  A    between atoms: C_20  and  C_29
   19  A    between atoms: C_21  and  C_30
   20  A    between atoms: C_29  and  C_36
                            x       y       z     vdW  Elec       q    Type
                         _______ _______ _______ _____ _____    ______ ____

>  <TORSDO>
F 20

$$$$
=
 OpenBabel11062409233D

 37 37  0  0  1  0  0  0  0  0999 V2000
  163.0540  207.6790  150.3850 O   0  0  0  0  0  1  0  0  0  0  0  0
  161.7050  207.7430  149.9990 C   0  0  1  0  0  0  0  0  0  0  0  0
  162.7340  209.1370  148.2840 O   0  0  0  0  0  0  0  0  0  0  0  0
  162.1480  210.0830  149.1500 C   0  0  2  0  0  3  0  0  0  0  0  0
  161.5060  208.7750  148.8710 C   0  0  2  0  0  3  0  0  0  0  0  0
  161.4640  211.1570  148.3250 C   0  0  0  0  0  2  0  0  0  0  0  0
  163.6100  212.0940  148.6720 F   0  0  0  0  0  0  0  0  0  0  0  0
  162.3570  212.3790  148.1640 C   0  0  0  0  0  0  0  0  0  0  0  0
  161.8240  213.4500  148.8580 F   0  0  0  0  0  0  0  0  0  0  0  0
  162.4770  212.7080  146.8270 F   0  0  0  0  0  0  0  0  0  0  0  0
  161.2780  206.3590  149.4600 C   0  0  2  0  0  3  0  0  0  0  0  0
  161.2040  206.2200  146.8810 C   0  0  0  0  0  0  0  0  0  0  0  0
  160.5980  206.4290  148.1610 N   0  0  0  0  0  2  0  0  0  0  0  0
  162.4440  206.0320  146.7750 O   0  0  0  0  0  0  0  0  0  0  0  0
  160.3970  206.2470  145.7110 N   0  0  0  0  0  1  0  0  0  0  0  0
  160.5290  205.4910  150.4710 C   0  0  0  0  0  2  0  0  0  0  0  0
  161.4720  204.5130  151.1420 C   0  0  0  0  0  2  0  0  0  0  0  0
  160.9850  203.1020  150.8930 C   0  0  0  0  0  2  0  0  0  0  0  0
  160.4040  203.0230  149.6250 O   0  0  0  0  0  0  0  0  0  0  0  0
  161.0670  200.8270  148.9880 C   0  0  0  0  0  1  0  0  0  0  0  0
  161.3310  202.3160  148.8550 C   0  0  1  0  0  3  0  0  0  0  0  0
  161.2100  202.7430  147.4000 C   0  0  0  0  0  2  0  0  0  0  0  0
  160.3080  202.1050  145.1620 C   0  0  0  0  0  1  0  0  0  0  0  0
  160.7360  201.5920  146.5240 C   0  0  0  0  0  2  0  0  0  0  0  0
  160.8510  208.2010  151.1900 C   0  0  0  0  0  2  0  0  0  0  0  0
  161.6460  208.3590  152.4820 C   0  0  0  0  0  2  0  0  0  0  0  0
  160.7970  207.9450  153.6760 C   0  0  0  0  0  2  0  0  0  0  0  0
  160.9750  208.8720  154.7870 N   0  0  0  0  0  0  0  0  0  0  0  0
  160.5190  210.9440  155.7730 O   0  0  0  0  0  0  0  0  0  0  0  0
  160.3370  210.1630  154.8010 C   0  0  0  0  0  0  0  0  0  0  0  0
  161.6950  208.4020  155.9590 C   0  0  0  0  0  1  0  0  0  0  0  0
  159.4640  210.6070  153.6720 C   0  0  0  0  0  2  0  0  0  0  0  0
  159.7210  212.0670  153.3210 C   0  0  1  0  0  3  0  0  0  0  0  0
  160.2290  212.1820  151.8940 C   0  0  0  0  0  1  0  0  0  0  0  0
  158.4900  212.9490  153.5460 C   0  0  0  0  0  2  0  0  0  0  0  0
  158.7000  213.9680  154.6570 C   0  0  0  0  0  2  0  0  0  0  0  0
  157.7760  213.7400  155.6750 O   0  0  0  0  0  1  0  0  0  0  0  0
  2  1  1  1  0  0  0
  2 25  1  0  0  0  0
  3  5  1  0  0  0  0
  3  4  1  0  0  0  0
  4  6  1  6  0  0  0
  5  4  1  0  0  0  0
  5  2  1  1  0  0  0
  8  6  1  0  0  0  0
  8  7  1  0  0  0  0
  8  9  1  0  0  0  0
 10  8  1  0  0  0  0
 11  2  1  0  0  0  0
 11 16  1  1  0  0  0
 12 13  1  0  0  0  0
 13 11  1  0  0  0  0
 14 12  2  0  0  0  0
 15 12  1  0  0  0  0
 16 17  1  0  0  0  0
 18 17  1  0  0  0  0
 19 18  1  0  0  0  0
 21 20  1  6  0  0  0
 21 19  1  0  0  0  0
 22 21  1  0  0  0  0
 23 24  1  0  0  0  0
 24 22  1  0  0  0  0
 25 26  1  0  0  0  0
 26 27  1  0  0  0  0
 27 28  1  0  0  0  0
 28 30  1  0  0  0  0
 28 31  1  0  0  0  0
 30 29  2  0  0  0  0
 32 30  1  0  0  0  0
 33 34  1  6  0  0  0
 33 35  1  0  0  0  0
 33 32  1  0  0  0  0
 35 36  1  0  0  0  0
 36 37  1  0  0  0  0
M  END
>  <MODEL>
4

>  <REMARK>
 VINA RESULT:      -6.2      3.422      9.231
  Name = 
  20 active torsions:
  status: ('A' for Active; 'I' for Inactive)
    1  A    between atoms: C_1  and  N_5
    2  A    between atoms: C_1  and  C_36
    3  A    between atoms: C_6  and  O_8
    4  A    between atoms: C_6  and  C_31
    5  A    between atoms: C_7  and  C_33
    6  A    between atoms: O_8  and  C_19
    7  A    between atoms: C_10  and  C_14
    8  A    between atoms: C_10  and  C_20
    9  A    between atoms: C_10  and  N_22
   10  A    between atoms: C_11  and  C_26
   11  A    between atoms: C_11  and  C_33
   12  A    between atoms: C_14  and  C_31
   13  A    between atoms: C_16  and  C_30
   14  A    between atoms: C_17  and  C_26
   15  A    between atoms: C_18  and  C_19
   16  A    between atoms: C_18  and  C_35
   17  A    between atoms: C_20  and  C_24
   18  A    between atoms: C_20  and  C_29
   19  A    between atoms: C_21  and  C_30
   20  A    between atoms: C_29  and  C_36
                            x       y       z     vdW  Elec       q    Type
                         _______ _______ _______ _____ _____    ______ ____

>  <TORSDO>
F 20

$$$$
=
 OpenBabel11062409233D

 37 37  0  0  1  0  0  0  0  0999 V2000
  163.1320  207.5710  149.8240 O   0  0  0  0  0  1  0  0  0  0  0  0
  161.7780  207.9140  149.9710 C   0  0  1  0  0  0  0  0  0  0  0  0
  162.0020  207.4680  152.3580 O   0  0  0  0  0  0  0  0  0  0  0  0
  162.0280  206.1770  151.7930 C   0  0  2  0  0  3  0  0  0  0  0  0
  161.1800  207.2590  151.2330 C   0  0  2  0  0  3  0  0  0  0  0  0
  161.1630  205.2500  152.6260 C   0  0  0  0  0  2  0  0  0  0  0  0
  162.1540  203.4760  151.4120 F   0  0  0  0  0  0  0  0  0  0  0  0
  160.9480  203.9190  151.9220 C   0  0  0  0  0  0  0  0  0  0  0  0
  160.0490  204.0720  150.8820 F   0  0  0  0  0  0  0  0  0  0  0  0
  160.4660  202.9800  152.8160 F   0  0  0  0  0  0  0  0  0  0  0  0
  161.6700  209.4470  150.1340 C   0  0  2  0  0  3  0  0  0  0  0  0
  162.2130  211.4870  148.6440 C   0  0  0  0  0  0  0  0  0  0  0  0
  162.4990  210.1900  149.1770 N   0  0  0  0  0  2  0  0  0  0  0  0
  161.1320  212.0730  148.9130 O   0  0  0  0  0  0  0  0  0  0  0  0
  163.1530  212.1130  147.7820 N   0  0  0  0  0  1  0  0  0  0  0  0
  161.8380  209.9430  151.5700 C   0  0  0  0  0  2  0  0  0  0  0  0
  160.8360  211.0360  151.8820 C   0  0  0  0  0  2  0  0  0  0  0  0
  160.4800  210.9790  153.3510 C   0  0  0  0  0  2  0  0  0  0  0  0
  160.1290  209.6730  153.6990 O   0  0  0  0  0  0  0  0  0  0  0  0
  159.0710  210.3520  155.7200 C   0  0  0  0  0  1  0  0  0  0  0  0
  160.2490  209.6310  155.0900 C   0  0  1  0  0  3  0  0  0  0  0  0
  160.2860  208.1830  155.5530 C   0  0  0  0  0  2  0  0  0  0  0  0
  162.1660  209.0530  156.9440 C   0  0  0  0  0  1  0  0  0  0  0  0
  161.6170  207.8460  156.2090 C   0  0  0  0  0  2  0  0  0  0  0  0
  160.9810  207.3910  148.7670 C   0  0  0  0  0  2  0  0  0  0  0  0
  161.2680  205.9300  148.4390 C   0  0  0  0  0  2  0  0  0  0  0  0
  162.0920  205.8290  147.1620 C   0  0  0  0  0  2  0  0  0  0  0  0
  161.2510  205.4670  146.0280 N   0  0  0  0  0  0  0  0  0  0  0  0
  160.4140  203.8290  144.5820 O   0  0  0  0  0  0  0  0  0  0  0  0
  161.1430  204.1060  145.5720 C   0  0  0  0  0  0  0  0  0  0  0  0
  160.4000  206.4980  145.4540 C   0  0  0  0  0  1  0  0  0  0  0  0
  161.8920  203.0030  146.2480 C   0  0  0  0  0  2  0  0  0  0  0  0
  160.9490  202.1030  147.0370 C   0  0  1  0  0  3  0  0  0  0  0  0
  161.1400  200.6530  146.6270 C   0  0  0  0  0  1  0  0  0  0  0  0
  161.1030  202.2770  148.5500 C   0  0  0  0  0  2  0  0  0  0  0  0
  161.0730  200.9500  149.2950 C   0  0  0  0  0  2  0  0  0  0  0  0
  160.0150  200.9510  150.2010 O   0  0  0  0  0  1  0  0  0  0  0  0
  2  1  1  6  0  0  0
  2 11  1  0  0  0  0
  4  3  1  0  0  0  0
  4  6  1  1  0  0  0
  5  2  1  6  0  0  0
  5  4  1  0  0  0  0
  5  3  1  0  0  0  0
  7  8  1  0  0  0  0
  8  6  1  0  0  0  0
  8 10  1  0  0  0  0
  9  8  1  0  0  0  0
 11 16  1  1  0  0  0
 12 14  2  0  0  0  0
 12 13  1  0  0  0  0
 13 11  1  0  0  0  0
 15 12  1  0  0  0  0
 16 17  1  0  0  0  0
 17 18  1  0  0  0  0
 18 19  1  0  0  0  0
 19 21  1  0  0  0  0
 21 22  1  0  0  0  0
 21 20  1  1  0  0  0
 22 24  1  0  0  0  0
 24 23  1  0  0  0  0
 25  2  1  0  0  0  0
 26 25  1  0  0  0  0
 27 26  1  0  0  0  0
 28 27  1  0  0  0  0
 29 30  2  0  0  0  0
 30 28  1  0  0  0  0
 30 32  1  0  0  0  0
 31 28  1  0  0  0  0
 32 33  1  0  0  0  0
 33 34  1  1  0  0  0
 33 35  1  0  0  0  0
 35 36  1  0  0  0  0
 36 37  1  0  0  0  0
M  END
>  <MODEL>
5

>  <REMARK>
 VINA RESULT:      -6.1      2.028      4.502
  Name = 
  20 active torsions:
  status: ('A' for Active; 'I' for Inactive)
    1  A    between atoms: C_1  and  N_5
    2  A    between atoms: C_1  and  C_36
    3  A    between atoms: C_6  and  O_8
    4  A    between atoms: C_6  and  C_31
    5  A    between atoms: C_7  and  C_33
    6  A    between atoms: O_8  and  C_19
    7  A    between atoms: C_10  and  C_14
    8  A    between atoms: C_10  and  C_20
    9  A    between atoms: C_10  and  N_22
   10  A    between atoms: C_11  and  C_26
   11  A    between atoms: C_11  and  C_33
   12  A    between atoms: C_14  and  C_31
   13  A    between atoms: C_16  and  C_30
   14  A    between atoms: C_17  and  C_26
   15  A    between atoms: C_18  and  C_19
   16  A    between atoms: C_18  and  C_35
   17  A    between atoms: C_20  and  C_24
   18  A    between atoms: C_20  and  C_29
   19  A    between atoms: C_21  and  C_30
   20  A    between atoms: C_29  and  C_36
                            x       y       z     vdW  Elec       q    Type
                         _______ _______ _______ _____ _____    ______ ____

>  <TORSDO>
F 20

$$$$
=
 OpenBabel11062409233D

 37 37  0  0  1  0  0  0  0  0999 V2000
  163.1130  207.1040  150.0260 O   0  0  0  0  0  1  0  0  0  0  0  0
  161.8350  207.6860  150.0060 C   0  0  1  0  0  0  0  0  0  0  0  0
  160.2160  206.4370  148.6790 O   0  0  0  0  0  0  0  0  0  0  0  0
  161.4370  206.1530  148.0340 C   0  0  2  0  0  3  0  0  0  0  0  0
  161.1600  207.4820  148.6350 C   0  0  2  0  0  3  0  0  0  0  0  0
  161.2400  206.2370  146.5330 C   0  0  0  0  0  2  0  0  0  0  0  0
  162.9450  205.9910  144.9090 F   0  0  0  0  0  0  0  0  0  0  0  0
  162.1690  205.2770  145.8030 C   0  0  0  0  0  0  0  0  0  0  0  0
  161.4290  204.3400  145.1070 F   0  0  0  0  0  0  0  0  0  0  0  0
  162.9970  204.6360  146.7060 F   0  0  0  0  0  0  0  0  0  0  0  0
  160.9590  206.9960  151.0760 C   0  0  2  0  0  3  0  0  0  0  0  0
  160.9940  207.6550  153.5740 C   0  0  0  0  0  0  0  0  0  0  0  0
  160.6290  207.8720  152.2070 N   0  0  0  0  0  2  0  0  0  0  0  0
  161.5840  206.6010  153.9270 O   0  0  0  0  0  0  0  0  0  0  0  0
  160.6670  208.6350  154.5500 N   0  0  0  0  0  1  0  0  0  0  0  0
  161.4700  205.6260  151.5210 C   0  0  0  0  0  2  0  0  0  0  0  0
  160.3690  204.5880  151.4350 C   0  0  0  0  0  2  0  0  0  0  0  0
  160.9530  203.2840  150.9370 C   0  0  0  0  0  2  0  0  0  0  0  0
  161.4850  203.4650  149.6590 O   0  0  0  0  0  0  0  0  0  0  0  0
  160.4490  201.3350  149.8920 C   0  0  0  0  0  1  0  0  0  0  0  0
  161.3150  202.2320  149.0260 C   0  0  1  0  0  3  0  0  0  0  0  0
  160.6600  202.4450  147.6700 C   0  0  0  0  0  2  0  0  0  0  0  0
  160.1650  201.4320  145.4440 C   0  0  0  0  0  1  0  0  0  0  0  0
  160.9840  201.3060  146.7140 C   0  0  0  0  0  2  0  0  0  0  0  0
  161.9570  209.2010  150.2310 C   0  0  0  0  0  2  0  0  0  0  0  0
  161.9270  210.0100  148.9390 C   0  0  0  0  0  2  0  0  0  0  0  0
  162.1720  211.4830  149.2350 C   0  0  0  0  0  2  0  0  0  0  0  0
  161.1150  212.3110  148.6680 N   0  0  0  0  0  0  0  0  0  0  0  0
  159.3250  213.7850  148.9800 O   0  0  0  0  0  0  0  0  0  0  0  0
  160.2350  213.0870  149.5020 C   0  0  0  0  0  0  0  0  0  0  0  0
  161.0620  212.4540  147.2220 C   0  0  0  0  0  1  0  0  0  0  0  0
  160.3710  213.0760  150.9910 C   0  0  0  0  0  2  0  0  0  0  0  0
  159.0430  212.7420  151.6600 C   0  0  1  0  0  3  0  0  0  0  0  0
  159.1840  211.4910  152.5110 C   0  0  0  0  0  1  0  0  0  0  0  0
  158.4890  213.9110  152.4780 C   0  0  0  0  0  2  0  0  0  0  0  0
  156.9760  214.0310  152.3710 C   0  0  0  0  0  2  0  0  0  0  0  0
  156.3870  213.4970  153.5150 O   0  0  0  0  0  1  0  0  0  0  0  0
  2  1  1  6  0  0  0
  2 25  1  0  0  0  0
  2 11  1  0  0  0  0
  4  6  1  6  0  0  0
  4  5  1  0  0  0  0
  4  3  1  0  0  0  0
  5  3  1  0  0  0  0
  5  2  1  1  0  0  0
  7  8  1  0  0  0  0
  8  6  1  0  0  0  0
  8 10  1  0  0  0  0
  9  8  1  0  0  0  0
 11 16  1  1  0  0  0
 11 13  1  0  0  0  0
 12 14  2  0  0  0  0
 12 15  1  0  0  0  0
 13 12  1  0  0  0  0
 17 16  1  0  0  0  0
 18 17  1  0  0  0  0
 19 18  1  0  0  0  0
 21 19  1  0  0  0  0
 21 20  1  1  0  0  0
 22 21  1  0  0  0  0
 23 24  1  0  0  0  0
 24 22  1  0  0  0  0
 26 27  1  0  0  0  0
 26 25  1  0  0  0  0
 28 27  1  0  0  0  0
 28 30  1  0  0  0  0
 29 30  2  0  0  0  0
 30 32  1  0  0  0  0
 31 28  1  0  0  0  0
 32 33  1  0  0  0  0
 33 35  1  0  0  0  0
 33 34  1  1  0  0  0
 36 35  1  0  0  0  0
 36 37  1  0  0  0  0
M  END
>  <MODEL>
6

>  <REMARK>
 VINA RESULT:      -6.0      2.813      8.225
  Name = 
  20 active torsions:
  status: ('A' for Active; 'I' for Inactive)
    1  A    between atoms: C_1  and  N_5
    2  A    between atoms: C_1  and  C_36
    3  A    between atoms: C_6  and  O_8
    4  A    between atoms: C_6  and  C_31
    5  A    between atoms: C_7  and  C_33
    6  A    between atoms: O_8  and  C_19
    7  A    between atoms: C_10  and  C_14
    8  A    between atoms: C_10  and  C_20
    9  A    between atoms: C_10  and  N_22
   10  A    between atoms: C_11  and  C_26
   11  A    between atoms: C_11  and  C_33
   12  A    between atoms: C_14  and  C_31
   13  A    between atoms: C_16  and  C_30
   14  A    between atoms: C_17  and  C_26
   15  A    between atoms: C_18  and  C_19
   16  A    between atoms: C_18  and  C_35
   17  A    between atoms: C_20  and  C_24
   18  A    between atoms: C_20  and  C_29
   19  A    between atoms: C_21  and  C_30
   20  A    between atoms: C_29  and  C_36
                            x       y       z     vdW  Elec       q    Type
                         _______ _______ _______ _____ _____    ______ ____

>  <TORSDO>
F 20

$$$$
=
 OpenBabel11062409233D

 37 37  0  0  1  0  0  0  0  0999 V2000
  162.9070  207.4160  151.0380 O   0  0  0  0  0  1  0  0  0  0  0  0
  161.5370  207.1740  151.2320 C   0  0  1  0  0  0  0  0  0  0  0  0
  161.9400  205.8300  149.2380 O   0  0  0  0  0  0  0  0  0  0  0  0
  161.3450  206.9960  148.7160 C   0  0  2  0  0  3  0  0  0  0  0  0
  160.9350  206.4270  150.0240 C   0  0  2  0  0  3  0  0  0  0  0  0
  160.3240  206.6070  147.6640 C   0  0  0  0  0  2  0  0  0  0  0  0
  160.9560  204.8330  146.2310 F   0  0  0  0  0  0  0  0  0  0  0  0
  161.0010  206.2080  146.3610 C   0  0  0  0  0  0  0  0  0  0  0  0
  162.3220  206.6160  146.3700 F   0  0  0  0  0  0  0  0  0  0  0  0
  160.3450  206.7830  145.2880 F   0  0  0  0  0  0  0  0  0  0  0  0
  161.3640  206.2790  152.4800 C   0  0  2  0  0  3  0  0  0  0  0  0
  161.0360  207.2110  154.8670 C   0  0  0  0  0  0  0  0  0  0  0  0
  161.8340  206.9150  153.7170 N   0  0  0  0  0  2  0  0  0  0  0  0
  159.7940  207.0080  154.8630 O   0  0  0  0  0  0  0  0  0  0  0  0
  161.6520  207.7610  156.0240 N   0  0  0  0  0  1  0  0  0  0  0  0
  161.8890  204.8540  152.3130 C   0  0  0  0  0  2  0  0  0  0  0  0
  160.8010  203.8410  152.6100 C   0  0  0  0  0  2  0  0  0  0  0  0
  160.9180  202.6870  151.6390 C   0  0  0  0  0  2  0  0  0  0  0  0
  161.0310  203.1780  150.3370 O   0  0  0  0  0  0  0  0  0  0  0  0
  159.9980  201.0940  149.8320 C   0  0  0  0  0  1  0  0  0  0  0  0
  161.1490  202.0390  149.5380 C   0  0  1  0  0  3  0  0  0  0  0  0
  161.1340  202.4450  148.0720 C   0  0  0  0  0  2  0  0  0  0  0  0
  160.5490  201.6840  145.7680 C   0  0  0  0  0  1  0  0  0  0  0  0
  160.9360  201.2390  147.1660 C   0  0  0  0  0  2  0  0  0  0  0  0
  160.7920  208.5110  151.3550 C   0  0  0  0  0  2  0  0  0  0  0  0
  161.6420  209.6270  151.9510 C   0  0  0  0  0  2  0  0  0  0  0  0
  160.7590  210.7910  152.3780 C   0  0  0  0  0  2  0  0  0  0  0  0
  160.8030  210.9740  153.8240 N   0  0  0  0  0  0  0  0  0  0  0  0
  159.6850  211.3810  155.8380 O   0  0  0  0  0  0  0  0  0  0  0  0
  159.6100  211.2170  154.5910 C   0  0  0  0  0  0  0  0  0  0  0  0
  162.0720  210.7550  154.5000 C   0  0  0  0  0  1  0  0  0  0  0  0
  158.2700  211.2930  153.9320 C   0  0  0  0  0  2  0  0  0  0  0  0
  157.5310  212.5640  154.3360 C   0  0  1  0  0  3  0  0  0  0  0  0
  157.5280  213.5570  153.1870 C   0  0  0  0  0  1  0  0  0  0  0  0
  156.1110  212.2830  154.8320 C   0  0  0  0  0  2  0  0  0  0  0  0
  155.9940  210.9350  155.5290 C   0  0  0  0  0  2  0  0  0  0  0  0
  155.0620  210.1460  154.8590 O   0  0  0  0  0  1  0  0  0  0  0  0
  2  1  1  6  0  0  0
  2 25  1  0  0  0  0
  2 11  1  0  0  0  0
  3  5  1  0  0  0  0
  4  6  1  6  0  0  0
  4  3  1  0  0  0  0
  4  5  1  0  0  0  0
  5  2  1  1  0  0  0
  7  8  1  0  0  0  0
  8  9  1  0  0  0  0
  8  6  1  0  0  0  0
 10  8  1  0  0  0  0
 11 16  1  6  0  0  0
 11 13  1  0  0  0  0
 12 15  1  0  0  0  0
 13 12  1  0  0  0  0
 14 12  2  0  0  0  0
 16 17  1  0  0  0  0
 18 17  1  0  0  0  0
 19 18  1  0  0  0  0
 21 20  1  6  0  0  0
 21 19  1  0  0  0  0
 22 21  1  0  0  0  0
 23 24  1  0  0  0  0
 24 22  1  0  0  0  0
 25 26  1  0  0  0  0
 26 27  1  0  0  0  0
 27 28  1  0  0  0  0
 28 31  1  0  0  0  0
 28 30  1  0  0  0  0
 30 29  2  0  0  0  0
 32 33  1  0  0  0  0
 32 30  1  0  0  0  0
 33 34  1  6  0  0  0
 33 35  1  0  0  0  0
 35 36  1  0  0  0  0
 37 36  1  0  0  0  0
M  END
>  <MODEL>
7

>  <REMARK>
 VINA RESULT:      -5.9      3.605      8.703
  Name = 
  20 active torsions:
  status: ('A' for Active; 'I' for Inactive)
    1  A    between atoms: C_1  and  N_5
    2  A    between atoms: C_1  and  C_36
    3  A    between atoms: C_6  and  O_8
    4  A    between atoms: C_6  and  C_31
    5  A    between atoms: C_7  and  C_33
    6  A    between atoms: O_8  and  C_19
    7  A    between atoms: C_10  and  C_14
    8  A    between atoms: C_10  and  C_20
    9  A    between atoms: C_10  and  N_22
   10  A    between atoms: C_11  and  C_26
   11  A    between atoms: C_11  and  C_33
   12  A    between atoms: C_14  and  C_31
   13  A    between atoms: C_16  and  C_30
   14  A    between atoms: C_17  and  C_26
   15  A    between atoms: C_18  and  C_19
   16  A    between atoms: C_18  and  C_35
   17  A    between atoms: C_20  and  C_24
   18  A    between atoms: C_20  and  C_29
   19  A    between atoms: C_21  and  C_30
   20  A    between atoms: C_29  and  C_36
                            x       y       z     vdW  Elec       q    Type
                         _______ _______ _______ _____ _____    ______ ____

>  <TORSDO>
F 20

$$$$
=
 OpenBabel11062409233D

 37 37  0  0  1  0  0  0  0  0999 V2000
  163.2760  208.0250  148.7930 O   0  0  0  0  0  1  0  0  0  0  0  0
  161.9040  208.2440  149.0000 C   0  0  1  0  0  0  0  0  0  0  0  0
  161.7160  205.9280  148.2620 O   0  0  0  0  0  0  0  0  0  0  0  0
  161.7120  206.6450  147.0490 C   0  0  2  0  0  3  0  0  0  0  0  0
  161.0620  207.1750  148.2730 C   0  0  2  0  0  3  0  0  0  0  0  0
  160.6500  206.0700  146.1320 C   0  0  0  0  0  2  0  0  0  0  0  0
  160.5630  204.0510  144.9010 F   0  0  0  0  0  0  0  0  0  0  0  0
  161.2730  205.2290  145.0280 C   0  0  0  0  0  0  0  0  0  0  0  0
  162.5860  204.9310  145.3430 F   0  0  0  0  0  0  0  0  0  0  0  0
  161.2290  205.9130  143.8270 F   0  0  0  0  0  0  0  0  0  0  0  0
  161.6070  208.1370  150.5130 C   0  0  2  0  0  3  0  0  0  0  0  0
  160.8770  209.8600  152.2940 C   0  0  0  0  0  0  0  0  0  0  0  0
  161.7080  209.4230  151.2140 N   0  0  0  0  0  2  0  0  0  0  0  0
  159.9000  209.1660  152.6800 O   0  0  0  0  0  0  0  0  0  0  0  0
  161.1450  211.1040  152.9250 N   0  0  0  0  0  1  0  0  0  0  0  0
  162.3620  207.0150  151.2260 C   0  0  0  0  0  2  0  0  0  0  0  0
  161.4840  206.3570  152.2710 C   0  0  0  0  0  2  0  0  0  0  0  0
  161.5310  204.8560  152.0860 C   0  0  0  0  0  2  0  0  0  0  0  0
  160.7000  204.4880  151.0260 O   0  0  0  0  0  0  0  0  0  0  0  0
  161.2400  202.2350  151.5710 C   0  0  0  0  0  1  0  0  0  0  0  0
  161.2740  203.3230  150.5130 C   0  0  1  0  0  3  0  0  0  0  0  0
  160.5040  202.8790  149.2780 C   0  0  0  0  0  2  0  0  0  0  0  0
  161.3060  200.7460  148.2600 C   0  0  0  0  0  1  0  0  0  0  0  0
  160.3350  201.3670  149.2460 C   0  0  0  0  0  2  0  0  0  0  0  0
  161.5080  209.6080  148.4150 C   0  0  0  0  0  2  0  0  0  0  0  0
  162.2980  210.7720  149.0020 C   0  0  0  0  0  2  0  0  0  0  0  0
  162.3590  211.9220  148.0060 C   0  0  0  0  0  2  0  0  0  0  0  0
  161.1620  212.7500  148.0930 N   0  0  0  0  0  0  0  0  0  0  0  0
  159.3080  213.7250  147.0520 O   0  0  0  0  0  0  0  0  0  0  0  0
  160.3310  212.9970  146.9450 C   0  0  0  0  0  0  0  0  0  0  0  0
  160.7400  213.2020  149.4090 C   0  0  0  0  0  1  0  0  0  0  0  0
  160.6620  212.4120  145.6090 C   0  0  0  0  0  2  0  0  0  0  0  0
  161.2620  213.4640  144.6840 C   0  0  1  0  0  3  0  0  0  0  0  0
  162.7750  213.3270  144.6440 C   0  0  0  0  0  1  0  0  0  0  0  0
  160.6630  213.4150  143.2760 C   0  0  0  0  0  2  0  0  0  0  0  0
  161.6520  212.9000  142.2400 C   0  0  0  0  0  2  0  0  0  0  0  0
  161.3640  211.5680  141.9480 O   0  0  0  0  0  1  0  0  0  0  0  0
  2  1  1  6  0  0  0
  2 11  1  0  0  0  0
  3  5  1  0  0  0  0
  4  6  1  6  0  0  0
  4  3  1  0  0  0  0
  4  5  1  0  0  0  0
  5  2  1  1  0  0  0
  7  8  1  0  0  0  0
  8  9  1  0  0  0  0
  8  6  1  0  0  0  0
 10  8  1  0  0  0  0
 11 13  1  0  0  0  0
 11 16  1  1  0  0  0
 12 14  2  0  0  0  0
 12 15  1  0  0  0  0
 13 12  1  0  0  0  0
 16 17  1  0  0  0  0
 18 17  1  0  0  0  0
 19 18  1  0  0  0  0
 21 19  1  0  0  0  0
 21 20  1  1  0  0  0
 22 21  1  0  0  0  0
 23 24  1  0  0  0  0
 24 22  1  0  0  0  0
 25  2  1  0  0  0  0
 25 26  1  0  0  0  0
 27 28  1  0  0  0  0
 27 26  1  0  0  0  0
 28 31  1  0  0  0  0
 30 29  2  0  0  0  0
 30 28  1  0  0  0  0
 32 30  1  0  0  0  0
 33 34  1  6  0  0  0
 33 32  1  0  0  0  0
 35 33  1  0  0  0  0
 36 35  1  0  0  0  0
 37 36  1  0  0  0  0
M  END
>  <MODEL>
8

>  <REMARK>
 VINA RESULT:      -5.8      2.841      8.180
  Name = 
  20 active torsions:
  status: ('A' for Active; 'I' for Inactive)
    1  A    between atoms: C_1  and  N_5
    2  A    between atoms: C_1  and  C_36
    3  A    between atoms: C_6  and  O_8
    4  A    between atoms: C_6  and  C_31
    5  A    between atoms: C_7  and  C_33
    6  A    between atoms: O_8  and  C_19
    7  A    between atoms: C_10  and  C_14
    8  A    between atoms: C_10  and  C_20
    9  A    between atoms: C_10  and  N_22
   10  A    between atoms: C_11  and  C_26
   11  A    between atoms: C_11  and  C_33
   12  A    between atoms: C_14  and  C_31
   13  A    between atoms: C_16  and  C_30
   14  A    between atoms: C_17  and  C_26
   15  A    between atoms: C_18  and  C_19
   16  A    between atoms: C_18  and  C_35
   17  A    between atoms: C_20  and  C_24
   18  A    between atoms: C_20  and  C_29
   19  A    between atoms: C_21  and  C_30
   20  A    between atoms: C_29  and  C_36
                            x       y       z     vdW  Elec       q    Type
                         _______ _______ _______ _____ _____    ______ ____

>  <TORSDO>
F 20

$$$$
=
 OpenBabel11062409233D

 37 37  0  0  1  0  0  0  0  0999 V2000
  163.1120  207.0270  151.0030 O   0  0  0  0  0  1  0  0  0  0  0  0
  161.9150  207.7600  151.0210 C   0  0  1  0  0  0  0  0  0  0  0  0
  161.1280  208.4500  153.2240 O   0  0  0  0  0  0  0  0  0  0  0  0
  160.6200  209.4570  152.3790 C   0  0  2  0  0  3  0  0  0  0  0  0
  161.9410  208.8250  152.1360 C   0  0  2  0  0  3  0  0  0  0  0  0
  160.8290  210.8090  153.0320 C   0  0  0  0  0  2  0  0  0  0  0  0
  159.6500  212.6270  153.9840 F   0  0  0  0  0  0  0  0  0  0  0  0
  159.5410  211.6190  153.0460 C   0  0  0  0  0  0  0  0  0  0  0  0
  158.4740  210.8050  153.3820 F   0  0  0  0  0  0  0  0  0  0  0  0
  159.3190  212.1820  151.8020 F   0  0  0  0  0  0  0  0  0  0  0  0
  161.7600  208.4900  149.6680 C   0  0  2  0  0  3  0  0  0  0  0  0
  161.6350  206.8790  147.6530 C   0  0  0  0  0  0  0  0  0  0  0  0
  162.3410  207.7500  148.5420 N   0  0  0  0  0  2  0  0  0  0  0  0
  160.4190  206.6130  147.8380 O   0  0  0  0  0  0  0  0  0  0  0  0
  162.3230  206.2890  146.5570 N   0  0  0  0  0  1  0  0  0  0  0  0
  162.1830  209.9590  149.6910 C   0  0  0  0  0  2  0  0  0  0  0  0
  161.9260  210.6130  148.3490 C   0  0  0  0  0  2  0  0  0  0  0  0
  162.1820  212.1000  148.4640 C   0  0  0  0  0  2  0  0  0  0  0  0
  161.0740  212.7240  149.0430 O   0  0  0  0  0  0  0  0  0  0  0  0
  162.4580  214.2610  147.8650 C   0  0  0  0  0  1  0  0  0  0  0  0
  161.1710  214.0580  148.6450 C   0  0  1  0  0  3  0  0  0  0  0  0
  159.9720  214.4180  147.7810 C   0  0  0  0  0  2  0  0  0  0  0  0
  159.6610  212.9660  145.7750 C   0  0  0  0  0  1  0  0  0  0  0  0
  160.2840  214.2450  146.3010 C   0  0  0  0  0  2  0  0  0  0  0  0
  160.7400  206.8170  151.3220 C   0  0  0  0  0  2  0  0  0  0  0  0
  161.1700  205.3820  151.6020 C   0  0  0  0  0  2  0  0  0  0  0  0
  160.7230  204.4680  150.4690 C   0  0  0  0  0  2  0  0  0  0  0  0
  161.0420  203.0760  150.7670 N   0  0  0  0  0  0  0  0  0  0  0  0
  161.1040  200.8360  150.0970 O   0  0  0  0  0  0  0  0  0  0  0  0
  160.8260  202.0300  149.8040 C   0  0  0  0  0  0  0  0  0  0  0  0
  161.7290  202.7880  152.0160 C   0  0  0  0  0  1  0  0  0  0  0  0
  160.2620  202.3270  148.4520 C   0  0  0  0  0  2  0  0  0  0  0  0
  161.2670  201.9980  147.3540 C   0  0  1  0  0  3  0  0  0  0  0  0
  160.8180  200.7690  146.5830 C   0  0  0  0  0  1  0  0  0  0  0  0
  161.5190  203.1810  146.4160 C   0  0  0  0  0  2  0  0  0  0  0  0
  160.8280  203.0130  145.0700 C   0  0  0  0  0  2  0  0  0  0  0  0
  160.5220  204.2680  144.5480 O   0  0  0  0  0  1  0  0  0  0  0  0
  2  1  1  1  0  0  0
  2 25  1  0  0  0  0
  4  6  1  1  0  0  0
  4  3  1  0  0  0  0
  5  2  1  6  0  0  0
  5  4  1  0  0  0  0
  5  3  1  0  0  0  0
  6  8  1  0  0  0  0
  8  9  1  0  0  0  0
  8  7  1  0  0  0  0
 10  8  1  0  0  0  0
 11 16  1  1  0  0  0
 11  2  1  0  0  0  0
 12 14  2  0  0  0  0
 12 13  1  0  0  0  0
 13 11  1  0  0  0  0
 15 12  1  0  0  0  0
 17 18  1  0  0  0  0
 17 16  1  0  0  0  0
 18 19  1  0  0  0  0
 21 20  1  6  0  0  0
 21 19  1  0  0  0  0
 22 21  1  0  0  0  0
 23 24  1  0  0  0  0
 24 22  1  0  0  0  0
 25 26  1  0  0  0  0
 27 28  1  0  0  0  0
 27 26  1  0  0  0  0
 28 31  1  0  0  0  0
 30 29  2  0  0  0  0
 30 28  1  0  0  0  0
 32 30  1  0  0  0  0
 33 34  1  6  0  0  0
 33 32  1  0  0  0  0
 35 33  1  0  0  0  0
 36 35  1  0  0  0  0
 37 36  1  0  0  0  0
M  END
>  <MODEL>
9

>  <REMARK>
 VINA RESULT:      -5.7      2.925      4.740
  Name = 
  20 active torsions:
  status: ('A' for Active; 'I' for Inactive)
    1  A    between atoms: C_1  and  N_5
    2  A    between atoms: C_1  and  C_36
    3  A    between atoms: C_6  and  O_8
    4  A    between atoms: C_6  and  C_31
    5  A    between atoms: C_7  and  C_33
    6  A    between atoms: O_8  and  C_19
    7  A    between atoms: C_10  and  C_14
    8  A    between atoms: C_10  and  C_20
    9  A    between atoms: C_10  and  N_22
   10  A    between atoms: C_11  and  C_26
   11  A    between atoms: C_11  and  C_33
   12  A    between atoms: C_14  and  C_31
   13  A    between atoms: C_16  and  C_30
   14  A    between atoms: C_17  and  C_26
   15  A    between atoms: C_18  and  C_19
   16  A    between atoms: C_18  and  C_35
   17  A    between atoms: C_20  and  C_24
   18  A    between atoms: C_20  and  C_29
   19  A    between atoms: C_21  and  C_30
   20  A    between atoms: C_29  and  C_36
                            x       y       z     vdW  Elec       q    Type
                         _______ _______ _______ _____ _____    ______ ____

>  <TORSDO>
F 20

$$$$
