=
 OpenBabel11062408073D

 34 40  0  0  1  0  0  0  0  0999 V2000
  161.2770  202.9180  150.6410 C   0  0  2  0  0  3  0  0  0  0  0  0
  161.5490  203.6010  148.3280 C   0  0  2  0  0  3  0  0  0  0  0  0
  160.7780  205.3990  150.0030 C   0  0  1  0  0  3  0  0  0  0  0  0
  162.9500  206.6300  150.2340 O   0  0  0  0  0  0  0  0  0  0  0  0
  161.4070  201.1710  148.8210 C   0  0  0  0  0  2  0  0  0  0  0  0
  161.0920  202.2580  147.7800 C   0  0  0  0  0  2  0  0  0  0  0  0
  162.3630  205.8840  147.9400 C   0  0  1  0  0  3  0  0  0  0  0  0
  160.7590  203.9060  149.5960 C   0  0  2  0  0  3  0  0  0  0  0  0
  160.1140  207.2830  147.7820 C   0  0  0  0  0  1  0  0  0  0  0  0
  160.8450  201.5120  150.2150 C   0  0  0  0  0  2  0  0  0  0  0  0
  160.6070  205.6860  151.5070 C   0  0  2  0  0  3  0  0  0  0  0  0
  160.7900  203.2580  152.0360 C   0  0  0  0  0  2  0  0  0  0  0  0
  161.5190  204.7500  147.3400 C   0  0  0  0  0  2  0  0  0  0  0  0
  162.4420  207.5070  151.2270 C   0  0  0  0  0  2  0  0  0  0  0  0
  161.0620  207.1210  151.8150 C   0  0  2  0  0  3  0  0  0  0  0  0
  161.5750  207.1700  148.2150 C   0  0  1  0  0  0  0  0  0  0  0  0
  161.9070  206.2360  149.3730 C   0  0  1  0  0  0  0  0  0  0  0  0
  161.3000  204.6460  152.3890 C   0  0  0  0  0  2  0  0  0  0  0  0
  160.6930  209.3160  154.8820 C   0  0  0  0  0  0  0  0  0  0  0  0
  160.5090  208.3670  155.8930 C   0  0  0  0  0  3  0  0  0  0  0  0
  160.8820  207.5390  153.2430 C   0  0  0  0  0  0  0  0  0  0  0  0
  160.5080  207.0050  155.5820 C   0  0  0  0  0  3  0  0  0  0  0  0
  160.8760  208.9020  153.5590 C   0  0  0  0  0  3  0  0  0  0  0  0
  160.6910  206.5900  154.2590 C   0  0  0  0  0  3  0  0  0  0  0  0
  160.6930  210.6360  155.1840 F   0  0  0  0  0  0  0  0  0  0  0  0
  161.8480  209.5210  148.4040 C   0  0  0  0  0  3  0  0  0  0  0  0
  162.3710  208.3730  148.1690 N   0  0  0  0  0  0  0  0  0  0  0  0
  162.6930  210.7490  148.3500 C   0  0  0  0  0  2  0  0  0  0  0  0
  161.8460  211.9900  148.6010 C   0  0  0  0  0  3  0  0  0  0  0  0
  160.5320  211.9010  147.8210 C   0  0  0  0  0  2  0  0  0  0  0  0
  161.3100  213.5240  146.2260 O   0  0  0  0  0  0  0  0  0  0  0  0
  162.6270  213.4550  146.7140 C   0  0  0  0  0  2  0  0  0  0  0  0
  162.6100  213.2700  148.2330 C   0  0  0  0  0  2  0  0  0  0  0  0
  160.7710  212.2320  146.3450 C   0  0  0  0  0  2  0  0  0  0  0  0
  1 10  1  6  0  0  0
  1 12  1  0  0  0  0
  2 13  1  6  0  0  0
  2  8  1  0  0  0  0
  3 11  1  0  0  0  0
  4 14  1  0  0  0  0
  5 10  1  0  0  0  0
  6  2  1  0  0  0  0
  6  5  1  0  0  0  0
  7 16  1  0  0  0  0
  7 17  1  0  0  0  0
  8  3  1  0  0  0  0
  8  1  1  0  0  0  0
  9 16  1  0  0  0  0
 11 15  1  0  0  0  0
 11 18  1  0  0  0  0
 12 18  1  0  0  0  0
 13  7  1  0  0  0  0
 14 15  1  0  0  0  0
 15 21  1  0  0  0  0
 16 17  1  0  0  0  0
 17  3  1  0  0  0  0
 17  4  1  0  0  0  0
 19 25  1  0  0  0  0
 19 20  1  0  0  0  0
 21 23  1  0  0  0  0
 21 24  2  0  0  0  0
 22 20  2  0  0  0  0
 23 19  2  0  0  0  0
 24 22  1  0  0  0  0
 27 16  1  0  0  0  0
 27 26  2  0  0  0  0
 28 26  1  0  0  0  0
 28 29  1  0  0  0  0
 30 29  1  0  0  0  0
 31 34  1  0  0  0  0
 31 32  1  0  0  0  0
 32 33  1  0  0  0  0
 33 29  1  0  0  0  0
 34 30  1  0  0  0  0
M  END
>  <MODEL>
1

>  <REMARK>
 VINA RESULT:      -9.1      0.000      0.000
  Name = 
  4 active torsions:
  status: ('A' for Active; 'I' for Inactive)
    1  A    between atoms: C_3  and  C_13
    2  A    between atoms: C_11  and  C_13
    3  A    between atoms: C_12  and  C_28
    4  A    between atoms: N_17  and  C_29
                            x       y       z     vdW  Elec       q    Type
                         _______ _______ _______ _____ _____    ______ ____

>  <TORSDO>
F 4

$$$$
=
 OpenBabel11062408073D

 34 40  0  0  1  0  0  0  0  0999 V2000
  161.6000  209.2650  153.8390 C   0  0  2  0  0  3  0  0  0  0  0  0
  161.2340  206.8650  153.8060 C   0  0  2  0  0  3  0  0  0  0  0  0
  160.9470  208.1310  151.5810 C   0  0  1  0  0  3  0  0  0  0  0  0
  163.1010  207.4430  150.4970 O   0  0  0  0  0  0  0  0  0  0  0  0
  161.2300  208.0190  156.0060 C   0  0  0  0  0  2  0  0  0  0  0  0
  160.6440  206.8410  155.2070 C   0  0  0  0  0  2  0  0  0  0  0  0
  161.9120  205.6740  151.7690 C   0  0  1  0  0  3  0  0  0  0  0  0
  160.8180  208.1640  153.1230 C   0  0  2  0  0  3  0  0  0  0  0  0
  159.7060  205.7360  150.2980 C   0  0  0  0  0  1  0  0  0  0  0  0
  161.0680  209.3640  155.2720 C   0  0  0  0  0  2  0  0  0  0  0  0
  161.1920  209.4910  150.9000 C   0  0  2  0  0  3  0  0  0  0  0  0
  161.5100  210.5920  153.1120 C   0  0  0  0  0  2  0  0  0  0  0  0
  160.9370  205.6460  152.9550 C   0  0  0  0  0  2  0  0  0  0  0  0
  162.8830  208.2580  149.3560 C   0  0  0  0  0  2  0  0  0  0  0  0
  161.7130  209.2680  149.4720 C   0  0  2  0  0  3  0  0  0  0  0  0
  161.2290  205.7860  150.4010 C   0  0  1  0  0  0  0  0  0  0  0  0
  161.8630  207.0260  151.0230 C   0  0  1  0  0  0  0  0  0  0  0  0
  162.0980  210.4090  151.7220 C   0  0  0  0  0  2  0  0  0  0  0  0
  161.0240  212.2740  147.2700 C   0  0  0  0  0  0  0  0  0  0  0  0
  162.2760  212.8960  147.2320 C   0  0  0  0  0  3  0  0  0  0  0  0
  161.9290  210.5250  148.6840 C   0  0  0  0  0  0  0  0  0  0  0  0
  163.3550  212.3370  147.9230 C   0  0  0  0  0  3  0  0  0  0  0  0
  160.8510  211.0930  147.9960 C   0  0  0  0  0  3  0  0  0  0  0  0
  163.1830  211.1550  148.6500 C   0  0  0  0  0  3  0  0  0  0  0  0
  159.9780  212.8170  146.6010 F   0  0  0  0  0  0  0  0  0  0  0  0
  161.4000  204.5500  148.3820 C   0  0  0  0  0  3  0  0  0  0  0  0
  161.9830  205.2090  149.3150 N   0  0  0  0  0  0  0  0  0  0  0  0
  162.2020  203.9640  147.2690 C   0  0  0  0  0  2  0  0  0  0  0  0
  162.6230  205.0500  146.2870 C   0  0  0  0  0  3  0  0  0  0  0  0
  161.8690  206.3500  146.5790 C   0  0  0  0  0  2  0  0  0  0  0  0
  160.4660  206.0290  144.6530 O   0  0  0  0  0  0  0  0  0  0  0  0
  160.9100  204.7070  144.4790 C   0  0  0  0  0  2  0  0  0  0  0  0
  162.3960  204.6060  144.8350 C   0  0  0  0  0  2  0  0  0  0  0  0
  160.4400  206.2650  146.0380 C   0  0  0  0  0  2  0  0  0  0  0  0
  1 12  1  6  0  0  0
  1 10  1  0  0  0  0
  2 13  1  6  0  0  0
  2  6  1  0  0  0  0
  3  8  1  0  0  0  0
  4 17  1  0  0  0  0
  6  5  1  0  0  0  0
  7 13  1  0  0  0  0
  8  2  1  0  0  0  0
  8  1  1  0  0  0  0
  9 16  1  0  0  0  0
 10  5  1  0  0  0  0
 11  3  1  0  0  0  0
 11 18  1  0  0  0  0
 14 15  1  0  0  0  0
 14  4  1  0  0  0  0
 15 11  1  0  0  0  0
 16 17  1  0  0  0  0
 16  7  1  0  0  0  0
 17  3  1  0  0  0  0
 17  7  1  0  0  0  0
 18 12  1  0  0  0  0
 19 23  1  0  0  0  0
 20 19  2  0  0  0  0
 20 22  1  0  0  0  0
 21 15  1  0  0  0  0
 22 24  2  0  0  0  0
 23 21  2  0  0  0  0
 24 21  1  0  0  0  0
 25 19  1  0  0  0  0
 26 27  2  0  0  0  0
 27 16  1  0  0  0  0
 28 26  1  0  0  0  0
 29 30  1  0  0  0  0
 29 28  1  0  0  0  0
 31 34  1  0  0  0  0
 32 31  1  0  0  0  0
 32 33  1  0  0  0  0
 33 29  1  0  0  0  0
 34 30  1  0  0  0  0
M  END
>  <MODEL>
2

>  <REMARK>
 VINA RESULT:      -6.4      2.564      6.607
  Name = 
  4 active torsions:
  status: ('A' for Active; 'I' for Inactive)
    1  A    between atoms: C_3  and  C_13
    2  A    between atoms: C_11  and  C_13
    3  A    between atoms: C_12  and  C_28
    4  A    between atoms: N_17  and  C_29
                            x       y       z     vdW  Elec       q    Type
                         _______ _______ _______ _____ _____    ______ ____

>  <TORSDO>
F 4

$$$$
