=
 OpenBabel11062409543D

 43 49  0  0  1  0  0  0  0  0999 V2000
  161.2100  204.6050  146.6440 C   0  0  1  0  0  3  0  0  0  0  0  0
  161.3170  207.7940  150.6790 C   0  0  0  0  0  0  0  0  0  0  0  0
  162.0930  210.2420  149.6680 C   0  0  0  0  0  0  0  0  0  0  0  0
  161.2280  205.5740  148.9700 C   0  0  0  0  0  0  0  0  0  0  0  0
  161.8860  205.8810  146.2180 C   0  0  0  0  0  3  0  0  0  0  0  0
  161.8320  203.5110  146.0440 O   0  0  0  0  0  1  0  0  0  0  0  0
  161.6130  206.8250  148.4630 C   0  0  0  0  0  0  0  0  0  0  0  0
  161.2060  204.4410  148.0980 N   0  0  0  0  0  2  0  0  0  0  0  0
  162.0310  206.9170  147.0500 C   0  0  0  0  0  3  0  0  0  0  0  0
  162.0410  209.1590  148.8480 N   0  0  0  0  0  0  0  0  0  0  0  0
  161.6620  207.9410  149.3170 C   0  0  0  0  0  0  0  0  0  0  0  0
  160.9420  206.5360  151.1720 C   0  0  0  0  0  3  0  0  0  0  0  0
  161.3710  208.9240  151.5080 C   0  0  0  0  0  0  0  0  0  0  0  0
  161.7520  210.1190  150.9790 N   0  0  0  0  0  0  0  0  0  0  0  0
  160.9030  205.4290  150.3210 C   0  0  0  0  0  3  0  0  0  0  0  0
  162.4840  211.5700  149.1130 C   0  0  2  0  0  3  0  0  0  0  0  0
  161.3310  212.1860  148.4190 C   0  0  2  0  0  3  0  0  0  0  0  0
  162.3700  211.5600  147.7100 O   0  0  0  0  0  0  0  0  0  0  0  0
  161.5120  213.6890  148.3580 C   0  0  1  0  0  3  0  0  0  0  0  0
  162.7870  213.9830  147.8740 O   0  0  0  0  0  1  0  0  0  0  0  0
  160.4650  214.2830  147.4320 C   0  0  0  0  0  2  0  0  0  0  0  0
  159.6200  213.2220  146.8810 N   0  0  0  0  0  0  0  0  0  0  0  0
  157.9370  214.3640  145.5970 C   0  0  0  0  0  2  0  0  0  0  0  0
  159.9970  213.1060  145.4740 C   0  0  0  0  0  2  0  0  0  0  0  0
  158.1910  213.5910  146.8770 C   0  0  1  0  0  0  0  0  0  0  0  0
  157.3650  212.3090  146.8480 C   0  0  0  0  0  1  0  0  0  0  0  0
  159.0090  213.9040  144.6390 C   0  0  0  0  0  2  0  0  0  0  0  0
  157.7740  214.4060  148.1170 C   0  0  0  0  0  2  0  0  0  0  0  0
  157.1800  213.5600  149.1440 N   0  0  0  0  0  0  0  0  0  0  0  0
  157.6960  214.0260  152.5880 O   0  0  0  0  0  0  0  0  0  0  0  0
  155.8900  214.3030  151.0770 C   0  0  0  0  0  2  0  0  0  0  0  0
  157.2690  213.9720  151.4470 C   0  0  0  0  0  0  0  0  0  0  0  0
  155.9290  214.2090  149.5610 C   0  0  0  0  0  2  0  0  0  0  0  0
  158.0870  213.5760  150.2880 C   0  0  0  0  0  2  0  0  0  0  0  0
  161.0270  208.8110  152.8990 N   0  0  0  0  0  2  0  0  0  0  0  0
  159.3910  211.7160  154.6340 C   0  0  0  0  0  3  0  0  0  0  0  0
  160.3110  211.9510  155.6610 C   0  0  0  0  0  0  0  0  0  0  0  0
  161.6800  210.1270  154.8450 C   0  0  0  0  0  3  0  0  0  0  0  0
  159.6140  210.6810  153.7210 C   0  0  0  0  0  3  0  0  0  0  0  0
  160.7590  209.8770  153.8210 C   0  0  0  0  0  0  0  0  0  0  0  0
  161.4610  211.1610  155.7610 C   0  0  0  0  0  3  0  0  0  0  0  0
  159.5730  214.1730  155.9430 O   0  0  0  0  0  1  0  0  0  0  0  0
  160.0890  213.0680  156.6190 C   0  0  0  0  0  2  0  0  0  0  0  0
  1  6  1  6  0  0  0
  1  8  1  0  0  0  0
  2 12  1  0  0  0  0
  2 13  1  0  0  0  0
  3 14  1  0  0  0  0
  4 15  1  0  0  0  0
  5  1  1  0  0  0  0
  5  9  2  0  0  0  0
  7  4  2  0  0  0  0
  7 11  1  0  0  0  0
  8  4  1  0  0  0  0
  9  7  1  0  0  0  0
 10 11  1  0  0  0  0
 10  3  2  0  0  0  0
 11  2  2  0  0  0  0
 13 35  1  0  0  0  0
 14 13  2  0  0  0  0
 15 12  2  0  0  0  0
 16  3  1  1  0  0  0
 17 19  1  6  0  0  0
 17 16  1  0  0  0  0
 18 17  1  0  0  0  0
 18 16  1  0  0  0  0
 19 20  1  6  0  0  0
 21 19  1  0  0  0  0
 22 21  1  0  0  0  0
 23 25  1  0  0  0  0
 24 22  1  0  0  0  0
 25 26  1  6  0  0  0
 25 22  1  0  0  0  0
 25 28  1  0  0  0  0
 27 24  1  0  0  0  0
 27 23  1  0  0  0  0
 28 29  1  0  0  0  0
 29 33  1  0  0  0  0
 29 34  1  0  0  0  0
 31 32  1  0  0  0  0
 32 30  2  0  0  0  0
 33 31  1  0  0  0  0
 34 32  1  0  0  0  0
 35 40  1  0  0  0  0
 36 37  1  0  0  0  0
 37 41  2  0  0  0  0
 37 43  1  0  0  0  0
 38 41  1  0  0  0  0
 39 40  1  0  0  0  0
 39 36  2  0  0  0  0
 40 38  2  0  0  0  0
 42 43  1  0  0  0  0
M  END
>  <MODEL>
1

>  <REMARK>
 VINA RESULT:      -8.3      0.000      0.000
  Name = 
  9 active torsions:
  status: ('A' for Active; 'I' for Inactive)
    1  A    between atoms: N_1  and  C_34
    2  A    between atoms: N_1  and  C_35
    3  A    between atoms: C_2  and  C_13
    4  A    between atoms: C_3  and  N_4
    5  A    between atoms: C_3  and  C_12
    6  A    between atoms: C_6  and  C_12
    7  A    between atoms: N_11  and  C_14
    8  A    between atoms: C_14  and  C_22
    9  A    between atoms: C_19  and  C_37
                            x       y       z     vdW  Elec       q    Type
                         _______ _______ _______ _____ _____    ______ ____

>  <TORSDO>
F 9

$$$$
=
 OpenBabel11062409543D

 43 49  0  0  1  0  0  0  0  0999 V2000
  160.8390  204.0520  148.6930 C   0  0  1  0  0  3  0  0  0  0  0  0
  161.6590  208.4480  151.2380 C   0  0  0  0  0  0  0  0  0  0  0  0
  162.0260  210.3710  149.2940 C   0  0  0  0  0  0  0  0  0  0  0  0
  161.3250  205.7720  150.4690 C   0  0  0  0  0  0  0  0  0  0  0  0
  161.3170  205.0850  147.7080 C   0  0  0  0  0  3  0  0  0  0  0  0
  161.3770  202.8050  148.3780 O   0  0  0  0  0  1  0  0  0  0  0  0
  161.5040  206.7590  149.4870 C   0  0  0  0  0  0  0  0  0  0  0  0
  161.1770  204.4070  150.0720 N   0  0  0  0  0  2  0  0  0  0  0  0
  161.5810  206.3430  148.0730 C   0  0  0  0  0  3  0  0  0  0  0  0
  161.8580  209.0710  148.9340 N   0  0  0  0  0  0  0  0  0  0  0  0
  161.6740  208.1020  149.8680 C   0  0  0  0  0  0  0  0  0  0  0  0
  161.4880  207.4490  152.2070 C   0  0  0  0  0  3  0  0  0  0  0  0
  161.8280  209.7940  151.5890 C   0  0  0  0  0  0  0  0  0  0  0  0
  162.0010  210.7210  150.6070 N   0  0  0  0  0  0  0  0  0  0  0  0
  161.3270  206.1150  151.8240 C   0  0  0  0  0  3  0  0  0  0  0  0
  162.1940  211.4140  148.2400 C   0  0  2  0  0  3  0  0  0  0  0  0
  160.9900  212.2720  148.1830 C   0  0  2  0  0  3  0  0  0  0  0  0
  161.2150  211.2530  147.2410 O   0  0  0  0  0  0  0  0  0  0  0  0
  161.3430  213.6120  147.5710 C   0  0  1  0  0  3  0  0  0  0  0  0
  162.4940  214.1130  148.1810 O   0  0  0  0  0  1  0  0  0  0  0  0
  161.5910  213.4350  146.0830 C   0  0  0  0  0  2  0  0  0  0  0  0
  160.6100  214.2040  145.3140 N   0  0  0  0  0  0  0  0  0  0  0  0
  158.9220  212.6120  144.6830 C   0  0  0  0  0  2  0  0  0  0  0  0
  159.4730  214.4010  146.2110 C   0  0  0  0  0  2  0  0  0  0  0  0
  160.0790  213.4450  144.1660 C   0  0  1  0  0  0  0  0  0  0  0  0
  159.5490  214.4380  143.1370 C   0  0  0  0  0  1  0  0  0  0  0  0
  158.4260  213.3430  145.9060 C   0  0  0  0  0  2  0  0  0  0  0  0
  161.1430  212.5630  143.4820 C   0  0  0  0  0  2  0  0  0  0  0  0
  160.9600  212.5200  142.0370 N   0  0  0  0  0  0  0  0  0  0  0  0
  163.4500  211.4730  139.7900 O   0  0  0  0  0  0  0  0  0  0  0  0
  161.3810  210.6160  140.5710 C   0  0  0  0  0  2  0  0  0  0  0  0
  162.4750  211.5900  140.5140 C   0  0  0  0  0  0  0  0  0  0  0  0
  160.5240  211.1580  141.7020 C   0  0  0  0  0  2  0  0  0  0  0  0
  162.2740  212.7220  141.4340 C   0  0  0  0  0  2  0  0  0  0  0  0
  161.8190  210.1820  152.9740 N   0  0  0  0  0  2  0  0  0  0  0  0
  159.5060  210.6100  155.9060 C   0  0  0  0  0  3  0  0  0  0  0  0
  158.4100  211.2110  155.2800 C   0  0  0  0  0  0  0  0  0  0  0  0
  159.5740  211.1140  153.1580 C   0  0  0  0  0  3  0  0  0  0  0  0
  160.6380  210.2700  155.1580 C   0  0  0  0  0  3  0  0  0  0  0  0
  160.6800  210.5230  153.7780 C   0  0  0  0  0  0  0  0  0  0  0  0
  158.4410  211.4560  153.9030 C   0  0  0  0  0  3  0  0  0  0  0  0
  156.0540  211.1500  155.3740 O   0  0  0  0  0  1  0  0  0  0  0  0
  157.1950  211.5500  156.0690 C   0  0  0  0  0  2  0  0  0  0  0  0
  1  6  1  6  0  0  0
  1  8  1  0  0  0  0
  2 13  1  0  0  0  0
  2 12  1  0  0  0  0
  3 14  1  0  0  0  0
  4 15  1  0  0  0  0
  5  9  2  0  0  0  0
  5  1  1  0  0  0  0
  7 11  1  0  0  0  0
  7  4  2  0  0  0  0
  8  4  1  0  0  0  0
  9  7  1  0  0  0  0
 10  3  2  0  0  0  0
 10 11  1  0  0  0  0
 11  2  2  0  0  0  0
 13 35  1  0  0  0  0
 14 13  2  0  0  0  0
 15 12  2  0  0  0  0
 16  3  1  1  0  0  0
 17 19  1  6  0  0  0
 17 16  1  0  0  0  0
 18 17  1  0  0  0  0
 18 16  1  0  0  0  0
 19 20  1  1  0  0  0
 21 19  1  0  0  0  0
 22 21  1  0  0  0  0
 22 24  1  0  0  0  0
 23 27  1  0  0  0  0
 25 26  1  6  0  0  0
 25 23  1  0  0  0  0
 25 22  1  0  0  0  0
 27 24  1  0  0  0  0
 28 25  1  0  0  0  0
 29 28  1  0  0  0  0
 30 32  2  0  0  0  0
 31 33  1  0  0  0  0
 32 31  1  0  0  0  0
 32 34  1  0  0  0  0
 33 29  1  0  0  0  0
 34 29  1  0  0  0  0
 35 40  1  0  0  0  0
 37 36  1  0  0  0  0
 37 43  1  0  0  0  0
 38 40  2  0  0  0  0
 38 41  1  0  0  0  0
 39 36  2  0  0  0  0
 40 39  1  0  0  0  0
 41 37  2  0  0  0  0
 42 43  1  0  0  0  0
M  END
>  <MODEL>
2

>  <REMARK>
 VINA RESULT:      -7.8      2.543      4.711
  Name = 
  9 active torsions:
  status: ('A' for Active; 'I' for Inactive)
    1  A    between atoms: N_1  and  C_34
    2  A    between atoms: N_1  and  C_35
    3  A    between atoms: C_2  and  C_13
    4  A    between atoms: C_3  and  N_4
    5  A    between atoms: C_3  and  C_12
    6  A    between atoms: C_6  and  C_12
    7  A    between atoms: N_11  and  C_14
    8  A    between atoms: C_14  and  C_22
    9  A    between atoms: C_19  and  C_37
                            x       y       z     vdW  Elec       q    Type
                         _______ _______ _______ _____ _____    ______ ____

>  <TORSDO>
F 9

$$$$
=
 OpenBabel11062409543D

 43 49  0  0  1  0  0  0  0  0999 V2000
  161.5970  203.3570  147.3360 C   0  0  1  0  0  3  0  0  0  0  0  0
  161.8990  207.6920  150.0910 C   0  0  0  0  0  0  0  0  0  0  0  0
  160.9110  207.0540  152.5870 C   0  0  0  0  0  0  0  0  0  0  0  0
  161.8450  205.7570  148.0620 C   0  0  0  0  0  0  0  0  0  0  0  0
  160.8260  203.1590  148.6150 C   0  0  0  0  0  3  0  0  0  0  0  0
  160.9420  202.7270  146.2790 O   0  0  0  0  0  1  0  0  0  0  0  0
  161.3530  205.4390  149.3380 C   0  0  0  0  0  0  0  0  0  0  0  0
  161.7960  204.7730  147.0270 N   0  0  0  0  0  2  0  0  0  0  0  0
  160.7530  204.1080  149.5520 C   0  0  0  0  0  3  0  0  0  0  0  0
  160.8950  206.1230  151.5960 N   0  0  0  0  0  0  0  0  0  0  0  0
  161.3750  206.4070  150.3580 C   0  0  0  0  0  0  0  0  0  0  0  0
  162.3790  207.9970  148.8090 C   0  0  0  0  0  3  0  0  0  0  0  0
  161.9120  208.6370  151.1260 C   0  0  0  0  0  0  0  0  0  0  0  0
  161.4230  208.2910  152.3490 N   0  0  0  0  0  0  0  0  0  0  0  0
  162.3480  207.0340  147.7980 C   0  0  0  0  0  3  0  0  0  0  0  0
  160.4040  206.6970  153.9440 C   0  0  2  0  0  3  0  0  0  0  0  0
  161.0610  207.5410  154.9660 C   0  0  2  0  0  3  0  0  0  0  0  0
  161.4570  206.2110  154.7410 O   0  0  0  0  0  0  0  0  0  0  0  0
  160.1980  207.6070  156.2090 C   0  0  1  0  0  3  0  0  0  0  0  0
  160.7430  206.7850  157.1970 O   0  0  0  0  0  1  0  0  0  0  0  0
  160.1460  209.0400  156.7090 C   0  0  0  0  0  2  0  0  0  0  0  0
  160.9450  209.9060  155.8400 N   0  0  0  0  0  0  0  0  0  0  0  0
  160.5340  212.1400  156.6290 C   0  0  0  0  0  2  0  0  0  0  0  0
  162.1040  210.3040  156.6360 C   0  0  0  0  0  2  0  0  0  0  0  0
  160.2470  211.1620  155.5050 C   0  0  1  0  0  0  0  0  0  0  0  0
  160.8400  211.7120  154.2120 C   0  0  0  0  0  1  0  0  0  0  0  0
  161.8340  211.6740  157.2350 C   0  0  0  0  0  2  0  0  0  0  0  0
  158.7310  210.9730  155.2990 C   0  0  0  0  0  2  0  0  0  0  0  0
  157.9820  212.1610  155.6870 N   0  0  0  0  0  0  0  0  0  0  0  0
  155.2110  213.3820  153.9050 O   0  0  0  0  0  0  0  0  0  0  0  0
  155.5670  212.3240  155.9980 C   0  0  0  0  0  2  0  0  0  0  0  0
  155.9800  212.8730  154.7030 C   0  0  0  0  0  0  0  0  0  0  0  0
  156.8550  211.7050  156.5130 C   0  0  0  0  0  2  0  0  0  0  0  0
  157.4260  212.7340  154.4640 C   0  0  0  0  0  2  0  0  0  0  0  0
  162.4370  209.9550  150.8900 N   0  0  0  0  0  2  0  0  0  0  0  0
  160.2320  212.8890  150.0830 C   0  0  0  0  0  3  0  0  0  0  0  0
  160.5970  213.1240  148.7530 C   0  0  0  0  0  0  0  0  0  0  0  0
  162.1520  211.2700  148.8570 C   0  0  0  0  0  3  0  0  0  0  0  0
  160.8340  211.8510  150.7990 C   0  0  0  0  0  3  0  0  0  0  0  0
  161.8010  211.0350  150.1920 C   0  0  0  0  0  0  0  0  0  0  0  0
  161.5520  212.3080  148.1380 C   0  0  0  0  0  3  0  0  0  0  0  0
  160.2880  214.1140  146.6350 O   0  0  0  0  0  1  0  0  0  0  0  0
  159.9380  214.2130  147.9810 C   0  0  0  0  0  2  0  0  0  0  0  0
  1  6  1  6  0  0  0
  1  5  1  0  0  0  0
  2 11  1  0  0  0  0
  2 13  1  0  0  0  0
  4  7  1  0  0  0  0
  5  9  2  0  0  0  0
  7  9  1  0  0  0  0
  7 11  2  0  0  0  0
  8  1  1  0  0  0  0
  8  4  1  0  0  0  0
 10  3  2  0  0  0  0
 11 10  1  0  0  0  0
 12  2  2  0  0  0  0
 13 14  2  0  0  0  0
 14  3  1  0  0  0  0
 15  4  2  0  0  0  0
 15 12  1  0  0  0  0
 16  3  1  6  0  0  0
 16 18  1  0  0  0  0
 16 17  1  0  0  0  0
 17 19  1  1  0  0  0
 18 17  1  0  0  0  0
 19 21  1  0  0  0  0
 19 20  1  1  0  0  0
 22 24  1  0  0  0  0
 22 21  1  0  0  0  0
 23 27  1  0  0  0  0
 24 27  1  0  0  0  0
 25 26  1  6  0  0  0
 25 22  1  0  0  0  0
 25 23  1  0  0  0  0
 28 25  1  0  0  0  0
 28 29  1  0  0  0  0
 29 33  1  0  0  0  0
 30 32  2  0  0  0  0
 31 33  1  0  0  0  0
 32 31  1  0  0  0  0
 34 32  1  0  0  0  0
 34 29  1  0  0  0  0
 35 13  1  0  0  0  0
 36 39  1  0  0  0  0
 37 36  2  0  0  0  0
 38 40  1  0  0  0  0
 40 39  2  0  0  0  0
 40 35  1  0  0  0  0
 41 37  1  0  0  0  0
 41 38  2  0  0  0  0
 42 43  1  0  0  0  0
 43 37  1  0  0  0  0
M  END
>  <MODEL>
3

>  <REMARK>
 VINA RESULT:      -7.5      2.691      6.728
  Name = 
  9 active torsions:
  status: ('A' for Active; 'I' for Inactive)
    1  A    between atoms: N_1  and  C_34
    2  A    between atoms: N_1  and  C_35
    3  A    between atoms: C_2  and  C_13
    4  A    between atoms: C_3  and  N_4
    5  A    between atoms: C_3  and  C_12
    6  A    between atoms: C_6  and  C_12
    7  A    between atoms: N_11  and  C_14
    8  A    between atoms: C_14  and  C_22
    9  A    between atoms: C_19  and  C_37
                            x       y       z     vdW  Elec       q    Type
                         _______ _______ _______ _____ _____    ______ ____

>  <TORSDO>
F 9

$$$$
=
 OpenBabel11062409543D

 43 49  0  0  1  0  0  0  0  0999 V2000
  161.1940  204.3950  146.4330 C   0  0  1  0  0  3  0  0  0  0  0  0
  161.4700  207.2560  150.7000 C   0  0  0  0  0  0  0  0  0  0  0  0
  161.8770  209.8440  149.8320 C   0  0  0  0  0  0  0  0  0  0  0  0
  161.3960  205.1780  148.8200 C   0  0  0  0  0  0  0  0  0  0  0  0
  161.6870  205.7670  146.0510 C   0  0  0  0  0  3  0  0  0  0  0  0
  161.8450  203.4250  145.6730 O   0  0  0  0  0  1  0  0  0  0  0  0
  161.5930  206.4990  148.3870 C   0  0  0  0  0  0  0  0  0  0  0  0
  161.3800  204.1200  147.8580 N   0  0  0  0  0  2  0  0  0  0  0  0
  161.8280  206.7440  146.9500 C   0  0  0  0  0  3  0  0  0  0  0  0
  161.8330  208.8280  148.9300 N   0  0  0  0  0  0  0  0  0  0  0  0
  161.6340  207.5440  149.3270 C   0  0  0  0  0  0  0  0  0  0  0  0
  161.2830  205.9300  151.1180 C   0  0  0  0  0  3  0  0  0  0  0  0
  161.5120  208.3170  151.6150 C   0  0  0  0  0  0  0  0  0  0  0  0
  161.7090  209.5840  151.1560 N   0  0  0  0  0  0  0  0  0  0  0  0
  161.2500  204.8950  150.1800 C   0  0  0  0  0  3  0  0  0  0  0  0
  162.0660  211.2450  149.3580 C   0  0  2  0  0  3  0  0  0  0  0  0
  161.4700  211.4080  148.0140 C   0  0  2  0  0  3  0  0  0  0  0  0
  162.8560  211.2590  148.1930 O   0  0  0  0  0  0  0  0  0  0  0  0
  161.1470  212.8680  147.7690 C   0  0  1  0  0  3  0  0  0  0  0  0
  162.2640  213.6470  148.0720 O   0  0  0  0  0  1  0  0  0  0  0  0
  160.7710  213.0620  146.3100 C   0  0  0  0  0  2  0  0  0  0  0  0
  159.5640  213.8840  146.2070 N   0  0  0  0  0  0  0  0  0  0  0  0
  157.7500  212.3170  146.0260 C   0  0  0  0  0  2  0  0  0  0  0  0
  158.9230  213.8110  147.5180 C   0  0  0  0  0  2  0  0  0  0  0  0
  158.5840  213.3240  145.2570 C   0  0  1  0  0  0  0  0  0  0  0  0
  157.6760  214.4530  144.7820 C   0  0  0  0  0  1  0  0  0  0  0  0
  157.8340  212.7530  147.4670 C   0  0  0  0  0  2  0  0  0  0  0  0
  159.2420  212.6810  144.0210 C   0  0  0  0  0  2  0  0  0  0  0  0
  159.3760  213.6320  142.9250 N   0  0  0  0  0  0  0  0  0  0  0  0
  162.2720  213.9410  140.9600 O   0  0  0  0  0  0  0  0  0  0  0  0
  160.0650  213.1340  140.6380 C   0  0  0  0  0  2  0  0  0  0  0  0
  161.1660  213.7080  141.4180 C   0  0  0  0  0  0  0  0  0  0  0  0
  158.9940  212.9250  141.6960 C   0  0  0  0  0  2  0  0  0  0  0  0
  160.7940  213.9640  142.8190 C   0  0  0  0  0  2  0  0  0  0  0  0
  161.3510  208.0610  153.0210 N   0  0  0  0  0  2  0  0  0  0  0  0
  159.5240  210.9240  154.6310 C   0  0  0  0  0  3  0  0  0  0  0  0
  159.4310  210.4590  155.9460 C   0  0  0  0  0  0  0  0  0  0  0  0
  160.6060  208.4390  155.3120 C   0  0  0  0  0  3  0  0  0  0  0  0
  160.1500  210.1410  153.6570 C   0  0  0  0  0  3  0  0  0  0  0  0
  160.6940  208.8900  153.9900 C   0  0  0  0  0  0  0  0  0  0  0  0
  159.9800  209.2190  156.2880 C   0  0  0  0  0  3  0  0  0  0  0  0
  159.3440  212.5810  156.9730 O   0  0  0  0  0  1  0  0  0  0  0  0
  158.7870  211.3020  156.9900 C   0  0  0  0  0  2  0  0  0  0  0  0
  1  6  1  6  0  0  0
  1  8  1  0  0  0  0
  2 12  1  0  0  0  0
  2 13  1  0  0  0  0
  3 14  1  0  0  0  0
  4 15  1  0  0  0  0
  5  1  1  0  0  0  0
  5  9  2  0  0  0  0
  7  4  2  0  0  0  0
  7 11  1  0  0  0  0
  8  4  1  0  0  0  0
  9  7  1  0  0  0  0
 10 11  1  0  0  0  0
 10  3  2  0  0  0  0
 11  2  2  0  0  0  0
 13 35  1  0  0  0  0
 14 13  2  0  0  0  0
 15 12  2  0  0  0  0
 16  3  1  6  0  0  0
 17 19  1  1  0  0  0
 17 18  1  0  0  0  0
 17 16  1  0  0  0  0
 18 16  1  0  0  0  0
 19 20  1  6  0  0  0
 21 19  1  0  0  0  0
 22 21  1  0  0  0  0
 22 24  1  0  0  0  0
 23 27  1  0  0  0  0
 25 26  1  6  0  0  0
 25 23  1  0  0  0  0
 25 22  1  0  0  0  0
 27 24  1  0  0  0  0
 28 25  1  0  0  0  0
 29 28  1  0  0  0  0
 30 32  2  0  0  0  0
 31 32  1  0  0  0  0
 31 33  1  0  0  0  0
 32 34  1  0  0  0  0
 33 29  1  0  0  0  0
 34 29  1  0  0  0  0
 35 40  1  0  0  0  0
 36 37  1  0  0  0  0
 37 41  2  0  0  0  0
 37 43  1  0  0  0  0
 38 41  1  0  0  0  0
 39 40  1  0  0  0  0
 39 36  2  0  0  0  0
 40 38  2  0  0  0  0
 42 43  1  0  0  0  0
M  END
>  <MODEL>
4

>  <REMARK>
 VINA RESULT:      -7.5      1.879      3.946
  Name = 
  9 active torsions:
  status: ('A' for Active; 'I' for Inactive)
    1  A    between atoms: N_1  and  C_34
    2  A    between atoms: N_1  and  C_35
    3  A    between atoms: C_2  and  C_13
    4  A    between atoms: C_3  and  N_4
    5  A    between atoms: C_3  and  C_12
    6  A    between atoms: C_6  and  C_12
    7  A    between atoms: N_11  and  C_14
    8  A    between atoms: C_14  and  C_22
    9  A    between atoms: C_19  and  C_37
                            x       y       z     vdW  Elec       q    Type
                         _______ _______ _______ _____ _____    ______ ____

>  <TORSDO>
F 9

$$$$
=
 OpenBabel11062409543D

 43 49  0  0  1  0  0  0  0  0999 V2000
  160.5160  201.9400  146.8930 C   0  0  1  0  0  3  0  0  0  0  0  0
  161.1760  205.0700  150.9220 C   0  0  0  0  0  0  0  0  0  0  0  0
  162.1410  207.4330  149.8750 C   0  0  0  0  0  0  0  0  0  0  0  0
  160.7640  202.8840  149.2160 C   0  0  0  0  0  0  0  0  0  0  0  0
  161.2950  203.1450  146.4320 C   0  0  0  0  0  3  0  0  0  0  0  0
  160.9880  200.7930  146.2570 O   0  0  0  0  0  1  0  0  0  0  0  0
  161.2470  204.0930  148.6910 C   0  0  0  0  0  0  0  0  0  0  0  0
  160.5770  201.7670  148.3440 N   0  0  0  0  0  2  0  0  0  0  0  0
  161.5920  204.1530  147.2570 C   0  0  0  0  0  3  0  0  0  0  0  0
  161.9320  206.3680  149.0570 N   0  0  0  0  0  0  0  0  0  0  0  0
  161.4570  205.1910  149.5430 C   0  0  0  0  0  0  0  0  0  0  0  0
  160.7030  203.8530  151.4330 C   0  0  0  0  0  3  0  0  0  0  0  0
  161.3920  206.1810  151.7500 C   0  0  0  0  0  0  0  0  0  0  0  0
  161.8640  207.3350  151.2020 N   0  0  0  0  0  0  0  0  0  0  0  0
  160.5020  202.7620  150.5830 C   0  0  0  0  0  3  0  0  0  0  0  0
  162.6340  208.7190  149.3020 C   0  0  2  0  0  3  0  0  0  0  0  0
  161.5270  209.4240  148.6180 C   0  0  2  0  0  3  0  0  0  0  0  0
  162.5000  208.7060  147.9000 O   0  0  0  0  0  0  0  0  0  0  0  0
  161.8340  210.9060  148.5400 C   0  0  1  0  0  3  0  0  0  0  0  0
  163.1790  211.0850  148.2150 O   0  0  0  0  0  1  0  0  0  0  0  0
  160.9610  211.5430  147.4720 C   0  0  0  0  0  2  0  0  0  0  0  0
  161.4620  212.8800  147.1460 N   0  0  0  0  0  0  0  0  0  0  0  0
  159.5810  214.0410  146.2010 C   0  0  0  0  0  2  0  0  0  0  0  0
  160.9340  213.7640  148.1830 C   0  0  0  0  0  2  0  0  0  0  0  0
  160.9110  213.3890  145.8750 C   0  0  1  0  0  0  0  0  0  0  0  0
  161.8600  214.4530  145.3330 C   0  0  0  0  0  1  0  0  0  0  0  0
  159.6810  214.4400  147.6520 C   0  0  0  0  0  2  0  0  0  0  0  0
  160.7520  212.2930  144.8040 C   0  0  0  0  0  2  0  0  0  0  0  0
  160.8100  212.8440  143.4560 N   0  0  0  0  0  0  0  0  0  0  0  0
  162.0950  211.0940  140.6930 O   0  0  0  0  0  0  0  0  0  0  0  0
  159.9530  211.8060  141.4200 C   0  0  0  0  0  2  0  0  0  0  0  0
  161.4050  211.6440  141.5350 C   0  0  0  0  0  0  0  0  0  0  0  0
  159.5870  212.4110  142.7660 C   0  0  0  0  0  2  0  0  0  0  0  0
  161.9410  212.2100  142.7840 C   0  0  0  0  0  2  0  0  0  0  0  0
  161.1180  206.0930  153.1580 N   0  0  0  0  0  2  0  0  0  0  0  0
  160.6520  209.5220  154.6250 C   0  0  0  0  0  3  0  0  0  0  0  0
  160.0540  209.1970  155.8460 C   0  0  0  0  0  0  0  0  0  0  0  0
  160.1750  206.8460  155.2770 C   0  0  0  0  0  3  0  0  0  0  0  0
  161.0040  208.5080  153.7290 C   0  0  0  0  0  3  0  0  0  0  0  0
  160.7650  207.1620  154.0470 C   0  0  0  0  0  0  0  0  0  0  0  0
  159.8230  207.8580  156.1750 C   0  0  0  0  0  3  0  0  0  0  0  0
  160.3490  211.4560  156.4570 O   0  0  0  0  0  1  0  0  0  0  0  0
  159.7020  210.2730  156.8130 C   0  0  0  0  0  2  0  0  0  0  0  0
  1  6  1  6  0  0  0
  1  8  1  0  0  0  0
  2 12  1  0  0  0  0
  2 13  1  0  0  0  0
  3 14  1  0  0  0  0
  4 15  1  0  0  0  0
  5  1  1  0  0  0  0
  5  9  2  0  0  0  0
  7  4  2  0  0  0  0
  7 11  1  0  0  0  0
  8  4  1  0  0  0  0
  9  7  1  0  0  0  0
 10 11  1  0  0  0  0
 10  3  2  0  0  0  0
 11  2  2  0  0  0  0
 13 35  1  0  0  0  0
 14 13  2  0  0  0  0
 15 12  2  0  0  0  0
 16  3  1  1  0  0  0
 17 19  1  6  0  0  0
 17 16  1  0  0  0  0
 18 17  1  0  0  0  0
 18 16  1  0  0  0  0
 19 20  1  6  0  0  0
 21 19  1  0  0  0  0
 22 21  1  0  0  0  0
 22 24  1  0  0  0  0
 23 27  1  0  0  0  0
 25 26  1  6  0  0  0
 25 23  1  0  0  0  0
 25 22  1  0  0  0  0
 27 24  1  0  0  0  0
 28 25  1  0  0  0  0
 29 28  1  0  0  0  0
 30 32  2  0  0  0  0
 31 32  1  0  0  0  0
 31 33  1  0  0  0  0
 32 34  1  0  0  0  0
 33 29  1  0  0  0  0
 34 29  1  0  0  0  0
 35 40  1  0  0  0  0
 36 37  1  0  0  0  0
 37 41  2  0  0  0  0
 37 43  1  0  0  0  0
 38 41  1  0  0  0  0
 39 40  1  0  0  0  0
 39 36  2  0  0  0  0
 40 38  2  0  0  0  0
 42 43  1  0  0  0  0
M  END
>  <MODEL>
5

>  <REMARK>
 VINA RESULT:      -7.4      2.475      4.615
  Name = 
  9 active torsions:
  status: ('A' for Active; 'I' for Inactive)
    1  A    between atoms: N_1  and  C_34
    2  A    between atoms: N_1  and  C_35
    3  A    between atoms: C_2  and  C_13
    4  A    between atoms: C_3  and  N_4
    5  A    between atoms: C_3  and  C_12
    6  A    between atoms: C_6  and  C_12
    7  A    between atoms: N_11  and  C_14
    8  A    between atoms: C_14  and  C_22
    9  A    between atoms: C_19  and  C_37
                            x       y       z     vdW  Elec       q    Type
                         _______ _______ _______ _____ _____    ______ ____

>  <TORSDO>
F 9

$$$$
=
 OpenBabel11062409543D

 43 49  0  0  1  0  0  0  0  0999 V2000
  155.5720  212.4390  156.0520 C   0  0  1  0  0  3  0  0  0  0  0  0
  159.0160  212.9060  152.2590 C   0  0  0  0  0  0  0  0  0  0  0  0
  160.7100  210.7450  152.5260 C   0  0  0  0  0  0  0  0  0  0  0  0
  156.9940  213.3040  154.1600 C   0  0  0  0  0  0  0  0  0  0  0  0
  156.6840  211.4540  156.3000 C   0  0  0  0  0  3  0  0  0  0  0  0
  155.1330  212.9790  157.2590 O   0  0  0  0  0  1  0  0  0  0  0  0
  157.8550  212.2020  154.2820 C   0  0  0  0  0  0  0  0  0  0  0  0
  155.9790  213.5120  155.1440 N   0  0  0  0  0  2  0  0  0  0  0  0
  157.7120  211.3200  155.4580 C   0  0  0  0  0  3  0  0  0  0  0  0
  159.7220  210.9450  153.4380 N   0  0  0  0  0  0  0  0  0  0  0  0
  158.8730  212.0000  153.3330 C   0  0  0  0  0  0  0  0  0  0  0  0
  158.1530  214.0070  152.1540 C   0  0  0  0  0  3  0  0  0  0  0  0
  160.0370  212.6800  151.3240 C   0  0  0  0  0  0  0  0  0  0  0  0
  160.8530  211.6010  151.4800 N   0  0  0  0  0  0  0  0  0  0  0  0
  157.1490  214.2070  153.1050 C   0  0  0  0  0  3  0  0  0  0  0  0
  161.6060  209.5580  152.6560 C   0  0  2  0  0  3  0  0  0  0  0  0
  160.8530  208.3220  152.3500 C   0  0  2  0  0  3  0  0  0  0  0  0
  161.1350  208.7060  153.6720 O   0  0  0  0  0  0  0  0  0  0  0  0
  161.8120  207.2290  151.9270 C   0  0  1  0  0  3  0  0  0  0  0  0
  161.9620  206.3130  152.9700 O   0  0  0  0  0  1  0  0  0  0  0  0
  161.2590  206.5210  150.7020 C   0  0  0  0  0  2  0  0  0  0  0  0
  162.2270  206.5830  149.6050 N   0  0  0  0  0  0  0  0  0  0  0  0
  160.9400  207.1910  147.6670 C   0  0  0  0  0  2  0  0  0  0  0  0
  162.4570  208.0060  149.3620 C   0  0  0  0  0  2  0  0  0  0  0  0
  161.6780  206.0510  148.3430 C   0  0  1  0  0  0  0  0  0  0  0  0
  162.8430  205.6250  147.4550 C   0  0  0  0  0  1  0  0  0  0  0  0
  161.5790  208.4480  148.2030 C   0  0  0  0  0  2  0  0  0  0  0  0
  160.7580  204.8320  148.5520 C   0  0  0  0  0  2  0  0  0  0  0  0
  161.5210  203.5980  148.6820 N   0  0  0  0  0  0  0  0  0  0  0  0
  160.2440  200.6670  150.1400 O   0  0  0  0  0  0  0  0  0  0  0  0
  160.8290  201.3740  147.9540 C   0  0  0  0  0  2  0  0  0  0  0  0
  160.6500  201.5450  149.3980 C   0  0  0  0  0  0  0  0  0  0  0  0
  161.2080  202.7750  147.5050 C   0  0  0  0  0  2  0  0  0  0  0  0
  161.0050  202.8990  149.8560 C   0  0  0  0  0  2  0  0  0  0  0  0
  160.2120  213.5830  150.2190 N   0  0  0  0  0  2  0  0  0  0  0  0
  158.3740  213.4590  146.9430 C   0  0  0  0  0  3  0  0  0  0  0  0
  159.3360  212.8450  146.1350 C   0  0  0  0  0  0  0  0  0  0  0  0
  160.8430  212.7230  148.0260 C   0  0  0  0  0  3  0  0  0  0  0  0
  158.6530  213.7120  148.2900 C   0  0  0  0  0  3  0  0  0  0  0  0
  159.8910  213.3480  148.8410 C   0  0  0  0  0  0  0  0  0  0  0  0
  160.5680  212.4700  146.6790 C   0  0  0  0  0  3  0  0  0  0  0  0
  160.0820  211.8310  144.1400 O   0  0  0  0  0  1  0  0  0  0  0  0
  159.0320  212.5530  144.7070 C   0  0  0  0  0  2  0  0  0  0  0  0
  1  5  1  0  0  0  0
  1  6  1  1  0  0  0
  2 11  1  0  0  0  0
  3 10  2  0  0  0  0
  4  7  1  0  0  0  0
  4  8  1  0  0  0  0
  7  9  1  0  0  0  0
  8  1  1  0  0  0  0
  9  5  2  0  0  0  0
 11 10  1  0  0  0  0
 11  7  2  0  0  0  0
 12  2  2  0  0  0  0
 12 15  1  0  0  0  0
 13 14  2  0  0  0  0
 13  2  1  0  0  0  0
 14  3  1  0  0  0  0
 15  4  2  0  0  0  0
 16  3  1  1  0  0  0
 16 18  1  0  0  0  0
 17 19  1  6  0  0  0
 17 16  1  0  0  0  0
 17 18  1  0  0  0  0
 19 20  1  1  0  0  0
 21 19  1  0  0  0  0
 22 21  1  0  0  0  0
 23 27  1  0  0  0  0
 23 25  1  0  0  0  0
 24 22  1  0  0  0  0
 25 26  1  6  0  0  0
 25 28  1  0  0  0  0
 25 22  1  0  0  0  0
 27 24  1  0  0  0  0
 28 29  1  0  0  0  0
 29 34  1  0  0  0  0
 31 32  1  0  0  0  0
 32 34  1  0  0  0  0
 32 30  2  0  0  0  0
 33 31  1  0  0  0  0
 33 29  1  0  0  0  0
 35 13  1  0  0  0  0
 36 39  1  0  0  0  0
 37 41  1  0  0  0  0
 37 36  2  0  0  0  0
 38 40  1  0  0  0  0
 39 40  2  0  0  0  0
 40 35  1  0  0  0  0
 41 38  2  0  0  0  0
 42 43  1  0  0  0  0
 43 37  1  0  0  0  0
M  END
>  <MODEL>
6

>  <REMARK>
 VINA RESULT:      -7.3      2.851      9.371
  Name = 
  9 active torsions:
  status: ('A' for Active; 'I' for Inactive)
    1  A    between atoms: N_1  and  C_34
    2  A    between atoms: N_1  and  C_35
    3  A    between atoms: C_2  and  C_13
    4  A    between atoms: C_3  and  N_4
    5  A    between atoms: C_3  and  C_12
    6  A    between atoms: C_6  and  C_12
    7  A    between atoms: N_11  and  C_14
    8  A    between atoms: C_14  and  C_22
    9  A    between atoms: C_19  and  C_37
                            x       y       z     vdW  Elec       q    Type
                         _______ _______ _______ _____ _____    ______ ____

>  <TORSDO>
F 9

$$$$
=
 OpenBabel11062409543D

 43 49  0  0  1  0  0  0  0  0999 V2000
  161.2120  203.4580  148.9180 C   0  0  1  0  0  3  0  0  0  0  0  0
  161.6860  208.4760  149.9480 C   0  0  0  0  0  0  0  0  0  0  0  0
  160.9410  208.7640  152.5890 C   0  0  0  0  0  0  0  0  0  0  0  0
  161.4820  205.9570  148.7350 C   0  0  0  0  0  0  0  0  0  0  0  0
  160.5640  203.7300  150.2500 C   0  0  0  0  0  3  0  0  0  0  0  0
  160.4750  202.5090  148.2120 O   0  0  0  0  0  1  0  0  0  0  0  0
  161.1140  206.1110  150.0810 C   0  0  0  0  0  0  0  0  0  0  0  0
  161.3560  204.6750  148.1170 N   0  0  0  0  0  2  0  0  0  0  0  0
  160.5600  204.9470  150.8000 C   0  0  0  0  0  3  0  0  0  0  0  0
  160.8510  207.5460  151.9920 N   0  0  0  0  0  0  0  0  0  0  0  0
  161.2110  207.3730  150.6930 C   0  0  0  0  0  0  0  0  0  0  0  0
  162.0420  208.3080  148.6020 C   0  0  0  0  0  3  0  0  0  0  0  0
  161.7760  209.7230  150.5830 C   0  0  0  0  0  0  0  0  0  0  0  0
  161.4060  209.8320  151.8890 N   0  0  0  0  0  0  0  0  0  0  0  0
  161.9350  207.0530  147.9970 C   0  0  0  0  0  3  0  0  0  0  0  0
  160.5660  208.9100  154.0260 C   0  0  2  0  0  3  0  0  0  0  0  0
  159.6610  210.0690  154.1950 C   0  0  2  0  0  3  0  0  0  0  0  0
  161.0260  210.1450  154.5220 O   0  0  0  0  0  0  0  0  0  0  0  0
  158.8480  209.9040  155.4630 C   0  0  1  0  0  3  0  0  0  0  0  0
  159.7070  209.8320  156.5600 O   0  0  0  0  0  1  0  0  0  0  0  0
  157.9170  211.0940  155.6210 C   0  0  0  0  0  2  0  0  0  0  0  0
  158.6910  212.3360  155.6570 N   0  0  0  0  0  0  0  0  0  0  0  0
  157.0580  214.0860  155.8870 C   0  0  0  0  0  2  0  0  0  0  0  0
  158.7000  212.7560  157.0570 C   0  0  0  0  0  2  0  0  0  0  0  0
  158.0280  213.4310  154.9230 C   0  0  1  0  0  0  0  0  0  0  0  0
  159.0880  214.4520  154.5220 C   0  0  0  0  0  1  0  0  0  0  0  0
  157.6070  213.7920  157.2610 C   0  0  0  0  0  2  0  0  0  0  0  0
  157.3120  212.9520  153.6440 C   0  0  0  0  0  2  0  0  0  0  0  0
  156.9110  214.0700  152.8000 N   0  0  0  0  0  0  0  0  0  0  0  0
  156.4590  213.8190  149.3250 O   0  0  0  0  0  0  0  0  0  0  0  0
  155.0560  214.1070  151.2150 C   0  0  0  0  0  2  0  0  0  0  0  0
  156.3390  213.9100  150.5350 C   0  0  0  0  0  0  0  0  0  0  0  0
  155.4480  214.0110  152.6800 C   0  0  0  0  0  2  0  0  0  0  0  0
  157.4710  213.8250  151.4740 C   0  0  0  0  0  2  0  0  0  0  0  0
  162.2530  210.8680  149.8550 N   0  0  0  0  0  2  0  0  0  0  0  0
  160.0610  213.7120  148.7470 C   0  0  0  0  0  3  0  0  0  0  0  0
  160.0000  213.4660  147.3720 C   0  0  0  0  0  0  0  0  0  0  0  0
  161.4100  211.5180  147.6620 C   0  0  0  0  0  3  0  0  0  0  0  0
  160.8040  212.8660  149.5750 C   0  0  0  0  0  3  0  0  0  0  0  0
  161.4870  211.7640  149.0380 C   0  0  0  0  0  0  0  0  0  0  0  0
  160.6680  212.3630  146.8310 C   0  0  0  0  0  3  0  0  0  0  0  0
  159.7880  214.4440  145.2360 O   0  0  0  0  0  1  0  0  0  0  0  0
  159.1890  214.3510  146.4920 C   0  0  0  0  0  2  0  0  0  0  0  0
  1  6  1  6  0  0  0
  1  5  1  0  0  0  0
  2 13  1  0  0  0  0
  2 11  1  0  0  0  0
  4  7  1  0  0  0  0
  5  9  2  0  0  0  0
  7 11  2  0  0  0  0
  7  9  1  0  0  0  0
  8  4  1  0  0  0  0
  8  1  1  0  0  0  0
 10  3  2  0  0  0  0
 11 10  1  0  0  0  0
 12  2  2  0  0  0  0
 13 14  2  0  0  0  0
 14  3  1  0  0  0  0
 15 12  1  0  0  0  0
 15  4  2  0  0  0  0
 16  3  1  6  0  0  0
 16 17  1  0  0  0  0
 16 18  1  0  0  0  0
 17 18  1  0  0  0  0
 17 19  1  1  0  0  0
 19 21  1  0  0  0  0
 19 20  1  1  0  0  0
 21 22  1  0  0  0  0
 22 24  1  0  0  0  0
 23 27  1  0  0  0  0
 24 27  1  0  0  0  0
 25 26  1  6  0  0  0
 25 22  1  0  0  0  0
 25 23  1  0  0  0  0
 28 25  1  0  0  0  0
 29 28  1  0  0  0  0
 30 32  2  0  0  0  0
 31 33  1  0  0  0  0
 32 31  1  0  0  0  0
 32 34  1  0  0  0  0
 33 29  1  0  0  0  0
 34 29  1  0  0  0  0
 35 13  1  0  0  0  0
 36 39  1  0  0  0  0
 37 36  2  0  0  0  0
 38 40  1  0  0  0  0
 40 39  2  0  0  0  0
 40 35  1  0  0  0  0
 41 37  1  0  0  0  0
 41 38  2  0  0  0  0
 42 43  1  0  0  0  0
 43 37  1  0  0  0  0
M  END
>  <MODEL>
7

>  <REMARK>
 VINA RESULT:      -7.2      2.141      6.314
  Name = 
  9 active torsions:
  status: ('A' for Active; 'I' for Inactive)
    1  A    between atoms: N_1  and  C_34
    2  A    between atoms: N_1  and  C_35
    3  A    between atoms: C_2  and  C_13
    4  A    between atoms: C_3  and  N_4
    5  A    between atoms: C_3  and  C_12
    6  A    between atoms: C_6  and  C_12
    7  A    between atoms: N_11  and  C_14
    8  A    between atoms: C_14  and  C_22
    9  A    between atoms: C_19  and  C_37
                            x       y       z     vdW  Elec       q    Type
                         _______ _______ _______ _____ _____    ______ ____

>  <TORSDO>
F 9

$$$$
=
 OpenBabel11062409543D

 43 49  0  0  1  0  0  0  0  0999 V2000
  157.1430  212.8960  154.4340 C   0  0  1  0  0  3  0  0  0  0  0  0
  160.4990  212.6140  150.5450 C   0  0  0  0  0  0  0  0  0  0  0  0
  161.6580  210.1180  150.7460 C   0  0  0  0  0  0  0  0  0  0  0  0
  158.6750  213.4380  152.5080 C   0  0  0  0  0  0  0  0  0  0  0  0
  158.0050  211.6780  154.6420 C   0  0  0  0  0  3  0  0  0  0  0  0
  156.8720  213.5050  155.6580 O   0  0  0  0  0  1  0  0  0  0  0  0
  159.2630  212.1660  152.5960 C   0  0  0  0  0  0  0  0  0  0  0  0
  157.7610  213.8600  153.5230 N   0  0  0  0  0  2  0  0  0  0  0  0
  158.9520  211.3240  153.7680 C   0  0  0  0  0  3  0  0  0  0  0  0
  160.7680  210.5270  151.6880 N   0  0  0  0  0  0  0  0  0  0  0  0
  160.1810  211.7500  151.6160 C   0  0  0  0  0  0  0  0  0  0  0  0
  159.9100  213.8850  150.4750 C   0  0  0  0  0  3  0  0  0  0  0  0
  161.4150  212.1730  149.5790 C   0  0  0  0  0  0  0  0  0  0  0  0
  161.9660  210.9340  149.7030 N   0  0  0  0  0  0  0  0  0  0  0  0
  159.0050  214.2960  151.4560 C   0  0  0  0  0  3  0  0  0  0  0  0
  162.2600  208.7560  150.8400 C   0  0  2  0  0  3  0  0  0  0  0  0
  161.2060  207.7280  150.6970 C   0  0  2  0  0  3  0  0  0  0  0  0
  161.7370  208.0720  151.9530 O   0  0  0  0  0  0  0  0  0  0  0  0
  161.8210  206.4240  150.2310 C   0  0  1  0  0  3  0  0  0  0  0  0
  161.7550  205.4850  151.2610 O   0  0  0  0  0  1  0  0  0  0  0  0
  161.0560  205.9120  149.0230 C   0  0  0  0  0  2  0  0  0  0  0  0
  161.7840  206.2300  147.7940 N   0  0  0  0  0  0  0  0  0  0  0  0
  160.7030  204.9450  146.0730 C   0  0  0  0  0  2  0  0  0  0  0  0
  160.9210  207.1450  147.0480 C   0  0  0  0  0  2  0  0  0  0  0  0
  161.9550  205.0520  146.9220 C   0  0  1  0  0  0  0  0  0  0  0  0
  163.1500  205.3010  146.0080 C   0  0  0  0  0  1  0  0  0  0  0  0
  160.1440  206.3450  146.0160 C   0  0  0  0  0  2  0  0  0  0  0  0
  162.2120  203.7520  147.7100 C   0  0  0  0  0  2  0  0  0  0  0  0
  161.0700  202.8490  147.6450 N   0  0  0  0  0  0  0  0  0  0  0  0
  161.3270  199.4440  146.8160 O   0  0  0  0  0  0  0  0  0  0  0  0
  160.8500  200.6960  148.7730 C   0  0  0  0  0  2  0  0  0  0  0  0
  161.2020  200.5290  147.3600 C   0  0  0  0  0  0  0  0  0  0  0  0
  160.9650  202.2000  148.9590 C   0  0  0  0  0  2  0  0  0  0  0  0
  161.3990  201.8140  146.6690 C   0  0  0  0  0  2  0  0  0  0  0  0
  161.7640  213.0270  148.4760 N   0  0  0  0  0  2  0  0  0  0  0  0
  159.7080  212.2160  145.4370 C   0  0  0  0  0  3  0  0  0  0  0  0
  160.5180  212.7530  144.4310 C   0  0  0  0  0  0  0  0  0  0  0  0
  162.1270  213.4480  146.1020 C   0  0  0  0  0  3  0  0  0  0  0  0
  160.1060  212.3040  146.7740 C   0  0  0  0  0  3  0  0  0  0  0  0
  161.3170  212.9240  147.1170 C   0  0  0  0  0  0  0  0  0  0  0  0
  161.7310  213.3620  144.7640 C   0  0  0  0  0  3  0  0  0  0  0  0
  160.6070  211.4520  142.4650 O   0  0  0  0  0  1  0  0  0  0  0  0
  160.1090  212.6380  143.0040 C   0  0  0  0  0  2  0  0  0  0  0  0
  1  5  1  0  0  0  0
  1  6  1  1  0  0  0
  2 11  1  0  0  0  0
  3 10  2  0  0  0  0
  4  7  1  0  0  0  0
  4  8  1  0  0  0  0
  7  9  1  0  0  0  0
  8  1  1  0  0  0  0
  9  5  2  0  0  0  0
 11 10  1  0  0  0  0
 11  7  2  0  0  0  0
 12  2  2  0  0  0  0
 12 15  1  0  0  0  0
 13 14  2  0  0  0  0
 13  2  1  0  0  0  0
 14  3  1  0  0  0  0
 15  4  2  0  0  0  0
 16  3  1  1  0  0  0
 16 18  1  0  0  0  0
 17 19  1  6  0  0  0
 17 16  1  0  0  0  0
 17 18  1  0  0  0  0
 19 20  1  1  0  0  0
 21 19  1  0  0  0  0
 22 21  1  0  0  0  0
 23 25  1  0  0  0  0
 24 22  1  0  0  0  0
 25 26  1  6  0  0  0
 25 28  1  0  0  0  0
 25 22  1  0  0  0  0
 27 23  1  0  0  0  0
 27 24  1  0  0  0  0
 29 28  1  0  0  0  0
 29 33  1  0  0  0  0
 30 32  2  0  0  0  0
 31 33  1  0  0  0  0
 32 31  1  0  0  0  0
 34 32  1  0  0  0  0
 34 29  1  0  0  0  0
 35 13  1  0  0  0  0
 36 39  1  0  0  0  0
 37 41  1  0  0  0  0
 37 36  2  0  0  0  0
 38 40  1  0  0  0  0
 39 40  2  0  0  0  0
 40 35  1  0  0  0  0
 41 38  2  0  0  0  0
 42 43  1  0  0  0  0
 43 37  1  0  0  0  0
M  END
>  <MODEL>
8

>  <REMARK>
 VINA RESULT:      -6.7      2.562      9.601
  Name = 
  9 active torsions:
  status: ('A' for Active; 'I' for Inactive)
    1  A    between atoms: N_1  and  C_34
    2  A    between atoms: N_1  and  C_35
    3  A    between atoms: C_2  and  C_13
    4  A    between atoms: C_3  and  N_4
    5  A    between atoms: C_3  and  C_12
    6  A    between atoms: C_6  and  C_12
    7  A    between atoms: N_11  and  C_14
    8  A    between atoms: C_14  and  C_22
    9  A    between atoms: C_19  and  C_37
                            x       y       z     vdW  Elec       q    Type
                         _______ _______ _______ _____ _____    ______ ____

>  <TORSDO>
F 9

$$$$
=
 OpenBabel11062409543D

 43 49  0  0  1  0  0  0  0  0999 V2000
  160.7220  207.1980  155.0880 C   0  0  1  0  0  3  0  0  0  0  0  0
  162.0900  207.6050  150.1460 C   0  0  0  0  0  0  0  0  0  0  0  0
  162.0000  210.3020  149.5710 C   0  0  0  0  0  0  0  0  0  0  0  0
  161.2810  206.7170  152.6790 C   0  0  0  0  0  0  0  0  0  0  0  0
  160.4320  208.6040  154.6320 C   0  0  0  0  0  3  0  0  0  0  0  0
  159.7250  206.7610  155.9580 O   0  0  0  0  0  1  0  0  0  0  0  0
  161.2470  208.0890  152.3800 C   0  0  0  0  0  0  0  0  0  0  0  0
  160.8470  206.2690  153.9650 N   0  0  0  0  0  2  0  0  0  0  0  0
  160.7150  209.0200  153.3950 C   0  0  0  0  0  3  0  0  0  0  0  0
  161.6160  209.8600  150.7980 N   0  0  0  0  0  0  0  0  0  0  0  0
  161.6490  208.5380  151.1100 C   0  0  0  0  0  0  0  0  0  0  0  0
  162.1100  206.2370  150.4560 C   0  0  0  0  0  3  0  0  0  0  0  0
  162.4880  208.0800  148.8880 C   0  0  0  0  0  0  0  0  0  0  0  0
  162.4380  209.4170  148.6370 N   0  0  0  0  0  0  0  0  0  0  0  0
  161.7020  205.7950  151.7170 C   0  0  0  0  0  3  0  0  0  0  0  0
  161.9790  211.7640  149.2730 C   0  0  2  0  0  3  0  0  0  0  0  0
  160.5870  212.2140  149.0540 C   0  0  2  0  0  3  0  0  0  0  0  0
  161.4660  211.9860  147.9810 O   0  0  0  0  0  0  0  0  0  0  0  0
  160.4830  213.7030  149.3130 C   0  0  1  0  0  3  0  0  0  0  0  0
  159.6550  214.2850  148.3520 O   0  0  0  0  0  1  0  0  0  0  0  0
  159.8980  213.9330  150.6960 C   0  0  0  0  0  2  0  0  0  0  0  0
  158.8840  212.9170  150.9890 N   0  0  0  0  0  0  0  0  0  0  0  0
  157.2460  214.0390  152.3460 C   0  0  0  0  0  2  0  0  0  0  0  0
  157.7480  213.2320  150.1240 C   0  0  0  0  0  2  0  0  0  0  0  0
  158.3700  213.0200  152.3680 C   0  0  1  0  0  0  0  0  0  0  0  0
  157.7970  211.6650  152.7690 C   0  0  0  0  0  1  0  0  0  0  0  0
  156.7360  214.0320  150.9260 C   0  0  0  0  0  2  0  0  0  0  0  0
  159.4580  213.4070  153.3900 C   0  0  0  0  0  2  0  0  0  0  0  0
  159.0320  213.1390  154.7570 N   0  0  0  0  0  0  0  0  0  0  0  0
  161.1780  211.9260  157.2600 O   0  0  0  0  0  0  0  0  0  0  0  0
  160.0770  213.9740  156.7980 C   0  0  0  0  0  2  0  0  0  0  0  0
  160.4600  212.5850  156.5290 C   0  0  0  0  0  0  0  0  0  0  0  0
  159.3160  214.3510  155.5380 C   0  0  0  0  0  2  0  0  0  0  0  0
  159.8900  212.0740  155.2710 C   0  0  0  0  0  2  0  0  0  0  0  0
  162.9410  207.1580  147.8820 N   0  0  0  0  0  2  0  0  0  0  0  0
  160.4370  205.7840  145.4390 C   0  0  0  0  0  3  0  0  0  0  0  0
  160.6170  204.4110  145.6360 C   0  0  0  0  0  0  0  0  0  0  0  0
  162.3090  204.8750  147.3050 C   0  0  0  0  0  3  0  0  0  0  0  0
  161.2010  206.6990  146.1700 C   0  0  0  0  0  3  0  0  0  0  0  0
  162.1440  206.2510  147.1070 C   0  0  0  0  0  0  0  0  0  0  0  0
  161.5470  203.9570  146.5760 C   0  0  0  0  0  3  0  0  0  0  0  0
  160.3960  202.1800  144.9010 O   0  0  0  0  0  1  0  0  0  0  0  0
  159.7870  203.4350  144.8770 C   0  0  0  0  0  2  0  0  0  0  0  0
  1  6  1  1  0  0  0
  2 12  2  0  0  0  0
  2 11  1  0  0  0  0
  3 10  2  0  0  0  0
  4  8  1  0  0  0  0
  5  1  1  0  0  0  0
  7  4  1  0  0  0  0
  7  9  1  0  0  0  0
  8  1  1  0  0  0  0
  9  5  2  0  0  0  0
 10 11  1  0  0  0  0
 11  7  2  0  0  0  0
 12 15  1  0  0  0  0
 13  2  1  0  0  0  0
 14 13  2  0  0  0  0
 14  3  1  0  0  0  0
 15  4  2  0  0  0  0
 16  3  1  6  0  0  0
 17 16  1  0  0  0  0
 17 19  1  1  0  0  0
 18 17  1  0  0  0  0
 18 16  1  0  0  0  0
 19 20  1  6  0  0  0
 19 21  1  0  0  0  0
 21 22  1  0  0  0  0
 22 25  1  0  0  0  0
 23 25  1  0  0  0  0
 24 27  1  0  0  0  0
 24 22  1  0  0  0  0
 25 26  1  1  0  0  0
 25 28  1  0  0  0  0
 27 23  1  0  0  0  0
 28 29  1  0  0  0  0
 29 34  1  0  0  0  0
 29 33  1  0  0  0  0
 32 31  1  0  0  0  0
 32 30  2  0  0  0  0
 33 31  1  0  0  0  0
 34 32  1  0  0  0  0
 35 13  1  0  0  0  0
 36 37  2  0  0  0  0
 36 39  1  0  0  0  0
 37 41  1  0  0  0  0
 39 40  2  0  0  0  0
 40 38  1  0  0  0  0
 40 35  1  0  0  0  0
 41 38  2  0  0  0  0
 43 42  1  0  0  0  0
 43 37  1  0  0  0  0
M  END
>  <MODEL>
9

>  <REMARK>
 VINA RESULT:      -6.1      2.208      6.953
  Name = 
  9 active torsions:
  status: ('A' for Active; 'I' for Inactive)
    1  A    between atoms: N_1  and  C_34
    2  A    between atoms: N_1  and  C_35
    3  A    between atoms: C_2  and  C_13
    4  A    between atoms: C_3  and  N_4
    5  A    between atoms: C_3  and  C_12
    6  A    between atoms: C_6  and  C_12
    7  A    between atoms: N_11  and  C_14
    8  A    between atoms: C_14  and  C_22
    9  A    between atoms: C_19  and  C_37
                            x       y       z     vdW  Elec       q    Type
                         _______ _______ _______ _____ _____    ______ ____

>  <TORSDO>
F 9

$$$$
