=
 OpenBabel11062408003D

 34 38  0  0  1  0  0  0  0  0999 V2000
  160.5120  208.1550  154.9070 C   0  0  0  0  0  0  0  0  0  0  0  0
  160.1710  210.1510  153.4670 C   0  0  0  0  0  3  0  0  0  0  0  0
  161.1740  208.0840  152.5110 N   0  0  0  0  0  0  0  0  0  0  0  0
  162.0430  207.6820  150.1610 C   0  0  2  0  0  3  0  0  0  0  0  0
  159.5280  210.1630  155.8350 C   0  0  0  0  0  3  0  0  0  0  0  0
  158.8520  211.9020  154.2470 F   0  0  0  0  0  0  0  0  0  0  0  0
  161.9380  209.8630  151.1750 O   0  0  0  0  0  0  0  0  0  0  0  0
  161.0200  208.9270  153.7090 C   0  0  2  0  0  3  0  0  0  0  0  0
  159.9710  208.9180  156.0410 C   0  0  0  0  0  3  0  0  0  0  0  0
  161.1590  206.6470  152.6210 C   0  0  0  0  0  0  0  0  0  0  0  0
  160.5210  206.8590  154.9360 N   0  0  0  0  0  0  0  0  0  0  0  0
  159.5430  210.7610  154.4800 C   0  0  0  0  0  0  0  0  0  0  0  0
  161.2290  206.5320  150.2290 O   0  0  0  0  0  0  0  0  0  0  0  0
  161.5700  205.8320  151.4050 C   0  0  2  0  0  3  0  0  0  0  0  0
  161.6880  208.6320  151.2800 C   0  0  0  0  0  0  0  0  0  0  0  0
  160.9000  206.0730  153.8010 C   0  0  0  0  0  3  0  0  0  0  0  0
  160.3850  202.5000  149.8650 C   0  0  0  0  0  0  0  0  0  0  0  0
  160.9680  201.5050  150.8260 C   0  0  0  0  0  2  0  0  0  0  0  0
  160.9780  204.4180  151.3320 C   0  0  1  0  0  3  0  0  0  0  0  0
  162.1070  202.1290  151.6300 C   0  0  0  0  0  2  0  0  0  0  0  0
  160.8380  203.9290  149.8870 C   0  0  0  0  0  2  0  0  0  0  0  0
  161.6610  203.4300  152.3020 C   0  0  0  0  0  2  0  0  0  0  0  0
  159.5540  202.1390  149.0490 O   0  0  0  0  0  0  0  0  0  0  0  0
  161.8640  208.3470  148.8050 C   0  0  0  0  0  2  0  0  0  0  0  0
  162.6650  207.6050  147.7470 C   0  0  0  0  0  2  0  0  0  0  0  0
  162.3810  205.5040  146.6420 C   0  0  0  0  0  3  0  0  0  0  0  0
  161.8460  206.5800  147.1220 N   0  0  0  0  0  0  0  0  0  0  0  0
  160.6840  205.7800  144.3200 O   0  0  0  0  0  0  0  0  0  0  0  0
  161.5850  204.4440  146.0000 C   0  0  1  0  0  3  0  0  0  0  0  0
  160.7730  204.6470  144.8620 C   0  0  0  0  0  0  0  0  0  0  0  0
  160.1250  202.3580  144.8740 C   0  0  0  0  0  3  0  0  0  0  0  0
  160.9150  202.1150  145.9980 C   0  0  0  0  0  3  0  0  0  0  0  0
  161.6440  203.1640  146.5580 C   0  0  0  0  0  3  0  0  0  0  0  0
  160.0720  203.6060  144.3360 N   0  0  0  0  0  0  0  0  0  0  0  0
  1 11  2  0  0  0  0
  1  9  1  0  0  0  0
  2 12  2  0  0  0  0
  3 10  1  0  0  0  0
  3  8  1  0  0  0  0
  4 24  1  6  0  0  0
  4 13  1  0  0  0  0
  4 15  1  0  0  0  0
  5  9  2  0  0  0  0
  6 12  1  0  0  0  0
  7 15  2  0  0  0  0
  8  2  1  6  0  0  0
  8  1  1  0  0  0  0
 10 16  2  0  0  0  0
 12  5  1  0  0  0  0
 14 13  1  6  0  0  0
 14 10  1  0  0  0  0
 15  3  1  0  0  0  0
 16 11  1  0  0  0  0
 17 21  1  0  0  0  0
 17 18  1  0  0  0  0
 18 20  1  0  0  0  0
 19 21  1  6  0  0  0
 19 14  1  0  0  0  0
 19 22  1  0  0  0  0
 20 22  1  0  0  0  0
 23 17  2  0  0  0  0
 25 24  1  0  0  0  0
 26 27  2  0  0  0  0
 27 25  1  0  0  0  0
 28 30  2  0  0  0  0
 29 33  1  0  0  0  0
 29 26  1  6  0  0  0
 30 29  1  0  0  0  0
 31 32  1  0  0  0  0
 32 33  2  0  0  0  0
 34 30  1  0  0  0  0
 34 31  2  0  0  0  0
M  END
>  <MODEL>
1

>  <REMARK>
 VINA RESULT:      -9.3      0.000      0.000
  Name = 
  5 active torsions:
  status: ('A' for Active; 'I' for Inactive)
    1  A    between atoms: C_3  and  C_13
    2  A    between atoms: C_5  and  C_18
    3  A    between atoms: C_12  and  C_28
    4  A    between atoms: N_17  and  C_29
    5  A    between atoms: C_18  and  C_29
                            x       y       z     vdW  Elec       q    Type
                         _______ _______ _______ _____ _____    ______ ____

>  <TORSDO>
F 5

$$$$
=
 OpenBabel11062408003D

 34 38  0  0  1  0  0  0  0  0999 V2000
  161.0600  204.7870  149.3260 C   0  0  0  0  0  0  0  0  0  0  0  0
  162.3000  206.0300  147.5680 C   0  0  0  0  0  3  0  0  0  0  0  0
  161.4770  207.2250  149.5890 N   0  0  0  0  0  0  0  0  0  0  0  0
  161.6380  209.6950  150.1470 C   0  0  2  0  0  3  0  0  0  0  0  0
  161.8670  203.6230  147.3630 C   0  0  0  0  0  3  0  0  0  0  0  0
  163.4280  204.8390  145.9160 F   0  0  0  0  0  0  0  0  0  0  0  0
  161.6550  208.8460  147.8940 O   0  0  0  0  0  0  0  0  0  0  0  0
  161.2420  206.1230  148.6400 C   0  0  0  0  0  0  0  0  0  0  0  0
  161.1830  203.5700  148.5100 C   0  0  0  0  0  2  0  0  0  0  0  0
  161.2100  207.0480  150.9950 C   0  0  0  0  0  0  0  0  0  0  0  0
  160.8280  204.7010  150.5990 N   0  0  0  0  0  0  0  0  0  0  0  0
  162.5270  204.8760  146.9280 C   0  0  0  0  0  0  0  0  0  0  0  0
  162.1460  209.2210  151.3740 O   0  0  0  0  0  0  0  0  0  0  0  0
  161.2290  208.2800  151.8870 C   0  0  2  0  0  3  0  0  0  0  0  0
  161.6320  208.5820  149.1270 C   0  0  0  0  0  0  0  0  0  0  0  0
  160.8460  205.8480  151.4570 C   0  0  0  0  0  3  0  0  0  0  0  0
  161.6340  208.9590  155.6620 C   0  0  0  0  0  0  0  0  0  0  0  0
  161.0080  207.7300  156.2530 C   0  0  0  0  0  2  0  0  0  0  0  0
  161.5580  208.0160  153.3620 C   0  0  1  0  0  3  0  0  0  0  0  0
  160.0960  207.0420  155.2380 C   0  0  0  0  0  2  0  0  0  0  0  0
  161.4390  209.2860  154.2120 C   0  0  0  0  0  2  0  0  0  0  0  0
  160.8350  206.7730  153.9260 C   0  0  0  0  0  2  0  0  0  0  0  0
  162.2880  209.7060  156.3690 O   0  0  0  0  0  0  0  0  0  0  0  0
  162.4820  210.8670  149.6710 C   0  0  0  0  0  2  0  0  0  0  0  0
  161.5940  211.9410  149.0630 C   0  0  0  0  0  2  0  0  0  0  0  0
  161.1030  212.6340  146.8280 C   0  0  0  0  0  3  0  0  0  0  0  0
  161.9650  212.1770  147.6770 N   0  0  0  0  0  0  0  0  0  0  0  0
  159.3670  212.2780  144.5460 O   0  0  0  0  0  0  0  0  0  0  0  0
  161.4400  212.8830  145.4160 C   0  0  1  0  0  3  0  0  0  0  0  0
  160.5400  212.6880  144.3440 C   0  0  0  0  0  0  0  0  0  0  0  0
  162.1940  213.3890  142.7850 C   0  0  0  0  0  3  0  0  0  0  0  0
  163.1130  213.5950  143.8140 C   0  0  0  0  0  3  0  0  0  0  0  0
  162.7290  213.3400  145.1300 C   0  0  0  0  0  3  0  0  0  0  0  0
  160.9410  212.9450  143.0690 N   0  0  0  0  0  0  0  0  0  0  0  0
  1 11  2  0  0  0  0
  2  8  2  0  0  0  0
  3 10  1  0  0  0  0
  4 24  1  6  0  0  0
  4 13  1  0  0  0  0
  5  9  1  0  0  0  0
  6 12  1  0  0  0  0
  7 15  2  0  0  0  0
  8  1  1  0  0  0  0
  8  3  1  0  0  0  0
  9  1  1  0  0  0  0
 10 16  2  0  0  0  0
 11 16  1  0  0  0  0
 12  5  2  0  0  0  0
 12  2  1  0  0  0  0
 13 14  1  0  0  0  0
 14 10  1  6  0  0  0
 14 19  1  0  0  0  0
 15  3  1  0  0  0  0
 15  4  1  0  0  0  0
 17 18  1  0  0  0  0
 17 23  2  0  0  0  0
 19 22  1  1  0  0  0
 19 21  1  0  0  0  0
 20 18  1  0  0  0  0
 21 17  1  0  0  0  0
 22 20  1  0  0  0  0
 25 24  1  0  0  0  0
 26 27  2  0  0  0  0
 27 25  1  0  0  0  0
 29 26  1  1  0  0  0
 30 28  2  0  0  0  0
 30 29  1  0  0  0  0
 31 34  2  0  0  0  0
 31 32  1  0  0  0  0
 32 33  2  0  0  0  0
 33 29  1  0  0  0  0
 34 30  1  0  0  0  0
M  END
>  <MODEL>
2

>  <REMARK>
 VINA RESULT:      -8.2      4.285      7.285
  Name = 
  5 active torsions:
  status: ('A' for Active; 'I' for Inactive)
    1  A    between atoms: C_3  and  C_13
    2  A    between atoms: C_5  and  C_18
    3  A    between atoms: C_12  and  C_28
    4  A    between atoms: N_17  and  C_29
    5  A    between atoms: C_18  and  C_29
                            x       y       z     vdW  Elec       q    Type
                         _______ _______ _______ _____ _____    ______ ____

>  <TORSDO>
F 5

$$$$
=
 OpenBabel11062408003D

 34 38  0  0  1  0  0  0  0  0999 V2000
  160.9460  204.6150  149.3780 C   0  0  0  0  0  0  0  0  0  0  0  0
  162.1380  205.6850  147.4790 C   0  0  0  0  0  3  0  0  0  0  0  0
  161.4190  207.0560  149.4270 N   0  0  0  0  0  0  0  0  0  0  0  0
  161.6480  209.5590  149.7760 C   0  0  2  0  0  3  0  0  0  0  0  0
  161.6530  203.2800  147.4870 C   0  0  0  0  0  3  0  0  0  0  0  0
  163.1780  204.3400  145.8890 F   0  0  0  0  0  0  0  0  0  0  0  0
  161.5600  208.5320  147.6010 O   0  0  0  0  0  0  0  0  0  0  0  0
  161.1260  205.8870  148.5800 C   0  0  2  0  0  3  0  0  0  0  0  0
  161.0140  203.3340  148.6600 C   0  0  0  0  0  3  0  0  0  0  0  0
  161.2040  206.9990  150.8510 C   0  0  0  0  0  0  0  0  0  0  0  0
  160.7630  204.6370  150.6620 N   0  0  0  0  0  0  0  0  0  0  0  0
  162.3190  204.4790  146.9270 C   0  0  0  0  0  0  0  0  0  0  0  0
  162.1950  209.1740  151.0180 O   0  0  0  0  0  0  0  0  0  0  0  0
  161.2820  208.2970  151.6390 C   0  0  2  0  0  3  0  0  0  0  0  0
  161.5810  208.3680  148.8510 C   0  0  0  0  0  0  0  0  0  0  0  0
  160.8360  205.8480  151.4230 C   0  0  0  0  0  3  0  0  0  0  0  0
  161.5610  209.1500  155.3900 C   0  0  0  0  0  0  0  0  0  0  0  0
  161.1950  207.8370  156.0210 C   0  0  0  0  0  2  0  0  0  0  0  0
  161.6630  208.1460  153.1170 C   0  0  1  0  0  3  0  0  0  0  0  0
  160.4330  206.9540  155.0340 C   0  0  0  0  0  2  0  0  0  0  0  0
  161.2980  209.3900  153.9340 C   0  0  0  0  0  2  0  0  0  0  0  0
  161.2050  206.8010  153.7220 C   0  0  0  0  0  2  0  0  0  0  0  0
  162.0570  210.0320  156.0710 O   0  0  0  0  0  0  0  0  0  0  0  0
  162.4950  210.6700  149.1750 C   0  0  0  0  0  2  0  0  0  0  0  0
  161.6420  211.9040  148.9250 C   0  0  0  0  0  2  0  0  0  0  0  0
  161.6150  212.8780  146.7420 C   0  0  0  0  0  3  0  0  0  0  0  0
  161.2070  211.9430  147.5390 N   0  0  0  0  0  0  0  0  0  0  0  0
  163.3230  213.2830  144.4470 O   0  0  0  0  0  0  0  0  0  0  0  0
  161.1950  212.9530  145.3320 C   0  0  2  0  0  3  0  0  0  0  0  0
  162.0850  213.1540  144.2530 C   0  0  0  0  0  0  0  0  0  0  0  0
  160.2810  213.0780  142.7060 C   0  0  0  0  0  3  0  0  0  0  0  0
  159.3680  212.8790  143.7410 C   0  0  0  0  0  3  0  0  0  0  0  0
  159.8320  212.8170  145.0550 C   0  0  0  0  0  3  0  0  0  0  0  0
  161.6060  213.2100  142.9810 N   0  0  0  0  0  0  0  0  0  0  0  0
  1 11  2  0  0  0  0
  3 10  1  0  0  0  0
  4 24  1  6  0  0  0
  4 13  1  0  0  0  0
  5  9  2  0  0  0  0
  6 12  1  0  0  0  0
  7 15  2  0  0  0  0
  8  2  1  6  0  0  0
  8  1  1  0  0  0  0
  8  3  1  0  0  0  0
  9  1  1  0  0  0  0
 10 16  2  0  0  0  0
 11 16  1  0  0  0  0
 12  2  2  0  0  0  0
 12  5  1  0  0  0  0
 13 14  1  0  0  0  0
 14 10  1  6  0  0  0
 14 19  1  0  0  0  0
 15  3  1  0  0  0  0
 15  4  1  0  0  0  0
 17 18  1  0  0  0  0
 17 23  2  0  0  0  0
 19 22  1  1  0  0  0
 19 21  1  0  0  0  0
 20 18  1  0  0  0  0
 21 17  1  0  0  0  0
 22 20  1  0  0  0  0
 25 24  1  0  0  0  0
 26 27  2  0  0  0  0
 27 25  1  0  0  0  0
 29 26  1  1  0  0  0
 30 28  2  0  0  0  0
 30 29  1  0  0  0  0
 31 34  2  0  0  0  0
 31 32  1  0  0  0  0
 32 33  2  0  0  0  0
 33 29  1  0  0  0  0
 34 30  1  0  0  0  0
M  END
>  <MODEL>
3

>  <REMARK>
 VINA RESULT:      -7.9      4.366      7.307
  Name = 
  5 active torsions:
  status: ('A' for Active; 'I' for Inactive)
    1  A    between atoms: C_3  and  C_13
    2  A    between atoms: C_5  and  C_18
    3  A    between atoms: C_12  and  C_28
    4  A    between atoms: N_17  and  C_29
    5  A    between atoms: C_18  and  C_29
                            x       y       z     vdW  Elec       q    Type
                         _______ _______ _______ _____ _____    ______ ____

>  <TORSDO>
F 5

$$$$
=
 OpenBabel11062408003D

 34 38  0  0  1  0  0  0  0  0999 V2000
  161.9330  206.1280  148.4430 C   0  0  0  0  0  0  0  0  0  0  0  0
  161.0050  205.2110  150.5570 C   0  0  0  0  0  3  0  0  0  0  0  0
  161.7920  207.5700  150.4650 N   0  0  0  0  0  0  0  0  0  0  0  0
  161.8830  209.2860  152.3320 C   0  0  2  0  0  3  0  0  0  0  0  0
  161.1600  203.8360  148.5310 C   0  0  0  0  0  3  0  0  0  0  0  0
  159.8860  203.1710  150.5150 F   0  0  0  0  0  0  0  0  0  0  0  0
  161.9550  206.9110  152.7170 O   0  0  0  0  0  0  0  0  0  0  0  0
  161.9720  206.2000  149.9530 C   0  0  0  0  0  0  0  0  0  0  0  0
  161.7340  204.8120  147.8190 C   0  0  0  0  0  2  0  0  0  0  0  0
  161.9160  208.7020  149.5810 C   0  0  0  0  0  0  0  0  0  0  0  0
  162.0450  207.1910  147.7070 N   0  0  0  0  0  0  0  0  0  0  0  0
  160.6950  204.0770  149.9160 C   0  0  0  0  0  0  0  0  0  0  0  0
  161.2200  210.1050  151.3940 O   0  0  0  0  0  0  0  0  0  0  0  0
  161.9700  210.0900  150.2000 C   0  0  2  0  0  3  0  0  0  0  0  0
  161.8410  207.8460  151.8790 C   0  0  0  0  0  0  0  0  0  0  0  0
  162.0920  208.5070  148.2700 C   0  0  0  0  0  3  0  0  0  0  0  0
  160.5220  213.5200  149.1940 C   0  0  0  0  0  0  0  0  0  0  0  0
  161.4850  213.9460  148.1240 C   0  0  0  0  0  2  0  0  0  0  0  0
  161.4890  211.2310  149.2950 C   0  0  1  0  0  3  0  0  0  0  0  0
  162.7970  213.1720  148.2340 C   0  0  0  0  0  2  0  0  0  0  0  0
  160.8540  212.3720  150.0980 C   0  0  0  0  0  2  0  0  0  0  0  0
  162.5480  211.6630  148.2570 C   0  0  0  0  0  2  0  0  0  0  0  0
  159.4730  214.1240  149.3400 O   0  0  0  0  0  0  0  0  0  0  0  0
  161.2300  209.4480  153.6950 C   0  0  0  0  0  2  0  0  0  0  0  0
  161.5420  210.8220  154.2670 C   0  0  0  0  0  2  0  0  0  0  0  0
  159.1950  211.2050  154.0180 C   0  0  0  0  0  3  0  0  0  0  0  0
  160.3870  211.6950  154.1380 N   0  0  0  0  0  0  0  0  0  0  0  0
  156.7370  210.9880  155.5210 O   0  0  0  0  0  0  0  0  0  0  0  0
  158.0000  212.0560  153.8830 C   0  0  2  0  0  3  0  0  0  0  0  0
  156.8260  211.8950  154.6530 C   0  0  0  0  0  0  0  0  0  0  0  0
  155.8030  213.7290  153.5350 C   0  0  0  0  0  3  0  0  0  0  0  0
  156.9430  213.9210  152.7550 C   0  0  0  0  0  3  0  0  0  0  0  0
  158.0400  213.0800  152.9330 C   0  0  0  0  0  3  0  0  0  0  0  0
  155.7700  212.7300  154.4580 N   0  0  0  0  0  0  0  0  0  0  0  0
  1  8  1  0  0  0  0
  3 15  1  0  0  0  0
  4 24  1  1  0  0  0
  5 12  2  0  0  0  0
  8  3  1  0  0  0  0
  8  2  2  0  0  0  0
  9  1  1  0  0  0  0
  9  5  1  0  0  0  0
 10  3  1  0  0  0  0
 11 16  1  0  0  0  0
 11  1  2  0  0  0  0
 12  6  1  0  0  0  0
 12  2  1  0  0  0  0
 13  4  1  0  0  0  0
 14 10  1  6  0  0  0
 14 13  1  0  0  0  0
 15  4  1  0  0  0  0
 15  7  2  0  0  0  0
 16 10  2  0  0  0  0
 17 23  2  0  0  0  0
 17 21  1  0  0  0  0
 18 20  1  0  0  0  0
 18 17  1  0  0  0  0
 19 22  1  1  0  0  0
 19 21  1  0  0  0  0
 19 14  1  0  0  0  0
 20 22  1  0  0  0  0
 24 25  1  0  0  0  0
 26 27  2  0  0  0  0
 27 25  1  0  0  0  0
 29 26  1  6  0  0  0
 29 30  1  0  0  0  0
 30 28  2  0  0  0  0
 31 34  2  0  0  0  0
 32 33  2  0  0  0  0
 32 31  1  0  0  0  0
 33 29  1  0  0  0  0
 34 30  1  0  0  0  0
M  END
>  <MODEL>
4

>  <REMARK>
 VINA RESULT:      -7.9      3.678      9.202
  Name = 
  5 active torsions:
  status: ('A' for Active; 'I' for Inactive)
    1  A    between atoms: C_3  and  C_13
    2  A    between atoms: C_5  and  C_18
    3  A    between atoms: C_12  and  C_28
    4  A    between atoms: N_17  and  C_29
    5  A    between atoms: C_18  and  C_29
                            x       y       z     vdW  Elec       q    Type
                         _______ _______ _______ _____ _____    ______ ____

>  <TORSDO>
F 5

$$$$
=
 OpenBabel11062408003D

 34 38  0  0  1  0  0  0  0  0999 V2000
  160.2440  210.9800  154.9370 C   0  0  0  0  0  0  0  0  0  0  0  0
  161.5740  208.8920  155.1460 C   0  0  0  0  0  3  0  0  0  0  0  0
  160.9460  209.7460  152.8950 N   0  0  0  0  0  0  0  0  0  0  0  0
  161.4050  208.7150  150.6220 C   0  0  2  0  0  3  0  0  0  0  0  0
  160.8620  210.1530  157.1270 C   0  0  0  0  0  3  0  0  0  0  0  0
  162.5140  208.3460  157.2040 F   0  0  0  0  0  0  0  0  0  0  0  0
  161.2660  207.4290  152.6520 O   0  0  0  0  0  0  0  0  0  0  0  0
  160.5620  209.6390  154.3130 C   0  0  2  0  0  3  0  0  0  0  0  0
  160.2050  211.0670  156.4040 C   0  0  0  0  0  3  0  0  0  0  0  0
  160.6960  210.9610  152.1600 C   0  0  0  0  0  0  0  0  0  0  0  0
  160.0360  212.0360  154.2140 N   0  0  0  0  0  0  0  0  0  0  0  0
  161.6500  209.0860  156.4680 C   0  0  0  0  0  0  0  0  0  0  0  0
  161.8860  210.0040  150.3130 O   0  0  0  0  0  0  0  0  0  0  0  0
  160.8800  210.9330  150.6500 C   0  0  2  0  0  3  0  0  0  0  0  0
  161.2440  208.5700  152.1170 C   0  0  0  0  0  0  0  0  0  0  0  0
  160.2080  212.0330  152.7920 C   0  0  0  0  0  3  0  0  0  0  0  0
  162.1490  213.4510  148.0190 C   0  0  0  0  0  0  0  0  0  0  0  0
  161.0310  214.4520  148.0020 C   0  0  0  0  0  2  0  0  0  0  0  0
  161.2130  212.2850  150.0060 C   0  0  1  0  0  3  0  0  0  0  0  0
  159.7530  213.8490  148.5820 C   0  0  0  0  0  2  0  0  0  0  0  0
  161.9630  212.1180  148.6800 C   0  0  0  0  0  2  0  0  0  0  0  0
  160.0050  213.2460  149.9660 C   0  0  0  0  0  2  0  0  0  0  0  0
  163.2080  213.7160  147.4740 O   0  0  0  0  0  0  0  0  0  0  0  0
  162.3660  207.6720  150.0730 C   0  0  0  0  0  2  0  0  0  0  0  0
  161.9940  207.3180  148.6420 C   0  0  0  0  0  2  0  0  0  0  0  0
  161.3250  205.1840  149.4890 C   0  0  0  0  0  3  0  0  0  0  0  0
  161.8080  205.8820  148.5120 N   0  0  0  0  0  0  0  0  0  0  0  0
  160.7710  203.3720  151.6700 O   0  0  0  0  0  0  0  0  0  0  0  0
  161.1250  203.7270  149.3970 C   0  0  1  0  0  3  0  0  0  0  0  0
  160.8560  202.8960  150.5070 C   0  0  0  0  0  0  0  0  0  0  0  0
  160.7650  200.9840  149.0960 C   0  0  0  0  0  3  0  0  0  0  0  0
  161.0280  201.7690  147.9730 C   0  0  0  0  0  3  0  0  0  0  0  0
  161.2080  203.1430  148.1300 C   0  0  0  0  0  3  0  0  0  0  0  0
  160.6850  201.5590  150.3250 N   0  0  0  0  0  0  0  0  0  0  0  0
  1  9  1  0  0  0  0
  2 12  2  0  0  0  0
  3  8  1  0  0  0  0
  4 24  1  1  0  0  0
  4 15  1  0  0  0  0
  8  1  1  0  0  0  0
  8  2  1  1  0  0  0
  9  5  2  0  0  0  0
 10 16  2  0  0  0  0
 10  3  1  0  0  0  0
 11  1  2  0  0  0  0
 12  5  1  0  0  0  0
 12  6  1  0  0  0  0
 13  4  1  0  0  0  0
 14 13  1  1  0  0  0
 14 10  1  0  0  0  0
 15  7  2  0  0  0  0
 15  3  1  0  0  0  0
 16 11  1  0  0  0  0
 17 21  1  0  0  0  0
 18 17  1  0  0  0  0
 18 20  1  0  0  0  0
 19 21  1  6  0  0  0
 19 14  1  0  0  0  0
 20 22  1  0  0  0  0
 22 19  1  0  0  0  0
 23 17  2  0  0  0  0
 25 24  1  0  0  0  0
 27 25  1  0  0  0  0
 27 26  2  0  0  0  0
 29 26  1  6  0  0  0
 29 30  1  0  0  0  0
 30 28  2  0  0  0  0
 31 34  2  0  0  0  0
 32 33  2  0  0  0  0
 32 31  1  0  0  0  0
 33 29  1  0  0  0  0
 34 30  1  0  0  0  0
M  END
>  <MODEL>
5

>  <REMARK>
 VINA RESULT:      -7.5      3.143      6.036
  Name = 
  5 active torsions:
  status: ('A' for Active; 'I' for Inactive)
    1  A    between atoms: C_3  and  C_13
    2  A    between atoms: C_5  and  C_18
    3  A    between atoms: C_12  and  C_28
    4  A    between atoms: N_17  and  C_29
    5  A    between atoms: C_18  and  C_29
                            x       y       z     vdW  Elec       q    Type
                         _______ _______ _______ _____ _____    ______ ____

>  <TORSDO>
F 5

$$$$
=
 OpenBabel11062408003D

 34 38  0  0  1  0  0  0  0  0999 V2000
  161.1360  207.3770  154.4440 C   0  0  0  0  0  0  0  0  0  0  0  0
  160.0130  209.5910  154.3600 C   0  0  0  0  0  3  0  0  0  0  0  0
  161.4810  208.8700  152.4850 N   0  0  0  0  0  0  0  0  0  0  0  0
  162.1280  210.1510  150.3930 C   0  0  2  0  0  3  0  0  0  0  0  0
  159.7010  208.0750  156.2640 C   0  0  0  0  0  3  0  0  0  0  0  0
  158.3220  210.0660  155.8880 F   0  0  0  0  0  0  0  0  0  0  0  0
  161.4780  211.2210  152.4490 O   0  0  0  0  0  0  0  0  0  0  0  0
  161.2240  208.7980  153.9340 C   0  0  2  0  0  3  0  0  0  0  0  0
  160.5320  207.1540  155.7660 C   0  0  0  0  0  3  0  0  0  0  0  0
  161.9280  207.7040  151.7640 C   0  0  0  0  0  0  0  0  0  0  0  0
  161.5530  206.3720  153.7380 N   0  0  0  0  0  0  0  0  0  0  0  0
  159.3590  209.2900  155.4880 C   0  0  0  0  0  0  0  0  0  0  0  0
  161.7290  208.9680  149.7380 O   0  0  0  0  0  0  0  0  0  0  0  0
  162.4160  207.8910  150.3350 C   0  0  2  0  0  3  0  0  0  0  0  0
  161.6400  210.1400  151.8220 C   0  0  0  0  0  0  0  0  0  0  0  0
  162.0110  206.5250  152.3900 C   0  0  0  0  0  3  0  0  0  0  0  0
  160.9180  204.6720  148.8290 C   0  0  0  0  0  0  0  0  0  0  0  0
  161.0870  204.9260  147.3590 C   0  0  0  0  0  2  0  0  0  0  0  0
  162.2890  206.6570  149.4330 C   0  0  1  0  0  3  0  0  0  0  0  0
  161.2760  206.4160  147.0830 C   0  0  0  0  0  2  0  0  0  0  0  0
  161.0850  205.7890  149.8140 C   0  0  0  0  0  2  0  0  0  0  0  0
  162.4110  206.9940  147.9310 C   0  0  0  0  0  2  0  0  0  0  0  0
  160.6250  203.5550  149.2210 O   0  0  0  0  0  0  0  0  0  0  0  0
  161.5820  211.3540  149.6390 C   0  0  0  0  0  2  0  0  0  0  0  0
  162.4780  211.6830  148.4550 C   0  0  0  0  0  2  0  0  0  0  0  0
  160.5570  212.0490  147.0790 C   0  0  0  0  0  3  0  0  0  0  0  0
  161.7350  212.4320  147.4550 N   0  0  0  0  0  0  0  0  0  0  0  0
  157.7150  212.5660  147.1310 O   0  0  0  0  0  0  0  0  0  0  0  0
  159.7740  212.7800  146.0670 C   0  0  2  0  0  3  0  0  0  0  0  0
  158.3810  212.9980  146.1540 C   0  0  0  0  0  0  0  0  0  0  0  0
  158.4040  214.1770  144.0880 C   0  0  0  0  0  3  0  0  0  0  0  0
  159.7790  213.9830  143.9640 C   0  0  0  0  0  3  0  0  0  0  0  0
  160.4610  213.2820  144.9590 C   0  0  0  0  0  3  0  0  0  0  0  0
  157.7420  213.6860  145.1690 N   0  0  0  0  0  0  0  0  0  0  0  0
  1  9  1  0  0  0  0
  2 12  2  0  0  0  0
  3  8  1  0  0  0  0
  4 24  1  6  0  0  0
  4 15  1  0  0  0  0
  8  2  1  6  0  0  0
  8  1  1  0  0  0  0
  9  5  2  0  0  0  0
 10 16  2  0  0  0  0
 10  3  1  0  0  0  0
 11  1  2  0  0  0  0
 12  6  1  0  0  0  0
 12  5  1  0  0  0  0
 13  4  1  0  0  0  0
 14 13  1  6  0  0  0
 14 10  1  0  0  0  0
 15  7  2  0  0  0  0
 15  3  1  0  0  0  0
 16 11  1  0  0  0  0
 17 23  2  0  0  0  0
 17 21  1  0  0  0  0
 18 17  1  0  0  0  0
 19 22  1  6  0  0  0
 19 21  1  0  0  0  0
 19 14  1  0  0  0  0
 20 18  1  0  0  0  0
 20 22  1  0  0  0  0
 25 24  1  0  0  0  0
 26 27  2  0  0  0  0
 27 25  1  0  0  0  0
 29 30  1  0  0  0  0
 29 26  1  6  0  0  0
 30 28  2  0  0  0  0
 31 34  2  0  0  0  0
 32 31  1  0  0  0  0
 32 33  2  0  0  0  0
 33 29  1  0  0  0  0
 34 30  1  0  0  0  0
M  END
>  <MODEL>
6

>  <REMARK>
 VINA RESULT:      -7.5      3.728      5.416
  Name = 
  5 active torsions:
  status: ('A' for Active; 'I' for Inactive)
    1  A    between atoms: C_3  and  C_13
    2  A    between atoms: C_5  and  C_18
    3  A    between atoms: C_12  and  C_28
    4  A    between atoms: N_17  and  C_29
    5  A    between atoms: C_18  and  C_29
                            x       y       z     vdW  Elec       q    Type
                         _______ _______ _______ _____ _____    ______ ____

>  <TORSDO>
F 5

$$$$
=
 OpenBabel11062408003D

 34 38  0  0  1  0  0  0  0  0999 V2000
  160.7270  204.2540  150.1940 C   0  0  0  0  0  0  0  0  0  0  0  0
  161.9390  205.5160  148.4300 C   0  0  0  0  0  3  0  0  0  0  0  0
  161.1440  206.6890  150.4750 N   0  0  0  0  0  0  0  0  0  0  0  0
  161.3080  209.1540  151.0550 C   0  0  2  0  0  3  0  0  0  0  0  0
  161.5080  203.1110  148.2080 C   0  0  0  0  0  3  0  0  0  0  0  0
  163.0450  204.3430  146.7510 F   0  0  0  0  0  0  0  0  0  0  0  0
  161.2940  208.3280  148.7940 O   0  0  0  0  0  0  0  0  0  0  0  0
  160.8970  205.5970  149.5190 C   0  0  0  0  0  0  0  0  0  0  0  0
  160.8400  203.0450  149.3650 C   0  0  0  0  0  2  0  0  0  0  0  0
  160.8970  206.4980  151.8830 C   0  0  0  0  0  0  0  0  0  0  0  0
  160.5130  204.1540  151.4690 N   0  0  0  0  0  0  0  0  0  0  0  0
  162.1590  204.3690  147.7760 C   0  0  0  0  0  0  0  0  0  0  0  0
  161.8350  208.6680  152.2700 O   0  0  0  0  0  0  0  0  0  0  0  0
  160.9270  207.7210  152.7870 C   0  0  2  0  0  3  0  0  0  0  0  0
  161.2890  208.0510  150.0240 C   0  0  0  0  0  0  0  0  0  0  0  0
  160.5420  205.2920  152.3380 C   0  0  0  0  0  3  0  0  0  0  0  0
  161.8430  208.4300  156.4650 C   0  0  0  0  0  0  0  0  0  0  0  0
  160.9100  207.5020  157.1880 C   0  0  0  0  0  2  0  0  0  0  0  0
  161.2770  207.4430  154.2540 C   0  0  1  0  0  3  0  0  0  0  0  0
  159.7450  207.0940  156.2880 C   0  0  0  0  0  2  0  0  0  0  0  0
  161.6410  208.7260  155.0100 C   0  0  0  0  0  2  0  0  0  0  0  0
  160.2470  206.5320  154.9560 C   0  0  0  0  0  2  0  0  0  0  0  0
  162.7580  208.9620  157.0710 O   0  0  0  0  0  0  0  0  0  0  0  0
  162.1440  210.3320  150.5780 C   0  0  0  0  0  2  0  0  0  0  0  0
  161.3440  211.6210  150.6860 C   0  0  0  0  0  2  0  0  0  0  0  0
  160.1150  212.1290  152.6730 C   0  0  0  0  0  3  0  0  0  0  0  0
  160.2150  211.4380  151.5830 N   0  0  0  0  0  0  0  0  0  0  0  0
  157.5810  213.5140  152.5790 O   0  0  0  0  0  0  0  0  0  0  0  0
  158.9890  211.9710  153.6090 C   0  0  2  0  0  3  0  0  0  0  0  0
  157.7720  212.6820  153.5060 C   0  0  0  0  0  0  0  0  0  0  0  0
  156.9290  211.5870  155.4420 C   0  0  0  0  0  3  0  0  0  0  0  0
  158.1140  210.8650  155.5800 C   0  0  0  0  0  3  0  0  0  0  0  0
  159.1430  211.0620  154.6590 C   0  0  0  0  0  3  0  0  0  0  0  0
  156.7850  212.4700  154.4180 N   0  0  0  0  0  0  0  0  0  0  0  0
  1 11  2  0  0  0  0
  2  8  2  0  0  0  0
  3 10  1  0  0  0  0
  4 24  1  6  0  0  0
  4 13  1  0  0  0  0
  5  9  1  0  0  0  0
  6 12  1  0  0  0  0
  7 15  2  0  0  0  0
  8  1  1  0  0  0  0
  8  3  1  0  0  0  0
  9  1  1  0  0  0  0
 10 16  2  0  0  0  0
 11 16  1  0  0  0  0
 12  5  2  0  0  0  0
 12  2  1  0  0  0  0
 13 14  1  0  0  0  0
 14 10  1  6  0  0  0
 14 19  1  0  0  0  0
 15  3  1  0  0  0  0
 15  4  1  0  0  0  0
 17 23  2  0  0  0  0
 17 18  1  0  0  0  0
 19 22  1  1  0  0  0
 19 21  1  0  0  0  0
 20 18  1  0  0  0  0
 21 17  1  0  0  0  0
 22 20  1  0  0  0  0
 24 25  1  0  0  0  0
 25 27  1  0  0  0  0
 27 26  2  0  0  0  0
 28 30  2  0  0  0  0
 29 26  1  1  0  0  0
 29 33  1  0  0  0  0
 30 29  1  0  0  0  0
 30 34  1  0  0  0  0
 31 32  1  0  0  0  0
 33 32  2  0  0  0  0
 34 31  2  0  0  0  0
M  END
>  <MODEL>
7

>  <REMARK>
 VINA RESULT:      -7.5      3.326      8.202
  Name = 
  5 active torsions:
  status: ('A' for Active; 'I' for Inactive)
    1  A    between atoms: C_3  and  C_13
    2  A    between atoms: C_5  and  C_18
    3  A    between atoms: C_12  and  C_28
    4  A    between atoms: N_17  and  C_29
    5  A    between atoms: C_18  and  C_29
                            x       y       z     vdW  Elec       q    Type
                         _______ _______ _______ _____ _____    ______ ____

>  <TORSDO>
F 5

$$$$
=
 OpenBabel11062408003D

 34 38  0  0  1  0  0  0  0  0999 V2000
  160.6690  207.9740  154.7800 C   0  0  0  0  0  0  0  0  0  0  0  0
  160.5000  210.1840  153.6570 C   0  0  0  0  0  3  0  0  0  0  0  0
  161.3670  208.2160  152.4050 N   0  0  0  0  0  0  0  0  0  0  0  0
  162.2460  208.1090  150.0270 C   0  0  2  0  0  3  0  0  0  0  0  0
  159.8180  209.8870  155.9950 C   0  0  0  0  0  3  0  0  0  0  0  0
  159.2980  211.8920  154.6850 F   0  0  0  0  0  0  0  0  0  0  0  0
  162.2820  210.1130  151.3600 O   0  0  0  0  0  0  0  0  0  0  0  0
  161.2530  208.8770  153.7160 C   0  0  2  0  0  3  0  0  0  0  0  0
  160.1650  208.5960  156.0130 C   0  0  0  0  0  3  0  0  0  0  0  0
  161.2450  206.7830  152.2960 C   0  0  0  0  0  0  0  0  0  0  0  0
  160.5840  206.6910  154.6130 N   0  0  0  0  0  0  0  0  0  0  0  0
  159.9010  210.6800  154.7460 C   0  0  0  0  0  0  0  0  0  0  0  0
  161.3500  207.0250  149.9150 O   0  0  0  0  0  0  0  0  0  0  0  0
  161.6170  206.1320  150.9730 C   0  0  2  0  0  3  0  0  0  0  0  0
  161.9410  208.9020  151.2750 C   0  0  0  0  0  0  0  0  0  0  0  0
  160.9240  206.0590  153.3740 C   0  0  0  0  0  3  0  0  0  0  0  0
  160.7830  202.8280  149.1670 C   0  0  0  0  0  0  0  0  0  0  0  0
  160.7280  201.8660  150.3190 C   0  0  0  0  0  2  0  0  0  0  0  0
  160.9250  204.7940  150.6840 C   0  0  1  0  0  3  0  0  0  0  0  0
  161.4650  202.4290  151.5320 C   0  0  0  0  0  2  0  0  0  0  0  0
  161.3770  204.1930  149.3480 C   0  0  0  0  0  2  0  0  0  0  0  0
  160.9560  203.8280  151.8880 C   0  0  0  0  0  2  0  0  0  0  0  0
  160.3610  202.4900  148.0740 O   0  0  0  0  0  0  0  0  0  0  0  0
  162.1400  208.9820  148.7860 C   0  0  0  0  0  2  0  0  0  0  0  0
  161.9170  210.4320  149.1830 C   0  0  0  0  0  2  0  0  0  0  0  0
  162.0680  212.1690  147.5460 C   0  0  0  0  0  3  0  0  0  0  0  0
  161.3950  211.1880  148.0560 N   0  0  0  0  0  0  0  0  0  0  0  0
  159.3530  213.0540  147.1040 O   0  0  0  0  0  0  0  0  0  0  0  0
  161.5720  212.9590  146.4060 C   0  0  2  0  0  3  0  0  0  0  0  0
  160.2270  213.3600  146.2500 C   0  0  0  0  0  0  0  0  0  0  0  0
  160.7550  214.4530  144.2040 C   0  0  0  0  0  3  0  0  0  0  0  0
  162.0930  214.0770  144.3200 C   0  0  0  0  0  3  0  0  0  0  0  0
  162.4970  213.3280  145.4250 C   0  0  0  0  0  3  0  0  0  0  0  0
  159.8600  214.0900  145.1620 N   0  0  0  0  0  0  0  0  0  0  0  0
  1  9  1  0  0  0  0
  2 12  2  0  0  0  0
  3  8  1  0  0  0  0
  4 24  1  6  0  0  0
  4 15  1  0  0  0  0
  5  9  2  0  0  0  0
  6 12  1  0  0  0  0
  8  2  1  6  0  0  0
  8  1  1  0  0  0  0
 10  3  1  0  0  0  0
 10 16  2  0  0  0  0
 11  1  2  0  0  0  0
 12  5  1  0  0  0  0
 13  4  1  0  0  0  0
 14 13  1  6  0  0  0
 14 10  1  0  0  0  0
 15  7  2  0  0  0  0
 15  3  1  0  0  0  0
 16 11  1  0  0  0  0
 17 21  1  0  0  0  0
 17 18  1  0  0  0  0
 18 20  1  0  0  0  0
 19 21  1  6  0  0  0
 19 14  1  0  0  0  0
 19 22  1  0  0  0  0
 20 22  1  0  0  0  0
 23 17  2  0  0  0  0
 24 25  1  0  0  0  0
 26 27  2  0  0  0  0
 27 25  1  0  0  0  0
 29 26  1  6  0  0  0
 30 29  1  0  0  0  0
 30 28  2  0  0  0  0
 31 32  1  0  0  0  0
 31 34  2  0  0  0  0
 32 33  2  0  0  0  0
 33 29  1  0  0  0  0
 34 30  1  0  0  0  0
M  END
>  <MODEL>
8

>  <REMARK>
 VINA RESULT:      -7.2      3.255      4.883
  Name = 
  5 active torsions:
  status: ('A' for Active; 'I' for Inactive)
    1  A    between atoms: C_3  and  C_13
    2  A    between atoms: C_5  and  C_18
    3  A    between atoms: C_12  and  C_28
    4  A    between atoms: N_17  and  C_29
    5  A    between atoms: C_18  and  C_29
                            x       y       z     vdW  Elec       q    Type
                         _______ _______ _______ _____ _____    ______ ____

>  <TORSDO>
F 5

$$$$
=
 OpenBabel11062408003D

 34 38  0  0  1  0  0  0  0  0999 V2000
  161.4500  206.6130  153.0800 C   0  0  0  0  0  0  0  0  0  0  0  0
  160.7100  208.9590  153.4270 C   0  0  0  0  0  3  0  0  0  0  0  0
  161.6930  208.2750  151.2460 N   0  0  0  0  0  0  0  0  0  0  0  0
  162.1720  209.7020  149.2030 C   0  0  2  0  0  3  0  0  0  0  0  0
  160.4860  207.2770  155.1990 C   0  0  0  0  0  3  0  0  0  0  0  0
  159.4100  209.4770  155.2870 F   0  0  0  0  0  0  0  0  0  0  0  0
  162.0710  210.5880  151.4400 O   0  0  0  0  0  0  0  0  0  0  0  0
  161.6810  208.0590  152.7030 C   0  0  2  0  0  3  0  0  0  0  0  0
  161.0550  206.3150  154.4650 C   0  0  0  0  0  3  0  0  0  0  0  0
  161.8110  207.1570  150.3430 C   0  0  0  0  0  0  0  0  0  0  0  0
  161.5670  205.6550  152.2130 N   0  0  0  0  0  0  0  0  0  0  0  0
  160.2200  208.6160  154.6240 C   0  0  0  0  0  0  0  0  0  0  0  0
  161.4760  208.6800  148.5250 O   0  0  0  0  0  0  0  0  0  0  0  0
  162.0680  207.4490  148.8730 C   0  0  2  0  0  3  0  0  0  0  0  0
  161.9420  209.5820  150.6910 C   0  0  0  0  0  0  0  0  0  0  0  0
  161.8050  205.9090  150.8240 C   0  0  0  0  0  3  0  0  0  0  0  0
  160.4750  205.9000  145.7210 C   0  0  0  0  0  0  0  0  0  0  0  0
  161.4920  204.8570  145.3560 C   0  0  0  0  0  2  0  0  0  0  0  0
  161.5860  206.3700  147.8960 C   0  0  1  0  0  3  0  0  0  0  0  0
  162.8410  205.1650  146.0030 C   0  0  0  0  0  2  0  0  0  0  0  0
  160.8090  206.9680  146.7180 C   0  0  0  0  0  2  0  0  0  0  0  0
  162.6950  205.3660  147.5140 C   0  0  0  0  0  2  0  0  0  0  0  0
  159.3770  205.8880  145.1890 O   0  0  0  0  0  0  0  0  0  0  0  0
  161.7090  211.0560  148.6880 C   0  0  0  0  0  2  0  0  0  0  0  0
  162.8850  211.8260  148.1070 C   0  0  0  0  0  2  0  0  0  0  0  0
  162.6190  213.3790  146.3080 C   0  0  0  0  0  3  0  0  0  0  0  0
  162.6350  212.1490  146.7120 N   0  0  0  0  0  0  0  0  0  0  0  0
  160.0480  213.5710  145.0050 O   0  0  0  0  0  0  0  0  0  0  0  0
  162.3670  213.7460  144.9040 C   0  0  1  0  0  3  0  0  0  0  0  0
  161.0790  213.8220  144.3280 C   0  0  0  0  0  0  0  0  0  0  0  0
  162.0170  214.4530  142.2350 C   0  0  0  0  0  3  0  0  0  0  0  0
  163.3060  214.3900  142.7650 C   0  0  0  0  0  3  0  0  0  0  0  0
  163.4750  214.0350  144.1030 C   0  0  0  0  0  3  0  0  0  0  0  0
  160.9430  214.1710  143.0200 N   0  0  0  0  0  0  0  0  0  0  0  0
  1  9  1  0  0  0  0
  2 12  2  0  0  0  0
  3  8  1  0  0  0  0
  4 24  1  6  0  0  0
  4 15  1  0  0  0  0
  8  1  1  0  0  0  0
  8  2  1  1  0  0  0
  9  5  2  0  0  0  0
 10 16  2  0  0  0  0
 10  3  1  0  0  0  0
 11  1  2  0  0  0  0
 12  5  1  0  0  0  0
 12  6  1  0  0  0  0
 13  4  1  0  0  0  0
 14 13  1  6  0  0  0
 14 10  1  0  0  0  0
 15  3  1  0  0  0  0
 15  7  2  0  0  0  0
 16 11  1  0  0  0  0
 17 21  1  0  0  0  0
 18 17  1  0  0  0  0
 18 20  1  0  0  0  0
 19 21  1  6  0  0  0
 19 14  1  0  0  0  0
 20 22  1  0  0  0  0
 22 19  1  0  0  0  0
 23 17  2  0  0  0  0
 25 24  1  0  0  0  0
 26 27  2  0  0  0  0
 27 25  1  0  0  0  0
 29 26  1  1  0  0  0
 30 29  1  0  0  0  0
 30 28  2  0  0  0  0
 31 32  1  0  0  0  0
 31 34  2  0  0  0  0
 32 33  2  0  0  0  0
 33 29  1  0  0  0  0
 34 30  1  0  0  0  0
M  END
>  <MODEL>
9

>  <REMARK>
 VINA RESULT:      -7.2      4.067      5.983
  Name = 
  5 active torsions:
  status: ('A' for Active; 'I' for Inactive)
    1  A    between atoms: C_3  and  C_13
    2  A    between atoms: C_5  and  C_18
    3  A    between atoms: C_12  and  C_28
    4  A    between atoms: N_17  and  C_29
    5  A    between atoms: C_18  and  C_29
                            x       y       z     vdW  Elec       q    Type
                         _______ _______ _______ _____ _____    ______ ____

>  <TORSDO>
F 5

$$$$
