=
 OpenBabel11052422093D

 25 27  0  0  1  0  0  0  0  0999 V2000
  161.6470  207.4650  151.1450 C   0  0  1  0  0  3  0  0  0  0  0  0
  160.1390  206.1540  147.8060 S   0  0  0  0  0  0  0  0  0  0  0  0
  162.9160  206.1970  148.2580 C   0  0  0  0  0  3  0  0  0  0  0  0
  160.1060  206.5710  149.5800 C   0  0  0  0  0  2  0  0  0  0  0  0
  161.7900  208.3810  149.0730 C   0  0  1  0  0  0  0  0  0  0  0  0
  162.2390  209.7590  149.5630 C   0  0  0  0  0  1  0  0  0  0  0  0
  161.8430  205.5310  147.7830 C   0  0  0  0  0  0  0  0  0  0  0  0
  162.9740  206.9510  150.5900 C   0  0  0  0  0  2  0  0  0  0  0  0
  161.3070  208.5840  147.7780 O   0  0  0  0  0  1  0  0  0  0  0  0
  162.9830  207.4260  149.1400 C   0  0  1  0  0  3  0  0  0  0  0  0
  160.7830  207.8260  150.0070 N   0  0  2  0  0  0  0  0  0  0  0  0
  160.9880  206.6480  152.2760 C   0  0  1  0  0  3  0  0  0  0  0  0
  161.6640  205.3080  152.5510 C   0  0  0  0  0  1  0  0  0  0  0  0
  160.8230  207.4620  153.5240 C   0  0  0  0  0  0  0  0  0  0  0  0
  160.4890  208.8860  155.9180 C   0  0  0  0  0  3  0  0  0  0  0  0
  160.5890  208.8520  153.4970 C   0  0  0  0  0  0  0  0  0  0  0  0
  160.4260  209.5560  154.6930 C   0  0  0  0  0  3  0  0  0  0  0  0
  160.7160  207.5080  155.9490 C   0  0  0  0  0  3  0  0  0  0  0  0
  160.5260  209.5270  152.3220 F   0  0  0  0  0  0  0  0  0  0  0  0
  160.8820  206.8000  154.7560 C   0  0  0  0  0  3  0  0  0  0  0  0
  162.1200  204.2340  147.0840 C   0  0  1  0  0  3  0  0  0  0  0  0
  161.4750  203.0630  147.8060 C   0  0  0  0  0  1  0  0  0  0  0  0
  161.7090  204.2810  145.6470 C   0  0  0  0  0  0  0  0  0  0  0  0
  162.0740  205.3510  144.8390 O   0  0  0  0  0  0  0  0  0  0  0  0
  161.0460  203.3300  145.1590 O   0  0  0  0  0  1  0  0  0  0  0  0
  1 12  1  6  0  0  0
  2  4  1  0  0  0  0
  5 10  1  0  0  0  0
  5  6  1  1  0  0  0
  5 11  1  0  0  0  0
  7  2  1  0  0  0  0
  7  3  2  0  0  0  0
  8  1  1  0  0  0  0
  9  5  1  0  0  0  0
 10  3  1  6  0  0  0
 10  8  1  0  0  0  0
 11  4  1  6  0  0  0
 11  1  1  0  0  0  0
 12 13  1  1  0  0  0
 12 14  1  0  0  0  0
 14 20  1  0  0  0  0
 15 18  1  0  0  0  0
 16 14  2  0  0  0  0
 16 17  1  0  0  0  0
 17 15  2  0  0  0  0
 19 16  1  0  0  0  0
 20 18  2  0  0  0  0
 21  7  1  0  0  0  0
 21 22  1  1  0  0  0
 23 21  1  0  0  0  0
 24 23  2  0  0  0  0
 25 23  1  0  0  0  0
M  END
>  <MODEL>
1

>  <REMARK>
 VINA RESULT:      -5.2      0.000      0.000
  Name = 
  4 active torsions:
  status: ('A' for Active; 'I' for Inactive)
    1  A    between atoms: C_1  and  C_3
    2  A    between atoms: C_1  and  C_5
    3  A    between atoms: C_2  and  C_21
    4  A    between atoms: C_15  and  C_21
                            x       y       z     vdW  Elec       q    Type
                         _______ _______ _______ _____ _____    ______ ____

>  <TORSDO>
F 4

$$$$
=
 OpenBabel11052422093D

 25 27  0  0  1  0  0  0  0  0999 V2000
  159.7990  210.9200  153.3960 C   0  0  1  0  0  3  0  0  0  0  0  0
  159.1030  214.0730  155.5680 S   0  0  0  0  0  0  0  0  0  0  0  0
  157.0940  212.8900  153.9930 C   0  0  0  0  0  3  0  0  0  0  0  0
  160.0010  212.5570  155.1000 C   0  0  0  0  0  2  0  0  0  0  0  0
  159.3390  213.0350  152.7120 C   0  0  1  0  0  0  0  0  0  0  0  0
  159.8270  212.8240  151.2770 C   0  0  0  0  0  1  0  0  0  0  0  0
  157.4460  213.4510  155.1680 C   0  0  0  0  0  0  0  0  0  0  0  0
  158.2920  210.9240  153.1500 C   0  0  0  0  0  2  0  0  0  0  0  0
  159.3290  214.4190  152.9030 O   0  0  0  0  0  1  0  0  0  0  0  0
  157.9630  212.3850  152.8590 C   0  0  1  0  0  3  0  0  0  0  0  0
  160.2260  212.3080  153.6500 N   0  0  2  0  0  0  0  0  0  0  0  0
  160.3590  209.8440  154.3500 C   0  0  1  0  0  3  0  0  0  0  0  0
  159.4430  209.5180  155.5260 C   0  0  0  0  0  1  0  0  0  0  0  0
  160.7820  208.6120  153.6070 C   0  0  0  0  0  0  0  0  0  0  0  0
  161.5230  206.3520  152.1200 C   0  0  0  0  0  3  0  0  0  0  0  0
  161.1000  207.4040  154.2610 C   0  0  0  0  0  0  0  0  0  0  0  0
  161.4710  206.2830  153.5140 C   0  0  0  0  0  3  0  0  0  0  0  0
  161.2040  207.5450  151.4670 C   0  0  0  0  0  3  0  0  0  0  0  0
  161.0610  207.3110  155.6130 F   0  0  0  0  0  0  0  0  0  0  0  0
  160.8340  208.6700  152.2090 C   0  0  0  0  0  3  0  0  0  0  0  0
  156.3420  213.6730  156.1580 C   0  0  1  0  0  3  0  0  0  0  0  0
  155.1070  214.2560  155.4940 C   0  0  0  0  0  1  0  0  0  0  0  0
  156.0180  212.4250  156.9140 C   0  0  0  0  0  0  0  0  0  0  0  0
  157.0180  211.5250  157.2610 O   0  0  0  0  0  0  0  0  0  0  0  0
  154.8300  212.1990  157.2610 O   0  0  0  0  0  1  0  0  0  0  0  0
  1 11  1  0  0  0  0
  1 12  1  1  0  0  0
  3  7  2  0  0  0  0
  4  2  1  0  0  0  0
  5  6  1  6  0  0  0
  5 10  1  0  0  0  0
  5  9  1  0  0  0  0
  5 11  1  0  0  0  0
  7  2  1  0  0  0  0
  7 21  1  0  0  0  0
  8  1  1  0  0  0  0
 10  8  1  1  0  0  0
 10  3  1  0  0  0  0
 11  4  1  1  0  0  0
 12 13  1  1  0  0  0
 14 16  1  0  0  0  0
 14 12  1  0  0  0  0
 15 17  1  0  0  0  0
 16 19  1  0  0  0  0
 17 16  2  0  0  0  0
 18 15  2  0  0  0  0
 18 20  1  0  0  0  0
 20 14  2  0  0  0  0
 21 22  1  6  0  0  0
 21 23  1  0  0  0  0
 23 24  2  0  0  0  0
 23 25  1  0  0  0  0
M  END
>  <MODEL>
2

>  <REMARK>
 VINA RESULT:      -4.8      5.511      8.929
  Name = 
  4 active torsions:
  status: ('A' for Active; 'I' for Inactive)
    1  A    between atoms: C_1  and  C_3
    2  A    between atoms: C_1  and  C_5
    3  A    between atoms: C_2  and  C_21
    4  A    between atoms: C_15  and  C_21
                            x       y       z     vdW  Elec       q    Type
                         _______ _______ _______ _____ _____    ______ ____

>  <TORSDO>
F 4

$$$$
=
 OpenBabel11052422093D

 25 27  0  0  1  0  0  0  0  0999 V2000
  161.2210  204.9240  149.4100 C   0  0  1  0  0  3  0  0  0  0  0  0
  162.8580  206.7520  152.4310 S   0  0  0  0  0  0  0  0  0  0  0  0
  160.4630  207.6670  151.2700 C   0  0  0  0  0  3  0  0  0  0  0  0
  162.5370  205.3260  151.3420 C   0  0  0  0  0  2  0  0  0  0  0  0
  162.1870  206.9770  149.4660 C   0  0  1  0  0  0  0  0  0  0  0  0
  162.3330  207.1020  147.9480 C   0  0  0  0  0  1  0  0  0  0  0  0
  161.1680  207.4120  152.3920 C   0  0  0  0  0  0  0  0  0  0  0  0
  160.0580  205.8890  149.6310 C   0  0  0  0  0  2  0  0  0  0  0  0
  163.0820  207.9060  150.0040 O   0  0  0  0  0  1  0  0  0  0  0  0
  160.7280  207.2430  149.8400 C   0  0  1  0  0  3  0  0  0  0  0  0
  162.4560  205.5800  149.8780 N   0  0  2  0  0  0  0  0  0  0  0  0
  161.0170  203.4570  149.8430 C   0  0  1  0  0  3  0  0  0  0  0  0
  159.7770  203.2290  150.7020 C   0  0  0  0  0  1  0  0  0  0  0  0
  161.0710  202.5220  148.6710 C   0  0  0  0  0  0  0  0  0  0  0  0
  161.1220  200.8590  146.4130 C   0  0  0  0  0  3  0  0  0  0  0  0
  161.1900  201.1260  148.8210 C   0  0  0  0  0  0  0  0  0  0  0  0
  161.2170  200.3030  147.6910 C   0  0  0  0  0  3  0  0  0  0  0  0
  160.9990  202.2420  146.2610 C   0  0  0  0  0  3  0  0  0  0  0  0
  161.2870  200.5610  150.0490 F   0  0  0  0  0  0  0  0  0  0  0  0
  160.9730  203.0690  147.3860 C   0  0  0  0  0  3  0  0  0  0  0  0
  160.5320  207.8220  153.6860 C   0  0  1  0  0  3  0  0  0  0  0  0
  160.5470  206.6900  154.6990 C   0  0  0  0  0  1  0  0  0  0  0  0
  161.1580  209.0600  154.2430 C   0  0  0  0  0  0  0  0  0  0  0  0
  161.5410  209.1230  155.5770 O   0  0  0  0  0  1  0  0  0  0  0  0
  161.3640  210.0450  153.4890 O   0  0  0  0  0  0  0  0  0  0  0  0
  1  8  1  0  0  0  0
  1 12  1  1  0  0  0
  1 11  1  0  0  0  0
  3  7  2  0  0  0  0
  4  2  1  0  0  0  0
  5  6  1  6  0  0  0
  5 10  1  0  0  0  0
  5 11  1  0  0  0  0
  5  9  1  0  0  0  0
  7  2  1  0  0  0  0
  7 21  1  0  0  0  0
 10  8  1  1  0  0  0
 10  3  1  0  0  0  0
 11  4  1  1  0  0  0
 12 13  1  6  0  0  0
 14 16  1  0  0  0  0
 14 12  1  0  0  0  0
 15 17  1  0  0  0  0
 16 19  1  0  0  0  0
 17 16  2  0  0  0  0
 18 15  2  0  0  0  0
 18 20  1  0  0  0  0
 20 14  2  0  0  0  0
 21 23  1  0  0  0  0
 21 22  1  1  0  0  0
 23 24  1  0  0  0  0
 25 23  2  0  0  0  0
M  END
>  <MODEL>
3

>  <REMARK>
 VINA RESULT:      -4.8      3.349      7.272
  Name = 
  4 active torsions:
  status: ('A' for Active; 'I' for Inactive)
    1  A    between atoms: C_1  and  C_3
    2  A    between atoms: C_1  and  C_5
    3  A    between atoms: C_2  and  C_21
    4  A    between atoms: C_15  and  C_21
                            x       y       z     vdW  Elec       q    Type
                         _______ _______ _______ _____ _____    ______ ____

>  <TORSDO>
F 4

$$$$
=
 OpenBabel11052422093D

 25 27  0  0  1  0  0  0  0  0999 V2000
  161.2600  209.1510  153.7720 C   0  0  1  0  0  3  0  0  0  0  0  0
  157.9590  210.5740  155.2620 S   0  0  0  0  0  0  0  0  0  0  0  0
  160.3990  211.9600  155.4820 C   0  0  0  0  0  3  0  0  0  0  0  0
  158.9490  209.5350  154.1380 C   0  0  0  0  0  2  0  0  0  0  0  0
  160.6990  209.4320  155.9530 C   0  0  1  0  0  0  0  0  0  0  0  0
  161.7970  208.5150  156.4970 C   0  0  0  0  0  1  0  0  0  0  0  0
  159.0730  212.0070  155.2360 C   0  0  0  0  0  0  0  0  0  0  0  0
  161.8550  210.5060  154.1500 C   0  0  0  0  0  2  0  0  0  0  0  0
  159.7590  209.5390  156.9820 O   0  0  0  0  0  1  0  0  0  0  0  0
  161.3300  210.7670  155.5570 C   0  0  1  0  0  3  0  0  0  0  0  0
  160.1520  208.8630  154.7000 N   0  0  2  0  0  0  0  0  0  0  0  0
  160.9900  208.8880  152.2760 C   0  0  1  0  0  3  0  0  0  0  0  0
  161.7850  209.7850  151.3320 C   0  0  0  0  0  1  0  0  0  0  0  0
  161.1400  207.4360  151.9330 C   0  0  0  0  0  0  0  0  0  0  0  0
  161.3490  204.7360  151.2000 C   0  0  0  0  0  3  0  0  0  0  0  0
  161.5700  206.4760  152.8730 C   0  0  0  0  0  0  0  0  0  0  0  0
  161.6730  205.1330  152.4990 C   0  0  0  0  0  3  0  0  0  0  0  0
  160.9180  205.6830  150.2680 C   0  0  0  0  0  3  0  0  0  0  0  0
  161.8940  206.8350  154.1390 F   0  0  0  0  0  0  0  0  0  0  0  0
  160.8140  207.0270  150.6350 C   0  0  0  0  0  3  0  0  0  0  0  0
  158.4780  213.3700  155.0450 C   0  0  1  0  0  3  0  0  0  0  0  0
  159.3400  214.4480  155.6810 C   0  0  0  0  0  1  0  0  0  0  0  0
  158.2160  213.6620  153.6030 C   0  0  0  0  0  0  0  0  0  0  0  0
  159.2560  213.6750  152.6810 O   0  0  0  0  0  0  0  0  0  0  0  0
  157.0380  213.8730  153.2150 O   0  0  0  0  0  1  0  0  0  0  0  0
  1 12  1  6  0  0  0
  1  8  1  0  0  0  0
  1 11  1  0  0  0  0
  3 10  1  0  0  0  0
  4  2  1  0  0  0  0
  5  6  1  1  0  0  0
  5  9  1  0  0  0  0
  7  2  1  0  0  0  0
  7  3  2  0  0  0  0
 10  8  1  6  0  0  0
 10  5  1  0  0  0  0
 11  4  1  6  0  0  0
 11  5  1  0  0  0  0
 12 13  1  6  0  0  0
 14 12  1  0  0  0  0
 14 16  1  0  0  0  0
 15 17  1  0  0  0  0
 16 19  1  0  0  0  0
 17 16  2  0  0  0  0
 18 20  1  0  0  0  0
 18 15  2  0  0  0  0
 20 14  2  0  0  0  0
 21  7  1  0  0  0  0
 21 22  1  6  0  0  0
 23 21  1  0  0  0  0
 24 23  2  0  0  0  0
 25 23  1  0  0  0  0
M  END
>  <MODEL>
4

>  <REMARK>
 VINA RESULT:      -4.2      4.803      8.070
  Name = 
  4 active torsions:
  status: ('A' for Active; 'I' for Inactive)
    1  A    between atoms: C_1  and  C_3
    2  A    between atoms: C_1  and  C_5
    3  A    between atoms: C_2  and  C_21
    4  A    between atoms: C_15  and  C_21
                            x       y       z     vdW  Elec       q    Type
                         _______ _______ _______ _____ _____    ______ ____

>  <TORSDO>
F 4

$$$$
=
 OpenBabel11052422093D

 25 27  0  0  1  0  0  0  0  0999 V2000
  161.3820  205.3560  149.5720 C   0  0  1  0  0  3  0  0  0  0  0  0
  162.7340  206.8970  152.8800 S   0  0  0  0  0  0  0  0  0  0  0  0
  160.3860  207.8500  151.6570 C   0  0  0  0  0  3  0  0  0  0  0  0
  162.5480  205.5880  151.6250 C   0  0  0  0  0  2  0  0  0  0  0  0
  162.2550  207.4230  149.9170 C   0  0  1  0  0  0  0  0  0  0  0  0
  162.4960  207.7200  148.4350 C   0  0  0  0  0  1  0  0  0  0  0  0
  161.0240  207.4980  152.7930 C   0  0  0  0  0  0  0  0  0  0  0  0
  160.1670  206.2510  149.8120 C   0  0  0  0  0  2  0  0  0  0  0  0
  163.0710  208.3180  150.6140 O   0  0  0  0  0  1  0  0  0  0  0  0
  160.7640  207.5960  150.2120 C   0  0  1  0  0  3  0  0  0  0  0  0
  162.5540  205.9990  150.1940 N   0  0  2  0  0  0  0  0  0  0  0  0
  161.2120  203.8450  149.8290 C   0  0  1  0  0  3  0  0  0  0  0  0
  160.0880  203.5020  150.8020 C   0  0  0  0  0  1  0  0  0  0  0  0
  161.1010  203.0750  148.5470 C   0  0  0  0  0  0  0  0  0  0  0  0
  160.9040  201.5340  146.2110 C   0  0  0  0  0  3  0  0  0  0  0  0
  161.3760  203.6520  147.2900 C   0  0  0  0  0  0  0  0  0  0  0  0
  161.2730  202.8790  146.1300 C   0  0  0  0  0  3  0  0  0  0  0  0
  160.6360  200.9570  147.4540 C   0  0  0  0  0  3  0  0  0  0  0  0
  161.7330  204.9550  147.1830 F   0  0  0  0  0  0  0  0  0  0  0  0
  160.7350  201.7250  148.6170 C   0  0  0  0  0  3  0  0  0  0  0  0
  160.2860  207.7410  154.0750 C   0  0  1  0  0  3  0  0  0  0  0  0
  160.3910  206.5500  155.0120 C   0  0  0  0  0  1  0  0  0  0  0  0
  160.7360  209.0010  154.7420 C   0  0  0  0  0  0  0  0  0  0  0  0
  160.3060  210.2390  154.2810 O   0  0  0  0  0  0  0  0  0  0  0  0
  161.4910  208.9380  155.7450 O   0  0  0  0  0  1  0  0  0  0  0  0
  1  8  1  0  0  0  0
  1 12  1  1  0  0  0
  1 11  1  0  0  0  0
  3  7  2  0  0  0  0
  4  2  1  0  0  0  0
  5  6  1  6  0  0  0
  5 11  1  0  0  0  0
  5 10  1  0  0  0  0
  5  9  1  0  0  0  0
  7  2  1  0  0  0  0
  7 21  1  0  0  0  0
 10  8  1  1  0  0  0
 10  3  1  0  0  0  0
 11  4  1  1  0  0  0
 12 13  1  1  0  0  0
 14 20  1  0  0  0  0
 14 12  1  0  0  0  0
 15 18  1  0  0  0  0
 16 14  2  0  0  0  0
 17 15  2  0  0  0  0
 17 16  1  0  0  0  0
 18 20  2  0  0  0  0
 19 16  1  0  0  0  0
 21 23  1  0  0  0  0
 21 22  1  1  0  0  0
 23 25  1  0  0  0  0
 24 23  2  0  0  0  0
M  END
>  <MODEL>
5

>  <REMARK>
 VINA RESULT:      -4.1      3.179      7.112
  Name = 
  4 active torsions:
  status: ('A' for Active; 'I' for Inactive)
    1  A    between atoms: C_1  and  C_3
    2  A    between atoms: C_1  and  C_5
    3  A    between atoms: C_2  and  C_21
    4  A    between atoms: C_15  and  C_21
                            x       y       z     vdW  Elec       q    Type
                         _______ _______ _______ _____ _____    ______ ____

>  <TORSDO>
F 4

$$$$
=
 OpenBabel11052422093D

 25 27  0  0  1  0  0  0  0  0999 V2000
  161.3600  208.8490  152.6430 C   0  0  1  0  0  3  0  0  0  0  0  0
  158.5060  210.8750  154.3440 S   0  0  0  0  0  0  0  0  0  0  0  0
  161.1780  211.0790  155.2010 C   0  0  0  0  0  3  0  0  0  0  0  0
  159.2860  209.9480  152.9820 C   0  0  0  0  0  2  0  0  0  0  0  0
  160.5180  208.6190  154.7380 C   0  0  1  0  0  0  0  0  0  0  0  0
  161.1190  207.2330  154.9770 C   0  0  0  0  0  1  0  0  0  0  0  0
  160.0180  211.7030  154.9090 C   0  0  0  0  0  0  0  0  0  0  0  0
  162.2900  209.6800  153.5230 C   0  0  0  0  0  2  0  0  0  0  0  0
  159.4900  208.7470  155.6760 O   0  0  0  0  0  1  0  0  0  0  0  0
  161.6230  209.6640  154.8950 C   0  0  1  0  0  3  0  0  0  0  0  0
  160.0630  208.7280  153.3330 N   0  0  2  0  0  0  0  0  0  0  0  0
  161.3090  209.1940  151.1400 C   0  0  1  0  0  3  0  0  0  0  0  0
  162.3610  210.2070  150.6990 C   0  0  0  0  0  1  0  0  0  0  0  0
  161.3210  207.9600  150.2880 C   0  0  0  0  0  0  0  0  0  0  0  0
  161.3730  205.5890  148.7900 C   0  0  0  0  0  3  0  0  0  0  0  0
  161.4630  208.0090  148.8860 C   0  0  0  0  0  0  0  0  0  0  0  0
  161.4860  206.8240  148.1460 C   0  0  0  0  0  3  0  0  0  0  0  0
  161.2380  205.5370  150.1790 C   0  0  0  0  0  3  0  0  0  0  0  0
  161.5700  209.1940  148.2360 F   0  0  0  0  0  0  0  0  0  0  0  0
  161.2130  206.7180  150.9240 C   0  0  0  0  0  3  0  0  0  0  0  0
  159.9630  213.1750  155.1910 C   0  0  1  0  0  3  0  0  0  0  0  0
  159.0700  213.8990  154.1980 C   0  0  0  0  0  1  0  0  0  0  0  0
  159.5500  213.4530  156.6000 C   0  0  0  0  0  0  0  0  0  0  0  0
  158.6660  212.6080  157.2610 O   0  0  0  0  0  1  0  0  0  0  0  0
  160.0270  214.4480  157.2030 O   0  0  0  0  0  0  0  0  0  0  0  0
  1 12  1  6  0  0  0
  1 11  1  0  0  0  0
  1  8  1  0  0  0  0
  2  7  1  0  0  0  0
  4  2  1  0  0  0  0
  5 10  1  0  0  0  0
  5  6  1  1  0  0  0
  5  9  1  0  0  0  0
  7 21  1  0  0  0  0
  7  3  2  0  0  0  0
 10  8  1  6  0  0  0
 10  3  1  0  0  0  0
 11  4  1  1  0  0  0
 11  5  1  0  0  0  0
 12 13  1  6  0  0  0
 14 20  1  0  0  0  0
 14 12  1  0  0  0  0
 15 18  1  0  0  0  0
 16 14  2  0  0  0  0
 17 15  2  0  0  0  0
 17 16  1  0  0  0  0
 18 20  2  0  0  0  0
 19 16  1  0  0  0  0
 21 22  1  6  0  0  0
 21 23  1  0  0  0  0
 23 25  2  0  0  0  0
 23 24  1  0  0  0  0
M  END
>  <MODEL>
6

>  <REMARK>
 VINA RESULT:      -4.0      4.451      8.326
  Name = 
  4 active torsions:
  status: ('A' for Active; 'I' for Inactive)
    1  A    between atoms: C_1  and  C_3
    2  A    between atoms: C_1  and  C_5
    3  A    between atoms: C_2  and  C_21
    4  A    between atoms: C_15  and  C_21
                            x       y       z     vdW  Elec       q    Type
                         _______ _______ _______ _____ _____    ______ ____

>  <TORSDO>
F 4

$$$$
=
 OpenBabel11052422093D

 25 27  0  0  1  0  0  0  0  0999 V2000
  161.5980  208.8550  155.1160 C   0  0  1  0  0  3  0  0  0  0  0  0
  159.0460  210.8630  157.2610 S   0  0  0  0  0  0  0  0  0  0  0  0
  160.0240  211.8520  154.8140 C   0  0  0  0  0  3  0  0  0  0  0  0
  159.9010  209.3550  156.6950 C   0  0  0  0  0  2  0  0  0  0  0  0
  161.9160  210.8030  156.2360 C   0  0  1  0  0  0  0  0  0  0  0  0
  163.4440  210.7370  156.1950 C   0  0  0  0  0  1  0  0  0  0  0  0
  158.9690  211.6660  155.6350 C   0  0  0  0  0  0  0  0  0  0  0  0
  161.3660  209.9420  154.0680 C   0  0  0  0  0  2  0  0  0  0  0  0
  161.6090  211.7020  157.2600 O   0  0  0  0  0  1  0  0  0  0  0  0
  161.4100  211.2430  154.8610 C   0  0  1  0  0  3  0  0  0  0  0  0
  161.3650  209.4450  156.4470 N   0  0  2  0  0  0  0  0  0  0  0  0
  160.9630  207.4730  154.8570 C   0  0  1  0  0  3  0  0  0  0  0  0
  159.5280  207.3440  155.3580 C   0  0  0  0  0  1  0  0  0  0  0  0
  161.0970  207.0630  153.4200 C   0  0  0  0  0  0  0  0  0  0  0  0
  161.3020  206.4020  150.7020 C   0  0  0  0  0  3  0  0  0  0  0  0
  161.1990  205.7140  153.0240 C   0  0  0  0  0  0  0  0  0  0  0  0
  161.3030  205.3920  151.6670 C   0  0  0  0  0  3  0  0  0  0  0  0
  161.1970  207.7390  151.0910 C   0  0  0  0  0  3  0  0  0  0  0  0
  161.2060  204.7150  153.9400 F   0  0  0  0  0  0  0  0  0  0  0  0
  161.0930  208.0670  152.4450 C   0  0  0  0  0  3  0  0  0  0  0  0
  157.6710  212.2800  155.2030 C   0  0  1  0  0  3  0  0  0  0  0  0
  157.5700  212.3620  153.6900 C   0  0  0  0  0  1  0  0  0  0  0  0
  156.4980  211.5640  155.7900 C   0  0  0  0  0  0  0  0  0  0  0  0
  156.1530  210.2900  155.3530 O   0  0  0  0  0  0  0  0  0  0  0  0
  155.8320  212.1090  156.7070 O   0  0  0  0  0  1  0  0  0  0  0  0
  1 12  1  6  0  0  0
  1 11  1  0  0  0  0
  3 10  1  0  0  0  0
  3  7  2  0  0  0  0
  4  2  1  0  0  0  0
  5  6  1  6  0  0  0
  5 11  1  0  0  0  0
  5  9  1  0  0  0  0
  7  2  1  0  0  0  0
  8  1  1  0  0  0  0
 10  8  1  6  0  0  0
 10  5  1  0  0  0  0
 11  4  1  6  0  0  0
 12 13  1  6  0  0  0
 14 12  1  0  0  0  0
 15 18  2  0  0  0  0
 15 17  1  0  0  0  0
 16 14  1  0  0  0  0
 16 19  1  0  0  0  0
 17 16  2  0  0  0  0
 18 20  1  0  0  0  0
 20 14  2  0  0  0  0
 21 22  1  6  0  0  0
 21  7  1  0  0  0  0
 21 23  1  0  0  0  0
 23 25  1  0  0  0  0
 24 23  2  0  0  0  0
M  END
>  <MODEL>
7

>  <REMARK>
 VINA RESULT:      -4.0      5.427      8.322
  Name = 
  4 active torsions:
  status: ('A' for Active; 'I' for Inactive)
    1  A    between atoms: C_1  and  C_3
    2  A    between atoms: C_1  and  C_5
    3  A    between atoms: C_2  and  C_21
    4  A    between atoms: C_15  and  C_21
                            x       y       z     vdW  Elec       q    Type
                         _______ _______ _______ _____ _____    ______ ____

>  <TORSDO>
F 4

$$$$
=
 OpenBabel11052422093D

 25 27  0  0  1  0  0  0  0  0999 V2000
  161.0790  204.8850  148.8980 C   0  0  1  0  0  3  0  0  0  0  0  0
  163.2610  207.0560  151.2800 S   0  0  0  0  0  0  0  0  0  0  0  0
  160.5510  207.6480  150.8070 C   0  0  0  0  0  3  0  0  0  0  0  0
  162.8200  205.5390  150.3700 C   0  0  0  0  0  2  0  0  0  0  0  0
  161.7810  207.0250  148.6150 C   0  0  1  0  0  0  0  0  0  0  0  0
  161.4890  207.0680  147.1140 C   0  0  0  0  0  1  0  0  0  0  0  0
  161.5610  207.5380  151.6940 C   0  0  0  0  0  0  0  0  0  0  0  0
  159.9190  205.7390  149.4040 C   0  0  0  0  0  2  0  0  0  0  0  0
  162.6760  208.0720  148.8510 O   0  0  0  0  0  1  0  0  0  0  0  0
  160.4600  207.1650  149.3740 C   0  0  1  0  0  3  0  0  0  0  0  0
  162.3110  205.6910  148.9800 N   0  0  2  0  0  0  0  0  0  0  0  0
  161.1720  203.4350  149.4170 C   0  0  1  0  0  3  0  0  0  0  0  0
  160.1690  203.1040  150.5190 C   0  0  0  0  0  1  0  0  0  0  0  0
  161.1250  202.4420  148.2950 C   0  0  0  0  0  0  0  0  0  0  0  0
  160.9810  200.6640  146.1300 C   0  0  0  0  0  3  0  0  0  0  0  0
  161.2690  201.0550  148.5040 C   0  0  0  0  0  0  0  0  0  0  0  0
  161.1990  200.1750  147.4200 C   0  0  0  0  0  3  0  0  0  0  0  0
  160.8320  202.0370  145.9190 C   0  0  0  0  0  3  0  0  0  0  0  0
  161.4850  200.5540  149.7450 F   0  0  0  0  0  0  0  0  0  0  0  0
  160.9040  202.9210  146.9980 C   0  0  0  0  0  3  0  0  0  0  0  0
  161.2630  207.9620  153.1010 C   0  0  1  0  0  3  0  0  0  0  0  0
  160.2520  209.0950  153.1380 C   0  0  0  0  0  1  0  0  0  0  0  0
  160.8210  206.8090  153.9440 C   0  0  0  0  0  0  0  0  0  0  0  0
  161.1490  205.5050  153.5920 O   0  0  0  0  0  0  0  0  0  0  0  0
  160.1660  207.0240  154.9960 O   0  0  0  0  0  1  0  0  0  0  0  0
  1 11  1  0  0  0  0
  1  8  1  0  0  0  0
  1 12  1  1  0  0  0
  2  7  1  0  0  0  0
  3  7  2  0  0  0  0
  4  2  1  0  0  0  0
  5  6  1  6  0  0  0
  5  9  1  0  0  0  0
  5 11  1  0  0  0  0
  5 10  1  0  0  0  0
  7 21  1  0  0  0  0
 10  8  1  1  0  0  0
 10  3  1  0  0  0  0
 11  4  1  1  0  0  0
 12 13  1  1  0  0  0
 14 16  1  0  0  0  0
 14 12  1  0  0  0  0
 15 17  1  0  0  0  0
 16 19  1  0  0  0  0
 17 16  2  0  0  0  0
 18 15  2  0  0  0  0
 18 20  1  0  0  0  0
 20 14  2  0  0  0  0
 21 22  1  6  0  0  0
 21 23  1  0  0  0  0
 23 25  1  0  0  0  0
 24 23  2  0  0  0  0
M  END
>  <MODEL>
8

>  <REMARK>
 VINA RESULT:      -3.8      3.318      7.134
  Name = 
  4 active torsions:
  status: ('A' for Active; 'I' for Inactive)
    1  A    between atoms: C_1  and  C_3
    2  A    between atoms: C_1  and  C_5
    3  A    between atoms: C_2  and  C_21
    4  A    between atoms: C_15  and  C_21
                            x       y       z     vdW  Elec       q    Type
                         _______ _______ _______ _____ _____    ______ ____

>  <TORSDO>
F 4

$$$$
=
 OpenBabel11052422093D

 25 27  0  0  1  0  0  0  0  0999 V2000
  161.2390  209.2660  154.1250 C   0  0  1  0  0  3  0  0  0  0  0  0
  158.0570  211.0790  155.4420 S   0  0  0  0  0  0  0  0  0  0  0  0
  160.6210  212.2060  155.7160 C   0  0  0  0  0  3  0  0  0  0  0  0
  158.9700  209.9040  154.3890 C   0  0  0  0  0  2  0  0  0  0  0  0
  160.6330  209.6780  156.2730 C   0  0  1  0  0  0  0  0  0  0  0  0
  161.6070  208.6690  156.8860 C   0  0  0  0  0  1  0  0  0  0  0  0
  159.3170  212.3840  155.4170 C   0  0  0  0  0  0  0  0  0  0  0  0
  161.9610  210.5630  154.4860 C   0  0  0  0  0  2  0  0  0  0  0  0
  159.6740  209.9180  157.2610 O   0  0  0  0  0  1  0  0  0  0  0  0
  161.4170  210.9250  155.8630 C   0  0  1  0  0  3  0  0  0  0  0  0
  160.0730  209.1280  155.0170 N   0  0  2  0  0  0  0  0  0  0  0  0
  160.9950  208.9830  152.6280 C   0  0  1  0  0  3  0  0  0  0  0  0
  161.8790  209.7980  151.6890 C   0  0  0  0  0  1  0  0  0  0  0  0
  161.0550  207.5150  152.3260 C   0  0  0  0  0  0  0  0  0  0  0  0
  161.2160  204.7530  151.8670 C   0  0  0  0  0  3  0  0  0  0  0  0
  160.9850  207.0090  151.0120 C   0  0  0  0  0  0  0  0  0  0  0  0
  161.0640  205.6310  150.7910 C   0  0  0  0  0  3  0  0  0  0  0  0
  161.2890  205.2510  153.1700 C   0  0  0  0  0  3  0  0  0  0  0  0
  160.8350  207.8380  149.9510 F   0  0  0  0  0  0  0  0  0  0  0  0
  161.2100  206.6270  153.3970 C   0  0  0  0  0  3  0  0  0  0  0  0
  158.8790  213.7950  155.1630 C   0  0  1  0  0  3  0  0  0  0  0  0
  158.5850  214.0310  153.6910 C   0  0  0  0  0  1  0  0  0  0  0  0
  157.7150  214.1750  156.0200 C   0  0  0  0  0  0  0  0  0  0  0  0
  156.4550  214.3610  155.4630 O   0  0  0  0  0  0  0  0  0  0  0  0
  157.8720  214.3040  157.2610 O   0  0  0  0  0  1  0  0  0  0  0  0
  1 12  1  6  0  0  0
  1  8  1  0  0  0  0
  1 11  1  0  0  0  0
  3 10  1  0  0  0  0
  4  2  1  0  0  0  0
  5  6  1  1  0  0  0
  5  9  1  0  0  0  0
  7  2  1  0  0  0  0
  7  3  2  0  0  0  0
 10  8  1  6  0  0  0
 10  5  1  0  0  0  0
 11  4  1  6  0  0  0
 11  5  1  0  0  0  0
 12 13  1  6  0  0  0
 14 12  1  0  0  0  0
 14 20  1  0  0  0  0
 15 18  1  0  0  0  0
 16 14  2  0  0  0  0
 17 16  1  0  0  0  0
 17 15  2  0  0  0  0
 18 20  2  0  0  0  0
 19 16  1  0  0  0  0
 21 22  1  6  0  0  0
 21  7  1  0  0  0  0
 21 23  1  0  0  0  0
 23 25  1  0  0  0  0
 24 23  2  0  0  0  0
M  END
>  <MODEL>
9

>  <REMARK>
 VINA RESULT:      -3.6      5.318      8.591
  Name = 
  4 active torsions:
  status: ('A' for Active; 'I' for Inactive)
    1  A    between atoms: C_1  and  C_3
    2  A    between atoms: C_1  and  C_5
    3  A    between atoms: C_2  and  C_21
    4  A    between atoms: C_15  and  C_21
                            x       y       z     vdW  Elec       q    Type
                         _______ _______ _______ _____ _____    ______ ____

>  <TORSDO>
F 4

$$$$
