=
 OpenBabel11062409573D

 43 48  0  0  1  0  0  0  0  0999 V2000
  161.3960  203.8220  145.6620 N   0  0  0  0  0  0  0  0  0  0  0  0
  161.5380  206.4690  150.0070 C   0  0  0  0  0  0  0  0  0  0  0  0
  162.0260  209.0840  149.2810 C   0  0  0  0  0  0  0  0  0  0  0  0
  161.2590  204.5340  147.9990 C   0  0  0  0  0  0  0  0  0  0  0  0
  160.9450  205.1720  145.3020 C   0  0  0  0  0  2  0  0  0  0  0  0
  162.7410  203.7710  145.5080 O   0  0  0  0  0  1  0  0  0  0  0  0
  161.4710  205.8740  147.6440 C   0  0  0  0  0  0  0  0  0  0  0  0
  161.1150  203.5640  146.9970 O   0  0  0  0  0  0  0  0  0  0  0  0
  161.5940  206.2360  146.1930 C   0  0  0  0  0  2  0  0  0  0  0  0
  161.8660  208.1370  148.3220 N   0  0  0  0  0  0  0  0  0  0  0  0
  161.6250  206.8430  148.6480 C   0  0  0  0  0  0  0  0  0  0  0  0
  161.3060  205.1290  150.3460 C   0  0  0  0  0  3  0  0  0  0  0  0
  161.7040  207.4620  150.9830 C   0  0  0  0  0  0  0  0  0  0  0  0
  161.9510  208.7470  150.5950 N   0  0  0  0  0  0  0  0  0  0  0  0
  161.1640  204.1660  149.3440 C   0  0  0  0  0  3  0  0  0  0  0  0
  161.6230  207.1310  152.3760 N   0  0  0  0  0  2  0  0  0  0  0  0
  160.1970  209.9900  154.3990 C   0  0  0  0  0  2  0  0  0  0  0  0
  160.2300  209.2720  155.7530 C   0  0  1  0  0  3  0  0  0  0  0  0
  160.8470  207.1930  154.6790 C   0  0  0  0  0  2  0  0  0  0  0  0
  161.0890  209.2920  153.3780 C   0  0  0  0  0  2  0  0  0  0  0  0
  160.7240  207.8150  153.2940 C   0  0  1  0  0  3  0  0  0  0  0  0
  159.9220  207.8430  155.6120 N   0  0  0  0  0  2  0  0  0  0  0  0
  162.5410  209.6630  157.0400 C   0  0  0  0  0  3  0  0  0  0  0  0
  161.5000  209.4890  156.4620 C   0  0  0  0  0  0  0  0  0  0  0  0
  162.3860  210.4790  148.8700 C   0  0  0  0  0  2  0  0  0  0  0  0
  161.2660  211.2350  148.4650 O   0  0  0  0  0  0  0  0  0  0  0  0
  161.2880  212.4610  149.1500 C   0  0  0  0  0  2  0  0  0  0  0  0
  161.0540  213.6420  148.2140 C   0  0  1  0  0  3  0  0  0  0  0  0
  162.2660  214.3140  147.9930 O   0  0  0  0  0  1  0  0  0  0  0  0
  160.5160  213.0920  146.9030 C   0  0  0  0  0  2  0  0  0  0  0  0
  159.2360  213.7190  146.5520 N   0  0  0  0  0  0  0  0  0  0  0  0
  157.5740  212.4180  146.0460 C   0  0  0  0  0  2  0  0  0  0  0  0
  157.3180  213.9270  147.8680 O   0  0  0  0  0  1  0  0  0  0  0  0
  158.6520  213.1830  145.3080 C   0  0  1  0  0  0  0  0  0  0  0  0
  158.0540  214.3100  144.4800 C   0  0  0  0  0  1  0  0  0  0  0  0
  158.1980  213.0060  147.2970 C   0  0  2  0  0  3  0  0  0  0  0  0
  159.5620  212.2680  144.4650 C   0  0  0  0  0  2  0  0  0  0  0  0
  159.8570  212.8600  143.1680 N   0  0  0  0  0  0  0  0  0  0  0  0
  163.1460  213.2340  143.7920 C   0  0  0  0  0  1  0  0  0  0  0  0
  161.8970  212.0660  142.2130 C   0  0  0  0  0  3  0  0  0  0  0  0
  162.1570  213.3920  142.7420 N   0  0  0  0  0  0  0  0  0  0  0  0
  160.4210  211.8090  142.3430 C   0  0  0  0  0  3  0  0  0  0  0  0
  160.9210  213.8330  143.3880 C   0  0  0  0  0  2  0  0  0  0  0  0
  1  8  1  0  0  0  0
  2 12  1  0  0  0  0
  2 13  1  0  0  0  0
  3 14  1  0  0  0  0
  4 15  1  0  0  0  0
  5  1  1  0  0  0  0
  5  9  1  0  0  0  0
  6  1  1  0  0  0  0
  7  4  2  0  0  0  0
  7 11  1  0  0  0  0
  8  4  1  0  0  0  0
  9  7  1  0  0  0  0
 10 11  1  0  0  0  0
 10  3  2  0  0  0  0
 11  2  2  0  0  0  0
 13 16  1  0  0  0  0
 14 13  2  0  0  0  0
 15 12  2  0  0  0  0
 17 18  1  0  0  0  0
 18 24  1  6  0  0  0
 19 22  1  0  0  0  0
 20 17  1  0  0  0  0
 21 16  1  6  0  0  0
 21 20  1  0  0  0  0
 21 19  1  0  0  0  0
 22 18  1  0  0  0  0
 24 23  3  0  0  0  0
 25  3  1  0  0  0  0
 26 25  1  0  0  0  0
 26 27  1  0  0  0  0
 28 29  1  6  0  0  0
 28 27  1  0  0  0  0
 30 28  1  0  0  0  0
 31 30  1  0  0  0  0
 31 36  1  0  0  0  0
 32 36  1  0  0  0  0
 34 35  1  6  0  0  0
 34 32  1  0  0  0  0
 34 31  1  0  0  0  0
 36 33  1  6  0  0  0
 37 34  1  0  0  0  0
 38 43  1  0  0  0  0
 38 37  1  0  0  0  0
 40 42  2  0  0  0  0
 40 41  1  0  0  0  0
 41 43  1  0  0  0  0
 41 39  1  0  0  0  0
 42 38  1  0  0  0  0
M  END
>  <MODEL>
1

>  <REMARK>
 VINA RESULT:      -8.6      0.000      0.000
  Name = 
  11 active torsions:
  status: ('A' for Active; 'I' for Inactive)
    1  A    between atoms: N_1  and  C_34
    2  A    between atoms: N_1  and  C_35
    3  A    between atoms: C_2  and  O_7
    4  A    between atoms: C_2  and  C_13
    5  A    between atoms: C_3  and  N_4
    6  A    between atoms: C_3  and  C_12
    7  A    between atoms: C_6  and  O_7
    8  A    between atoms: C_6  and  C_12
    9  A    between atoms: N_11  and  C_14
   10  A    between atoms: C_14  and  C_22
   11  A    between atoms: C_19  and  C_37
                            x       y       z     vdW  Elec       q    Type
                         _______ _______ _______ _____ _____    ______ ____

>  <TORSDO>
F 11

$$$$
=
 OpenBabel11062409573D

 43 48  0  0  1  0  0  0  0  0999 V2000
  160.7200  202.0560  149.1500 N   0  0  0  0  0  0  0  0  0  0  0  0
  161.6360  207.0620  149.0670 C   0  0  0  0  0  0  0  0  0  0  0  0
  161.2220  207.9470  151.6450 C   0  0  0  0  0  0  0  0  0  0  0  0
  161.3660  204.3280  148.5120 C   0  0  0  0  0  0  0  0  0  0  0  0
  161.1970  202.3800  150.5000 C   0  0  0  0  0  2  0  0  0  0  0  0
  159.3710  202.1800  149.1370 O   0  0  0  0  0  1  0  0  0  0  0  0
  161.1950  204.7880  149.8260 C   0  0  0  0  0  0  0  0  0  0  0  0
  161.2350  202.9610  148.2320 O   0  0  0  0  0  0  0  0  0  0  0  0
  160.8190  203.8100  150.9000 C   0  0  0  0  0  2  0  0  0  0  0  0
  161.1170  206.6240  151.3620 N   0  0  0  0  0  0  0  0  0  0  0  0
  161.3160  206.1580  150.1040 C   0  0  0  0  0  0  0  0  0  0  0  0
  161.8250  206.5850  147.7630 C   0  0  0  0  0  3  0  0  0  0  0  0
  161.7420  208.4250  149.3790 C   0  0  0  0  0  0  0  0  0  0  0  0
  161.5260  208.8350  150.6630 N   0  0  0  0  0  0  0  0  0  0  0  0
  161.6920  205.2210  147.4880 C   0  0  0  0  0  3  0  0  0  0  0  0
  162.0670  209.3800  148.3610 N   0  0  0  0  0  2  0  0  0  0  0  0
  160.7800  212.9110  147.9390 C   0  0  0  0  0  2  0  0  0  0  0  0
  162.1340  213.5450  147.6020 C   0  0  1  0  0  3  0  0  0  0  0  0
  163.2760  211.4740  148.1190 C   0  0  0  0  0  2  0  0  0  0  0  0
  160.8200  211.3950  147.7750 C   0  0  0  0  0  2  0  0  0  0  0  0
  161.9810  210.8170  148.5760 C   0  0  1  0  0  3  0  0  0  0  0  0
  163.2250  212.9200  148.3610 N   0  0  0  0  0  2  0  0  0  0  0  0
  162.6240  213.5320  144.9730 C   0  0  0  0  0  3  0  0  0  0  0  0
  162.4010  213.5390  146.1560 C   0  0  0  0  0  0  0  0  0  0  0  0
  160.9000  208.4200  153.0300 C   0  0  0  0  0  2  0  0  0  0  0  0
  160.6380  207.3590  153.9220 O   0  0  0  0  0  0  0  0  0  0  0  0
  161.1480  207.7060  155.1840 C   0  0  0  0  0  2  0  0  0  0  0  0
  160.0560  207.7470  156.2490 C   0  0  1  0  0  3  0  0  0  0  0  0
  160.2470  206.6970  157.1580 O   0  0  0  0  0  1  0  0  0  0  0  0
  160.1600  209.0840  156.9650 C   0  0  0  0  0  2  0  0  0  0  0  0
  160.9860  210.0290  156.2060 N   0  0  0  0  0  0  0  0  0  0  0  0
  161.1630  212.0560  156.9600 C   0  0  0  0  0  2  0  0  0  0  0  0
  163.1470  210.7710  156.6860 O   0  0  0  0  0  1  0  0  0  0  0  0
  160.3100  211.3150  155.9530 C   0  0  1  0  0  0  0  0  0  0  0  0
  160.5960  211.7910  154.5370 C   0  0  0  0  0  1  0  0  0  0  0  0
  161.8420  210.7170  157.1740 C   0  0  2  0  0  3  0  0  0  0  0  0
  158.8060  211.3740  156.2880 C   0  0  0  0  0  2  0  0  0  0  0  0
  158.0920  212.2570  155.3780 N   0  0  0  0  0  0  0  0  0  0  0  0
  155.3030  210.3700  155.3140 C   0  0  0  0  0  1  0  0  0  0  0  0
  155.7940  212.5500  155.9600 C   0  0  0  0  0  3  0  0  0  0  0  0
  155.8400  211.6310  154.8390 N   0  0  0  0  0  0  0  0  0  0  0  0
  157.1920  213.0570  156.1860 C   0  0  0  0  0  3  0  0  0  0  0  0
  157.2540  211.4030  154.5430 C   0  0  0  0  0  2  0  0  0  0  0  0
  1  5  1  0  0  0  0
  2 13  1  0  0  0  0
  2 11  1  0  0  0  0
  3 25  1  0  0  0  0
  4  7  1  0  0  0  0
  5  9  1  0  0  0  0
  6  1  1  0  0  0  0
  7 11  2  0  0  0  0
  7  9  1  0  0  0  0
  8  4  1  0  0  0  0
  8  1  1  0  0  0  0
 10  3  2  0  0  0  0
 11 10  1  0  0  0  0
 12  2  2  0  0  0  0
 13 14  2  0  0  0  0
 14  3  1  0  0  0  0
 15 12  1  0  0  0  0
 15  4  2  0  0  0  0
 16 13  1  0  0  0  0
 18 24  1  6  0  0  0
 18 17  1  0  0  0  0
 18 22  1  0  0  0  0
 19 22  1  0  0  0  0
 19 21  1  0  0  0  0
 20 17  1  0  0  0  0
 20 21  1  0  0  0  0
 21 16  1  6  0  0  0
 23 24  3  0  0  0  0
 25 26  1  0  0  0  0
 26 27  1  0  0  0  0
 27 28  1  0  0  0  0
 28 30  1  0  0  0  0
 28 29  1  1  0  0  0
 31 30  1  0  0  0  0
 31 36  1  0  0  0  0
 32 36  1  0  0  0  0
 34 35  1  6  0  0  0
 34 31  1  0  0  0  0
 34 37  1  0  0  0  0
 34 32  1  0  0  0  0
 36 33  1  6  0  0  0
 38 42  1  0  0  0  0
 38 37  1  0  0  0  0
 40 42  2  0  0  0  0
 41 39  1  0  0  0  0
 41 40  1  0  0  0  0
 43 41  1  0  0  0  0
 43 38  1  0  0  0  0
M  END
>  <MODEL>
2

>  <REMARK>
 VINA RESULT:      -8.2      3.323      8.747
  Name = 
  11 active torsions:
  status: ('A' for Active; 'I' for Inactive)
    1  A    between atoms: N_1  and  C_34
    2  A    between atoms: N_1  and  C_35
    3  A    between atoms: C_2  and  O_7
    4  A    between atoms: C_2  and  C_13
    5  A    between atoms: C_3  and  N_4
    6  A    between atoms: C_3  and  C_12
    7  A    between atoms: C_6  and  O_7
    8  A    between atoms: C_6  and  C_12
    9  A    between atoms: N_11  and  C_14
   10  A    between atoms: C_14  and  C_22
   11  A    between atoms: C_19  and  C_37
                            x       y       z     vdW  Elec       q    Type
                         _______ _______ _______ _____ _____    ______ ____

>  <TORSDO>
F 11

$$$$
=
 OpenBabel11062409573D

 43 48  0  0  1  0  0  0  0  0999 V2000
  160.9990  201.5280  148.6410 N   0  0  0  0  0  0  0  0  0  0  0  0
  161.2400  205.7560  151.4650 C   0  0  0  0  0  0  0  0  0  0  0  0
  161.5900  207.8320  149.6840 C   0  0  0  0  0  0  0  0  0  0  0  0
  160.9430  203.1520  150.4690 C   0  0  0  0  0  0  0  0  0  0  0  0
  160.4780  202.5950  147.7770 C   0  0  0  0  0  2  0  0  0  0  0  0
  162.3360  201.4390  148.4430 O   0  0  0  0  0  1  0  0  0  0  0  0
  161.0850  204.2230  149.5750 C   0  0  0  0  0  0  0  0  0  0  0  0
  160.7910  201.8500  149.9750 O   0  0  0  0  0  0  0  0  0  0  0  0
  161.1260  203.9450  148.1010 C   0  0  0  0  0  2  0  0  0  0  0  0
  161.4230  206.5680  149.2200 N   0  0  0  0  0  0  0  0  0  0  0  0
  161.2480  205.5260  150.0710 C   0  0  0  0  0  0  0  0  0  0  0  0
  161.0770  204.6780  152.3450 C   0  0  0  0  0  3  0  0  0  0  0  0
  161.4130  207.0690  151.9240 C   0  0  0  0  0  0  0  0  0  0  0  0
  161.5900  208.0760  151.0210 N   0  0  0  0  0  0  0  0  0  0  0  0
  160.9270  203.3810  151.8480 C   0  0  0  0  0  3  0  0  0  0  0  0
  161.4110  207.3520  153.3300 N   0  0  0  0  0  2  0  0  0  0  0  0
  160.8520  210.9600  154.3130 C   0  0  0  0  0  2  0  0  0  0  0  0
  160.5740  210.6900  155.7970 C   0  0  1  0  0  3  0  0  0  0  0  0
  160.5600  208.3030  155.3990 C   0  0  0  0  0  2  0  0  0  0  0  0
  161.5340  209.7690  153.6490 C   0  0  0  0  0  2  0  0  0  0  0  0
  160.7230  208.5020  153.8980 C   0  0  1  0  0  3  0  0  0  0  0  0
  159.8360  209.4350  155.9860 N   0  0  0  0  0  2  0  0  0  0  0  0
  162.8110  210.7600  157.2610 C   0  0  0  0  0  3  0  0  0  0  0  0
  161.8030  210.7280  156.6030 C   0  0  0  0  0  0  0  0  0  0  0  0
  161.8740  208.9310  148.7060 C   0  0  0  0  0  2  0  0  0  0  0  0
  162.0140  210.1910  149.3250 O   0  0  0  0  0  0  0  0  0  0  0  0
  162.1910  211.1590  148.3230 C   0  0  0  0  0  2  0  0  0  0  0  0
  161.0810  212.2060  148.3400 C   0  0  1  0  0  3  0  0  0  0  0  0
  161.4590  213.2780  149.1630 O   0  0  0  0  0  1  0  0  0  0  0  0
  160.8800  212.6890  146.9130 C   0  0  0  0  0  2  0  0  0  0  0  0
  159.6690  213.5090  146.7990 N   0  0  0  0  0  0  0  0  0  0  0  0
  157.7870  212.4940  146.4280 C   0  0  0  0  0  2  0  0  0  0  0  0
  157.9860  213.8350  148.3830 O   0  0  0  0  0  1  0  0  0  0  0  0
  158.8590  213.1810  145.6100 C   0  0  1  0  0  0  0  0  0  0  0  0
  158.3270  214.4530  144.9680 C   0  0  0  0  0  1  0  0  0  0  0  0
  158.6430  212.8690  147.6230 C   0  0  2  0  0  3  0  0  0  0  0  0
  159.5120  212.2430  144.5760 C   0  0  0  0  0  2  0  0  0  0  0  0
  159.6930  212.9080  143.2930 N   0  0  0  0  0  0  0  0  0  0  0  0
  163.0500  213.0480  143.5410 C   0  0  0  0  0  1  0  0  0  0  0  0
  161.5530  212.0690  142.0520 C   0  0  0  0  0  3  0  0  0  0  0  0
  161.9580  213.3360  142.6290 N   0  0  0  0  0  0  0  0  0  0  0  0
  160.0880  211.8880  142.3420 C   0  0  0  0  0  3  0  0  0  0  0  0
  160.8370  213.8010  143.4460 C   0  0  0  0  0  2  0  0  0  0  0  0
  1  8  1  0  0  0  0
  2 13  1  0  0  0  0
  2 12  1  0  0  0  0
  3 14  1  0  0  0  0
  4 15  1  0  0  0  0
  5  9  1  0  0  0  0
  5  1  1  0  0  0  0
  6  1  1  0  0  0  0
  7 11  1  0  0  0  0
  7  4  2  0  0  0  0
  8  4  1  0  0  0  0
  9  7  1  0  0  0  0
 10  3  2  0  0  0  0
 10 11  1  0  0  0  0
 11  2  2  0  0  0  0
 13 16  1  0  0  0  0
 14 13  2  0  0  0  0
 15 12  2  0  0  0  0
 17 18  1  0  0  0  0
 18 22  1  0  0  0  0
 18 24  1  1  0  0  0
 19 22  1  0  0  0  0
 20 21  1  0  0  0  0
 20 17  1  0  0  0  0
 21 16  1  1  0  0  0
 21 19  1  0  0  0  0
 24 23  3  0  0  0  0
 25 26  1  0  0  0  0
 25  3  1  0  0  0  0
 27 28  1  0  0  0  0
 27 26  1  0  0  0  0
 28 29  1  1  0  0  0
 30 28  1  0  0  0  0
 31 30  1  0  0  0  0
 31 36  1  0  0  0  0
 32 36  1  0  0  0  0
 34 35  1  6  0  0  0
 34 32  1  0  0  0  0
 34 31  1  0  0  0  0
 36 33  1  1  0  0  0
 37 34  1  0  0  0  0
 38 43  1  0  0  0  0
 38 37  1  0  0  0  0
 40 42  2  0  0  0  0
 40 41  1  0  0  0  0
 41 43  1  0  0  0  0
 41 39  1  0  0  0  0
 42 38  1  0  0  0  0
M  END
>  <MODEL>
3

>  <REMARK>
 VINA RESULT:      -7.9      1.470      1.751
  Name = 
  11 active torsions:
  status: ('A' for Active; 'I' for Inactive)
    1  A    between atoms: N_1  and  C_34
    2  A    between atoms: N_1  and  C_35
    3  A    between atoms: C_2  and  O_7
    4  A    between atoms: C_2  and  C_13
    5  A    between atoms: C_3  and  N_4
    6  A    between atoms: C_3  and  C_12
    7  A    between atoms: C_6  and  O_7
    8  A    between atoms: C_6  and  C_12
    9  A    between atoms: N_11  and  C_14
   10  A    between atoms: C_14  and  C_22
   11  A    between atoms: C_19  and  C_37
                            x       y       z     vdW  Elec       q    Type
                         _______ _______ _______ _____ _____    ______ ____

>  <TORSDO>
F 11

$$$$
=
 OpenBabel11062409573D

 43 48  0  0  1  0  0  0  0  0999 V2000
  160.8660  202.5770  149.7210 N   0  0  0  0  0  0  0  0  0  0  0  0
  161.7800  207.5570  149.2020 C   0  0  0  0  0  0  0  0  0  0  0  0
  161.0840  208.7060  151.6090 C   0  0  0  0  0  0  0  0  0  0  0  0
  161.5760  204.7760  148.9180 C   0  0  0  0  0  0  0  0  0  0  0  0
  161.1900  203.0490  151.0730 C   0  0  0  0  0  2  0  0  0  0  0  0
  159.5260  202.6820  149.5480 O   0  0  0  0  0  1  0  0  0  0  0  0
  161.2600  205.3710  150.1480 C   0  0  0  0  0  0  0  0  0  0  0  0
  161.4780  203.3860  148.7730 O   0  0  0  0  0  0  0  0  0  0  0  0
  160.7700  204.5080  151.2740 C   0  0  0  0  0  2  0  0  0  0  0  0
  161.0120  207.3590  151.4600 N   0  0  0  0  0  0  0  0  0  0  0  0
  161.3490  206.7650  150.2880 C   0  0  0  0  0  0  0  0  0  0  0  0
  162.1120  206.9460  147.9850 C   0  0  0  0  0  3  0  0  0  0  0  0
  161.8500  208.9470  149.3760 C   0  0  0  0  0  0  0  0  0  0  0  0
  161.4940  209.4890  150.5770 N   0  0  0  0  0  0  0  0  0  0  0  0
  162.0120  205.5590  147.8460 C   0  0  0  0  0  3  0  0  0  0  0  0
  162.2840  209.7920  148.3030 N   0  0  0  0  0  2  0  0  0  0  0  0
  160.7350  213.0090  147.0580 C   0  0  0  0  0  2  0  0  0  0  0  0
  162.0500  213.7810  146.9030 C   0  0  1  0  0  3  0  0  0  0  0  0
  163.2740  211.9870  147.9720 C   0  0  0  0  0  2  0  0  0  0  0  0
  160.9800  211.5070  147.1550 C   0  0  0  0  0  2  0  0  0  0  0  0
  161.9910  211.2170  148.2580 C   0  0  1  0  0  3  0  0  0  0  0  0
  163.0080  213.4290  147.9590 N   0  0  0  0  0  2  0  0  0  0  0  0
  163.1070  213.4800  144.4650 C   0  0  0  0  0  3  0  0  0  0  0  0
  162.6310  213.6180  145.5620 C   0  0  0  0  0  0  0  0  0  0  0  0
  160.6110  209.3200  152.8920 C   0  0  0  0  0  2  0  0  0  0  0  0
  160.5920  208.4020  153.9630 O   0  0  0  0  0  0  0  0  0  0  0  0
  161.0900  209.0460  155.1070 C   0  0  0  0  0  2  0  0  0  0  0  0
  159.9960  209.7890  155.8660 C   0  0  1  0  0  3  0  0  0  0  0  0
  160.5330  210.3560  157.0310 O   0  0  0  0  0  1  0  0  0  0  0  0
  159.4600  210.8800  154.9530 C   0  0  0  0  0  2  0  0  0  0  0  0
  158.5730  211.7920  155.6830 N   0  0  0  0  0  0  0  0  0  0  0  0
  156.5130  211.9540  155.0180 C   0  0  0  0  0  2  0  0  0  0  0  0
  156.9310  211.2640  157.2560 O   0  0  0  0  0  1  0  0  0  0  0  0
  157.8140  212.6950  154.7950 C   0  0  1  0  0  0  0  0  0  0  0  0
  157.7570  214.0930  155.3910 C   0  0  0  0  0  1  0  0  0  0  0  0
  157.3290  211.0630  155.9350 C   0  0  2  0  0  3  0  0  0  0  0  0
  158.2430  212.7160  153.3150 C   0  0  0  0  0  2  0  0  0  0  0  0
  157.9490  213.9990  152.6940 N   0  0  0  0  0  0  0  0  0  0  0  0
  160.0540  213.5270  150.1070 C   0  0  0  0  0  1  0  0  0  0  0  0
  157.7630  213.8740  150.3160 C   0  0  0  0  0  3  0  0  0  0  0  0
  159.0580  214.4520  150.6160 N   0  0  0  0  0  0  0  0  0  0  0  0
  157.0160  213.7420  151.6150 C   0  0  0  0  0  3  0  0  0  0  0  0
  159.1890  214.4530  152.0730 C   0  0  0  0  0  2  0  0  0  0  0  0
  1  5  1  0  0  0  0
  2 13  1  0  0  0  0
  2 11  1  0  0  0  0
  3 25  1  0  0  0  0
  4  7  1  0  0  0  0
  5  9  1  0  0  0  0
  6  1  1  0  0  0  0
  7 11  2  0  0  0  0
  7  9  1  0  0  0  0
  8  4  1  0  0  0  0
  8  1  1  0  0  0  0
 10  3  2  0  0  0  0
 11 10  1  0  0  0  0
 12  2  2  0  0  0  0
 13 14  2  0  0  0  0
 14  3  1  0  0  0  0
 15 12  1  0  0  0  0
 15  4  2  0  0  0  0
 16 13  1  0  0  0  0
 17 20  1  0  0  0  0
 18 24  1  6  0  0  0
 18 17  1  0  0  0  0
 18 22  1  0  0  0  0
 19 21  1  0  0  0  0
 20 21  1  0  0  0  0
 21 16  1  6  0  0  0
 22 19  1  0  0  0  0
 23 24  3  0  0  0  0
 25 26  1  0  0  0  0
 26 27  1  0  0  0  0
 27 28  1  0  0  0  0
 28 29  1  1  0  0  0
 30 31  1  0  0  0  0
 30 28  1  0  0  0  0
 31 36  1  0  0  0  0
 32 36  1  0  0  0  0
 34 32  1  0  0  0  0
 34 35  1  1  0  0  0
 34 31  1  0  0  0  0
 36 33  1  1  0  0  0
 37 34  1  0  0  0  0
 38 37  1  0  0  0  0
 39 41  1  0  0  0  0
 40 41  1  0  0  0  0
 40 42  2  0  0  0  0
 41 43  1  0  0  0  0
 42 38  1  0  0  0  0
 43 38  1  0  0  0  0
M  END
>  <MODEL>
4

>  <REMARK>
 VINA RESULT:      -6.7      3.392      7.459
  Name = 
  11 active torsions:
  status: ('A' for Active; 'I' for Inactive)
    1  A    between atoms: N_1  and  C_34
    2  A    between atoms: N_1  and  C_35
    3  A    between atoms: C_2  and  O_7
    4  A    between atoms: C_2  and  C_13
    5  A    between atoms: C_3  and  N_4
    6  A    between atoms: C_3  and  C_12
    7  A    between atoms: C_6  and  O_7
    8  A    between atoms: C_6  and  C_12
    9  A    between atoms: N_11  and  C_14
   10  A    between atoms: C_14  and  C_22
   11  A    between atoms: C_19  and  C_37
                            x       y       z     vdW  Elec       q    Type
                         _______ _______ _______ _____ _____    ______ ____

>  <TORSDO>
F 11

$$$$
=
 OpenBabel11062409573D

 43 48  0  0  1  0  0  0  0  0999 V2000
  159.0270  212.3570  155.4260 N   0  0  0  0  0  0  0  0  0  0  0  0
  161.2020  210.6680  151.1450 C   0  0  0  0  0  0  0  0  0  0  0  0
  161.9330  208.0570  151.6500 C   0  0  0  0  0  0  0  0  0  0  0  0
  159.8550  212.1080  153.1370 C   0  0  0  0  0  0  0  0  0  0  0  0
  158.7660  210.9120  155.4080 C   0  0  0  0  0  2  0  0  0  0  0  0
  160.1950  212.5660  156.0790 O   0  0  0  0  0  1  0  0  0  0  0  0
  160.2000  210.7680  153.3660 C   0  0  0  0  0  0  0  0  0  0  0  0
  159.1790  212.8300  154.1300 O   0  0  0  0  0  0  0  0  0  0  0  0
  159.8860  210.1480  154.6960 C   0  0  0  0  0  2  0  0  0  0  0  0
  161.2610  208.7630  152.5940 N   0  0  0  0  0  0  0  0  0  0  0  0
  160.8870  210.0490  152.3750 C   0  0  0  0  0  0  0  0  0  0  0  0
  160.8320  212.0010  150.9230 C   0  0  0  0  0  3  0  0  0  0  0  0
  161.8950  209.9210  150.1810 C   0  0  0  0  0  0  0  0  0  0  0  0
  162.2490  208.6330  150.4610 N   0  0  0  0  0  0  0  0  0  0  0  0
  160.1580  212.7170  151.9160 C   0  0  0  0  0  3  0  0  0  0  0  0
  162.2340  210.5050  148.9170 N   0  0  0  0  0  2  0  0  0  0  0  0
  160.5190  213.2520  146.9640 C   0  0  0  0  0  2  0  0  0  0  0  0
  161.7860  214.0600  146.6600 C   0  0  1  0  0  3  0  0  0  0  0  0
  163.0910  212.6360  148.1200 C   0  0  0  0  0  2  0  0  0  0  0  0
  160.8580  211.8300  147.3970 C   0  0  0  0  0  2  0  0  0  0  0  0
  161.8520  211.8620  148.5520 C   0  0  1  0  0  3  0  0  0  0  0  0
  162.7330  214.0180  147.7820 N   0  0  0  0  0  2  0  0  0  0  0  0
  162.9300  213.3010  144.3660 C   0  0  0  0  0  3  0  0  0  0  0  0
  162.4160  213.6450  145.3980 C   0  0  0  0  0  0  0  0  0  0  0  0
  162.4050  206.6740  151.9790 C   0  0  0  0  0  2  0  0  0  0  0  0
  161.7540  205.6790  151.2190 O   0  0  0  0  0  0  0  0  0  0  0  0
  162.2320  204.4240  151.6310 C   0  0  0  0  0  2  0  0  0  0  0  0
  161.2090  203.3190  151.3920 C   0  0  1  0  0  3  0  0  0  0  0  0
  160.3120  203.2680  152.4700 O   0  0  0  0  0  1  0  0  0  0  0  0
  160.4640  203.6470  150.1090 C   0  0  0  0  0  2  0  0  0  0  0  0
  160.0860  202.4260  149.3890 N   0  0  0  0  0  0  0  0  0  0  0  0
  161.6700  201.0650  148.7980 C   0  0  0  0  0  2  0  0  0  0  0  0
  159.9410  200.2460  150.2120 O   0  0  0  0  0  1  0  0  0  0  0  0
  160.8890  202.2010  148.1720 C   0  0  1  0  0  0  0  0  0  0  0  0
  160.0040  201.6990  147.0420 C   0  0  0  0  0  1  0  0  0  0  0  0
  160.8090  201.3210  150.0190 C   0  0  2  0  0  3  0  0  0  0  0  0
  161.7910  203.3680  147.7220 C   0  0  0  0  0  2  0  0  0  0  0  0
  161.2330  204.0570  146.5680 N   0  0  0  0  0  0  0  0  0  0  0  0
  162.3310  207.0960  147.5210 C   0  0  0  0  0  1  0  0  0  0  0  0
  162.6890  205.7260  145.6740 C   0  0  0  0  0  3  0  0  0  0  0  0
  161.6600  206.4140  146.4300 N   0  0  0  0  0  0  0  0  0  0  0  0
  162.3230  204.2680  145.6350 C   0  0  0  0  0  3  0  0  0  0  0  0
  160.8210  205.3780  147.0320 C   0  0  0  0  0  2  0  0  0  0  0  0
  1  6  1  0  0  0  0
  2 11  1  0  0  0  0
  3 25  1  0  0  0  0
  3 10  2  0  0  0  0
  4  7  1  0  0  0  0
  4  8  1  0  0  0  0
  5  1  1  0  0  0  0
  7  9  1  0  0  0  0
  8  1  1  0  0  0  0
  9  5  1  0  0  0  0
 11 10  1  0  0  0  0
 11  7  2  0  0  0  0
 12  2  2  0  0  0  0
 12 15  1  0  0  0  0
 13 14  2  0  0  0  0
 13  2  1  0  0  0  0
 14  3  1  0  0  0  0
 15  4  2  0  0  0  0
 16 13  1  0  0  0  0
 17 20  1  0  0  0  0
 18 24  1  6  0  0  0
 18 17  1  0  0  0  0
 18 22  1  0  0  0  0
 19 21  1  0  0  0  0
 20 21  1  0  0  0  0
 21 16  1  6  0  0  0
 22 19  1  0  0  0  0
 23 24  3  0  0  0  0
 26 27  1  0  0  0  0
 26 25  1  0  0  0  0
 28 27  1  0  0  0  0
 28 29  1  1  0  0  0
 30 28  1  0  0  0  0
 31 36  1  0  0  0  0
 31 30  1  0  0  0  0
 32 36  1  0  0  0  0
 34 35  1  6  0  0  0
 34 32  1  0  0  0  0
 34 31  1  0  0  0  0
 36 33  1  6  0  0  0
 37 34  1  0  0  0  0
 38 43  1  0  0  0  0
 38 37  1  0  0  0  0
 40 41  1  0  0  0  0
 41 43  1  0  0  0  0
 41 39  1  0  0  0  0
 42 40  2  0  0  0  0
 42 38  1  0  0  0  0
M  END
>  <MODEL>
5

>  <REMARK>
 VINA RESULT:      -6.5      3.106      9.423
  Name = 
  11 active torsions:
  status: ('A' for Active; 'I' for Inactive)
    1  A    between atoms: N_1  and  C_34
    2  A    between atoms: N_1  and  C_35
    3  A    between atoms: C_2  and  O_7
    4  A    between atoms: C_2  and  C_13
    5  A    between atoms: C_3  and  N_4
    6  A    between atoms: C_3  and  C_12
    7  A    between atoms: C_6  and  O_7
    8  A    between atoms: C_6  and  C_12
    9  A    between atoms: N_11  and  C_14
   10  A    between atoms: C_14  and  C_22
   11  A    between atoms: C_19  and  C_37
                            x       y       z     vdW  Elec       q    Type
                         _______ _______ _______ _____ _____    ______ ____

>  <TORSDO>
F 11

$$$$
=
 OpenBabel11062409573D

 43 48  0  0  1  0  0  0  0  0999 V2000
  161.6080  213.8910  146.6400 N   0  0  0  0  0  0  0  0  0  0  0  0
  160.0380  212.3270  151.2220 C   0  0  0  0  0  0  0  0  0  0  0  0
  161.3400  209.9420  151.6910 C   0  0  0  0  0  0  0  0  0  0  0  0
  160.5840  213.7270  148.8550 C   0  0  0  0  0  0  0  0  0  0  0  0
  162.7280  213.1120  147.1820 C   0  0  0  0  0  2  0  0  0  0  0  0
  160.8060  213.0500  145.9440 O   0  0  0  0  0  1  0  0  0  0  0  0
  161.2650  212.5310  149.1250 C   0  0  0  0  0  0  0  0  0  0  0  0
  160.8560  214.4310  147.6750 O   0  0  0  0  0  0  0  0  0  0  0  0
  162.2380  211.9990  148.1130 C   0  0  0  0  0  2  0  0  0  0  0  0
  161.6080  210.6450  150.5610 N   0  0  0  0  0  0  0  0  0  0  0  0
  160.9840  211.8210  150.3020 C   0  0  0  0  0  0  0  0  0  0  0  0
  159.3800  213.5330  150.9480 C   0  0  0  0  0  3  0  0  0  0  0  0
  159.7770  211.5870  152.3840 C   0  0  0  0  0  0  0  0  0  0  0  0
  160.4320  210.4080  152.5880 N   0  0  0  0  0  0  0  0  0  0  0  0
  159.6550  214.2310  149.7690 C   0  0  0  0  0  3  0  0  0  0  0  0
  158.8270  212.0610  153.3470 N   0  0  0  0  0  2  0  0  0  0  0  0
  160.1050  212.5200  156.8770 C   0  0  0  0  0  2  0  0  0  0  0  0
  160.5580  211.0700  157.0820 C   0  0  1  0  0  3  0  0  0  0  0  0
  159.5390  210.4140  154.9870 C   0  0  0  0  0  2  0  0  0  0  0  0
  159.9010  212.8350  155.3980 C   0  0  0  0  0  2  0  0  0  0  0  0
  158.9630  211.8080  154.7740 C   0  0  1  0  0  3  0  0  0  0  0  0
  159.6500  210.1240  156.4200 N   0  0  0  0  0  2  0  0  0  0  0  0
  163.0980  210.7000  156.3340 C   0  0  0  0  0  3  0  0  0  0  0  0
  161.9550  210.8650  156.6720 C   0  0  0  0  0  0  0  0  0  0  0  0
  161.9860  208.6030  151.8820 C   0  0  0  0  0  2  0  0  0  0  0  0
  162.6190  208.1300  150.7140 O   0  0  0  0  0  0  0  0  0  0  0  0
  161.7420  207.2480  150.0610 C   0  0  0  0  0  2  0  0  0  0  0  0
  161.5190  207.6410  148.6040 C   0  0  1  0  0  3  0  0  0  0  0  0
  162.7520  207.9380  148.0040 O   0  0  0  0  0  1  0  0  0  0  0  0
  160.8680  206.4600  147.9020 C   0  0  0  0  0  2  0  0  0  0  0  0
  161.5680  206.1350  146.6540 N   0  0  0  0  0  0  0  0  0  0  0  0
  161.0120  204.3080  145.6240 C   0  0  0  0  0  2  0  0  0  0  0  0
  160.8040  206.3730  144.4610 O   0  0  0  0  0  1  0  0  0  0  0  0
  162.0670  204.7470  146.6160 C   0  0  1  0  0  0  0  0  0  0  0  0
  163.4550  204.7030  145.9940 C   0  0  0  0  0  1  0  0  0  0  0  0
  160.5450  205.7500  145.6810 C   0  0  2  0  0  3  0  0  0  0  0  0
  162.0040  203.9620  147.9410 C   0  0  0  0  0  2  0  0  0  0  0  0
  160.6470  203.5270  148.2380 N   0  0  0  0  0  0  0  0  0  0  0  0
  161.5810  200.4850  149.3420 C   0  0  0  0  0  1  0  0  0  0  0  0
  160.4760  202.3040  150.2820 C   0  0  0  0  0  3  0  0  0  0  0  0
  160.4190  201.3420  149.1990 N   0  0  0  0  0  0  0  0  0  0  0  0
  160.4590  203.6770  149.6680 C   0  0  0  0  0  3  0  0  0  0  0  0
  160.5990  202.0960  147.9590 C   0  0  0  0  0  2  0  0  0  0  0  0
  1  5  1  0  0  0  0
  1  8  1  0  0  0  0
  2 13  1  0  0  0  0
  3 25  1  0  0  0  0
  3 14  1  0  0  0  0
  4  7  2  0  0  0  0
  4 15  1  0  0  0  0
  5  9  1  0  0  0  0
  6  1  1  0  0  0  0
  7 11  1  0  0  0  0
  8  4  1  0  0  0  0
  9  7  1  0  0  0  0
 10  3  2  0  0  0  0
 11 10  1  0  0  0  0
 11  2  2  0  0  0  0
 12  2  1  0  0  0  0
 13 14  2  0  0  0  0
 13 16  1  0  0  0  0
 15 12  2  0  0  0  0
 17 18  1  0  0  0  0
 18 24  1  6  0  0  0
 19 22  1  0  0  0  0
 20 17  1  0  0  0  0
 21 16  1  6  0  0  0
 21 19  1  0  0  0  0
 21 20  1  0  0  0  0
 22 18  1  0  0  0  0
 23 24  3  0  0  0  0
 26 25  1  0  0  0  0
 27 26  1  0  0  0  0
 28 29  1  6  0  0  0
 28 27  1  0  0  0  0
 30 28  1  0  0  0  0
 31 30  1  0  0  0  0
 32 36  1  0  0  0  0
 32 34  1  0  0  0  0
 34 35  1  6  0  0  0
 34 31  1  0  0  0  0
 34 37  1  0  0  0  0
 36 33  1  6  0  0  0
 36 31  1  0  0  0  0
 37 38  1  0  0  0  0
 38 42  1  0  0  0  0
 41 39  1  0  0  0  0
 41 40  1  0  0  0  0
 42 40  2  0  0  0  0
 43 38  1  0  0  0  0
 43 41  1  0  0  0  0
M  END
>  <MODEL>
6

>  <REMARK>
 VINA RESULT:      -6.3      2.832      7.857
  Name = 
  11 active torsions:
  status: ('A' for Active; 'I' for Inactive)
    1  A    between atoms: N_1  and  C_34
    2  A    between atoms: N_1  and  C_35
    3  A    between atoms: C_2  and  O_7
    4  A    between atoms: C_2  and  C_13
    5  A    between atoms: C_3  and  N_4
    6  A    between atoms: C_3  and  C_12
    7  A    between atoms: C_6  and  O_7
    8  A    between atoms: C_6  and  C_12
    9  A    between atoms: N_11  and  C_14
   10  A    between atoms: C_14  and  C_22
   11  A    between atoms: C_19  and  C_37
                            x       y       z     vdW  Elec       q    Type
                         _______ _______ _______ _____ _____    ______ ____

>  <TORSDO>
F 11

$$$$
=
 OpenBabel11062409573D

 43 48  0  0  1  0  0  0  0  0999 V2000
  160.6500  207.9590  155.2420 N   0  0  0  0  0  0  0  0  0  0  0  0
  161.7490  209.9580  150.6920 C   0  0  0  0  0  0  0  0  0  0  0  0
  162.0700  207.8170  148.9850 C   0  0  0  0  0  0  0  0  0  0  0  0
  161.0310  209.4720  153.3580 C   0  0  0  0  0  0  0  0  0  0  0  0
  160.1330  206.9930  154.2650 C   0  0  0  0  0  2  0  0  0  0  0  0
  161.9280  207.6190  155.5360 O   0  0  0  0  0  1  0  0  0  0  0  0
  161.1620  208.3950  152.4680 C   0  0  0  0  0  0  0  0  0  0  0  0
  160.6690  209.2320  154.6900 O   0  0  0  0  0  0  0  0  0  0  0  0
  160.9640  206.9970  152.9780 C   0  0  0  0  0  2  0  0  0  0  0  0
  161.7010  207.6020  150.2730 N   0  0  0  0  0  0  0  0  0  0  0  0
  161.5350  208.6350  151.1370 C   0  0  0  0  0  0  0  0  0  0  0  0
  161.5950  211.0250  151.5870 C   0  0  0  0  0  3  0  0  0  0  0  0
  162.1280  210.1600  149.3570 C   0  0  0  0  0  0  0  0  0  0  0  0
  162.2840  209.0810  148.5360 N   0  0  0  0  0  0  0  0  0  0  0  0
  161.2340  210.7810  152.9150 C   0  0  0  0  0  3  0  0  0  0  0  0
  162.3540  211.4850  148.8590 N   0  0  0  0  0  2  0  0  0  0  0  0
  159.6970  212.4080  146.3320 C   0  0  0  0  0  2  0  0  0  0  0  0
  160.2580  213.7940  145.9950 C   0  0  1  0  0  3  0  0  0  0  0  0
  161.8860  213.6110  147.7770 C   0  0  0  0  0  2  0  0  0  0  0  0
  160.7390  211.5410  147.0300 C   0  0  0  0  0  2  0  0  0  0  0  0
  161.3050  212.2800  148.2370 C   0  0  1  0  0  3  0  0  0  0  0  0
  160.8370  214.4430  147.1790 N   0  0  0  0  0  2  0  0  0  0  0  0
  161.9960  213.7090  143.9650 C   0  0  0  0  0  3  0  0  0  0  0  0
  161.2120  213.7460  144.8780 C   0  0  0  0  0  0  0  0  0  0  0  0
  162.3320  206.6370  148.1000 C   0  0  0  0  0  2  0  0  0  0  0  0
  161.1530  206.0980  147.5430 O   0  0  0  0  0  0  0  0  0  0  0  0
  161.1940  206.2880  146.1520 C   0  0  0  0  0  2  0  0  0  0  0  0
  161.0070  204.9780  145.3930 C   0  0  1  0  0  3  0  0  0  0  0  0
  161.2220  205.1940  144.0230 O   0  0  0  0  0  1  0  0  0  0  0  0
  162.0240  203.9840  145.9300 C   0  0  0  0  0  2  0  0  0  0  0  0
  161.5180  202.6090  145.8410 N   0  0  0  0  0  0  0  0  0  0  0  0
  159.6510  202.1480  146.8460 C   0  0  0  0  0  2  0  0  0  0  0  0
  159.7940  201.7850  144.4990 O   0  0  0  0  0  1  0  0  0  0  0  0
  161.1310  202.0500  147.1500 C   0  0  1  0  0  0  0  0  0  0  0  0
  161.5730  200.5990  147.2540 C   0  0  0  0  0  1  0  0  0  0  0  0
  160.0970  202.7010  145.5070 C   0  0  2  0  0  3  0  0  0  0  0  0
  161.5400  202.8680  148.3910 C   0  0  0  0  0  2  0  0  0  0  0  0
  160.4590  202.9390  149.3620 N   0  0  0  0  0  0  0  0  0  0  0  0
  162.3600  201.9180  151.9480 C   0  0  0  0  0  1  0  0  0  0  0  0
  161.1410  203.8400  151.4660 C   0  0  0  0  0  3  0  0  0  0  0  0
  161.0310  202.4040  151.6290 N   0  0  0  0  0  0  0  0  0  0  0  0
  160.6290  204.1800  150.0930 C   0  0  0  0  0  3  0  0  0  0  0  0
  160.6860  201.8590  150.3160 C   0  0  0  0  0  2  0  0  0  0  0  0
  1  6  1  0  0  0  0
  2 11  2  0  0  0  0
  2 12  1  0  0  0  0
  3 10  2  0  0  0  0
  4  8  1  0  0  0  0
  5  1  1  0  0  0  0
  7  9  1  0  0  0  0
  7  4  2  0  0  0  0
  8  1  1  0  0  0  0
  9  5  1  0  0  0  0
 10 11  1  0  0  0  0
 11  7  1  0  0  0  0
 12 15  2  0  0  0  0
 13  2  1  0  0  0  0
 14  3  1  0  0  0  0
 14 13  2  0  0  0  0
 15  4  1  0  0  0  0
 16 13  1  0  0  0  0
 17 20  1  0  0  0  0
 18 24  1  6  0  0  0
 18 17  1  0  0  0  0
 18 22  1  0  0  0  0
 19 21  1  0  0  0  0
 20 21  1  0  0  0  0
 21 16  1  6  0  0  0
 22 19  1  0  0  0  0
 23 24  3  0  0  0  0
 25  3  1  0  0  0  0
 26 25  1  0  0  0  0
 27 26  1  0  0  0  0
 28 29  1  6  0  0  0
 28 30  1  0  0  0  0
 28 27  1  0  0  0  0
 31 30  1  0  0  0  0
 31 34  1  0  0  0  0
 32 34  1  0  0  0  0
 34 35  1  1  0  0  0
 34 37  1  0  0  0  0
 36 33  1  6  0  0  0
 36 31  1  0  0  0  0
 36 32  1  0  0  0  0
 37 38  1  0  0  0  0
 38 42  1  0  0  0  0
 38 43  1  0  0  0  0
 40 41  1  0  0  0  0
 41 39  1  0  0  0  0
 42 40  2  0  0  0  0
 43 41  1  0  0  0  0
M  END
>  <MODEL>
7

>  <REMARK>
 VINA RESULT:      -6.2      2.782      9.456
  Name = 
  11 active torsions:
  status: ('A' for Active; 'I' for Inactive)
    1  A    between atoms: N_1  and  C_34
    2  A    between atoms: N_1  and  C_35
    3  A    between atoms: C_2  and  O_7
    4  A    between atoms: C_2  and  C_13
    5  A    between atoms: C_3  and  N_4
    6  A    between atoms: C_3  and  C_12
    7  A    between atoms: C_6  and  O_7
    8  A    between atoms: C_6  and  C_12
    9  A    between atoms: N_11  and  C_14
   10  A    between atoms: C_14  and  C_22
   11  A    between atoms: C_19  and  C_37
                            x       y       z     vdW  Elec       q    Type
                         _______ _______ _______ _____ _____    ______ ____

>  <TORSDO>
F 11

$$$$
=
 OpenBabel11062409573D

 43 48  0  0  1  0  0  0  0  0999 V2000
  160.8620  201.8660  146.6700 N   0  0  0  0  0  0  0  0  0  0  0  0
  161.7380  206.6010  148.3200 C   0  0  0  0  0  0  0  0  0  0  0  0
  161.2830  206.5480  151.0390 C   0  0  0  0  0  0  0  0  0  0  0  0
  161.4980  204.2210  146.8580 C   0  0  0  0  0  0  0  0  0  0  0  0
  161.3190  201.7090  148.0570 C   0  0  0  0  0  2  0  0  0  0  0  0
  159.5130  201.9820  146.6800 O   0  0  0  0  0  1  0  0  0  0  0  0
  161.3050  204.2020  148.2470 C   0  0  0  0  0  0  0  0  0  0  0  0
  161.3820  203.0320  146.1250 O   0  0  0  0  0  0  0  0  0  0  0  0
  160.9240  202.9140  148.9160 C   0  0  0  0  0  2  0  0  0  0  0  0
  161.1930  205.4010  150.3180 N   0  0  0  0  0  0  0  0  0  0  0  0
  161.4110  205.3950  148.9790 C   0  0  0  0  0  0  0  0  0  0  0  0
  161.9470  206.6000  146.9340 C   0  0  0  0  0  3  0  0  0  0  0  0
  161.8280  207.7740  149.0820 C   0  0  0  0  0  0  0  0  0  0  0  0
  161.5920  207.7190  150.4250 N   0  0  0  0  0  0  0  0  0  0  0  0
  161.8300  205.4120  146.2070 C   0  0  0  0  0  3  0  0  0  0  0  0
  162.1580  209.0210  148.4570 N   0  0  0  0  0  2  0  0  0  0  0  0
  160.4570  212.2590  147.4950 C   0  0  0  0  0  2  0  0  0  0  0  0
  161.0610  213.1080  148.6180 C   0  0  1  0  0  3  0  0  0  0  0  0
  162.0170  211.1360  149.6470 C   0  0  0  0  0  2  0  0  0  0  0  0
  161.2340  210.9610  147.2990 C   0  0  0  0  0  2  0  0  0  0  0  0
  161.3520  210.2220  148.6260 C   0  0  1  0  0  3  0  0  0  0  0  0
  161.2020  212.3370  149.8600 N   0  0  0  0  0  2  0  0  0  0  0  0
  163.3700  214.2430  147.8900 C   0  0  0  0  0  3  0  0  0  0  0  0
  162.3310  213.7310  148.2160 C   0  0  0  0  0  0  0  0  0  0  0  0
  160.9390  206.5160  152.4970 C   0  0  0  0  0  2  0  0  0  0  0  0
  160.4670  207.7570  152.9740 O   0  0  0  0  0  0  0  0  0  0  0  0
  161.5320  208.6730  152.9530 C   0  0  0  0  0  2  0  0  0  0  0  0
  161.4330  209.6860  154.0890 C   0  0  1  0  0  3  0  0  0  0  0  0
  162.6090  210.4500  154.1410 O   0  0  0  0  0  1  0  0  0  0  0  0
  160.2400  210.5840  153.8060 C   0  0  0  0  0  2  0  0  0  0  0  0
  159.8630  211.3550  154.9960 N   0  0  0  0  0  0  0  0  0  0  0  0
  157.7610  211.4360  155.5300 C   0  0  0  0  0  2  0  0  0  0  0  0
  159.3010  210.5600  157.1180 O   0  0  0  0  0  1  0  0  0  0  0  0
  158.7440  212.2850  154.7530 C   0  0  1  0  0  0  0  0  0  0  0  0
  158.9990  213.6100  155.4540 C   0  0  0  0  0  1  0  0  0  0  0  0
  158.9450  210.5190  155.7700 C   0  0  2  0  0  3  0  0  0  0  0  0
  158.3280  212.4820  153.2820 C   0  0  0  0  0  2  0  0  0  0  0  0
  158.1300  213.8900  152.9690 N   0  0  0  0  0  0  0  0  0  0  0  0
  157.4460  213.3430  149.7160 C   0  0  0  0  0  1  0  0  0  0  0  0
  156.2850  214.2780  151.5030 C   0  0  0  0  0  3  0  0  0  0  0  0
  157.4940  214.3970  150.7120 N   0  0  0  0  0  0  0  0  0  0  0  0
  156.6980  214.1180  152.9400 C   0  0  0  0  0  3  0  0  0  0  0  0
  158.6100  214.0840  151.6050 C   0  0  0  0  0  2  0  0  0  0  0  0
  1  6  1  0  0  0  0
  1  5  1  0  0  0  0
  2 11  1  0  0  0  0
  2 13  1  0  0  0  0
  3 25  1  0  0  0  0
  4  7  1  0  0  0  0
  5  9  1  0  0  0  0
  7  9  1  0  0  0  0
  7 11  2  0  0  0  0
  8  1  1  0  0  0  0
  8  4  1  0  0  0  0
 10  3  2  0  0  0  0
 11 10  1  0  0  0  0
 12  2  2  0  0  0  0
 13 14  2  0  0  0  0
 14  3  1  0  0  0  0
 15  4  2  0  0  0  0
 15 12  1  0  0  0  0
 16 13  1  0  0  0  0
 17 18  1  0  0  0  0
 18 24  1  6  0  0  0
 18 22  1  0  0  0  0
 19 22  1  0  0  0  0
 20 17  1  0  0  0  0
 20 21  1  0  0  0  0
 21 16  1  6  0  0  0
 21 19  1  0  0  0  0
 23 24  3  0  0  0  0
 25 26  1  0  0  0  0
 27 26  1  0  0  0  0
 27 28  1  0  0  0  0
 28 29  1  6  0  0  0
 30 28  1  0  0  0  0
 30 31  1  0  0  0  0
 31 36  1  0  0  0  0
 32 36  1  0  0  0  0
 34 31  1  0  0  0  0
 34 35  1  1  0  0  0
 34 32  1  0  0  0  0
 36 33  1  1  0  0  0
 37 34  1  0  0  0  0
 38 37  1  0  0  0  0
 39 41  1  0  0  0  0
 40 42  2  0  0  0  0
 41 40  1  0  0  0  0
 41 43  1  0  0  0  0
 42 38  1  0  0  0  0
 43 38  1  0  0  0  0
M  END
>  <MODEL>
8

>  <REMARK>
 VINA RESULT:      -6.2      3.374      6.968
  Name = 
  11 active torsions:
  status: ('A' for Active; 'I' for Inactive)
    1  A    between atoms: N_1  and  C_34
    2  A    between atoms: N_1  and  C_35
    3  A    between atoms: C_2  and  O_7
    4  A    between atoms: C_2  and  C_13
    5  A    between atoms: C_3  and  N_4
    6  A    between atoms: C_3  and  C_12
    7  A    between atoms: C_6  and  O_7
    8  A    between atoms: C_6  and  C_12
    9  A    between atoms: N_11  and  C_14
   10  A    between atoms: C_14  and  C_22
   11  A    between atoms: C_19  and  C_37
                            x       y       z     vdW  Elec       q    Type
                         _______ _______ _______ _____ _____    ______ ____

>  <TORSDO>
F 11

$$$$
=
 OpenBabel11062409573D

 43 48  0  0  1  0  0  0  0  0999 V2000
  161.2240  213.4740  146.3130 N   0  0  0  0  0  0  0  0  0  0  0  0
  158.8200  213.3520  150.7980 C   0  0  0  0  0  0  0  0  0  0  0  0
  160.3140  211.6860  152.4090 C   0  0  0  0  0  0  0  0  0  0  0  0
  159.7170  213.8840  148.1960 C   0  0  0  0  0  0  0  0  0  0  0  0
  162.2790  213.2370  147.3060 C   0  0  0  0  0  2  0  0  0  0  0  0
  160.7600  212.2710  145.8950 O   0  0  0  0  0  1  0  0  0  0  0  0
  160.4850  213.0680  149.0400 C   0  0  0  0  0  0  0  0  0  0  0  0
  160.1640  214.1550  146.8960 O   0  0  0  0  0  0  0  0  0  0  0  0
  161.7500  212.4550  148.5120 C   0  0  0  0  0  2  0  0  0  0  0  0
  160.7440  211.9730  151.1540 N   0  0  0  0  0  0  0  0  0  0  0  0
  160.0310  212.7890  150.3380 C   0  0  0  0  0  0  0  0  0  0  0  0
  158.0740  214.1810  149.9500 C   0  0  0  0  0  3  0  0  0  0  0  0
  158.3940  213.0450  152.0980 C   0  0  0  0  0  0  0  0  0  0  0  0
  159.1510  212.2130  152.8710 N   0  0  0  0  0  0  0  0  0  0  0  0
  158.5230  214.4470  148.6540 C   0  0  0  0  0  3  0  0  0  0  0  0
  157.1720  213.5940  152.6090 N   0  0  0  0  0  2  0  0  0  0  0  0
  157.5430  213.9580  156.3550 C   0  0  0  0  0  2  0  0  0  0  0  0
  157.2330  212.4970  156.6990 C   0  0  1  0  0  3  0  0  0  0  0  0
  156.6200  212.0460  154.4010 C   0  0  0  0  0  2  0  0  0  0  0  0
  157.8970  214.1200  154.8800 C   0  0  0  0  0  2  0  0  0  0  0  0
  156.8010  213.5080  154.0140 C   0  0  1  0  0  3  0  0  0  0  0  0
  156.2100  211.9390  155.8050 N   0  0  0  0  0  2  0  0  0  0  0  0
  159.4390  210.9860  156.7410 C   0  0  0  0  0  3  0  0  0  0  0  0
  158.4470  211.6670  156.7240 C   0  0  0  0  0  0  0  0  0  0  0  0
  161.0900  210.7040  153.2340 C   0  0  0  0  0  2  0  0  0  0  0  0
  160.7210  209.3670  152.9820 O   0  0  0  0  0  0  0  0  0  0  0  0
  161.7800  208.7340  152.3100 C   0  0  0  0  0  2  0  0  0  0  0  0
  161.4280  208.4200  150.8600 C   0  0  1  0  0  3  0  0  0  0  0  0
  162.0530  209.3490  150.0140 O   0  0  0  0  0  1  0  0  0  0  0  0
  161.9290  207.0180  150.5560 C   0  0  0  0  0  2  0  0  0  0  0  0
  161.1130  206.0060  151.2360 N   0  0  0  0  0  0  0  0  0  0  0  0
  162.0190  204.0770  151.6450 C   0  0  0  0  0  2  0  0  0  0  0  0
  161.1900  205.3500  153.4750 O   0  0  0  0  0  1  0  0  0  0  0  0
  161.1490  204.6900  150.5690 C   0  0  1  0  0  0  0  0  0  0  0  0
  159.7630  204.0640  150.5640 C   0  0  0  0  0  1  0  0  0  0  0  0
  161.9390  205.4410  152.3030 C   0  0  2  0  0  3  0  0  0  0  0  0
  161.8050  204.6490  149.1750 C   0  0  0  0  0  2  0  0  0  0  0  0
  160.8270  204.3640  148.1350 N   0  0  0  0  0  0  0  0  0  0  0  0
  162.8860  205.1990  145.6030 C   0  0  0  0  0  1  0  0  0  0  0  0
  161.7660  203.2600  146.2360 C   0  0  0  0  0  3  0  0  0  0  0  0
  161.5700  204.6500  145.8720 N   0  0  0  0  0  0  0  0  0  0  0  0
  161.1530  203.0590  147.5950 C   0  0  0  0  0  3  0  0  0  0  0  0
  161.0650  205.3280  147.0660 C   0  0  0  0  0  2  0  0  0  0  0  0
  1  8  1  0  0  0  0
  1  5  1  0  0  0  0
  2 13  1  0  0  0  0
  3 14  1  0  0  0  0
  3 25  1  0  0  0  0
  4 15  2  0  0  0  0
  4  7  1  0  0  0  0
  5  9  1  0  0  0  0
  6  1  1  0  0  0  0
  7 11  2  0  0  0  0
  8  4  1  0  0  0  0
  9  7  1  0  0  0  0
 10  3  2  0  0  0  0
 11  2  1  0  0  0  0
 11 10  1  0  0  0  0
 12  2  2  0  0  0  0
 13 16  1  0  0  0  0
 13 14  2  0  0  0  0
 15 12  1  0  0  0  0
 17 18  1  0  0  0  0
 18 24  1  6  0  0  0
 19 22  1  0  0  0  0
 20 17  1  0  0  0  0
 21 16  1  6  0  0  0
 21 19  1  0  0  0  0
 21 20  1  0  0  0  0
 22 18  1  0  0  0  0
 24 23  3  0  0  0  0
 26 25  1  0  0  0  0
 27 26  1  0  0  0  0
 28 29  1  6  0  0  0
 28 27  1  0  0  0  0
 30 28  1  0  0  0  0
 30 31  1  0  0  0  0
 31 36  1  0  0  0  0
 32 36  1  0  0  0  0
 34 35  1  6  0  0  0
 34 31  1  0  0  0  0
 34 32  1  0  0  0  0
 36 33  1  1  0  0  0
 37 34  1  0  0  0  0
 38 37  1  0  0  0  0
 39 41  1  0  0  0  0
 40 42  2  0  0  0  0
 41 40  1  0  0  0  0
 41 43  1  0  0  0  0
 42 38  1  0  0  0  0
 43 38  1  0  0  0  0
M  END
>  <MODEL>
9

>  <REMARK>
 VINA RESULT:      -5.9      3.131      7.962
  Name = 
  11 active torsions:
  status: ('A' for Active; 'I' for Inactive)
    1  A    between atoms: N_1  and  C_34
    2  A    between atoms: N_1  and  C_35
    3  A    between atoms: C_2  and  O_7
    4  A    between atoms: C_2  and  C_13
    5  A    between atoms: C_3  and  N_4
    6  A    between atoms: C_3  and  C_12
    7  A    between atoms: C_6  and  O_7
    8  A    between atoms: C_6  and  C_12
    9  A    between atoms: N_11  and  C_14
   10  A    between atoms: C_14  and  C_22
   11  A    between atoms: C_19  and  C_37
                            x       y       z     vdW  Elec       q    Type
                         _______ _______ _______ _____ _____    ______ ____

>  <TORSDO>
F 11

$$$$
