=
 OpenBabel11052422523D

 28 31  0  0  1  0  0  0  0  0999 V2000
  161.2830  203.1600  148.0690 C   0  0  0  0  0  0  0  0  0  0  0  0
  160.6450  200.0990  150.8800 O   0  0  0  0  0  1  0  0  0  0  0  0
  161.8180  204.9930  151.2750 N   0  0  2  0  0  0  0  0  0  0  0  0
  161.0050  202.4490  150.3930 C   0  0  0  0  0  0  0  0  0  0  0  0
  161.2730  204.9030  149.9180 C   0  0  0  0  0  2  0  0  0  0  0  0
  160.8860  200.8220  148.6000 C   0  0  0  0  0  3  0  0  0  0  0  0
  161.0110  202.7590  151.8690 C   0  0  0  0  0  2  0  0  0  0  0  0
  160.8470  201.1240  149.9610 C   0  0  0  0  0  0  0  0  0  0  0  0
  160.8810  204.2600  152.1310 C   0  0  0  0  0  2  0  0  0  0  0  0
  161.0990  201.8320  147.6610 C   0  0  0  0  0  3  0  0  0  0  0  0
  161.2320  203.4720  149.4450 C   0  0  0  0  0  0  0  0  0  0  0  0
  161.1260  207.2840  150.6490 C   0  0  0  0  0  2  0  0  0  0  0  0
  160.5250  207.9570  153.2820 C   0  0  0  0  0  2  0  0  0  0  0  0
  162.0870  209.3730  151.8200 C   0  0  0  0  0  0  0  0  0  0  0  0
  161.8390  206.4070  151.6850 C   0  0  1  0  0  3  0  0  0  0  0  0
  162.0930  206.3510  154.0750 F   0  0  0  0  0  0  0  0  0  0  0  0
  161.4880  209.0310  153.0790 N   0  0  0  0  0  2  0  0  0  0  0  0
  161.1740  206.5860  153.0690 C   0  0  1  0  0  3  0  0  0  0  0  0
  162.8940  210.3380  151.7830 O   0  0  0  0  0  0  0  0  0  0  0  0
  161.7840  208.6570  150.5260 C   0  0  0  0  0  2  0  0  0  0  0  0
  161.5040  204.1940  147.0370 C   0  0  0  0  0  0  0  0  0  0  0  0
  161.9810  205.4540  147.4240 C   0  0  0  0  0  3  0  0  0  0  0  0
  161.4590  204.9540  144.7250 C   0  0  0  0  0  0  0  0  0  0  0  0
  162.2040  206.4520  146.4740 C   0  0  0  0  0  3  0  0  0  0  0  0
  160.7010  202.7300  145.2650 O   0  0  0  0  0  1  0  0  0  0  0  0
  161.2250  203.9510  145.6760 C   0  0  0  0  0  0  0  0  0  0  0  0
  161.2020  204.7250  143.4140 F   0  0  0  0  0  0  0  0  0  0  0  0
  161.9460  206.2000  145.1240 C   0  0  0  0  0  3  0  0  0  0  0  0
  1 11  1  0  0  0  0
  3  5  1  6  0  0  0
  3 15  1  0  0  0  0
  3  9  1  0  0  0  0
  4  7  1  0  0  0  0
  6  8  2  0  0  0  0
  7  9  1  0  0  0  0
  8  4  1  0  0  0  0
  8  2  1  0  0  0  0
 10  1  2  0  0  0  0
 10  6  1  0  0  0  0
 11  5  1  0  0  0  0
 11  4  2  0  0  0  0
 14 17  1  0  0  0  0
 15 12  1  6  0  0  0
 15 18  1  0  0  0  0
 17 13  1  0  0  0  0
 18 13  1  0  0  0  0
 18 16  1  1  0  0  0
 19 14  2  0  0  0  0
 20 12  1  0  0  0  0
 20 14  1  0  0  0  0
 21 22  1  0  0  0  0
 21  1  1  0  0  0  0
 23 28  2  0  0  0  0
 23 26  1  0  0  0  0
 24 22  2  0  0  0  0
 25 26  1  0  0  0  0
 26 21  2  0  0  0  0
 27 23  1  0  0  0  0
 28 24  1  0  0  0  0
M  END
>  <MODEL>
1

>  <REMARK>
 VINA RESULT:      -9.6      0.000      0.000
  Name = 
  2 active torsions:
  status: ('A' for Active; 'I' for Inactive)
    1  A    between atoms: C_1  and  C_2
    2  A    between atoms: N_10  and  C_13
                            x       y       z     vdW  Elec       q    Type
                         _______ _______ _______ _____ _____    ______ ____

>  <TORSDO>
F 2

$$$$
=
 OpenBabel11052422523D

 28 31  0  0  1  0  0  0  0  0999 V2000
  161.3140  203.1090  147.9620 C   0  0  0  0  0  0  0  0  0  0  0  0
  160.7930  200.1640  150.9170 O   0  0  0  0  0  1  0  0  0  0  0  0
  161.3840  205.1760  151.0680 N   0  0  2  0  0  0  0  0  0  0  0  0
  160.9300  202.5080  150.3020 C   0  0  0  0  0  0  0  0  0  0  0  0
  160.9640  204.9440  149.6840 C   0  0  0  0  0  2  0  0  0  0  0  0
  161.1360  200.7760  148.6180 C   0  0  0  0  0  3  0  0  0  0  0  0
  160.7830  202.9020  151.7500 C   0  0  0  0  0  2  0  0  0  0  0  0
  160.9540  201.1500  149.9490 C   0  0  0  0  0  0  0  0  0  0  0  0
  160.4680  204.3900  151.9010 C   0  0  0  0  0  2  0  0  0  0  0  0
  161.3110  201.7470  147.6320 C   0  0  0  0  0  3  0  0  0  0  0  0
  161.1190  203.4930  149.3070 C   0  0  0  0  0  0  0  0  0  0  0  0
  161.8030  206.9270  152.7630 C   0  0  0  0  0  2  0  0  0  0  0  0
  162.3910  208.8370  150.8270 C   0  0  0  0  0  2  0  0  0  0  0  0
  160.6470  209.2320  152.6660 C   0  0  0  0  0  0  0  0  0  0  0  0
  161.2170  206.6040  151.3840 C   0  0  1  0  0  3  0  0  0  0  0  0
  161.0310  207.6890  149.2460 F   0  0  0  0  0  0  0  0  0  0  0  0
  161.3110  209.5930  151.4450 N   0  0  0  0  0  2  0  0  0  0  0  0
  161.8930  207.4850  150.3080 C   0  0  1  0  0  3  0  0  0  0  0  0
  159.7380  209.9870  153.0980 O   0  0  0  0  0  0  0  0  0  0  0  0
  160.9940  208.0090  153.4780 C   0  0  0  0  0  2  0  0  0  0  0  0
  161.5020  204.1000  146.8810 C   0  0  0  0  0  0  0  0  0  0  0  0
  162.1290  205.3190  147.1760 C   0  0  0  0  0  3  0  0  0  0  0  0
  161.2540  204.8170  144.5690 C   0  0  0  0  0  0  0  0  0  0  0  0
  162.3250  206.2750  146.1780 C   0  0  0  0  0  3  0  0  0  0  0  0
  160.3750  202.6800  145.2570 O   0  0  0  0  0  1  0  0  0  0  0  0
  161.0470  203.8580  145.5690 C   0  0  0  0  0  0  0  0  0  0  0  0
  160.8280  204.5880  143.3030 F   0  0  0  0  0  0  0  0  0  0  0  0
  161.8900  206.0220  144.8740 C   0  0  0  0  0  3  0  0  0  0  0  0
  1 11  1  0  0  0  0
  3  5  1  6  0  0  0
  3 15  1  0  0  0  0
  3  9  1  0  0  0  0
  4  7  1  0  0  0  0
  6  8  2  0  0  0  0
  7  9  1  0  0  0  0
  8  4  1  0  0  0  0
  8  2  1  0  0  0  0
 10  1  2  0  0  0  0
 10  6  1  0  0  0  0
 11  5  1  0  0  0  0
 11  4  2  0  0  0  0
 12 20  1  0  0  0  0
 13 17  1  0  0  0  0
 14 19  2  0  0  0  0
 14 20  1  0  0  0  0
 15 12  1  1  0  0  0
 17 14  1  0  0  0  0
 18 16  1  6  0  0  0
 18 13  1  0  0  0  0
 18 15  1  0  0  0  0
 21 22  1  0  0  0  0
 21  1  1  0  0  0  0
 23 28  2  0  0  0  0
 23 26  1  0  0  0  0
 24 22  2  0  0  0  0
 25 26  1  0  0  0  0
 26 21  2  0  0  0  0
 27 23  1  0  0  0  0
 28 24  1  0  0  0  0
M  END
>  <MODEL>
2

>  <REMARK>
 VINA RESULT:      -9.5      1.302      1.692
  Name = 
  2 active torsions:
  status: ('A' for Active; 'I' for Inactive)
    1  A    between atoms: C_1  and  C_2
    2  A    between atoms: N_10  and  C_13
                            x       y       z     vdW  Elec       q    Type
                         _______ _______ _______ _____ _____    ______ ____

>  <TORSDO>
F 2

$$$$
=
 OpenBabel11052422523D

 28 31  0  0  1  0  0  0  0  0999 V2000
  161.3390  208.9190  152.0020 C   0  0  0  0  0  0  0  0  0  0  0  0
  162.3670  210.6250  148.3000 O   0  0  0  0  0  1  0  0  0  0  0  0
  161.5530  205.8870  149.8370 N   0  0  2  0  0  0  0  0  0  0  0  0
  161.6960  208.6850  149.5930 C   0  0  0  0  0  0  0  0  0  0  0  0
  160.9030  206.6790  150.8840 C   0  0  0  0  0  2  0  0  0  0  0  0
  161.9780  210.8430  150.6620 C   0  0  0  0  0  3  0  0  0  0  0  0
  161.7880  207.8240  148.3590 C   0  0  0  0  0  2  0  0  0  0  0  0
  162.0150  210.0490  149.5150 C   0  0  0  0  0  0  0  0  0  0  0  0
  161.1140  206.4680  148.5650 C   0  0  0  0  0  2  0  0  0  0  0  0
  161.6390  210.2830  151.8940 C   0  0  0  0  0  3  0  0  0  0  0  0
  161.3650  208.1130  150.8420 C   0  0  0  0  0  0  0  0  0  0  0  0
  161.6290  203.6580  148.7680 C   0  0  0  0  0  2  0  0  0  0  0  0
  161.6690  202.3440  151.2210 C   0  0  0  0  0  2  0  0  0  0  0  0
  159.9650  201.7850  149.3870 C   0  0  0  0  0  0  0  0  0  0  0  0
  161.0720  204.4980  149.9240 C   0  0  1  0  0  3  0  0  0  0  0  0
  160.5430  204.1740  152.2470 F   0  0  0  0  0  0  0  0  0  0  0  0
  160.4710  201.6800  150.7270 N   0  0  0  0  0  2  0  0  0  0  0  0
  161.4760  203.8620  151.2750 C   0  0  1  0  0  3  0  0  0  0  0  0
  158.9250  201.1420  149.0880 O   0  0  0  0  0  0  0  0  0  0  0  0
  160.6230  202.6040  148.3050 C   0  0  0  0  0  2  0  0  0  0  0  0
  160.9850  208.3740  153.3290 C   0  0  0  0  0  0  0  0  0  0  0  0
  161.2370  207.0210  153.6000 C   0  0  0  0  0  3  0  0  0  0  0  0
  160.0700  208.6240  155.5700 C   0  0  0  0  0  0  0  0  0  0  0  0
  160.9180  206.4760  154.8450 C   0  0  0  0  0  3  0  0  0  0  0  0
  160.0690  210.5060  154.0640 O   0  0  0  0  0  1  0  0  0  0  0  0
  160.3800  209.1740  154.3200 C   0  0  0  0  0  0  0  0  0  0  0  0
  159.4970  209.3890  156.5310 F   0  0  0  0  0  0  0  0  0  0  0  0
  160.3380  207.2780  155.8300 C   0  0  0  0  0  3  0  0  0  0  0  0
  1 21  1  0  0  0  0
  2  8  1  0  0  0  0
  3  9  1  6  0  0  0
  3 15  1  0  0  0  0
  3  5  1  0  0  0  0
  4 11  1  0  0  0  0
  6 10  2  0  0  0  0
  7  9  1  0  0  0  0
  7  4  1  0  0  0  0
  8  4  2  0  0  0  0
  8  6  1  0  0  0  0
 10  1  1  0  0  0  0
 11  5  1  0  0  0  0
 11  1  2  0  0  0  0
 13 18  1  0  0  0  0
 14 17  1  0  0  0  0
 15 12  1  6  0  0  0
 15 18  1  0  0  0  0
 17 13  1  0  0  0  0
 18 16  1  1  0  0  0
 19 14  2  0  0  0  0
 20 12  1  0  0  0  0
 20 14  1  0  0  0  0
 21 22  2  0  0  0  0
 21 26  1  0  0  0  0
 22 24  1  0  0  0  0
 23 28  1  0  0  0  0
 23 27  1  0  0  0  0
 24 28  2  0  0  0  0
 25 26  1  0  0  0  0
 26 23  2  0  0  0  0
M  END
>  <MODEL>
3

>  <REMARK>
 VINA RESULT:      -8.8      2.790      8.004
  Name = 
  2 active torsions:
  status: ('A' for Active; 'I' for Inactive)
    1  A    between atoms: C_1  and  C_2
    2  A    between atoms: N_10  and  C_13
                            x       y       z     vdW  Elec       q    Type
                         _______ _______ _______ _____ _____    ______ ____

>  <TORSDO>
F 2

$$$$
=
 OpenBabel11052422523D

 28 31  0  0  1  0  0  0  0  0999 V2000
  161.2190  209.7400  152.2450 C   0  0  0  0  0  0  0  0  0  0  0  0
  161.1430  207.1030  155.5180 O   0  0  0  0  0  1  0  0  0  0  0  0
  160.6510  206.4730  150.5340 N   0  0  2  0  0  0  0  0  0  0  0  0
  161.1710  207.4550  153.1180 C   0  0  0  0  0  0  0  0  0  0  0  0
  161.3030  207.7820  150.6280 C   0  0  0  0  0  2  0  0  0  0  0  0
  161.2250  209.3400  154.6420 C   0  0  0  0  0  3  0  0  0  0  0  0
  161.0700  205.9680  152.8920 C   0  0  0  0  0  2  0  0  0  0  0  0
  161.1780  207.9630  154.4260 C   0  0  0  0  0  0  0  0  0  0  0  0
  161.3880  205.5920  151.4450 C   0  0  0  0  0  2  0  0  0  0  0  0
  161.2490  210.2210  153.5610 C   0  0  0  0  0  3  0  0  0  0  0  0
  161.1830  208.3460  152.0210 C   0  0  0  0  0  0  0  0  0  0  0  0
  161.8270  206.7960  148.3820 C   0  0  0  0  0  2  0  0  0  0  0  0
  162.0300  204.0560  147.9380 C   0  0  0  0  0  2  0  0  0  0  0  0
  161.0330  205.6620  146.2040 C   0  0  0  0  0  0  0  0  0  0  0  0
  160.7940  205.9700  149.1580 C   0  0  1  0  0  3  0  0  0  0  0  0
  160.0920  203.6730  149.2660 F   0  0  0  0  0  0  0  0  0  0  0  0
  161.3180  204.3460  146.7010 N   0  0  0  0  0  2  0  0  0  0  0  0
  161.2090  204.4800  149.1590 C   0  0  1  0  0  3  0  0  0  0  0  0
  160.4230  205.7690  145.1090 O   0  0  0  0  0  0  0  0  0  0  0  0
  161.4460  206.9310  146.9080 C   0  0  0  0  0  2  0  0  0  0  0  0
  161.2470  210.7140  151.1340 C   0  0  0  0  0  0  0  0  0  0  0  0
  162.1360  210.5090  150.0690 C   0  0  0  0  0  3  0  0  0  0  0  0
  160.4660  212.7500  150.0520 C   0  0  0  0  0  0  0  0  0  0  0  0
  162.1860  211.4080  149.0020 C   0  0  0  0  0  3  0  0  0  0  0  0
  159.5640  212.1160  152.1960 O   0  0  0  0  0  1  0  0  0  0  0  0
  160.4190  211.8560  151.1300 C   0  0  0  0  0  0  0  0  0  0  0  0
  159.6660  213.8440  150.0370 F   0  0  0  0  0  0  0  0  0  0  0  0
  161.3480  212.5260  148.9930 C   0  0  0  0  0  3  0  0  0  0  0  0
  1 10  1  0  0  0  0
  3  5  1  6  0  0  0
  3  9  1  0  0  0  0
  4  8  2  0  0  0  0
  5 11  1  0  0  0  0
  7  4  1  0  0  0  0
  8  6  1  0  0  0  0
  8  2  1  0  0  0  0
  9  7  1  0  0  0  0
 10  6  2  0  0  0  0
 11  1  2  0  0  0  0
 11  4  1  0  0  0  0
 13 18  1  0  0  0  0
 14 17  1  0  0  0  0
 14 20  1  0  0  0  0
 15 12  1  1  0  0  0
 15 18  1  0  0  0  0
 15  3  1  0  0  0  0
 17 13  1  0  0  0  0
 18 16  1  6  0  0  0
 19 14  2  0  0  0  0
 20 12  1  0  0  0  0
 21  1  1  0  0  0  0
 22 21  2  0  0  0  0
 23 26  2  0  0  0  0
 24 22  1  0  0  0  0
 26 21  1  0  0  0  0
 26 25  1  0  0  0  0
 27 23  1  0  0  0  0
 28 24  2  0  0  0  0
 28 23  1  0  0  0  0
M  END
>  <MODEL>
4

>  <REMARK>
 VINA RESULT:      -8.5      3.139      7.174
  Name = 
  2 active torsions:
  status: ('A' for Active; 'I' for Inactive)
    1  A    between atoms: C_1  and  C_2
    2  A    between atoms: N_10  and  C_13
                            x       y       z     vdW  Elec       q    Type
                         _______ _______ _______ _____ _____    ______ ____

>  <TORSDO>
F 2

$$$$
=
 OpenBabel11052422523D

 28 31  0  0  1  0  0  0  0  0999 V2000
  161.4330  206.3740  148.8740 C   0  0  0  0  0  0  0  0  0  0  0  0
  161.7000  207.1080  153.0050 O   0  0  0  0  0  1  0  0  0  0  0  0
  162.3310  209.9960  148.9120 N   0  0  2  0  0  0  0  0  0  0  0  0
  161.6790  207.9500  150.7290 C   0  0  0  0  0  0  0  0  0  0  0  0
  161.5580  208.8650  148.3910 C   0  0  0  0  0  2  0  0  0  0  0  0
  161.4240  205.5790  151.1700 C   0  0  0  0  0  3  0  0  0  0  0  0
  161.9220  209.3480  151.2380 C   0  0  0  0  0  2  0  0  0  0  0  0
  161.6030  206.8820  151.6360 C   0  0  0  0  0  0  0  0  0  0  0  0
  161.6650  210.3960  150.1550 C   0  0  0  0  0  2  0  0  0  0  0  0
  161.3370  205.3280  149.8010 C   0  0  0  0  0  3  0  0  0  0  0  0
  161.6020  207.6960  149.3410 C   0  0  0  0  0  0  0  0  0  0  0  0
  160.8670  211.7490  147.9650 C   0  0  0  0  0  2  0  0  0  0  0  0
  162.9480  213.5940  147.8400 C   0  0  0  0  0  2  0  0  0  0  0  0
  161.4820  213.0310  145.8110 C   0  0  0  0  0  0  0  0  0  0  0  0
  162.2590  211.1060  147.9480 C   0  0  1  0  0  3  0  0  0  0  0  0
  164.5350  211.8280  147.6700 F   0  0  0  0  0  0  0  0  0  0  0  0
  162.6240  213.6520  146.4210 N   0  0  0  0  0  2  0  0  0  0  0  0
  163.3330  212.1730  148.2610 C   0  0  1  0  0  3  0  0  0  0  0  0
  161.3130  213.1750  144.5730 O   0  0  0  0  0  0  0  0  0  0  0  0
  160.4550  212.2320  146.5750 C   0  0  0  0  0  2  0  0  0  0  0  0
  161.3320  206.0560  147.4340 C   0  0  0  0  0  0  0  0  0  0  0  0
  160.2050  206.4840  146.7180 C   0  0  0  0  0  3  0  0  0  0  0  0
  162.2050  205.0430  145.4010 C   0  0  0  0  0  0  0  0  0  0  0  0
  160.0810  206.2030  145.3560 C   0  0  0  0  0  3  0  0  0  0  0  0
  163.4350  204.8290  147.4630 O   0  0  0  0  0  1  0  0  0  0  0  0
  162.3300  205.3130  146.7690 C   0  0  0  0  0  0  0  0  0  0  0  0
  163.1640  204.3380  144.7530 F   0  0  0  0  0  0  0  0  0  0  0  0
  161.0830  205.4860  144.6980 C   0  0  0  0  0  3  0  0  0  0  0  0
  1 11  2  0  0  0  0
  1 10  1  0  0  0  0
  3  5  1  6  0  0  0
  3  9  1  0  0  0  0
  4  7  1  0  0  0  0
  4  8  2  0  0  0  0
  5 11  1  0  0  0  0
  6  8  1  0  0  0  0
  8  2  1  0  0  0  0
  9  7  1  0  0  0  0
 10  6  2  0  0  0  0
 11  4  1  0  0  0  0
 13 18  1  0  0  0  0
 14 17  1  0  0  0  0
 14 20  1  0  0  0  0
 15 12  1  1  0  0  0
 15 18  1  0  0  0  0
 15  3  1  0  0  0  0
 17 13  1  0  0  0  0
 18 16  1  6  0  0  0
 19 14  2  0  0  0  0
 20 12  1  0  0  0  0
 21  1  1  0  0  0  0
 22 21  2  0  0  0  0
 23 26  2  0  0  0  0
 24 22  1  0  0  0  0
 26 21  1  0  0  0  0
 26 25  1  0  0  0  0
 27 23  1  0  0  0  0
 28 24  2  0  0  0  0
 28 23  1  0  0  0  0
M  END
>  <MODEL>
5

>  <REMARK>
 VINA RESULT:      -8.4      3.972      5.519
  Name = 
  2 active torsions:
  status: ('A' for Active; 'I' for Inactive)
    1  A    between atoms: C_1  and  C_2
    2  A    between atoms: N_10  and  C_13
                            x       y       z     vdW  Elec       q    Type
                         _______ _______ _______ _____ _____    ______ ____

>  <TORSDO>
F 2

$$$$
=
 OpenBabel11052422523D

 28 31  0  0  1  0  0  0  0  0999 V2000
  161.0130  209.5220  152.4360 C   0  0  0  0  0  0  0  0  0  0  0  0
  160.8290  206.5790  155.4320 O   0  0  0  0  0  1  0  0  0  0  0  0
  161.0590  206.3990  150.3930 N   0  0  2  0  0  0  0  0  0  0  0  0
  161.1230  207.1690  153.0980 C   0  0  0  0  0  0  0  0  0  0  0  0
  161.5350  207.7540  150.6870 C   0  0  0  0  0  2  0  0  0  0  0  0
  160.7580  208.8880  154.7680 C   0  0  0  0  0  3  0  0  0  0  0  0
  161.2280  205.7090  152.7360 C   0  0  0  0  0  2  0  0  0  0  0  0
  160.9020  207.5410  154.4320 C   0  0  0  0  0  0  0  0  0  0  0  0
  161.7720  205.5150  151.3210 C   0  0  0  0  0  2  0  0  0  0  0  0
  160.8160  209.8700  153.7790 C   0  0  0  0  0  3  0  0  0  0  0  0
  161.1710  208.1610  152.0920 C   0  0  0  0  0  0  0  0  0  0  0  0
  160.9710  204.6340  148.6630 C   0  0  0  0  0  2  0  0  0  0  0  0
  160.5490  206.4790  146.6230 C   0  0  0  0  0  2  0  0  0  0  0  0
  162.4240  204.7300  146.5320 C   0  0  0  0  0  0  0  0  0  0  0  0
  161.4360  206.0530  149.0130 C   0  0  1  0  0  3  0  0  0  0  0  0
  161.6570  208.1660  147.8860 F   0  0  0  0  0  0  0  0  0  0  0  0
  161.7530  205.9010  146.0420 N   0  0  0  0  0  2  0  0  0  0  0  0
  160.8310  207.0630  148.0100 C   0  0  1  0  0  3  0  0  0  0  0  0
  163.4480  204.3280  145.9230 O   0  0  0  0  0  0  0  0  0  0  0  0
  161.9560  203.9350  147.7260 C   0  0  0  0  0  2  0  0  0  0  0  0
  161.0680  210.5990  151.4260 C   0  0  0  0  0  0  0  0  0  0  0  0
  161.9560  210.4770  150.3470 C   0  0  0  0  0  3  0  0  0  0  0  0
  160.3410  212.7490  150.5480 C   0  0  0  0  0  0  0  0  0  0  0  0
  162.0310  211.4750  149.3740 C   0  0  0  0  0  3  0  0  0  0  0  0
  159.4160  211.9300  152.6190 O   0  0  0  0  0  1  0  0  0  0  0  0
  160.2680  211.7550  151.5330 C   0  0  0  0  0  0  0  0  0  0  0  0
  159.5680  213.8590  150.6390 F   0  0  0  0  0  0  0  0  0  0  0  0
  161.2210  212.6090  149.4740 C   0  0  0  0  0  3  0  0  0  0  0  0
  1 10  1  0  0  0  0
  3  5  1  1  0  0  0
  3  9  1  0  0  0  0
  4  8  2  0  0  0  0
  5 11  1  0  0  0  0
  7  4  1  0  0  0  0
  8  6  1  0  0  0  0
  8  2  1  0  0  0  0
  9  7  1  0  0  0  0
 10  6  2  0  0  0  0
 11  1  2  0  0  0  0
 11  4  1  0  0  0  0
 13 18  1  0  0  0  0
 14 20  1  0  0  0  0
 15 12  1  6  0  0  0
 15  3  1  0  0  0  0
 17 14  1  0  0  0  0
 17 13  1  0  0  0  0
 18 16  1  6  0  0  0
 18 15  1  0  0  0  0
 19 14  2  0  0  0  0
 20 12  1  0  0  0  0
 21 26  1  0  0  0  0
 21  1  1  0  0  0  0
 22 21  2  0  0  0  0
 23 27  1  0  0  0  0
 23 26  2  0  0  0  0
 24 28  2  0  0  0  0
 24 22  1  0  0  0  0
 26 25  1  0  0  0  0
 28 23  1  0  0  0  0
M  END
>  <MODEL>
6

>  <REMARK>
 VINA RESULT:      -8.4      3.167      7.255
  Name = 
  2 active torsions:
  status: ('A' for Active; 'I' for Inactive)
    1  A    between atoms: C_1  and  C_2
    2  A    between atoms: N_10  and  C_13
                            x       y       z     vdW  Elec       q    Type
                         _______ _______ _______ _____ _____    ______ ____

>  <TORSDO>
F 2

$$$$
=
 OpenBabel11052422523D

 28 31  0  0  1  0  0  0  0  0999 V2000
  160.0790  209.8230  153.9630 C   0  0  0  0  0  0  0  0  0  0  0  0
  160.5940  206.8450  156.8850 O   0  0  0  0  0  1  0  0  0  0  0  0
  160.8900  206.8590  151.8460 N   0  0  2  0  0  0  0  0  0  0  0  0
  160.7510  207.5500  154.5690 C   0  0  0  0  0  0  0  0  0  0  0  0
  161.0220  208.2800  152.1780 C   0  0  0  0  0  2  0  0  0  0  0  0
  159.9710  209.0860  156.2760 C   0  0  0  0  0  3  0  0  0  0  0  0
  161.2070  206.1690  154.1730 C   0  0  0  0  0  2  0  0  0  0  0  0
  160.4380  207.8230  155.9090 C   0  0  0  0  0  0  0  0  0  0  0  0
  161.7890  206.1490  152.7600 C   0  0  0  0  0  2  0  0  0  0  0  0
  159.7960  210.0780  155.3110 C   0  0  0  0  0  3  0  0  0  0  0  0
  160.5630  208.5500  153.5880 C   0  0  0  0  0  0  0  0  0  0  0  0
  160.2460  205.9900  149.6220 C   0  0  0  0  0  2  0  0  0  0  0  0
  161.5850  208.0370  148.2950 C   0  0  0  0  0  2  0  0  0  0  0  0
  161.9850  205.5600  147.7630 C   0  0  0  0  0  0  0  0  0  0  0  0
  161.3460  206.6500  150.4620 C   0  0  1  0  0  3  0  0  0  0  0  0
  163.0800  208.2830  150.1320 F   0  0  0  0  0  0  0  0  0  0  0  0
  162.3100  206.9530  147.6460 N   0  0  0  0  0  2  0  0  0  0  0  0
  161.7660  207.9900  149.8150 C   0  0  1  0  0  3  0  0  0  0  0  0
  162.6860  204.7260  147.1340 O   0  0  0  0  0  0  0  0  0  0  0  0
  160.8310  205.0350  148.5810 C   0  0  0  0  0  2  0  0  0  0  0  0
  159.8780  210.9080  152.9790 C   0  0  0  0  0  0  0  0  0  0  0  0
  160.9000  211.1950  152.0620 C   0  0  0  0  0  3  0  0  0  0  0  0
  158.5380  212.6880  152.0010 C   0  0  0  0  0  0  0  0  0  0  0  0
  160.7410  212.2110  151.1180 C   0  0  0  0  0  3  0  0  0  0  0  0
  157.6860  211.4520  153.8860 O   0  0  0  0  0  1  0  0  0  0  0  0
  158.6960  211.6760  152.9560 C   0  0  0  0  0  0  0  0  0  0  0  0
  157.4010  213.4240  151.9660 F   0  0  0  0  0  0  0  0  0  0  0  0
  159.5590  212.9540  151.0860 C   0  0  0  0  0  3  0  0  0  0  0  0
  1 10  1  0  0  0  0
  3  5  1  1  0  0  0
  3  9  1  0  0  0  0
  4  8  2  0  0  0  0
  5 11  1  0  0  0  0
  7  4  1  0  0  0  0
  8  6  1  0  0  0  0
  8  2  1  0  0  0  0
  9  7  1  0  0  0  0
 10  6  2  0  0  0  0
 11  1  2  0  0  0  0
 11  4  1  0  0  0  0
 13 18  1  0  0  0  0
 14 20  1  0  0  0  0
 15 12  1  6  0  0  0
 15  3  1  0  0  0  0
 17 14  1  0  0  0  0
 17 13  1  0  0  0  0
 18 16  1  6  0  0  0
 18 15  1  0  0  0  0
 19 14  2  0  0  0  0
 20 12  1  0  0  0  0
 21  1  1  0  0  0  0
 22 21  2  0  0  0  0
 23 26  2  0  0  0  0
 24 22  1  0  0  0  0
 26 21  1  0  0  0  0
 26 25  1  0  0  0  0
 27 23  1  0  0  0  0
 28 24  2  0  0  0  0
 28 23  1  0  0  0  0
M  END
>  <MODEL>
7

>  <REMARK>
 VINA RESULT:      -8.4      3.478      7.735
  Name = 
  2 active torsions:
  status: ('A' for Active; 'I' for Inactive)
    1  A    between atoms: C_1  and  C_2
    2  A    between atoms: N_10  and  C_13
                            x       y       z     vdW  Elec       q    Type
                         _______ _______ _______ _____ _____    ______ ____

>  <TORSDO>
F 2

$$$$
=
 OpenBabel11052422523D

 28 31  0  0  1  0  0  0  0  0999 V2000
  161.3460  204.2050  148.8050 C   0  0  0  0  0  0  0  0  0  0  0  0
  160.8290  202.9220  152.7750 O   0  0  0  0  0  1  0  0  0  0  0  0
  162.0880  207.3420  150.6850 N   0  0  2  0  0  0  0  0  0  0  0  0
  161.1920  204.7240  151.1910 C   0  0  0  0  0  0  0  0  0  0  0  0
  161.4650  206.6250  149.5690 C   0  0  0  0  0  2  0  0  0  0  0  0
  160.9490  202.4370  150.4240 C   0  0  0  0  0  3  0  0  0  0  0  0
  161.2860  205.7110  152.3260 C   0  0  0  0  0  2  0  0  0  0  0  0
  160.9910  203.3630  151.4660 C   0  0  0  0  0  0  0  0  0  0  0  0
  161.1920  207.1540  151.8300 C   0  0  0  0  0  2  0  0  0  0  0  0
  161.1210  202.8550  149.1040 C   0  0  0  0  0  3  0  0  0  0  0  0
  161.3780  205.1480  149.8560 C   0  0  0  0  0  0  0  0  0  0  0  0
  161.3180  209.0800  149.1030 C   0  0  0  0  0  2  0  0  0  0  0  0
  161.0270  210.9700  151.1250 C   0  0  0  0  0  2  0  0  0  0  0  0
  162.4010  211.4200  149.0060 C   0  0  0  0  0  0  0  0  0  0  0  0
  162.1520  208.7740  150.3540 C   0  0  1  0  0  3  0  0  0  0  0  0
  162.6840  209.8640  152.4300 F   0  0  0  0  0  0  0  0  0  0  0  0
  161.9560  211.7590  150.3280 N   0  0  0  0  0  2  0  0  0  0  0  0
  161.6520  209.6340  151.5380 C   0  0  1  0  0  3  0  0  0  0  0  0
  163.1950  212.2030  148.4230 O   0  0  0  0  0  0  0  0  0  0  0  0
  161.9530  210.1870  148.2620 C   0  0  0  0  0  2  0  0  0  0  0  0
  161.5210  204.5980  147.3910 C   0  0  0  0  0  0  0  0  0  0  0  0
  162.5520  204.0110  146.6430 C   0  0  0  0  0  3  0  0  0  0  0  0
  160.8830  205.9010  145.4370 C   0  0  0  0  0  0  0  0  0  0  0  0
  162.7430  204.3580  145.3040 C   0  0  0  0  0  3  0  0  0  0  0  0
  159.6950  206.2030  147.5140 O   0  0  0  0  0  1  0  0  0  0  0  0
  160.6930  205.5640  146.7840 C   0  0  0  0  0  0  0  0  0  0  0  0
  160.0840  206.8220  144.8440 F   0  0  0  0  0  0  0  0  0  0  0  0
  161.9060  205.3000  144.7020 C   0  0  0  0  0  3  0  0  0  0  0  0
  1 10  2  0  0  0  0
  1 11  1  0  0  0  0
  3  5  1  6  0  0  0
  3  9  1  0  0  0  0
  4  8  1  0  0  0  0
  4  7  1  0  0  0  0
  5 11  1  0  0  0  0
  6  8  2  0  0  0  0
  8  2  1  0  0  0  0
  9  7  1  0  0  0  0
 10  6  1  0  0  0  0
 11  4  2  0  0  0  0
 13 18  1  0  0  0  0
 14 17  1  0  0  0  0
 15 12  1  6  0  0  0
 15  3  1  0  0  0  0
 15 18  1  0  0  0  0
 17 13  1  0  0  0  0
 18 16  1  1  0  0  0
 19 14  2  0  0  0  0
 20 14  1  0  0  0  0
 20 12  1  0  0  0  0
 21  1  1  0  0  0  0
 22 21  2  0  0  0  0
 23 26  2  0  0  0  0
 24 22  1  0  0  0  0
 26 21  1  0  0  0  0
 26 25  1  0  0  0  0
 27 23  1  0  0  0  0
 28 24  2  0  0  0  0
 28 23  1  0  0  0  0
M  END
>  <MODEL>
8

>  <REMARK>
 VINA RESULT:      -8.3      2.143      2.747
  Name = 
  2 active torsions:
  status: ('A' for Active; 'I' for Inactive)
    1  A    between atoms: C_1  and  C_2
    2  A    between atoms: N_10  and  C_13
                            x       y       z     vdW  Elec       q    Type
                         _______ _______ _______ _____ _____    ______ ____

>  <TORSDO>
F 2

$$$$
=
 OpenBabel11052422523D

 28 31  0  0  1  0  0  0  0  0999 V2000
  161.1290  207.7660  152.7350 C   0  0  0  0  0  0  0  0  0  0  0  0
  160.9000  208.2390  156.9060 O   0  0  0  0  0  1  0  0  0  0  0  0
  160.0030  211.3140  153.0040 N   0  0  2  0  0  0  0  0  0  0  0  0
  160.4830  209.1050  154.6780 C   0  0  0  0  0  0  0  0  0  0  0  0
  159.9440  209.9870  152.3860 C   0  0  0  0  0  2  0  0  0  0  0  0
  161.4960  206.9240  154.9850 C   0  0  0  0  0  3  0  0  0  0  0  0
  159.9510  210.3860  155.2690 C   0  0  0  0  0  2  0  0  0  0  0  0
  160.9600  208.0930  155.5250 C   0  0  0  0  0  0  0  0  0  0  0  0
  159.2030  211.2200  154.2300 C   0  0  0  0  0  2  0  0  0  0  0  0
  161.5770  206.7610  153.6010 C   0  0  0  0  0  3  0  0  0  0  0  0
  160.5750  208.9470  153.2770 C   0  0  0  0  0  0  0  0  0  0  0  0
  158.5690  213.3250  152.8850 C   0  0  0  0  0  2  0  0  0  0  0  0
  160.0690  214.4250  150.8150 C   0  0  0  0  0  2  0  0  0  0  0  0
  157.5240  214.1330  150.6670 C   0  0  0  0  0  0  0  0  0  0  0  0
  159.3790  212.2890  152.0960 C   0  0  1  0  0  3  0  0  0  0  0  0
  160.7470  212.2520  150.1190 F   0  0  0  0  0  0  0  0  0  0  0  0
  158.8040  214.4350  150.0920 N   0  0  0  0  0  2  0  0  0  0  0  0
  160.4500  213.0050  151.2410 C   0  0  1  0  0  3  0  0  0  0  0  0
  156.5070  214.1950  149.9300 O   0  0  0  0  0  0  0  0  0  0  0  0
  157.3230  213.7670  152.1170 C   0  0  0  0  0  2  0  0  0  0  0  0
  161.2360  207.5460  151.2780 C   0  0  0  0  0  0  0  0  0  0  0  0
  160.6250  206.4170  150.7120 C   0  0  0  0  0  3  0  0  0  0  0  0
  162.0240  208.1910  149.0680 C   0  0  0  0  0  0  0  0  0  0  0  0
  160.7030  206.1810  149.3390 C   0  0  0  0  0  3  0  0  0  0  0  0
  162.6180  209.5280  150.9840 O   0  0  0  0  0  1  0  0  0  0  0  0
  161.9560  208.4280  150.4470 C   0  0  0  0  0  0  0  0  0  0  0  0
  162.7060  209.0400  148.2610 F   0  0  0  0  0  0  0  0  0  0  0  0
  161.4000  207.0700  148.5170 C   0  0  0  0  0  3  0  0  0  0  0  0
  1 11  2  0  0  0  0
  1 10  1  0  0  0  0
  3  5  1  6  0  0  0
  3  9  1  0  0  0  0
  4  7  1  0  0  0  0
  4  8  2  0  0  0  0
  5 11  1  0  0  0  0
  6  8  1  0  0  0  0
  8  2  1  0  0  0  0
  9  7  1  0  0  0  0
 10  6  2  0  0  0  0
 11  4  1  0  0  0  0
 13 18  1  0  0  0  0
 14 20  1  0  0  0  0
 15 12  1  1  0  0  0
 15  3  1  0  0  0  0
 17 14  1  0  0  0  0
 17 13  1  0  0  0  0
 18 16  1  6  0  0  0
 18 15  1  0  0  0  0
 19 14  2  0  0  0  0
 20 12  1  0  0  0  0
 21  1  1  0  0  0  0
 22 21  1  0  0  0  0
 23 26  1  0  0  0  0
 24 22  2  0  0  0  0
 26 25  1  0  0  0  0
 26 21  2  0  0  0  0
 27 23  1  0  0  0  0
 28 23  2  0  0  0  0
 28 24  1  0  0  0  0
M  END
>  <MODEL>
9

>  <REMARK>
 VINA RESULT:      -8.2      4.334      7.010
  Name = 
  2 active torsions:
  status: ('A' for Active; 'I' for Inactive)
    1  A    between atoms: C_1  and  C_2
    2  A    between atoms: N_10  and  C_13
                            x       y       z     vdW  Elec       q    Type
                         _______ _______ _______ _____ _____    ______ ____

>  <TORSDO>
F 2

$$$$
