=
 OpenBabel11062408403D

 55 60  0  0  1  0  0  0  0  0999 V2000
  159.7780  212.4000  153.2740 O   0  0  0  0  0  0  0  0  0  0  0  0
  162.8020  207.5200  151.6300 C   0  0  0  0  0  2  0  0  0  0  0  0
  160.3930  206.8310  153.7120 S   0  0  0  0  0  1  0  0  0  0  0  0
  159.9530  209.5650  153.2920 C   0  0  0  0  0  2  0  0  0  0  0  0
  159.3390  213.7860  149.8460 C   0  0  0  0  0  3  0  0  0  0  0  0
  160.9200  211.9260  149.8830 C   0  0  0  0  0  0  0  0  0  0  0  0
  160.9410  212.2290  154.0380 C   0  0  0  0  0  2  0  0  0  0  0  0
  160.8950  211.8680  151.2170 C   0  0  0  0  0  3  0  0  0  0  0  0
  162.1500  207.3270  150.2600 C   0  0  0  0  0  2  0  0  0  0  0  0
  162.1370  208.6140  152.4690 C   0  0  0  0  0  2  0  0  0  0  0  0
  160.6550  208.3380  152.7100 C   0  0  1  0  0  3  0  0  0  0  0  0
  158.9960  213.4960  151.2860 C   0  0  0  0  0  2  0  0  0  0  0  0
  162.3910  208.5190  149.3440 C   0  0  2  0  0  3  0  0  0  0  0  0
  160.2020  212.9260  152.0440 C   0  0  1  0  0  3  0  0  0  0  0  0
  160.2470  209.7980  154.7780 C   0  0  1  0  0  3  0  0  0  0  0  0
  160.7300  211.2220  155.1720 C   0  0  1  0  0  3  0  0  0  0  0  0
  161.2450  209.5120  149.4800 C   0  0  0  0  0  2  0  0  0  0  0  0
  161.7040  210.9160  149.1150 C   0  0  0  0  0  2  0  0  0  0  0  0
  160.2120  213.0180  149.1850 C   0  0  0  0  0  3  0  0  0  0  0  0
  161.9910  211.1980  156.0450 C   0  0  1  0  0  0  0  0  0  0  0  0
  163.3080  210.9250  155.4100 C   0  0  2  0  0  3  0  0  0  0  0  0
  161.9700  211.8960  157.2590 O   0  0  0  0  0  1  0  0  0  0  0  0
  162.6210  209.9450  156.1670 O   0  0  0  0  0  0  0  0  0  0  0  0
  164.4840  211.4570  156.2180 C   0  0  0  0  0  2  0  0  0  0  0  0
  165.6870  211.6680  155.3150 C   0  0  0  0  0  2  0  0  0  0  0  0
  166.4190  212.9460  155.6910 C   0  0  0  0  0  2  0  0  0  0  0  0
  167.0650  212.7950  157.0610 C   0  0  1  0  0  3  0  0  0  0  0  0
  169.0940  212.6690  157.2600 C   0  0  0  0  0  2  0  0  0  0  0  0
  168.0210  211.6240  157.0800 C   0  0  0  0  0  2  0  0  0  0  0  0
  168.1370  213.7680  157.2150 N   0  0  0  0  0  2  0  0  0  0  0  0
  162.5390  208.0560  147.8980 C   0  0  0  0  0  2  0  0  0  0  0  0
  163.3040  206.8860  147.8220 O   0  0  0  0  0  0  0  0  0  0  0  0
  161.0950  204.2010  145.5660 C   0  0  1  0  0  3  0  0  0  0  0  0
  160.0310  204.7690  148.2330 C   0  0  0  0  0  2  0  0  0  0  0  0
  161.1400  206.3660  146.8910 C   0  0  1  0  0  3  0  0  0  0  0  0
  161.9280  203.5780  149.3360 C   0  0  0  0  0  1  0  0  0  0  0  0
  161.0520  203.6200  148.0840 C   0  0  2  0  0  0  0  0  0  0  0  0
  162.6520  206.0950  146.8730 C   0  0  2  0  0  3  0  0  0  0  0  0
  160.5070  205.6160  145.6980 C   0  0  0  0  0  2  0  0  0  0  0  0
  161.8980  204.1320  144.4260 O   0  0  0  0  0  1  0  0  0  0  0  0
  163.0070  204.7290  147.0570 O   0  0  0  0  0  0  0  0  0  0  0  0
  160.6130  206.0580  148.1790 O   0  0  0  0  0  0  0  0  0  0  0  0
  161.9290  203.8290  146.8170 C   0  0  2  0  0  3  0  0  0  0  0  0
  159.9800  201.6160  149.2850 C   0  0  0  0  0  1  0  0  0  0  0  0
  160.2750  202.2880  147.9430 C   0  0  2  0  0  3  0  0  0  0  0  0
  160.9040  201.3160  146.9280 C   0  0  1  0  0  3  0  0  0  0  0  0
  161.6130  200.2860  147.5630 O   0  0  0  0  0  1  0  0  0  0  0  0
  159.8710  200.7500  145.9580 C   0  0  0  0  0  2  0  0  0  0  0  0
  160.0630  201.2530  144.6720 O   0  0  0  0  0  1  0  0  0  0  0  0
  159.0490  209.3320  155.6150 C   0  0  1  0  0  3  0  0  0  0  0  0
  159.4310  208.3100  156.6470 C   0  0  0  0  0  3  0  0  0  0  0  0
  159.1900  207.1230  156.4810 O   0  0  0  0  0  0  0  0  0  0  0  0
  158.2610  210.4990  156.2140 C   0  0  0  0  0  2  0  0  0  0  0  0
  156.8800  210.6100  155.5890 C   0  0  0  0  0  2  0  0  0  0  0  0
  156.8360  211.7440  154.5830 C   0  0  0  0  0  1  0  0  0  0  0  0
  1  7  1  0  0  0  0
  2 10  1  0  0  0  0
  4 15  1  0  0  0  0
  5 12  1  0  0  0  0
  6  8  2  0  0  0  0
  9  2  1  0  0  0  0
 10 11  1  0  0  0  0
 11  4  1  0  0  0  0
 11  3  1  1  0  0  0
 12 14  1  0  0  0  0
 13 31  1  6  0  0  0
 13 17  1  0  0  0  0
 13  9  1  0  0  0  0
 14  8  1  6  0  0  0
 14  1  1  0  0  0  0
 15 16  1  0  0  0  0
 15 50  1  1  0  0  0
 16  7  1  6  0  0  0
 16 20  1  0  0  0  0
 18 17  1  0  0  0  0
 18  6  1  0  0  0  0
 19  5  2  0  0  0  0
 19  6  1  0  0  0  0
 20 23  1  0  0  0  0
 20 22  1  1  0  0  0
 21 20  1  0  0  0  0
 21 23  1  0  0  0  0
 21 24  1  1  0  0  0
 25 26  1  0  0  0  0
 25 24  1  0  0  0  0
 27 26  1  6  0  0  0
 27 29  1  0  0  0  0
 27 30  1  0  0  0  0
 29 28  1  0  0  0  0
 30 28  1  0  0  0  0
 32 31  1  0  0  0  0
 33 40  1  6  0  0  0
 33 39  1  0  0  0  0
 33 43  1  0  0  0  0
 35 39  1  6  0  0  0
 35 42  1  0  0  0  0
 37 34  1  0  0  0  0
 37 36  1  1  0  0  0
 38 35  1  0  0  0  0
 38 41  1  0  0  0  0
 38 32  1  1  0  0  0
 42 34  1  0  0  0  0
 43 41  1  1  0  0  0
 43 37  1  0  0  0  0
 45 37  1  0  0  0  0
 45 44  1  1  0  0  0
 46 47  1  1  0  0  0
 46 45  1  0  0  0  0
 48 46  1  0  0  0  0
 49 48  1  0  0  0  0
 50 53  1  1  0  0  0
 50 51  1  0  0  0  0
 52 51  2  0  0  0  0
 54 53  1  0  0  0  0
 55 54  1  0  0  0  0
M  END
>  <MODEL>
1

>  <REMARK>
 VINA RESULT:      -0.8      0.000      0.000
  Name = 
  15 active torsions:
  status: ('A' for Active; 'I' for Inactive)
    1  A    between atoms: C_8  and  O_22
    2  A    between atoms: C_8  and  C_43
    3  A    between atoms: C_9  and  C_15
    4  A    between atoms: C_9  and  C_26
    5  A    between atoms: C_10  and  C_32
    6  A    between atoms: C_11  and  C_29
    7  A    between atoms: C_13  and  C_34
    8  A    between atoms: C_13  and  C_48
    9  A    between atoms: C_14  and  C_38
   10  A    between atoms: C_16  and  C_26
   11  A    between atoms: C_20  and  O_22
   12  A    between atoms: C_26  and  C_45
   13  A    between atoms: C_29  and  C_38
   14  A    between atoms: C_32  and  C_48
   15  A    between atoms: C_33  and  C_49
                            x       y       z     vdW  Elec       q    Type
                         _______ _______ _______ _____ _____    ______ ____

>  <TORSDO>
F 15

$$$$
=
 OpenBabel11062408403D

 55 60  0  0  1  0  0  0  0  0999 V2000
  161.4480  210.9730  152.5460 O   0  0  0  0  0  0  0  0  0  0  0  0
  161.1090  205.6940  155.3160 C   0  0  0  0  0  2  0  0  0  0  0  0
  158.6490  207.6680  156.1270 S   0  0  0  0  0  1  0  0  0  0  0  0
  159.9230  209.2040  154.1610 C   0  0  0  0  0  2  0  0  0  0  0  0
  162.0900  209.6110  149.1400 C   0  0  0  0  0  3  0  0  0  0  0  0
  162.2710  207.8890  150.8620 C   0  0  0  0  0  0  0  0  0  0  0  0
  162.2460  210.9400  153.6980 C   0  0  0  0  0  2  0  0  0  0  0  0
  162.1460  208.7870  151.8430 C   0  0  0  0  0  3  0  0  0  0  0  0
  160.5410  204.8860  154.1480 C   0  0  0  0  0  2  0  0  0  0  0  0
  161.1710  207.1980  155.0390 C   0  0  0  0  0  2  0  0  0  0  0  0
  159.7990  207.7820  154.7110 C   0  0  1  0  0  3  0  0  0  0  0  0
  161.5660  210.5680  150.1830 C   0  0  0  0  0  2  0  0  0  0  0  0
  161.4850  204.8770  152.9530 C   0  0  2  0  0  3  0  0  0  0  0  0
  162.1650  210.2730  151.5640 C   0  0  1  0  0  3  0  0  0  0  0  0
  160.2180  210.2570  155.2350 C   0  0  1  0  0  3  0  0  0  0  0  0
  161.4240  211.2000  154.9630 C   0  0  1  0  0  3  0  0  0  0  0  0
  161.1360  206.0230  152.0130 C   0  0  0  0  0  2  0  0  0  0  0  0
  162.3520  206.4370  151.1970 C   0  0  0  0  0  2  0  0  0  0  0  0
  162.3790  208.3450  149.4610 C   0  0  0  0  0  3  0  0  0  0  0  0
  162.3820  211.2930  156.1590 C   0  0  1  0  0  0  0  0  0  0  0  0
  163.8330  211.0430  155.9460 C   0  0  2  0  0  3  0  0  0  0  0  0
  161.9940  212.0650  157.2610 O   0  0  0  0  0  1  0  0  0  0  0  0
  162.9850  210.0820  156.5480 O   0  0  0  0  0  0  0  0  0  0  0  0
  164.7120  211.6820  157.0130 C   0  0  0  0  0  2  0  0  0  0  0  0
  165.6980  212.6440  156.3720 C   0  0  0  0  0  2  0  0  0  0  0  0
  166.9180  212.8280  157.2610 C   0  0  0  0  0  2  0  0  0  0  0  0
  168.1840  212.8350  156.4160 C   0  0  1  0  0  3  0  0  0  0  0  0
  168.8120  211.1480  155.4480 C   0  0  0  0  0  2  0  0  0  0  0  0
  169.1060  211.7060  156.8190 C   0  0  0  0  0  2  0  0  0  0  0  0
  167.9140  212.2470  155.1110 N   0  0  0  0  0  2  0  0  0  0  0  0
  161.4090  203.5380  152.2270 C   0  0  0  0  0  2  0  0  0  0  0  0
  161.6690  203.6930  150.8600 O   0  0  0  0  0  0  0  0  0  0  0  0
  159.2780  201.3460  148.4190 C   0  0  1  0  0  3  0  0  0  0  0  0
  162.1470  201.2330  147.8460 C   0  0  0  0  0  2  0  0  0  0  0  0
  161.2470  201.4720  150.0170 C   0  0  1  0  0  3  0  0  0  0  0  0
  162.1560  203.5830  147.0030 C   0  0  0  0  0  1  0  0  0  0  0  0
  161.3040  202.3220  147.1460 C   0  0  2  0  0  0  0  0  0  0  0  0
  160.7130  202.8980  150.2230 C   0  0  2  0  0  3  0  0  0  0  0  0
  160.0850  200.5980  149.4950 C   0  0  0  0  0  2  0  0  0  0  0  0
  158.0210  201.6810  148.9260 O   0  0  0  0  0  1  0  0  0  0  0  0
  160.2690  203.5380  149.0320 O   0  0  0  0  0  0  0  0  0  0  0  0
  162.4190  201.5110  149.2070 O   0  0  0  0  0  0  0  0  0  0  0  0
  160.0180  202.6280  147.9630 C   0  0  2  0  0  3  0  0  0  0  0  0
  160.3250  202.8950  144.8390 C   0  0  0  0  0  1  0  0  0  0  0  0
  160.8970  201.8020  145.7450 C   0  0  2  0  0  3  0  0  0  0  0  0
  159.9990  200.5530  145.7920 C   0  0  1  0  0  3  0  0  0  0  0  0
  158.7780  200.7630  145.1370 O   0  0  0  0  0  1  0  0  0  0  0  0
  160.7050  199.3160  145.2460 C   0  0  0  0  0  2  0  0  0  0  0  0
  161.9050  199.0860  145.9190 O   0  0  0  0  0  1  0  0  0  0  0  0
  158.9330  211.0280  155.5610 C   0  0  1  0  0  3  0  0  0  0  0  0
  159.1850  212.4860  155.8150 C   0  0  0  0  0  3  0  0  0  0  0  0
  158.5680  213.0940  156.6770 O   0  0  0  0  0  0  0  0  0  0  0  0
  157.8310  210.8000  154.5240 C   0  0  0  0  0  2  0  0  0  0  0  0
  156.5080  211.3870  154.9870 C   0  0  0  0  0  2  0  0  0  0  0  0
  155.4230  210.3270  154.9920 C   0  0  0  0  0  1  0  0  0  0  0  0
  1  7  1  0  0  0  0
  4 11  1  0  0  0  0
  4 15  1  0  0  0  0
  5 19  2  0  0  0  0
  5 12  1  0  0  0  0
  6 18  1  0  0  0  0
  6  8  2  0  0  0  0
  9  2  1  0  0  0  0
 10  2  1  0  0  0  0
 11 10  1  0  0  0  0
 11  3  1  1  0  0  0
 13 31  1  6  0  0  0
 13  9  1  0  0  0  0
 14 12  1  6  0  0  0
 14  8  1  0  0  0  0
 14  1  1  0  0  0  0
 15 50  1  6  0  0  0
 16  7  1  6  0  0  0
 16 15  1  0  0  0  0
 16 20  1  0  0  0  0
 17 13  1  0  0  0  0
 18 17  1  0  0  0  0
 19  6  1  0  0  0  0
 20 23  1  0  0  0  0
 20 22  1  1  0  0  0
 21 20  1  0  0  0  0
 21 23  1  0  0  0  0
 21 24  1  1  0  0  0
 25 24  1  0  0  0  0
 25 26  1  0  0  0  0
 27 29  1  0  0  0  0
 27 26  1  1  0  0  0
 28 29  1  0  0  0  0
 30 28  1  0  0  0  0
 30 27  1  0  0  0  0
 32 31  1  0  0  0  0
 33 40  1  1  0  0  0
 33 39  1  0  0  0  0
 34 42  1  0  0  0  0
 35 39  1  6  0  0  0
 35 38  1  0  0  0  0
 37 36  1  6  0  0  0
 37 34  1  0  0  0  0
 37 43  1  0  0  0  0
 38 32  1  6  0  0  0
 41 38  1  0  0  0  0
 42 35  1  0  0  0  0
 43 33  1  0  0  0  0
 43 41  1  1  0  0  0
 45 44  1  1  0  0  0
 45 46  1  0  0  0  0
 45 37  1  0  0  0  0
 46 47  1  6  0  0  0
 48 46  1  0  0  0  0
 48 49  1  0  0  0  0
 50 53  1  6  0  0  0
 50 51  1  0  0  0  0
 51 52  2  0  0  0  0
 53 54  1  0  0  0  0
 54 55  1  0  0  0  0
M  END
>  <MODEL>
2

>  <REMARK>
 VINA RESULT:       1.7      2.093      3.554
  Name = 
  15 active torsions:
  status: ('A' for Active; 'I' for Inactive)
    1  A    between atoms: C_8  and  O_22
    2  A    between atoms: C_8  and  C_43
    3  A    between atoms: C_9  and  C_15
    4  A    between atoms: C_9  and  C_26
    5  A    between atoms: C_10  and  C_32
    6  A    between atoms: C_11  and  C_29
    7  A    between atoms: C_13  and  C_34
    8  A    between atoms: C_13  and  C_48
    9  A    between atoms: C_14  and  C_38
   10  A    between atoms: C_16  and  C_26
   11  A    between atoms: C_20  and  O_22
   12  A    between atoms: C_26  and  C_45
   13  A    between atoms: C_29  and  C_38
   14  A    between atoms: C_32  and  C_48
   15  A    between atoms: C_33  and  C_49
                            x       y       z     vdW  Elec       q    Type
                         _______ _______ _______ _____ _____    ______ ____

>  <TORSDO>
F 15

$$$$
