=
 OpenBabel11062408283D

 32 37  0  0  1  0  0  0  0  0999 V2000
  161.5540  208.1550  150.9840 C   0  0  1  0  0  3  0  0  0  0  0  0
  161.2180  206.1670  149.5320 C   0  0  1  0  0  3  0  0  0  0  0  0
  162.3390  209.4580  151.1930 C   0  0  0  0  0  2  0  0  0  0  0  0
  162.0120  207.4530  149.6950 C   0  0  1  0  0  3  0  0  0  0  0  0
  161.3480  205.6000  148.1300 C   0  0  0  0  0  0  0  0  0  0  0  0
  160.5280  200.4500  150.5710 C   0  0  0  0  0  2  0  0  0  0  0  0
  161.6270  205.2210  150.6660 C   0  0  1  0  0  3  0  0  0  0  0  0
  160.7420  202.1640  148.8720 N   0  0  0  0  0  0  0  0  0  0  0  0
  160.9940  203.4210  148.9890 C   0  0  0  0  0  0  0  0  0  0  0  0
  161.9850  208.3450  148.4210 C   0  0  1  0  0  3  0  0  0  0  0  0
  161.1930  204.3230  147.8970 N   0  0  0  0  0  0  0  0  0  0  0  0
  161.0770  207.8710  147.4480 O   0  0  0  0  0  0  0  0  0  0  0  0
  161.6710  209.8040  148.7490 C   0  0  0  0  0  2  0  0  0  0  0  0
  161.1040  205.8110  151.9730 C   0  0  0  0  0  2  0  0  0  0  0  0
  161.7080  207.2120  152.2060 C   0  0  2  0  0  3  0  0  0  0  0  0
  161.1200  203.8500  150.3640 C   0  0  0  0  0  0  0  0  0  0  0  0
  161.5170  206.6000  147.0130 C   0  0  2  0  0  3  0  0  0  0  0  0
  162.5370  210.2850  149.9120 C   0  0  0  0  0  2  0  0  0  0  0  0
  160.6880  201.7190  150.2270 C   0  0  0  0  0  0  0  0  0  0  0  0
  160.9870  202.8050  151.1670 C   0  0  0  0  0  3  0  0  0  0  0  0
  160.8690  210.2390  153.9030 C   0  0  0  0  0  0  0  0  0  0  0  0
  162.0200  209.5300  157.2580 O   0  0  0  0  0  0  0  0  0  0  0  0
  160.9290  211.2590  153.1650 O   0  0  0  0  0  0  0  0  0  0  0  0
  160.9160  207.9200  155.9220 C   0  0  0  0  0  2  0  0  0  0  0  0
  161.1380  207.8190  153.4610 C   0  0  0  0  0  0  0  0  0  0  0  0
  161.4140  210.3180  155.1950 O   0  0  0  0  0  0  0  0  0  0  0  0
  161.4600  207.3200  154.6630 C   0  0  0  0  0  3  0  0  0  0  0  0
  160.2050  208.9970  153.3750 C   0  0  2  0  0  3  0  0  0  0  0  0
  159.7590  209.1870  152.0760 F   0  0  0  0  0  0  0  0  0  0  0  0
  161.4790  209.2890  156.1490 C   0  0  0  0  0  0  0  0  0  0  0  0
  160.7150  206.1940  145.7860 C   0  0  0  0  0  2  0  0  0  0  0  0
  161.5690  205.6760  144.8130 O   0  0  0  0  0  1  0  0  0  0  0  0
  1  3  1  1  0  0  0
  1 15  1  0  0  0  0
  2  5  1  6  0  0  0
  2  4  1  0  0  0  0
  2  7  1  0  0  0  0
  4  1  1  0  0  0  0
  7 14  1  0  0  0  0
  8  9  2  0  0  0  0
  8 19  1  0  0  0  0
  9 16  1  0  0  0  0
 10 13  1  0  0  0  0
 10  4  1  0  0  0  0
 11  5  2  0  0  0  0
 11  9  1  0  0  0  0
 12 10  1  0  0  0  0
 13 18  1  0  0  0  0
 14 15  1  0  0  0  0
 15 25  1  0  0  0  0
 16  7  1  0  0  0  0
 16 20  2  0  0  0  0
 17 12  1  0  0  0  0
 17  5  1  0  0  0  0
 18  3  1  0  0  0  0
 19  6  2  0  0  0  0
 19 20  1  0  0  0  0
 21 26  1  0  0  0  0
 23 21  2  0  0  0  0
 24 30  1  0  0  0  0
 25 27  2  0  0  0  0
 26 30  1  0  0  0  0
 27 24  1  0  0  0  0
 28 25  1  0  0  0  0
 28 21  1  0  0  0  0
 29 28  1  0  0  0  0
 30 22  2  0  0  0  0
 31 17  1  0  0  0  0
 32 31  1  0  0  0  0
M  END
>  <MODEL>
1

>  <REMARK>
 VINA RESULT:      -9.7      0.000      0.000
  Name = 
  2 active torsions:
  status: ('A' for Active; 'I' for Inactive)
    1  A    between atoms: C_13  and  C_29
    2  A    between atoms: C_16  and  C_27
                            x       y       z     vdW  Elec       q    Type
                         _______ _______ _______ _____ _____    ______ ____

>  <TORSDO>
F 2

$$$$
=
 OpenBabel11062408283D

 32 37  0  0  1  0  0  0  0  0999 V2000
  161.1690  204.6540  150.5750 C   0  0  1  0  0  3  0  0  0  0  0  0
  161.3250  203.6950  148.2900 C   0  0  1  0  0  3  0  0  0  0  0  0
  160.5050  204.5470  151.9550 C   0  0  0  0  0  2  0  0  0  0  0  0
  160.6500  203.5470  149.6440 C   0  0  1  0  0  3  0  0  0  0  0  0
  161.1450  202.4540  147.4330 C   0  0  0  0  0  0  0  0  0  0  0  0
  161.4980  206.0080  142.9170 C   0  0  0  0  0  2  0  0  0  0  0  0
  160.8330  205.0040  147.6640 C   0  0  1  0  0  3  0  0  0  0  0  0
  161.4400  203.9630  144.2140 N   0  0  0  0  0  0  0  0  0  0  0  0
  161.3020  203.7890  145.4830 C   0  0  0  0  0  0  0  0  0  0  0  0
  160.7580  202.1060  150.2180 C   0  0  1  0  0  3  0  0  0  0  0  0
  161.1850  202.5170  146.1280 N   0  0  0  0  0  0  0  0  0  0  0  0
  161.6200  201.2840  149.4590 O   0  0  0  0  0  0  0  0  0  0  0  0
  161.2020  202.1030  151.6800 C   0  0  0  0  0  2  0  0  0  0  0  0
  161.4060  206.1540  148.4860 C   0  0  0  0  0  2  0  0  0  0  0  0
  160.9310  206.0540  149.9510 C   0  0  2  0  0  3  0  0  0  0  0  0
  161.2140  205.0290  146.2210 C   0  0  0  0  0  0  0  0  0  0  0  0
  161.0680  201.1370  148.1660 C   0  0  2  0  0  3  0  0  0  0  0  0
  160.3830  203.1090  152.4850 C   0  0  0  0  0  2  0  0  0  0  0  0
  161.4530  205.3840  144.0850 C   0  0  0  0  0  0  0  0  0  0  0  0
  161.2530  206.0490  145.3770 C   0  0  0  0  0  3  0  0  0  0  0  0
  161.8500  207.1240  153.2300 C   0  0  0  0  0  0  0  0  0  0  0  0
  160.8280  210.5940  153.1710 O   0  0  0  0  0  0  0  0  0  0  0  0
  161.7650  206.2120  154.0950 O   0  0  0  0  0  0  0  0  0  0  0  0
  161.8710  209.5400  151.3270 C   0  0  0  0  0  2  0  0  0  0  0  0
  161.5530  207.1510  150.7740 C   0  0  0  0  0  0  0  0  0  0  0  0
  161.3560  208.3980  153.5540 O   0  0  0  0  0  0  0  0  0  0  0  0
  161.2750  208.4360  150.5110 C   0  0  0  0  0  3  0  0  0  0  0  0
  162.4860  206.8120  151.9040 C   0  0  2  0  0  3  0  0  0  0  0  0
  162.8820  205.4840  151.8430 F   0  0  0  0  0  0  0  0  0  0  0  0
  161.3240  209.5300  152.7210 C   0  0  0  0  0  0  0  0  0  0  0  0
  161.8310  200.0490  147.4240 C   0  0  0  0  0  2  0  0  0  0  0  0
  161.0870  199.6140  146.3270 O   0  0  0  0  0  1  0  0  0  0  0  0
  1  3  1  1  0  0  0
  2  5  1  6  0  0  0
  2  4  1  0  0  0  0
  3 18  1  0  0  0  0
  4 10  1  0  0  0  0
  4  1  1  0  0  0  0
  5 17  1  0  0  0  0
  6 19  2  0  0  0  0
  7  2  1  0  0  0  0
  7 14  1  0  0  0  0
  8  9  2  0  0  0  0
  9 11  1  0  0  0  0
  9 16  1  0  0  0  0
 10 13  1  0  0  0  0
 11  5  2  0  0  0  0
 12 10  1  0  0  0  0
 13 18  1  0  0  0  0
 14 15  1  0  0  0  0
 15  1  1  0  0  0  0
 15 25  1  0  0  0  0
 16  7  1  0  0  0  0
 17 12  1  0  0  0  0
 19  8  1  0  0  0  0
 19 20  1  0  0  0  0
 20 16  2  0  0  0  0
 21 26  1  0  0  0  0
 21 23  2  0  0  0  0
 24 30  1  0  0  0  0
 25 28  1  0  0  0  0
 27 25  2  0  0  0  0
 27 24  1  0  0  0  0
 28 21  1  0  0  0  0
 29 28  1  0  0  0  0
 30 22  2  0  0  0  0
 30 26  1  0  0  0  0
 31 17  1  0  0  0  0
 32 31  1  0  0  0  0
M  END
>  <MODEL>
2

>  <REMARK>
 VINA RESULT:      -8.9      2.526      5.157
  Name = 
  2 active torsions:
  status: ('A' for Active; 'I' for Inactive)
    1  A    between atoms: C_13  and  C_29
    2  A    between atoms: C_16  and  C_27
                            x       y       z     vdW  Elec       q    Type
                         _______ _______ _______ _____ _____    ______ ____

>  <TORSDO>
F 2

$$$$
=
 OpenBabel11062408283D

 32 37  0  0  1  0  0  0  0  0999 V2000
  161.3960  209.8220  150.8030 C   0  0  1  0  0  3  0  0  0  0  0  0
  161.2650  207.4820  149.9800 C   0  0  1  0  0  3  0  0  0  0  0  0
  162.1110  211.1750  150.6770 C   0  0  0  0  0  2  0  0  0  0  0  0
  161.9930  208.8060  149.8160 C   0  0  1  0  0  3  0  0  0  0  0  0
  161.5400  206.5400  148.8210 C   0  0  0  0  0  0  0  0  0  0  0  0
  160.6930  202.2810  152.6020 C   0  0  0  0  0  2  0  0  0  0  0  0
  161.6040  206.9320  151.3700 C   0  0  1  0  0  3  0  0  0  0  0  0
  160.9960  203.4380  150.4940 N   0  0  0  0  0  0  0  0  0  0  0  0
  161.1900  204.6880  150.2550 C   0  0  0  0  0  0  0  0  0  0  0  0
  162.0480  209.2860  148.3380 C   0  0  1  0  0  3  0  0  0  0  0  0
  161.4530  205.2440  148.9630 N   0  0  0  0  0  0  0  0  0  0  0  0
  161.2490  208.4950  147.4820 O   0  0  0  0  0  0  0  0  0  0  0  0
  161.6530  210.7550  148.1970 C   0  0  0  0  0  2  0  0  0  0  0  0
  160.9450  207.8430  152.4020 C   0  0  0  0  0  2  0  0  0  0  0  0
  161.4740  209.2860  152.2570 C   0  0  2  0  0  3  0  0  0  0  0  0
  161.1770  205.5040  151.4480 C   0  0  0  0  0  0  0  0  0  0  0  0
  161.7720  207.1820  147.4750 C   0  0  2  0  0  3  0  0  0  0  0  0
  162.3920  211.6040  149.2280 C   0  0  0  0  0  2  0  0  0  0  0  0
  160.8370  203.4030  151.9120 C   0  0  0  0  0  0  0  0  0  0  0  0
  161.0100  204.7320  152.5110 C   0  0  0  0  0  3  0  0  0  0  0  0
  160.9070  210.0510  155.6970 C   0  0  0  0  0  0  0  0  0  0  0  0
  157.3530  210.7270  155.7120 O   0  0  0  0  0  0  0  0  0  0  0  0
  161.6720  209.4270  156.4800 O   0  0  0  0  0  0  0  0  0  0  0  0
  158.7840  211.4630  153.9770 C   0  0  0  0  0  2  0  0  0  0  0  0
  160.7710  210.1950  153.2310 C   0  0  0  0  0  0  0  0  0  0  0  0
  159.5450  210.1400  156.0270 O   0  0  0  0  0  0  0  0  0  0  0  0
  159.5040  210.5730  153.0130 C   0  0  0  0  0  3  0  0  0  0  0  0
  161.4880  210.6810  154.4610 C   0  0  2  0  0  3  0  0  0  0  0  0
  162.8500  210.4410  154.3740 F   0  0  0  0  0  0  0  0  0  0  0  0
  158.5310  210.7550  155.2730 C   0  0  0  0  0  0  0  0  0  0  0  0
  161.0990  206.3890  146.3650 C   0  0  0  0  0  2  0  0  0  0  0  0
  162.0660  205.8110  145.5430 O   0  0  0  0  0  1  0  0  0  0  0  0
  1  3  1  1  0  0  0
  1 15  1  0  0  0  0
  2  5  1  6  0  0  0
  2  7  1  0  0  0  0
  4  2  1  0  0  0  0
  4  1  1  0  0  0  0
  5 11  2  0  0  0  0
  7 16  1  0  0  0  0
  7 14  1  0  0  0  0
  8 19  1  0  0  0  0
  9  8  2  0  0  0  0
  9 16  1  0  0  0  0
 10  4  1  0  0  0  0
 11  9  1  0  0  0  0
 12 10  1  0  0  0  0
 13 10  1  0  0  0  0
 13 18  1  0  0  0  0
 15 14  1  0  0  0  0
 15 25  1  0  0  0  0
 16 20  2  0  0  0  0
 17 12  1  0  0  0  0
 17  5  1  0  0  0  0
 18  3  1  0  0  0  0
 19 20  1  0  0  0  0
 19  6  2  0  0  0  0
 21 26  1  0  0  0  0
 21 23  2  0  0  0  0
 24 30  1  0  0  0  0
 25 28  1  0  0  0  0
 27 25  2  0  0  0  0
 27 24  1  0  0  0  0
 28 21  1  0  0  0  0
 29 28  1  0  0  0  0
 30 22  2  0  0  0  0
 30 26  1  0  0  0  0
 31 17  1  0  0  0  0
 32 31  1  0  0  0  0
M  END
>  <MODEL>
3

>  <REMARK>
 VINA RESULT:      -8.9      1.632      2.423
  Name = 
  2 active torsions:
  status: ('A' for Active; 'I' for Inactive)
    1  A    between atoms: C_13  and  C_29
    2  A    between atoms: C_16  and  C_27
                            x       y       z     vdW  Elec       q    Type
                         _______ _______ _______ _____ _____    ______ ____

>  <TORSDO>
F 2

$$$$
=
 OpenBabel11062408283D

 32 37  0  0  1  0  0  0  0  0999 V2000
  160.8010  208.4920  154.0340 C   0  0  1  0  0  3  0  0  0  0  0  0
  159.7100  210.6880  153.6420 C   0  0  1  0  0  3  0  0  0  0  0  0
  161.5820  207.6210  155.0280 C   0  0  0  0  0  2  0  0  0  0  0  0
  160.4730  209.8570  154.6600 C   0  0  1  0  0  3  0  0  0  0  0  0
  159.0460  211.8940  154.2840 C   0  0  0  0  0  0  0  0  0  0  0  0
  159.6550  214.4530  149.1620 C   0  0  0  0  0  2  0  0  0  0  0  0
  160.6650  211.0010  152.4850 C   0  0  1  0  0  3  0  0  0  0  0  0
  158.9170  214.0320  151.4310 N   0  0  0  0  0  0  0  0  0  0  0  0
  159.2020  213.0620  152.2290 C   0  0  0  0  0  0  0  0  0  0  0  0
  159.7600  209.7890  156.0400 C   0  0  1  0  0  3  0  0  0  0  0  0
  158.7780  212.9700  153.5920 N   0  0  0  0  0  0  0  0  0  0  0  0
  158.4640  210.3500  156.0090 O   0  0  0  0  0  0  0  0  0  0  0  0
  159.6890  208.3600  156.5790 C   0  0  0  0  0  2  0  0  0  0  0  0
  160.9470  209.6930  151.7520 C   0  0  0  0  0  2  0  0  0  0  0  0
  161.5910  208.6700  152.7110 C   0  0  2  0  0  3  0  0  0  0  0  0
  160.0640  212.0670  151.6310 C   0  0  0  0  0  0  0  0  0  0  0  0
  158.5840  211.7260  155.7100 C   0  0  2  0  0  3  0  0  0  0  0  0
  161.0530  207.6840  156.4710 C   0  0  0  0  0  2  0  0  0  0  0  0
  159.6100  213.6770  150.2350 C   0  0  0  0  0  0  0  0  0  0  0  0
  160.3840  212.4410  150.4010 C   0  0  0  0  0  3  0  0  0  0  0  0
  161.3440  206.9160  149.6120 C   0  0  0  0  0  0  0  0  0  0  0  0
  160.0040  203.7320  150.6880 O   0  0  0  0  0  0  0  0  0  0  0  0
  161.1040  207.6680  148.6300 O   0  0  0  0  0  0  0  0  0  0  0  0
  161.6700  204.8910  151.9050 C   0  0  0  0  0  2  0  0  0  0  0  0
  161.8060  207.3580  152.0020 C   0  0  0  0  0  0  0  0  0  0  0  0
  160.6350  205.7080  149.7150 O   0  0  0  0  0  0  0  0  0  0  0  0
  161.4780  206.2030  152.5990 C   0  0  0  0  0  3  0  0  0  0  0  0
  162.3840  207.3360  150.6140 C   0  0  2  0  0  3  0  0  0  0  0  0
  162.9270  208.5670  150.2780 F   0  0  0  0  0  0  0  0  0  0  0  0
  160.7300  204.7570  150.7460 C   0  0  0  0  0  0  0  0  0  0  0  0
  157.2380  212.3980  155.9350 C   0  0  0  0  0  2  0  0  0  0  0  0
  156.2090  211.5240  155.5850 O   0  0  0  0  0  1  0  0  0  0  0  0
  1  4  1  0  0  0  0
  1  3  1  1  0  0  0
  2  5  1  1  0  0  0
  2  4  1  0  0  0  0
  3 18  1  0  0  0  0
  4 10  1  0  0  0  0
  5 17  1  0  0  0  0
  6 19  2  0  0  0  0
  7  2  1  0  0  0  0
  8  9  2  0  0  0  0
  9 11  1  0  0  0  0
 10 13  1  0  0  0  0
 11  5  2  0  0  0  0
 12 10  1  0  0  0  0
 14  7  1  0  0  0  0
 14 15  1  0  0  0  0
 15  1  1  0  0  0  0
 16  9  1  0  0  0  0
 16  7  1  0  0  0  0
 17 31  1  0  0  0  0
 17 12  1  0  0  0  0
 18 13  1  0  0  0  0
 19 20  1  0  0  0  0
 19  8  1  0  0  0  0
 20 16  2  0  0  0  0
 21 26  1  0  0  0  0
 21 28  1  0  0  0  0
 22 30  2  0  0  0  0
 23 21  2  0  0  0  0
 24 27  1  0  0  0  0
 25 27  2  0  0  0  0
 25 15  1  0  0  0  0
 26 30  1  0  0  0  0
 28 25  1  0  0  0  0
 29 28  1  0  0  0  0
 30 24  1  0  0  0  0
 32 31  1  0  0  0  0
M  END
>  <MODEL>
4

>  <REMARK>
 VINA RESULT:      -8.7      3.766      8.176
  Name = 
  2 active torsions:
  status: ('A' for Active; 'I' for Inactive)
    1  A    between atoms: C_13  and  C_29
    2  A    between atoms: C_16  and  C_27
                            x       y       z     vdW  Elec       q    Type
                         _______ _______ _______ _____ _____    ______ ____

>  <TORSDO>
F 2

$$$$
=
 OpenBabel11062408283D

 32 37  0  0  1  0  0  0  0  0999 V2000
  161.5340  206.8320  151.2480 C   0  0  1  0  0  3  0  0  0  0  0  0
  160.7900  208.9180  152.3720 C   0  0  1  0  0  3  0  0  0  0  0  0
  162.4060  205.5730  151.3560 C   0  0  0  0  0  2  0  0  0  0  0  0
  161.6600  207.6810  152.5230 C   0  0  1  0  0  3  0  0  0  0  0  0
  160.5780  209.6230  153.7000 C   0  0  0  0  0  0  0  0  0  0  0  0
  160.0780  214.4510  150.6020 C   0  0  0  0  0  2  0  0  0  0  0  0
  161.3950  209.7800  151.2590 C   0  0  1  0  0  3  0  0  0  0  0  0
  159.9890  212.9230  152.4810 N   0  0  0  0  0  0  0  0  0  0  0  0
  160.3200  211.6810  152.5560 C   0  0  0  0  0  0  0  0  0  0  0  0
  161.3930  206.9140  153.8490 C   0  0  1  0  0  3  0  0  0  0  0  0
  160.3140  210.9020  153.7560 N   0  0  0  0  0  0  0  0  0  0  0  0
  160.2700  207.4120  154.5460 O   0  0  0  0  0  0  0  0  0  0  0  0
  161.2290  205.4120  153.6190 C   0  0  0  0  0  2  0  0  0  0  0  0
  161.2050  209.0350  149.9410 C   0  0  0  0  0  2  0  0  0  0  0  0
  161.9110  207.6640  149.9950 C   0  0  2  0  0  3  0  0  0  0  0  0
  160.7690  211.1350  151.2950 C   0  0  0  0  0  0  0  0  0  0  0  0
  160.5410  208.7460  154.9270 C   0  0  2  0  0  3  0  0  0  0  0  0
  162.3540  204.8860  152.7300 C   0  0  0  0  0  2  0  0  0  0  0  0
  160.2170  213.2340  151.1070 C   0  0  0  0  0  0  0  0  0  0  0  0
  160.7690  212.0870  150.3750 C   0  0  0  0  0  3  0  0  0  0  0  0
  161.0250  204.5180  148.5590 C   0  0  0  0  0  0  0  0  0  0  0  0
  163.3390  204.3110  145.7860 O   0  0  0  0  0  0  0  0  0  0  0  0
  160.6120  203.6810  149.4060 O   0  0  0  0  0  0  0  0  0  0  0  0
  162.2450  206.3210  146.3870 C   0  0  0  0  0  2  0  0  0  0  0  0
  161.6640  206.9030  148.7190 C   0  0  0  0  0  0  0  0  0  0  0  0
  161.9310  204.0820  147.5780 O   0  0  0  0  0  0  0  0  0  0  0  0
  162.4650  207.0790  147.6580 C   0  0  0  0  0  3  0  0  0  0  0  0
  160.5180  205.9320  148.6280 C   0  0  2  0  0  3  0  0  0  0  0  0
  159.6400  206.0940  149.6890 F   0  0  0  0  0  0  0  0  0  0  0  0
  162.5320  204.8630  146.5760 C   0  0  0  0  0  0  0  0  0  0  0  0
  159.4680  209.2090  155.9010 C   0  0  0  0  0  2  0  0  0  0  0  0
  160.0480  209.5260  157.1290 O   0  0  0  0  0  1  0  0  0  0  0  0
  1  3  1  1  0  0  0
  1  4  1  0  0  0  0
  2  4  1  0  0  0  0
  2  5  1  1  0  0  0
  3 18  1  0  0  0  0
  4 10  1  0  0  0  0
  5 11  2  0  0  0  0
  5 17  1  0  0  0  0
  6 19  2  0  0  0  0
  7 16  1  0  0  0  0
  7  2  1  0  0  0  0
  8  9  2  0  0  0  0
  9 11  1  0  0  0  0
 10 12  1  0  0  0  0
 12 17  1  0  0  0  0
 13 10  1  0  0  0  0
 14 15  1  0  0  0  0
 14  7  1  0  0  0  0
 15  1  1  0  0  0  0
 16  9  1  0  0  0  0
 17 31  1  0  0  0  0
 18 13  1  0  0  0  0
 19  8  1  0  0  0  0
 20 19  1  0  0  0  0
 20 16  2  0  0  0  0
 21 28  1  0  0  0  0
 21 23  2  0  0  0  0
 22 30  2  0  0  0  0
 24 30  1  0  0  0  0
 24 27  1  0  0  0  0
 25 15  1  0  0  0  0
 26 21  1  0  0  0  0
 27 25  2  0  0  0  0
 28 25  1  0  0  0  0
 28 29  1  0  0  0  0
 30 26  1  0  0  0  0
 31 32  1  0  0  0  0
M  END
>  <MODEL>
5

>  <REMARK>
 VINA RESULT:      -8.2      3.201      8.144
  Name = 
  2 active torsions:
  status: ('A' for Active; 'I' for Inactive)
    1  A    between atoms: C_13  and  C_29
    2  A    between atoms: C_16  and  C_27
                            x       y       z     vdW  Elec       q    Type
                         _______ _______ _______ _____ _____    ______ ____

>  <TORSDO>
F 2

$$$$
=
 OpenBabel11062408283D

 32 37  0  0  1  0  0  0  0  0999 V2000
  161.4720  203.7610  149.2310 C   0  0  1  0  0  3  0  0  0  0  0  0
  161.4250  205.9660  150.3730 C   0  0  1  0  0  3  0  0  0  0  0  0
  161.9200  202.2950  149.3180 C   0  0  0  0  0  2  0  0  0  0  0  0
  161.8790  204.5220  150.5040 C   0  0  1  0  0  3  0  0  0  0  0  0
  161.4670  206.6920  151.7060 C   0  0  0  0  0  0  0  0  0  0  0  0
  162.4000  211.4660  148.6250 C   0  0  0  0  0  2  0  0  0  0  0  0
  162.2410  206.6110  149.2470 C   0  0  1  0  0  3  0  0  0  0  0  0
  161.8890  210.0240  150.5040 N   0  0  0  0  0  0  0  0  0  0  0  0
  161.8260  208.7390  150.5710 C   0  0  0  0  0  0  0  0  0  0  0  0
  161.4180  203.8620  151.8350 C   0  0  1  0  0  3  0  0  0  0  0  0
  161.6070  207.9900  151.7690 N   0  0  0  0  0  0  0  0  0  0  0  0
  160.5160  204.6740  152.5570 O   0  0  0  0  0  0  0  0  0  0  0  0
  160.7980  202.4840  151.6070 C   0  0  0  0  0  2  0  0  0  0  0  0
  161.8040  205.9700  147.9330 C   0  0  0  0  0  2  0  0  0  0  0  0
  162.0580  204.4480  147.9700 C   0  0  2  0  0  3  0  0  0  0  0  0
  162.0590  208.0920  149.2990 C   0  0  0  0  0  0  0  0  0  0  0  0
  161.1900  205.8590  152.9330 C   0  0  2  0  0  3  0  0  0  0  0  0
  161.6890  201.6460  150.6920 C   0  0  0  0  0  2  0  0  0  0  0  0
  162.1710  210.2600  149.1250 C   0  0  0  0  0  0  0  0  0  0  0  0
  162.3310  209.0060  148.3800 C   0  0  0  0  0  3  0  0  0  0  0  0
  161.3800  204.9240  144.4980 C   0  0  0  0  0  0  0  0  0  0  0  0
  158.2180  203.2030  144.1360 O   0  0  0  0  0  0  0  0  0  0  0  0
  161.8300  206.0100  144.0450 O   0  0  0  0  0  0  0  0  0  0  0  0
  159.9840  202.3600  145.4650 C   0  0  0  0  0  2  0  0  0  0  0  0
  161.5630  203.8090  146.6990 C   0  0  0  0  0  0  0  0  0  0  0  0
  160.0810  204.5360  144.1300 O   0  0  0  0  0  0  0  0  0  0  0  0
  160.5010  202.9910  146.7200 C   0  0  0  0  0  3  0  0  0  0  0  0
  162.2550  204.0900  145.3930 C   0  0  2  0  0  3  0  0  0  0  0  0
  163.4810  204.7030  145.5990 F   0  0  0  0  0  0  0  0  0  0  0  0
  159.3900  203.3890  144.5540 C   0  0  0  0  0  0  0  0  0  0  0  0
  160.3310  206.6190  153.9320 C   0  0  0  0  0  2  0  0  0  0  0  0
  161.1290  207.1120  154.9650 O   0  0  0  0  0  1  0  0  0  0  0  0
  1  3  1  1  0  0  0
  1  4  1  0  0  0  0
  2  4  1  0  0  0  0
  2  5  1  1  0  0  0
  3 18  1  0  0  0  0
  4 10  1  0  0  0  0
  5 11  2  0  0  0  0
  5 17  1  0  0  0  0
  6 19  2  0  0  0  0
  7 16  1  0  0  0  0
  7  2  1  0  0  0  0
  8  9  2  0  0  0  0
  9 11  1  0  0  0  0
 10 12  1  0  0  0  0
 12 17  1  0  0  0  0
 13 10  1  0  0  0  0
 14 15  1  0  0  0  0
 14  7  1  0  0  0  0
 15  1  1  0  0  0  0
 16  9  1  0  0  0  0
 17 31  1  0  0  0  0
 18 13  1  0  0  0  0
 19  8  1  0  0  0  0
 20 19  1  0  0  0  0
 20 16  2  0  0  0  0
 21 28  1  0  0  0  0
 22 30  2  0  0  0  0
 23 21  2  0  0  0  0
 24 27  1  0  0  0  0
 25 27  2  0  0  0  0
 25 15  1  0  0  0  0
 26 21  1  0  0  0  0
 26 30  1  0  0  0  0
 28 29  1  0  0  0  0
 28 25  1  0  0  0  0
 30 24  1  0  0  0  0
 31 32  1  0  0  0  0
M  END
>  <MODEL>
6

>  <REMARK>
 VINA RESULT:      -8.2      2.962      8.296
  Name = 
  2 active torsions:
  status: ('A' for Active; 'I' for Inactive)
    1  A    between atoms: C_13  and  C_29
    2  A    between atoms: C_16  and  C_27
                            x       y       z     vdW  Elec       q    Type
                         _______ _______ _______ _____ _____    ______ ____

>  <TORSDO>
F 2

$$$$
=
 OpenBabel11062408283D

 32 37  0  0  1  0  0  0  0  0999 V2000
  159.7140  212.5130  153.4640 C   0  0  1  0  0  3  0  0  0  0  0  0
  160.6890  210.2880  153.9820 C   0  0  1  0  0  3  0  0  0  0  0  0
  158.7560  213.6190  153.9270 C   0  0  0  0  0  2  0  0  0  0  0  0
  159.7370  211.3620  154.4820 C   0  0  1  0  0  3  0  0  0  0  0  0
  161.0400  209.2940  155.0750 C   0  0  0  0  0  0  0  0  0  0  0  0
  161.7140  205.4680  150.8250 C   0  0  0  0  0  2  0  0  0  0  0  0
  160.0820  209.6820  152.7120 C   0  0  1  0  0  3  0  0  0  0  0  0
  161.8040  206.4750  153.0270 N   0  0  0  0  0  0  0  0  0  0  0  0
  161.3830  207.6230  153.4330 C   0  0  0  0  0  0  0  0  0  0  0  0
  160.0280  211.7930  155.9480 C   0  0  1  0  0  3  0  0  0  0  0  0
  161.4060  208.0720  154.7900 N   0  0  0  0  0  0  0  0  0  0  0  0
  161.2290  211.2390  156.4460 O   0  0  0  0  0  0  0  0  0  0  0  0
  160.0600  213.3120  156.1040 C   0  0  0  0  0  2  0  0  0  0  0  0
  160.1290  210.7500  151.6220 C   0  0  0  0  0  2  0  0  0  0  0  0
  159.3240  211.9930  152.0560 C   0  0  2  0  0  3  0  0  0  0  0  0
  160.8130  208.4250  152.3740 C   0  0  0  0  0  0  0  0  0  0  0  0
  161.0870  209.8330  156.4840 C   0  0  2  0  0  3  0  0  0  0  0  0
  158.8430  213.9400  155.4280 C   0  0  0  0  0  2  0  0  0  0  0  0
  161.5130  206.5010  151.6300 C   0  0  0  0  0  0  0  0  0  0  0  0
  160.8280  207.7390  151.2410 C   0  0  0  0  0  3  0  0  0  0  0  0
  157.8730  213.3970  149.1120 C   0  0  0  0  0  0  0  0  0  0  0  0
  160.8080  214.0580  147.1040 O   0  0  0  0  0  0  0  0  0  0  0  0
  156.7310  212.9340  148.8480 O   0  0  0  0  0  0  0  0  0  0  0  0
  160.7430  214.4530  149.4360 C   0  0  0  0  0  2  0  0  0  0  0  0
  159.4290  213.0700  151.0080 C   0  0  0  0  0  0  0  0  0  0  0  0
  158.7910  213.5450  148.0600 O   0  0  0  0  0  0  0  0  0  0  0  0
  160.6200  213.3970  150.4890 C   0  0  0  0  0  3  0  0  0  0  0  0
  158.1920  213.7820  150.5300 C   0  0  2  0  0  3  0  0  0  0  0  0
  157.1160  213.5310  151.3670 F   0  0  0  0  0  0  0  0  0  0  0  0
  160.1160  214.0040  148.1520 C   0  0  0  0  0  0  0  0  0  0  0  0
  162.2540  209.2410  157.2600 C   0  0  0  0  0  2  0  0  0  0  0  0
  163.3860  210.0390  157.0960 O   0  0  0  0  0  1  0  0  0  0  0  0
  1  3  1  1  0  0  0
  1  4  1  0  0  0  0
  2  4  1  0  0  0  0
  2  5  1  1  0  0  0
  3 18  1  0  0  0  0
  4 10  1  0  0  0  0
  5 17  1  0  0  0  0
  6 19  2  0  0  0  0
  7  2  1  0  0  0  0
  8  9  2  0  0  0  0
  9 11  1  0  0  0  0
 10 13  1  0  0  0  0
 10 12  1  0  0  0  0
 11  5  2  0  0  0  0
 12 17  1  0  0  0  0
 14 15  1  0  0  0  0
 14  7  1  0  0  0  0
 15  1  1  0  0  0  0
 16  7  1  0  0  0  0
 16  9  1  0  0  0  0
 17 31  1  0  0  0  0
 18 13  1  0  0  0  0
 19  8  1  0  0  0  0
 20 19  1  0  0  0  0
 20 16  2  0  0  0  0
 21 28  1  0  0  0  0
 22 30  2  0  0  0  0
 23 21  2  0  0  0  0
 24 27  1  0  0  0  0
 25 15  1  0  0  0  0
 26 30  1  0  0  0  0
 26 21  1  0  0  0  0
 27 25  2  0  0  0  0
 28 25  1  0  0  0  0
 28 29  1  0  0  0  0
 30 24  1  0  0  0  0
 32 31  1  0  0  0  0
M  END
>  <MODEL>
7

>  <REMARK>
 VINA RESULT:      -8.1      3.792      7.572
  Name = 
  2 active torsions:
  status: ('A' for Active; 'I' for Inactive)
    1  A    between atoms: C_13  and  C_29
    2  A    between atoms: C_16  and  C_27
                            x       y       z     vdW  Elec       q    Type
                         _______ _______ _______ _____ _____    ______ ____

>  <TORSDO>
F 2

$$$$
=
 OpenBabel11062408283D

 32 37  0  0  1  0  0  0  0  0999 V2000
  160.0590  212.3690  151.3560 C   0  0  1  0  0  3  0  0  0  0  0  0
  160.7560  210.0810  152.0250 C   0  0  1  0  0  3  0  0  0  0  0  0
  160.4720  213.6660  150.6460 C   0  0  0  0  0  2  0  0  0  0  0  0
  161.2030  211.3430  151.3050 C   0  0  1  0  0  3  0  0  0  0  0  0
  161.6700  208.9070  151.7210 C   0  0  0  0  0  0  0  0  0  0  0  0
  160.2200  206.9460  156.9380 C   0  0  0  0  0  2  0  0  0  0  0  0
  160.5960  210.4240  153.5100 C   0  0  1  0  0  3  0  0  0  0  0  0
  161.1240  207.0060  154.6900 N   0  0  0  0  0  0  0  0  0  0  0  0
  161.1430  207.9640  153.8290 C   0  0  0  0  0  0  0  0  0  0  0  0
  161.7640  211.0600  149.8830 C   0  0  1  0  0  3  0  0  0  0  0  0
  161.7960  207.9100  152.5580 N   0  0  0  0  0  0  0  0  0  0  0  0
  161.5680  209.7200  149.4800 O   0  0  0  0  0  0  0  0  0  0  0  0
  161.1740  212.0030  148.8350 C   0  0  0  0  0  2  0  0  0  0  0  0
  159.4000  211.3630  153.6420 C   0  0  0  0  0  2  0  0  0  0  0  0
  159.6370  212.6490  152.8220 C   0  0  2  0  0  3  0  0  0  0  0  0
  160.4730  209.1580  154.2920 C   0  0  0  0  0  0  0  0  0  0  0  0
  162.3020  208.8840  150.3510 C   0  0  2  0  0  3  0  0  0  0  0  0
  161.2340  213.4470  149.3280 C   0  0  0  0  0  2  0  0  0  0  0  0
  160.4050  207.5730  155.7850 C   0  0  0  0  0  0  0  0  0  0  0  0
  160.0430  208.9720  155.5310 C   0  0  0  0  0  3  0  0  0  0  0  0
  157.0150  213.8920  154.9010 C   0  0  0  0  0  0  0  0  0  0  0  0
  154.1820  213.7490  152.6550 O   0  0  0  0  0  0  0  0  0  0  0  0
  157.1680  213.6110  156.1190 O   0  0  0  0  0  0  0  0  0  0  0  0
  156.3310  214.4510  151.9540 C   0  0  0  0  0  2  0  0  0  0  0  0
  158.4280  213.5430  152.8990 C   0  0  0  0  0  0  0  0  0  0  0  0
  155.7390  213.7350  154.3350 O   0  0  0  0  0  0  0  0  0  0  0  0
  157.5470  213.5810  151.8890 C   0  0  0  0  0  3  0  0  0  0  0  0
  158.1960  214.3960  154.1170 C   0  0  2  0  0  3  0  0  0  0  0  0
  159.3310  214.4530  154.9110 F   0  0  0  0  0  0  0  0  0  0  0  0
  155.3750  213.9570  152.9960 C   0  0  0  0  0  0  0  0  0  0  0  0
  162.3220  207.4740  149.7800 C   0  0  0  0  0  2  0  0  0  0  0  0
  162.4620  207.5280  148.3930 O   0  0  0  0  0  1  0  0  0  0  0  0
  1  3  1  1  0  0  0
  1 15  1  0  0  0  0
  2  5  1  1  0  0  0
  2  7  1  0  0  0  0
  4  1  1  0  0  0  0
  4  2  1  0  0  0  0
  5 11  2  0  0  0  0
  7 14  1  0  0  0  0
  7 16  1  0  0  0  0
  8 19  1  0  0  0  0
  9 16  1  0  0  0  0
  9  8  2  0  0  0  0
 10  4  1  0  0  0  0
 11  9  1  0  0  0  0
 12 10  1  0  0  0  0
 12 17  1  0  0  0  0
 13 18  1  0  0  0  0
 13 10  1  0  0  0  0
 15 25  1  0  0  0  0
 15 14  1  0  0  0  0
 16 20  2  0  0  0  0
 17  5  1  0  0  0  0
 18  3  1  0  0  0  0
 19  6  2  0  0  0  0
 20 19  1  0  0  0  0
 21 23  2  0  0  0  0
 22 30  2  0  0  0  0
 24 30  1  0  0  0  0
 25 28  1  0  0  0  0
 26 21  1  0  0  0  0
 27 24  1  0  0  0  0
 27 25  2  0  0  0  0
 28 21  1  0  0  0  0
 28 29  1  0  0  0  0
 30 26  1  0  0  0  0
 31 17  1  0  0  0  0
 32 31  1  0  0  0  0
M  END
>  <MODEL>
8

>  <REMARK>
 VINA RESULT:      -7.5      3.990      6.152
  Name = 
  2 active torsions:
  status: ('A' for Active; 'I' for Inactive)
    1  A    between atoms: C_13  and  C_29
    2  A    between atoms: C_16  and  C_27
                            x       y       z     vdW  Elec       q    Type
                         _______ _______ _______ _____ _____    ______ ____

>  <TORSDO>
F 2

$$$$
=
 OpenBabel11062408283D

 32 37  0  0  1  0  0  0  0  0999 V2000
  161.3880  205.9970  149.8170 C   0  0  1  0  0  3  0  0  0  0  0  0
  161.2750  208.3220  150.6840 C   0  0  1  0  0  3  0  0  0  0  0  0
  161.8950  204.5700  150.0700 C   0  0  0  0  0  2  0  0  0  0  0  0
  161.7870  206.9220  150.9780 C   0  0  1  0  0  3  0  0  0  0  0  0
  161.3120  209.2060  151.9180 C   0  0  0  0  0  0  0  0  0  0  0  0
  162.0020  213.6000  148.2610 C   0  0  0  0  0  2  0  0  0  0  0  0
  162.0450  208.8540  149.4700 C   0  0  1  0  0  3  0  0  0  0  0  0
  161.5810  212.3800  150.3120 N   0  0  0  0  0  0  0  0  0  0  0  0
  161.5700  211.1110  150.5350 C   0  0  0  0  0  0  0  0  0  0  0  0
  161.3760  206.4130  152.3890 C   0  0  1  0  0  3  0  0  0  0  0  0
  161.4030  210.5070  151.8200 N   0  0  0  0  0  0  0  0  0  0  0  0
  160.4560  207.2740  153.0280 O   0  0  0  0  0  0  0  0  0  0  0  0
  160.8070  204.9950  152.3440 C   0  0  0  0  0  2  0  0  0  0  0  0
  161.6100  208.0420  148.2540 C   0  0  0  0  0  2  0  0  0  0  0  0
  161.9250  206.5470  148.4690 C   0  0  2  0  0  3  0  0  0  0  0  0
  161.8070  210.3230  149.3470 C   0  0  0  0  0  0  0  0  0  0  0  0
  161.0900  208.5190  153.2430 C   0  0  2  0  0  3  0  0  0  0  0  0
  161.7140  204.0860  151.5180 C   0  0  0  0  0  2  0  0  0  0  0  0
  161.8300  212.4570  148.9090 C   0  0  0  0  0  0  0  0  0  0  0  0
  162.0250  211.1280  148.3180 C   0  0  0  0  0  3  0  0  0  0  0  0
  162.8410  204.3650  145.7960 C   0  0  0  0  0  0  0  0  0  0  0  0
  160.8310  205.6630  143.0820 O   0  0  0  0  0  0  0  0  0  0  0  0
  164.0290  203.9530  145.8720 O   0  0  0  0  0  0  0  0  0  0  0  0
  160.0110  205.4600  145.2920 C   0  0  0  0  0  2  0  0  0  0  0  0
  161.4330  205.7400  147.2960 C   0  0  0  0  0  0  0  0  0  0  0  0
  162.3610  204.7900  144.5460 O   0  0  0  0  0  0  0  0  0  0  0  0
  160.5010  206.2400  146.4720 C   0  0  0  0  0  3  0  0  0  0  0  0
  161.9900  204.3670  147.0370 C   0  0  2  0  0  3  0  0  0  0  0  0
  162.7060  203.9030  148.1300 F   0  0  0  0  0  0  0  0  0  0  0  0
  161.0890  205.3140  144.2620 C   0  0  0  0  0  0  0  0  0  0  0  0
  160.2190  209.3630  154.1610 C   0  0  0  0  0  2  0  0  0  0  0  0
  160.1080  208.7460  155.4070 O   0  0  0  0  0  1  0  0  0  0  0  0
  1  3  1  1  0  0  0
  1  4  1  0  0  0  0
  2  4  1  0  0  0  0
  2  5  1  1  0  0  0
  3 18  1  0  0  0  0
  4 10  1  0  0  0  0
  5 17  1  0  0  0  0
  6 19  2  0  0  0  0
  7  2  1  0  0  0  0
  8  9  2  0  0  0  0
  9 11  1  0  0  0  0
 10 12  1  0  0  0  0
 11  5  2  0  0  0  0
 12 17  1  0  0  0  0
 13 10  1  0  0  0  0
 14 15  1  0  0  0  0
 14  7  1  0  0  0  0
 15  1  1  0  0  0  0
 16  7  1  0  0  0  0
 16  9  1  0  0  0  0
 17 31  1  0  0  0  0
 18 13  1  0  0  0  0
 19  8  1  0  0  0  0
 20 19  1  0  0  0  0
 20 16  2  0  0  0  0
 21 23  2  0  0  0  0
 21 28  1  0  0  0  0
 22 30  2  0  0  0  0
 24 27  1  0  0  0  0
 25 15  1  0  0  0  0
 26 21  1  0  0  0  0
 27 25  2  0  0  0  0
 28 25  1  0  0  0  0
 28 29  1  0  0  0  0
 30 26  1  0  0  0  0
 30 24  1  0  0  0  0
 31 32  1  0  0  0  0
M  END
>  <MODEL>
9

>  <REMARK>
 VINA RESULT:      -7.3      2.998      8.336
  Name = 
  2 active torsions:
  status: ('A' for Active; 'I' for Inactive)
    1  A    between atoms: C_13  and  C_29
    2  A    between atoms: C_16  and  C_27
                            x       y       z     vdW  Elec       q    Type
                         _______ _______ _______ _____ _____    ______ ____

>  <TORSDO>
F 2

$$$$
