=
 OpenBabel11052421523D

 30 34  0  0  1  0  0  0  0  0999 V2000
  161.3910  208.3690  151.3540 C   0  0  0  0  0  0  0  0  0  0  0  0
  162.0440  209.3850  149.1070 C   0  0  0  0  0  0  0  0  0  0  0  0
  160.4600  212.2540  152.7270 O   0  0  0  0  0  0  0  0  0  0  0  0
  160.9200  208.5460  152.6770 C   0  0  0  0  0  0  0  0  0  0  0  0
  161.9000  207.0190  150.9180 C   0  0  0  0  0  2  0  0  0  0  0  0
  160.9740  205.0030  153.9040 O   0  0  0  0  0  1  0  0  0  0  0  0
  161.1100  209.2380  155.4330 C   0  0  2  0  0  3  0  0  0  0  0  0
  161.4920  206.0860  153.1890 C   0  0  1  0  0  3  0  0  0  0  0  0
  159.5100  211.2730  155.0080 C   0  0  2  0  0  3  0  0  0  0  0  0
  159.2390  212.7130  153.3110 C   0  0  0  0  0  2  0  0  0  0  0  0
  161.2760  205.8710  151.6940 C   0  0  2  0  0  3  0  0  0  0  0  0
  160.8030  207.3750  153.6490 C   0  0  1  0  0  3  0  0  0  0  0  0
  162.4570  210.6010  148.4000 C   0  0  0  0  0  3  0  0  0  0  0  0
  160.9920  209.4820  156.9330 C   0  0  0  0  0  1  0  0  0  0  0  0
  162.1680  208.2770  148.5210 O   0  0  0  0  0  0  0  0  0  0  0  0
  160.6890  210.9440  152.2810 C   0  0  0  0  0  0  0  0  0  0  0  0
  162.1430  211.8020  148.8720 C   0  0  0  0  0  3  0  0  0  0  0  0
  161.5110  209.4870  150.4960 C   0  0  0  0  0  0  0  0  0  0  0  0
  160.5060  209.8180  153.1220 C   0  0  0  0  0  0  0  0  0  0  0  0
  158.5920  211.7160  154.0500 O   0  0  0  0  0  0  0  0  0  0  0  0
  160.0260  209.8980  154.5630 C   0  0  1  0  0  3  0  0  0  0  0  0
  160.4680  206.9620  155.9840 O   0  0  0  0  0  1  0  0  0  0  0  0
  161.2740  211.9870  150.0840 C   0  0  0  0  0  2  0  0  0  0  0  0
  161.1880  210.7730  150.9810 C   0  0  0  0  0  0  0  0  0  0  0  0
  161.2250  207.7320  155.0950 C   0  0  2  0  0  3  0  0  0  0  0  0
  158.8570  211.1780  156.2390 O   0  0  0  0  0  0  0  0  0  0  0  0
  157.5000  211.0970  155.9210 C   0  0  0  0  0  1  0  0  0  0  0  0
  161.8180  204.5210  151.2070 C   0  0  0  0  0  2  0  0  0  0  0  0
  161.1970  203.9700  148.8490 C   0  0  0  0  0  1  0  0  0  0  0  0
  160.8460  203.7620  150.3100 C   0  0  0  0  0  2  0  0  0  0  0  0
  1  4  1  0  0  0  0
  2 18  1  0  0  0  0
  3 10  1  0  0  0  0
  4 19  2  0  0  0  0
  5  1  1  0  0  0  0
  5 11  1  0  0  0  0
  7 14  1  1  0  0  0
  8 12  1  0  0  0  0
  8  6  1  1  0  0  0
  9 26  1  1  0  0  0
 10 20  1  0  0  0  0
 11 28  1  6  0  0  0
 11  8  1  0  0  0  0
 12  4  1  6  0  0  0
 12 25  1  0  0  0  0
 13 17  2  0  0  0  0
 13  2  1  0  0  0  0
 15  2  2  0  0  0  0
 16  3  1  0  0  0  0
 16 19  1  0  0  0  0
 17 23  1  0  0  0  0
 18 24  1  0  0  0  0
 18  1  2  0  0  0  0
 20  9  1  0  0  0  0
 21 19  1  6  0  0  0
 21  9  1  0  0  0  0
 21  7  1  0  0  0  0
 23 24  1  0  0  0  0
 24 16  2  0  0  0  0
 25  7  1  0  0  0  0
 25 22  1  1  0  0  0
 27 26  1  0  0  0  0
 29 30  1  0  0  0  0
 30 28  1  0  0  0  0
M  END
>  <MODEL>
1

>  <REMARK>
 VINA RESULT:      -7.9      0.000      0.000
  Name = 
  3 active torsions:
  status: ('A' for Active; 'I' for Inactive)
    1  A    between atoms: C_9  and  C_12
    2  A    between atoms: C_9  and  C_21
    3  A    between atoms: C_10  and  O_15
                            x       y       z     vdW  Elec       q    Type
                         _______ _______ _______ _____ _____    ______ ____

>  <TORSDO>
F 3

$$$$
=
 OpenBabel11052421523D

 30 34  0  0  1  0  0  0  0  0999 V2000
  161.3550  208.9280  151.3320 C   0  0  0  0  0  0  0  0  0  0  0  0
  161.9560  206.5770  150.5430 C   0  0  0  0  0  0  0  0  0  0  0  0
  160.4120  207.3080  155.1190 O   0  0  0  0  0  0  0  0  0  0  0  0
  160.8980  209.7840  152.3620 C   0  0  0  0  0  0  0  0  0  0  0  0
  161.5150  209.4620  149.9330 C   0  0  0  0  0  2  0  0  0  0  0  0
  160.9070  213.0770  150.5690 O   0  0  0  0  0  1  0  0  0  0  0  0
  158.9680  211.0010  154.0650 C   0  0  2  0  0  3  0  0  0  0  0  0
  160.6910  211.6990  150.6510 C   0  0  1  0  0  3  0  0  0  0  0  0
  160.0130  209.7400  156.1130 C   0  0  2  0  0  3  0  0  0  0  0  0
  160.9130  207.7060  156.3960 C   0  0  0  0  0  2  0  0  0  0  0  0
  161.7910  210.9570  149.8970 C   0  0  2  0  0  3  0  0  0  0  0  0
  160.6700  211.2740  152.1220 C   0  0  1  0  0  3  0  0  0  0  0  0
  161.7880  205.1390  150.7760 C   0  0  0  0  0  3  0  0  0  0  0  0
  158.1170  211.8220  155.0280 C   0  0  0  0  0  1  0  0  0  0  0  0
  162.4510  206.9550  149.4490 O   0  0  0  0  0  0  0  0  0  0  0  0
  160.7860  207.8890  153.8980 C   0  0  0  0  0  0  0  0  0  0  0  0
  161.4890  204.6760  151.9850 C   0  0  0  0  0  3  0  0  0  0  0  0
  161.5250  207.5460  151.5910 C   0  0  0  0  0  0  0  0  0  0  0  0
  160.6770  209.2820  153.6610 C   0  0  0  0  0  0  0  0  0  0  0  0
  161.1950  209.0750  156.4560 O   0  0  0  0  0  0  0  0  0  0  0  0
  160.1780  210.2860  154.6890 C   0  0  1  0  0  3  0  0  0  0  0  0
  159.6380  213.1600  153.1770 O   0  0  0  0  0  1  0  0  0  0  0  0
  161.4040  205.5700  153.1900 C   0  0  0  0  0  2  0  0  0  0  0  0
  161.2070  207.0350  152.8670 C   0  0  0  0  0  0  0  0  0  0  0  0
  159.4090  211.8250  152.8310 C   0  0  2  0  0  3  0  0  0  0  0  0
  159.8120  210.7840  157.0190 O   0  0  0  0  0  0  0  0  0  0  0  0
  161.0750  211.3460  157.2070 C   0  0  0  0  0  1  0  0  0  0  0  0
  161.9550  211.4510  148.4550 C   0  0  0  0  0  2  0  0  0  0  0  0
  162.7060  213.6950  147.6480 C   0  0  0  0  0  1  0  0  0  0  0  0
  163.1490  212.3800  148.2600 C   0  0  0  0  0  2  0  0  0  0  0  0
  1 18  2  0  0  0  0
  1  4  1  0  0  0  0
  2 13  1  0  0  0  0
  2 18  1  0  0  0  0
  3 10  1  0  0  0  0
  4 19  2  0  0  0  0
  5  1  1  0  0  0  0
  7 21  1  0  0  0  0
  7 14  1  1  0  0  0
  8  6  1  1  0  0  0
  8 12  1  0  0  0  0
  9 20  1  0  0  0  0
  9 26  1  1  0  0  0
 10 20  1  0  0  0  0
 11 28  1  6  0  0  0
 11  5  1  0  0  0  0
 11  8  1  0  0  0  0
 12  4  1  6  0  0  0
 12 25  1  0  0  0  0
 13 17  2  0  0  0  0
 15  2  2  0  0  0  0
 16  3  1  0  0  0  0
 17 23  1  0  0  0  0
 18 24  1  0  0  0  0
 19 16  1  0  0  0  0
 21 19  1  6  0  0  0
 21  9  1  0  0  0  0
 24 23  1  0  0  0  0
 24 16  2  0  0  0  0
 25 22  1  1  0  0  0
 25  7  1  0  0  0  0
 26 27  1  0  0  0  0
 29 30  1  0  0  0  0
 30 28  1  0  0  0  0
M  END
>  <MODEL>
2

>  <REMARK>
 VINA RESULT:      -6.7      1.240      5.197
  Name = 
  3 active torsions:
  status: ('A' for Active; 'I' for Inactive)
    1  A    between atoms: C_9  and  C_12
    2  A    between atoms: C_9  and  C_21
    3  A    between atoms: C_10  and  O_15
                            x       y       z     vdW  Elec       q    Type
                         _______ _______ _______ _____ _____    ______ ____

>  <TORSDO>
F 3

$$$$
=
 OpenBabel11052421523D

 30 34  0  0  1  0  0  0  0  0999 V2000
  161.6900  207.4930  151.1490 C   0  0  0  0  0  0  0  0  0  0  0  0
  161.9560  209.9790  150.6370 C   0  0  0  0  0  0  0  0  0  0  0  0
  161.7690  206.7300  146.9950 O   0  0  0  0  0  0  0  0  0  0  0  0
  161.5700  206.1630  150.6830 C   0  0  0  0  0  0  0  0  0  0  0  0
  161.4770  207.7950  152.6100 C   0  0  0  0  0  2  0  0  0  0  0  0
  161.2120  204.3280  153.9340 O   0  0  0  0  0  1  0  0  0  0  0  0
  160.2360  203.9140  149.5560 C   0  0  2  0  0  3  0  0  0  0  0  0
  160.9720  205.4010  153.0710 C   0  0  1  0  0  3  0  0  0  0  0  0
  161.7570  204.1080  147.4270 C   0  0  2  0  0  3  0  0  0  0  0  0
  162.6190  205.8310  146.2810 C   0  0  0  0  0  2  0  0  0  0  0  0
  161.7910  206.6110  153.5110 C   0  0  2  0  0  3  0  0  0  0  0  0
  161.3430  204.9960  151.6410 C   0  0  1  0  0  3  0  0  0  0  0  0
  161.8020  211.0320  149.6290 C   0  0  0  0  0  3  0  0  0  0  0  0
  159.7180  202.5750  149.0410 C   0  0  0  0  0  1  0  0  0  0  0  0
  162.1420  210.3150  151.8360 O   0  0  0  0  0  0  0  0  0  0  0  0
  161.8130  206.9400  148.3810 C   0  0  0  0  0  0  0  0  0  0  0  0
  161.8310  210.7430  148.3320 C   0  0  0  0  0  3  0  0  0  0  0  0
  161.8700  208.5480  150.2240 C   0  0  0  0  0  0  0  0  0  0  0  0
  161.6970  205.8740  149.3090 C   0  0  0  0  0  0  0  0  0  0  0  0
  162.9610  204.7040  147.0370 O   0  0  0  0  0  0  0  0  0  0  0  0
  161.5430  204.4130  148.9160 C   0  0  1  0  0  3  0  0  0  0  0  0
  160.7190  202.6850  151.5940 O   0  0  0  0  0  1  0  0  0  0  0  0
  162.1190  209.3590  147.8240 C   0  0  0  0  0  2  0  0  0  0  0  0
  161.8970  208.2620  148.8420 C   0  0  0  0  0  0  0  0  0  0  0  0
  160.3500  203.9390  151.0990 C   0  0  2  0  0  3  0  0  0  0  0  0
  161.8560  202.7300  147.2190 O   0  0  0  0  0  0  0  0  0  0  0  0
  161.2060  202.5020  146.0050 C   0  0  0  0  0  1  0  0  0  0  0  0
  161.5690  206.9700  154.9860 C   0  0  0  0  0  2  0  0  0  0  0  0
  159.8600  207.1700  156.8010 C   0  0  0  0  0  1  0  0  0  0  0  0
  160.1230  207.3280  155.3150 C   0  0  0  0  0  2  0  0  0  0  0  0
  1  5  1  0  0  0  0
  2 15  2  0  0  0  0
  3 16  1  0  0  0  0
  4  1  1  0  0  0  0
  5 11  1  0  0  0  0
  7 14  1  6  0  0  0
  7 25  1  0  0  0  0
  8 11  1  0  0  0  0
  8  6  1  1  0  0  0
  9 26  1  1  0  0  0
  9 21  1  0  0  0  0
 10  3  1  0  0  0  0
 10 20  1  0  0  0  0
 11 28  1  1  0  0  0
 12  4  1  6  0  0  0
 12  8  1  0  0  0  0
 13  2  1  0  0  0  0
 16 24  2  0  0  0  0
 16 19  1  0  0  0  0
 17 13  2  0  0  0  0
 18  2  1  0  0  0  0
 18  1  2  0  0  0  0
 19  4  2  0  0  0  0
 20  9  1  0  0  0  0
 21 19  1  6  0  0  0
 21  7  1  0  0  0  0
 23 17  1  0  0  0  0
 23 24  1  0  0  0  0
 24 18  1  0  0  0  0
 25 22  1  6  0  0  0
 25 12  1  0  0  0  0
 27 26  1  0  0  0  0
 28 30  1  0  0  0  0
 30 29  1  0  0  0  0
M  END
>  <MODEL>
3

>  <REMARK>
 VINA RESULT:      -6.2      2.430      6.671
  Name = 
  3 active torsions:
  status: ('A' for Active; 'I' for Inactive)
    1  A    between atoms: C_9  and  C_12
    2  A    between atoms: C_9  and  C_21
    3  A    between atoms: C_10  and  O_15
                            x       y       z     vdW  Elec       q    Type
                         _______ _______ _______ _____ _____    ______ ____

>  <TORSDO>
F 3

$$$$
=
 OpenBabel11052421523D

 30 34  0  0  1  0  0  0  0  0999 V2000
  161.2060  210.3870  150.7780 C   0  0  0  0  0  0  0  0  0  0  0  0
  161.6160  212.1140  148.9450 C   0  0  0  0  0  0  0  0  0  0  0  0
  159.3020  213.3980  153.0500 O   0  0  0  0  0  0  0  0  0  0  0  0
  160.6850  210.0720  152.0550 C   0  0  0  0  0  0  0  0  0  0  0  0
  162.0460  209.3750  150.0430 C   0  0  0  0  0  2  0  0  0  0  0  0
  161.6140  206.4470  152.2970 O   0  0  0  0  0  1  0  0  0  0  0  0
  160.6510  209.9930  154.9020 C   0  0  2  0  0  3  0  0  0  0  0  0
  161.8520  207.7770  151.9420 C   0  0  1  0  0  3  0  0  0  0  0  0
  158.5960  211.6240  154.8980 C   0  0  2  0  0  3  0  0  0  0  0  0
  157.9970  213.3710  153.6280 C   0  0  0  0  0  2  0  0  0  0  0  0
  161.7210  207.9410  150.4310 C   0  0  2  0  0  3  0  0  0  0  0  0
  160.8530  208.6830  152.6680 C   0  0  1  0  0  3  0  0  0  0  0  0
  161.7200  213.5410  148.6240 C   0  0  0  0  0  3  0  0  0  0  0  0
  160.4520  209.7750  156.3970 C   0  0  0  0  0  1  0  0  0  0  0  0
  162.0250  211.2760  148.0990 O   0  0  0  0  0  0  0  0  0  0  0  0
  159.8620  212.3580  152.2920 C   0  0  0  0  0  0  0  0  0  0  0  0
  161.1050  214.4520  149.3700 C   0  0  0  0  0  3  0  0  0  0  0  0
  161.0530  211.6960  150.2610 C   0  0  0  0  0  0  0  0  0  0  0  0
  159.9560  211.0320  152.7860 C   0  0  0  0  0  0  0  0  0  0  0  0
  157.6110  212.0840  154.0180 O   0  0  0  0  0  0  0  0  0  0  0  0
  159.4500  210.5910  154.1500 C   0  0  1  0  0  3  0  0  0  0  0  0
  160.5970  207.5690  154.7720 O   0  0  0  0  0  1  0  0  0  0  0  0
  160.1990  214.0800  150.5090 C   0  0  0  0  0  2  0  0  0  0  0  0
  160.4080  212.6790  151.0400 C   0  0  0  0  0  0  0  0  0  0  0  0
  161.1480  208.7130  154.1870 C   0  0  2  0  0  3  0  0  0  0  0  0
  157.9690  211.0360  156.0000 O   0  0  0  0  0  0  0  0  0  0  0  0
  157.6940  212.0960  156.8650 C   0  0  0  0  0  1  0  0  0  0  0  0
  162.5930  206.9500  149.6510 C   0  0  0  0  0  2  0  0  0  0  0  0
  160.3060  206.2440  148.9270 C   0  0  0  0  0  1  0  0  0  0  0  0
  161.7950  206.0100  148.7540 C   0  0  0  0  0  2  0  0  0  0  0  0
  1  4  1  0  0  0  0
  2 18  1  0  0  0  0
  3 10  1  0  0  0  0
  4 19  2  0  0  0  0
  5 11  1  0  0  0  0
  5  1  1  0  0  0  0
  7 14  1  1  0  0  0
  8  6  1  6  0  0  0
  8 12  1  0  0  0  0
  9 26  1  1  0  0  0
 10 20  1  0  0  0  0
 11 28  1  6  0  0  0
 11  8  1  0  0  0  0
 12  4  1  6  0  0  0
 12 25  1  0  0  0  0
 13  2  1  0  0  0  0
 13 17  2  0  0  0  0
 15  2  2  0  0  0  0
 16 19  1  0  0  0  0
 16  3  1  0  0  0  0
 17 23  1  0  0  0  0
 18  1  2  0  0  0  0
 18 24  1  0  0  0  0
 20  9  1  0  0  0  0
 21 19  1  6  0  0  0
 21  9  1  0  0  0  0
 21  7  1  0  0  0  0
 23 24  1  0  0  0  0
 24 16  2  0  0  0  0
 25 22  1  1  0  0  0
 25  7  1  0  0  0  0
 26 27  1  0  0  0  0
 30 29  1  0  0  0  0
 30 28  1  0  0  0  0
M  END
>  <MODEL>
4

>  <REMARK>
 VINA RESULT:      -6.0      1.535      2.044
  Name = 
  3 active torsions:
  status: ('A' for Active; 'I' for Inactive)
    1  A    between atoms: C_9  and  C_12
    2  A    between atoms: C_9  and  C_21
    3  A    between atoms: C_10  and  O_15
                            x       y       z     vdW  Elec       q    Type
                         _______ _______ _______ _____ _____    ______ ____

>  <TORSDO>
F 3

$$$$
=
 OpenBabel11052421523D

 30 34  0  0  1  0  0  0  0  0999 V2000
  161.6880  208.4260  149.6440 C   0  0  0  0  0  0  0  0  0  0  0  0
  161.8590  206.4900  147.9910 C   0  0  0  0  0  0  0  0  0  0  0  0
  160.7750  205.6280  152.6750 O   0  0  0  0  0  0  0  0  0  0  0  0
  161.4440  208.8810  150.9610 C   0  0  0  0  0  0  0  0  0  0  0  0
  161.8300  209.4240  148.5240 C   0  0  0  0  0  2  0  0  0  0  0  0
  161.8370  212.5800  150.4930 O   0  0  0  0  0  1  0  0  0  0  0  0
  159.8510  209.5900  153.2130 C   0  0  2  0  0  3  0  0  0  0  0  0
  161.4160  211.3080  150.0970 C   0  0  1  0  0  3  0  0  0  0  0  0
  160.8300  207.5380  154.5220 C   0  0  2  0  0  3  0  0  0  0  0  0
  161.4200  205.4560  153.9370 C   0  0  0  0  0  2  0  0  0  0  0  0
  162.3310  210.7790  148.9970 C   0  0  2  0  0  3  0  0  0  0  0  0
  161.4340  210.3680  151.3060 C   0  0  1  0  0  3  0  0  0  0  0  0
  161.4860  205.1000  147.7080 C   0  0  0  0  0  3  0  0  0  0  0  0
  159.2090  210.0830  154.5050 C   0  0  0  0  0  1  0  0  0  0  0  0
  162.3280  207.1900  147.0550 O   0  0  0  0  0  0  0  0  0  0  0  0
  161.1480  206.5760  151.7100 C   0  0  0  0  0  0  0  0  0  0  0  0
  161.2050  204.2570  148.6950 C   0  0  0  0  0  3  0  0  0  0  0  0
  161.6590  207.0390  149.3630 C   0  0  0  0  0  0  0  0  0  0  0  0
  161.2390  207.9590  152.0080 C   0  0  0  0  0  0  0  0  0  0  0  0
  161.9160  206.6580  154.4530 O   0  0  0  0  0  0  0  0  0  0  0  0
  160.9770  208.5550  153.3820 C   0  0  1  0  0  3  0  0  0  0  0  0
  160.7840  211.8280  153.0890 O   0  0  0  0  0  1  0  0  0  0  0  0
  161.3460  204.6370  150.1420 C   0  0  0  0  0  2  0  0  0  0  0  0
  161.3560  206.1280  150.3970 C   0  0  0  0  0  0  0  0  0  0  0  0
  160.3260  210.7580  152.3150 C   0  0  2  0  0  3  0  0  0  0  0  0
  160.8580  208.1820  155.7610 O   0  0  0  0  0  0  0  0  0  0  0  0
  160.1790  207.3250  156.6280 C   0  0  0  0  0  1  0  0  0  0  0  0
  162.4680  211.7540  147.8220 C   0  0  0  0  0  2  0  0  0  0  0  0
  160.3160  212.2030  146.6310 C   0  0  0  0  0  1  0  0  0  0  0  0
  161.2870  212.7090  147.6810 C   0  0  0  0  0  2  0  0  0  0  0  0
  1  4  1  0  0  0  0
  2 18  1  0  0  0  0
  3 10  1  0  0  0  0
  4 19  2  0  0  0  0
  5 11  1  0  0  0  0
  5  1  1  0  0  0  0
  7 21  1  0  0  0  0
  7 14  1  1  0  0  0
  8  6  1  1  0  0  0
  8 12  1  0  0  0  0
  9 26  1  1  0  0  0
 10 20  1  0  0  0  0
 11 28  1  6  0  0  0
 11  8  1  0  0  0  0
 12  4  1  6  0  0  0
 12 25  1  0  0  0  0
 13  2  1  0  0  0  0
 13 17  2  0  0  0  0
 15  2  2  0  0  0  0
 16 19  1  0  0  0  0
 16  3  1  0  0  0  0
 17 23  1  0  0  0  0
 18  1  2  0  0  0  0
 18 24  1  0  0  0  0
 20  9  1  0  0  0  0
 21 19  1  6  0  0  0
 21  9  1  0  0  0  0
 23 24  1  0  0  0  0
 24 16  2  0  0  0  0
 25 22  1  1  0  0  0
 25  7  1  0  0  0  0
 26 27  1  0  0  0  0
 29 30  1  0  0  0  0
 30 28  1  0  0  0  0
M  END
>  <MODEL>
5

>  <REMARK>
 VINA RESULT:      -5.4      1.432      5.376
  Name = 
  3 active torsions:
  status: ('A' for Active; 'I' for Inactive)
    1  A    between atoms: C_9  and  C_12
    2  A    between atoms: C_9  and  C_21
    3  A    between atoms: C_10  and  O_15
                            x       y       z     vdW  Elec       q    Type
                         _______ _______ _______ _____ _____    ______ ____

>  <TORSDO>
F 3

$$$$
=
 OpenBabel11052421523D

 30 34  0  0  1  0  0  0  0  0999 V2000
  160.4750  209.7150  153.5600 C   0  0  0  0  0  0  0  0  0  0  0  0
  160.2000  209.3930  156.0760 C   0  0  0  0  0  0  0  0  0  0  0  0
  161.4340  205.6130  153.2410 O   0  0  0  0  0  0  0  0  0  0  0  0
  160.7780  209.1670  152.2910 C   0  0  0  0  0  0  0  0  0  0  0  0
  160.3160  211.2060  153.7110 C   0  0  0  0  0  2  0  0  0  0  0  0
  160.4520  212.2160  150.1330 O   0  0  0  0  0  1  0  0  0  0  0  0
  162.4670  208.1880  150.2170 C   0  0  2  0  0  3  0  0  0  0  0  0
  160.8300  211.5440  151.2980 C   0  0  1  0  0  3  0  0  0  0  0  0
  161.4900  205.7820  150.5890 C   0  0  2  0  0  3  0  0  0  0  0  0
  160.8310  204.6310  152.3960 C   0  0  0  0  0  2  0  0  0  0  0  0
  159.8630  211.8860  152.4290 C   0  0  2  0  0  3  0  0  0  0  0  0
  160.8340  210.0350  151.0370 C   0  0  1  0  0  3  0  0  0  0  0  0
  160.5310  208.5590  157.2350 C   0  0  0  0  0  3  0  0  0  0  0  0
  163.1670  207.6890  148.9580 C   0  0  0  0  0  1  0  0  0  0  0  0
  159.7140  210.5370  156.2770 O   0  0  0  0  0  0  0  0  0  0  0  0
  161.0480  206.9600  153.3000 C   0  0  0  0  0  0  0  0  0  0  0  0
  160.8280  207.2720  157.0850 C   0  0  0  0  0  3  0  0  0  0  0  0
  160.4630  208.8780  154.7010 C   0  0  0  0  0  0  0  0  0  0  0  0
  160.9990  207.7820  152.1460 C   0  0  0  0  0  0  0  0  0  0  0  0
  160.3830  205.1700  151.1860 O   0  0  0  0  0  0  0  0  0  0  0  0
  161.3250  207.3010  150.7410 C   0  0  1  0  0  3  0  0  0  0  0  0
  161.5810  209.9200  148.7640 O   0  0  0  0  0  1  0  0  0  0  0  0
  160.7490  206.5800  155.7550 C   0  0  0  0  0  2  0  0  0  0  0  0
  160.7820  207.5110  154.5630 C   0  0  0  0  0  0  0  0  0  0  0  0
  161.9860  209.6530  150.0750 C   0  0  2  0  0  3  0  0  0  0  0  0
  161.5210  205.4250  149.2390 O   0  0  0  0  0  0  0  0  0  0  0  0
  161.1800  204.0720  149.2160 C   0  0  0  0  0  1  0  0  0  0  0  0
  159.7060  213.3970  152.6350 C   0  0  0  0  0  2  0  0  0  0  0  0
  157.6400  213.9950  151.3600 C   0  0  0  0  0  1  0  0  0  0  0  0
  158.2530  213.8510  152.7400 C   0  0  0  0  0  2  0  0  0  0  0  0
  1  5  1  0  0  0  0
  1 18  1  0  0  0  0
  2 15  2  0  0  0  0
  2 13  1  0  0  0  0
  3 16  1  0  0  0  0
  4  1  2  0  0  0  0
  7 14  1  6  0  0  0
  7 21  1  0  0  0  0
  8  6  1  6  0  0  0
  8 11  1  0  0  0  0
  9 26  1  6  0  0  0
  9 21  1  0  0  0  0
  9 20  1  0  0  0  0
 10  3  1  0  0  0  0
 11 28  1  1  0  0  0
 11  5  1  0  0  0  0
 12  8  1  0  0  0  0
 12  4  1  1  0  0  0
 16 24  1  0  0  0  0
 17 13  2  0  0  0  0
 18  2  1  0  0  0  0
 19  4  1  0  0  0  0
 19 16  2  0  0  0  0
 20 10  1  0  0  0  0
 21 19  1  1  0  0  0
 23 17  1  0  0  0  0
 24 18  2  0  0  0  0
 24 23  1  0  0  0  0
 25 22  1  6  0  0  0
 25  7  1  0  0  0  0
 25 12  1  0  0  0  0
 27 26  1  0  0  0  0
 28 30  1  0  0  0  0
 29 30  1  0  0  0  0
M  END
>  <MODEL>
6

>  <REMARK>
 VINA RESULT:      -5.3      1.544      7.232
  Name = 
  3 active torsions:
  status: ('A' for Active; 'I' for Inactive)
    1  A    between atoms: C_9  and  C_12
    2  A    between atoms: C_9  and  C_21
    3  A    between atoms: C_10  and  O_15
                            x       y       z     vdW  Elec       q    Type
                         _______ _______ _______ _____ _____    ______ ____

>  <TORSDO>
F 3

$$$$
=
 OpenBabel11052421523D

 30 34  0  0  1  0  0  0  0  0999 V2000
  159.8700  210.8840  154.0640 C   0  0  0  0  0  0  0  0  0  0  0  0
  159.9140  209.8050  156.3760 C   0  0  0  0  0  0  0  0  0  0  0  0
  161.8960  207.4970  152.5550 O   0  0  0  0  0  0  0  0  0  0  0  0
  160.2010  210.8250  152.6890 C   0  0  0  0  0  0  0  0  0  0  0  0
  159.3180  212.1600  154.6450 C   0  0  0  0  0  2  0  0  0  0  0  0
  158.8590  214.1250  151.5200 O   0  0  0  0  0  1  0  0  0  0  0  0
  161.9090  211.0000  150.4170 C   0  0  2  0  0  3  0  0  0  0  0  0
  159.5070  213.2940  152.4370 C   0  0  1  0  0  3  0  0  0  0  0  0
  161.6720  208.4110  150.0690 C   0  0  2  0  0  3  0  0  0  0  0  0
  161.5170  206.6600  151.4610 C   0  0  0  0  0  2  0  0  0  0  0  0
  158.5860  213.0100  153.6200 C   0  0  2  0  0  3  0  0  0  0  0  0
  159.9070  211.9870  151.7450 C   0  0  1  0  0  3  0  0  0  0  0  0
  160.5620  208.8130  157.2390 C   0  0  0  0  0  3  0  0  0  0  0  0
  162.6080  211.0990  149.0660 C   0  0  0  0  0  1  0  0  0  0  0  0
  159.1500  210.6550  156.9040 O   0  0  0  0  0  0  0  0  0  0  0  0
  161.1590  208.6020  153.0070 C   0  0  0  0  0  0  0  0  0  0  0  0
  161.1900  207.7640  156.7180 C   0  0  0  0  0  3  0  0  0  0  0  0
  160.1890  209.7950  154.9100 C   0  0  0  0  0  0  0  0  0  0  0  0
  160.7840  209.6630  152.1450 C   0  0  0  0  0  0  0  0  0  0  0  0
  160.8340  207.3620  150.4620 O   0  0  0  0  0  0  0  0  0  0  0  0
  161.1070  209.7100  150.6590 C   0  0  1  0  0  3  0  0  0  0  0  0
  160.4560  212.7350  149.5370 O   0  0  0  0  0  1  0  0  0  0  0  0
  161.1900  207.4790  155.2430 C   0  0  0  0  0  2  0  0  0  0  0  0
  160.8610  208.6750  154.3770 C   0  0  0  0  0  0  0  0  0  0  0  0
  161.0310  212.2410  150.7110 C   0  0  2  0  0  3  0  0  0  0  0  0
  161.6840  208.4710  148.6730 O   0  0  0  0  0  0  0  0  0  0  0  0
  162.5370  207.4400  148.2760 C   0  0  0  0  0  1  0  0  0  0  0  0
  158.0350  214.2890  154.2600 C   0  0  0  0  0  2  0  0  0  0  0  0
  155.7950  213.2190  153.9600 C   0  0  0  0  0  1  0  0  0  0  0  0
  156.6330  214.1270  154.8390 C   0  0  0  0  0  2  0  0  0  0  0  0
  1  5  1  0  0  0  0
  1 18  1  0  0  0  0
  2 15  2  0  0  0  0
  2 13  1  0  0  0  0
  3 16  1  0  0  0  0
  4  1  2  0  0  0  0
  7 14  1  6  0  0  0
  7 21  1  0  0  0  0
  7 25  1  0  0  0  0
  8  6  1  6  0  0  0
  8 11  1  0  0  0  0
  9 26  1  6  0  0  0
  9 20  1  0  0  0  0
  9 21  1  0  0  0  0
 10  3  1  0  0  0  0
 11 28  1  1  0  0  0
 11  5  1  0  0  0  0
 12  8  1  0  0  0  0
 12  4  1  1  0  0  0
 16 24  1  0  0  0  0
 17 13  2  0  0  0  0
 18  2  1  0  0  0  0
 19  4  1  0  0  0  0
 19 16  2  0  0  0  0
 20 10  1  0  0  0  0
 21 19  1  1  0  0  0
 23 17  1  0  0  0  0
 24 18  2  0  0  0  0
 24 23  1  0  0  0  0
 25 22  1  6  0  0  0
 25 12  1  0  0  0  0
 27 26  1  0  0  0  0
 28 30  1  0  0  0  0
 29 30  1  0  0  0  0
M  END
>  <MODEL>
7

>  <REMARK>
 VINA RESULT:      -5.2      1.784      7.417
  Name = 
  3 active torsions:
  status: ('A' for Active; 'I' for Inactive)
    1  A    between atoms: C_9  and  C_12
    2  A    between atoms: C_9  and  C_21
    3  A    between atoms: C_10  and  O_15
                            x       y       z     vdW  Elec       q    Type
                         _______ _______ _______ _____ _____    ______ ____

>  <TORSDO>
F 3

$$$$
=
 OpenBabel11052421523D

 30 34  0  0  1  0  0  0  0  0999 V2000
  161.0680  209.5370  152.3700 C   0  0  0  0  0  0  0  0  0  0  0  0
  161.4090  207.1070  153.0730 C   0  0  0  0  0  0  0  0  0  0  0  0
  159.4990  210.3250  156.2120 O   0  0  0  0  0  0  0  0  0  0  0  0
  160.6300  210.8430  152.6880 C   0  0  0  0  0  0  0  0  0  0  0  0
  161.4530  209.2030  150.9520 C   0  0  0  0  0  2  0  0  0  0  0  0
  161.3030  212.6010  149.4450 O   0  0  0  0  0  1  0  0  0  0  0  0
  158.7200  212.9110  153.1230 C   0  0  2  0  0  3  0  0  0  0  0  0
  160.8840  211.5110  150.2130 C   0  0  1  0  0  3  0  0  0  0  0  0
  159.3470  212.9220  155.6700 C   0  0  2  0  0  3  0  0  0  0  0  0
  159.9100  211.3280  157.1420 C   0  0  0  0  0  2  0  0  0  0  0  0
  161.9420  210.4120  150.1700 C   0  0  2  0  0  3  0  0  0  0  0  0
  160.6440  211.9670  151.6550 C   0  0  1  0  0  3  0  0  0  0  0  0
  161.0120  206.0480  154.0060 C   0  0  0  0  0  3  0  0  0  0  0  0
  157.8970  214.1760  153.3380 C   0  0  0  0  0  1  0  0  0  0  0  0
  162.0670  206.7910  152.0480 O   0  0  0  0  0  0  0  0  0  0  0  0
  160.0820  210.1150  154.9540 C   0  0  0  0  0  0  0  0  0  0  0  0
  160.5210  206.3450  155.2040 C   0  0  0  0  0  3  0  0  0  0  0  0
  161.0100  208.5170  153.3500 C   0  0  0  0  0  0  0  0  0  0  0  0
  160.1990  211.1530  153.9950 C   0  0  0  0  0  0  0  0  0  0  0  0
  160.3780  212.4850  156.5080 O   0  0  0  0  0  0  0  0  0  0  0  0
  159.7410  212.5850  154.2260 C   0  0  1  0  0  3  0  0  0  0  0  0
  159.7840  214.1800  151.3470 O   0  0  0  0  0  1  0  0  0  0  0  0
  160.4350  207.7570  155.7100 C   0  0  0  0  0  2  0  0  0  0  0  0
  160.4850  208.8120  154.6270 C   0  0  0  0  0  0  0  0  0  0  0  0
  159.4060  212.8920  151.7350 C   0  0  2  0  0  3  0  0  0  0  0  0
  159.2000  214.3030  155.8280 O   0  0  0  0  0  0  0  0  0  0  0  0
  158.3610  214.4510  156.9330 C   0  0  0  0  0  1  0  0  0  0  0  0
  162.3300  210.0200  148.7390 C   0  0  0  0  0  2  0  0  0  0  0  0
  162.6910  207.5870  148.2900 C   0  0  0  0  0  1  0  0  0  0  0  0
  161.6850  208.7220  148.2660 C   0  0  0  0  0  2  0  0  0  0  0  0
  1  4  2  0  0  0  0
  1 18  1  0  0  0  0
  2 18  1  0  0  0  0
  2 13  1  0  0  0  0
  3 10  1  0  0  0  0
  4 19  1  0  0  0  0
  5  1  1  0  0  0  0
  7 14  1  1  0  0  0
  7 21  1  0  0  0  0
  8  6  1  6  0  0  0
  8 12  1  0  0  0  0
  9 26  1  6  0  0  0
  9 20  1  0  0  0  0
 11 28  1  6  0  0  0
 11  8  1  0  0  0  0
 11  5  1  0  0  0  0
 12 25  1  0  0  0  0
 12  4  1  1  0  0  0
 13 17  2  0  0  0  0
 15  2  2  0  0  0  0
 16  3  1  0  0  0  0
 17 23  1  0  0  0  0
 18 24  2  0  0  0  0
 19 16  2  0  0  0  0
 20 10  1  0  0  0  0
 21 19  1  1  0  0  0
 21  9  1  0  0  0  0
 24 16  1  0  0  0  0
 24 23  1  0  0  0  0
 25 22  1  1  0  0  0
 25  7  1  0  0  0  0
 26 27  1  0  0  0  0
 30 29  1  0  0  0  0
 30 28  1  0  0  0  0
M  END
>  <MODEL>
8

>  <REMARK>
 VINA RESULT:      -5.0      2.072      5.072
  Name = 
  3 active torsions:
  status: ('A' for Active; 'I' for Inactive)
    1  A    between atoms: C_9  and  C_12
    2  A    between atoms: C_9  and  C_21
    3  A    between atoms: C_10  and  O_15
                            x       y       z     vdW  Elec       q    Type
                         _______ _______ _______ _____ _____    ______ ____

>  <TORSDO>
F 3

$$$$
