=
 OpenBabel11052423203D

 27 30  0  0  1  0  0  0  0  0999 V2000
  160.3590  209.9390  152.4970 N   0  0  0  0  0  2  0  0  0  0  0  0
  159.7570  211.2630  154.4880 C   0  0  0  0  0  0  0  0  0  0  0  0
  159.8230  208.9270  155.3230 C   0  0  0  0  0  2  0  0  0  0  0  0
  161.4050  205.9750  153.6120 C   0  0  0  0  0  3  0  0  0  0  0  0
  161.6530  206.4600  152.3290 C   0  0  0  0  0  0  0  0  0  0  0  0
  159.8010  211.1000  153.1420 C   0  0  0  0  0  0  0  0  0  0  0  0
  160.7020  208.6160  152.9420 C   0  0  0  0  0  0  0  0  0  0  0  0
  160.4130  210.3230  155.4410 C   0  0  1  0  0  3  0  0  0  0  0  0
  160.8080  206.8040  154.5630 C   0  0  0  0  0  3  0  0  0  0  0  0
  162.2320  205.6600  151.4020 F   0  0  0  0  0  0  0  0  0  0  0  0
  161.3000  207.7690  151.9990 C   0  0  0  0  0  3  0  0  0  0  0  0
  160.4560  208.1200  154.2430 C   0  0  0  0  0  0  0  0  0  0  0  0
  157.7920  213.9620  151.6270 C   0  0  0  0  0  2  0  0  0  0  0  0
  159.3640  212.1570  152.2790 N   0  0  0  0  0  0  0  0  0  0  0  0
  160.3410  212.7410  151.3530 C   0  0  0  0  0  2  0  0  0  0  0  0
  159.8210  214.0350  150.7290 C   0  0  0  0  0  2  0  0  0  0  0  0
  158.4670  213.8990  150.4010 O   0  0  0  0  0  0  0  0  0  0  0  0
  157.9860  212.6570  152.3970 C   0  0  0  0  0  2  0  0  0  0  0  0
  162.4440  211.1820  156.5880 C   0  0  0  0  0  2  0  0  0  0  0  0
  162.5090  209.6700  156.6060 C   0  0  0  0  0  2  0  0  0  0  0  0
  161.9390  210.3880  155.3990 C   0  0  0  0  0  3  0  0  0  0  0  0
  159.0910  212.3450  155.0820 O   0  0  0  0  0  0  0  0  0  0  0  0
  158.3500  212.2440  156.2940 C   0  0  1  0  0  3  0  0  0  0  0  0
  158.9110  213.0800  157.2600 O   0  0  0  0  0  1  0  0  0  0  0  0
  156.9110  212.6550  156.0500 C   0  0  0  0  0  2  0  0  0  0  0  0
  155.8340  210.7870  155.1700 C   0  0  0  0  0  1  0  0  0  0  0  0
  156.0210  211.5580  156.3850 N   0  0  0  0  0  2  0  0  0  0  0  0
  1  7  1  0  0  0  0
  1  6  1  0  0  0  0
  2 22  1  0  0  0  0
  2  8  1  0  0  0  0
  3  8  1  0  0  0  0
  4  9  1  0  0  0  0
  5  4  2  0  0  0  0
  6  2  2  0  0  0  0
  7 12  1  0  0  0  0
  8 21  1  6  0  0  0
 10  5  1  0  0  0  0
 11  5  1  0  0  0  0
 11  7  2  0  0  0  0
 12  9  2  0  0  0  0
 12  3  1  0  0  0  0
 13 18  1  0  0  0  0
 14 18  1  0  0  0  0
 14  6  1  0  0  0  0
 15 14  1  0  0  0  0
 16 15  1  0  0  0  0
 17 16  1  0  0  0  0
 17 13  1  0  0  0  0
 19 20  1  0  0  0  0
 21 19  1  0  0  0  0
 21 20  1  0  0  0  0
 22 23  1  0  0  0  0
 23 24  1  1  0  0  0
 25 23  1  0  0  0  0
 25 27  1  0  0  0  0
 26 27  1  0  0  0  0
M  END
>  <MODEL>
1

>  <REMARK>
 VINA RESULT:      -5.2      0.000      0.000
  Name = 
  6 active torsions:
  status: ('A' for Active; 'I' for Inactive)
    1  A    between atoms: C_2  and  O_6
    2  A    between atoms: C_5  and  O_6
    3  A    between atoms: C_5  and  C_17
    4  A    between atoms: N_9  and  C_15
    5  A    between atoms: C_14  and  C_19
    6  A    between atoms: N_16  and  C_17
                            x       y       z     vdW  Elec       q    Type
                         _______ _______ _______ _____ _____    ______ ____

>  <TORSDO>
F 6

$$$$
=
 OpenBabel11052423203D

 27 30  0  0  1  0  0  0  0  0999 V2000
  162.1570  208.0870  148.0270 N   0  0  0  0  0  2  0  0  0  0  0  0
  161.2610  208.7940  150.2120 C   0  0  0  0  0  0  0  0  0  0  0  0
  160.3530  206.5050  149.9070 C   0  0  0  0  0  2  0  0  0  0  0  0
  161.5550  203.9220  147.4520 C   0  0  0  0  0  3  0  0  0  0  0  0
  162.3850  204.6600  146.6120 C   0  0  0  0  0  0  0  0  0  0  0  0
  161.7520  209.0870  148.9820 C   0  0  0  0  0  0  0  0  0  0  0  0
  161.9230  206.6750  147.8960 C   0  0  0  0  0  0  0  0  0  0  0  0
  161.2250  207.4100  150.7630 C   0  0  1  0  0  3  0  0  0  0  0  0
  160.9080  204.5530  148.5160 C   0  0  0  0  0  3  0  0  0  0  0  0
  163.0150  204.0530  145.5770 F   0  0  0  0  0  0  0  0  0  0  0  0
  162.5630  206.0260  146.8320 C   0  0  0  0  0  3  0  0  0  0  0  0
  161.0850  205.9210  148.7490 C   0  0  0  0  0  0  0  0  0  0  0  0
  163.4490  212.4140  148.2200 C   0  0  0  0  0  2  0  0  0  0  0  0
  161.9810  210.4520  148.6100 N   0  0  0  0  0  0  0  0  0  0  0  0
  160.9380  211.1430  147.8440 C   0  0  0  0  0  2  0  0  0  0  0  0
  161.4440  212.4650  147.2690 C   0  0  0  0  0  2  0  0  0  0  0  0
  162.2410  213.1240  148.2120 O   0  0  0  0  0  0  0  0  0  0  0  0
  163.2660  211.0820  148.9470 C   0  0  0  0  0  2  0  0  0  0  0  0
  162.6950  206.5510  152.5740 C   0  0  0  0  0  2  0  0  0  0  0  0
  162.4790  205.4270  151.5830 C   0  0  0  0  0  2  0  0  0  0  0  0
  162.6100  206.8540  151.0910 C   0  0  0  0  0  3  0  0  0  0  0  0
  160.7570  209.7880  151.0640 O   0  0  0  0  0  0  0  0  0  0  0  0
  161.2050  209.9780  152.4030 C   0  0  1  0  0  3  0  0  0  0  0  0
  162.5830  210.1920  152.4120 O   0  0  0  0  0  1  0  0  0  0  0  0
  160.5070  211.1790  153.0110 C   0  0  0  0  0  2  0  0  0  0  0  0
  158.7060  212.4620  152.2810 C   0  0  0  0  0  1  0  0  0  0  0  0
  159.0880  211.1300  152.7090 N   0  0  0  0  0  2  0  0  0  0  0  0
  1  6  1  0  0  0  0
  2  8  1  0  0  0  0
  2 22  1  0  0  0  0
  3  8  1  0  0  0  0
  4  9  1  0  0  0  0
  5 11  1  0  0  0  0
  5  4  2  0  0  0  0
  6  2  2  0  0  0  0
  7  1  1  0  0  0  0
  7 12  1  0  0  0  0
  8 21  1  6  0  0  0
  9 12  2  0  0  0  0
 10  5  1  0  0  0  0
 11  7  2  0  0  0  0
 12  3  1  0  0  0  0
 13 18  1  0  0  0  0
 14 18  1  0  0  0  0
 14  6  1  0  0  0  0
 15 14  1  0  0  0  0
 16 15  1  0  0  0  0
 16 17  1  0  0  0  0
 17 13  1  0  0  0  0
 20 19  1  0  0  0  0
 21 20  1  0  0  0  0
 21 19  1  0  0  0  0
 22 23  1  0  0  0  0
 23 24  1  6  0  0  0
 23 25  1  0  0  0  0
 26 27  1  0  0  0  0
 27 25  1  0  0  0  0
M  END
>  <MODEL>
2

>  <REMARK>
 VINA RESULT:      -4.8      3.850      5.583
  Name = 
  6 active torsions:
  status: ('A' for Active; 'I' for Inactive)
    1  A    between atoms: C_2  and  O_6
    2  A    between atoms: C_5  and  O_6
    3  A    between atoms: C_5  and  C_17
    4  A    between atoms: N_9  and  C_15
    5  A    between atoms: C_14  and  C_19
    6  A    between atoms: N_16  and  C_17
                            x       y       z     vdW  Elec       q    Type
                         _______ _______ _______ _____ _____    ______ ____

>  <TORSDO>
F 6

$$$$
=
 OpenBabel11052423203D

 27 30  0  0  1  0  0  0  0  0999 V2000
  158.5400  209.4470  138.8710 N   0  0  0  0  0  2  0  0  0  0  0  0
  160.4610  210.9920  138.8450 C   0  0  0  0  0  0  0  0  0  0  0  0
  158.5080  212.4600  138.4050 C   0  0  0  0  0  2  0  0  0  0  0  0
  154.8900  211.6180  138.9910 C   0  0  0  0  0  3  0  0  0  0  0  0
  154.9270  210.2430  139.2130 C   0  0  0  0  0  0  0  0  0  0  0  0
  159.9380  209.7490  138.7000 C   0  0  0  0  0  0  0  0  0  0  0  0
  157.3430  210.2410  138.9130 C   0  0  0  0  0  0  0  0  0  0  0  0
  159.6680  212.1530  139.3400 C   0  0  1  0  0  3  0  0  0  0  0  0
  156.0740  212.3090  138.7300 C   0  0  0  0  0  3  0  0  0  0  0  0
  153.7810  209.5650  139.4660 F   0  0  0  0  0  0  0  0  0  0  0  0
  156.1440  209.5620  139.1700 C   0  0  0  0  0  3  0  0  0  0  0  0
  157.3000  211.6370  138.6920 C   0  0  0  0  0  0  0  0  0  0  0  0
  162.3020  207.2820  137.0110 C   0  0  0  0  0  2  0  0  0  0  0  0
  160.8030  208.6340  138.4540 N   0  0  0  0  0  0  0  0  0  0  0  0
  161.3590  207.9230  139.6110 C   0  0  0  0  0  2  0  0  0  0  0  0
  162.4820  206.9710  139.2010 C   0  0  0  0  0  2  0  0  0  0  0  0
  162.1440  206.3150  138.0110 O   0  0  0  0  0  0  0  0  0  0  0  0
  161.1520  208.2860  137.0680 C   0  0  0  0  0  2  0  0  0  0  0  0
  160.1530  213.0030  141.6250 C   0  0  0  0  0  2  0  0  0  0  0  0
  158.7210  213.3640  141.2930 C   0  0  0  0  0  2  0  0  0  0  0  0
  159.2980  212.0450  140.8180 C   0  0  0  0  0  3  0  0  0  0  0  0
  161.8020  211.2720  138.5440 O   0  0  0  0  0  0  0  0  0  0  0  0
  162.7350  211.7710  139.4980 C   0  0  1  0  0  3  0  0  0  0  0  0
  162.8640  210.8630  140.5490 O   0  0  0  0  0  1  0  0  0  0  0  0
  164.0860  211.9680  138.8380 C   0  0  0  0  0  2  0  0  0  0  0  0
  163.7430  214.0440  139.8370 C   0  0  0  0  0  1  0  0  0  0  0  0
  164.3670  213.3860  138.7040 N   0  0  0  0  0  2  0  0  0  0  0  0
  1  7  1  0  0  0  0
  2  8  1  0  0  0  0
  3 12  1  0  0  0  0
  3  8  1  0  0  0  0
  4  5  1  0  0  0  0
  5 10  1  0  0  0  0
  6  2  2  0  0  0  0
  6  1  1  0  0  0  0
  7 11  1  0  0  0  0
  8 21  1  1  0  0  0
  9  4  2  0  0  0  0
 11  5  2  0  0  0  0
 12  9  1  0  0  0  0
 12  7  2  0  0  0  0
 13 18  1  0  0  0  0
 13 17  1  0  0  0  0
 14  6  1  0  0  0  0
 14 15  1  0  0  0  0
 16 15  1  0  0  0  0
 17 16  1  0  0  0  0
 18 14  1  0  0  0  0
 20 19  1  0  0  0  0
 21 20  1  0  0  0  0
 21 19  1  0  0  0  0
 22  2  1  0  0  0  0
 22 23  1  0  0  0  0
 23 24  1  1  0  0  0
 25 23  1  0  0  0  0
 27 25  1  0  0  0  0
 27 26  1  0  0  0  0
M  END
>  <MODEL>
3

>  <REMARK>
 VINA RESULT:      -4.6     13.657     15.983
  Name = 
  6 active torsions:
  status: ('A' for Active; 'I' for Inactive)
    1  A    between atoms: C_2  and  O_6
    2  A    between atoms: C_5  and  O_6
    3  A    between atoms: C_5  and  C_17
    4  A    between atoms: N_9  and  C_15
    5  A    between atoms: C_14  and  C_19
    6  A    between atoms: N_16  and  C_17
                            x       y       z     vdW  Elec       q    Type
                         _______ _______ _______ _____ _____    ______ ____

>  <TORSDO>
F 6

$$$$
=
 OpenBabel11052423203D

 27 30  0  0  1  0  0  0  0  0999 V2000
  160.3690  209.5370  151.9790 N   0  0  0  0  0  2  0  0  0  0  0  0
  161.5720  207.6520  153.0170 C   0  0  0  0  0  0  0  0  0  0  0  0
  161.7860  209.4830  154.6780 C   0  0  0  0  0  2  0  0  0  0  0  0
  159.7500  212.6420  154.8100 C   0  0  0  0  0  3  0  0  0  0  0  0
  159.1020  212.6420  153.5770 C   0  0  0  0  0  0  0  0  0  0  0  0
  161.1000  208.2960  151.9200 C   0  0  0  0  0  0  0  0  0  0  0  0
  160.1920  210.5470  152.9850 C   0  0  0  0  0  0  0  0  0  0  0  0
  161.2600  208.0820  154.4090 C   0  0  1  0  0  3  0  0  0  0  0  0
  160.6170  211.5990  155.1380 C   0  0  0  0  0  3  0  0  0  0  0  0
  158.2600  213.6520  153.2530 F   0  0  0  0  0  0  0  0  0  0  0  0
  159.3260  211.6040  152.6720 C   0  0  0  0  0  3  0  0  0  0  0  0
  160.8430  210.5500  154.2400 C   0  0  0  0  0  0  0  0  0  0  0  0
  160.3710  206.3950  148.6990 C   0  0  0  0  0  2  0  0  0  0  0  0
  161.2340  207.6980  150.6260 N   0  0  0  0  0  0  0  0  0  0  0  0
  162.3200  208.1670  149.7580 C   0  0  0  0  0  2  0  0  0  0  0  0
  162.1530  207.6640  148.3240 C   0  0  0  0  0  2  0  0  0  0  0  0
  161.7210  206.3330  148.3300 O   0  0  0  0  0  0  0  0  0  0  0  0
  160.2510  206.6940  150.1920 C   0  0  0  0  0  2  0  0  0  0  0  0
  159.7360  206.9020  155.9790 C   0  0  0  0  0  2  0  0  0  0  0  0
  159.5590  208.3900  156.1950 C   0  0  0  0  0  2  0  0  0  0  0  0
  159.8000  207.8510  154.7990 C   0  0  0  0  0  3  0  0  0  0  0  0
  162.3890  206.5160  152.9130 O   0  0  0  0  0  0  0  0  0  0  0  0
  161.8960  205.1820  152.9910 C   0  0  1  0  0  3  0  0  0  0  0  0
  160.5170  205.2020  153.2020 O   0  0  0  0  0  1  0  0  0  0  0  0
  162.1940  204.4490  151.6970 C   0  0  0  0  0  2  0  0  0  0  0  0
  160.8500  203.0880  150.3690 C   0  0  0  0  0  1  0  0  0  0  0  0
  161.4820  203.1840  151.6710 N   0  0  0  0  0  2  0  0  0  0  0  0
  1  7  1  0  0  0  0
  2  8  1  0  0  0  0
  4  9  1  0  0  0  0
  5  4  2  0  0  0  0
  6  1  1  0  0  0  0
  6  2  2  0  0  0  0
  7 12  1  0  0  0  0
  8  3  1  0  0  0  0
  8 21  1  6  0  0  0
 10  5  1  0  0  0  0
 11  7  2  0  0  0  0
 11  5  1  0  0  0  0
 12  3  1  0  0  0  0
 12  9  2  0  0  0  0
 13 18  1  0  0  0  0
 14  6  1  0  0  0  0
 15 14  1  0  0  0  0
 16 17  1  0  0  0  0
 16 15  1  0  0  0  0
 17 13  1  0  0  0  0
 18 14  1  0  0  0  0
 19 20  1  0  0  0  0
 21 19  1  0  0  0  0
 21 20  1  0  0  0  0
 22 23  1  0  0  0  0
 22  2  1  0  0  0  0
 23 24  1  6  0  0  0
 25 23  1  0  0  0  0
 26 27  1  0  0  0  0
 27 25  1  0  0  0  0
M  END
>  <MODEL>
4

>  <REMARK>
 VINA RESULT:      -4.5      3.884      6.563
  Name = 
  6 active torsions:
  status: ('A' for Active; 'I' for Inactive)
    1  A    between atoms: C_2  and  O_6
    2  A    between atoms: C_5  and  O_6
    3  A    between atoms: C_5  and  C_17
    4  A    between atoms: N_9  and  C_15
    5  A    between atoms: C_14  and  C_19
    6  A    between atoms: N_16  and  C_17
                            x       y       z     vdW  Elec       q    Type
                         _______ _______ _______ _____ _____    ______ ____

>  <TORSDO>
F 6

$$$$
=
 OpenBabel11052423203D

 27 30  0  0  1  0  0  0  0  0999 V2000
  160.7310  204.9910  150.8460 N   0  0  0  0  0  2  0  0  0  0  0  0
  161.8960  206.9390  149.8850 C   0  0  0  0  0  0  0  0  0  0  0  0
  162.5250  205.0670  148.3820 C   0  0  0  0  0  2  0  0  0  0  0  0
  160.8330  201.7170  148.1400 C   0  0  0  0  0  3  0  0  0  0  0  0
  160.0100  201.7070  149.2650 C   0  0  0  0  0  0  0  0  0  0  0  0
  161.3260  206.2990  150.9370 C   0  0  0  0  0  0  0  0  0  0  0  0
  160.8000  203.9240  149.8850 C   0  0  0  0  0  0  0  0  0  0  0  0
  161.8370  206.4190  148.4900 C   0  0  1  0  0  3  0  0  0  0  0  0
  161.6390  202.8270  147.8820 C   0  0  0  0  0  3  0  0  0  0  0  0
  159.2260  200.6330  149.5210 F   0  0  0  0  0  0  0  0  0  0  0  0
  159.9990  202.8010  150.1300 C   0  0  0  0  0  3  0  0  0  0  0  0
  161.6300  203.9320  148.7400 C   0  0  0  0  0  0  0  0  0  0  0  0
  160.2690  208.7070  153.6960 C   0  0  0  0  0  2  0  0  0  0  0  0
  161.2090  206.9650  152.2010 N   0  0  0  0  0  0  0  0  0  0  0  0
  161.6700  206.2550  153.4000 C   0  0  0  0  0  2  0  0  0  0  0  0
  161.2080  206.9530  154.6780 C   0  0  0  0  0  2  0  0  0  0  0  0
  161.3270  208.3400  154.5370 O   0  0  0  0  0  0  0  0  0  0  0  0
  160.5780  208.2920  152.2580 C   0  0  0  0  0  2  0  0  0  0  0  0
  160.4730  207.3360  146.6250 C   0  0  0  0  0  2  0  0  0  0  0  0
  160.4500  205.8260  146.5150 C   0  0  0  0  0  2  0  0  0  0  0  0
  160.4380  206.4850  147.8800 C   0  0  0  0  0  3  0  0  0  0  0  0
  162.5800  208.1540  150.0400 O   0  0  0  0  0  0  0  0  0  0  0  0
  161.9570  209.4300  149.9180 C   0  0  1  0  0  3  0  0  0  0  0  0
  162.3790  210.2600  150.9560 O   0  0  0  0  0  1  0  0  0  0  0  0
  162.3310  210.0580  148.5900 C   0  0  0  0  0  2  0  0  0  0  0  0
  163.0100  212.1740  147.8930 C   0  0  0  0  0  1  0  0  0  0  0  0
  161.9530  211.4600  148.5830 N   0  0  0  0  0  2  0  0  0  0  0  0
  1  6  1  0  0  0  0
  2 22  1  0  0  0  0
  2  6  2  0  0  0  0
  3  8  1  0  0  0  0
  3 12  1  0  0  0  0
  4  5  1  0  0  0  0
  5 10  1  0  0  0  0
  5 11  2  0  0  0  0
  6 14  1  0  0  0  0
  7 11  1  0  0  0  0
  7  1  1  0  0  0  0
  8 21  1  1  0  0  0
  8  2  1  0  0  0  0
  9  4  2  0  0  0  0
  9 12  1  0  0  0  0
 12  7  2  0  0  0  0
 13 17  1  0  0  0  0
 14 18  1  0  0  0  0
 14 15  1  0  0  0  0
 15 16  1  0  0  0  0
 17 16  1  0  0  0  0
 18 13  1  0  0  0  0
 19 21  1  0  0  0  0
 20 19  1  0  0  0  0
 20 21  1  0  0  0  0
 23 22  1  0  0  0  0
 23 24  1  1  0  0  0
 25 23  1  0  0  0  0
 26 27  1  0  0  0  0
 27 25  1  0  0  0  0
M  END
>  <MODEL>
5

>  <REMARK>
 VINA RESULT:      -4.3      4.420      7.650
  Name = 
  6 active torsions:
  status: ('A' for Active; 'I' for Inactive)
    1  A    between atoms: C_2  and  O_6
    2  A    between atoms: C_5  and  O_6
    3  A    between atoms: C_5  and  C_17
    4  A    between atoms: N_9  and  C_15
    5  A    between atoms: C_14  and  C_19
    6  A    between atoms: N_16  and  C_17
                            x       y       z     vdW  Elec       q    Type
                         _______ _______ _______ _____ _____    ______ ____

>  <TORSDO>
F 6

$$$$
=
 OpenBabel11052423203D

 27 30  0  0  1  0  0  0  0  0999 V2000
  161.3620  204.9930  151.2320 N   0  0  0  0  0  2  0  0  0  0  0  0
  160.9490  205.6920  148.9040 C   0  0  0  0  0  0  0  0  0  0  0  0
  160.1650  207.6210  150.2540 C   0  0  0  0  0  2  0  0  0  0  0  0
  160.9500  208.2980  153.8690 C   0  0  0  0  0  3  0  0  0  0  0  0
  161.5060  207.0930  154.2940 C   0  0  0  0  0  0  0  0  0  0  0  0
  161.1180  204.7220  149.8380 C   0  0  0  0  0  0  0  0  0  0  0  0
  161.2090  206.1520  152.0680 C   0  0  0  0  0  0  0  0  0  0  0  0
  161.1440  207.1410  149.1940 C   0  0  1  0  0  3  0  0  0  0  0  0
  160.5240  208.4370  152.5480 C   0  0  0  0  0  3  0  0  0  0  0  0
  161.9220  206.9520  155.5750 F   0  0  0  0  0  0  0  0  0  0  0  0
  161.6300  206.0290  153.3990 C   0  0  0  0  0  3  0  0  0  0  0  0
  160.6500  207.3780  151.6420 C   0  0  0  0  0  0  0  0  0  0  0  0
  160.6260  200.9440  149.7690 C   0  0  0  0  0  2  0  0  0  0  0  0
  161.1530  203.3460  149.4420 N   0  0  0  0  0  0  0  0  0  0  0  0
  161.4490  203.0390  148.0380 C   0  0  0  0  0  2  0  0  0  0  0  0
  161.1560  201.5760  147.7080 C   0  0  0  0  0  2  0  0  0  0  0  0
  161.5780  200.7540  148.7590 O   0  0  0  0  0  0  0  0  0  0  0  0
  160.8320  202.3060  150.4310 C   0  0  0  0  0  2  0  0  0  0  0  0
  163.0790  208.4480  148.3440 C   0  0  0  0  0  2  0  0  0  0  0  0
  162.7060  209.0060  149.7010 C   0  0  0  0  0  2  0  0  0  0  0  0
  162.6040  207.5160  149.4410 C   0  0  0  0  0  3  0  0  0  0  0  0
  160.5850  205.3920  147.5830 O   0  0  0  0  0  0  0  0  0  0  0  0
  161.0020  206.1600  146.4580 C   0  0  1  0  0  3  0  0  0  0  0  0
  162.3340  205.8700  146.1590 O   0  0  0  0  0  1  0  0  0  0  0  0
  160.1350  205.8270  145.2600 C   0  0  0  0  0  2  0  0  0  0  0  0
  160.1130  203.6210  144.5120 C   0  0  0  0  0  1  0  0  0  0  0  0
  160.8240  204.8810  144.4000 N   0  0  0  0  0  2  0  0  0  0  0  0
  1  7  1  0  0  0  0
  2  8  1  0  0  0  0
  2  6  2  0  0  0  0
  3 12  1  0  0  0  0
  4  5  1  0  0  0  0
  5 10  1  0  0  0  0
  6  1  1  0  0  0  0
  7 11  1  0  0  0  0
  8 21  1  1  0  0  0
  8  3  1  0  0  0  0
  9  4  2  0  0  0  0
 11  5  2  0  0  0  0
 12  7  2  0  0  0  0
 12  9  1  0  0  0  0
 13 18  1  0  0  0  0
 14  6  1  0  0  0  0
 14 18  1  0  0  0  0
 15 14  1  0  0  0  0
 16 15  1  0  0  0  0
 16 17  1  0  0  0  0
 17 13  1  0  0  0  0
 19 21  1  0  0  0  0
 19 20  1  0  0  0  0
 21 20  1  0  0  0  0
 22  2  1  0  0  0  0
 23 24  1  6  0  0  0
 23 22  1  0  0  0  0
 25 23  1  0  0  0  0
 27 26  1  0  0  0  0
 27 25  1  0  0  0  0
M  END
>  <MODEL>
6

>  <REMARK>
 VINA RESULT:      -4.2      5.824      9.218
  Name = 
  6 active torsions:
  status: ('A' for Active; 'I' for Inactive)
    1  A    between atoms: C_2  and  O_6
    2  A    between atoms: C_5  and  O_6
    3  A    between atoms: C_5  and  C_17
    4  A    between atoms: N_9  and  C_15
    5  A    between atoms: C_14  and  C_19
    6  A    between atoms: N_16  and  C_17
                            x       y       z     vdW  Elec       q    Type
                         _______ _______ _______ _____ _____    ______ ____

>  <TORSDO>
F 6

$$$$
=
 OpenBabel11052423203D

 27 30  0  0  1  0  0  0  0  0999 V2000
  161.2480  209.6760  151.7910 N   0  0  0  0  0  2  0  0  0  0  0  0
  160.4570  211.3870  153.3800 C   0  0  0  0  0  0  0  0  0  0  0  0
  159.9230  209.2390  154.5020 C   0  0  0  0  0  2  0  0  0  0  0  0
  161.3060  205.8510  153.6360 C   0  0  0  0  0  3  0  0  0  0  0  0
  161.9170  206.0740  152.4040 C   0  0  0  0  0  0  0  0  0  0  0  0
  160.7720  210.9960  152.1200 C   0  0  0  0  0  0  0  0  0  0  0  0
  161.2450  208.4120  152.4750 C   0  0  0  0  0  0  0  0  0  0  0  0
  160.7060  210.5400  154.5800 C   0  0  1  0  0  3  0  0  0  0  0  0
  160.6650  206.9020  154.2930 C   0  0  0  0  0  3  0  0  0  0  0  0
  162.5400  205.0570  151.7610 F   0  0  0  0  0  0  0  0  0  0  0  0
  161.8820  207.3440  151.8290 C   0  0  0  0  0  3  0  0  0  0  0  0
  160.6310  208.1820  153.7270 C   0  0  0  0  0  0  0  0  0  0  0  0
  161.2660  212.6850  148.7390 C   0  0  0  0  0  2  0  0  0  0  0  0
  160.7310  211.9430  151.0450 N   0  0  0  0  0  0  0  0  0  0  0  0
  159.7200  213.0050  151.0990 C   0  0  0  0  0  2  0  0  0  0  0  0
  159.6020  213.7380  149.7630 C   0  0  0  0  0  2  0  0  0  0  0  0
  160.8740  213.9420  149.2150 O   0  0  0  0  0  0  0  0  0  0  0  0
  161.6510  211.7810  149.9090 C   0  0  0  0  0  2  0  0  0  0  0  0
  162.5040  211.1290  156.1930 C   0  0  0  0  0  2  0  0  0  0  0  0
  162.3410  209.6240  156.2130 C   0  0  0  0  0  2  0  0  0  0  0  0
  162.1900  210.3840  154.9100 C   0  0  0  0  0  3  0  0  0  0  0  0
  159.8750  212.6360  153.6430 O   0  0  0  0  0  0  0  0  0  0  0  0
  158.5170  212.8030  154.0420 C   0  0  1  0  0  3  0  0  0  0  0  0
  157.7740  211.6860  153.6590 O   0  0  0  0  0  1  0  0  0  0  0  0
  158.4410  212.9650  155.5470 C   0  0  0  0  0  2  0  0  0  0  0  0
  158.4220  211.3830  157.2570 C   0  0  0  0  0  1  0  0  0  0  0  0
  157.6670  211.8780  156.1210 N   0  0  0  0  0  2  0  0  0  0  0  0
  1  6  1  0  0  0  0
  1  7  1  0  0  0  0
  2 22  1  0  0  0  0
  2  8  1  0  0  0  0
  3  8  1  0  0  0  0
  4  9  1  0  0  0  0
  5  4  2  0  0  0  0
  6  2  2  0  0  0  0
  7 12  1  0  0  0  0
  8 21  1  6  0  0  0
 10  5  1  0  0  0  0
 11  5  1  0  0  0  0
 11  7  2  0  0  0  0
 12  9  2  0  0  0  0
 12  3  1  0  0  0  0
 13 17  1  0  0  0  0
 13 18  1  0  0  0  0
 14 15  1  0  0  0  0
 14  6  1  0  0  0  0
 16 15  1  0  0  0  0
 17 16  1  0  0  0  0
 18 14  1  0  0  0  0
 19 20  1  0  0  0  0
 21 19  1  0  0  0  0
 21 20  1  0  0  0  0
 22 23  1  0  0  0  0
 23 24  1  1  0  0  0
 23 25  1  0  0  0  0
 25 27  1  0  0  0  0
 27 26  1  0  0  0  0
M  END
>  <MODEL>
7

>  <REMARK>
 VINA RESULT:      -4.1      1.530      1.979
  Name = 
  6 active torsions:
  status: ('A' for Active; 'I' for Inactive)
    1  A    between atoms: C_2  and  O_6
    2  A    between atoms: C_5  and  O_6
    3  A    between atoms: C_5  and  C_17
    4  A    between atoms: N_9  and  C_15
    5  A    between atoms: C_14  and  C_19
    6  A    between atoms: N_16  and  C_17
                            x       y       z     vdW  Elec       q    Type
                         _______ _______ _______ _____ _____    ______ ____

>  <TORSDO>
F 6

$$$$
=
 OpenBabel11052423203D

 27 30  0  0  1  0  0  0  0  0999 V2000
  160.8000  207.4540  152.5430 N   0  0  0  0  0  2  0  0  0  0  0  0
  161.8440  209.0110  150.9420 C   0  0  0  0  0  0  0  0  0  0  0  0
  162.9730  206.8470  150.4920 C   0  0  0  0  0  2  0  0  0  0  0  0
  161.8150  203.4410  151.5880 C   0  0  0  0  0  3  0  0  0  0  0  0
  160.8160  203.7390  152.5130 C   0  0  0  0  0  0  0  0  0  0  0  0
  161.1890  208.7700  152.1050 C   0  0  0  0  0  0  0  0  0  0  0  0
  161.1800  206.1200  152.1640 C   0  0  0  0  0  0  0  0  0  0  0  0
  162.1020  207.9550  149.9220 C   0  0  1  0  0  3  0  0  0  0  0  0
  162.4980  204.4760  150.9480 C   0  0  0  0  0  3  0  0  0  0  0  0
  160.1500  202.7380  153.1380 F   0  0  0  0  0  0  0  0  0  0  0  0
  160.5060  205.0690  152.7990 C   0  0  0  0  0  3  0  0  0  0  0  0
  162.1890  205.8130  151.2240 C   0  0  0  0  0  0  0  0  0  0  0  0
  159.0370  211.4000  153.8300 C   0  0  0  0  0  2  0  0  0  0  0  0
  160.7630  209.8650  152.9260 N   0  0  0  0  0  0  0  0  0  0  0  0
  161.6450  210.2950  154.0160 C   0  0  0  0  0  2  0  0  0  0  0  0
  160.9330  211.2490  154.9730 C   0  0  0  0  0  2  0  0  0  0  0  0
  160.1420  212.1500  154.2510 O   0  0  0  0  0  0  0  0  0  0  0  0
  159.4430  210.4680  152.6900 C   0  0  0  0  0  2  0  0  0  0  0  0
  161.0240  207.6060  147.7090 C   0  0  0  0  0  2  0  0  0  0  0  0
  161.1520  206.2540  148.3790 C   0  0  0  0  0  2  0  0  0  0  0  0
  160.8360  207.4820  149.2090 C   0  0  0  0  0  3  0  0  0  0  0  0
  162.3200  210.2880  150.6110 O   0  0  0  0  0  0  0  0  0  0  0  0
  161.6900  211.1420  149.6610 C   0  0  1  0  0  3  0  0  0  0  0  0
  161.1530  212.2540  150.3120 O   0  0  0  0  0  1  0  0  0  0  0  0
  162.7040  211.6040  148.6340 C   0  0  0  0  0  2  0  0  0  0  0  0
  162.7540  213.6480  147.5180 C   0  0  0  0  0  1  0  0  0  0  0  0
  162.0430  212.3860  147.6050 N   0  0  0  0  0  2  0  0  0  0  0  0
  2  6  2  0  0  0  0
  3 12  1  0  0  0  0
  4  5  1  0  0  0  0
  5 11  2  0  0  0  0
  5 10  1  0  0  0  0
  6  1  1  0  0  0  0
  6 14  1  0  0  0  0
  7  1  1  0  0  0  0
  7 11  1  0  0  0  0
  8 21  1  1  0  0  0
  8  3  1  0  0  0  0
  8  2  1  0  0  0  0
  9 12  1  0  0  0  0
  9  4  2  0  0  0  0
 12  7  2  0  0  0  0
 13 17  1  0  0  0  0
 14 15  1  0  0  0  0
 15 16  1  0  0  0  0
 17 16  1  0  0  0  0
 18 14  1  0  0  0  0
 18 13  1  0  0  0  0
 19 20  1  0  0  0  0
 19 21  1  0  0  0  0
 20 21  1  0  0  0  0
 22  2  1  0  0  0  0
 23 24  1  1  0  0  0
 23 22  1  0  0  0  0
 25 23  1  0  0  0  0
 26 27  1  0  0  0  0
 27 25  1  0  0  0  0
M  END
>  <MODEL>
8

>  <REMARK>
 VINA RESULT:      -4.0      2.858      6.020
  Name = 
  6 active torsions:
  status: ('A' for Active; 'I' for Inactive)
    1  A    between atoms: C_2  and  O_6
    2  A    between atoms: C_5  and  O_6
    3  A    between atoms: C_5  and  C_17
    4  A    between atoms: N_9  and  C_15
    5  A    between atoms: C_14  and  C_19
    6  A    between atoms: N_16  and  C_17
                            x       y       z     vdW  Elec       q    Type
                         _______ _______ _______ _____ _____    ______ ____

>  <TORSDO>
F 6

$$$$
=
 OpenBabel11052423203D

 27 30  0  0  1  0  0  0  0  0999 V2000
  161.2250  206.1930  152.8400 N   0  0  0  0  0  2  0  0  0  0  0  0
  160.8260  206.9990  150.5440 C   0  0  0  0  0  0  0  0  0  0  0  0
  160.0860  208.8870  151.9760 C   0  0  0  0  0  2  0  0  0  0  0  0
  160.8890  209.3920  155.6150 C   0  0  0  0  0  3  0  0  0  0  0  0
  161.4190  208.1580  155.9870 C   0  0  0  0  0  0  0  0  0  0  0  0
  160.9730  205.9880  151.4360 C   0  0  0  0  0  0  0  0  0  0  0  0
  161.0980  207.3190  153.7240 C   0  0  0  0  0  0  0  0  0  0  0  0
  161.0520  208.4300  150.8940 C   0  0  1  0  0  3  0  0  0  0  0  0
  160.4650  209.5960  154.3020 C   0  0  0  0  0  3  0  0  0  0  0  0
  161.8320  207.9530  157.2610 F   0  0  0  0  0  0  0  0  0  0  0  0
  161.5180  207.1300  155.0480 C   0  0  0  0  0  3  0  0  0  0  0  0
  160.5660  208.5740  153.3510 C   0  0  0  0  0  0  0  0  0  0  0  0
  161.1630  202.8950  149.2170 C   0  0  0  0  0  2  0  0  0  0  0  0
  160.9780  204.6290  150.9820 N   0  0  0  0  0  0  0  0  0  0  0  0
  161.1910  203.5700  151.9750 C   0  0  0  0  0  2  0  0  0  0  0  0
  161.4700  202.2230  151.3100 C   0  0  0  0  0  2  0  0  0  0  0  0
  160.6320  202.0520  150.2020 O   0  0  0  0  0  0  0  0  0  0  0  0
  160.8360  204.3510  149.5450 C   0  0  0  0  0  2  0  0  0  0  0  0
  162.9330  209.9410  150.2940 C   0  0  0  0  0  2  0  0  0  0  0  0
  162.6260  210.1470  151.7630 C   0  0  0  0  0  2  0  0  0  0  0  0
  162.5210  208.7620  151.1550 C   0  0  0  0  0  3  0  0  0  0  0  0
  160.4540  206.7640  149.2120 O   0  0  0  0  0  0  0  0  0  0  0  0
  161.1750  207.2690  148.0920 C   0  0  1  0  0  3  0  0  0  0  0  0
  162.5400  207.0440  148.2720 O   0  0  0  0  0  1  0  0  0  0  0  0
  160.7140  206.5710  146.8280 C   0  0  0  0  0  2  0  0  0  0  0  0
  161.4990  205.4730  144.9300 C   0  0  0  0  0  1  0  0  0  0  0  0
  161.7620  205.6920  146.3400 N   0  0  0  0  0  2  0  0  0  0  0  0
  1  7  1  0  0  0  0
  2  8  1  0  0  0  0
  2  6  2  0  0  0  0
  3 12  1  0  0  0  0
  4  5  1  0  0  0  0
  5 10  1  0  0  0  0
  6  1  1  0  0  0  0
  7 11  1  0  0  0  0
  8 21  1  1  0  0  0
  8  3  1  0  0  0  0
  9  4  2  0  0  0  0
 11  5  2  0  0  0  0
 12  7  2  0  0  0  0
 12  9  1  0  0  0  0
 13 18  1  0  0  0  0
 13 17  1  0  0  0  0
 14  6  1  0  0  0  0
 14 15  1  0  0  0  0
 16 15  1  0  0  0  0
 17 16  1  0  0  0  0
 18 14  1  0  0  0  0
 19 21  1  0  0  0  0
 19 20  1  0  0  0  0
 21 20  1  0  0  0  0
 22  2  1  0  0  0  0
 23 24  1  1  0  0  0
 23 22  1  0  0  0  0
 25 23  1  0  0  0  0
 26 27  1  0  0  0  0
 27 25  1  0  0  0  0
M  END
>  <MODEL>
9

>  <REMARK>
 VINA RESULT:      -3.9      4.711      7.986
  Name = 
  6 active torsions:
  status: ('A' for Active; 'I' for Inactive)
    1  A    between atoms: C_2  and  O_6
    2  A    between atoms: C_5  and  O_6
    3  A    between atoms: C_5  and  C_17
    4  A    between atoms: N_9  and  C_15
    5  A    between atoms: C_14  and  C_19
    6  A    between atoms: N_16  and  C_17
                            x       y       z     vdW  Elec       q    Type
                         _______ _______ _______ _____ _____    ______ ____

>  <TORSDO>
F 6

$$$$
