=
 OpenBabel11052422123D

 25 28  0  0  1  0  0  0  0  0999 V2000
  161.4210  205.4010  149.1940 C   0  0  0  0  0  0  0  0  0  0  0  0
  161.4390  206.3860  150.1970 C   0  0  0  0  0  0  0  0  0  0  0  0
  161.9610  207.0680  147.4940 C   0  0  0  0  0  3  0  0  0  0  0  0
  161.1660  204.0260  149.3310 C   0  0  0  0  0  0  0  0  0  0  0  0
  160.7170  201.2720  149.2100 C   0  0  0  0  0  3  0  0  0  0  0  0
  161.9810  208.0550  148.4870 C   0  0  0  0  0  3  0  0  0  0  0  0
  161.2320  203.3430  148.1180 C   0  0  0  0  0  0  0  0  0  0  0  0
  161.0120  201.9700  148.0300 C   0  0  0  0  0  3  0  0  0  0  0  0
  161.7380  208.6960  150.8500 C   0  0  0  0  0  0  0  0  0  0  0  0
  162.0280  210.1300  150.5580 C   0  0  0  0  0  1  0  0  0  0  0  0
  161.1920  206.0780  151.4970 N   0  0  0  0  0  0  0  0  0  0  0  0
  160.6480  201.9480  150.4420 C   0  0  0  0  0  3  0  0  0  0  0  0
  161.6800  205.7570  147.8700 C   0  0  0  0  0  0  0  0  0  0  0  0
  161.6010  204.4060  146.8640 S   0  0  0  0  0  0  0  0  0  0  0  0
  161.4840  208.3270  152.1330 N   0  0  0  0  0  0  0  0  0  0  0  0
  160.8730  203.3310  150.5100 C   0  0  0  0  0  3  0  0  0  0  0  0
  161.2140  207.0360  152.4590 C   0  0  0  0  0  0  0  0  0  0  0  0
  161.7240  207.7260  149.8350 C   0  0  0  0  0  0  0  0  0  0  0  0
  160.8860  206.5960  154.1580 S   0  0  0  0  0  0  0  0  0  0  0  0
  161.2490  208.2860  154.7420 C   0  0  0  0  0  2  0  0  0  0  0  0
  160.5560  208.6020  156.0720 C   0  0  2  0  0  3  0  0  0  0  0  0
  159.9900  207.3100  156.6570 C   0  0  0  0  0  1  0  0  0  0  0  0
  159.5140  209.6290  155.9210 N   0  0  0  0  0  0  0  0  0  0  0  0
  159.7860  210.3930  154.7120 C   0  0  0  0  0  1  0  0  0  0  0  0
  159.6430  210.5880  157.0100 C   0  0  0  0  0  1  0  0  0  0  0  0
  1  4  1  0  0  0  0
  1  2  2  0  0  0  0
  2 11  1  0  0  0  0
  3 13  2  0  0  0  0
  3  6  1  0  0  0  0
  4 16  1  0  0  0  0
  5 12  1  0  0  0  0
  6 18  2  0  0  0  0
  7  4  2  0  0  0  0
  8  7  1  0  0  0  0
  8  5  2  0  0  0  0
  9 15  2  0  0  0  0
 10  9  1  0  0  0  0
 11 17  2  0  0  0  0
 12 16  2  0  0  0  0
 13  1  1  0  0  0  0
 14 13  1  0  0  0  0
 14  7  1  0  0  0  0
 15 17  1  0  0  0  0
 17 19  1  0  0  0  0
 18  2  1  0  0  0  0
 18  9  1  0  0  0  0
 19 20  1  0  0  0  0
 20 21  1  0  0  0  0
 21 22  1  6  0  0  0
 23 21  1  0  0  0  0
 23 25  1  0  0  0  0
 24 23  1  0  0  0  0
M  END
>  <MODEL>
1

>  <REMARK>
 VINA RESULT:      -9.3      0.000      0.000
  Name = 
  4 active torsions:
  status: ('A' for Active; 'I' for Inactive)
    1  A    between atoms: N_2  and  C_21
    2  A    between atoms: S_6  and  C_15
    3  A    between atoms: S_6  and  C_23
    4  A    between atoms: C_15  and  C_21
                            x       y       z     vdW  Elec       q    Type
                         _______ _______ _______ _____ _____    ______ ____

>  <TORSDO>
F 4

$$$$
=
 OpenBabel11052422123D

 25 28  0  0  1  0  0  0  0  0999 V2000
  161.1170  204.1650  149.7200 C   0  0  0  0  0  0  0  0  0  0  0  0
  161.2940  205.4770  150.1950 C   0  0  0  0  0  0  0  0  0  0  0  0
  160.7790  203.3470  151.9950 C   0  0  0  0  0  3  0  0  0  0  0  0
  161.1580  203.7090  148.3920 C   0  0  0  0  0  0  0  0  0  0  0  0
  161.1640  202.4430  145.9030 C   0  0  0  0  0  3  0  0  0  0  0  0
  160.9540  204.6500  152.4760 C   0  0  0  0  0  3  0  0  0  0  0  0
  160.9380  202.3380  148.2870 C   0  0  0  0  0  0  0  0  0  0  0  0
  160.9360  201.6810  147.0580 C   0  0  0  0  0  3  0  0  0  0  0  0
  161.3880  207.0330  152.0440 C   0  0  0  0  0  0  0  0  0  0  0  0
  161.3150  207.3760  153.4940 C   0  0  0  0  0  1  0  0  0  0  0  0
  161.5400  206.5100  149.3470 N   0  0  0  0  0  0  0  0  0  0  0  0
  161.3870  203.8290  145.9930 C   0  0  0  0  0  3  0  0  0  0  0  0
  160.8650  203.1310  150.6230 C   0  0  0  0  0  0  0  0  0  0  0  0
  160.6920  201.6630  149.8110 S   0  0  0  0  0  0  0  0  0  0  0  0
  161.6310  208.0260  151.1490 N   0  0  0  0  0  0  0  0  0  0  0  0
  161.3850  204.4710  147.2400 C   0  0  0  0  0  3  0  0  0  0  0  0
  161.7070  207.7740  149.8150 C   0  0  0  0  0  0  0  0  0  0  0  0
  161.2090  205.7180  151.5890 C   0  0  0  0  0  0  0  0  0  0  0  0
  162.0290  209.1080  148.6730 S   0  0  0  0  0  0  0  0  0  0  0  0
  161.9550  210.3580  150.0000 C   0  0  0  0  0  2  0  0  0  0  0  0
  161.9170  211.7880  149.4490 C   0  0  2  0  0  3  0  0  0  0  0  0
  160.6740  212.4950  149.9870 C   0  0  0  0  0  1  0  0  0  0  0  0
  161.9620  211.8150  147.9800 N   0  0  0  0  0  0  0  0  0  0  0  0
  163.1030  212.6170  147.5640 C   0  0  0  0  0  1  0  0  0  0  0  0
  160.7950  212.5380  147.4900 C   0  0  0  0  0  1  0  0  0  0  0  0
  1  2  2  0  0  0  0
  1 13  1  0  0  0  0
  2 18  1  0  0  0  0
  3  6  1  0  0  0  0
  4  1  1  0  0  0  0
  5 12  2  0  0  0  0
  5  8  1  0  0  0  0
  7  4  1  0  0  0  0
  7 14  1  0  0  0  0
  8  7  2  0  0  0  0
  9 10  1  0  0  0  0
 11 17  2  0  0  0  0
 11  2  1  0  0  0  0
 12 16  1  0  0  0  0
 13  3  2  0  0  0  0
 14 13  1  0  0  0  0
 15  9  2  0  0  0  0
 16  4  2  0  0  0  0
 17 15  1  0  0  0  0
 18  9  1  0  0  0  0
 18  6  2  0  0  0  0
 19 17  1  0  0  0  0
 19 20  1  0  0  0  0
 21 22  1  6  0  0  0
 21 20  1  0  0  0  0
 23 21  1  0  0  0  0
 24 23  1  0  0  0  0
 25 23  1  0  0  0  0
M  END
>  <MODEL>
2

>  <REMARK>
 VINA RESULT:      -9.2      2.604      4.989
  Name = 
  4 active torsions:
  status: ('A' for Active; 'I' for Inactive)
    1  A    between atoms: N_2  and  C_21
    2  A    between atoms: S_6  and  C_15
    3  A    between atoms: S_6  and  C_23
    4  A    between atoms: C_15  and  C_21
                            x       y       z     vdW  Elec       q    Type
                         _______ _______ _______ _____ _____    ______ ____

>  <TORSDO>
F 4

$$$$
=
 OpenBabel11052422123D

 25 28  0  0  1  0  0  0  0  0999 V2000
  161.2070  204.3990  149.1310 C   0  0  0  0  0  0  0  0  0  0  0  0
  161.3170  205.4120  150.1010 C   0  0  0  0  0  0  0  0  0  0  0  0
  160.8310  202.7240  150.8670 C   0  0  0  0  0  3  0  0  0  0  0  0
  161.3070  204.5190  147.7350 C   0  0  0  0  0  0  0  0  0  0  0  0
  161.4390  204.3650  144.9490 C   0  0  0  0  0  3  0  0  0  0  0  0
  160.9390  203.7270  151.8390 C   0  0  0  0  0  3  0  0  0  0  0  0
  161.1440  203.3020  147.0770 C   0  0  0  0  0  0  0  0  0  0  0  0
  161.2060  203.1970  145.6890 C   0  0  0  0  0  3  0  0  0  0  0  0
  161.2920  206.0910  152.4220 C   0  0  0  0  0  0  0  0  0  0  0  0
  161.1620  205.8170  153.8830 C   0  0  0  0  0  1  0  0  0  0  0  0
  161.5490  206.7040  149.7520 N   0  0  0  0  0  0  0  0  0  0  0  0
  161.6050  205.6020  145.5990 C   0  0  0  0  0  3  0  0  0  0  0  0
  160.9680  203.0830  149.5290 C   0  0  0  0  0  0  0  0  0  0  0  0
  160.8770  202.0640  148.1890 S   0  0  0  0  0  0  0  0  0  0  0  0
  161.5250  207.3650  152.0130 N   0  0  0  0  0  0  0  0  0  0  0  0
  161.5390  205.6860  146.9980 C   0  0  0  0  0  3  0  0  0  0  0  0
  161.6510  207.6750  150.6960 C   0  0  0  0  0  0  0  0  0  0  0  0
  161.1800  205.0670  151.4680 C   0  0  0  0  0  0  0  0  0  0  0  0
  161.9560  209.3640  150.2030 S   0  0  0  0  0  0  0  0  0  0  0  0
  161.9550  209.9450  151.9320 C   0  0  0  0  0  2  0  0  0  0  0  0
  160.5610  210.3810  152.3970 C   0  0  2  0  0  3  0  0  0  0  0  0
  160.3420  211.8420  152.0110 C   0  0  0  0  0  1  0  0  0  0  0  0
  160.3680  210.1670  153.8390 N   0  0  0  0  0  0  0  0  0  0  0  0
  159.3350  211.0790  154.3100 C   0  0  0  0  0  1  0  0  0  0  0  0
  161.5790  210.5770  154.5380 C   0  0  0  0  0  1  0  0  0  0  0  0
  1 13  1  0  0  0  0
  1  2  2  0  0  0  0
  2 18  1  0  0  0  0
  3  6  1  0  0  0  0
  4  1  1  0  0  0  0
  5 12  2  0  0  0  0
  5  8  1  0  0  0  0
  7  4  1  0  0  0  0
  7 14  1  0  0  0  0
  8  7  2  0  0  0  0
  9 10  1  0  0  0  0
 11  2  1  0  0  0  0
 11 17  2  0  0  0  0
 12 16  1  0  0  0  0
 13  3  2  0  0  0  0
 14 13  1  0  0  0  0
 15  9  2  0  0  0  0
 16  4  2  0  0  0  0
 17 15  1  0  0  0  0
 18  6  2  0  0  0  0
 18  9  1  0  0  0  0
 19 17  1  0  0  0  0
 19 20  1  0  0  0  0
 20 21  1  0  0  0  0
 21 22  1  1  0  0  0
 21 23  1  0  0  0  0
 23 24  1  0  0  0  0
 23 25  1  0  0  0  0
M  END
>  <MODEL>
3

>  <REMARK>
 VINA RESULT:      -9.0      1.996      3.724
  Name = 
  4 active torsions:
  status: ('A' for Active; 'I' for Inactive)
    1  A    between atoms: N_2  and  C_21
    2  A    between atoms: S_6  and  C_15
    3  A    between atoms: S_6  and  C_23
    4  A    between atoms: C_15  and  C_21
                            x       y       z     vdW  Elec       q    Type
                         _______ _______ _______ _____ _____    ______ ____

>  <TORSDO>
F 4

$$$$
=
 OpenBabel11052422123D

 25 28  0  0  1  0  0  0  0  0999 V2000
  161.2400  205.0420  149.8800 C   0  0  0  0  0  0  0  0  0  0  0  0
  161.2640  206.0770  150.8320 C   0  0  0  0  0  0  0  0  0  0  0  0
  160.8220  203.3920  151.6300 C   0  0  0  0  0  3  0  0  0  0  0  0
  161.4130  205.1360  148.4890 C   0  0  0  0  0  0  0  0  0  0  0  0
  161.7050  204.9290  145.7190 C   0  0  0  0  0  3  0  0  0  0  0  0
  160.8440  204.4170  152.5840 C   0  0  0  0  0  3  0  0  0  0  0  0
  161.3260  203.9010  147.8510 C   0  0  0  0  0  0  0  0  0  0  0  0
  161.4680  203.7700  146.4710 C   0  0  0  0  0  3  0  0  0  0  0  0
  161.0890  206.8030  153.1320 C   0  0  0  0  0  0  0  0  0  0  0  0
  160.8860  206.5550  154.5900 C   0  0  0  0  0  1  0  0  0  0  0  0
  161.4740  207.3690  150.4680 N   0  0  0  0  0  0  0  0  0  0  0  0
  161.7950  206.1850  146.3490 C   0  0  0  0  0  3  0  0  0  0  0  0
  161.0210  203.7270  150.2940 C   0  0  0  0  0  0  0  0  0  0  0  0
  161.0380  202.6780  148.9740 S   0  0  0  0  0  0  0  0  0  0  0  0
  161.3030  208.0760  152.7080 N   0  0  0  0  0  0  0  0  0  0  0  0
  161.6490  206.2950  147.7410 C   0  0  0  0  0  3  0  0  0  0  0  0
  161.4930  208.3620  151.3930 C   0  0  0  0  0  0  0  0  0  0  0  0
  161.0620  205.7560  152.1970 C   0  0  0  0  0  0  0  0  0  0  0  0
  161.7710  210.0500  150.8800 S   0  0  0  0  0  0  0  0  0  0  0  0
  161.2040  210.7070  152.4850 C   0  0  0  0  0  2  0  0  0  0  0  0
  159.7890  211.2910  152.4060 C   0  0  2  0  0  3  0  0  0  0  0  0
  159.8480  212.6470  151.7070 C   0  0  0  0  0  1  0  0  0  0  0  0
  159.1580  211.3920  153.7300 N   0  0  0  0  0  0  0  0  0  0  0  0
  158.9650  212.8000  154.0470 C   0  0  0  0  0  1  0  0  0  0  0  0
  160.0970  210.9060  154.7330 C   0  0  0  0  0  1  0  0  0  0  0  0
  1 13  1  0  0  0  0
  1  2  2  0  0  0  0
  2 18  1  0  0  0  0
  3  6  1  0  0  0  0
  4  1  1  0  0  0  0
  5 12  2  0  0  0  0
  5  8  1  0  0  0  0
  7  4  1  0  0  0  0
  7 14  1  0  0  0  0
  8  7  2  0  0  0  0
  9 10  1  0  0  0  0
 11  2  1  0  0  0  0
 11 17  2  0  0  0  0
 12 16  1  0  0  0  0
 13  3  2  0  0  0  0
 14 13  1  0  0  0  0
 15  9  2  0  0  0  0
 16  4  2  0  0  0  0
 17 15  1  0  0  0  0
 18  6  2  0  0  0  0
 18  9  1  0  0  0  0
 19 17  1  0  0  0  0
 19 20  1  0  0  0  0
 21 22  1  1  0  0  0
 21 20  1  0  0  0  0
 21 23  1  0  0  0  0
 23 24  1  0  0  0  0
 23 25  1  0  0  0  0
M  END
>  <MODEL>
4

>  <REMARK>
 VINA RESULT:      -8.6      1.986      3.769
  Name = 
  4 active torsions:
  status: ('A' for Active; 'I' for Inactive)
    1  A    between atoms: N_2  and  C_21
    2  A    between atoms: S_6  and  C_15
    3  A    between atoms: S_6  and  C_23
    4  A    between atoms: C_15  and  C_21
                            x       y       z     vdW  Elec       q    Type
                         _______ _______ _______ _____ _____    ______ ____

>  <TORSDO>
F 4

$$$$
=
 OpenBabel11052422123D

 25 28  0  0  1  0  0  0  0  0999 V2000
  161.2960  205.5740  150.9670 C   0  0  0  0  0  0  0  0  0  0  0  0
  161.4460  206.9690  151.0570 C   0  0  0  0  0  0  0  0  0  0  0  0
  161.1060  205.4000  153.3950 C   0  0  0  0  0  3  0  0  0  0  0  0
  161.2880  204.7740  149.8130 C   0  0  0  0  0  0  0  0  0  0  0  0
  161.2170  202.8760  147.7650 C   0  0  0  0  0  3  0  0  0  0  0  0
  161.2540  206.7890  153.4930 C   0  0  0  0  0  3  0  0  0  0  0  0
  161.1160  203.4210  150.0970 C   0  0  0  0  0  0  0  0  0  0  0  0
  161.0780  202.4540  149.0950 C   0  0  0  0  0  3  0  0  0  0  0  0
  161.5720  208.9730  152.4060 C   0  0  0  0  0  0  0  0  0  0  0  0
  161.5600  209.6970  153.7100 C   0  0  0  0  0  1  0  0  0  0  0  0
  161.6090  207.7370  149.9480 N   0  0  0  0  0  0  0  0  0  0  0  0
  161.3900  204.2390  147.4620 C   0  0  0  0  0  3  0  0  0  0  0  0
  161.1310  204.8200  152.1300 C   0  0  0  0  0  0  0  0  0  0  0  0
  160.9740  203.1820  151.7590 S   0  0  0  0  0  0  0  0  0  0  0  0
  161.7320  209.6890  151.2620 N   0  0  0  0  0  0  0  0  0  0  0  0
  161.4260  205.1970  148.4860 C   0  0  0  0  0  3  0  0  0  0  0  0
  161.7490  209.0840  150.0440 C   0  0  0  0  0  0  0  0  0  0  0  0
  161.4220  207.5790  152.3360 C   0  0  0  0  0  0  0  0  0  0  0  0
  161.9610  210.0630  148.5670 S   0  0  0  0  0  0  0  0  0  0  0  0
  161.8780  211.6270  149.5030 C   0  0  0  0  0  2  0  0  0  0  0  0
  161.5850  212.8300  148.5990 C   0  0  2  0  0  3  0  0  0  0  0  0
  160.3180  213.5260  149.0930 C   0  0  0  0  0  1  0  0  0  0  0  0
  161.4730  212.4440  147.1850 N   0  0  0  0  0  0  0  0  0  0  0  0
  162.3240  213.3220  146.3950 C   0  0  0  0  0  1  0  0  0  0  0  0
  160.1180  212.7240  146.7300 C   0  0  0  0  0  1  0  0  0  0  0  0
  1  2  2  0  0  0  0
  1 13  1  0  0  0  0
  2 18  1  0  0  0  0
  3  6  1  0  0  0  0
  4  7  1  0  0  0  0
  4  1  1  0  0  0  0
  5  8  1  0  0  0  0
  7 14  1  0  0  0  0
  8  7  2  0  0  0  0
  9 10  1  0  0  0  0
 11 17  2  0  0  0  0
 11  2  1  0  0  0  0
 12  5  2  0  0  0  0
 12 16  1  0  0  0  0
 13  3  2  0  0  0  0
 14 13  1  0  0  0  0
 15  9  2  0  0  0  0
 16  4  2  0  0  0  0
 17 15  1  0  0  0  0
 18  9  1  0  0  0  0
 18  6  2  0  0  0  0
 19 20  1  0  0  0  0
 19 17  1  0  0  0  0
 21 22  1  1  0  0  0
 21 20  1  0  0  0  0
 23 21  1  0  0  0  0
 24 23  1  0  0  0  0
 25 23  1  0  0  0  0
M  END
>  <MODEL>
5

>  <REMARK>
 VINA RESULT:      -8.6      2.891      5.378
  Name = 
  4 active torsions:
  status: ('A' for Active; 'I' for Inactive)
    1  A    between atoms: N_2  and  C_21
    2  A    between atoms: S_6  and  C_15
    3  A    between atoms: S_6  and  C_23
    4  A    between atoms: C_15  and  C_21
                            x       y       z     vdW  Elec       q    Type
                         _______ _______ _______ _____ _____    ______ ____

>  <TORSDO>
F 4

$$$$
=
 OpenBabel11052422123D

 25 28  0  0  1  0  0  0  0  0999 V2000
  161.2190  208.5860  153.0570 C   0  0  0  0  0  0  0  0  0  0  0  0
  161.3380  207.6900  151.9800 C   0  0  0  0  0  0  0  0  0  0  0  0
  161.8570  210.4560  151.6230 C   0  0  0  0  0  3  0  0  0  0  0  0
  160.8540  208.3050  154.3850 C   0  0  0  0  0  0  0  0  0  0  0  0
  160.1740  208.1350  157.0880 C   0  0  0  0  0  3  0  0  0  0  0  0
  161.9780  209.5710  150.5450 C   0  0  0  0  0  3  0  0  0  0  0  0
  160.8380  209.4410  155.1900 C   0  0  0  0  0  0  0  0  0  0  0  0
  160.5030  209.3840  156.5410 C   0  0  0  0  0  3  0  0  0  0  0  0
  161.8330  207.2840  149.6470 C   0  0  0  0  0  0  0  0  0  0  0  0
  162.2310  207.7270  148.2790 C   0  0  0  0  0  1  0  0  0  0  0  0
  161.0920  206.3630  152.1320 N   0  0  0  0  0  0  0  0  0  0  0  0
  160.1850  206.9790  156.2860 C   0  0  0  0  0  3  0  0  0  0  0  0
  161.4790  209.9430  152.8610 C   0  0  0  0  0  0  0  0  0  0  0  0
  161.2680  210.8030  154.2960 S   0  0  0  0  0  0  0  0  0  0  0  0
  161.5750  205.9680  149.8600 N   0  0  0  0  0  0  0  0  0  0  0  0
  160.5260  207.0580  154.9270 C   0  0  0  0  0  3  0  0  0  0  0  0
  161.2070  205.5060  151.0840 C   0  0  0  0  0  0  0  0  0  0  0  0
  161.7200  208.1930  150.7110 C   0  0  0  0  0  0  0  0  0  0  0  0
  160.8770  203.7670  151.3190 S   0  0  0  0  0  0  0  0  0  0  0  0
  160.8720  203.4520  149.5220 C   0  0  0  0  0  2  0  0  0  0  0  0
  160.3110  202.0670  149.1770 C   0  0  2  0  0  3  0  0  0  0  0  0
  160.8760  201.0430  150.1600 C   0  0  0  0  0  1  0  0  0  0  0  0
  160.5890  201.6900  147.7840 N   0  0  0  0  0  0  0  0  0  0  0  0
  161.4730  200.5340  147.7820 C   0  0  0  0  0  1  0  0  0  0  0  0
  161.3600  202.7560  147.1570 C   0  0  0  0  0  1  0  0  0  0  0  0
  1  4  1  0  0  0  0
  2 11  1  0  0  0  0
  2  1  1  0  0  0  0
  3 13  1  0  0  0  0
  4 16  2  0  0  0  0
  4  7  1  0  0  0  0
  6 18  1  0  0  0  0
  6  3  2  0  0  0  0
  7  8  2  0  0  0  0
  8  5  1  0  0  0  0
  9 15  2  0  0  0  0
  9 18  1  0  0  0  0
 10  9  1  0  0  0  0
 12  5  2  0  0  0  0
 13  1  2  0  0  0  0
 13 14  1  0  0  0  0
 14  7  1  0  0  0  0
 15 17  1  0  0  0  0
 16 12  1  0  0  0  0
 17 19  1  0  0  0  0
 17 11  2  0  0  0  0
 18  2  2  0  0  0  0
 20 19  1  0  0  0  0
 21 20  1  0  0  0  0
 21 22  1  1  0  0  0
 23 21  1  0  0  0  0
 24 23  1  0  0  0  0
 25 23  1  0  0  0  0
M  END
>  <MODEL>
6

>  <REMARK>
 VINA RESULT:      -8.2      1.954      7.418
  Name = 
  4 active torsions:
  status: ('A' for Active; 'I' for Inactive)
    1  A    between atoms: N_2  and  C_21
    2  A    between atoms: S_6  and  C_15
    3  A    between atoms: S_6  and  C_23
    4  A    between atoms: C_15  and  C_21
                            x       y       z     vdW  Elec       q    Type
                         _______ _______ _______ _____ _____    ______ ____

>  <TORSDO>
F 4

$$$$
=
 OpenBabel11052422123D

 25 28  0  0  1  0  0  0  0  0999 V2000
  161.3480  205.3890  149.8760 C   0  0  0  0  0  0  0  0  0  0  0  0
  161.3830  206.4430  150.8070 C   0  0  0  0  0  0  0  0  0  0  0  0
  160.8850  203.7820  151.6540 C   0  0  0  0  0  3  0  0  0  0  0  0
  161.5350  205.4530  148.4850 C   0  0  0  0  0  0  0  0  0  0  0  0
  161.8470  205.1870  145.7220 C   0  0  0  0  0  3  0  0  0  0  0  0
  160.9180  204.8250  152.5880 C   0  0  0  0  0  3  0  0  0  0  0  0
  161.4310  204.2080  147.8700 C   0  0  0  0  0  0  0  0  0  0  0  0
  161.5820  204.0470  146.4950 C   0  0  0  0  0  3  0  0  0  0  0  0
  161.2020  207.2160  153.0920 C   0  0  0  0  0  0  0  0  0  0  0  0
  160.9830  207.0010  154.5520 C   0  0  0  0  0  1  0  0  0  0  0  0
  161.6200  207.7230  150.4200 N   0  0  0  0  0  0  0  0  0  0  0  0
  161.9540  206.4520  146.3290 C   0  0  0  0  0  3  0  0  0  0  0  0
  161.1020  204.0870  150.3130 C   0  0  0  0  0  0  0  0  0  0  0  0
  161.1100  203.0120  149.0140 S   0  0  0  0  0  0  0  0  0  0  0  0
  161.4430  208.4760  152.6450 N   0  0  0  0  0  0  0  0  0  0  0  0
  161.7980  206.5920  147.7160 C   0  0  0  0  0  3  0  0  0  0  0  0
  161.6500  208.7340  151.3270 C   0  0  0  0  0  0  0  0  0  0  0  0
  161.1640  206.1520  152.1770 C   0  0  0  0  0  0  0  0  0  0  0  0
  161.9630  210.4050  150.7830 S   0  0  0  0  0  0  0  0  0  0  0  0
  161.9550  209.9120  149.0270 C   0  0  0  0  0  2  0  0  0  0  0  0
  162.0210  211.1200  148.0850 C   0  0  2  0  0  3  0  0  0  0  0  0
  163.3690  211.8150  148.2610 C   0  0  0  0  0  1  0  0  0  0  0  0
  160.9010  212.0490  148.2990 N   0  0  0  0  0  0  0  0  0  0  0  0
  160.1790  212.2040  147.0440 C   0  0  0  0  0  1  0  0  0  0  0  0
  161.4410  213.3710  148.5890 C   0  0  0  0  0  1  0  0  0  0  0  0
  1 13  1  0  0  0  0
  1  2  2  0  0  0  0
  2 18  1  0  0  0  0
  3  6  1  0  0  0  0
  4  1  1  0  0  0  0
  5 12  2  0  0  0  0
  5  8  1  0  0  0  0
  7  4  1  0  0  0  0
  7 14  1  0  0  0  0
  8  7  2  0  0  0  0
  9 10  1  0  0  0  0
 11  2  1  0  0  0  0
 11 17  2  0  0  0  0
 12 16  1  0  0  0  0
 13  3  2  0  0  0  0
 14 13  1  0  0  0  0
 15  9  2  0  0  0  0
 16  4  2  0  0  0  0
 17 15  1  0  0  0  0
 18  6  2  0  0  0  0
 18  9  1  0  0  0  0
 19 17  1  0  0  0  0
 20 19  1  0  0  0  0
 21 22  1  1  0  0  0
 21 23  1  0  0  0  0
 21 20  1  0  0  0  0
 23 25  1  0  0  0  0
 24 23  1  0  0  0  0
M  END
>  <MODEL>
7

>  <REMARK>
 VINA RESULT:      -8.2      2.396      5.180
  Name = 
  4 active torsions:
  status: ('A' for Active; 'I' for Inactive)
    1  A    between atoms: N_2  and  C_21
    2  A    between atoms: S_6  and  C_15
    3  A    between atoms: S_6  and  C_23
    4  A    between atoms: C_15  and  C_21
                            x       y       z     vdW  Elec       q    Type
                         _______ _______ _______ _____ _____    ______ ____

>  <TORSDO>
F 4

$$$$
=
 OpenBabel11052422123D

 25 28  0  0  1  0  0  0  0  0999 V2000
  161.4610  206.5410  149.8800 C   0  0  0  0  0  0  0  0  0  0  0  0
  161.5980  207.8980  150.2260 C   0  0  0  0  0  0  0  0  0  0  0  0
  161.0510  205.9480  152.2120 C   0  0  0  0  0  3  0  0  0  0  0  0
  161.5600  205.9560  148.6060 C   0  0  0  0  0  0  0  0  0  0  0  0
  161.6800  204.4470  146.2590 C   0  0  0  0  0  3  0  0  0  0  0  0
  161.1860  207.2960  152.5650 C   0  0  0  0  0  3  0  0  0  0  0  0
  161.3660  204.5770  148.6320 C   0  0  0  0  0  0  0  0  0  0  0  0
  161.4220  203.8000  147.4770 C   0  0  0  0  0  3  0  0  0  0  0  0
  161.5960  209.6320  151.9110 C   0  0  0  0  0  0  0  0  0  0  0  0
  161.4640  210.1170  153.3160 C   0  0  0  0  0  1  0  0  0  0  0  0
  161.8590  208.8450  149.2880 N   0  0  0  0  0  0  0  0  0  0  0  0
  161.8770  205.8400  146.2170 C   0  0  0  0  0  3  0  0  0  0  0  0
  161.1920  205.5980  150.8720 C   0  0  0  0  0  0  0  0  0  0  0  0
  161.0740  204.0530  150.2070 S   0  0  0  0  0  0  0  0  0  0  0  0
  161.8570  210.5350  150.9300 N   0  0  0  0  0  0  0  0  0  0  0  0
  161.8170  206.6030  147.3930 C   0  0  0  0  0  3  0  0  0  0  0  0
  161.9870  210.1530  149.6320 C   0  0  0  0  0  0  0  0  0  0  0  0
  161.4570  208.2740  151.5850 C   0  0  0  0  0  0  0  0  0  0  0  0
  162.3300  211.3720  148.3740 S   0  0  0  0  0  0  0  0  0  0  0  0
  161.1930  212.5800  149.1330 C   0  0  0  0  0  2  0  0  0  0  0  0
  160.3210  213.2910  148.0920 C   0  0  2  0  0  3  0  0  0  0  0  0
  161.1870  214.2770  147.3090 C   0  0  0  0  0  1  0  0  0  0  0  0
  159.1620  213.9580  148.7040 N   0  0  0  0  0  0  0  0  0  0  0  0
  159.1570  213.6660  150.1300 C   0  0  0  0  0  1  0  0  0  0  0  0
  157.9450  213.3430  148.1890 C   0  0  0  0  0  1  0  0  0  0  0  0
  1  2  2  0  0  0  0
  1 13  1  0  0  0  0
  2 18  1  0  0  0  0
  3  6  1  0  0  0  0
  4  7  1  0  0  0  0
  4  1  1  0  0  0  0
  5  8  1  0  0  0  0
  7 14  1  0  0  0  0
  8  7  2  0  0  0  0
  9 10  1  0  0  0  0
 11 17  2  0  0  0  0
 11  2  1  0  0  0  0
 12  5  2  0  0  0  0
 12 16  1  0  0  0  0
 13  3  2  0  0  0  0
 14 13  1  0  0  0  0
 15  9  2  0  0  0  0
 16  4  2  0  0  0  0
 17 15  1  0  0  0  0
 18  9  1  0  0  0  0
 18  6  2  0  0  0  0
 19 20  1  0  0  0  0
 19 17  1  0  0  0  0
 21 22  1  1  0  0  0
 21 23  1  0  0  0  0
 21 20  1  0  0  0  0
 23 24  1  0  0  0  0
 25 23  1  0  0  0  0
M  END
>  <MODEL>
8

>  <REMARK>
 VINA RESULT:      -8.1      3.207      5.391
  Name = 
  4 active torsions:
  status: ('A' for Active; 'I' for Inactive)
    1  A    between atoms: N_2  and  C_21
    2  A    between atoms: S_6  and  C_15
    3  A    between atoms: S_6  and  C_23
    4  A    between atoms: C_15  and  C_21
                            x       y       z     vdW  Elec       q    Type
                         _______ _______ _______ _____ _____    ______ ____

>  <TORSDO>
F 4

$$$$
=
 OpenBabel11052422123D

 25 28  0  0  1  0  0  0  0  0999 V2000
  160.7000  208.4800  153.2780 C   0  0  0  0  0  0  0  0  0  0  0  0
  161.0070  207.5890  152.2350 C   0  0  0  0  0  0  0  0  0  0  0  0
  160.8590  206.6790  154.9170 C   0  0  0  0  0  3  0  0  0  0  0  0
  160.4340  209.8570  153.1930 C   0  0  0  0  0  0  0  0  0  0  0  0
  159.8610  212.5810  153.4200 C   0  0  0  0  0  3  0  0  0  0  0  0
  161.1670  205.7840  153.8850 C   0  0  0  0  0  3  0  0  0  0  0  0
  160.1660  210.4310  154.4340 C   0  0  0  0  0  0  0  0  0  0  0  0
  159.8770  211.7870  154.5750 C   0  0  0  0  0  3  0  0  0  0  0  0
  161.5510  205.3510  151.4940 C   0  0  0  0  0  0  0  0  0  0  0  0
  161.8140  203.9020  151.7310 C   0  0  0  0  0  1  0  0  0  0  0  0
  161.0830  208.0070  150.9450 N   0  0  0  0  0  0  0  0  0  0  0  0
  160.1310  212.0170  152.1600 C   0  0  0  0  0  3  0  0  0  0  0  0
  160.6310  208.0120  154.5910 C   0  0  0  0  0  0  0  0  0  0  0  0
  160.2480  209.2680  155.6500 S   0  0  0  0  0  0  0  0  0  0  0  0
  161.6130  205.8280  150.2230 N   0  0  0  0  0  0  0  0  0  0  0  0
  160.4190  210.6490  152.0390 C   0  0  0  0  0  3  0  0  0  0  0  0
  161.3840  207.1380  149.9450 C   0  0  0  0  0  0  0  0  0  0  0  0
  161.2440  206.2270  152.5470 C   0  0  0  0  0  0  0  0  0  0  0  0
  161.4760  207.7210  148.2600 S   0  0  0  0  0  0  0  0  0  0  0  0
  160.8290  206.1470  147.6030 C   0  0  0  0  0  2  0  0  0  0  0  0
  161.4740  205.7670  146.2660 C   0  0  2  0  0  3  0  0  0  0  0  0
  160.4740  206.0220  145.1400 C   0  0  0  0  0  1  0  0  0  0  0  0
  161.9520  204.3760  146.2600 N   0  0  0  0  0  0  0  0  0  0  0  0
  161.2020  203.6310  145.2590 C   0  0  0  0  0  1  0  0  0  0  0  0
  161.6020  203.7560  147.5310 C   0  0  0  0  0  1  0  0  0  0  0  0
  1 13  2  0  0  0  0
  2 18  2  0  0  0  0
  2  1  1  0  0  0  0
  4  1  1  0  0  0  0
  4  7  1  0  0  0  0
  5  8  1  0  0  0  0
  6  3  2  0  0  0  0
  7  8  2  0  0  0  0
  7 14  1  0  0  0  0
  9 10  1  0  0  0  0
  9 18  1  0  0  0  0
 11  2  1  0  0  0  0
 12  5  2  0  0  0  0
 13  3  1  0  0  0  0
 13 14  1  0  0  0  0
 15  9  2  0  0  0  0
 16 12  1  0  0  0  0
 16  4  2  0  0  0  0
 17 15  1  0  0  0  0
 17 11  2  0  0  0  0
 18  6  1  0  0  0  0
 19 17  1  0  0  0  0
 20 19  1  0  0  0  0
 21 22  1  6  0  0  0
 21 20  1  0  0  0  0
 23 21  1  0  0  0  0
 23 25  1  0  0  0  0
 24 23  1  0  0  0  0
M  END
>  <MODEL>
9

>  <REMARK>
 VINA RESULT:      -8.0      2.198      8.208
  Name = 
  4 active torsions:
  status: ('A' for Active; 'I' for Inactive)
    1  A    between atoms: N_2  and  C_21
    2  A    between atoms: S_6  and  C_15
    3  A    between atoms: S_6  and  C_23
    4  A    between atoms: C_15  and  C_21
                            x       y       z     vdW  Elec       q    Type
                         _______ _______ _______ _____ _____    ______ ____

>  <TORSDO>
F 4

$$$$
