=
 OpenBabel11062408593D

 55 58  0  0  1  0  0  0  0  0999 V2000
  161.3200  205.2960  154.1830 C   0  0  0  0  0  1  0  0  0  0  0  0
  162.4090  209.3300  150.5150 O   0  0  0  0  0  1  0  0  0  0  0  0
  161.6570  209.1540  152.7890 C   0  0  1  0  0  3  0  0  0  0  0  0
  161.4020  208.1860  153.9550 C   0  0  2  0  0  3  0  0  0  0  0  0
  161.1370  206.1330  151.7950 C   0  0  2  0  0  3  0  0  0  0  0  0
  162.0940  208.4180  151.5220 C   0  0  1  0  0  3  0  0  0  0  0  0
  160.4630  210.0730  152.5330 C   0  0  0  0  0  1  0  0  0  0  0  0
  160.2200  207.4540  153.7170 O   0  0  0  0  0  0  0  0  0  0  0  0
  160.5390  206.1700  153.2120 C   0  0  2  0  0  3  0  0  0  0  0  0
  161.0340  207.4440  151.0240 C   0  0  0  0  0  2  0  0  0  0  0  0
  160.5900  208.2570  156.2320 O   0  0  0  0  0  1  0  0  0  0  0  0
  161.2880  208.9860  155.2650 C   0  0  2  0  0  3  0  0  0  0  0  0
  160.7170  210.4120  155.1350 C   0  0  2  0  0  3  0  0  0  0  0  0
  161.0980  211.7460  157.2610 C   0  0  0  0  0  1  0  0  0  0  0  0
  161.5830  211.4700  155.8450 C   0  0  1  0  0  3  0  0  0  0  0  0
  163.7660  211.2850  157.0330 O   0  0  0  0  0  1  0  0  0  0  0  0
  163.0300  211.0960  155.8700 C   0  0  0  0  0  0  0  0  0  0  0  0
  163.5970  210.6340  154.8430 O   0  0  0  0  0  0  0  0  0  0  0  0
  159.3920  210.4290  155.6310 O   0  0  0  0  0  0  0  0  0  0  0  0
  156.5670  212.0020  154.0170 O   0  0  0  0  0  1  0  0  0  0  0  0
  158.6700  211.5590  155.1490 C   0  0  2  0  0  0  0  0  0  0  0  0
  156.5710  210.6530  155.9960 C   0  0  2  0  0  3  0  0  0  0  0  0
  158.3960  212.5210  156.3340 C   0  0  2  0  0  3  0  0  0  0  0  0
  156.9390  211.9120  157.2580 S   0  0  0  0  0  0  0  0  0  0  0  0
  157.2970  211.0310  154.7120 C   0  0  1  0  0  3  0  0  0  0  0  0
  154.6920  209.6930  154.8830 O   0  0  0  0  0  0  0  0  0  0  0  0
  155.1010  210.4450  155.8050 C   0  0  0  0  0  0  0  0  0  0  0  0
  154.1810  211.1230  156.5970 O   0  0  0  0  0  1  0  0  0  0  0  0
  159.4360  212.1830  153.9450 C   0  0  0  0  0  2  0  0  0  0  0  0
  159.3270  213.5730  153.8670 O   0  0  0  0  0  0  0  0  0  0  0  0
  158.7570  213.8090  152.6160 C   0  0  0  0  0  2  0  0  0  0  0  0
  159.5260  213.0430  151.5610 C   0  0  0  0  0  1  0  0  0  0  0  0
  158.1670  213.9790  155.9460 C   0  0  0  0  0  2  0  0  0  0  0  0
  156.8040  214.4370  156.3550 C   0  0  0  0  0  3  0  0  0  0  0  0
  155.7950  214.4520  155.4880 C   0  0  0  0  0  2  0  0  0  0  0  0
  160.5680  204.9720  150.9820 C   0  0  0  0  0  2  0  0  0  0  0  0
  160.8530  205.0970  149.4740 C   0  0  1  0  0  3  0  0  0  0  0  0
  160.2870  202.6700  149.2750 C   0  0  0  0  0  3  0  0  0  0  0  0
  161.1840  201.2760  147.4950 C   0  0  0  0  0  0  0  0  0  0  0  0
  161.7610  203.6330  147.6160 C   0  0  0  0  0  3  0  0  0  0  0  0
  161.8670  202.3900  146.9870 C   0  0  0  0  0  3  0  0  0  0  0  0
  160.3930  201.4260  148.6470 C   0  0  0  0  0  3  0  0  0  0  0  0
  160.9640  203.7790  148.7600 C   0  0  0  0  0  0  0  0  0  0  0  0
  161.2990  200.0020  146.8420 N   0  0  0  0  0  0  0  0  0  0  0  0
  161.7970  198.9370  147.5140 O   0  0  0  0  0  1  0  0  0  0  0  0
  160.8860  199.8170  145.4590 C   0  0  0  0  0  1  0  0  0  0  0  0
  160.0360  206.0330  148.7980 O   0  0  0  0  0  0  0  0  0  0  0  0
  160.8510  206.9010  148.0510 C   0  0  0  0  0  2  0  0  0  0  0  0
  162.4210  206.3560  146.1840 C   0  0  0  0  0  3  0  0  0  0  0  0
  160.3920  205.1240  144.7510 C   0  0  0  0  0  0  0  0  0  0  0  0
  160.1080  205.6800  146.0010 C   0  0  0  0  0  3  0  0  0  0  0  0
  162.6650  205.7880  144.9320 C   0  0  0  0  0  3  0  0  0  0  0  0
  161.1310  206.3070  146.7160 C   0  0  0  0  0  0  0  0  0  0  0  0
  159.3150  204.4580  143.9740 C   0  0  0  0  0  1  0  0  0  0  0  0
  161.6540  205.1910  144.2460 N   0  0  0  0  0  0  0  0  0  0  0  0
  3  7  1  6  0  0  0
  3  4  1  0  0  0  0
  4 12  1  1  0  0  0
  5 36  1  6  0  0  0
  5  9  1  0  0  0  0
  6  2  1  6  0  0  0
  6  3  1  0  0  0  0
  8  4  1  0  0  0  0
  9  8  1  0  0  0  0
  9  1  1  1  0  0  0
 10  6  1  0  0  0  0
 10  5  1  0  0  0  0
 12 11  1  1  0  0  0
 13 12  1  0  0  0  0
 13 19  1  1  0  0  0
 13 15  1  0  0  0  0
 15 17  1  0  0  0  0
 15 14  1  1  0  0  0
 17 16  1  0  0  0  0
 18 17  2  0  0  0  0
 21 29  1  6  0  0  0
 21 19  1  0  0  0  0
 21 23  1  0  0  0  0
 22 27  1  6  0  0  0
 22 24  1  0  0  0  0
 23 33  1  6  0  0  0
 23 24  1  0  0  0  0
 25 20  1  1  0  0  0
 25 21  1  0  0  0  0
 25 22  1  0  0  0  0
 26 27  2  0  0  0  0
 27 28  1  0  0  0  0
 30 29  1  0  0  0  0
 31 30  1  0  0  0  0
 32 31  1  0  0  0  0
 33 34  1  0  0  0  0
 35 34  2  0  0  0  0
 37 36  1  1  0  0  0
 39 42  1  0  0  0  0
 40 43  2  0  0  0  0
 41 39  2  0  0  0  0
 41 40  1  0  0  0  0
 42 38  2  0  0  0  0
 43 38  1  0  0  0  0
 43 37  1  0  0  0  0
 44 39  1  0  0  0  0
 44 45  1  0  0  0  0
 46 44  1  0  0  0  0
 47 37  1  0  0  0  0
 48 47  1  0  0  0  0
 49 53  1  0  0  0  0
 50 51  1  0  0  0  0
 51 53  2  0  0  0  0
 52 49  2  0  0  0  0
 53 48  1  0  0  0  0
 54 50  1  0  0  0  0
 55 50  2  0  0  0  0
 55 52  1  0  0  0  0
M  END
>  <MODEL>
1

>  <REMARK>
 VINA RESULT:      -3.0      0.000      0.000
  Name = 
  19 active torsions:
  status: ('A' for Active; 'I' for Inactive)
    1  A    between atoms: C_1  and  C_30
    2  A    between atoms: C_2  and  O_28
    3  A    between atoms: C_2  and  C_44
    4  A    between atoms: C_6  and  O_8
    5  A    between atoms: C_6  and  C_46
    6  A    between atoms: C_7  and  O_8
    7  A    between atoms: C_7  and  C_23
    8  A    between atoms: C_7  and  C_43
    9  A    between atoms: N_10  and  C_32
   10  A    between atoms: C_11  and  C_29
   11  A    between atoms: C_12  and  O_14
   12  A    between atoms: O_14  and  C_46
   13  A    between atoms: C_17  and  C_23
   14  A    between atoms: C_19  and  C_49
   15  A    between atoms: C_20  and  C_30
   16  A    between atoms: O_28  and  C_33
   17  A    between atoms: C_33  and  C_49
   18  A    between atoms: C_33  and  C_52
   19  A    between atoms: C_35  and  C_43
                            x       y       z     vdW  Elec       q    Type
                         _______ _______ _______ _____ _____    ______ ____

>  <TORSDO>
F 19

$$$$
=
 OpenBabel11062408593D

 55 58  0  0  1  0  0  0  0  0999 V2000
  161.4020  206.7820  153.3650 C   0  0  0  0  0  1  0  0  0  0  0  0
  162.4980  210.3360  149.2320 O   0  0  0  0  0  1  0  0  0  0  0  0
  162.0710  210.4360  151.5930 C   0  0  1  0  0  3  0  0  0  0  0  0
  161.8550  209.6030  152.8660 C   0  0  2  0  0  3  0  0  0  0  0  0
  160.9900  207.4670  150.9570 C   0  0  2  0  0  3  0  0  0  0  0  0
  162.2090  209.5540  150.3510 C   0  0  1  0  0  3  0  0  0  0  0  0
  160.9930  211.5050  151.4170 C   0  0  0  0  0  1  0  0  0  0  0  0
  160.5610  209.0440  152.8570 O   0  0  0  0  0  0  0  0  0  0  0  0
  160.6170  207.6940  152.4320 C   0  0  2  0  0  3  0  0  0  0  0  0
  160.9620  208.7210  150.0910 C   0  0  0  0  0  2  0  0  0  0  0  0
  163.3830  210.4960  154.5130 O   0  0  0  0  0  1  0  0  0  0  0  0
  162.0480  210.5000  154.1010 C   0  0  2  0  0  3  0  0  0  0  0  0
  161.1070  210.2200  155.2900 C   0  0  2  0  0  3  0  0  0  0  0  0
  162.4140  208.9130  157.0290 C   0  0  0  0  0  1  0  0  0  0  0  0
  161.3560  208.8440  155.9380 C   0  0  1  0  0  3  0  0  0  0  0  0
  159.8620  206.8830  156.3020 O   0  0  0  0  0  0  0  0  0  0  0  0
  160.1040  208.2380  156.4860 C   0  0  0  0  0  0  0  0  0  0  0  0
  159.2540  208.9460  157.0910 O   0  0  0  0  0  1  0  0  0  0  0  0
  159.7650  210.3380  154.8580 O   0  0  0  0  0  0  0  0  0  0  0  0
  158.8080  213.8210  154.7400 O   0  0  0  0  0  1  0  0  0  0  0  0
  159.1470  211.5050  155.3920 C   0  0  2  0  0  0  0  0  0  0  0  0
  158.2050  212.0740  153.2170 C   0  0  2  0  0  3  0  0  0  0  0  0
  157.6460  211.2090  155.6400 C   0  0  2  0  0  3  0  0  0  0  0  0
  156.7440  211.3870  154.0570 S   0  0  0  0  0  0  0  0  0  0  0  0
  159.1870  212.5560  154.2750 C   0  0  1  0  0  3  0  0  0  0  0  0
  158.6890  213.4790  151.3520 O   0  0  0  0  0  0  0  0  0  0  0  0
  157.8460  213.1290  152.2170 C   0  0  0  0  0  0  0  0  0  0  0  0
  156.6130  213.7700  152.2730 O   0  0  0  0  0  1  0  0  0  0  0  0
  159.9480  211.9850  156.6380 C   0  0  0  0  0  2  0  0  0  0  0  0
  161.1730  212.5800  156.3270 O   0  0  0  0  0  0  0  0  0  0  0  0
  161.3040  213.6150  157.2520 C   0  0  0  0  0  2  0  0  0  0  0  0
  160.0400  214.4480  157.2580 C   0  0  0  0  0  1  0  0  0  0  0  0
  156.9770  212.0840  156.6960 C   0  0  0  0  0  2  0  0  0  0  0  0
  155.8810  212.9060  156.0980 C   0  0  0  0  0  3  0  0  0  0  0  0
  154.8130  213.2550  156.8120 C   0  0  0  0  0  2  0  0  0  0  0  0
  160.1510  206.3510  150.3370 C   0  0  0  0  0  2  0  0  0  0  0  0
  161.0010  205.1760  149.8200 C   0  0  1  0  0  3  0  0  0  0  0  0
  160.7760  206.2920  147.5950 C   0  0  0  0  0  3  0  0  0  0  0  0
  161.7260  205.3380  145.5690 C   0  0  0  0  0  0  0  0  0  0  0  0
  162.0000  204.2090  147.7030 C   0  0  0  0  0  3  0  0  0  0  0  0
  162.2230  204.2670  146.3240 C   0  0  0  0  0  3  0  0  0  0  0  0
  160.9980  206.3510  146.2160 C   0  0  0  0  0  3  0  0  0  0  0  0
  161.2800  205.2260  148.3440 C   0  0  0  0  0  0  0  0  0  0  0  0
  161.9610  205.3900  144.1530 N   0  0  0  0  0  0  0  0  0  0  0  0
  162.8890  204.5810  143.5880 O   0  0  0  0  0  1  0  0  0  0  0  0
  161.2160  206.2970  143.2910 C   0  0  0  0  0  1  0  0  0  0  0  0
  162.1470  204.8940  150.5990 O   0  0  0  0  0  0  0  0  0  0  0  0
  161.8590  203.8300  151.4730 C   0  0  0  0  0  2  0  0  0  0  0  0
  159.8670  202.3710  151.0890 C   0  0  0  0  0  3  0  0  0  0  0  0
  161.1350  201.0860  148.9840 C   0  0  0  0  0  0  0  0  0  0  0  0
  161.8040  202.1020  149.6690 C   0  0  0  0  0  3  0  0  0  0  0  0
  159.2310  201.3500  150.3780 C   0  0  0  0  0  3  0  0  0  0  0  0
  161.1660  202.7420  150.7340 C   0  0  0  0  0  0  0  0  0  0  0  0
  161.8010  200.3910  147.8520 C   0  0  0  0  0  1  0  0  0  0  0  0
  159.8730  200.7320  149.3520 N   0  0  0  0  0  0  0  0  0  0  0  0
  3  7  1  6  0  0  0
  3  4  1  0  0  0  0
  4 12  1  1  0  0  0
  5 36  1  6  0  0  0
  5  9  1  0  0  0  0
  6  2  1  6  0  0  0
  6  3  1  0  0  0  0
  8  4  1  0  0  0  0
  9  8  1  0  0  0  0
  9  1  1  1  0  0  0
 10  6  1  0  0  0  0
 10  5  1  0  0  0  0
 12 11  1  1  0  0  0
 12 13  1  0  0  0  0
 13 19  1  6  0  0  0
 13 15  1  0  0  0  0
 15 17  1  0  0  0  0
 15 14  1  1  0  0  0
 16 17  2  0  0  0  0
 17 18  1  0  0  0  0
 19 21  1  0  0  0  0
 21 23  1  0  0  0  0
 21 29  1  1  0  0  0
 22 27  1  6  0  0  0
 22 24  1  0  0  0  0
 22 25  1  0  0  0  0
 23 33  1  1  0  0  0
 24 23  1  0  0  0  0
 25 20  1  1  0  0  0
 25 21  1  0  0  0  0
 26 27  2  0  0  0  0
 27 28  1  0  0  0  0
 30 29  1  0  0  0  0
 30 31  1  0  0  0  0
 31 32  1  0  0  0  0
 34 33  1  0  0  0  0
 34 35  2  0  0  0  0
 37 36  1  1  0  0  0
 37 47  1  0  0  0  0
 38 43  1  0  0  0  0
 39 42  1  0  0  0  0
 39 41  2  0  0  0  0
 40 43  2  0  0  0  0
 41 40  1  0  0  0  0
 42 38  2  0  0  0  0
 43 37  1  0  0  0  0
 44 39  1  0  0  0  0
 45 44  1  0  0  0  0
 46 44  1  0  0  0  0
 47 48  1  0  0  0  0
 50 55  2  0  0  0  0
 50 51  1  0  0  0  0
 51 53  2  0  0  0  0
 52 49  2  0  0  0  0
 53 49  1  0  0  0  0
 53 48  1  0  0  0  0
 54 50  1  0  0  0  0
 55 52  1  0  0  0  0
M  END
>  <MODEL>
2

>  <REMARK>
 VINA RESULT:      -2.9      2.094      4.068
  Name = 
  19 active torsions:
  status: ('A' for Active; 'I' for Inactive)
    1  A    between atoms: C_1  and  C_30
    2  A    between atoms: C_2  and  O_28
    3  A    between atoms: C_2  and  C_44
    4  A    between atoms: C_6  and  O_8
    5  A    between atoms: C_6  and  C_46
    6  A    between atoms: C_7  and  O_8
    7  A    between atoms: C_7  and  C_23
    8  A    between atoms: C_7  and  C_43
    9  A    between atoms: N_10  and  C_32
   10  A    between atoms: C_11  and  C_29
   11  A    between atoms: C_12  and  O_14
   12  A    between atoms: O_14  and  C_46
   13  A    between atoms: C_17  and  C_23
   14  A    between atoms: C_19  and  C_49
   15  A    between atoms: C_20  and  C_30
   16  A    between atoms: O_28  and  C_33
   17  A    between atoms: C_33  and  C_49
   18  A    between atoms: C_33  and  C_52
   19  A    between atoms: C_35  and  C_43
                            x       y       z     vdW  Elec       q    Type
                         _______ _______ _______ _____ _____    ______ ____

>  <TORSDO>
F 19

$$$$
=
 OpenBabel11062408593D

 55 58  0  0  1  0  0  0  0  0999 V2000
  161.1090  210.8730  148.3660 C   0  0  0  0  0  1  0  0  0  0  0  0
  160.5250  207.6260  152.8420 O   0  0  0  0  0  1  0  0  0  0  0  0
  160.8180  209.9630  152.3700 C   0  0  1  0  0  3  0  0  0  0  0  0
  160.8950  211.0180  151.2550 C   0  0  2  0  0  3  0  0  0  0  0  0
  161.7130  208.7070  149.5400 C   0  0  2  0  0  3  0  0  0  0  0  0
  160.6880  208.5470  151.8060 C   0  0  1  0  0  3  0  0  0  0  0  0
  161.9800  210.0820  153.3550 C   0  0  0  0  0  1  0  0  0  0  0  0
  162.1430  210.9340  150.6040 O   0  0  0  0  0  0  0  0  0  0  0  0
  162.0130  210.2080  149.3960 C   0  0  2  0  0  3  0  0  0  0  0  0
  161.8850  208.1530  150.9500 C   0  0  0  0  0  2  0  0  0  0  0  0
  161.0630  212.4290  153.2110 O   0  0  0  0  0  1  0  0  0  0  0  0
  160.6950  212.4170  151.8640 C   0  0  2  0  0  3  0  0  0  0  0  0
  159.2980  213.0410  151.6700 C   0  0  2  0  0  3  0  0  0  0  0  0
  160.5800  214.3330  149.9010 C   0  0  0  0  0  1  0  0  0  0  0  0
  159.2060  213.9210  150.4090 C   0  0  1  0  0  3  0  0  0  0  0  0
  159.0930  212.8920  148.1420 O   0  0  0  0  0  0  0  0  0  0  0  0
  158.4380  213.2620  149.3090 C   0  0  0  0  0  0  0  0  0  0  0  0
  157.1980  213.0590  149.4190 O   0  0  0  0  0  1  0  0  0  0  0  0
  158.9550  213.7790  152.8270 O   0  0  0  0  0  0  0  0  0  0  0  0
  157.0450  211.1320  154.3770 O   0  0  0  0  0  1  0  0  0  0  0  0
  157.7890  213.2530  153.4540 C   0  0  2  0  0  0  0  0  0  0  0  0
  159.1400  212.0490  155.0880 C   0  0  2  0  0  3  0  0  0  0  0  0
  157.4940  214.0740  154.7350 C   0  0  2  0  0  3  0  0  0  0  0  0
  158.5670  213.4590  156.0850 S   0  0  0  0  0  0  0  0  0  0  0  0
  158.1660  211.8450  153.9360 C   0  0  1  0  0  3  0  0  0  0  0  0
  159.8770  210.9070  157.0470 O   0  0  0  0  0  1  0  0  0  0  0  0
  159.3510  210.8150  155.9090 C   0  0  0  0  0  0  0  0  0  0  0  0
  159.0280  209.5610  155.4010 O   0  0  0  0  0  0  0  0  0  0  0  0
  156.6300  213.1950  152.4150 C   0  0  0  0  0  2  0  0  0  0  0  0
  156.1930  214.4510  151.9870 O   0  0  0  0  0  0  0  0  0  0  0  0
  154.8020  214.3540  151.9840 C   0  0  0  0  0  2  0  0  0  0  0  0
  154.3250  214.0110  150.5890 C   0  0  0  0  0  1  0  0  0  0  0  0
  156.0410  214.0490  155.2020 C   0  0  0  0  0  2  0  0  0  0  0  0
  155.8150  212.9570  156.1970 C   0  0  0  0  0  3  0  0  0  0  0  0
  154.7650  212.9770  157.0150 C   0  0  0  0  0  2  0  0  0  0  0  0
  162.5030  207.8820  148.5260 C   0  0  0  0  0  2  0  0  0  0  0  0
  161.6740  206.7460  147.8980 C   0  0  1  0  0  3  0  0  0  0  0  0
  161.3050  204.3000  148.2560 C   0  0  0  0  0  3  0  0  0  0  0  0
  160.9750  203.3540  150.4730 C   0  0  0  0  0  0  0  0  0  0  0  0
  161.3470  205.7400  150.1990 C   0  0  0  0  0  3  0  0  0  0  0  0
  161.1120  204.6360  151.0240 C   0  0  0  0  0  3  0  0  0  0  0  0
  161.0710  203.1950  149.0800 C   0  0  0  0  0  3  0  0  0  0  0  0
  161.4500  205.5740  148.8110 C   0  0  0  0  0  0  0  0  0  0  0  0
  160.7340  202.2250  151.3280 N   0  0  0  0  0  0  0  0  0  0  0  0
  160.6540  202.3950  152.6690 O   0  0  0  0  0  1  0  0  0  0  0  0
  160.5680  200.8840  150.7880 C   0  0  0  0  0  1  0  0  0  0  0  0
  160.4990  207.1740  147.2360 O   0  0  0  0  0  0  0  0  0  0  0  0
  160.6600  206.9950  145.8510 C   0  0  0  0  0  2  0  0  0  0  0  0
  162.6080  205.4650  145.5220 C   0  0  0  0  0  3  0  0  0  0  0  0
  160.9220  203.2960  145.1440 C   0  0  0  0  0  0  0  0  0  0  0  0
  160.3730  204.5550  145.3950 C   0  0  0  0  0  3  0  0  0  0  0  0
  163.1190  204.1890  145.2690 C   0  0  0  0  0  3  0  0  0  0  0  0
  161.2250  205.6470  145.5770 C   0  0  0  0  0  0  0  0  0  0  0  0
  160.0310  202.1250  144.9430 C   0  0  0  0  0  1  0  0  0  0  0  0
  162.2730  203.1410  145.0840 N   0  0  0  0  0  0  0  0  0  0  0  0
  3  7  1  6  0  0  0
  4 12  1  1  0  0  0
  4  3  1  0  0  0  0
  5 36  1  6  0  0  0
  5 10  1  0  0  0  0
  6  3  1  0  0  0  0
  6  2  1  1  0  0  0
  8  4  1  0  0  0  0
  9  1  1  6  0  0  0
  9  5  1  0  0  0  0
  9  8  1  0  0  0  0
 10  6  1  0  0  0  0
 12 11  1  1  0  0  0
 13 12  1  0  0  0  0
 13 19  1  1  0  0  0
 15 14  1  6  0  0  0
 15 13  1  0  0  0  0
 16 17  2  0  0  0  0
 17 18  1  0  0  0  0
 17 15  1  0  0  0  0
 19 21  1  0  0  0  0
 21 29  1  6  0  0  0
 21 25  1  0  0  0  0
 21 23  1  0  0  0  0
 22 27  1  1  0  0  0
 22 24  1  0  0  0  0
 23 33  1  1  0  0  0
 23 24  1  0  0  0  0
 25 20  1  1  0  0  0
 25 22  1  0  0  0  0
 27 26  1  0  0  0  0
 28 27  2  0  0  0  0
 30 29  1  0  0  0  0
 31 30  1  0  0  0  0
 32 31  1  0  0  0  0
 33 34  1  0  0  0  0
 34 35  2  0  0  0  0
 37 36  1  1  0  0  0
 37 43  1  0  0  0  0
 38 43  2  0  0  0  0
 38 42  1  0  0  0  0
 39 41  1  0  0  0  0
 39 44  1  0  0  0  0
 40 41  2  0  0  0  0
 42 39  2  0  0  0  0
 43 40  1  0  0  0  0
 44 45  1  0  0  0  0
 46 44  1  0  0  0  0
 47 37  1  0  0  0  0
 48 47  1  0  0  0  0
 49 53  1  0  0  0  0
 50 51  1  0  0  0  0
 51 53  2  0  0  0  0
 52 49  2  0  0  0  0
 53 48  1  0  0  0  0
 54 50  1  0  0  0  0
 55 50  2  0  0  0  0
 55 52  1  0  0  0  0
M  END
>  <MODEL>
3

>  <REMARK>
 VINA RESULT:      -2.9      2.279      4.299
  Name = 
  19 active torsions:
  status: ('A' for Active; 'I' for Inactive)
    1  A    between atoms: C_1  and  C_30
    2  A    between atoms: C_2  and  O_28
    3  A    between atoms: C_2  and  C_44
    4  A    between atoms: C_6  and  O_8
    5  A    between atoms: C_6  and  C_46
    6  A    between atoms: C_7  and  O_8
    7  A    between atoms: C_7  and  C_23
    8  A    between atoms: C_7  and  C_43
    9  A    between atoms: N_10  and  C_32
   10  A    between atoms: C_11  and  C_29
   11  A    between atoms: C_12  and  O_14
   12  A    between atoms: O_14  and  C_46
   13  A    between atoms: C_17  and  C_23
   14  A    between atoms: C_19  and  C_49
   15  A    between atoms: C_20  and  C_30
   16  A    between atoms: O_28  and  C_33
   17  A    between atoms: C_33  and  C_49
   18  A    between atoms: C_33  and  C_52
   19  A    between atoms: C_35  and  C_43
                            x       y       z     vdW  Elec       q    Type
                         _______ _______ _______ _____ _____    ______ ____

>  <TORSDO>
F 19

$$$$
=
 OpenBabel11062408593D

 55 58  0  0  1  0  0  0  0  0999 V2000
  162.1420  210.3970  152.3100 C   0  0  0  0  0  1  0  0  0  0  0  0
  162.6590  212.1710  147.0660 O   0  0  0  0  0  1  0  0  0  0  0  0
  161.2050  212.5620  148.9370 C   0  0  1  0  0  3  0  0  0  0  0  0
  160.9660  212.2620  150.4250 C   0  0  2  0  0  3  0  0  0  0  0  0
  162.6050  209.8180  149.8840 C   0  0  2  0  0  3  0  0  0  0  0  0
  162.4150  211.8030  148.3890 C   0  0  1  0  0  3  0  0  0  0  0  0
  159.9520  212.3230  148.0950 C   0  0  0  0  0  1  0  0  0  0  0  0
  160.4780  210.9480  150.5750 O   0  0  0  0  0  0  0  0  0  0  0  0
  161.5300  210.0790  150.9530 C   0  0  2  0  0  3  0  0  0  0  0  0
  162.2410  210.2930  148.4820 C   0  0  0  0  0  2  0  0  0  0  0  0
  160.6200  214.4350  151.4290 O   0  0  0  0  0  1  0  0  0  0  0  0
  159.9630  213.2800  150.9950 C   0  0  2  0  0  3  0  0  0  0  0  0
  159.0110  212.7480  152.0860 C   0  0  2  0  0  3  0  0  0  0  0  0
  157.2530  214.4100  152.8530 C   0  0  0  0  0  1  0  0  0  0  0  0
  157.5660  213.2530  151.9160 C   0  0  1  0  0  3  0  0  0  0  0  0
  156.1300  213.1450  149.8810 O   0  0  0  0  0  1  0  0  0  0  0  0
  157.2630  213.6490  150.5060 C   0  0  0  0  0  0  0  0  0  0  0  0
  158.0360  214.4160  149.8710 O   0  0  0  0  0  0  0  0  0  0  0  0
  159.5220  213.0960  153.3590 O   0  0  0  0  0  0  0  0  0  0  0  0
  159.1260  210.3470  155.6700 O   0  0  0  0  0  1  0  0  0  0  0  0
  158.8440  212.3990  154.4000 C   0  0  2  0  0  0  0  0  0  0  0  0
  160.9550  211.8850  155.5080 C   0  0  2  0  0  3  0  0  0  0  0  0
  158.7520  213.3210  155.6430 C   0  0  2  0  0  3  0  0  0  0  0  0
  160.3410  213.2470  156.5480 S   0  0  0  0  0  0  0  0  0  0  0  0
  159.7670  211.2420  154.8050 C   0  0  1  0  0  3  0  0  0  0  0  0
  161.2550  209.8720  156.7500 O   0  0  0  0  0  1  0  0  0  0  0  0
  161.7880  210.9070  156.2770 C   0  0  0  0  0  0  0  0  0  0  0  0
  163.1320  211.1640  156.5260 O   0  0  0  0  0  0  0  0  0  0  0  0
  157.4840  211.8660  153.8610 C   0  0  0  0  0  2  0  0  0  0  0  0
  157.0170  210.7330  154.5310 O   0  0  0  0  0  0  0  0  0  0  0  0
  155.6290  210.8640  154.5130 C   0  0  0  0  0  2  0  0  0  0  0  0
  155.0590  210.3620  155.8220 C   0  0  0  0  0  1  0  0  0  0  0  0
  157.6130  212.9990  156.6060 C   0  0  0  0  0  2  0  0  0  0  0  0
  156.6610  214.1460  156.7160 C   0  0  0  0  0  3  0  0  0  0  0  0
  155.3460  213.9600  156.6280 C   0  0  0  0  0  2  0  0  0  0  0  0
  163.0350  208.3520  149.8740 C   0  0  0  0  0  2  0  0  0  0  0  0
  161.8740  207.3840  150.1660 C   0  0  1  0  0  3  0  0  0  0  0  0
  160.5310  208.0410  152.1690 C   0  0  0  0  0  3  0  0  0  0  0  0
  160.9240  207.0700  154.3640 C   0  0  0  0  0  0  0  0  0  0  0  0
  162.2550  206.3690  152.4560 C   0  0  0  0  0  3  0  0  0  0  0  0
  161.9450  206.2810  153.8160 C   0  0  0  0  0  3  0  0  0  0  0  0
  160.2200  207.9530  153.5290 C   0  0  0  0  0  3  0  0  0  0  0  0
  161.5440  207.2470  151.6260 C   0  0  0  0  0  0  0  0  0  0  0  0
  160.6110  206.9720  155.7620 N   0  0  0  0  0  0  0  0  0  0  0  0
  161.5960  207.0710  156.6870 O   0  0  0  0  0  1  0  0  0  0  0  0
  159.2460  206.7700  156.2240 C   0  0  0  0  0  1  0  0  0  0  0  0
  160.7350  207.5690  149.3480 O   0  0  0  0  0  0  0  0  0  0  0  0
  160.1890  206.3130  149.0270 C   0  0  0  0  0  2  0  0  0  0  0  0
  161.8000  206.5020  147.1250 C   0  0  0  0  0  3  0  0  0  0  0  0
  161.5020  203.8120  146.5210 C   0  0  0  0  0  0  0  0  0  0  0  0
  160.7890  204.3570  147.5920 C   0  0  0  0  0  3  0  0  0  0  0  0
  162.4960  205.9200  146.0630 C   0  0  0  0  0  3  0  0  0  0  0  0
  160.9360  205.7150  147.8880 C   0  0  0  0  0  0  0  0  0  0  0  0
  161.3530  202.3720  146.1890 C   0  0  0  0  0  1  0  0  0  0  0  0
  162.3310  204.5990  145.7840 N   0  0  0  0  0  0  0  0  0  0  0  0
  3  7  1  6  0  0  0
  3  4  1  0  0  0  0
  4  8  1  0  0  0  0
  4 12  1  6  0  0  0
  5 36  1  6  0  0  0
  5  9  1  0  0  0  0
  6  2  1  6  0  0  0
  6 10  1  0  0  0  0
  6  3  1  0  0  0  0
  8  9  1  0  0  0  0
  9  1  1  1  0  0  0
 10  5  1  0  0  0  0
 12 11  1  1  0  0  0
 12 13  1  0  0  0  0
 13 19  1  1  0  0  0
 15 13  1  0  0  0  0
 15 14  1  1  0  0  0
 16 17  1  0  0  0  0
 17 15  1  0  0  0  0
 18 17  2  0  0  0  0
 19 21  1  0  0  0  0
 21 29  1  6  0  0  0
 21 25  1  0  0  0  0
 21 23  1  0  0  0  0
 22 27  1  1  0  0  0
 22 24  1  0  0  0  0
 23 24  1  0  0  0  0
 23 33  1  1  0  0  0
 25 22  1  0  0  0  0
 25 20  1  1  0  0  0
 27 28  2  0  0  0  0
 27 26  1  0  0  0  0
 29 30  1  0  0  0  0
 31 30  1  0  0  0  0
 31 32  1  0  0  0  0
 33 34  1  0  0  0  0
 35 34  2  0  0  0  0
 37 36  1  1  0  0  0
 37 43  1  0  0  0  0
 38 42  1  0  0  0  0
 39 44  1  0  0  0  0
 40 41  2  0  0  0  0
 41 39  1  0  0  0  0
 42 39  2  0  0  0  0
 43 38  2  0  0  0  0
 43 40  1  0  0  0  0
 44 46  1  0  0  0  0
 44 45  1  0  0  0  0
 47 37  1  0  0  0  0
 48 47  1  0  0  0  0
 49 53  1  0  0  0  0
 50 51  1  0  0  0  0
 51 53  2  0  0  0  0
 52 49  2  0  0  0  0
 53 48  1  0  0  0  0
 54 50  1  0  0  0  0
 55 52  1  0  0  0  0
 55 50  2  0  0  0  0
M  END
>  <MODEL>
4

>  <REMARK>
 VINA RESULT:      -2.3      2.539      5.738
  Name = 
  19 active torsions:
  status: ('A' for Active; 'I' for Inactive)
    1  A    between atoms: C_1  and  C_30
    2  A    between atoms: C_2  and  O_28
    3  A    between atoms: C_2  and  C_44
    4  A    between atoms: C_6  and  O_8
    5  A    between atoms: C_6  and  C_46
    6  A    between atoms: C_7  and  O_8
    7  A    between atoms: C_7  and  C_23
    8  A    between atoms: C_7  and  C_43
    9  A    between atoms: N_10  and  C_32
   10  A    between atoms: C_11  and  C_29
   11  A    between atoms: C_12  and  O_14
   12  A    between atoms: O_14  and  C_46
   13  A    between atoms: C_17  and  C_23
   14  A    between atoms: C_19  and  C_49
   15  A    between atoms: C_20  and  C_30
   16  A    between atoms: O_28  and  C_33
   17  A    between atoms: C_33  and  C_49
   18  A    between atoms: C_33  and  C_52
   19  A    between atoms: C_35  and  C_43
                            x       y       z     vdW  Elec       q    Type
                         _______ _______ _______ _____ _____    ______ ____

>  <TORSDO>
F 19

$$$$
=
 OpenBabel11062408593D

 55 58  0  0  1  0  0  0  0  0999 V2000
  161.9140  206.1540  154.2460 C   0  0  0  0  0  1  0  0  0  0  0  0
  161.8610  210.9650  151.4580 O   0  0  0  0  0  1  0  0  0  0  0  0
  160.7800  210.0160  153.3820 C   0  0  1  0  0  3  0  0  0  0  0  0
  160.7340  208.8030  154.3240 C   0  0  2  0  0  3  0  0  0  0  0  0
  161.9140  207.3340  152.0000 C   0  0  2  0  0  3  0  0  0  0  0  0
  161.7740  209.8110  152.2370 C   0  0  1  0  0  3  0  0  0  0  0  0
  159.3920  210.4000  152.8700 C   0  0  0  0  0  1  0  0  0  0  0  0
  160.0960  207.7220  153.6800 O   0  0  0  0  0  0  0  0  0  0  0  0
  161.0620  206.8200  153.1730 C   0  0  2  0  0  3  0  0  0  0  0  0
  161.4080  208.6210  151.3590 C   0  0  0  0  0  2  0  0  0  0  0  0
  158.6010  209.0560  155.4360 O   0  0  0  0  0  1  0  0  0  0  0  0
  159.9810  209.1860  155.6110 C   0  0  2  0  0  3  0  0  0  0  0  0
  160.3310  210.5640  156.2090 C   0  0  2  0  0  3  0  0  0  0  0  0
  162.3940  209.2480  156.8820 C   0  0  0  0  0  1  0  0  0  0  0  0
  161.6040  210.5340  157.0760 C   0  0  1  0  0  3  0  0  0  0  0  0
  163.8630  211.5290  156.7300 O   0  0  0  0  0  1  0  0  0  0  0  0
  162.4900  211.7120  156.8270 C   0  0  0  0  0  0  0  0  0  0  0  0
  162.0080  212.8730  156.7300 O   0  0  0  0  0  0  0  0  0  0  0  0
  159.2260  211.0420  156.9510 O   0  0  0  0  0  0  0  0  0  0  0  0
  157.2080  212.4030  154.2800 O   0  0  0  0  0  1  0  0  0  0  0  0
  158.5650  212.1070  156.2740 C   0  0  2  0  0  0  0  0  0  0  0  0
  156.6090  210.7090  155.8640 C   0  0  2  0  0  3  0  0  0  0  0  0
  157.5380  212.7540  157.2380 C   0  0  2  0  0  3  0  0  0  0  0  0
  156.0170  211.7370  157.2440 S   0  0  0  0  0  0  0  0  0  0  0  0
  157.7370  211.4510  155.1600 C   0  0  1  0  0  3  0  0  0  0  0  0
  155.3230  209.0790  154.6900 O   0  0  0  0  0  1  0  0  0  0  0  0
  155.5050  210.2980  154.9400 C   0  0  0  0  0  0  0  0  0  0  0  0
  154.7160  211.2540  154.3090 O   0  0  0  0  0  0  0  0  0  0  0  0
  159.6290  213.0770  155.6800 C   0  0  0  0  0  2  0  0  0  0  0  0
  159.8700  212.8840  154.3180 O   0  0  0  0  0  0  0  0  0  0  0  0
  159.1890  213.9280  153.6920 C   0  0  0  0  0  2  0  0  0  0  0  0
  159.6980  214.0840  152.2750 C   0  0  0  0  0  1  0  0  0  0  0  0
  157.1700  214.2000  156.9190 C   0  0  0  0  0  2  0  0  0  0  0  0
  155.6880  214.3960  156.9440 C   0  0  0  0  0  3  0  0  0  0  0  0
  154.9590  214.2760  155.8370 C   0  0  0  0  0  2  0  0  0  0  0  0
  162.1280  206.2450  150.9500 C   0  0  0  0  0  2  0  0  0  0  0  0
  160.9260  206.0780  150.0030 C   0  0  1  0  0  3  0  0  0  0  0  0
  160.5460  206.4410  147.5590 C   0  0  0  0  0  3  0  0  0  0  0  0
  161.9400  205.3910  145.8640 C   0  0  0  0  0  0  0  0  0  0  0  0
  162.3790  205.0090  148.2240 C   0  0  0  0  0  3  0  0  0  0  0  0
  162.6940  204.7870  146.8800 C   0  0  0  0  0  3  0  0  0  0  0  0
  160.8610  206.2190  146.2150 C   0  0  0  0  0  3  0  0  0  0  0  0
  161.3060  205.8430  148.5670 C   0  0  0  0  0  0  0  0  0  0  0  0
  162.2720  205.1570  144.4870 N   0  0  0  0  0  0  0  0  0  0  0  0
  163.3850  204.4550  144.1650 O   0  0  0  0  0  1  0  0  0  0  0  0
  161.4330  205.6560  143.4070 C   0  0  0  0  0  1  0  0  0  0  0  0
  159.9280  205.1920  150.4710 O   0  0  0  0  0  0  0  0  0  0  0  0
  160.5430  204.1240  151.1500 C   0  0  0  0  0  2  0  0  0  0  0  0
  160.1190  201.6790  150.8530 C   0  0  0  0  0  3  0  0  0  0  0  0
  160.8090  201.8200  148.1710 C   0  0  0  0  0  0  0  0  0  0  0  0
  160.8510  202.9780  148.9510 C   0  0  0  0  0  3  0  0  0  0  0  0
  160.0890  200.5440  150.0400 C   0  0  0  0  0  3  0  0  0  0  0  0
  160.5100  202.9020  150.3030 C   0  0  0  0  0  0  0  0  0  0  0  0
  161.1740  201.8810  146.7320 C   0  0  0  0  0  1  0  0  0  0  0  0
  160.4350  200.6360  148.7280 N   0  0  0  0  0  0  0  0  0  0  0  0
  3  7  1  6  0  0  0
  3  4  1  0  0  0  0
  4 12  1  1  0  0  0
  5 36  1  6  0  0  0
  5  9  1  0  0  0  0
  6  2  1  6  0  0  0
  6  3  1  0  0  0  0
  8  4  1  0  0  0  0
  9  8  1  0  0  0  0
  9  1  1  1  0  0  0
 10  5  1  0  0  0  0
 10  6  1  0  0  0  0
 12 11  1  6  0  0  0
 12 13  1  0  0  0  0
 13 19  1  1  0  0  0
 13 15  1  0  0  0  0
 15 14  1  6  0  0  0
 16 17  1  0  0  0  0
 17 15  1  0  0  0  0
 18 17  2  0  0  0  0
 21 29  1  6  0  0  0
 21 19  1  0  0  0  0
 21 23  1  0  0  0  0
 22 27  1  6  0  0  0
 22 24  1  0  0  0  0
 23 33  1  6  0  0  0
 23 24  1  0  0  0  0
 25 20  1  6  0  0  0
 25 22  1  0  0  0  0
 25 21  1  0  0  0  0
 26 27  1  0  0  0  0
 28 27  2  0  0  0  0
 30 29  1  0  0  0  0
 31 30  1  0  0  0  0
 32 31  1  0  0  0  0
 33 34  1  0  0  0  0
 35 34  2  0  0  0  0
 37 47  1  0  0  0  0
 37 36  1  1  0  0  0
 38 43  1  0  0  0  0
 39 42  1  0  0  0  0
 39 41  2  0  0  0  0
 40 43  2  0  0  0  0
 41 40  1  0  0  0  0
 42 38  2  0  0  0  0
 43 37  1  0  0  0  0
 44 39  1  0  0  0  0
 45 44  1  0  0  0  0
 46 44  1  0  0  0  0
 47 48  1  0  0  0  0
 50 55  2  0  0  0  0
 50 51  1  0  0  0  0
 51 53  2  0  0  0  0
 52 49  2  0  0  0  0
 53 49  1  0  0  0  0
 53 48  1  0  0  0  0
 54 50  1  0  0  0  0
 55 52  1  0  0  0  0
M  END
>  <MODEL>
5

>  <REMARK>
 VINA RESULT:      -1.2      1.558      3.105
  Name = 
  19 active torsions:
  status: ('A' for Active; 'I' for Inactive)
    1  A    between atoms: C_1  and  C_30
    2  A    between atoms: C_2  and  O_28
    3  A    between atoms: C_2  and  C_44
    4  A    between atoms: C_6  and  O_8
    5  A    between atoms: C_6  and  C_46
    6  A    between atoms: C_7  and  O_8
    7  A    between atoms: C_7  and  C_23
    8  A    between atoms: C_7  and  C_43
    9  A    between atoms: N_10  and  C_32
   10  A    between atoms: C_11  and  C_29
   11  A    between atoms: C_12  and  O_14
   12  A    between atoms: O_14  and  C_46
   13  A    between atoms: C_17  and  C_23
   14  A    between atoms: C_19  and  C_49
   15  A    between atoms: C_20  and  C_30
   16  A    between atoms: O_28  and  C_33
   17  A    between atoms: C_33  and  C_49
   18  A    between atoms: C_33  and  C_52
   19  A    between atoms: C_35  and  C_43
                            x       y       z     vdW  Elec       q    Type
                         _______ _______ _______ _____ _____    ______ ____

>  <TORSDO>
F 19

$$$$
