=
 OpenBabel11062409513D

 34 39  0  0  1  0  0  0  0  0999 V2000
  162.1770  208.3070  151.5630 N   0  0  0  0  0  0  0  0  0  0  0  0
  161.6380  206.3160  150.1230 C   0  0  0  0  0  0  0  0  0  0  0  0
  162.4280  205.6150  152.4620 C   0  0  0  0  0  2  0  0  0  0  0  0
  162.9140  209.4450  151.5920 O   0  0  0  0  0  1  0  0  0  0  0  0
  160.6700  208.8180  153.4670 C   0  0  0  0  0  0  0  0  0  0  0  0
  160.1490  207.0890  155.0870 C   0  0  0  0  0  3  0  0  0  0  0  0
  160.0100  208.4000  154.6270 C   0  0  0  0  0  3  0  0  0  0  0  0
  161.6060  206.5900  153.2210 C   0  0  0  0  0  0  0  0  0  0  0  0
  161.4860  207.9070  152.7570 C   0  0  0  0  0  0  0  0  0  0  0  0
  160.9420  206.1840  154.3810 C   0  0  0  0  0  3  0  0  0  0  0  0
  161.2670  205.8300  148.8640 C   0  0  0  0  0  3  0  0  0  0  0  0
  161.1490  206.6880  147.7700 C   0  0  0  0  0  0  0  0  0  0  0  0
  161.4100  208.0480  147.9220 C   0  0  0  0  0  3  0  0  0  0  0  0
  161.8090  205.3530  151.1720 N   0  0  0  0  0  2  0  0  0  0  0  0
  161.7680  208.5520  149.1730 C   0  0  0  0  0  3  0  0  0  0  0  0
  161.8740  207.7090  150.2890 C   0  0  0  0  0  0  0  0  0  0  0  0
  160.7620  206.1600  146.4670 C   0  0  0  0  0  0  0  0  0  0  0  0
  159.8820  206.1180  145.4320 O   0  0  0  0  0  0  0  0  0  0  0  0
  161.0120  205.3700  145.4250 N   0  0  0  0  0  0  0  0  0  0  0  0
  160.4240  210.2130  152.9790 C   0  0  0  0  0  2  0  0  0  0  0  0
  160.4690  211.2270  154.1210 C   0  0  0  0  0  2  0  0  0  0  0  0
  158.8310  212.3180  152.9120 N   0  0  0  0  0  0  0  0  0  0  0  0
  159.6220  213.2850  154.8770 C   0  0  0  0  0  2  0  0  0  0  0  0
  155.8940  212.7440  155.2650 C   0  0  2  0  0  3  0  0  0  0  0  0
  156.7850  213.3320  156.2710 N   0  0  0  0  0  0  0  0  0  0  0  0
  156.7180  212.0860  154.1640 C   0  0  1  0  0  3  0  0  0  0  0  0
  156.0090  213.8350  157.2610 O   0  0  0  0  0  1  0  0  0  0  0  0
  157.7310  213.0660  153.5250 C   0  0  1  0  0  3  0  0  0  0  0  0
  155.0260  213.7020  154.7240 O   0  0  0  0  0  1  0  0  0  0  0  0
  157.5190  214.4530  155.6920 C   0  0  0  0  0  2  0  0  0  0  0  0
  158.3820  214.0220  154.5030 C   0  0  1  0  0  3  0  0  0  0  0  0
  157.3550  210.9560  154.6840 O   0  0  0  0  0  1  0  0  0  0  0  0
  160.0000  212.5340  153.6810 N   0  0  0  0  0  0  0  0  0  0  0  0
  159.0690  212.8980  151.5990 C   0  0  0  0  0  1  0  0  0  0  0  0
  1  4  1  0  0  0  0
  1  9  1  0  0  0  0
  2 16  1  0  0  0  0
  2 14  1  0  0  0  0
  3  8  1  0  0  0  0
  5  7  1  0  0  0  0
  7  6  2  0  0  0  0
  8 10  2  0  0  0  0
  9  8  1  0  0  0  0
  9  5  2  0  0  0  0
 10  6  1  0  0  0  0
 11  2  2  0  0  0  0
 12 13  2  0  0  0  0
 12 11  1  0  0  0  0
 13 15  1  0  0  0  0
 14  3  1  0  0  0  0
 15 16  2  0  0  0  0
 16  1  1  0  0  0  0
 17 12  1  0  0  0  0
 18 17  1  0  0  0  0
 19 18  1  0  0  0  0
 19 17  2  0  0  0  0
 20  5  1  0  0  0  0
 20 21  1  0  0  0  0
 22 33  1  0  0  0  0
 24 29  1  6  0  0  0
 24 25  1  0  0  0  0
 25 27  1  0  0  0  0
 26 32  1  1  0  0  0
 26 24  1  0  0  0  0
 28 22  1  1  0  0  0
 28 26  1  0  0  0  0
 28 31  1  0  0  0  0
 30 25  1  0  0  0  0
 31 23  1  1  0  0  0
 31 30  1  0  0  0  0
 33 21  1  0  0  0  0
 33 23  1  0  0  0  0
 34 22  1  0  0  0  0
M  END
>  <MODEL>
1

>  <REMARK>
 VINA RESULT:      -7.5      0.000      0.000
  Name = 
  4 active torsions:
  status: ('A' for Active; 'I' for Inactive)
    1  A    between atoms: C_3  and  C_25
    2  A    between atoms: C_8  and  C_10
    3  A    between atoms: C_8  and  C_18
    4  A    between atoms: C_18  and  N_30
                            x       y       z     vdW  Elec       q    Type
                         _______ _______ _______ _____ _____    ______ ____

>  <TORSDO>
F 4

$$$$
=
 OpenBabel11062409513D

 34 39  0  0  1  0  0  0  0  0999 V2000
  162.1370  208.3380  151.3390 N   0  0  0  0  0  0  0  0  0  0  0  0
  161.7040  206.3050  149.9230 C   0  0  0  0  0  0  0  0  0  0  0  0
  162.6270  205.6780  152.2350 C   0  0  0  0  0  2  0  0  0  0  0  0
  162.7860  209.5290  151.3400 O   0  0  0  0  0  1  0  0  0  0  0  0
  160.6640  208.7410  153.2940 C   0  0  0  0  0  0  0  0  0  0  0  0
  160.3340  206.9840  154.9350 C   0  0  0  0  0  3  0  0  0  0  0  0
  160.0790  208.2790  154.4780 C   0  0  0  0  0  3  0  0  0  0  0  0
  161.7590  206.5900  153.0200 C   0  0  0  0  0  0  0  0  0  0  0  0
  161.5220  207.8920  152.5580 C   0  0  0  0  0  0  0  0  0  0  0  0
  161.1700  206.1400  154.2040 C   0  0  0  0  0  3  0  0  0  0  0  0
  161.3270  205.7860  148.6790 C   0  0  0  0  0  3  0  0  0  0  0  0
  161.1050  206.6270  147.5890 C   0  0  0  0  0  0  0  0  0  0  0  0
  161.2670  208.0030  147.7280 C   0  0  0  0  0  3  0  0  0  0  0  0
  161.9850  205.3620  150.9680 N   0  0  0  0  0  2  0  0  0  0  0  0
  161.6280  208.5390  148.9650 C   0  0  0  0  0  3  0  0  0  0  0  0
  161.8370  207.7120  150.0780 C   0  0  0  0  0  0  0  0  0  0  0  0
  160.7150  206.0650  146.3010 C   0  0  0  0  0  0  0  0  0  0  0  0
  159.9840  206.1450  145.1590 O   0  0  0  0  0  0  0  0  0  0  0  0
  160.8140  205.1000  145.3890 N   0  0  0  0  0  0  0  0  0  0  0  0
  160.2940  210.1110  152.8130 C   0  0  0  0  0  2  0  0  0  0  0  0
  160.2680  211.1240  153.9560 C   0  0  0  0  0  2  0  0  0  0  0  0
  159.2750  211.7870  155.9340 N   0  0  0  0  0  0  0  0  0  0  0  0
  157.9580  210.8290  154.2700 C   0  0  0  0  0  2  0  0  0  0  0  0
  156.6000  214.2930  154.9810 C   0  0  2  0  0  3  0  0  0  0  0  0
  156.0620  213.3460  153.9990 N   0  0  0  0  0  0  0  0  0  0  0  0
  157.9730  213.8250  155.4530 C   0  0  1  0  0  3  0  0  0  0  0  0
  154.8820  213.8420  153.5560 O   0  0  0  0  0  1  0  0  0  0  0  0
  157.9400  212.3830  156.0130 C   0  0  1  0  0  3  0  0  0  0  0  0
  155.7330  214.4530  156.0700 O   0  0  0  0  0  1  0  0  0  0  0  0
  155.7720  212.0690  154.6460 C   0  0  0  0  0  2  0  0  0  0  0  0
  157.0260  211.4390  155.2600 C   0  0  1  0  0  3  0  0  0  0  0  0
  158.8840  213.9480  154.4010 O   0  0  0  0  0  1  0  0  0  0  0  0
  159.2540  210.7760  154.9420 N   0  0  0  0  0  0  0  0  0  0  0  0
  159.5320  211.1310  157.2070 C   0  0  0  0  0  1  0  0  0  0  0  0
  1  4  1  0  0  0  0
  1  9  1  0  0  0  0
  2 16  1  0  0  0  0
  2 14  1  0  0  0  0
  3  8  1  0  0  0  0
  5  7  1  0  0  0  0
  7  6  2  0  0  0  0
  8 10  2  0  0  0  0
  9  8  1  0  0  0  0
  9  5  2  0  0  0  0
 10  6  1  0  0  0  0
 11  2  2  0  0  0  0
 12 13  2  0  0  0  0
 12 11  1  0  0  0  0
 13 15  1  0  0  0  0
 14  3  1  0  0  0  0
 15 16  2  0  0  0  0
 16  1  1  0  0  0  0
 17 12  1  0  0  0  0
 18 19  1  0  0  0  0
 18 17  1  0  0  0  0
 19 17  2  0  0  0  0
 20  5  1  0  0  0  0
 20 21  1  0  0  0  0
 21 33  1  0  0  0  0
 22 34  1  0  0  0  0
 23 33  1  0  0  0  0
 24 26  1  0  0  0  0
 24 29  1  1  0  0  0
 25 30  1  0  0  0  0
 25 24  1  0  0  0  0
 26 32  1  6  0  0  0
 26 28  1  0  0  0  0
 27 25  1  0  0  0  0
 28 22  1  6  0  0  0
 30 31  1  0  0  0  0
 31 23  1  6  0  0  0
 31 28  1  0  0  0  0
 33 22  1  0  0  0  0
M  END
>  <MODEL>
2

>  <REMARK>
 VINA RESULT:      -6.7      1.277      1.954
  Name = 
  4 active torsions:
  status: ('A' for Active; 'I' for Inactive)
    1  A    between atoms: C_3  and  C_25
    2  A    between atoms: C_8  and  C_10
    3  A    between atoms: C_8  and  C_18
    4  A    between atoms: C_18  and  N_30
                            x       y       z     vdW  Elec       q    Type
                         _______ _______ _______ _____ _____    ______ ____

>  <TORSDO>
F 4

$$$$
=
 OpenBabel11062409513D

 34 39  0  0  1  0  0  0  0  0999 V2000
  162.4040  209.7010  151.0600 N   0  0  0  0  0  0  0  0  0  0  0  0
  161.7690  209.9150  148.6360 C   0  0  0  0  0  0  0  0  0  0  0  0
  162.9130  207.6700  149.1270 C   0  0  0  0  0  2  0  0  0  0  0  0
  163.0810  210.3280  152.0540 O   0  0  0  0  0  1  0  0  0  0  0  0
  161.1560  208.0760  152.4600 C   0  0  0  0  0  0  0  0  0  0  0  0
  160.9530  205.7690  151.7360 C   0  0  0  0  0  3  0  0  0  0  0  0
  160.6870  206.7750  152.6670 C   0  0  0  0  0  3  0  0  0  0  0  0
  162.1580  207.3600  150.3660 C   0  0  0  0  0  0  0  0  0  0  0  0
  161.9080  208.3740  151.3010 C   0  0  0  0  0  0  0  0  0  0  0  0
  161.6840  206.0630  150.5840 C   0  0  0  0  0  3  0  0  0  0  0  0
  161.2490  210.7170  147.6130 C   0  0  0  0  0  3  0  0  0  0  0  0
  160.9370  212.0570  147.8420 C   0  0  0  0  0  0  0  0  0  0  0  0
  161.1490  212.6150  149.1010 C   0  0  0  0  0  3  0  0  0  0  0  0
  162.1330  208.5700  148.2920 N   0  0  0  0  0  2  0  0  0  0  0  0
  161.6530  211.8270  150.1350 C   0  0  0  0  0  3  0  0  0  0  0  0
  161.9560  210.4720  149.9300 C   0  0  0  0  0  0  0  0  0  0  0  0
  160.3980  212.8750  146.7620 C   0  0  0  0  0  0  0  0  0  0  0  0
  159.3290  213.4180  146.1220 O   0  0  0  0  0  0  0  0  0  0  0  0
  160.5930  213.6340  145.6860 N   0  0  0  0  0  0  0  0  0  0  0  0
  160.7750  209.1300  153.4540 C   0  0  0  0  0  2  0  0  0  0  0  0
  161.7830  209.2180  154.5990 C   0  0  0  0  0  2  0  0  0  0  0  0
  161.4110  211.0320  155.9800 N   0  0  0  0  0  0  0  0  0  0  0  0
  159.6990  209.4890  155.6500 C   0  0  0  0  0  2  0  0  0  0  0  0
  158.4450  212.8790  154.5170 C   0  0  2  0  0  3  0  0  0  0  0  0
  157.6820  211.6260  154.4820 N   0  0  0  0  0  0  0  0  0  0  0  0
  159.9180  212.5800  154.7710 C   0  0  1  0  0  3  0  0  0  0  0  0
  156.3990  211.9370  154.1800 O   0  0  0  0  0  1  0  0  0  0  0  0
  160.1340  211.7460  156.0570 C   0  0  1  0  0  3  0  0  0  0  0  0
  157.9460  213.7580  155.4860 O   0  0  0  0  0  1  0  0  0  0  0  0
  157.6720  211.0130  155.8070 C   0  0  0  0  0  2  0  0  0  0  0  0
  159.0840  210.6830  156.2980 C   0  0  1  0  0  3  0  0  0  0  0  0
  160.4560  211.9430  153.6490 O   0  0  0  0  0  1  0  0  0  0  0  0
  161.1400  209.6500  155.8320 N   0  0  0  0  0  0  0  0  0  0  0  0
  162.0790  211.2030  157.2610 C   0  0  0  0  0  1  0  0  0  0  0  0
  1  9  1  0  0  0  0
  1  4  1  0  0  0  0
  2 16  1  0  0  0  0
  3  8  1  0  0  0  0
  5  7  1  0  0  0  0
  5 20  1  0  0  0  0
  6  7  2  0  0  0  0
  8 10  2  0  0  0  0
  8  9  1  0  0  0  0
  9  5  2  0  0  0  0
 10  6  1  0  0  0  0
 11 12  1  0  0  0  0
 11  2  2  0  0  0  0
 12 13  2  0  0  0  0
 13 15  1  0  0  0  0
 14  2  1  0  0  0  0
 14  3  1  0  0  0  0
 16 15  2  0  0  0  0
 16  1  1  0  0  0  0
 17 12  1  0  0  0  0
 18 17  1  0  0  0  0
 19 18  1  0  0  0  0
 19 17  2  0  0  0  0
 20 21  1  0  0  0  0
 21 33  1  0  0  0  0
 22 34  1  0  0  0  0
 23 33  1  0  0  0  0
 24 26  1  0  0  0  0
 24 29  1  1  0  0  0
 25 24  1  0  0  0  0
 25 30  1  0  0  0  0
 26 32  1  6  0  0  0
 26 28  1  0  0  0  0
 27 25  1  0  0  0  0
 28 22  1  6  0  0  0
 28 31  1  0  0  0  0
 30 31  1  0  0  0  0
 31 23  1  6  0  0  0
 33 22  1  0  0  0  0
M  END
>  <MODEL>
3

>  <REMARK>
 VINA RESULT:      -5.3      2.928      4.072
  Name = 
  4 active torsions:
  status: ('A' for Active; 'I' for Inactive)
    1  A    between atoms: C_3  and  C_25
    2  A    between atoms: C_8  and  C_10
    3  A    between atoms: C_8  and  C_18
    4  A    between atoms: C_18  and  N_30
                            x       y       z     vdW  Elec       q    Type
                         _______ _______ _______ _____ _____    ______ ____

>  <TORSDO>
F 4

$$$$
=
 OpenBabel11062409513D

 34 39  0  0  1  0  0  0  0  0999 V2000
  161.7900  209.4370  151.6620 N   0  0  0  0  0  0  0  0  0  0  0  0
  161.2140  207.0690  152.2820 C   0  0  0  0  0  0  0  0  0  0  0  0
  161.5160  208.5490  154.3560 C   0  0  0  0  0  2  0  0  0  0  0  0
  162.6660  210.1760  150.9370 O   0  0  0  0  0  1  0  0  0  0  0  0
  160.0870  211.1990  152.0550 C   0  0  0  0  0  0  0  0  0  0  0  0
  159.0780  211.4310  154.2490 C   0  0  0  0  0  3  0  0  0  0  0  0
  159.1990  211.8460  152.9210 C   0  0  0  0  0  3  0  0  0  0  0  0
  160.7290  209.7050  153.8590 C   0  0  0  0  0  0  0  0  0  0  0  0
  160.8690  210.1200  152.5280 C   0  0  0  0  0  0  0  0  0  0  0  0
  159.8390  210.3580  154.7150 C   0  0  0  0  0  3  0  0  0  0  0  0
  160.9820  205.7550  151.8560 C   0  0  0  0  0  3  0  0  0  0  0  0
  161.1600  205.3920  150.5210 C   0  0  0  0  0  0  0  0  0  0  0  0
  161.5820  206.3420  149.5930 C   0  0  0  0  0  3  0  0  0  0  0  0
  161.0790  207.3350  153.6850 N   0  0  0  0  0  2  0  0  0  0  0  0
  161.8050  207.6580  149.9970 C   0  0  0  0  0  3  0  0  0  0  0  0
  161.6120  208.0480  151.3310 C   0  0  0  0  0  0  0  0  0  0  0  0
  160.9150  204.0180  150.0990 C   0  0  0  0  0  0  0  0  0  0  0  0
  160.7200  203.1130  149.1050 O   0  0  0  0  0  0  0  0  0  0  0  0
  160.7190  202.7380  150.4060 N   0  0  0  0  0  0  0  0  0  0  0  0
  160.1200  211.6370  150.6220 C   0  0  0  0  0  2  0  0  0  0  0  0
  161.4610  212.2670  150.2540 C   0  0  0  0  0  2  0  0  0  0  0  0
  161.9340  213.3690  148.2790 N   0  0  0  0  0  0  0  0  0  0  0  0
  159.8420  213.6500  149.2600 C   0  0  0  0  0  2  0  0  0  0  0  0
  159.3180  212.2340  145.7870 C   0  0  2  0  0  3  0  0  0  0  0  0
  158.2600  212.5620  146.7480 N   0  0  0  0  0  0  0  0  0  0  0  0
  160.6720  212.2370  146.4870 C   0  0  1  0  0  3  0  0  0  0  0  0
  157.0750  212.4730  146.0980 O   0  0  0  0  0  1  0  0  0  0  0  0
  160.9550  213.5760  147.2100 C   0  0  1  0  0  3  0  0  0  0  0  0
  159.3230  213.1200  144.7030 O   0  0  0  0  0  1  0  0  0  0  0  0
  158.4010  213.9470  147.1890 C   0  0  0  0  0  2  0  0  0  0  0  0
  159.7460  214.1960  147.8760 C   0  0  1  0  0  3  0  0  0  0  0  0
  160.7340  211.1550  147.3700 O   0  0  0  0  0  1  0  0  0  0  0  0
  161.2730  213.5130  149.5230 N   0  0  0  0  0  0  0  0  0  0  0  0
  162.9100  214.4440  148.1860 C   0  0  0  0  0  1  0  0  0  0  0  0
  1  9  1  0  0  0  0
  2 14  1  0  0  0  0
  4  1  1  0  0  0  0
  5  9  2  0  0  0  0
  5  7  1  0  0  0  0
  6 10  1  0  0  0  0
  7  6  2  0  0  0  0
  8  3  1  0  0  0  0
  8 10  2  0  0  0  0
  9  8  1  0  0  0  0
 11  2  1  0  0  0  0
 12 11  2  0  0  0  0
 13 15  2  0  0  0  0
 13 12  1  0  0  0  0
 14  3  1  0  0  0  0
 15 16  1  0  0  0  0
 16  1  1  0  0  0  0
 16  2  2  0  0  0  0
 17 19  2  0  0  0  0
 17 12  1  0  0  0  0
 18 17  1  0  0  0  0
 18 19  1  0  0  0  0
 20  5  1  0  0  0  0
 21 20  1  0  0  0  0
 22 33  1  0  0  0  0
 23 33  1  0  0  0  0
 24 29  1  6  0  0  0
 24 26  1  0  0  0  0
 24 25  1  0  0  0  0
 25 30  1  0  0  0  0
 26 28  1  0  0  0  0
 26 32  1  1  0  0  0
 27 25  1  0  0  0  0
 28 31  1  0  0  0  0
 28 22  1  1  0  0  0
 31 30  1  6  0  0  0
 31 23  1  0  0  0  0
 33 21  1  0  0  0  0
 34 22  1  0  0  0  0
M  END
>  <MODEL>
4

>  <REMARK>
 VINA RESULT:      -5.0      3.739      5.685
  Name = 
  4 active torsions:
  status: ('A' for Active; 'I' for Inactive)
    1  A    between atoms: C_3  and  C_25
    2  A    between atoms: C_8  and  C_10
    3  A    between atoms: C_8  and  C_18
    4  A    between atoms: C_18  and  N_30
                            x       y       z     vdW  Elec       q    Type
                         _______ _______ _______ _____ _____    ______ ____

>  <TORSDO>
F 4

$$$$
=
 OpenBabel11062409513D

 34 39  0  0  1  0  0  0  0  0999 V2000
  160.4440  205.0740  150.2470 N   0  0  0  0  0  0  0  0  0  0  0  0
  160.8910  203.9710  148.0310 C   0  0  0  0  0  0  0  0  0  0  0  0
  160.2610  206.4440  147.7550 C   0  0  0  0  0  2  0  0  0  0  0  0
  159.7060  204.9530  151.3780 O   0  0  0  0  0  1  0  0  0  0  0  0
  162.0720  206.7560  151.0690 C   0  0  0  0  0  0  0  0  0  0  0  0
  162.7060  208.6150  149.6450 C   0  0  0  0  0  3  0  0  0  0  0  0
  162.8090  207.9260  150.8550 C   0  0  0  0  0  3  0  0  0  0  0  0
  161.1290  206.9650  148.8410 C   0  0  0  0  0  0  0  0  0  0  0  0
  161.2140  206.2720  150.0550 C   0  0  0  0  0  0  0  0  0  0  0  0
  161.8700  208.1320  148.6370 C   0  0  0  0  0  3  0  0  0  0  0  0
  161.1800  202.7950  147.3300 C   0  0  0  0  0  3  0  0  0  0  0  0
  161.2220  201.5630  147.9830 C   0  0  0  0  0  0  0  0  0  0  0  0
  160.9670  201.4920  149.3500 C   0  0  0  0  0  3  0  0  0  0  0  0
  160.7940  205.1820  147.2670 N   0  0  0  0  0  2  0  0  0  0  0  0
  160.6910  202.6570  150.0680 C   0  0  0  0  0  3  0  0  0  0  0  0
  160.6630  203.9070  149.4330 C   0  0  0  0  0  0  0  0  0  0  0  0
  161.5230  200.3490  147.2330 C   0  0  0  0  0  0  0  0  0  0  0  0
  161.9560  199.0620  147.2090 O   0  0  0  0  0  0  0  0  0  0  0  0
  161.5740  199.6950  146.0740 N   0  0  0  0  0  0  0  0  0  0  0  0
  162.2800  206.0180  152.3560 C   0  0  0  0  0  2  0  0  0  0  0  0
  162.3080  206.9650  153.5540 C   0  0  0  0  0  2  0  0  0  0  0  0
  161.1000  207.8010  155.3360 N   0  0  0  0  0  0  0  0  0  0  0  0
  160.3610  208.2230  153.1680 C   0  0  0  0  0  2  0  0  0  0  0  0
  160.9780  211.5560  154.8570 C   0  0  2  0  0  3  0  0  0  0  0  0
  160.5040  211.3660  153.4820 N   0  0  0  0  0  0  0  0  0  0  0  0
  161.4960  210.2350  155.4130 C   0  0  1  0  0  3  0  0  0  0  0  0
  160.1260  212.5770  153.0080 O   0  0  0  0  0  1  0  0  0  0  0  0
  160.4380  209.1080  155.3270 C   0  0  1  0  0  3  0  0  0  0  0  0
  159.9720  212.0770  155.6810 O   0  0  0  0  0  1  0  0  0  0  0  0
  159.3150  210.5170  153.4780 C   0  0  0  0  0  2  0  0  0  0  0  0
  159.5970  209.1330  154.0690 C   0  0  1  0  0  3  0  0  0  0  0  0
  162.6730  209.8860  154.7450 O   0  0  0  0  0  1  0  0  0  0  0  0
  160.9630  207.2240  154.0500 N   0  0  0  0  0  0  0  0  0  0  0  0
  160.3680  206.9530  156.2640 C   0  0  0  0  0  1  0  0  0  0  0  0
  1  4  1  0  0  0  0
  2 16  1  0  0  0  0
  3  8  1  0  0  0  0
  5 20  1  0  0  0  0
  6  7  2  0  0  0  0
  7  5  1  0  0  0  0
  8  9  1  0  0  0  0
  9  1  1  0  0  0  0
  9  5  2  0  0  0  0
 10  8  2  0  0  0  0
 10  6  1  0  0  0  0
 11 12  1  0  0  0  0
 11  2  2  0  0  0  0
 12 13  2  0  0  0  0
 13 15  1  0  0  0  0
 14  3  1  0  0  0  0
 14  2  1  0  0  0  0
 16 15  2  0  0  0  0
 16  1  1  0  0  0  0
 17 12  1  0  0  0  0
 18 17  1  0  0  0  0
 19 18  1  0  0  0  0
 19 17  2  0  0  0  0
 20 21  1  0  0  0  0
 21 33  1  0  0  0  0
 22 34  1  0  0  0  0
 23 33  1  0  0  0  0
 24 26  1  0  0  0  0
 24 29  1  1  0  0  0
 25 24  1  0  0  0  0
 26 32  1  6  0  0  0
 27 25  1  0  0  0  0
 28 22  1  6  0  0  0
 28 26  1  0  0  0  0
 30 25  1  0  0  0  0
 30 31  1  0  0  0  0
 31 23  1  6  0  0  0
 31 28  1  0  0  0  0
 33 22  1  0  0  0  0
M  END
>  <MODEL>
5

>  <REMARK>
 VINA RESULT:      -4.7      3.001      5.268
  Name = 
  4 active torsions:
  status: ('A' for Active; 'I' for Inactive)
    1  A    between atoms: C_3  and  C_25
    2  A    between atoms: C_8  and  C_10
    3  A    between atoms: C_8  and  C_18
    4  A    between atoms: C_18  and  N_30
                            x       y       z     vdW  Elec       q    Type
                         _______ _______ _______ _____ _____    ______ ____

>  <TORSDO>
F 4

$$$$
