=
 OpenBabel11062410393D

 32 36  0  0  1  0  0  0  0  0999 V2000
  161.5480  205.7650  152.3030 C   0  0  0  0  0  3  0  0  0  0  0  0
  161.5340  211.0460  150.8030 C   0  0  0  0  0  3  0  0  0  0  0  0
  157.6710  211.6480  155.3450 C   0  0  0  0  0  3  0  0  0  0  0  0
  157.6100  212.9700  154.8530 C   0  0  0  0  0  3  0  0  0  0  0  0
  161.4180  208.5390  150.8110 C   0  0  0  0  0  0  0  0  0  0  0  0
  160.5330  209.0630  153.0400 N   0  0  0  0  0  0  0  0  0  0  0  0
  161.5770  206.9780  152.8460 C   0  0  0  0  0  3  0  0  0  0  0  0
  158.4720  210.6820  154.7110 C   0  0  0  0  0  3  0  0  0  0  0  0
  160.0540  210.3830  152.7720 C   0  0  0  0  0  0  0  0  0  0  0  0
  159.1870  211.0800  153.5830 C   0  0  0  0  0  0  0  0  0  0  0  0
  159.9540  212.5070  152.0420 N   0  0  0  0  0  0  0  0  0  0  0  0
  160.9930  206.2040  149.9270 C   0  0  0  0  0  3  0  0  0  0  0  0
  161.1260  208.2310  152.2350 C   0  0  0  0  0  0  0  0  0  0  0  0
  161.3590  207.6250  149.8440 C   0  0  0  0  0  3  0  0  0  0  0  0
  161.0380  205.3810  150.9800 C   0  0  0  0  0  0  0  0  0  0  0  0
  158.3540  213.3450  153.7180 C   0  0  0  0  0  3  0  0  0  0  0  0
  159.1370  212.3650  153.1040 C   0  0  0  0  0  0  0  0  0  0  0  0
  161.9080  209.8500  150.3610 C   0  0  0  0  0  3  0  0  0  0  0  0
  160.5240  211.2930  151.8330 C   0  0  0  0  0  0  0  0  0  0  0  0
  160.8350  203.1830  149.6550 C   0  0  0  0  0  0  0  0  0  0  0  0
  160.6790  204.0000  150.8240 N   0  0  0  0  0  2  0  0  0  0  0  0
  161.2970  203.6540  148.5820 O   0  0  0  0  0  0  0  0  0  0  0  0
  160.3540  201.4650  149.7200 S   0  0  0  0  0  1  0  0  0  0  0  0
  160.2070  213.7330  151.2920 C   0  0  0  0  0  2  0  0  0  0  0  0
  160.5940  213.5560  148.5170 O   0  0  0  0  0  1  0  0  0  0  0  0
  158.3040  214.1490  147.9680 C   0  0  2  0  0  3  0  0  0  0  0  0
  159.0560  214.0210  150.3330 C   0  0  2  0  0  3  0  0  0  0  0  0
  156.9430  213.4240  149.7530 C   0  0  0  0  0  2  0  0  0  0  0  0
  157.0780  214.3270  148.6530 O   0  0  0  0  0  0  0  0  0  0  0  0
  158.3150  212.8370  147.1840 C   0  0  0  0  0  1  0  0  0  0  0  0
  158.1660  212.9420  150.2900 O   0  0  0  0  0  0  0  0  0  0  0  0
  159.5080  214.3490  148.9090 C   0  0  1  0  0  3  0  0  0  0  0  0
  1  7  1  0  0  0  0
  2 19  2  0  0  0  0
  4  3  1  0  0  0  0
  5 13  1  0  0  0  0
  8  3  2  0  0  0  0
  9  6  2  0  0  0  0
  9 10  1  0  0  0  0
 10  8  1  0  0  0  0
 11 17  1  0  0  0  0
 12 15  1  0  0  0  0
 13  7  2  0  0  0  0
 13  6  1  0  0  0  0
 14 12  2  0  0  0  0
 14  5  1  0  0  0  0
 15  1  2  0  0  0  0
 16  4  2  0  0  0  0
 17 10  2  0  0  0  0
 17 16  1  0  0  0  0
 18  2  1  0  0  0  0
 18  5  2  0  0  0  0
 19 11  1  0  0  0  0
 19  9  1  0  0  0  0
 20 23  1  0  0  0  0
 20 21  1  0  0  0  0
 21 15  1  0  0  0  0
 22 20  2  0  0  0  0
 24 11  1  0  0  0  0
 26 30  1  1  0  0  0
 26 29  1  0  0  0  0
 26 32  1  0  0  0  0
 27 24  1  1  0  0  0
 28 31  1  0  0  0  0
 29 28  1  0  0  0  0
 31 27  1  0  0  0  0
 32 25  1  6  0  0  0
 32 27  1  0  0  0  0
M  END
>  <MODEL>
1

>  <REMARK>
 VINA RESULT:      -7.7      0.000      0.000
  Name = 
  3 active torsions:
  status: ('A' for Active; 'I' for Inactive)
    1  A    between atoms: N_10  and  C_24
    2  A    between atoms: C_11  and  C_27
    3  A    between atoms: N_16  and  C_27
                            x       y       z     vdW  Elec       q    Type
                         _______ _______ _______ _____ _____    ______ ____

>  <TORSDO>
F 3

$$$$
=
 OpenBabel11062410393D

 32 36  0  0  1  0  0  0  0  0999 V2000
  162.2030  204.7690  151.0150 C   0  0  0  0  0  3  0  0  0  0  0  0
  161.3750  210.1680  151.5650 C   0  0  0  0  0  3  0  0  0  0  0  0
  159.9400  208.7100  157.1990 C   0  0  0  0  0  3  0  0  0  0  0  0
  159.6290  210.0860  157.2610 C   0  0  0  0  0  3  0  0  0  0  0  0
  161.3440  207.7910  150.7610 C   0  0  0  0  0  0  0  0  0  0  0  0
  161.5370  207.4690  153.1870 N   0  0  0  0  0  0  0  0  0  0  0  0
  162.4400  205.7530  151.8770 C   0  0  0  0  0  3  0  0  0  0  0  0
  160.3980  208.1320  156.0010 C   0  0  0  0  0  3  0  0  0  0  0  0
  160.9520  208.7020  153.6100 C   0  0  0  0  0  0  0  0  0  0  0  0
  160.5210  208.9650  154.8920 C   0  0  0  0  0  0  0  0  0  0  0  0
  160.4790  210.8950  153.7640 N   0  0  0  0  0  0  0  0  0  0  0  0
  160.6320  205.7840  149.3880 C   0  0  0  0  0  3  0  0  0  0  0  0
  161.7290  207.0290  151.9780 C   0  0  0  0  0  0  0  0  0  0  0  0
  160.8830  207.2080  149.6550 C   0  0  0  0  0  3  0  0  0  0  0  0
  161.1660  204.7090  149.9760 C   0  0  0  0  0  0  0  0  0  0  0  0
  159.7760  210.9040  156.1250 C   0  0  0  0  0  3  0  0  0  0  0  0
  160.2270  210.3040  154.9480 C   0  0  0  0  0  0  0  0  0  0  0  0
  161.5450  209.2420  150.6280 C   0  0  0  0  0  3  0  0  0  0  0  0
  160.9270  209.9170  152.9360 C   0  0  0  0  0  0  0  0  0  0  0  0
  161.2210  202.7540  148.3030 C   0  0  0  0  0  0  0  0  0  0  0  0
  160.8130  203.3950  149.5200 N   0  0  0  0  0  2  0  0  0  0  0  0
  161.9410  203.3470  147.4570 O   0  0  0  0  0  0  0  0  0  0  0  0
  160.6860  201.0820  147.9750 S   0  0  0  0  0  1  0  0  0  0  0  0
  160.3350  212.3120  153.4470 C   0  0  0  0  0  2  0  0  0  0  0  0
  159.1100  214.3660  151.9760 O   0  0  0  0  0  1  0  0  0  0  0  0
  157.0800  214.3690  153.3090 C   0  0  2  0  0  3  0  0  0  0  0  0
  158.9430  212.8070  153.8260 C   0  0  2  0  0  3  0  0  0  0  0  0
  156.7830  212.1820  154.1400 C   0  0  0  0  0  2  0  0  0  0  0  0
  156.4920  213.5700  154.3190 O   0  0  0  0  0  0  0  0  0  0  0  0
  156.3810  214.1640  151.9650 C   0  0  0  0  0  1  0  0  0  0  0  0
  157.9620  211.9030  153.4020 O   0  0  0  0  0  0  0  0  0  0  0  0
  158.6110  214.1950  153.2730 C   0  0  1  0  0  3  0  0  0  0  0  0
  1  7  1  0  0  0  0
  2 19  2  0  0  0  0
  3  4  1  0  0  0  0
  5 13  1  0  0  0  0
  6  9  2  0  0  0  0
  7 13  2  0  0  0  0
  8  3  2  0  0  0  0
  9 10  1  0  0  0  0
 10 17  2  0  0  0  0
 10  8  1  0  0  0  0
 11 17  1  0  0  0  0
 12 14  2  0  0  0  0
 12 15  1  0  0  0  0
 13  6  1  0  0  0  0
 14  5  1  0  0  0  0
 15  1  2  0  0  0  0
 16  4  2  0  0  0  0
 17 16  1  0  0  0  0
 18  5  2  0  0  0  0
 18  2  1  0  0  0  0
 19  9  1  0  0  0  0
 19 11  1  0  0  0  0
 20 21  1  0  0  0  0
 21 15  1  0  0  0  0
 22 20  2  0  0  0  0
 23 20  1  0  0  0  0
 24 11  1  0  0  0  0
 26 30  1  6  0  0  0
 26 29  1  0  0  0  0
 27 24  1  6  0  0  0
 28 29  1  0  0  0  0
 31 27  1  0  0  0  0
 31 28  1  0  0  0  0
 32 25  1  6  0  0  0
 32 26  1  0  0  0  0
 32 27  1  0  0  0  0
M  END
>  <MODEL>
2

>  <REMARK>
 VINA RESULT:      -7.5      2.281      3.039
  Name = 
  3 active torsions:
  status: ('A' for Active; 'I' for Inactive)
    1  A    between atoms: N_10  and  C_24
    2  A    between atoms: C_11  and  C_27
    3  A    between atoms: N_16  and  C_27
                            x       y       z     vdW  Elec       q    Type
                         _______ _______ _______ _____ _____    ______ ____

>  <TORSDO>
F 3

$$$$
=
 OpenBabel11062410393D

 32 36  0  0  1  0  0  0  0  0999 V2000
  162.7160  212.9920  146.7670 C   0  0  0  0  0  3  0  0  0  0  0  0
  160.3810  212.3910  151.7000 C   0  0  0  0  0  3  0  0  0  0  0  0
  162.2980  206.7350  151.1910 C   0  0  0  0  0  3  0  0  0  0  0  0
  161.5860  206.5990  152.4030 C   0  0  0  0  0  3  0  0  0  0  0  0
  160.8290  212.9400  149.2920 C   0  0  0  0  0  0  0  0  0  0  0  0
  162.2080  210.9310  149.5850 N   0  0  0  0  0  0  0  0  0  0  0  0
  162.9550  212.4220  147.9440 C   0  0  0  0  0  3  0  0  0  0  0  0
  162.3300  207.9670  150.5130 C   0  0  0  0  0  3  0  0  0  0  0  0
  161.4880  210.3370  150.6680 C   0  0  0  0  0  0  0  0  0  0  0  0
  161.6290  209.0300  151.0780 C   0  0  0  0  0  0  0  0  0  0  0  0
  160.3960  210.0840  152.6170 N   0  0  0  0  0  0  0  0  0  0  0  0
  160.3310  213.6540  146.9130 C   0  0  0  0  0  3  0  0  0  0  0  0
  161.9680  212.0450  148.9600 C   0  0  0  0  0  0  0  0  0  0  0  0
  160.1540  213.6280  148.3720 C   0  0  0  0  0  3  0  0  0  0  0  0
  161.4160  213.3590  146.1890 C   0  0  0  0  0  0  0  0  0  0  0  0
  160.8980  207.6960  152.9550 C   0  0  0  0  0  3  0  0  0  0  0  0
  160.9410  208.9050  152.2590 C   0  0  0  0  0  0  0  0  0  0  0  0
  160.4190  213.2340  150.6730 C   0  0  0  0  0  3  0  0  0  0  0  0
  160.7300  210.9710  151.6450 C   0  0  0  0  0  0  0  0  0  0  0  0
  160.5900  212.7600  143.8260 C   0  0  0  0  0  0  0  0  0  0  0  0
  161.3840  213.5030  144.7620 N   0  0  0  0  0  2  0  0  0  0  0  0
  159.8310  211.8280  144.2040 O   0  0  0  0  0  0  0  0  0  0  0  0
  160.6880  213.1570  142.0890 S   0  0  0  0  0  1  0  0  0  0  0  0
  159.6320  210.3610  153.8300 C   0  0  0  0  0  2  0  0  0  0  0  0
  159.5310  208.6030  156.0160 O   0  0  0  0  0  1  0  0  0  0  0  0
  161.3040  209.7200  157.2410 C   0  0  2  0  0  3  0  0  0  0  0  0
  160.5670  210.5550  155.0190 C   0  0  2  0  0  3  0  0  0  0  0  0
  162.7430  210.7040  155.6520 C   0  0  0  0  0  2  0  0  0  0  0  0
  162.2640  210.7320  156.9990 O   0  0  0  0  0  0  0  0  0  0  0  0
  161.9520  208.3360  157.2610 C   0  0  0  0  0  1  0  0  0  0  0  0
  161.8600  210.1150  154.7110 O   0  0  0  0  0  0  0  0  0  0  0  0
  160.0950  209.8540  156.2940 C   0  0  1  0  0  3  0  0  0  0  0  0
  1  7  1  0  0  0  0
  3  4  1  0  0  0  0
  4 16  2  0  0  0  0
  5 18  2  0  0  0  0
  6  9  2  0  0  0  0
  7 13  2  0  0  0  0
  8 10  1  0  0  0  0
  8  3  2  0  0  0  0
  9 10  1  0  0  0  0
  9 19  1  0  0  0  0
 10 17  2  0  0  0  0
 11 24  1  0  0  0  0
 12 14  2  0  0  0  0
 13  5  1  0  0  0  0
 13  6  1  0  0  0  0
 14  5  1  0  0  0  0
 15  1  2  0  0  0  0
 15 12  1  0  0  0  0
 17 11  1  0  0  0  0
 17 16  1  0  0  0  0
 18  2  1  0  0  0  0
 19  2  2  0  0  0  0
 19 11  1  0  0  0  0
 20 22  2  0  0  0  0
 20 21  1  0  0  0  0
 21 15  1  0  0  0  0
 23 20  1  0  0  0  0
 26 30  1  6  0  0  0
 27 24  1  6  0  0  0
 27 32  1  0  0  0  0
 28 29  1  0  0  0  0
 29 26  1  0  0  0  0
 31 27  1  0  0  0  0
 31 28  1  0  0  0  0
 32 25  1  6  0  0  0
 32 26  1  0  0  0  0
M  END
>  <MODEL>
3

>  <REMARK>
 VINA RESULT:      -7.2      4.301      7.682
  Name = 
  3 active torsions:
  status: ('A' for Active; 'I' for Inactive)
    1  A    between atoms: N_10  and  C_24
    2  A    between atoms: C_11  and  C_27
    3  A    between atoms: N_16  and  C_27
                            x       y       z     vdW  Elec       q    Type
                         _______ _______ _______ _____ _____    ______ ____

>  <TORSDO>
F 3

$$$$
=
 OpenBabel11062410393D

 32 36  0  0  1  0  0  0  0  0999 V2000
  158.2700  213.4150  155.8690 C   0  0  0  0  0  3  0  0  0  0  0  0
  161.2860  209.4840  153.5050 C   0  0  0  0  0  3  0  0  0  0  0  0
  161.0200  213.0730  148.7120 C   0  0  0  0  0  3  0  0  0  0  0  0
  161.6940  211.9860  148.1140 C   0  0  0  0  0  3  0  0  0  0  0  0
  159.5090  210.7390  154.7560 C   0  0  0  0  0  0  0  0  0  0  0  0
  160.1650  212.3990  153.0720 N   0  0  0  0  0  0  0  0  0  0  0  0
  159.3220  213.2830  155.0670 C   0  0  0  0  0  3  0  0  0  0  0  0
  160.6200  213.0140  150.0590 C   0  0  0  0  0  3  0  0  0  0  0  0
  160.6620  211.5030  152.0760 C   0  0  0  0  0  0  0  0  0  0  0  0
  160.9060  211.8480  150.7640 C   0  0  0  0  0  0  0  0  0  0  0  0
  161.7680  209.8110  151.0920 N   0  0  0  0  0  0  0  0  0  0  0  0
  157.3140  211.1300  155.9610 C   0  0  0  0  0  3  0  0  0  0  0  0
  159.6600  212.1230  154.2380 C   0  0  0  0  0  0  0  0  0  0  0  0
  158.4790  210.3550  155.5100 C   0  0  0  0  0  3  0  0  0  0  0  0
  157.1840  212.4530  156.1000 C   0  0  0  0  0  0  0  0  0  0  0  0
  161.9810  210.8260  148.8560 C   0  0  0  0  0  3  0  0  0  0  0  0
  161.5670  210.7910  150.1890 C   0  0  0  0  0  0  0  0  0  0  0  0
  160.5360  209.7010  154.5800 C   0  0  0  0  0  3  0  0  0  0  0  0
  161.2170  210.2410  152.2540 C   0  0  0  0  0  0  0  0  0  0  0  0
  155.0970  213.9530  155.9720 C   0  0  0  0  0  0  0  0  0  0  0  0
  155.9600  213.0010  156.6100 N   0  0  0  0  0  2  0  0  0  0  0  0
  155.3830  214.4510  154.8510 O   0  0  0  0  0  0  0  0  0  0  0  0
  153.5910  214.4520  156.7900 S   0  0  0  0  0  1  0  0  0  0  0  0
  162.4750  208.5520  150.8710 C   0  0  0  0  0  2  0  0  0  0  0  0
  162.3730  207.5380  148.2550 O   0  0  0  0  0  1  0  0  0  0  0  0
  160.6200  205.9310  148.7420 C   0  0  2  0  0  3  0  0  0  0  0  0
  161.4920  207.4430  150.5120 C   0  0  2  0  0  3  0  0  0  0  0  0
  160.8310  205.3290  151.0130 C   0  0  0  0  0  2  0  0  0  0  0  0
  159.9570  205.4220  149.8860 O   0  0  0  0  0  0  0  0  0  0  0  0
  161.6090  204.9120  148.1770 C   0  0  0  0  0  1  0  0  0  0  0  0
  161.9460  206.2060  150.9860 O   0  0  0  0  0  0  0  0  0  0  0  0
  161.2140  207.3270  149.0120 C   0  0  1  0  0  3  0  0  0  0  0  0
  1 15  1  0  0  0  0
  2 18  2  0  0  0  0
  3  8  1  0  0  0  0
  4  3  2  0  0  0  0
  4 16  1  0  0  0  0
  5 14  2  0  0  0  0
  6 13  2  0  0  0  0
  7  1  2  0  0  0  0
  8 10  2  0  0  0  0
  9 19  2  0  0  0  0
  9  6  1  0  0  0  0
 10  9  1  0  0  0  0
 11 19  1  0  0  0  0
 12 15  2  0  0  0  0
 13  5  1  0  0  0  0
 13  7  1  0  0  0  0
 14 12  1  0  0  0  0
 15 21  1  0  0  0  0
 16 17  2  0  0  0  0
 17 10  1  0  0  0  0
 17 11  1  0  0  0  0
 18  5  1  0  0  0  0
 19  2  1  0  0  0  0
 20 21  1  0  0  0  0
 20 23  1  0  0  0  0
 22 20  2  0  0  0  0
 24 11  1  0  0  0  0
 26 30  1  1  0  0  0
 26 32  1  0  0  0  0
 26 29  1  0  0  0  0
 27 24  1  6  0  0  0
 27 31  1  0  0  0  0
 29 28  1  0  0  0  0
 31 28  1  0  0  0  0
 32 25  1  6  0  0  0
 32 27  1  0  0  0  0
M  END
>  <MODEL>
4

>  <REMARK>
 VINA RESULT:      -6.9      3.951      7.912
  Name = 
  3 active torsions:
  status: ('A' for Active; 'I' for Inactive)
    1  A    between atoms: N_10  and  C_24
    2  A    between atoms: C_11  and  C_27
    3  A    between atoms: N_16  and  C_27
                            x       y       z     vdW  Elec       q    Type
                         _______ _______ _______ _____ _____    ______ ____

>  <TORSDO>
F 3

$$$$
=
 OpenBabel11062410393D

 32 36  0  0  1  0  0  0  0  0999 V2000
  160.0730  202.1160  148.7770 C   0  0  0  0  0  3  0  0  0  0  0  0
  161.0680  205.5020  152.9820 C   0  0  0  0  0  3  0  0  0  0  0  0
  161.9340  209.5600  148.6570 C   0  0  0  0  0  3  0  0  0  0  0  0
  162.2940  210.3620  149.7620 C   0  0  0  0  0  3  0  0  0  0  0  0
  161.0740  203.5580  151.3960 C   0  0  0  0  0  0  0  0  0  0  0  0
  160.6520  205.4240  149.8580 N   0  0  0  0  0  0  0  0  0  0  0  0
  159.8000  203.3550  149.1730 C   0  0  0  0  0  3  0  0  0  0  0  0
  161.5610  208.2160  148.8380 C   0  0  0  0  0  3  0  0  0  0  0  0
  161.2460  206.4710  150.6290 C   0  0  0  0  0  0  0  0  0  0  0  0
  161.5710  207.7160  150.1390 C   0  0  0  0  0  0  0  0  0  0  0  0
  161.7930  207.7940  152.3620 N   0  0  0  0  0  0  0  0  0  0  0  0
  161.8230  201.3680  150.3660 C   0  0  0  0  0  3  0  0  0  0  0  0
  160.5510  204.1590  150.1410 C   0  0  0  0  0  0  0  0  0  0  0  0
  161.6080  202.3380  151.4490 C   0  0  0  0  0  3  0  0  0  0  0  0
  161.1950  201.2620  149.1900 C   0  0  0  0  0  0  0  0  0  0  0  0
  162.2820  209.8320  151.0650 C   0  0  0  0  0  3  0  0  0  0  0  0
  161.9140  208.4940  151.2160 C   0  0  0  0  0  0  0  0  0  0  0  0
  160.9450  204.2080  152.7080 C   0  0  0  0  0  3  0  0  0  0  0  0
  161.3810  206.5500  152.0100 C   0  0  0  0  0  0  0  0  0  0  0  0
  161.3280  200.1510  146.8720 C   0  0  0  0  0  0  0  0  0  0  0  0
  161.5340  200.1960  148.2920 N   0  0  0  0  0  2  0  0  0  0  0  0
  160.7590  201.0920  146.2610 O   0  0  0  0  0  0  0  0  0  0  0  0
  161.8830  198.7230  145.9560 S   0  0  0  0  0  1  0  0  0  0  0  0
  162.0220  208.2890  153.7160 C   0  0  0  0  0  2  0  0  0  0  0  0
  161.0980  208.2660  156.3670 O   0  0  0  0  0  1  0  0  0  0  0  0
  159.4310  209.9920  156.0010 C   0  0  2  0  0  3  0  0  0  0  0  0
  160.8910  209.2170  154.1450 C   0  0  2  0  0  3  0  0  0  0  0  0
  160.2290  211.3850  154.2730 C   0  0  0  0  0  2  0  0  0  0  0  0
  159.0810  210.9080  154.9790 O   0  0  0  0  0  0  0  0  0  0  0  0
  160.1310  210.6990  157.1620 C   0  0  0  0  0  1  0  0  0  0  0  0
  161.3580  210.5270  154.3080 O   0  0  0  0  0  0  0  0  0  0  0  0
  160.1890  208.7770  155.4320 C   0  0  1  0  0  3  0  0  0  0  0  0
  1  7  2  0  0  0  0
  1 15  1  0  0  0  0
  3  8  2  0  0  0  0
  3  4  1  0  0  0  0
  4 16  2  0  0  0  0
  5 14  2  0  0  0  0
  5 18  1  0  0  0  0
  6 13  2  0  0  0  0
  6  9  1  0  0  0  0
  7 13  1  0  0  0  0
  8 10  1  0  0  0  0
  9 19  2  0  0  0  0
 10  9  1  0  0  0  0
 10 17  2  0  0  0  0
 11 24  1  0  0  0  0
 12 14  1  0  0  0  0
 13  5  1  0  0  0  0
 15 12  2  0  0  0  0
 16 17  1  0  0  0  0
 17 11  1  0  0  0  0
 18  2  2  0  0  0  0
 19 11  1  0  0  0  0
 19  2  1  0  0  0  0
 20 21  1  0  0  0  0
 21 15  1  0  0  0  0
 22 20  2  0  0  0  0
 23 20  1  0  0  0  0
 26 30  1  1  0  0  0
 27 24  1  1  0  0  0
 27 31  1  0  0  0  0
 27 32  1  0  0  0  0
 28 31  1  0  0  0  0
 28 29  1  0  0  0  0
 29 26  1  0  0  0  0
 32 26  1  0  0  0  0
 32 25  1  1  0  0  0
M  END
>  <MODEL>
5

>  <REMARK>
 VINA RESULT:      -6.8      3.549      6.229
  Name = 
  3 active torsions:
  status: ('A' for Active; 'I' for Inactive)
    1  A    between atoms: N_10  and  C_24
    2  A    between atoms: C_11  and  C_27
    3  A    between atoms: N_16  and  C_27
                            x       y       z     vdW  Elec       q    Type
                         _______ _______ _______ _____ _____    ______ ____

>  <TORSDO>
F 3

$$$$
=
 OpenBabel11062410393D

 32 36  0  0  1  0  0  0  0  0999 V2000
  161.9030  212.4780  147.0910 C   0  0  0  0  0  3  0  0  0  0  0  0
  160.1070  212.9930  152.2530 C   0  0  0  0  0  3  0  0  0  0  0  0
  161.5790  207.1960  152.6490 C   0  0  0  0  0  3  0  0  0  0  0  0
  161.0010  207.3460  153.9290 C   0  0  0  0  0  3  0  0  0  0  0  0
  160.3150  213.0510  149.7530 C   0  0  0  0  0  0  0  0  0  0  0  0
  161.5840  211.0190  150.2870 N   0  0  0  0  0  0  0  0  0  0  0  0
  162.2360  212.1150  148.3260 C   0  0  0  0  0  3  0  0  0  0  0  0
  161.6150  208.2760  151.7480 C   0  0  0  0  0  3  0  0  0  0  0  0
  160.9530  210.6980  151.5290 C   0  0  0  0  0  0  0  0  0  0  0  0
  161.0530  209.4800  152.1660 C   0  0  0  0  0  0  0  0  0  0  0  0
  160.0740  210.9000  153.5890 N   0  0  0  0  0  0  0  0  0  0  0  0
  159.5990  213.3580  147.3420 C   0  0  0  0  0  3  0  0  0  0  0  0
  161.3480  212.0160  149.4870 C   0  0  0  0  0  0  0  0  0  0  0  0
  159.5870  213.6140  148.7890 C   0  0  0  0  0  3  0  0  0  0  0  0
  160.5730  212.8440  146.5850 C   0  0  0  0  0  0  0  0  0  0  0  0
  160.4530  208.5800  154.3260 C   0  0  0  0  0  3  0  0  0  0  0  0
  160.4970  209.6330  153.4110 C   0  0  0  0  0  0  0  0  0  0  0  0
  160.0840  213.6270  151.0860 C   0  0  0  0  0  3  0  0  0  0  0  0
  160.3540  211.5620  152.4380 C   0  0  0  0  0  0  0  0  0  0  0  0
  161.0630  213.4600  144.1340 C   0  0  0  0  0  0  0  0  0  0  0  0
  160.3890  212.7260  145.1660 N   0  0  0  0  0  2  0  0  0  0  0  0
  161.9000  214.3590  144.4080 O   0  0  0  0  0  0  0  0  0  0  0  0
  160.6960  213.0990  142.4250 S   0  0  0  0  0  1  0  0  0  0  0  0
  159.4730  211.4590  154.7960 C   0  0  0  0  0  2  0  0  0  0  0  0
  157.6700  211.4550  156.9480 O   0  0  0  0  0  1  0  0  0  0  0  0
  155.7470  212.0360  155.5860 C   0  0  2  0  0  3  0  0  0  0  0  0
  157.9970  211.7660  154.5650 C   0  0  2  0  0  3  0  0  0  0  0  0
  156.5360  213.3070  153.7620 C   0  0  0  0  0  2  0  0  0  0  0  0
  155.4960  212.4600  154.2580 O   0  0  0  0  0  0  0  0  0  0  0  0
  155.5880  213.1900  156.5750 C   0  0  0  0  0  1  0  0  0  0  0  0
  157.7990  213.1400  154.3870 O   0  0  0  0  0  0  0  0  0  0  0  0
  157.0830  211.2750  155.6900 C   0  0  1  0  0  3  0  0  0  0  0  0
  1  7  1  0  0  0  0
  2 19  2  0  0  0  0
  3  4  1  0  0  0  0
  4 16  2  0  0  0  0
  5 18  2  0  0  0  0
  6  9  2  0  0  0  0
  7 13  2  0  0  0  0
  8 10  1  0  0  0  0
  8  3  2  0  0  0  0
  9 10  1  0  0  0  0
  9 19  1  0  0  0  0
 10 17  2  0  0  0  0
 11 24  1  0  0  0  0
 12 14  2  0  0  0  0
 13  5  1  0  0  0  0
 13  6  1  0  0  0  0
 14  5  1  0  0  0  0
 15  1  2  0  0  0  0
 15 12  1  0  0  0  0
 17 11  1  0  0  0  0
 17 16  1  0  0  0  0
 18  2  1  0  0  0  0
 19 11  1  0  0  0  0
 20 22  2  0  0  0  0
 20 21  1  0  0  0  0
 21 15  1  0  0  0  0
 23 20  1  0  0  0  0
 26 32  1  0  0  0  0
 26 30  1  1  0  0  0
 27 24  1  1  0  0  0
 27 32  1  0  0  0  0
 28 29  1  0  0  0  0
 28 31  1  0  0  0  0
 29 26  1  0  0  0  0
 31 27  1  0  0  0  0
 32 25  1  1  0  0  0
M  END
>  <MODEL>
6

>  <REMARK>
 VINA RESULT:      -6.2      4.071      6.914
  Name = 
  3 active torsions:
  status: ('A' for Active; 'I' for Inactive)
    1  A    between atoms: N_10  and  C_24
    2  A    between atoms: C_11  and  C_27
    3  A    between atoms: N_16  and  C_27
                            x       y       z     vdW  Elec       q    Type
                         _______ _______ _______ _____ _____    ______ ____

>  <TORSDO>
F 3

$$$$
=
 OpenBabel11062410393D

 32 36  0  0  1  0  0  0  0  0999 V2000
  160.0970  212.5420  144.2670 C   0  0  0  0  0  3  0  0  0  0  0  0
  160.8550  213.0360  149.6820 C   0  0  0  0  0  3  0  0  0  0  0  0
  154.9750  214.1910  149.7380 C   0  0  0  0  0  3  0  0  0  0  0  0
  155.2390  214.4210  151.1060 C   0  0  0  0  0  3  0  0  0  0  0  0
  161.0470  213.2490  147.1880 C   0  0  0  0  0  0  0  0  0  0  0  0
  158.6290  212.9210  147.4520 N   0  0  0  0  0  0  0  0  0  0  0  0
  159.5160  212.1980  145.4120 C   0  0  0  0  0  3  0  0  0  0  0  0
  156.0130  213.8410  148.8560 C   0  0  0  0  0  3  0  0  0  0  0  0
  158.4950  213.4090  148.7890 C   0  0  0  0  0  0  0  0  0  0  0  0
  157.2980  213.7430  149.3840 C   0  0  0  0  0  0  0  0  0  0  0  0
  158.8640  213.7500  150.9800 N   0  0  0  0  0  0  0  0  0  0  0  0
  161.8470  214.1550  144.9620 C   0  0  0  0  0  3  0  0  0  0  0  0
  159.7000  212.8300  146.7210 C   0  0  0  0  0  0  0  0  0  0  0  0
  161.9520  213.8100  146.3870 C   0  0  0  0  0  3  0  0  0  0  0  0
  161.0380  213.6450  144.0280 C   0  0  0  0  0  0  0  0  0  0  0  0
  156.5470  214.3010  151.6120 C   0  0  0  0  0  3  0  0  0  0  0  0
  157.5590  213.9590  150.7140 C   0  0  0  0  0  0  0  0  0  0  0  0
  161.5420  212.9770  148.5460 C   0  0  0  0  0  3  0  0  0  0  0  0
  159.4450  213.4100  149.8030 C   0  0  0  0  0  0  0  0  0  0  0  0
  161.7490  213.4160  141.5640 C   0  0  0  0  0  0  0  0  0  0  0  0
  161.1400  214.0980  142.6690 N   0  0  0  0  0  2  0  0  0  0  0  0
  162.3190  212.3030  141.7130 O   0  0  0  0  0  0  0  0  0  0  0  0
  161.7070  214.1670  139.9450 S   0  0  0  0  0  1  0  0  0  0  0  0
  159.5130  213.8360  152.2850 C   0  0  0  0  0  2  0  0  0  0  0  0
  160.7930  211.4490  153.0230 O   0  0  0  0  0  1  0  0  0  0  0  0
  159.0270  210.7450  154.5320 C   0  0  2  0  0  3  0  0  0  0  0  0
  158.8540  212.8820  153.2750 C   0  0  2  0  0  3  0  0  0  0  0  0
  158.0020  212.6960  155.3720 C   0  0  0  0  0  2  0  0  0  0  0  0
  157.8550  211.3000  155.1000 O   0  0  0  0  0  0  0  0  0  0  0  0
  160.1530  210.6570  155.5620 C   0  0  0  0  0  1  0  0  0  0  0  0
  158.9740  213.3640  154.5840 O   0  0  0  0  0  0  0  0  0  0  0  0
  159.4070  211.4560  153.2190 C   0  0  1  0  0  3  0  0  0  0  0  0
  1  7  1  0  0  0  0
  2 19  2  0  0  0  0
  3  4  1  0  0  0  0
  4 16  2  0  0  0  0
  5 18  2  0  0  0  0
  6  9  2  0  0  0  0
  7 13  2  0  0  0  0
  8 10  1  0  0  0  0
  8  3  2  0  0  0  0
  9 10  1  0  0  0  0
  9 19  1  0  0  0  0
 10 17  2  0  0  0  0
 11 24  1  0  0  0  0
 12 14  2  0  0  0  0
 13  5  1  0  0  0  0
 13  6  1  0  0  0  0
 14  5  1  0  0  0  0
 15  1  2  0  0  0  0
 15 12  1  0  0  0  0
 17 11  1  0  0  0  0
 17 16  1  0  0  0  0
 18  2  1  0  0  0  0
 19 11  1  0  0  0  0
 20 22  2  0  0  0  0
 20 21  1  0  0  0  0
 21 15  1  0  0  0  0
 23 20  1  0  0  0  0
 26 29  1  0  0  0  0
 26 30  1  1  0  0  0
 27 24  1  6  0  0  0
 27 31  1  0  0  0  0
 29 28  1  0  0  0  0
 31 28  1  0  0  0  0
 32 25  1  1  0  0  0
 32 27  1  0  0  0  0
 32 26  1  0  0  0  0
M  END
>  <MODEL>
7

>  <REMARK>
 VINA RESULT:      -5.9      5.220      7.584
  Name = 
  3 active torsions:
  status: ('A' for Active; 'I' for Inactive)
    1  A    between atoms: N_10  and  C_24
    2  A    between atoms: C_11  and  C_27
    3  A    between atoms: N_16  and  C_27
                            x       y       z     vdW  Elec       q    Type
                         _______ _______ _______ _____ _____    ______ ____

>  <TORSDO>
F 3

$$$$
=
 OpenBabel11062410393D

 32 36  0  0  1  0  0  0  0  0999 V2000
  160.0770  212.0300  155.6710 C   0  0  0  0  0  3  0  0  0  0  0  0
  161.0690  206.8080  154.3000 C   0  0  0  0  0  3  0  0  0  0  0  0
  162.3200  209.1420  148.9240 C   0  0  0  0  0  3  0  0  0  0  0  0
  162.4520  207.7770  148.5870 C   0  0  0  0  0  3  0  0  0  0  0  0
  160.0240  208.9190  155.1640 C   0  0  0  0  0  0  0  0  0  0  0  0
  161.3120  209.7730  153.2570 N   0  0  0  0  0  0  0  0  0  0  0  0
  160.9580  211.3070  154.9880 C   0  0  0  0  0  3  0  0  0  0  0  0
  161.9510  209.5270  150.2250 C   0  0  0  0  0  3  0  0  0  0  0  0
  161.3620  208.5730  152.4820 C   0  0  0  0  0  0  0  0  0  0  0  0
  161.7140  208.5140  151.1520 C   0  0  0  0  0  0  0  0  0  0  0  0
  161.6160  206.4130  151.9110 N   0  0  0  0  0  0  0  0  0  0  0  0
  158.2290  210.4370  156.1090 C   0  0  0  0  0  3  0  0  0  0  0  0
  160.7520  209.9750  154.4130 C   0  0  0  0  0  0  0  0  0  0  0  0
  158.9390  209.1670  155.8970 C   0  0  0  0  0  3  0  0  0  0  0  0
  158.6850  211.6880  155.9940 C   0  0  0  0  0  0  0  0  0  0  0  0
  162.2190  206.7770  149.5490 C   0  0  0  0  0  3  0  0  0  0  0  0
  161.8470  207.1860  150.8310 C   0  0  0  0  0  0  0  0  0  0  0  0
  160.5010  207.5320  155.2580 C   0  0  0  0  0  3  0  0  0  0  0  0
  161.3190  207.2580  152.9300 C   0  0  0  0  0  0  0  0  0  0  0  0
  156.4850  213.0160  155.8330 C   0  0  0  0  0  0  0  0  0  0  0  0
  157.8230  212.7940  156.3010 N   0  0  0  0  0  2  0  0  0  0  0  0
  155.9320  212.2230  155.0260 O   0  0  0  0  0  0  0  0  0  0  0  0
  155.5900  214.4530  156.3980 S   0  0  0  0  0  1  0  0  0  0  0  0
  161.7070  204.9580  151.9780 C   0  0  0  0  0  2  0  0  0  0  0  0
  161.1810  202.2170  151.6730 O   0  0  0  0  0  1  0  0  0  0  0  0
  161.1600  202.2970  149.2470 C   0  0  2  0  0  3  0  0  0  0  0  0
  161.5780  204.3490  150.5870 C   0  0  2  0  0  3  0  0  0  0  0  0
  160.4460  204.4570  148.6210 C   0  0  0  0  0  2  0  0  0  0  0  0
  161.1700  203.2860  148.2340 O   0  0  0  0  0  0  0  0  0  0  0  0
  159.7750  201.6670  149.3910 C   0  0  0  0  0  1  0  0  0  0  0  0
  160.3370  204.6610  150.0210 O   0  0  0  0  0  0  0  0  0  0  0  0
  161.7670  202.8300  150.5590 C   0  0  1  0  0  3  0  0  0  0  0  0
  1 15  1  0  0  0  0
  2 18  2  0  0  0  0
  3  8  1  0  0  0  0
  4  3  2  0  0  0  0
  4 16  1  0  0  0  0
  5 18  1  0  0  0  0
  5 14  2  0  0  0  0
  6 13  2  0  0  0  0
  7  1  2  0  0  0  0
  8 10  2  0  0  0  0
  9 19  2  0  0  0  0
  9  6  1  0  0  0  0
 10  9  1  0  0  0  0
 11 24  1  0  0  0  0
 11 19  1  0  0  0  0
 13  7  1  0  0  0  0
 13  5  1  0  0  0  0
 14 12  1  0  0  0  0
 15 12  2  0  0  0  0
 15 21  1  0  0  0  0
 16 17  2  0  0  0  0
 17 10  1  0  0  0  0
 17 11  1  0  0  0  0
 19  2  1  0  0  0  0
 20 21  1  0  0  0  0
 20 23  1  0  0  0  0
 22 20  2  0  0  0  0
 26 30  1  1  0  0  0
 26 32  1  0  0  0  0
 27 24  1  1  0  0  0
 28 31  1  0  0  0  0
 29 28  1  0  0  0  0
 29 26  1  0  0  0  0
 31 27  1  0  0  0  0
 32 27  1  0  0  0  0
 32 25  1  1  0  0  0
M  END
>  <MODEL>
8

>  <REMARK>
 VINA RESULT:      -5.7      4.447      8.719
  Name = 
  3 active torsions:
  status: ('A' for Active; 'I' for Inactive)
    1  A    between atoms: N_10  and  C_24
    2  A    between atoms: C_11  and  C_27
    3  A    between atoms: N_16  and  C_27
                            x       y       z     vdW  Elec       q    Type
                         _______ _______ _______ _____ _____    ______ ____

>  <TORSDO>
F 3

$$$$
=
 OpenBabel11062410393D

 32 36  0  0  1  0  0  0  0  0999 V2000
  162.4700  204.5830  147.4670 C   0  0  0  0  0  3  0  0  0  0  0  0
  161.8730  209.4700  149.8950 C   0  0  0  0  0  3  0  0  0  0  0  0
  160.8660  206.1760  154.8000 C   0  0  0  0  0  3  0  0  0  0  0  0
  160.6080  207.4490  155.3550 C   0  0  0  0  0  3  0  0  0  0  0  0
  161.6940  207.5120  148.3350 C   0  0  0  0  0  0  0  0  0  0  0  0
  162.0790  206.3780  150.4780 N   0  0  0  0  0  0  0  0  0  0  0  0
  162.8110  205.2110  148.5870 C   0  0  0  0  0  3  0  0  0  0  0  0
  161.2030  206.0410  153.4410 C   0  0  0  0  0  3  0  0  0  0  0  0
  161.5740  207.3940  151.3480 C   0  0  0  0  0  0  0  0  0  0  0  0
  161.2610  207.2040  152.6750 C   0  0  0  0  0  0  0  0  0  0  0  0
  161.1890  209.4030  152.2810 N   0  0  0  0  0  0  0  0  0  0  0  0
  160.8030  206.0990  146.4320 C   0  0  0  0  0  3  0  0  0  0  0  0
  162.1540  206.3790  149.1800 C   0  0  0  0  0  0  0  0  0  0  0  0
  161.1230  207.3440  147.1430 C   0  0  0  0  0  3  0  0  0  0  0  0
  161.3480  204.8850  146.5670 C   0  0  0  0  0  0  0  0  0  0  0  0
  160.6870  208.6060  154.5580 C   0  0  0  0  0  3  0  0  0  0  0  0
  161.0180  208.4440  153.2110 C   0  0  0  0  0  0  0  0  0  0  0  0
  161.9320  208.9200  148.6880 C   0  0  0  0  0  3  0  0  0  0  0  0
  161.5330  208.7670  151.1330 C   0  0  0  0  0  0  0  0  0  0  0  0
  160.4720  202.5050  146.1300 C   0  0  0  0  0  0  0  0  0  0  0  0
  160.9130  203.8080  145.7240 N   0  0  0  0  0  2  0  0  0  0  0  0
  160.4660  202.1610  147.3410 O   0  0  0  0  0  0  0  0  0  0  0  0
  159.9300  201.3410  144.8890 S   0  0  0  0  0  1  0  0  0  0  0  0
  161.0670  210.8440  152.4800 C   0  0  0  0  0  2  0  0  0  0  0  0
  160.6900  211.9260  155.0430 O   0  0  0  0  0  1  0  0  0  0  0  0
  158.2810  212.1220  154.8140 C   0  0  2  0  0  3  0  0  0  0  0  0
  159.6670  211.2010  152.9680 C   0  0  2  0  0  3  0  0  0  0  0  0
  157.8170  212.4400  152.5230 C   0  0  0  0  0  2  0  0  0  0  0  0
  157.3150  211.9960  153.7860 O   0  0  0  0  0  0  0  0  0  0  0  0
  158.5210  213.5890  155.1710 C   0  0  0  0  0  1  0  0  0  0  0  0
  159.2290  212.3960  152.3860 O   0  0  0  0  0  0  0  0  0  0  0  0
  159.5560  211.3200  154.4890 C   0  0  1  0  0  3  0  0  0  0  0  0
  1  7  1  0  0  0  0
  2 19  2  0  0  0  0
  3  4  1  0  0  0  0
  5 18  2  0  0  0  0
  5 13  1  0  0  0  0
  6  9  2  0  0  0  0
  7 13  2  0  0  0  0
  8  3  2  0  0  0  0
  9 10  1  0  0  0  0
 10 17  2  0  0  0  0
 10  8  1  0  0  0  0
 11 24  1  0  0  0  0
 11 17  1  0  0  0  0
 12 15  1  0  0  0  0
 12 14  2  0  0  0  0
 13  6  1  0  0  0  0
 14  5  1  0  0  0  0
 15  1  2  0  0  0  0
 16  4  2  0  0  0  0
 17 16  1  0  0  0  0
 18  2  1  0  0  0  0
 19  9  1  0  0  0  0
 19 11  1  0  0  0  0
 20 22  2  0  0  0  0
 21 20  1  0  0  0  0
 21 15  1  0  0  0  0
 23 20  1  0  0  0  0
 26 30  1  6  0  0  0
 27 24  1  1  0  0  0
 27 32  1  0  0  0  0
 28 29  1  0  0  0  0
 29 26  1  0  0  0  0
 31 28  1  0  0  0  0
 31 27  1  0  0  0  0
 32 26  1  0  0  0  0
 32 25  1  6  0  0  0
M  END
>  <MODEL>
9

>  <REMARK>
 VINA RESULT:      -5.2      2.669      4.623
  Name = 
  3 active torsions:
  status: ('A' for Active; 'I' for Inactive)
    1  A    between atoms: N_10  and  C_24
    2  A    between atoms: C_11  and  C_27
    3  A    between atoms: N_16  and  C_27
                            x       y       z     vdW  Elec       q    Type
                         _______ _______ _______ _____ _____    ______ ____

>  <TORSDO>
F 3

$$$$
