=
 OpenBabel11062410343D

 43 47  0  0  1  0  0  0  0  0999 V2000
  161.1220  206.3160  151.6610 N   0  0  0  0  0  0  0  0  0  0  0  0
  161.2760  206.2880  146.5170 C   0  0  0  0  0  0  0  0  0  0  0  0
  162.1790  207.2580  148.5160 C   0  0  0  0  0  0  0  0  0  0  0  0
  160.1190  205.9220  147.2330 C   0  0  0  0  0  3  0  0  0  0  0  0
  161.3870  205.9570  145.0730 C   0  0  0  0  0  1  0  0  0  0  0  0
  161.0700  206.8800  149.2200 C   0  0  0  0  0  0  0  0  0  0  0  0
  162.3210  206.9700  147.1600 C   0  0  0  0  0  3  0  0  0  0  0  0
  160.0050  206.2260  148.6000 C   0  0  0  0  0  3  0  0  0  0  0  0
  161.1860  207.3710  150.6270 C   0  0  2  0  0  3  0  0  0  0  0  0
  162.5600  208.0810  150.6330 C   0  0  0  0  0  2  0  0  0  0  0  0
  163.0680  207.9520  149.3060 O   0  0  0  0  0  0  0  0  0  0  0  0
  161.6110  205.0240  151.1520 C   0  0  1  0  0  3  0  0  0  0  0  0
  162.6970  204.5830  151.9170 O   0  0  0  0  0  1  0  0  0  0  0  0
  160.5140  203.9650  151.2050 C   0  0  0  0  0  2  0  0  0  0  0  0
  161.1600  202.2890  147.8700 C   0  0  0  0  0  0  0  0  0  0  0  0
  161.2460  200.9440  148.2490 C   0  0  0  0  0  0  0  0  0  0  0  0
  161.4880  199.9610  147.2980 O   0  0  0  0  0  1  0  0  0  0  0  0
  160.8440  201.5700  150.5560 C   0  0  0  0  0  3  0  0  0  0  0  0
  160.9160  203.2730  148.8340 C   0  0  0  0  0  3  0  0  0  0  0  0
  160.7530  202.9130  150.1770 C   0  0  0  0  0  0  0  0  0  0  0  0
  161.3150  202.6460  146.5710 F   0  0  0  0  0  0  0  0  0  0  0  0
  161.0890  200.5860  149.5930 C   0  0  0  0  0  3  0  0  0  0  0  0
  161.7470  206.7170  152.9400 C   0  0  0  0  0  2  0  0  0  0  0  0
  160.7790  206.7310  154.1310 C   0  0  0  0  0  2  0  0  0  0  0  0
  160.6840  208.1030  154.7960 C   0  0  2  0  0  3  0  0  0  0  0  0
  159.8140  208.0590  156.0400 C   0  0  0  0  0  1  0  0  0  0  0  0
  160.1720  209.1630  153.8290 C   0  0  0  0  0  2  0  0  0  0  0  0
  160.3490  211.6430  154.4270 N   0  0  0  0  0  2  0  0  0  0  0  0
  160.9460  210.4480  153.9100 C   0  0  0  0  0  0  0  0  0  0  0  0
  162.1480  210.4870  153.5350 O   0  0  0  0  0  0  0  0  0  0  0  0
  158.9510  211.8900  154.6360 C   0  0  0  0  0  0  0  0  0  0  0  0
  156.7410  212.8830  154.0430 N   0  0  0  0  0  2  0  0  0  0  0  0
  158.4150  211.4720  155.7870 C   0  0  0  0  0  3  0  0  0  0  0  0
  156.9600  211.6400  156.1030 C   0  0  0  0  0  2  0  0  0  0  0  0
  158.0710  212.5020  153.5510 C   0  0  1  0  0  3  0  0  0  0  0  0
  156.1670  211.7890  154.8160 C   0  0  0  0  0  2  0  0  0  0  0  0
  158.7460  213.7330  152.9570 C   0  0  0  0  0  2  0  0  0  0  0  0
  158.8180  213.6380  151.4700 C   0  0  0  0  0  0  0  0  0  0  0  0
  158.9680  213.4910  148.7030 C   0  0  0  0  0  3  0  0  0  0  0  0
  160.1240  213.5430  149.4870 C   0  0  0  0  0  3  0  0  0  0  0  0
  157.7210  213.5140  149.3280 C   0  0  0  0  0  3  0  0  0  0  0  0
  160.0260  213.6160  150.8410 N   0  0  0  0  0  0  0  0  0  0  0  0
  157.6400  213.5870  150.7200 C   0  0  0  0  0  3  0  0  0  0  0  0
  1 23  1  0  0  0  0
  2  7  2  0  0  0  0
  2  4  1  0  0  0  0
  3  6  2  0  0  0  0
  3 11  1  0  0  0  0
  4  8  2  0  0  0  0
  5  2  1  0  0  0  0
  6  9  1  0  0  0  0
  7  3  1  0  0  0  0
  8  6  1  0  0  0  0
  9 10  1  0  0  0  0
  9  1  1  1  0  0  0
 11 10  1  0  0  0  0
 12 14  1  0  0  0  0
 12  1  1  0  0  0  0
 12 13  1  1  0  0  0
 15 16  2  0  0  0  0
 15 19  1  0  0  0  0
 16 22  1  0  0  0  0
 17 16  1  0  0  0  0
 19 20  2  0  0  0  0
 20 18  1  0  0  0  0
 20 14  1  0  0  0  0
 21 15  1  0  0  0  0
 22 18  2  0  0  0  0
 23 24  1  0  0  0  0
 24 25  1  0  0  0  0
 25 26  1  1  0  0  0
 27 29  1  0  0  0  0
 27 25  1  0  0  0  0
 28 31  1  0  0  0  0
 29 28  1  0  0  0  0
 30 29  2  0  0  0  0
 31 33  2  0  0  0  0
 32 36  1  0  0  0  0
 33 34  1  0  0  0  0
 35 37  1  1  0  0  0
 35 32  1  0  0  0  0
 35 31  1  0  0  0  0
 36 34  1  0  0  0  0
 38 37  1  0  0  0  0
 39 41  2  0  0  0  0
 39 40  1  0  0  0  0
 40 42  2  0  0  0  0
 41 43  1  0  0  0  0
 42 38  1  0  0  0  0
 43 38  2  0  0  0  0
M  END
>  <MODEL>
1

>  <REMARK>
 VINA RESULT:      -8.2      0.000      0.000
  Name = 
  12 active torsions:
  status: ('A' for Active; 'I' for Inactive)
    1  A    between atoms: C_1  and  C_34
    2  A    between atoms: C_1  and  C_35
    3  A    between atoms: C_2  and  C_6
    4  A    between atoms: C_2  and  C_13
    5  A    between atoms: N_3  and  C_4
    6  A    between atoms: C_6  and  C_12
    7  A    between atoms: N_8  and  C_27
    8  A    between atoms: N_8  and  C_30
    9  A    between atoms: N_8  and  C_34
   10  A    between atoms: C_11  and  C_14
   11  A    between atoms: C_13  and  C_27
   12  A    between atoms: C_14  and  C_41
                            x       y       z     vdW  Elec       q    Type
                         _______ _______ _______ _____ _____    ______ ____

>  <TORSDO>
F 12

$$$$
=
 OpenBabel11062410343D

 43 47  0  0  1  0  0  0  0  0999 V2000
  161.6910  206.8520  151.3380 N   0  0  0  0  0  0  0  0  0  0  0  0
  161.6100  211.5570  149.2520 C   0  0  0  0  0  0  0  0  0  0  0  0
  161.9780  209.2210  148.8480 C   0  0  0  0  0  0  0  0  0  0  0  0
  161.8810  211.3490  150.6190 C   0  0  0  0  0  3  0  0  0  0  0  0
  161.2750  212.9190  148.7630 C   0  0  0  0  0  1  0  0  0  0  0  0
  162.2130  209.0110  150.1770 C   0  0  0  0  0  0  0  0  0  0  0  0
  161.6630  210.4830  148.3480 C   0  0  0  0  0  3  0  0  0  0  0  0
  162.1940  210.0640  151.0930 C   0  0  0  0  0  3  0  0  0  0  0  0
  162.5710  207.5770  150.3960 C   0  0  2  0  0  3  0  0  0  0  0  0
  162.4840  206.9780  148.9730 C   0  0  0  0  0  2  0  0  0  0  0  0
  162.1190  208.0610  148.1190 O   0  0  0  0  0  0  0  0  0  0  0  0
  161.8250  205.3930  151.1960 C   0  0  1  0  0  3  0  0  0  0  0  0
  162.2330  204.8250  152.4090 O   0  0  0  0  0  1  0  0  0  0  0  0
  160.5000  204.7600  150.7820 C   0  0  0  0  0  2  0  0  0  0  0  0
  161.1620  202.4920  147.8210 C   0  0  0  0  0  0  0  0  0  0  0  0
  161.2310  201.2390  148.4440 C   0  0  0  0  0  0  0  0  0  0  0  0
  161.4720  200.0950  147.6940 O   0  0  0  0  0  1  0  0  0  0  0  0
  160.8120  202.2830  150.5900 C   0  0  0  0  0  3  0  0  0  0  0  0
  160.9190  203.6380  148.5840 C   0  0  0  0  0  3  0  0  0  0  0  0
  160.7390  203.5340  149.9680 C   0  0  0  0  0  0  0  0  0  0  0  0
  161.3340  202.6010  146.4810 F   0  0  0  0  0  0  0  0  0  0  0  0
  161.0560  201.1370  149.8290 C   0  0  0  0  0  3  0  0  0  0  0  0
  161.8240  207.3210  152.7350 C   0  0  0  0  0  2  0  0  0  0  0  0
  160.5030  207.7830  153.3670 C   0  0  0  0  0  2  0  0  0  0  0  0
  160.6860  208.3170  154.7870 C   0  0  2  0  0  3  0  0  0  0  0  0
  160.4150  207.2420  155.8240 C   0  0  0  0  0  1  0  0  0  0  0  0
  159.8100  209.5360  155.0460 C   0  0  0  0  0  2  0  0  0  0  0  0
  159.9680  212.0780  155.2790 N   0  0  0  0  0  2  0  0  0  0  0  0
  160.5500  210.8320  154.8770 C   0  0  0  0  0  0  0  0  0  0  0  0
  161.7120  210.8370  154.3900 O   0  0  0  0  0  0  0  0  0  0  0  0
  158.5880  212.3290  155.5820 C   0  0  0  0  0  0  0  0  0  0  0  0
  156.3010  213.1770  155.0610 N   0  0  0  0  0  2  0  0  0  0  0  0
  158.1760  212.0840  156.8300 C   0  0  0  0  0  3  0  0  0  0  0  0
  156.7520  212.2730  157.2560 C   0  0  0  0  0  2  0  0  0  0  0  0
  157.5920  212.7480  154.5060 C   0  0  1  0  0  3  0  0  0  0  0  0
  155.8380  212.2060  156.0440 C   0  0  0  0  0  2  0  0  0  0  0  0
  158.1680  213.8850  153.6690 C   0  0  0  0  0  2  0  0  0  0  0  0
  157.6020  213.8710  152.2880 C   0  0  0  0  0  0  0  0  0  0  0  0
  156.5210  213.8290  149.7340 C   0  0  0  0  0  3  0  0  0  0  0  0
  155.8420  214.4340  150.7940 C   0  0  0  0  0  3  0  0  0  0  0  0
  157.7620  213.2360  149.9700 C   0  0  0  0  0  3  0  0  0  0  0  0
  156.3910  214.4420  152.0380 N   0  0  0  0  0  0  0  0  0  0  0  0
  158.3100  213.2550  151.2540 C   0  0  0  0  0  3  0  0  0  0  0  0
  1 23  1  0  0  0  0
  2  4  1  0  0  0  0
  3  6  2  0  0  0  0
  4  8  2  0  0  0  0
  5  2  1  0  0  0  0
  6  9  1  0  0  0  0
  6  8  1  0  0  0  0
  7  3  1  0  0  0  0
  7  2  2  0  0  0  0
  9  1  1  1  0  0  0
 10  9  1  0  0  0  0
 11  3  1  0  0  0  0
 11 10  1  0  0  0  0
 12  1  1  0  0  0  0
 12 13  1  1  0  0  0
 14 12  1  0  0  0  0
 15 16  2  0  0  0  0
 15 19  1  0  0  0  0
 16 22  1  0  0  0  0
 17 16  1  0  0  0  0
 19 20  2  0  0  0  0
 20 18  1  0  0  0  0
 20 14  1  0  0  0  0
 21 15  1  0  0  0  0
 22 18  2  0  0  0  0
 23 24  1  0  0  0  0
 24 25  1  0  0  0  0
 25 27  1  0  0  0  0
 25 26  1  1  0  0  0
 28 31  1  0  0  0  0
 29 27  1  0  0  0  0
 29 28  1  0  0  0  0
 30 29  2  0  0  0  0
 31 33  2  0  0  0  0
 32 36  1  0  0  0  0
 33 34  1  0  0  0  0
 35 37  1  1  0  0  0
 35 32  1  0  0  0  0
 35 31  1  0  0  0  0
 36 34  1  0  0  0  0
 38 37  1  0  0  0  0
 39 41  2  0  0  0  0
 39 40  1  0  0  0  0
 40 42  2  0  0  0  0
 41 43  1  0  0  0  0
 42 38  1  0  0  0  0
 43 38  2  0  0  0  0
M  END
>  <MODEL>
2

>  <REMARK>
 VINA RESULT:      -7.8      1.478      2.503
  Name = 
  12 active torsions:
  status: ('A' for Active; 'I' for Inactive)
    1  A    between atoms: C_1  and  C_34
    2  A    between atoms: C_1  and  C_35
    3  A    between atoms: C_2  and  C_6
    4  A    between atoms: C_2  and  C_13
    5  A    between atoms: N_3  and  C_4
    6  A    between atoms: C_6  and  C_12
    7  A    between atoms: N_8  and  C_27
    8  A    between atoms: N_8  and  C_30
    9  A    between atoms: N_8  and  C_34
   10  A    between atoms: C_11  and  C_14
   11  A    between atoms: C_13  and  C_27
   12  A    between atoms: C_14  and  C_41
                            x       y       z     vdW  Elec       q    Type
                         _______ _______ _______ _____ _____    ______ ____

>  <TORSDO>
F 12

$$$$
=
 OpenBabel11062410343D

 43 47  0  0  1  0  0  0  0  0999 V2000
  161.2850  206.6030  149.5750 N   0  0  0  0  0  0  0  0  0  0  0  0
  161.3550  207.6190  154.6200 C   0  0  0  0  0  0  0  0  0  0  0  0
  161.3790  205.8980  152.9490 C   0  0  0  0  0  0  0  0  0  0  0  0
  160.7660  208.4960  153.6880 C   0  0  0  0  0  3  0  0  0  0  0  0
  161.6450  208.0900  155.9990 C   0  0  0  0  0  1  0  0  0  0  0  0
  160.8330  206.7540  152.0360 C   0  0  0  0  0  0  0  0  0  0  0  0
  161.6630  206.2990  154.2530 C   0  0  0  0  0  3  0  0  0  0  0  0
  160.4920  208.0630  152.3800 C   0  0  0  0  0  3  0  0  0  0  0  0
  160.6000  206.0250  150.7510 C   0  0  2  0  0  3  0  0  0  0  0  0
  161.1220  204.6030  151.0620 C   0  0  0  0  0  2  0  0  0  0  0  0
  161.5660  204.6410  152.4180 O   0  0  0  0  0  0  0  0  0  0  0  0
  160.8850  205.9300  148.3280 C   0  0  1  0  0  3  0  0  0  0  0  0
  160.4180  206.8690  147.4010 O   0  0  0  0  0  1  0  0  0  0  0  0
  162.0610  205.1780  147.7110 C   0  0  0  0  0  2  0  0  0  0  0  0
  161.0060  201.5800  147.1760 C   0  0  0  0  0  0  0  0  0  0  0  0
  160.6690  201.5910  145.8160 C   0  0  0  0  0  0  0  0  0  0  0  0
  160.2120  200.4340  145.1970 O   0  0  0  0  0  1  0  0  0  0  0  0
  161.2500  203.9400  145.6920 C   0  0  0  0  0  3  0  0  0  0  0  0
  161.4640  202.7490  147.7910 C   0  0  0  0  0  3  0  0  0  0  0  0
  161.5910  203.9280  147.0480 C   0  0  0  0  0  0  0  0  0  0  0  0
  160.8870  200.4410  147.9020 F   0  0  0  0  0  0  0  0  0  0  0  0
  160.7910  202.7720  145.0760 C   0  0  0  0  0  3  0  0  0  0  0  0
  161.1790  208.0770  149.5060 C   0  0  0  0  0  2  0  0  0  0  0  0
  162.3790  208.7580  148.8350 C   0  0  0  0  0  2  0  0  0  0  0  0
  162.4870  210.2410  149.1890 C   0  0  2  0  0  3  0  0  0  0  0  0
  161.9850  210.5140  150.5960 C   0  0  0  0  0  1  0  0  0  0  0  0
  161.7470  211.1150  148.1830 C   0  0  0  0  0  2  0  0  0  0  0  0
  161.3500  213.6400  148.2390 N   0  0  0  0  0  2  0  0  0  0  0  0
  162.2510  212.5290  148.1590 C   0  0  0  0  0  0  0  0  0  0  0  0
  163.4880  212.7590  148.0850 O   0  0  0  0  0  0  0  0  0  0  0  0
  159.9280  213.6150  148.0460 C   0  0  0  0  0  0  0  0  0  0  0  0
  157.8560  213.6840  146.6590 N   0  0  0  0  0  2  0  0  0  0  0  0
  159.1570  213.6400  149.1380 C   0  0  0  0  0  3  0  0  0  0  0  0
  157.6620  213.5810  149.0650 C   0  0  0  0  0  2  0  0  0  0  0  0
  159.3070  213.4510  146.6630 C   0  0  1  0  0  3  0  0  0  0  0  0
  157.2340  212.9480  147.7520 C   0  0  0  0  0  2  0  0  0  0  0  0
  159.9610  214.4090  145.6740 C   0  0  0  0  0  2  0  0  0  0  0  0
  160.6910  213.6610  144.6090 C   0  0  0  0  0  0  0  0  0  0  0  0
  162.0360  212.2410  142.6420 C   0  0  0  0  0  3  0  0  0  0  0  0
  160.6440  212.1880  142.7460 C   0  0  0  0  0  3  0  0  0  0  0  0
  162.7570  213.0220  143.5460 C   0  0  0  0  0  3  0  0  0  0  0  0
  160.0060  212.8920  143.7190 N   0  0  0  0  0  0  0  0  0  0  0  0
  162.0840  213.7390  144.5380 C   0  0  0  0  0  3  0  0  0  0  0  0
  2  5  1  0  0  0  0
  3  7  2  0  0  0  0
  4  2  2  0  0  0  0
  6  8  2  0  0  0  0
  6  3  1  0  0  0  0
  7  2  1  0  0  0  0
  8  4  1  0  0  0  0
  9  1  1  6  0  0  0
  9 10  1  0  0  0  0
  9  6  1  0  0  0  0
 10 11  1  0  0  0  0
 11  3  1  0  0  0  0
 12 13  1  6  0  0  0
 12  1  1  0  0  0  0
 14 12  1  0  0  0  0
 15 19  1  0  0  0  0
 15 21  1  0  0  0  0
 16 15  2  0  0  0  0
 17 16  1  0  0  0  0
 18 20  1  0  0  0  0
 20 14  1  0  0  0  0
 20 19  2  0  0  0  0
 22 18  2  0  0  0  0
 22 16  1  0  0  0  0
 23  1  1  0  0  0  0
 24 25  1  0  0  0  0
 24 23  1  0  0  0  0
 25 26  1  1  0  0  0
 27 25  1  0  0  0  0
 29 27  1  0  0  0  0
 29 28  1  0  0  0  0
 30 29  2  0  0  0  0
 31 28  1  0  0  0  0
 31 33  2  0  0  0  0
 32 35  1  0  0  0  0
 32 36  1  0  0  0  0
 34 33  1  0  0  0  0
 35 37  1  6  0  0  0
 35 31  1  0  0  0  0
 36 34  1  0  0  0  0
 38 37  1  0  0  0  0
 39 40  2  0  0  0  0
 39 41  1  0  0  0  0
 40 42  1  0  0  0  0
 41 43  2  0  0  0  0
 42 38  2  0  0  0  0
 43 38  1  0  0  0  0
M  END
>  <MODEL>
3

>  <REMARK>
 VINA RESULT:      -7.6      3.073      5.891
  Name = 
  12 active torsions:
  status: ('A' for Active; 'I' for Inactive)
    1  A    between atoms: C_1  and  C_34
    2  A    between atoms: C_1  and  C_35
    3  A    between atoms: C_2  and  C_6
    4  A    between atoms: C_2  and  C_13
    5  A    between atoms: N_3  and  C_4
    6  A    between atoms: C_6  and  C_12
    7  A    between atoms: N_8  and  C_27
    8  A    between atoms: N_8  and  C_30
    9  A    between atoms: N_8  and  C_34
   10  A    between atoms: C_11  and  C_14
   11  A    between atoms: C_13  and  C_27
   12  A    between atoms: C_14  and  C_41
                            x       y       z     vdW  Elec       q    Type
                         _______ _______ _______ _____ _____    ______ ____

>  <TORSDO>
F 12

$$$$
=
 OpenBabel11062410343D

 43 47  0  0  1  0  0  0  0  0999 V2000
  161.6960  206.5800  151.4400 N   0  0  0  0  0  0  0  0  0  0  0  0
  161.8030  211.2980  149.3860 C   0  0  0  0  0  0  0  0  0  0  0  0
  162.1940  208.9640  148.9970 C   0  0  0  0  0  0  0  0  0  0  0  0
  161.9600  211.0800  150.7690 C   0  0  0  0  0  3  0  0  0  0  0  0
  161.5130  212.6650  148.8800 C   0  0  0  0  0  1  0  0  0  0  0  0
  162.3200  208.7440  150.3400 C   0  0  0  0  0  0  0  0  0  0  0  0
  161.9260  210.2300  148.4820 C   0  0  0  0  0  3  0  0  0  0  0  0
  162.2290  209.7920  151.2580 C   0  0  0  0  0  3  0  0  0  0  0  0
  162.6530  207.3070  150.5770 C   0  0  2  0  0  3  0  0  0  0  0  0
  162.6800  206.7170  149.1480 C   0  0  0  0  0  2  0  0  0  0  0  0
  162.3900  207.8080  148.2740 O   0  0  0  0  0  0  0  0  0  0  0  0
  161.7230  205.1310  151.1810 C   0  0  1  0  0  3  0  0  0  0  0  0
  161.8650  204.4280  152.3830 O   0  0  0  0  0  1  0  0  0  0  0  0
  160.4360  204.6740  150.4980 C   0  0  0  0  0  2  0  0  0  0  0  0
  161.2070  202.4880  147.5030 C   0  0  0  0  0  0  0  0  0  0  0  0
  161.2120  201.2140  148.0860 C   0  0  0  0  0  0  0  0  0  0  0  0
  161.4680  200.0900  147.3110 O   0  0  0  0  0  1  0  0  0  0  0  0
  160.7010  202.1980  150.2400 C   0  0  0  0  0  3  0  0  0  0  0  0
  160.9490  203.6140  148.2900 C   0  0  0  0  0  3  0  0  0  0  0  0
  160.6910  203.4700  149.6580 C   0  0  0  0  0  0  0  0  0  0  0  0
  161.4550  202.6360  146.1790 F   0  0  0  0  0  0  0  0  0  0  0  0
  160.9590  201.0710  149.4540 C   0  0  0  0  0  3  0  0  0  0  0  0
  161.8290  206.9230  152.8720 C   0  0  0  0  0  2  0  0  0  0  0  0
  160.5050  207.3090  153.5470 C   0  0  0  0  0  2  0  0  0  0  0  0
  160.7110  207.9790  154.9050 C   0  0  2  0  0  3  0  0  0  0  0  0
  160.1240  207.1460  156.0300 C   0  0  0  0  0  1  0  0  0  0  0  0
  160.1300  209.3880  154.9310 C   0  0  0  0  0  2  0  0  0  0  0  0
  160.8530  211.8250  154.6600 N   0  0  0  0  0  2  0  0  0  0  0  0
  161.1870  210.4550  154.9050 C   0  0  0  0  0  0  0  0  0  0  0  0
  162.3920  210.1560  155.1190 O   0  0  0  0  0  0  0  0  0  0  0  0
  159.6210  212.3320  154.1240 C   0  0  0  0  0  0  0  0  0  0  0  0
  157.3480  213.3420  154.3090 N   0  0  0  0  0  2  0  0  0  0  0  0
  159.4080  212.1780  152.8140 C   0  0  0  0  0  3  0  0  0  0  0  0
  158.1770  212.6970  152.1340 C   0  0  0  0  0  2  0  0  0  0  0  0
  158.6360  213.1210  154.9810 C   0  0  1  0  0  3  0  0  0  0  0  0
  157.5730  213.8250  152.9530 C   0  0  0  0  0  2  0  0  0  0  0  0
  158.3850  212.3950  156.2980 C   0  0  0  0  0  2  0  0  0  0  0  0
  157.0430  211.7440  156.3020 C   0  0  0  0  0  0  0  0  0  0  0  0
  154.5420  210.5440  156.2760 C   0  0  0  0  0  3  0  0  0  0  0  0
  155.5280  210.1770  155.3570 C   0  0  0  0  0  3  0  0  0  0  0  0
  154.8250  211.5320  157.2200 C   0  0  0  0  0  3  0  0  0  0  0  0
  156.7470  210.7790  155.3870 N   0  0  0  0  0  0  0  0  0  0  0  0
  156.0830  212.1390  157.2360 C   0  0  0  0  0  3  0  0  0  0  0  0
  1 23  1  0  0  0  0
  2  4  1  0  0  0  0
  3  6  2  0  0  0  0
  4  8  2  0  0  0  0
  5  2  1  0  0  0  0
  6  9  1  0  0  0  0
  6  8  1  0  0  0  0
  7  3  1  0  0  0  0
  7  2  2  0  0  0  0
  9  1  1  1  0  0  0
 10  9  1  0  0  0  0
 11  3  1  0  0  0  0
 11 10  1  0  0  0  0
 12  1  1  0  0  0  0
 12 13  1  1  0  0  0
 14 12  1  0  0  0  0
 15 16  2  0  0  0  0
 15 19  1  0  0  0  0
 16 22  1  0  0  0  0
 17 16  1  0  0  0  0
 19 20  2  0  0  0  0
 20 18  1  0  0  0  0
 20 14  1  0  0  0  0
 21 15  1  0  0  0  0
 22 18  2  0  0  0  0
 23 24  1  0  0  0  0
 24 25  1  0  0  0  0
 25 27  1  0  0  0  0
 25 26  1  1  0  0  0
 28 29  1  0  0  0  0
 29 27  1  0  0  0  0
 29 30  2  0  0  0  0
 31 28  1  0  0  0  0
 31 35  1  0  0  0  0
 32 35  1  0  0  0  0
 33 31  2  0  0  0  0
 34 33  1  0  0  0  0
 34 36  1  0  0  0  0
 35 37  1  1  0  0  0
 36 32  1  0  0  0  0
 37 38  1  0  0  0  0
 38 43  1  0  0  0  0
 39 41  1  0  0  0  0
 40 42  1  0  0  0  0
 40 39  2  0  0  0  0
 41 43  2  0  0  0  0
 42 38  2  0  0  0  0
M  END
>  <MODEL>
4

>  <REMARK>
 VINA RESULT:      -7.4      1.625      3.739
  Name = 
  12 active torsions:
  status: ('A' for Active; 'I' for Inactive)
    1  A    between atoms: C_1  and  C_34
    2  A    between atoms: C_1  and  C_35
    3  A    between atoms: C_2  and  C_6
    4  A    between atoms: C_2  and  C_13
    5  A    between atoms: N_3  and  C_4
    6  A    between atoms: C_6  and  C_12
    7  A    between atoms: N_8  and  C_27
    8  A    between atoms: N_8  and  C_30
    9  A    between atoms: N_8  and  C_34
   10  A    between atoms: C_11  and  C_14
   11  A    between atoms: C_13  and  C_27
   12  A    between atoms: C_14  and  C_41
                            x       y       z     vdW  Elec       q    Type
                         _______ _______ _______ _____ _____    ______ ____

>  <TORSDO>
F 12

$$$$
=
 OpenBabel11062410343D

 43 47  0  0  1  0  0  0  0  0999 V2000
  162.1650  208.2710  151.9750 N   0  0  0  0  0  0  0  0  0  0  0  0
  159.6170  210.5940  155.7960 C   0  0  0  0  0  0  0  0  0  0  0  0
  160.4660  208.5100  154.9670 C   0  0  0  0  0  0  0  0  0  0  0  0
  159.6230  211.1040  154.4820 C   0  0  0  0  0  3  0  0  0  0  0  0
  159.1560  211.4510  156.9190 C   0  0  0  0  0  1  0  0  0  0  0  0
  160.4990  209.0100  153.6960 C   0  0  0  0  0  0  0  0  0  0  0  0
  160.0380  209.2790  156.0480 C   0  0  0  0  0  3  0  0  0  0  0  0
  160.0610  210.3050  153.4140 C   0  0  0  0  0  3  0  0  0  0  0  0
  160.9530  207.9410  152.7560 C   0  0  2  0  0  3  0  0  0  0  0  0
  161.2000  206.7370  153.6940 C   0  0  0  0  0  2  0  0  0  0  0  0
  160.8730  207.1950  155.0060 O   0  0  0  0  0  0  0  0  0  0  0  0
  162.3570  207.3430  150.8490 C   0  0  1  0  0  3  0  0  0  0  0  0
  163.2310  206.3130  151.2150 O   0  0  0  0  0  1  0  0  0  0  0  0
  161.0290  206.7260  150.4170 C   0  0  0  0  0  2  0  0  0  0  0  0
  161.8160  205.6060  146.8850 C   0  0  0  0  0  0  0  0  0  0  0  0
  161.6260  204.2210  146.9860 C   0  0  0  0  0  0  0  0  0  0  0  0
  161.8230  203.4040  145.8810 O   0  0  0  0  0  1  0  0  0  0  0  0
  161.0380  204.4740  149.3230 C   0  0  0  0  0  3  0  0  0  0  0  0
  161.6160  206.4220  148.0030 C   0  0  0  0  0  3  0  0  0  0  0  0
  161.2220  205.8570  149.2210 C   0  0  0  0  0  0  0  0  0  0  0  0
  162.1960  206.1610  145.7080 F   0  0  0  0  0  0  0  0  0  0  0  0
  161.2380  203.6580  148.2060 C   0  0  0  0  0  3  0  0  0  0  0  0
  162.2320  209.6950  151.5810 C   0  0  0  0  0  2  0  0  0  0  0  0
  162.0190  209.9370  150.0800 C   0  0  0  0  0  2  0  0  0  0  0  0
  162.0070  211.4230  149.7210 C   0  0  2  0  0  3  0  0  0  0  0  0
  160.9490  212.1760  150.5070 C   0  0  0  0  0  1  0  0  0  0  0  0
  161.8090  211.6380  148.2250 C   0  0  0  0  0  2  0  0  0  0  0  0
  160.9860  213.9320  147.4510 N   0  0  0  0  0  2  0  0  0  0  0  0
  162.0640  213.0560  147.8020 C   0  0  0  0  0  0  0  0  0  0  0  0
  163.2420  213.5030  147.7650 O   0  0  0  0  0  0  0  0  0  0  0  0
  159.6320  213.5610  147.1550 C   0  0  0  0  0  0  0  0  0  0  0  0
  157.7610  212.9590  145.6190 N   0  0  0  0  0  2  0  0  0  0  0  0
  158.7540  213.5710  148.1640 C   0  0  0  0  0  3  0  0  0  0  0  0
  157.3220  213.1680  147.9860 C   0  0  0  0  0  2  0  0  0  0  0  0
  159.2190  213.0610  145.7760 C   0  0  1  0  0  3  0  0  0  0  0  0
  157.1880  212.2700  146.7680 C   0  0  0  0  0  2  0  0  0  0  0  0
  159.7660  213.9860  144.6940 C   0  0  0  0  0  2  0  0  0  0  0  0
  160.5320  213.2170  143.6700 C   0  0  0  0  0  0  0  0  0  0  0  0
  161.9660  211.8170  141.7530 C   0  0  0  0  0  3  0  0  0  0  0  0
  162.5980  212.7240  142.6070 C   0  0  0  0  0  3  0  0  0  0  0  0
  160.5900  211.6170  141.8700 C   0  0  0  0  0  3  0  0  0  0  0  0
  161.8750  213.4000  143.5390 N   0  0  0  0  0  0  0  0  0  0  0  0
  159.8640  212.3200  142.8340 C   0  0  0  0  0  3  0  0  0  0  0  0
  2  7  1  0  0  0  0
  2  5  1  0  0  0  0
  3 11  1  0  0  0  0
  3  7  2  0  0  0  0
  4  2  2  0  0  0  0
  6  3  1  0  0  0  0
  8  6  2  0  0  0  0
  8  4  1  0  0  0  0
  9  1  1  1  0  0  0
  9 10  1  0  0  0  0
  9  6  1  0  0  0  0
 10 11  1  0  0  0  0
 12 13  1  1  0  0  0
 12  1  1  0  0  0  0
 14 12  1  0  0  0  0
 15 16  2  0  0  0  0
 15 19  1  0  0  0  0
 16 22  1  0  0  0  0
 17 16  1  0  0  0  0
 19 20  2  0  0  0  0
 20 18  1  0  0  0  0
 20 14  1  0  0  0  0
 21 15  1  0  0  0  0
 22 18  2  0  0  0  0
 23  1  1  0  0  0  0
 24 23  1  0  0  0  0
 25 24  1  0  0  0  0
 25 26  1  1  0  0  0
 27 25  1  0  0  0  0
 28 29  1  0  0  0  0
 29 27  1  0  0  0  0
 30 29  2  0  0  0  0
 31 28  1  0  0  0  0
 31 33  2  0  0  0  0
 32 35  1  0  0  0  0
 32 36  1  0  0  0  0
 34 33  1  0  0  0  0
 35 37  1  6  0  0  0
 35 31  1  0  0  0  0
 36 34  1  0  0  0  0
 38 37  1  0  0  0  0
 39 41  2  0  0  0  0
 39 40  1  0  0  0  0
 40 42  2  0  0  0  0
 41 43  1  0  0  0  0
 42 38  1  0  0  0  0
 43 38  2  0  0  0  0
M  END
>  <MODEL>
5

>  <REMARK>
 VINA RESULT:      -7.4      3.363      6.609
  Name = 
  12 active torsions:
  status: ('A' for Active; 'I' for Inactive)
    1  A    between atoms: C_1  and  C_34
    2  A    between atoms: C_1  and  C_35
    3  A    between atoms: C_2  and  C_6
    4  A    between atoms: C_2  and  C_13
    5  A    between atoms: N_3  and  C_4
    6  A    between atoms: C_6  and  C_12
    7  A    between atoms: N_8  and  C_27
    8  A    between atoms: N_8  and  C_30
    9  A    between atoms: N_8  and  C_34
   10  A    between atoms: C_11  and  C_14
   11  A    between atoms: C_13  and  C_27
   12  A    between atoms: C_14  and  C_41
                            x       y       z     vdW  Elec       q    Type
                         _______ _______ _______ _____ _____    ______ ____

>  <TORSDO>
F 12

$$$$
=
 OpenBabel11062410343D

 43 47  0  0  1  0  0  0  0  0999 V2000
  161.3280  206.8580  151.2560 N   0  0  0  0  0  0  0  0  0  0  0  0
  160.8360  202.7060  148.2540 C   0  0  0  0  0  0  0  0  0  0  0  0
  160.8370  203.5270  150.5080 C   0  0  0  0  0  0  0  0  0  0  0  0
  161.5870  203.8300  147.8580 C   0  0  0  0  0  3  0  0  0  0  0  0
  160.4490  201.6830  147.2480 C   0  0  0  0  0  1  0  0  0  0  0  0
  161.5410  204.6320  150.1220 C   0  0  0  0  0  0  0  0  0  0  0  0
  160.4570  202.5430  149.5960 C   0  0  0  0  0  3  0  0  0  0  0  0
  161.9530  204.8060  148.8000 C   0  0  0  0  0  3  0  0  0  0  0  0
  161.8400  205.4720  151.3220 C   0  0  2  0  0  3  0  0  0  0  0  0
  161.1730  204.6810  152.4720 C   0  0  0  0  0  2  0  0  0  0  0  0
  160.5990  203.5250  151.8640 O   0  0  0  0  0  0  0  0  0  0  0  0
  160.8320  207.3180  152.5630 C   0  0  1  0  0  3  0  0  0  0  0  0
  161.1300  206.3740  153.5520 O   0  0  0  0  0  1  0  0  0  0  0  0
  161.4680  208.6500  152.9520 C   0  0  0  0  0  2  0  0  0  0  0  0
  158.8130  211.2620  153.6390 C   0  0  0  0  0  0  0  0  0  0  0  0
  158.6070  211.0910  155.0140 C   0  0  0  0  0  0  0  0  0  0  0  0
  157.6780  211.8740  155.6870 O   0  0  0  0  0  1  0  0  0  0  0  0
  160.2760  209.3340  155.0440 C   0  0  0  0  0  3  0  0  0  0  0  0
  159.7500  210.4690  152.9690 C   0  0  0  0  0  3  0  0  0  0  0  0
  160.4850  209.5070  153.6720 C   0  0  0  0  0  0  0  0  0  0  0  0
  158.1060  212.1920  152.9510 F   0  0  0  0  0  0  0  0  0  0  0  0
  159.3390  210.1260  155.7150 C   0  0  0  0  0  3  0  0  0  0  0  0
  162.2790  207.7980  150.6250 C   0  0  0  0  0  2  0  0  0  0  0  0
  161.6800  208.6090  149.4670 C   0  0  0  0  0  2  0  0  0  0  0  0
  162.3150  209.9920  149.3270 C   0  0  2  0  0  3  0  0  0  0  0  0
  162.3300  210.7330  150.6510 C   0  0  0  0  0  1  0  0  0  0  0  0
  161.6140  210.8270  148.2610 C   0  0  0  0  0  2  0  0  0  0  0  0
  161.5250  213.3820  148.3100 N   0  0  0  0  0  2  0  0  0  0  0  0
  162.2520  212.1720  148.0640 C   0  0  0  0  0  0  0  0  0  0  0  0
  163.4530  212.2540  147.6910 O   0  0  0  0  0  0  0  0  0  0  0  0
  160.1050  213.5220  148.4590 C   0  0  0  0  0  0  0  0  0  0  0  0
  157.7890  213.8790  147.6040 N   0  0  0  0  0  2  0  0  0  0  0  0
  159.6170  213.5820  149.7030 C   0  0  0  0  0  3  0  0  0  0  0  0
  158.1500  213.6910  149.9860 C   0  0  0  0  0  2  0  0  0  0  0  0
  159.1630  213.4880  147.2600 C   0  0  1  0  0  3  0  0  0  0  0  0
  157.3570  213.1670  148.8000 C   0  0  0  0  0  2  0  0  0  0  0  0
  159.6760  214.4110  146.1610 C   0  0  0  0  0  2  0  0  0  0  0  0
  160.2900  213.6290  145.0490 C   0  0  0  0  0  0  0  0  0  0  0  0
  161.4390  212.2030  142.9650 C   0  0  0  0  0  3  0  0  0  0  0  0
  162.1970  213.0820  143.7430 C   0  0  0  0  0  3  0  0  0  0  0  0
  160.0810  212.0450  143.2450 C   0  0  0  0  0  3  0  0  0  0  0  0
  161.6130  213.7710  144.7590 N   0  0  0  0  0  0  0  0  0  0  0  0
  159.4980  212.7600  144.2930 C   0  0  0  0  0  3  0  0  0  0  0  0
  1 12  1  0  0  0  0
  2  7  1  0  0  0  0
  3 11  1  0  0  0  0
  4  2  2  0  0  0  0
  4  8  1  0  0  0  0
  5  2  1  0  0  0  0
  6  3  1  0  0  0  0
  6  9  1  0  0  0  0
  7  3  2  0  0  0  0
  8  6  2  0  0  0  0
  9  1  1  6  0  0  0
  9 10  1  0  0  0  0
 11 10  1  0  0  0  0
 12 14  1  0  0  0  0
 12 13  1  1  0  0  0
 14 20  1  0  0  0  0
 15 16  1  0  0  0  0
 16 17  1  0  0  0  0
 16 22  2  0  0  0  0
 18 22  1  0  0  0  0
 19 15  2  0  0  0  0
 19 20  1  0  0  0  0
 20 18  2  0  0  0  0
 21 15  1  0  0  0  0
 23  1  1  0  0  0  0
 24 23  1  0  0  0  0
 25 24  1  0  0  0  0
 25 26  1  1  0  0  0
 27 25  1  0  0  0  0
 28 31  1  0  0  0  0
 29 27  1  0  0  0  0
 29 28  1  0  0  0  0
 30 29  2  0  0  0  0
 31 33  2  0  0  0  0
 32 36  1  0  0  0  0
 33 34  1  0  0  0  0
 35 37  1  6  0  0  0
 35 32  1  0  0  0  0
 35 31  1  0  0  0  0
 36 34  1  0  0  0  0
 38 37  1  0  0  0  0
 39 41  2  0  0  0  0
 39 40  1  0  0  0  0
 40 42  2  0  0  0  0
 41 43  1  0  0  0  0
 42 38  1  0  0  0  0
 43 38  2  0  0  0  0
M  END
>  <MODEL>
6

>  <REMARK>
 VINA RESULT:      -6.7      3.355      6.828
  Name = 
  12 active torsions:
  status: ('A' for Active; 'I' for Inactive)
    1  A    between atoms: C_1  and  C_34
    2  A    between atoms: C_1  and  C_35
    3  A    between atoms: C_2  and  C_6
    4  A    between atoms: C_2  and  C_13
    5  A    between atoms: N_3  and  C_4
    6  A    between atoms: C_6  and  C_12
    7  A    between atoms: N_8  and  C_27
    8  A    between atoms: N_8  and  C_30
    9  A    between atoms: N_8  and  C_34
   10  A    between atoms: C_11  and  C_14
   11  A    between atoms: C_13  and  C_27
   12  A    between atoms: C_14  and  C_41
                            x       y       z     vdW  Elec       q    Type
                         _______ _______ _______ _____ _____    ______ ____

>  <TORSDO>
F 12

$$$$
=
 OpenBabel11062410343D

 43 47  0  0  1  0  0  0  0  0999 V2000
  159.6410  213.7860  151.8740 N   0  0  0  0  0  0  0  0  0  0  0  0
  157.6940  212.8230  147.2080 C   0  0  0  0  0  0  0  0  0  0  0  0
  159.6460  213.4760  148.4390 C   0  0  0  0  0  0  0  0  0  0  0  0
  156.8890  213.2590  148.2790 C   0  0  0  0  0  3  0  0  0  0  0  0
  157.0610  212.2490  145.9930 C   0  0  0  0  0  1  0  0  0  0  0  0
  158.8700  213.8740  149.4910 C   0  0  0  0  0  0  0  0  0  0  0  0
  159.0920  212.9360  147.2800 C   0  0  0  0  0  3  0  0  0  0  0  0
  157.4770  213.7990  149.4350 C   0  0  0  0  0  3  0  0  0  0  0  0
  159.7420  214.4530  150.5580 C   0  0  2  0  0  3  0  0  0  0  0  0
  161.1610  214.3070  149.9620 C   0  0  0  0  0  2  0  0  0  0  0  0
  160.9820  213.7070  148.6800 O   0  0  0  0  0  0  0  0  0  0  0  0
  158.4720  214.2580  152.6350 C   0  0  1  0  0  3  0  0  0  0  0  0
  157.3940  213.3840  152.4560 O   0  0  0  0  0  1  0  0  0  0  0  0
  158.7880  214.3450  154.1260 C   0  0  0  0  0  2  0  0  0  0  0  0
  155.5590  213.5440  155.9370 C   0  0  0  0  0  0  0  0  0  0  0  0
  155.8070  212.2370  156.3770 C   0  0  0  0  0  0  0  0  0  0  0  0
  154.8440  211.5470  157.1020 O   0  0  0  0  0  1  0  0  0  0  0  0
  158.0030  212.3110  155.3560 C   0  0  0  0  0  3  0  0  0  0  0  0
  156.5340  214.2320  155.2080 C   0  0  0  0  0  3  0  0  0  0  0  0
  157.7590  213.6170  154.9210 C   0  0  0  0  0  0  0  0  0  0  0  0
  154.3770  214.1470  156.2120 F   0  0  0  0  0  0  0  0  0  0  0  0
  157.0290  211.6220  156.0850 C   0  0  0  0  0  3  0  0  0  0  0  0
  159.7280  212.3130  151.7870 C   0  0  0  0  0  2  0  0  0  0  0  0
  160.4960  211.6630  152.9470 C   0  0  0  0  0  2  0  0  0  0  0  0
  160.5200  210.1380  152.8550 C   0  0  2  0  0  3  0  0  0  0  0  0
  160.1890  209.4960  154.1900 C   0  0  0  0  0  1  0  0  0  0  0  0
  161.8590  209.6260  152.3390 C   0  0  0  0  0  2  0  0  0  0  0  0
  161.5580  208.4380  150.0940 N   0  0  0  0  0  2  0  0  0  0  0  0
  161.9350  209.6020  150.8390 C   0  0  0  0  0  0  0  0  0  0  0  0
  162.3190  210.6240  150.2090 O   0  0  0  0  0  0  0  0  0  0  0  0
  161.3710  207.1100  150.6040 C   0  0  0  0  0  0  0  0  0  0  0  0
  160.8240  204.6860  150.3870 N   0  0  0  0  0  2  0  0  0  0  0  0
  161.4170  206.9450  151.9300 C   0  0  0  0  0  3  0  0  0  0  0  0
  161.2720  205.6020  152.5780 C   0  0  0  0  0  2  0  0  0  0  0  0
  161.2390  205.9050  149.6790 C   0  0  1  0  0  3  0  0  0  0  0  0
  161.6350  204.5100  151.5850 C   0  0  0  0  0  2  0  0  0  0  0  0
  160.2300  206.1970  148.5730 C   0  0  0  0  0  2  0  0  0  0  0  0
  160.8120  205.9090  147.2300 C   0  0  0  0  0  0  0  0  0  0  0  0
  161.8700  205.3500  144.7270 C   0  0  0  0  0  3  0  0  0  0  0  0
  160.5590  205.8110  144.8700 C   0  0  0  0  0  3  0  0  0  0  0  0
  162.6560  205.1680  145.8670 C   0  0  0  0  0  3  0  0  0  0  0  0
  160.0610  206.0780  146.1070 N   0  0  0  0  0  0  0  0  0  0  0  0
  162.1270  205.4490  147.1290 C   0  0  0  0  0  3  0  0  0  0  0  0
  1 12  1  0  0  0  0
  2  7  2  0  0  0  0
  2  4  1  0  0  0  0
  3 11  1  0  0  0  0
  3  6  2  0  0  0  0
  4  8  2  0  0  0  0
  5  2  1  0  0  0  0
  6  9  1  0  0  0  0
  7  3  1  0  0  0  0
  8  6  1  0  0  0  0
  9  1  1  1  0  0  0
 10  9  1  0  0  0  0
 11 10  1  0  0  0  0
 12 13  1  1  0  0  0
 12 14  1  0  0  0  0
 14 20  1  0  0  0  0
 15 21  1  0  0  0  0
 15 16  1  0  0  0  0
 16 17  1  0  0  0  0
 18 22  1  0  0  0  0
 19 15  2  0  0  0  0
 20 19  1  0  0  0  0
 20 18  2  0  0  0  0
 22 16  2  0  0  0  0
 23  1  1  0  0  0  0
 23 24  1  0  0  0  0
 25 24  1  0  0  0  0
 25 26  1  1  0  0  0
 27 25  1  0  0  0  0
 28 31  1  0  0  0  0
 28 29  1  0  0  0  0
 29 27  1  0  0  0  0
 30 29  2  0  0  0  0
 31 33  2  0  0  0  0
 32 36  1  0  0  0  0
 33 34  1  0  0  0  0
 35 37  1  6  0  0  0
 35 32  1  0  0  0  0
 35 31  1  0  0  0  0
 36 34  1  0  0  0  0
 38 37  1  0  0  0  0
 39 40  2  0  0  0  0
 39 41  1  0  0  0  0
 40 42  1  0  0  0  0
 41 43  2  0  0  0  0
 42 38  2  0  0  0  0
 43 38  1  0  0  0  0
M  END
>  <MODEL>
7

>  <REMARK>
 VINA RESULT:      -6.6      3.757      9.295
  Name = 
  12 active torsions:
  status: ('A' for Active; 'I' for Inactive)
    1  A    between atoms: C_1  and  C_34
    2  A    between atoms: C_1  and  C_35
    3  A    between atoms: C_2  and  C_6
    4  A    between atoms: C_2  and  C_13
    5  A    between atoms: N_3  and  C_4
    6  A    between atoms: C_6  and  C_12
    7  A    between atoms: N_8  and  C_27
    8  A    between atoms: N_8  and  C_30
    9  A    between atoms: N_8  and  C_34
   10  A    between atoms: C_11  and  C_14
   11  A    between atoms: C_13  and  C_27
   12  A    between atoms: C_14  and  C_41
                            x       y       z     vdW  Elec       q    Type
                         _______ _______ _______ _____ _____    ______ ____

>  <TORSDO>
F 12

$$$$
=
 OpenBabel11062410343D

 43 47  0  0  1  0  0  0  0  0999 V2000
  161.5940  204.8870  150.7750 N   0  0  0  0  0  0  0  0  0  0  0  0
  160.5010  201.7020  146.8820 C   0  0  0  0  0  0  0  0  0  0  0  0
  160.3540  202.0520  149.2500 C   0  0  0  0  0  0  0  0  0  0  0  0
  161.5810  202.6050  146.8290 C   0  0  0  0  0  3  0  0  0  0  0  0
  160.0240  201.0460  145.6380 C   0  0  0  0  0  1  0  0  0  0  0  0
  161.3830  202.9500  149.1980 C   0  0  0  0  0  0  0  0  0  0  0  0
  159.8790  201.4130  148.1070 C   0  0  0  0  0  3  0  0  0  0  0  0
  162.0370  203.2350  147.9990 C   0  0  0  0  0  3  0  0  0  0  0  0
  161.6960  203.4240  150.5810 C   0  0  2  0  0  3  0  0  0  0  0  0
  160.6620  202.6690  151.4480 C   0  0  0  0  0  2  0  0  0  0  0  0
  159.9060  201.8690  150.5400 O   0  0  0  0  0  0  0  0  0  0  0  0
  160.7970  205.5220  149.7120 C   0  0  1  0  0  3  0  0  0  0  0  0
  159.7070  206.2030  150.2670 O   0  0  0  0  0  1  0  0  0  0  0  0
  161.6390  206.5160  148.9170 C   0  0  0  0  0  2  0  0  0  0  0  0
  160.1920  205.9060  145.4700 C   0  0  0  0  0  0  0  0  0  0  0  0
  161.3560  205.7430  144.7070 C   0  0  0  0  0  0  0  0  0  0  0  0
  161.2710  205.4980  143.3430 O   0  0  0  0  0  1  0  0  0  0  0  0
  162.7030  206.0750  146.6940 C   0  0  0  0  0  3  0  0  0  0  0  0
  160.2860  206.1530  146.8430 C   0  0  0  0  0  3  0  0  0  0  0  0
  161.5410  206.2330  147.4570 C   0  0  0  0  0  0  0  0  0  0  0  0
  158.9720  205.8290  144.8840 F   0  0  0  0  0  0  0  0  0  0  0  0
  162.6100  205.8280  145.3210 C   0  0  0  0  0  3  0  0  0  0  0  0
  161.1610  205.2640  152.1370 C   0  0  0  0  0  2  0  0  0  0  0  0
  162.1300  206.2070  152.8620 C   0  0  0  0  0  2  0  0  0  0  0  0
  161.4210  207.3970  153.5080 C   0  0  2  0  0  3  0  0  0  0  0  0
  160.4910  206.9520  154.6220 C   0  0  0  0  0  1  0  0  0  0  0  0
  160.6580  208.2220  152.4790 C   0  0  0  0  0  2  0  0  0  0  0  0
  161.1950  210.7220  152.5130 N   0  0  0  0  0  2  0  0  0  0  0  0
  161.4370  209.4110  151.9920 C   0  0  0  0  0  0  0  0  0  0  0  0
  162.3360  209.2630  151.1210 O   0  0  0  0  0  0  0  0  0  0  0  0
  160.0590  211.1520  153.2780 C   0  0  0  0  0  0  0  0  0  0  0  0
  158.0300  212.5450  153.6810 N   0  0  0  0  0  2  0  0  0  0  0  0
  159.9310  210.6690  154.5180 C   0  0  0  0  0  3  0  0  0  0  0  0
  158.7690  211.0150  155.3990 C   0  0  0  0  0  2  0  0  0  0  0  0
  158.9700  212.0320  152.6750 C   0  0  1  0  0  3  0  0  0  0  0  0
  157.5910  211.4570  154.5470 C   0  0  0  0  0  2  0  0  0  0  0  0
  159.5950  213.2140  151.9410 C   0  0  0  0  0  2  0  0  0  0  0  0
  159.1060  213.2860  150.5330 C   0  0  0  0  0  0  0  0  0  0  0  0
  158.2140  213.4500  147.9110 C   0  0  0  0  0  3  0  0  0  0  0  0
  159.5790  213.4070  148.2080 C   0  0  0  0  0  3  0  0  0  0  0  0
  157.2890  213.4120  148.9550 C   0  0  0  0  0  3  0  0  0  0  0  0
  159.9930  213.3270  149.5000 N   0  0  0  0  0  0  0  0  0  0  0  0
  157.7340  213.3290  150.2770 C   0  0  0  0  0  3  0  0  0  0  0  0
  1 23  1  0  0  0  0
  2  7  1  0  0  0  0
  3 11  1  0  0  0  0
  4  2  2  0  0  0  0
  4  8  1  0  0  0  0
  5  2  1  0  0  0  0
  6  3  1  0  0  0  0
  6  9  1  0  0  0  0
  7  3  2  0  0  0  0
  8  6  2  0  0  0  0
  9  1  1  6  0  0  0
  9 10  1  0  0  0  0
 11 10  1  0  0  0  0
 12 13  1  1  0  0  0
 12  1  1  0  0  0  0
 14 12  1  0  0  0  0
 15 19  1  0  0  0  0
 16 22  1  0  0  0  0
 16 15  2  0  0  0  0
 17 16  1  0  0  0  0
 18 20  1  0  0  0  0
 19 20  2  0  0  0  0
 20 14  1  0  0  0  0
 21 15  1  0  0  0  0
 22 18  2  0  0  0  0
 23 24  1  0  0  0  0
 24 25  1  0  0  0  0
 25 26  1  1  0  0  0
 27 25  1  0  0  0  0
 28 31  1  0  0  0  0
 29 27  1  0  0  0  0
 29 28  1  0  0  0  0
 30 29  2  0  0  0  0
 31 33  2  0  0  0  0
 32 36  1  0  0  0  0
 33 34  1  0  0  0  0
 35 37  1  1  0  0  0
 35 31  1  0  0  0  0
 35 32  1  0  0  0  0
 36 34  1  0  0  0  0
 38 37  1  0  0  0  0
 39 40  2  0  0  0  0
 39 41  1  0  0  0  0
 40 42  1  0  0  0  0
 41 43  2  0  0  0  0
 42 38  2  0  0  0  0
 43 38  1  0  0  0  0
M  END
>  <MODEL>
8

>  <REMARK>
 VINA RESULT:      -6.5      1.946      3.703
  Name = 
  12 active torsions:
  status: ('A' for Active; 'I' for Inactive)
    1  A    between atoms: C_1  and  C_34
    2  A    between atoms: C_1  and  C_35
    3  A    between atoms: C_2  and  C_6
    4  A    between atoms: C_2  and  C_13
    5  A    between atoms: N_3  and  C_4
    6  A    between atoms: C_6  and  C_12
    7  A    between atoms: N_8  and  C_27
    8  A    between atoms: N_8  and  C_30
    9  A    between atoms: N_8  and  C_34
   10  A    between atoms: C_11  and  C_14
   11  A    between atoms: C_13  and  C_27
   12  A    between atoms: C_14  and  C_41
                            x       y       z     vdW  Elec       q    Type
                         _______ _______ _______ _____ _____    ______ ____

>  <TORSDO>
F 12

$$$$
=
 OpenBabel11062410343D

 43 47  0  0  1  0  0  0  0  0999 V2000
  160.8560  206.7950  150.5440 N   0  0  0  0  0  0  0  0  0  0  0  0
  161.2690  205.6790  145.5370 C   0  0  0  0  0  0  0  0  0  0  0  0
  162.3950  206.5480  147.4680 C   0  0  0  0  0  0  0  0  0  0  0  0
  160.0320  205.9920  146.1340 C   0  0  0  0  0  3  0  0  0  0  0  0
  161.3020  205.0510  144.1910 C   0  0  0  0  0  1  0  0  0  0  0  0
  161.1970  206.8280  148.0610 C   0  0  0  0  0  0  0  0  0  0  0  0
  162.4710  205.9630  146.2050 C   0  0  0  0  0  3  0  0  0  0  0  0
  159.9880  206.5810  147.4090 C   0  0  0  0  0  3  0  0  0  0  0  0
  161.4410  207.4920  149.3780 C   0  0  2  0  0  3  0  0  0  0  0  0
  162.9840  207.5340  149.4640 C   0  0  0  0  0  2  0  0  0  0  0  0
  163.4550  206.9380  148.2560 O   0  0  0  0  0  0  0  0  0  0  0  0
  161.5050  205.4950  150.7820 C   0  0  1  0  0  3  0  0  0  0  0  0
  162.3160  205.5610  151.9210 O   0  0  0  0  0  1  0  0  0  0  0  0
  160.4670  204.3950  150.9860 C   0  0  0  0  0  2  0  0  0  0  0  0
  161.1300  202.3930  147.8390 C   0  0  0  0  0  0  0  0  0  0  0  0
  161.2830  201.1020  148.3610 C   0  0  0  0  0  0  0  0  0  0  0  0
  161.5530  200.0320  147.5170 O   0  0  0  0  0  1  0  0  0  0  0  0
  160.8940  201.9600  150.5940 C   0  0  0  0  0  3  0  0  0  0  0  0
  160.8580  203.4650  148.6950 C   0  0  0  0  0  3  0  0  0  0  0  0
  160.7360  203.2480  150.0730 C   0  0  0  0  0  0  0  0  0  0  0  0
  161.2460  202.6120  146.5060 F   0  0  0  0  0  0  0  0  0  0  0  0
  161.1650  200.8870  149.7390 C   0  0  0  0  0  3  0  0  0  0  0  0
  160.7830  207.6440  151.7530 C   0  0  0  0  0  2  0  0  0  0  0  0
  161.7420  208.8430  151.7320 C   0  0  0  0  0  2  0  0  0  0  0  0
  161.0410  210.1500  151.3650 C   0  0  2  0  0  3  0  0  0  0  0  0
  161.9420  211.0510  150.5400 C   0  0  0  0  0  1  0  0  0  0  0  0
  160.5450  210.8890  152.6030 C   0  0  0  0  0  2  0  0  0  0  0  0
  158.9870  212.8250  153.2090 N   0  0  0  0  0  2  0  0  0  0  0  0
  159.8640  212.1860  152.2730 C   0  0  0  0  0  0  0  0  0  0  0  0
  160.0700  212.7440  151.1620 O   0  0  0  0  0  0  0  0  0  0  0  0
  158.4030  212.2400  154.3820 C   0  0  0  0  0  0  0  0  0  0  0  0
  158.3950  211.5830  156.7880 N   0  0  0  0  0  2  0  0  0  0  0  0
  157.2470  211.5840  154.2350 C   0  0  0  0  0  3  0  0  0  0  0  0
  156.5230  210.9640  155.3910 C   0  0  0  0  0  2  0  0  0  0  0  0
  159.0030  212.4480  155.7680 C   0  0  1  0  0  3  0  0  0  0  0  0
  156.9430  211.6420  156.6850 C   0  0  0  0  0  2  0  0  0  0  0  0
  160.5050  212.1880  155.7360 C   0  0  0  0  0  2  0  0  0  0  0  0
  160.8050  210.7520  156.0080 C   0  0  0  0  0  0  0  0  0  0  0  0
  161.3940  208.0870  156.5050 C   0  0  0  0  0  3  0  0  0  0  0  0
  161.9890  209.1090  157.2490 C   0  0  0  0  0  3  0  0  0  0  0  0
  160.4900  208.4190  155.4940 C   0  0  0  0  0  3  0  0  0  0  0  0
  161.6850  210.4080  156.9880 N   0  0  0  0  0  0  0  0  0  0  0  0
  160.1900  209.7590  155.2410 C   0  0  0  0  0  3  0  0  0  0  0  0
  1 12  1  0  0  0  0
  1 23  1  0  0  0  0
  2  4  2  0  0  0  0
  2  7  1  0  0  0  0
  3  6  1  0  0  0  0
  3 11  1  0  0  0  0
  4  8  1  0  0  0  0
  5  2  1  0  0  0  0
  6  9  1  0  0  0  0
  7  3  2  0  0  0  0
  8  6  2  0  0  0  0
  9 10  1  0  0  0  0
  9  1  1  1  0  0  0
 11 10  1  0  0  0  0
 12 14  1  0  0  0  0
 12 13  1  1  0  0  0
 15 16  2  0  0  0  0
 15 19  1  0  0  0  0
 16 22  1  0  0  0  0
 17 16  1  0  0  0  0
 19 20  2  0  0  0  0
 20 18  1  0  0  0  0
 20 14  1  0  0  0  0
 21 15  1  0  0  0  0
 22 18  2  0  0  0  0
 24 23  1  0  0  0  0
 25 26  1  1  0  0  0
 25 24  1  0  0  0  0
 25 27  1  0  0  0  0
 28 31  1  0  0  0  0
 29 27  1  0  0  0  0
 29 28  1  0  0  0  0
 30 29  2  0  0  0  0
 31 35  1  0  0  0  0
 33 31  2  0  0  0  0
 33 34  1  0  0  0  0
 34 36  1  0  0  0  0
 35 37  1  6  0  0  0
 35 32  1  0  0  0  0
 36 32  1  0  0  0  0
 37 38  1  0  0  0  0
 38 42  1  0  0  0  0
 39 40  1  0  0  0  0
 41 39  2  0  0  0  0
 42 40  2  0  0  0  0
 43 41  1  0  0  0  0
 43 38  2  0  0  0  0
M  END
>  <MODEL>
9

>  <REMARK>
 VINA RESULT:      -6.3      1.694      3.552
  Name = 
  12 active torsions:
  status: ('A' for Active; 'I' for Inactive)
    1  A    between atoms: C_1  and  C_34
    2  A    between atoms: C_1  and  C_35
    3  A    between atoms: C_2  and  C_6
    4  A    between atoms: C_2  and  C_13
    5  A    between atoms: N_3  and  C_4
    6  A    between atoms: C_6  and  C_12
    7  A    between atoms: N_8  and  C_27
    8  A    between atoms: N_8  and  C_30
    9  A    between atoms: N_8  and  C_34
   10  A    between atoms: C_11  and  C_14
   11  A    between atoms: C_13  and  C_27
   12  A    between atoms: C_14  and  C_41
                            x       y       z     vdW  Elec       q    Type
                         _______ _______ _______ _____ _____    ______ ____

>  <TORSDO>
F 12

$$$$
