=
 OpenBabel11052421553D

 30 33  0  0  1  0  0  0  0  0999 V2000
  161.0550  205.7880  148.4530 C   0  0  0  0  0  2  0  0  0  0  0  0
  161.8560  205.1560  146.1460 C   0  0  0  0  0  0  0  0  0  0  0  0
  161.2120  201.3670  149.7160 S   0  0  0  0  0  0  0  0  0  0  0  0
  160.9380  205.3800  149.9470 C   0  0  1  0  0  3  0  0  0  0  0  0
  161.1650  201.9690  151.4500 C   0  0  1  0  0  3  0  0  0  0  0  0
  161.5160  204.2110  145.0720 C   0  0  0  0  0  3  0  0  0  0  0  0
  162.2870  206.3000  145.8480 O   0  0  0  0  0  0  0  0  0  0  0  0
  160.6860  203.0020  149.1800 C   0  0  1  0  0  3  0  0  0  0  0  0
  161.0110  203.0120  145.3590 C   0  0  0  0  0  3  0  0  0  0  0  0
  161.7670  204.7330  147.5890 C   0  0  2  0  0  3  0  0  0  0  0  0
  161.3350  203.9170  150.1790 C   0  0  2  0  0  3  0  0  0  0  0  0
  162.4460  201.5800  152.1600 C   0  0  0  0  0  1  0  0  0  0  0  0
  160.9910  203.4240  151.4990 N   0  0  0  0  0  2  0  0  0  0  0  0
  160.7580  202.6040  146.7510 C   0  0  0  0  0  3  0  0  0  0  0  0
  161.1040  203.3790  147.7860 C   0  0  0  0  0  0  0  0  0  0  0  0
  161.7420  206.3050  150.8760 C   0  0  2  0  0  3  0  0  0  0  0  0
  160.9190  205.8440  153.2350 C   0  0  0  0  0  1  0  0  0  0  0  0
  160.9450  206.8410  152.0810 C   0  0  1  0  0  3  0  0  0  0  0  0
  160.4170  209.2800  152.2880 C   0  0  0  0  0  2  0  0  0  0  0  0
  161.6210  208.2520  154.0420 C   0  0  0  0  0  2  0  0  0  0  0  0
  161.4520  208.2120  152.5420 C   0  0  0  0  0  3  0  0  0  0  0  0
  160.2380  210.0080  153.5340 N   0  0  0  0  0  2  0  0  0  0  0  0
  160.5800  209.1210  154.5680 N   0  0  0  0  0  2  0  0  0  0  0  0
  162.4930  207.4040  150.1280 C   0  0  0  0  0  2  0  0  0  0  0  0
  161.5290  208.2250  149.2900 C   0  0  0  0  0  2  0  0  0  0  0  0
  162.2700  209.3440  148.5810 C   0  0  0  0  0  2  0  0  0  0  0  0
  162.0120  210.6710  149.2730 C   0  0  0  0  0  2  0  0  0  0  0  0
  163.1610  212.3770  148.0750 O   0  0  0  0  0  1  0  0  0  0  0  0
  162.0730  211.7780  148.2820 C   0  0  0  0  0  0  0  0  0  0  0  0
  160.9410  212.1280  147.5590 O   0  0  0  0  0  0  0  0  0  0  0  0
  1  4  1  0  0  0  0
  2 10  1  0  0  0  0
  3  5  1  0  0  0  0
  4 11  1  0  0  0  0
  4 16  1  1  0  0  0
  5 13  1  0  0  0  0
  5 12  1  6  0  0  0
  6  9  2  0  0  0  0
  6  2  1  0  0  0  0
  7  2  2  0  0  0  0
  8 15  1  6  0  0  0
  8  3  1  0  0  0  0
  8 11  1  0  0  0  0
  9 14  1  0  0  0  0
 10 15  1  0  0  0  0
 10  1  1  1  0  0  0
 11 13  1  1  0  0  0
 14 15  2  0  0  0  0
 16 24  1  6  0  0  0
 16 18  1  0  0  0  0
 18 21  1  0  0  0  0
 18 17  1  1  0  0  0
 19 21  1  0  0  0  0
 19 22  1  0  0  0  0
 20 23  1  0  0  0  0
 21 20  1  0  0  0  0
 22 23  1  0  0  0  0
 25 24  1  0  0  0  0
 26 27  1  0  0  0  0
 26 25  1  0  0  0  0
 28 29  1  0  0  0  0
 29 27  1  0  0  0  0
 30 29  2  0  0  0  0
M  END
>  <MODEL>
1

>  <REMARK>
 VINA RESULT:      -7.4      0.000      0.000
  Name = 
  8 active torsions:
  status: ('A' for Active; 'I' for Inactive)
    1  A    between atoms: C_4  and  C_13
    2  A    between atoms: C_7  and  C_15
    3  A    between atoms: C_7  and  C_16
    4  A    between atoms: C_8  and  C_12
    5  A    between atoms: C_8  and  C_13
    6  A    between atoms: C_13  and  C_27
    7  A    between atoms: C_16  and  C_30
    8  A    between atoms: C_27  and  C_30
                            x       y       z     vdW  Elec       q    Type
                         _______ _______ _______ _____ _____    ______ ____

>  <TORSDO>
F 8

$$$$
=
 OpenBabel11052421553D

 30 33  0  0  1  0  0  0  0  0999 V2000
  160.6520  210.8090  152.7540 C   0  0  0  0  0  2  0  0  0  0  0  0
  158.5820  212.2500  152.7690 C   0  0  0  0  0  0  0  0  0  0  0  0
  160.0110  209.8460  157.2060 S   0  0  0  0  0  0  0  0  0  0  0  0
  161.4520  209.6720  153.4480 C   0  0  1  0  0  3  0  0  0  0  0  0
  161.1630  208.4370  156.9600 C   0  0  1  0  0  3  0  0  0  0  0  0
  158.0040  213.3560  153.5460 C   0  0  0  0  0  3  0  0  0  0  0  0
  158.3910  212.2020  151.5250 O   0  0  0  0  0  0  0  0  0  0  0  0
  160.5800  210.5280  155.6420 C   0  0  1  0  0  3  0  0  0  0  0  0
  158.2330  213.4570  154.8540 C   0  0  0  0  0  3  0  0  0  0  0  0
  159.3270  211.1390  153.4620 C   0  0  2  0  0  3  0  0  0  0  0  0
  160.8640  209.3050  154.8170 C   0  0  2  0  0  3  0  0  0  0  0  0
  160.4330  207.1320  157.2060 C   0  0  0  0  0  1  0  0  0  0  0  0
  161.7240  208.4460  155.6060 N   0  0  0  0  0  2  0  0  0  0  0  0
  159.0830  212.4820  155.5580 C   0  0  0  0  0  3  0  0  0  0  0  0
  159.5890  211.4100  154.9350 C   0  0  0  0  0  0  0  0  0  0  0  0
  161.5780  208.4170  152.5680 C   0  0  2  0  0  3  0  0  0  0  0  0
  162.2010  209.9030  150.6040 C   0  0  0  0  0  1  0  0  0  0  0  0
  161.4110  208.6800  151.0600 C   0  0  1  0  0  3  0  0  0  0  0  0
  160.5160  206.8350  149.6230 C   0  0  0  0  0  2  0  0  0  0  0  0
  162.5660  207.8320  149.0010 C   0  0  0  0  0  2  0  0  0  0  0  0
  161.7600  207.4470  150.2180 C   0  0  0  0  0  3  0  0  0  0  0  0
  160.7580  206.6740  148.1980 N   0  0  0  0  0  2  0  0  0  0  0  0
  161.7080  207.6460  147.8410 N   0  0  0  0  0  2  0  0  0  0  0  0
  160.7290  207.2480  153.0630 C   0  0  0  0  0  2  0  0  0  0  0  0
  161.6050  206.0390  153.3390 C   0  0  0  0  0  2  0  0  0  0  0  0
  160.9870  204.7920  152.7330 C   0  0  0  0  0  2  0  0  0  0  0  0
  161.8630  204.2590  151.6130 C   0  0  0  0  0  2  0  0  0  0  0  0
  160.8350  202.1190  151.4370 O   0  0  0  0  0  1  0  0  0  0  0  0
  161.1370  203.1990  150.8650 C   0  0  0  0  0  0  0  0  0  0  0  0
  160.7600  203.4140  149.5460 O   0  0  0  0  0  0  0  0  0  0  0  0
  1  4  1  0  0  0  0
  2 10  1  0  0  0  0
  2  6  1  0  0  0  0
  4 16  1  6  0  0  0
  4 11  1  0  0  0  0
  5 12  1  6  0  0  0
  5  3  1  0  0  0  0
  6  9  2  0  0  0  0
  7  2  2  0  0  0  0
  8 15  1  6  0  0  0
  8  3  1  0  0  0  0
  9 14  1  0  0  0  0
 10  1  1  6  0  0  0
 10 15  1  0  0  0  0
 11 13  1  1  0  0  0
 11  8  1  0  0  0  0
 13  5  1  0  0  0  0
 15 14  2  0  0  0  0
 16 24  1  1  0  0  0
 18 17  1  6  0  0  0
 18 16  1  0  0  0  0
 19 21  1  0  0  0  0
 20 21  1  0  0  0  0
 21 18  1  0  0  0  0
 22 19  1  0  0  0  0
 23 22  1  0  0  0  0
 23 20  1  0  0  0  0
 24 25  1  0  0  0  0
 26 25  1  0  0  0  0
 27 26  1  0  0  0  0
 29 28  1  0  0  0  0
 29 27  1  0  0  0  0
 30 29  2  0  0  0  0
M  END
>  <MODEL>
2

>  <REMARK>
 VINA RESULT:      -7.2      3.840      8.249
  Name = 
  8 active torsions:
  status: ('A' for Active; 'I' for Inactive)
    1  A    between atoms: C_4  and  C_13
    2  A    between atoms: C_7  and  C_15
    3  A    between atoms: C_7  and  C_16
    4  A    between atoms: C_8  and  C_12
    5  A    between atoms: C_8  and  C_13
    6  A    between atoms: C_13  and  C_27
    7  A    between atoms: C_16  and  C_30
    8  A    between atoms: C_27  and  C_30
                            x       y       z     vdW  Elec       q    Type
                         _______ _______ _______ _____ _____    ______ ____

>  <TORSDO>
F 8

$$$$
=
 OpenBabel11052421553D

 30 33  0  0  1  0  0  0  0  0999 V2000
  161.6610  208.9820  151.5840 C   0  0  0  0  0  2  0  0  0  0  0  0
  160.2910  209.9190  153.4840 C   0  0  0  0  0  0  0  0  0  0  0  0
  161.1090  204.7420  153.2810 S   0  0  0  0  0  0  0  0  0  0  0  0
  162.0360  207.7310  150.7440 C   0  0  1  0  0  3  0  0  0  0  0  0
  161.6230  204.1270  151.6290 C   0  0  1  0  0  3  0  0  0  0  0  0
  160.2400  209.8610  154.9520 C   0  0  0  0  0  3  0  0  0  0  0  0
  159.9840  210.9900  152.8970 O   0  0  0  0  0  0  0  0  0  0  0  0
  161.7490  206.3610  152.8290 C   0  0  1  0  0  3  0  0  0  0  0  0
  160.6070  208.7550  155.5990 C   0  0  0  0  0  3  0  0  0  0  0  0
  160.6250  208.6870  152.6830 C   0  0  2  0  0  3  0  0  0  0  0  0
  161.4800  206.4380  151.3530 C   0  0  2  0  0  3  0  0  0  0  0  0
  160.4830  203.3560  150.9940 C   0  0  0  0  0  1  0  0  0  0  0  0
  162.0230  205.2340  150.7550 N   0  0  0  0  0  2  0  0  0  0  0  0
  161.0910  207.5700  154.8710 C   0  0  0  0  0  3  0  0  0  0  0  0
  161.1010  207.5200  153.5330 C   0  0  0  0  0  0  0  0  0  0  0  0
  161.6050  207.8560  149.2730 C   0  0  2  0  0  3  0  0  0  0  0  0
  159.9420  206.1020  148.4920 C   0  0  0  0  0  1  0  0  0  0  0  0
  161.4110  206.5090  148.5520 C   0  0  1  0  0  3  0  0  0  0  0  0
  162.8840  205.2680  146.9520 C   0  0  0  0  0  2  0  0  0  0  0  0
  160.9930  206.3870  146.0810 C   0  0  0  0  0  2  0  0  0  0  0  0
  162.0460  206.5060  147.1570 C   0  0  0  0  0  3  0  0  0  0  0  0
  162.4590  204.6670  145.6980 N   0  0  0  0  0  2  0  0  0  0  0  0
  161.1260  205.0620  145.4950 N   0  0  0  0  0  2  0  0  0  0  0  0
  162.4630  208.8360  148.4760 C   0  0  0  0  0  2  0  0  0  0  0  0
  161.6900  210.1130  148.2000 C   0  0  0  0  0  2  0  0  0  0  0  0
  162.4020  211.3030  148.8150 C   0  0  0  0  0  2  0  0  0  0  0  0
  161.5870  212.5690  148.6150 C   0  0  0  0  0  2  0  0  0  0  0  0
  160.3130  212.9520  146.6410 O   0  0  0  0  0  1  0  0  0  0  0  0
  161.4550  212.8610  147.1630 C   0  0  0  0  0  0  0  0  0  0  0  0
  162.5890  213.0660  146.3900 O   0  0  0  0  0  0  0  0  0  0  0  0
  2  6  1  0  0  0  0
  4 16  1  6  0  0  0
  4 11  1  0  0  0  0
  4  1  1  0  0  0  0
  5 12  1  6  0  0  0
  5  3  1  0  0  0  0
  6  9  2  0  0  0  0
  7  2  2  0  0  0  0
  8  3  1  1  0  0  0
  8 15  1  0  0  0  0
 10  1  1  6  0  0  0
 10  2  1  0  0  0  0
 10 15  1  0  0  0  0
 11 13  1  6  0  0  0
 11  8  1  0  0  0  0
 13  5  1  0  0  0  0
 14  9  1  0  0  0  0
 15 14  2  0  0  0  0
 16 24  1  6  0  0  0
 18 17  1  6  0  0  0
 18 16  1  0  0  0  0
 19 21  1  0  0  0  0
 20 21  1  0  0  0  0
 21 18  1  0  0  0  0
 22 19  1  0  0  0  0
 23 22  1  0  0  0  0
 23 20  1  0  0  0  0
 25 24  1  0  0  0  0
 25 26  1  0  0  0  0
 27 26  1  0  0  0  0
 28 29  1  0  0  0  0
 29 27  1  0  0  0  0
 30 29  2  0  0  0  0
M  END
>  <MODEL>
3

>  <REMARK>
 VINA RESULT:      -7.1      2.663      6.148
  Name = 
  8 active torsions:
  status: ('A' for Active; 'I' for Inactive)
    1  A    between atoms: C_4  and  C_13
    2  A    between atoms: C_7  and  C_15
    3  A    between atoms: C_7  and  C_16
    4  A    between atoms: C_8  and  C_12
    5  A    between atoms: C_8  and  C_13
    6  A    between atoms: C_13  and  C_27
    7  A    between atoms: C_16  and  C_30
    8  A    between atoms: C_27  and  C_30
                            x       y       z     vdW  Elec       q    Type
                         _______ _______ _______ _____ _____    ______ ____

>  <TORSDO>
F 8

$$$$
=
 OpenBabel11052421553D

 30 33  0  0  1  0  0  0  0  0999 V2000
  161.8820  207.8590  151.7830 C   0  0  0  0  0  2  0  0  0  0  0  0
  160.8950  205.9030  150.5320 C   0  0  0  0  0  0  0  0  0  0  0  0
  161.7670  210.3750  147.9340 S   0  0  0  0  0  0  0  0  0  0  0  0
  162.1090  209.3950  151.8260 C   0  0  1  0  0  3  0  0  0  0  0  0
  161.9560  211.8480  149.0150 C   0  0  1  0  0  3  0  0  0  0  0  0
  161.1380  205.1330  149.3030 C   0  0  0  0  0  3  0  0  0  0  0  0
  160.4560  205.3130  151.5540 O   0  0  0  0  0  0  0  0  0  0  0  0
  162.2700  209.3460  149.3200 C   0  0  1  0  0  3  0  0  0  0  0  0
  161.6480  205.7240  148.2240 C   0  0  0  0  0  3  0  0  0  0  0  0
  161.0900  207.3970  150.5470 C   0  0  2  0  0  3  0  0  0  0  0  0
  161.7120  210.0750  150.5100 C   0  0  2  0  0  3  0  0  0  0  0  0
  160.7300  212.7300  148.8960 C   0  0  0  0  0  1  0  0  0  0  0  0
  162.1520  211.4530  150.4130 N   0  0  0  0  0  2  0  0  0  0  0  0
  162.0040  207.1530  148.2320 C   0  0  0  0  0  3  0  0  0  0  0  0
  161.7490  207.9360  149.2870 C   0  0  0  0  0  0  0  0  0  0  0  0
  161.3930  210.0650  153.0100 C   0  0  2  0  0  3  0  0  0  0  0  0
  162.3310  210.3240  155.3570 C   0  0  0  0  0  1  0  0  0  0  0  0
  161.6440  209.3860  154.3700 C   0  0  1  0  0  3  0  0  0  0  0  0
  160.4640  207.2960  155.0890 C   0  0  0  0  0  2  0  0  0  0  0  0
  160.1690  209.2440  156.3940 C   0  0  0  0  0  2  0  0  0  0  0  0
  160.3590  208.7970  154.9650 C   0  0  0  0  0  3  0  0  0  0  0  0
  160.1010  206.9530  156.4540 N   0  0  0  0  0  2  0  0  0  0  0  0
  160.3880  208.0810  157.2410 N   0  0  0  0  0  2  0  0  0  0  0  0
  159.9120  210.3290  152.7450 C   0  0  0  0  0  2  0  0  0  0  0  0
  159.5870  211.7940  152.9790 C   0  0  0  0  0  2  0  0  0  0  0  0
  158.1010  211.9690  153.2320 C   0  0  0  0  0  2  0  0  0  0  0  0
  157.7360  211.4590  154.6150 C   0  0  0  0  0  2  0  0  0  0  0  0
  155.6300  212.5560  154.4420 O   0  0  0  0  0  0  0  0  0  0  0  0
  156.2630  211.5320  154.8080 C   0  0  0  0  0  0  0  0  0  0  0  0
  155.5810  210.4560  155.3590 O   0  0  0  0  0  1  0  0  0  0  0  0
  1  4  1  0  0  0  0
  2 10  1  0  0  0  0
  2  7  2  0  0  0  0
  3  5  1  0  0  0  0
  4 16  1  1  0  0  0
  5 12  1  1  0  0  0
  5 13  1  0  0  0  0
  6  2  1  0  0  0  0
  8  3  1  6  0  0  0
  8 11  1  0  0  0  0
  9 14  1  0  0  0  0
  9  6  2  0  0  0  0
 10  1  1  1  0  0  0
 11 13  1  1  0  0  0
 11  4  1  0  0  0  0
 14 15  2  0  0  0  0
 15  8  1  0  0  0  0
 15 10  1  0  0  0  0
 16 24  1  6  0  0  0
 16 18  1  0  0  0  0
 18 21  1  0  0  0  0
 18 17  1  1  0  0  0
 19 22  1  0  0  0  0
 20 23  1  0  0  0  0
 21 19  1  0  0  0  0
 21 20  1  0  0  0  0
 22 23  1  0  0  0  0
 24 25  1  0  0  0  0
 25 26  1  0  0  0  0
 26 27  1  0  0  0  0
 27 29  1  0  0  0  0
 28 29  2  0  0  0  0
 29 30  1  0  0  0  0
M  END
>  <MODEL>
4

>  <REMARK>
 VINA RESULT:      -6.9      3.788      6.302
  Name = 
  8 active torsions:
  status: ('A' for Active; 'I' for Inactive)
    1  A    between atoms: C_4  and  C_13
    2  A    between atoms: C_7  and  C_15
    3  A    between atoms: C_7  and  C_16
    4  A    between atoms: C_8  and  C_12
    5  A    between atoms: C_8  and  C_13
    6  A    between atoms: C_13  and  C_27
    7  A    between atoms: C_16  and  C_30
    8  A    between atoms: C_27  and  C_30
                            x       y       z     vdW  Elec       q    Type
                         _______ _______ _______ _____ _____    ______ ____

>  <TORSDO>
F 8

$$$$
=
 OpenBabel11052421553D

 30 33  0  0  1  0  0  0  0  0999 V2000
  161.4290  211.0150  151.8620 C   0  0  0  0  0  2  0  0  0  0  0  0
  159.3760  211.6300  153.1940 C   0  0  0  0  0  0  0  0  0  0  0  0
  161.0670  206.6660  153.3160 S   0  0  0  0  0  0  0  0  0  0  0  0
  162.2610  209.8820  151.2030 C   0  0  1  0  0  3  0  0  0  0  0  0
  162.1880  206.2200  151.9320 C   0  0  1  0  0  3  0  0  0  0  0  0
  158.8590  211.4950  154.5640 C   0  0  0  0  0  3  0  0  0  0  0  0
  159.1050  212.6650  152.5310 O   0  0  0  0  0  0  0  0  0  0  0  0
  161.5400  208.3860  153.0880 C   0  0  1  0  0  3  0  0  0  0  0  0
  159.1730  210.4330  155.3050 C   0  0  0  0  0  3  0  0  0  0  0  0
  160.1550  210.5070  152.5590 C   0  0  2  0  0  3  0  0  0  0  0  0
  161.7600  208.4890  151.6050 C   0  0  2  0  0  3  0  0  0  0  0  0
  161.4640  205.3080  150.9630 C   0  0  0  0  0  1  0  0  0  0  0  0
  162.6620  207.4170  151.2300 N   0  0  0  0  0  2  0  0  0  0  0  0
  160.0580  209.3760  154.7880 C   0  0  0  0  0  3  0  0  0  0  0  0
  160.5130  209.3920  153.5290 C   0  0  0  0  0  0  0  0  0  0  0  0
  162.3200  210.0060  149.6720 C   0  0  2  0  0  3  0  0  0  0  0  0
  163.3760  211.7860  148.1990 C   0  0  0  0  0  1  0  0  0  0  0  0
  162.2300  211.4520  149.1490 C   0  0  1  0  0  3  0  0  0  0  0  0
  160.2340  212.9660  149.1320 C   0  0  0  0  0  2  0  0  0  0  0  0
  161.0300  212.1530  147.0610 C   0  0  0  0  0  2  0  0  0  0  0  0
  160.8700  211.7490  148.5060 C   0  0  0  0  0  3  0  0  0  0  0  0
  159.8510  213.8540  148.0470 N   0  0  0  0  0  2  0  0  0  0  0  0
  160.7130  213.5700  146.9740 N   0  0  0  0  0  2  0  0  0  0  0  0
  161.3620  209.0570  148.9550 C   0  0  0  0  0  2  0  0  0  0  0  0
  162.1370  208.0830  148.0850 C   0  0  0  0  0  2  0  0  0  0  0  0
  161.2530  206.9160  147.6850 C   0  0  0  0  0  2  0  0  0  0  0  0
  162.0450  205.9050  146.8750 C   0  0  0  0  0  2  0  0  0  0  0  0
  161.8650  204.8460  144.7510 O   0  0  0  0  0  0  0  0  0  0  0  0
  161.3700  205.6610  145.5730 C   0  0  0  0  0  0  0  0  0  0  0  0
  160.1770  206.3050  145.2770 O   0  0  0  0  0  1  0  0  0  0  0  0
  2  6  1  0  0  0  0
  4 16  1  6  0  0  0
  4 11  1  0  0  0  0
  4  1  1  0  0  0  0
  5 12  1  6  0  0  0
  5  3  1  0  0  0  0
  6  9  2  0  0  0  0
  7  2  2  0  0  0  0
  8  3  1  6  0  0  0
  8 15  1  0  0  0  0
 10  1  1  1  0  0  0
 10  2  1  0  0  0  0
 10 15  1  0  0  0  0
 11 13  1  1  0  0  0
 11  8  1  0  0  0  0
 13  5  1  0  0  0  0
 14  9  1  0  0  0  0
 15 14  2  0  0  0  0
 16 24  1  6  0  0  0
 18 17  1  6  0  0  0
 18 16  1  0  0  0  0
 20 21  1  0  0  0  0
 21 19  1  0  0  0  0
 21 18  1  0  0  0  0
 22 19  1  0  0  0  0
 23 20  1  0  0  0  0
 23 22  1  0  0  0  0
 25 24  1  0  0  0  0
 26 25  1  0  0  0  0
 27 26  1  0  0  0  0
 28 29  2  0  0  0  0
 29 27  1  0  0  0  0
 30 29  1  0  0  0  0
M  END
>  <MODEL>
5

>  <REMARK>
 VINA RESULT:      -6.6      2.987      7.116
  Name = 
  8 active torsions:
  status: ('A' for Active; 'I' for Inactive)
    1  A    between atoms: C_4  and  C_13
    2  A    between atoms: C_7  and  C_15
    3  A    between atoms: C_7  and  C_16
    4  A    between atoms: C_8  and  C_12
    5  A    between atoms: C_8  and  C_13
    6  A    between atoms: C_13  and  C_27
    7  A    between atoms: C_16  and  C_30
    8  A    between atoms: C_27  and  C_30
                            x       y       z     vdW  Elec       q    Type
                         _______ _______ _______ _____ _____    ______ ____

>  <TORSDO>
F 8

$$$$
=
 OpenBabel11052421553D

 30 33  0  0  1  0  0  0  0  0999 V2000
  161.7320  204.5470  150.2570 C   0  0  0  0  0  2  0  0  0  0  0  0
  160.6960  202.3080  150.7830 C   0  0  0  0  0  0  0  0  0  0  0  0
  161.1020  203.7800  145.7650 S   0  0  0  0  0  0  0  0  0  0  0  0
  161.9010  205.6910  149.2210 C   0  0  1  0  0  3  0  0  0  0  0  0
  161.3480  205.5840  145.5290 C   0  0  1  0  0  3  0  0  0  0  0  0
  160.8350  200.8980  150.3890 C   0  0  0  0  0  3  0  0  0  0  0  0
  160.3930  202.5890  151.9730 O   0  0  0  0  0  0  0  0  0  0  0  0
  161.7930  203.9450  147.4180 C   0  0  1  0  0  3  0  0  0  0  0  0
  161.2030  200.5750  149.1500 C   0  0  0  0  0  3  0  0  0  0  0  0
  160.8310  203.4030  149.7580 C   0  0  2  0  0  3  0  0  0  0  0  0
  161.3380  205.3120  147.8450 C   0  0  2  0  0  3  0  0  0  0  0  0
  160.0810  206.2030  144.9740 C   0  0  0  0  0  1  0  0  0  0  0  0
  161.7080  206.2370  146.7910 N   0  0  0  0  0  2  0  0  0  0  0  0
  161.4990  201.6120  148.1460 C   0  0  0  0  0  3  0  0  0  0  0  0
  161.3290  202.9140  148.4070 C   0  0  0  0  0  0  0  0  0  0  0  0
  161.2900  207.0180  149.7010 C   0  0  2  0  0  3  0  0  0  0  0  0
  163.0810  208.1040  148.2640 C   0  0  0  0  0  1  0  0  0  0  0  0
  162.2000  208.2440  149.5020 C   0  0  1  0  0  3  0  0  0  0  0  0
  161.9560  210.5410  150.4710 C   0  0  0  0  0  2  0  0  0  0  0  0
  161.5820  210.2680  148.1540 C   0  0  0  0  0  2  0  0  0  0  0  0
  161.4040  209.5540  149.4720 C   0  0  0  0  0  3  0  0  0  0  0  0
  162.1760  211.7900  149.7610 N   0  0  0  0  0  2  0  0  0  0  0  0
  162.3830  211.4530  148.4130 N   0  0  0  0  0  2  0  0  0  0  0  0
  160.7070  206.9360  151.1100 C   0  0  0  0  0  2  0  0  0  0  0  0
  161.7680  207.2780  152.1410 C   0  0  0  0  0  2  0  0  0  0  0  0
  161.5790  206.4370  153.3900 C   0  0  0  0  0  2  0  0  0  0  0  0
  160.4570  207.0030  154.2430 C   0  0  0  0  0  2  0  0  0  0  0  0
  161.6660  208.0780  155.9890 O   0  0  0  0  0  1  0  0  0  0  0  0
  160.9350  208.2070  154.9720 C   0  0  0  0  0  0  0  0  0  0  0  0
  160.6040  209.4750  154.5130 O   0  0  0  0  0  0  0  0  0  0  0  0
  2  7  2  0  0  0  0
  4 16  1  1  0  0  0
  4  1  1  0  0  0  0
  5 12  1  1  0  0  0
  5  3  1  0  0  0  0
  5 13  1  0  0  0  0
  6  2  1  0  0  0  0
  8  3  1  6  0  0  0
  8 11  1  0  0  0  0
  8 15  1  0  0  0  0
  9  6  2  0  0  0  0
 10  1  1  1  0  0  0
 10  2  1  0  0  0  0
 11 13  1  6  0  0  0
 11  4  1  0  0  0  0
 14 15  2  0  0  0  0
 14  9  1  0  0  0  0
 15 10  1  0  0  0  0
 16 24  1  1  0  0  0
 18 17  1  6  0  0  0
 18 16  1  0  0  0  0
 20 23  1  0  0  0  0
 20 21  1  0  0  0  0
 21 18  1  0  0  0  0
 21 19  1  0  0  0  0
 22 19  1  0  0  0  0
 23 22  1  0  0  0  0
 24 25  1  0  0  0  0
 25 26  1  0  0  0  0
 26 27  1  0  0  0  0
 27 29  1  0  0  0  0
 29 28  1  0  0  0  0
 30 29  2  0  0  0  0
M  END
>  <MODEL>
6

>  <REMARK>
 VINA RESULT:      -6.5      3.361      5.200
  Name = 
  8 active torsions:
  status: ('A' for Active; 'I' for Inactive)
    1  A    between atoms: C_4  and  C_13
    2  A    between atoms: C_7  and  C_15
    3  A    between atoms: C_7  and  C_16
    4  A    between atoms: C_8  and  C_12
    5  A    between atoms: C_8  and  C_13
    6  A    between atoms: C_13  and  C_27
    7  A    between atoms: C_16  and  C_30
    8  A    between atoms: C_27  and  C_30
                            x       y       z     vdW  Elec       q    Type
                         _______ _______ _______ _____ _____    ______ ____

>  <TORSDO>
F 8

$$$$
=
 OpenBabel11052421553D

 30 33  0  0  1  0  0  0  0  0999 V2000
  161.4800  211.2880  151.0720 C   0  0  0  0  0  2  0  0  0  0  0  0
  161.3090  212.0840  148.6840 C   0  0  0  0  0  0  0  0  0  0  0  0
  158.1180  214.1880  152.2770 S   0  0  0  0  0  0  0  0  0  0  0  0
  160.7920  211.1790  152.4600 C   0  0  1  0  0  3  0  0  0  0  0  0
  157.9440  213.1860  153.8060 C   0  0  1  0  0  3  0  0  0  0  0  0
  161.3050  213.3460  147.9310 C   0  0  0  0  0  3  0  0  0  0  0  0
  161.8430  211.0630  148.1760 O   0  0  0  0  0  0  0  0  0  0  0  0
  159.7070  213.3960  151.9900 C   0  0  1  0  0  3  0  0  0  0  0  0
  160.7910  214.4530  148.4660 C   0  0  0  0  0  3  0  0  0  0  0  0
  160.6080  211.9880  150.0150 C   0  0  2  0  0  3  0  0  0  0  0  0
  159.5040  212.0100  152.5330 C   0  0  2  0  0  3  0  0  0  0  0  0
  156.5700  212.5490  153.8450 C   0  0  0  0  0  1  0  0  0  0  0  0
  158.9770  212.1480  153.8760 N   0  0  0  0  0  2  0  0  0  0  0  0
  160.2300  214.4530  149.8280 C   0  0  0  0  0  3  0  0  0  0  0  0
  160.1340  213.3300  150.5500 C   0  0  0  0  0  0  0  0  0  0  0  0
  160.5120  209.7240  152.8680 C   0  0  2  0  0  3  0  0  0  0  0  0
  162.1380  210.3680  154.7100 C   0  0  0  0  0  1  0  0  0  0  0  0
  161.2130  209.2830  154.1670 C   0  0  1  0  0  3  0  0  0  0  0  0
  160.1060  207.3160  155.2520 C   0  0  0  0  0  2  0  0  0  0  0  0
  160.7100  209.1450  156.6210 C   0  0  0  0  0  2  0  0  0  0  0  0
  160.2120  208.8210  155.2330 C   0  0  0  0  0  3  0  0  0  0  0  0
  160.2890  206.8920  156.6300 N   0  0  0  0  0  2  0  0  0  0  0  0
  161.0620  207.8840  157.2560 N   0  0  0  0  0  2  0  0  0  0  0  0
  160.7070  208.7310  151.7240 C   0  0  0  0  0  2  0  0  0  0  0  0
  161.9630  207.9070  151.9490 C   0  0  0  0  0  2  0  0  0  0  0  0
  161.9240  206.6470  151.1040 C   0  0  0  0  0  2  0  0  0  0  0  0
  161.0190  206.8450  149.9000 C   0  0  0  0  0  2  0  0  0  0  0  0
  162.5300  207.7240  148.2840 O   0  0  0  0  0  1  0  0  0  0  0  0
  161.8170  206.7530  148.6490 C   0  0  0  0  0  0  0  0  0  0  0  0
  161.8020  205.5840  147.9000 O   0  0  0  0  0  0  0  0  0  0  0  0
  1  4  1  0  0  0  0
  2 10  1  0  0  0  0
  3  5  1  0  0  0  0
  4 11  1  0  0  0  0
  4 16  1  6  0  0  0
  5 12  1  6  0  0  0
  5 13  1  0  0  0  0
  6  9  2  0  0  0  0
  6  2  1  0  0  0  0
  7  2  2  0  0  0  0
  8 15  1  6  0  0  0
  8  3  1  0  0  0  0
  8 11  1  0  0  0  0
  9 14  1  0  0  0  0
 10 15  1  0  0  0  0
 10  1  1  1  0  0  0
 11 13  1  1  0  0  0
 14 15  2  0  0  0  0
 16 24  1  6  0  0  0
 16 18  1  0  0  0  0
 18 17  1  1  0  0  0
 18 21  1  0  0  0  0
 19 22  1  0  0  0  0
 20 23  1  0  0  0  0
 21 19  1  0  0  0  0
 21 20  1  0  0  0  0
 22 23  1  0  0  0  0
 24 25  1  0  0  0  0
 26 25  1  0  0  0  0
 27 26  1  0  0  0  0
 28 29  1  0  0  0  0
 29 27  1  0  0  0  0
 30 29  2  0  0  0  0
M  END
>  <MODEL>
7

>  <REMARK>
 VINA RESULT:      -6.4      3.838      7.557
  Name = 
  8 active torsions:
  status: ('A' for Active; 'I' for Inactive)
    1  A    between atoms: C_4  and  C_13
    2  A    between atoms: C_7  and  C_15
    3  A    between atoms: C_7  and  C_16
    4  A    between atoms: C_8  and  C_12
    5  A    between atoms: C_8  and  C_13
    6  A    between atoms: C_13  and  C_27
    7  A    between atoms: C_16  and  C_30
    8  A    between atoms: C_27  and  C_30
                            x       y       z     vdW  Elec       q    Type
                         _______ _______ _______ _____ _____    ______ ____

>  <TORSDO>
F 8

$$$$
=
 OpenBabel11052421553D

 30 33  0  0  1  0  0  0  0  0999 V2000
  160.8920  208.0230  152.2470 C   0  0  0  0  0  2  0  0  0  0  0  0
  161.1020  209.1260  154.5060 C   0  0  0  0  0  0  0  0  0  0  0  0
  161.5830  212.0840  150.2010 S   0  0  0  0  0  0  0  0  0  0  0  0
  161.1840  208.1090  150.7240 C   0  0  1  0  0  3  0  0  0  0  0  0
  161.9550  211.1340  148.6740 C   0  0  1  0  0  3  0  0  0  0  0  0
  160.5440  210.2720  155.2390 C   0  0  0  0  0  3  0  0  0  0  0  0
  161.3870  208.0720  155.1310 O   0  0  0  0  0  0  0  0  0  0  0  0
  160.8580  210.5940  150.9000 C   0  0  1  0  0  3  0  0  0  0  0  0
  160.1880  211.3810  154.5930 C   0  0  0  0  0  3  0  0  0  0  0  0
  161.4090  209.2390  153.0350 C   0  0  2  0  0  3  0  0  0  0  0  0
  161.6980  209.4950  150.3120 C   0  0  2  0  0  3  0  0  0  0  0  0
  163.3930  211.3750  148.2600 C   0  0  0  0  0  1  0  0  0  0  0  0
  161.7290  209.7000  148.8770 N   0  0  0  0  0  2  0  0  0  0  0  0
  160.3220  211.4890  153.1300 C   0  0  0  0  0  3  0  0  0  0  0  0
  160.8850  210.5180  152.4010 C   0  0  0  0  0  0  0  0  0  0  0  0
  162.1530  207.0160  150.2450 C   0  0  2  0  0  3  0  0  0  0  0  0
  160.0810  206.2040  149.0210 C   0  0  0  0  0  1  0  0  0  0  0  0
  161.6020  206.1340  149.1090 C   0  0  1  0  0  3  0  0  0  0  0  0
  162.8400  205.2180  147.1340 C   0  0  0  0  0  2  0  0  0  0  0  0
  161.2190  206.8940  146.7490 C   0  0  0  0  0  2  0  0  0  0  0  0
  162.2530  206.4590  147.7590 C   0  0  0  0  0  3  0  0  0  0  0  0
  162.3330  205.1440  145.7730 N   0  0  0  0  0  2  0  0  0  0  0  0
  161.1060  205.8280  145.7660 N   0  0  0  0  0  2  0  0  0  0  0  0
  162.7540  206.2030  151.3890 C   0  0  0  0  0  2  0  0  0  0  0  0
  161.7070  205.2800  151.9870 C   0  0  0  0  0  2  0  0  0  0  0  0
  161.9550  203.8490  151.5500 C   0  0  0  0  0  2  0  0  0  0  0  0
  160.6500  203.1870  151.1420 C   0  0  0  0  0  2  0  0  0  0  0  0
  160.7980  202.7940  148.7980 O   0  0  0  0  0  0  0  0  0  0  0  0
  160.8760  202.3130  149.9590 C   0  0  0  0  0  0  0  0  0  0  0  0
  161.2050  200.9770  150.1360 O   0  0  0  0  0  1  0  0  0  0  0  0
  2  7  2  0  0  0  0
  2  6  1  0  0  0  0
  4 16  1  1  0  0  0
  4  1  1  0  0  0  0
  5 12  1  1  0  0  0
  5 13  1  0  0  0  0
  5  3  1  0  0  0  0
  8  3  1  1  0  0  0
  8 15  1  0  0  0  0
  9  6  2  0  0  0  0
 10  1  1  6  0  0  0
 10  2  1  0  0  0  0
 11 13  1  6  0  0  0
 11  4  1  0  0  0  0
 11  8  1  0  0  0  0
 14  9  1  0  0  0  0
 15 10  1  0  0  0  0
 15 14  2  0  0  0  0
 16 24  1  1  0  0  0
 18 17  1  6  0  0  0
 18 16  1  0  0  0  0
 19 21  1  0  0  0  0
 20 21  1  0  0  0  0
 21 18  1  0  0  0  0
 22 19  1  0  0  0  0
 23 22  1  0  0  0  0
 23 20  1  0  0  0  0
 24 25  1  0  0  0  0
 26 25  1  0  0  0  0
 27 26  1  0  0  0  0
 28 29  2  0  0  0  0
 29 30  1  0  0  0  0
 29 27  1  0  0  0  0
M  END
>  <MODEL>
8

>  <REMARK>
 VINA RESULT:      -6.4      3.856      8.126
  Name = 
  8 active torsions:
  status: ('A' for Active; 'I' for Inactive)
    1  A    between atoms: C_4  and  C_13
    2  A    between atoms: C_7  and  C_15
    3  A    between atoms: C_7  and  C_16
    4  A    between atoms: C_8  and  C_12
    5  A    between atoms: C_8  and  C_13
    6  A    between atoms: C_13  and  C_27
    7  A    between atoms: C_16  and  C_30
    8  A    between atoms: C_27  and  C_30
                            x       y       z     vdW  Elec       q    Type
                         _______ _______ _______ _____ _____    ______ ____

>  <TORSDO>
F 8

$$$$
=
 OpenBabel11052421553D

 30 33  0  0  1  0  0  0  0  0999 V2000
  160.7390  206.5020  151.6950 C   0  0  0  0  0  2  0  0  0  0  0  0
  161.2970  207.0290  154.0980 C   0  0  0  0  0  0  0  0  0  0  0  0
  161.9270  210.7770  150.4840 S   0  0  0  0  0  0  0  0  0  0  0  0
  160.9250  206.8850  150.2020 C   0  0  1  0  0  3  0  0  0  0  0  0
  162.0220  210.1510  148.7600 C   0  0  1  0  0  3  0  0  0  0  0  0
  160.9900  208.0480  155.1120 C   0  0  0  0  0  3  0  0  0  0  0  0
  161.4520  205.8310  154.4540 O   0  0  0  0  0  0  0  0  0  0  0  0
  161.0240  209.2870  150.9300 C   0  0  1  0  0  3  0  0  0  0  0  0
  160.7720  209.3130  154.7570 C   0  0  0  0  0  3  0  0  0  0  0  0
  161.5060  207.4240  152.6590 C   0  0  2  0  0  3  0  0  0  0  0  0
  161.6260  208.2400  150.0360 C   0  0  2  0  0  3  0  0  0  0  0  0
  163.4450  210.2710  148.2520 C   0  0  0  0  0  1  0  0  0  0  0  0
  161.5820  208.7550  148.6820 N   0  0  0  0  0  2  0  0  0  0  0  0
  160.8110  209.7270  153.3440 C   0  0  0  0  0  3  0  0  0  0  0  0
  161.1510  208.8740  152.3690 C   0  0  0  0  0  0  0  0  0  0  0  0
  161.6640  205.8010  149.4010 C   0  0  2  0  0  3  0  0  0  0  0  0
  159.7070  206.2040  147.8320 C   0  0  0  0  0  1  0  0  0  0  0  0
  161.0470  205.5000  148.0220 C   0  0  1  0  0  3  0  0  0  0  0  0
  163.0020  204.7020  146.6760 C   0  0  0  0  0  2  0  0  0  0  0  0
  161.2860  205.8760  145.5530 C   0  0  0  0  0  2  0  0  0  0  0  0
  162.0120  205.8230  146.8760 C   0  0  0  0  0  3  0  0  0  0  0  0
  162.9770  204.3560  145.2640 N   0  0  0  0  0  2  0  0  0  0  0  0
  161.7050  204.7130  144.7870 N   0  0  0  0  0  2  0  0  0  0  0  0
  161.9430  204.5380  150.2130 C   0  0  0  0  0  2  0  0  0  0  0  0
  160.6830  203.6980  150.3320 C   0  0  0  0  0  2  0  0  0  0  0  0
  161.0010  202.2360  150.0820 C   0  0  0  0  0  2  0  0  0  0  0  0
  160.0820  201.6700  149.0120 C   0  0  0  0  0  2  0  0  0  0  0  0
  161.5810  200.2020  147.8870 O   0  0  0  0  0  1  0  0  0  0  0  0
  160.8820  201.2480  147.8320 C   0  0  0  0  0  0  0  0  0  0  0  0
  160.8320  201.9860  146.6580 O   0  0  0  0  0  0  0  0  0  0  0  0
  2  7  2  0  0  0  0
  2  6  1  0  0  0  0
  4 16  1  6  0  0  0
  4  1  1  0  0  0  0
  5 12  1  1  0  0  0
  5  3  1  0  0  0  0
  8  3  1  1  0  0  0
  8 15  1  0  0  0  0
  9  6  2  0  0  0  0
 10  1  1  6  0  0  0
 10  2  1  0  0  0  0
 11 13  1  6  0  0  0
 11  4  1  0  0  0  0
 11  8  1  0  0  0  0
 13  5  1  0  0  0  0
 14  9  1  0  0  0  0
 15 10  1  0  0  0  0
 15 14  2  0  0  0  0
 16 24  1  1  0  0  0
 18 17  1  6  0  0  0
 18 16  1  0  0  0  0
 19 21  1  0  0  0  0
 20 21  1  0  0  0  0
 21 18  1  0  0  0  0
 22 19  1  0  0  0  0
 23 22  1  0  0  0  0
 23 20  1  0  0  0  0
 24 25  1  0  0  0  0
 26 25  1  0  0  0  0
 27 26  1  0  0  0  0
 29 28  1  0  0  0  0
 29 27  1  0  0  0  0
 30 29  2  0  0  0  0
M  END
>  <MODEL>
9

>  <REMARK>
 VINA RESULT:      -6.0      3.789      8.000
  Name = 
  8 active torsions:
  status: ('A' for Active; 'I' for Inactive)
    1  A    between atoms: C_4  and  C_13
    2  A    between atoms: C_7  and  C_15
    3  A    between atoms: C_7  and  C_16
    4  A    between atoms: C_8  and  C_12
    5  A    between atoms: C_8  and  C_13
    6  A    between atoms: C_13  and  C_27
    7  A    between atoms: C_16  and  C_30
    8  A    between atoms: C_27  and  C_30
                            x       y       z     vdW  Elec       q    Type
                         _______ _______ _______ _____ _____    ______ ____

>  <TORSDO>
F 8

$$$$
