=
 OpenBabel11052421523D

 30 34  0  0  1  0  0  0  0  0999 V2000
  161.4570  206.3300  147.9120 C   0  0  0  0  0  3  0  0  0  0  0  0
  161.5000  204.9800  145.7830 C   0  0  2  0  0  3  0  0  0  0  0  0
  160.9150  203.1130  150.3980 N   0  0  0  0  0  2  0  0  0  0  0  0
  161.3200  206.4660  149.3050 C   0  0  0  0  0  0  0  0  0  0  0  0
  160.8400  203.8560  151.5310 C   0  0  0  0  0  0  0  0  0  0  0  0
  161.6000  203.5490  145.2450 C   0  0  0  0  0  2  0  0  0  0  0  0
  162.6280  205.7480  145.2800 N   0  0  0  0  0  1  0  0  0  0  0  0
  161.1080  204.0620  149.4630 C   0  0  0  0  0  0  0  0  0  0  0  0
  160.7000  202.6020  146.0270 C   0  0  0  0  0  2  0  0  0  0  0  0
  161.4390  205.0590  147.2930 C   0  0  0  0  0  0  0  0  0  0  0  0
  161.1400  205.2950  150.0470 C   0  0  0  0  0  0  0  0  0  0  0  0
  160.6590  203.3500  152.6690 O   0  0  0  0  0  0  0  0  0  0  0  0
  160.9700  205.1550  151.3370 O   0  0  0  0  0  0  0  0  0  0  0  0
  161.1840  202.5310  147.4680 C   0  0  0  0  0  2  0  0  0  0  0  0
  161.2330  203.8970  148.0830 C   0  0  0  0  0  0  0  0  0  0  0  0
  161.2860  207.8370  149.9170 C   0  0  1  0  0  3  0  0  0  0  0  0
  162.9180  208.7480  151.4270 O   0  0  0  0  0  1  0  0  0  0  0  0
  161.8340  207.8650  151.3650 C   0  0  1  0  0  3  0  0  0  0  0  0
  161.0340  207.6620  153.7330 C   0  0  0  0  0  2  0  0  0  0  0  0
  160.7150  209.7740  152.6450 C   0  0  0  0  0  2  0  0  0  0  0  0
  160.7540  208.2790  152.3790 C   0  0  0  0  0  3  0  0  0  0  0  0
  160.3550  208.5700  154.7360 C   0  0  0  0  0  2  0  0  0  0  0  0
  160.2860  209.9430  154.0920 C   0  0  0  0  0  2  0  0  0  0  0  0
  161.9870  208.8390  149.0000 C   0  0  0  0  0  2  0  0  0  0  0  0
  162.1030  211.1750  148.1910 C   0  0  1  0  0  3  0  0  0  0  0  0
  162.2820  211.1820  149.6970 C   0  0  0  0  0  2  0  0  0  0  0  0
  161.3250  210.2010  149.0550 C   0  0  2  0  0  3  0  0  0  0  0  0
  160.9770  212.2870  146.4120 O   0  0  0  0  0  1  0  0  0  0  0  0
  161.1970  212.3230  147.7890 C   0  0  2  0  0  3  0  0  0  0  0  0
  161.8450  213.6390  148.1540 C   0  0  0  0  0  1  0  0  0  0  0  0
  1  4  1  0  0  0  0
  2  7  1  1  0  0  0
  2 10  1  0  0  0  0
  3  5  1  0  0  0  0
  4 16  1  0  0  0  0
  4 11  2  0  0  0  0
  5 12  2  0  0  0  0
  6  2  1  0  0  0  0
  6  9  1  0  0  0  0
  8 11  1  0  0  0  0
  8  3  1  0  0  0  0
  9 14  1  0  0  0  0
 10  1  2  0  0  0  0
 10 15  1  0  0  0  0
 11 13  1  0  0  0  0
 13  5  1  0  0  0  0
 14 15  1  0  0  0  0
 15  8  2  0  0  0  0
 16 24  1  6  0  0  0
 16 18  1  0  0  0  0
 18 17  1  6  0  0  0
 18 21  1  0  0  0  0
 19 22  1  0  0  0  0
 20 23  1  0  0  0  0
 21 20  1  0  0  0  0
 21 19  1  0  0  0  0
 23 22  1  0  0  0  0
 25 29  1  1  0  0  0
 25 27  1  0  0  0  0
 25 26  1  0  0  0  0
 27 24  1  6  0  0  0
 27 26  1  0  0  0  0
 28 29  1  0  0  0  0
 29 30  1  6  0  0  0
M  END
>  <MODEL>
1

>  <REMARK>
 VINA RESULT:      -8.3      0.000      0.000
  Name = 
  6 active torsions:
  status: ('A' for Active; 'I' for Inactive)
    1  A    between atoms: C_4  and  C_13
    2  A    between atoms: C_7  and  C_15
    3  A    between atoms: C_8  and  C_12
    4  A    between atoms: C_8  and  C_13
    5  A    between atoms: C_13  and  C_27
    6  A    between atoms: C_27  and  C_30
                            x       y       z     vdW  Elec       q    Type
                         _______ _______ _______ _____ _____    ______ ____

>  <TORSDO>
F 6

$$$$
=
 OpenBabel11052421523D

 30 34  0  0  1  0  0  0  0  0999 V2000
  161.2850  205.4000  150.5180 C   0  0  0  0  0  3  0  0  0  0  0  0
  161.3350  202.9540  151.1290 C   0  0  2  0  0  3  0  0  0  0  0  0
  160.7810  204.7810  146.4950 N   0  0  0  0  0  2  0  0  0  0  0  0
  161.2140  206.4570  149.5940 C   0  0  0  0  0  0  0  0  0  0  0  0
  160.8100  206.1000  146.1730 C   0  0  0  0  0  0  0  0  0  0  0  0
  161.0510  201.5510  150.5820 C   0  0  0  0  0  2  0  0  0  0  0  0
  160.4730  203.1890  152.2780 N   0  0  0  0  0  1  0  0  0  0  0  0
  160.9310  204.8260  147.8320 C   0  0  0  0  0  0  0  0  0  0  0  0
  161.6110  201.3860  149.1760 C   0  0  0  0  0  2  0  0  0  0  0  0
  161.1600  204.0530  150.1040 C   0  0  0  0  0  0  0  0  0  0  0  0
  161.0410  206.1200  148.2490 C   0  0  0  0  0  0  0  0  0  0  0  0
  160.7000  206.5170  144.9900 O   0  0  0  0  0  0  0  0  0  0  0  0
  160.9650  206.9070  147.2060 O   0  0  0  0  0  0  0  0  0  0  0  0
  160.8920  202.3430  148.2360 C   0  0  0  0  0  2  0  0  0  0  0  0
  161.0060  203.7560  148.7240 C   0  0  0  0  0  0  0  0  0  0  0  0
  161.4100  207.8690  150.0660 C   0  0  1  0  0  3  0  0  0  0  0  0
  162.8220  209.0930  151.5770 O   0  0  0  0  0  1  0  0  0  0  0  0
  162.0170  207.9510  151.4870 C   0  0  1  0  0  3  0  0  0  0  0  0
  161.2090  206.9340  153.6330 C   0  0  0  0  0  2  0  0  0  0  0  0
  160.8800  209.2910  153.3440 C   0  0  0  0  0  2  0  0  0  0  0  0
  160.9300  207.9820  152.5760 C   0  0  0  0  0  3  0  0  0  0  0  0
  160.5190  207.4340  154.8840 C   0  0  0  0  0  2  0  0  0  0  0  0
  160.4440  208.9450  154.7570 C   0  0  0  0  0  2  0  0  0  0  0  0
  162.2110  208.6620  149.0340 C   0  0  0  0  0  2  0  0  0  0  0  0
  162.5290  211.0770  148.5920 C   0  0  1  0  0  3  0  0  0  0  0  0
  161.6380  210.9280  149.8090 C   0  0  0  0  0  2  0  0  0  0  0  0
  161.5120  209.9530  148.6580 C   0  0  2  0  0  3  0  0  0  0  0  0
  162.9880  212.6130  146.8310 O   0  0  0  0  0  1  0  0  0  0  0  0
  161.9920  212.1870  147.7100 C   0  0  2  0  0  3  0  0  0  0  0  0
  161.5540  213.3540  148.5660 C   0  0  0  0  0  1  0  0  0  0  0  0
  2  7  1  1  0  0  0
  3  8  1  0  0  0  0
  4 16  1  0  0  0  0
  4  1  2  0  0  0  0
  5  3  1  0  0  0  0
  5 13  1  0  0  0  0
  6  2  1  0  0  0  0
  8 11  2  0  0  0  0
  8 15  1  0  0  0  0
  9  6  1  0  0  0  0
 10  1  1  0  0  0  0
 10  2  1  0  0  0  0
 11  4  1  0  0  0  0
 12  5  2  0  0  0  0
 13 11  1  0  0  0  0
 14 15  1  0  0  0  0
 14  9  1  0  0  0  0
 15 10  2  0  0  0  0
 16 24  1  6  0  0  0
 16 18  1  0  0  0  0
 18 17  1  6  0  0  0
 18 21  1  0  0  0  0
 19 22  1  0  0  0  0
 20 23  1  0  0  0  0
 21 20  1  0  0  0  0
 21 19  1  0  0  0  0
 23 22  1  0  0  0  0
 25 29  1  6  0  0  0
 25 27  1  0  0  0  0
 25 26  1  0  0  0  0
 27 24  1  1  0  0  0
 27 26  1  0  0  0  0
 28 29  1  0  0  0  0
 29 30  1  1  0  0  0
M  END
>  <MODEL>
2

>  <REMARK>
 VINA RESULT:      -8.3      1.789      3.240
  Name = 
  6 active torsions:
  status: ('A' for Active; 'I' for Inactive)
    1  A    between atoms: C_4  and  C_13
    2  A    between atoms: C_7  and  C_15
    3  A    between atoms: C_8  and  C_12
    4  A    between atoms: C_8  and  C_13
    5  A    between atoms: C_13  and  C_27
    6  A    between atoms: C_27  and  C_30
                            x       y       z     vdW  Elec       q    Type
                         _______ _______ _______ _____ _____    ______ ____

>  <TORSDO>
F 6

$$$$
=
 OpenBabel11052421523D

 30 34  0  0  1  0  0  0  0  0999 V2000
  161.1320  207.0970  151.8370 C   0  0  0  0  0  3  0  0  0  0  0  0
  160.4910  207.8650  154.1520 C   0  0  2  0  0  3  0  0  0  0  0  0
  161.9130  210.8540  150.3880 N   0  0  0  0  0  2  0  0  0  0  0  0
  161.5270  207.3280  150.5070 C   0  0  0  0  0  0  0  0  0  0  0  0
  162.2040  210.4330  149.1310 C   0  0  0  0  0  0  0  0  0  0  0  0
  160.5220  209.0760  155.0900 C   0  0  0  0  0  2  0  0  0  0  0  0
  161.2560  206.7860  154.7570 N   0  0  0  0  0  1  0  0  0  0  0  0
  161.6350  209.6920  151.0060 C   0  0  0  0  0  0  0  0  0  0  0  0
  160.0910  210.3440  154.3670 C   0  0  0  0  0  2  0  0  0  0  0  0
  161.0060  208.1620  152.7600 C   0  0  0  0  0  0  0  0  0  0  0  0
  161.7640  208.6520  150.1310 C   0  0  0  0  0  0  0  0  0  0  0  0
  162.5250  211.2210  148.2030 O   0  0  0  0  0  0  0  0  0  0  0  0
  162.1180  209.1270  148.9630 O   0  0  0  0  0  0  0  0  0  0  0  0
  161.0950  210.6560  153.2660 C   0  0  0  0  0  2  0  0  0  0  0  0
  161.2380  209.4950  152.3290 C   0  0  0  0  0  0  0  0  0  0  0  0
  161.5910  206.1780  149.5430 C   0  0  1  0  0  3  0  0  0  0  0  0
  161.9030  205.0140  151.6220 O   0  0  0  0  0  1  0  0  0  0  0  0
  161.9030  204.8290  150.2340 C   0  0  1  0  0  3  0  0  0  0  0  0
  161.3620  202.9930  148.6140 C   0  0  0  0  0  2  0  0  0  0  0  0
  160.7300  202.6570  150.9020 C   0  0  0  0  0  2  0  0  0  0  0  0
  160.8910  203.7370  149.8450 C   0  0  0  0  0  3  0  0  0  0  0  0
  160.6960  201.6350  148.6870 C   0  0  0  0  0  2  0  0  0  0  0  0
  160.4290  201.3680  150.1580 C   0  0  0  0  0  2  0  0  0  0  0  0
  160.3190  206.1300  148.6980 C   0  0  0  0  0  2  0  0  0  0  0  0
  161.0370  205.2680  146.4910 C   0  0  1  0  0  3  0  0  0  0  0  0
  162.0640  206.2780  146.9670 C   0  0  0  0  0  2  0  0  0  0  0  0
  160.5950  206.5020  147.2550 C   0  0  2  0  0  3  0  0  0  0  0  0
  160.0230  204.4140  144.5140 O   0  0  0  0  0  1  0  0  0  0  0  0
  160.7780  205.4750  145.0110 C   0  0  2  0  0  3  0  0  0  0  0  0
  162.0920  205.5410  144.2660 C   0  0  0  0  0  1  0  0  0  0  0  0
  1 10  1  0  0  0  0
  2  7  1  1  0  0  0
  2  6  1  0  0  0  0
  3  8  1  0  0  0  0
  4  1  2  0  0  0  0
  5  3  1  0  0  0  0
  8 15  1  0  0  0  0
  9  6  1  0  0  0  0
 10  2  1  0  0  0  0
 11  4  1  0  0  0  0
 11  8  2  0  0  0  0
 12  5  2  0  0  0  0
 13  5  1  0  0  0  0
 13 11  1  0  0  0  0
 14  9  1  0  0  0  0
 15 10  2  0  0  0  0
 15 14  1  0  0  0  0
 16 24  1  1  0  0  0
 16 18  1  0  0  0  0
 16  4  1  0  0  0  0
 18 17  1  1  0  0  0
 19 22  1  0  0  0  0
 19 21  1  0  0  0  0
 21 18  1  0  0  0  0
 21 20  1  0  0  0  0
 22 23  1  0  0  0  0
 23 20  1  0  0  0  0
 25 29  1  6  0  0  0
 25 26  1  0  0  0  0
 25 27  1  0  0  0  0
 26 27  1  0  0  0  0
 27 24  1  1  0  0  0
 28 29  1  0  0  0  0
 29 30  1  6  0  0  0
M  END
>  <MODEL>
3

>  <REMARK>
 VINA RESULT:      -8.1      2.466      7.153
  Name = 
  6 active torsions:
  status: ('A' for Active; 'I' for Inactive)
    1  A    between atoms: C_4  and  C_13
    2  A    between atoms: C_7  and  C_15
    3  A    between atoms: C_8  and  C_12
    4  A    between atoms: C_8  and  C_13
    5  A    between atoms: C_13  and  C_27
    6  A    between atoms: C_27  and  C_30
                            x       y       z     vdW  Elec       q    Type
                         _______ _______ _______ _____ _____    ______ ____

>  <TORSDO>
F 6

$$$$
=
 OpenBabel11052421523D

 30 34  0  0  1  0  0  0  0  0999 V2000
  160.9110  207.2440  151.3090 C   0  0  0  0  0  3  0  0  0  0  0  0
  160.8830  207.5610  153.8110 C   0  0  2  0  0  3  0  0  0  0  0  0
  162.3140  211.0040  150.4610 N   0  0  0  0  0  2  0  0  0  0  0  0
  161.1140  207.6960  149.9930 C   0  0  0  0  0  0  0  0  0  0  0  0
  162.2730  210.8390  149.1150 C   0  0  0  0  0  0  0  0  0  0  0  0
  161.3670  208.4870  154.9310 C   0  0  0  0  0  2  0  0  0  0  0  0
  161.4580  206.2400  154.0170 N   0  0  0  0  0  1  0  0  0  0  0  0
  161.8750  209.8080  150.8940 C   0  0  0  0  0  0  0  0  0  0  0  0
  161.1370  209.9490  154.5740 C   0  0  0  0  0  2  0  0  0  0  0  0
  161.2060  208.0660  152.4220 C   0  0  0  0  0  0  0  0  0  0  0  0
  161.5950  208.9980  149.8320 C   0  0  0  0  0  0  0  0  0  0  0  0
  162.6100  211.7420  148.3050 O   0  0  0  0  0  0  0  0  0  0  0  0
  161.8460  209.6520  148.7260 O   0  0  0  0  0  0  0  0  0  0  0  0
  161.9810  210.3040  153.3580 C   0  0  0  0  0  2  0  0  0  0  0  0
  161.6750  209.3900  152.2110 C   0  0  0  0  0  0  0  0  0  0  0  0
  160.7320  206.8150  148.8390 C   0  0  1  0  0  3  0  0  0  0  0  0
  163.0820  206.4800  148.4710 O   0  0  0  0  0  1  0  0  0  0  0  0
  161.8670  206.6570  147.7990 C   0  0  1  0  0  3  0  0  0  0  0  0
  160.7620  205.9180  145.6730 C   0  0  0  0  0  2  0  0  0  0  0  0
  162.8780  204.9290  146.2100 C   0  0  0  0  0  2  0  0  0  0  0  0
  161.6120  205.4770  146.8450 C   0  0  0  0  0  3  0  0  0  0  0  0
  161.0850  204.9480  144.5560 C   0  0  0  0  0  2  0  0  0  0  0  0
  162.4880  204.4340  144.8280 C   0  0  0  0  0  2  0  0  0  0  0  0
  160.2100  205.4730  149.3530 C   0  0  0  0  0  2  0  0  0  0  0  0
  160.4840  203.0370  149.0090 C   0  0  1  0  0  3  0  0  0  0  0  0
  161.1700  203.4160  150.3070 C   0  0  0  0  0  2  0  0  0  0  0  0
  161.2150  204.3620  149.1260 C   0  0  2  0  0  3  0  0  0  0  0  0
  160.9090  201.9500  146.9330 O   0  0  0  0  0  1  0  0  0  0  0  0
  161.3520  202.0510  148.2510 C   0  0  2  0  0  3  0  0  0  0  0  0
  161.2730  200.6910  148.9070 C   0  0  0  0  0  1  0  0  0  0  0  0
  1 10  1  0  0  0  0
  2  7  1  1  0  0  0
  2  6  1  0  0  0  0
  3  8  1  0  0  0  0
  4  1  2  0  0  0  0
  5  3  1  0  0  0  0
  8 15  1  0  0  0  0
  9  6  1  0  0  0  0
 10  2  1  0  0  0  0
 11  4  1  0  0  0  0
 11  8  2  0  0  0  0
 12  5  2  0  0  0  0
 13  5  1  0  0  0  0
 13 11  1  0  0  0  0
 14  9  1  0  0  0  0
 15 10  2  0  0  0  0
 15 14  1  0  0  0  0
 16 24  1  1  0  0  0
 16  4  1  0  0  0  0
 18 17  1  1  0  0  0
 18 16  1  0  0  0  0
 19 21  1  0  0  0  0
 20 21  1  0  0  0  0
 21 18  1  0  0  0  0
 22 23  1  0  0  0  0
 22 19  1  0  0  0  0
 23 20  1  0  0  0  0
 25 29  1  6  0  0  0
 25 27  1  0  0  0  0
 25 26  1  0  0  0  0
 27 24  1  1  0  0  0
 27 26  1  0  0  0  0
 28 29  1  0  0  0  0
 29 30  1  1  0  0  0
M  END
>  <MODEL>
4

>  <REMARK>
 VINA RESULT:      -8.1      2.447      7.931
  Name = 
  6 active torsions:
  status: ('A' for Active; 'I' for Inactive)
    1  A    between atoms: C_4  and  C_13
    2  A    between atoms: C_7  and  C_15
    3  A    between atoms: C_8  and  C_12
    4  A    between atoms: C_8  and  C_13
    5  A    between atoms: C_13  and  C_27
    6  A    between atoms: C_27  and  C_30
                            x       y       z     vdW  Elec       q    Type
                         _______ _______ _______ _____ _____    ______ ____

>  <TORSDO>
F 6

$$$$
=
 OpenBabel11052421523D

 30 34  0  0  1  0  0  0  0  0999 V2000
  161.3270  207.2600  149.5480 C   0  0  0  0  0  3  0  0  0  0  0  0
  161.2080  205.2300  148.0570 C   0  0  2  0  0  3  0  0  0  0  0  0
  161.1450  205.1640  153.0680 N   0  0  0  0  0  2  0  0  0  0  0  0
  161.3230  207.8920  150.8040 C   0  0  0  0  0  0  0  0  0  0  0  0
  161.1560  206.2670  153.8580 C   0  0  0  0  0  0  0  0  0  0  0  0
  161.3050  203.7010  148.0640 C   0  0  0  0  0  2  0  0  0  0  0  0
  162.2540  205.7600  147.1960 N   0  0  0  0  0  1  0  0  0  0  0  0
  161.2110  205.7090  151.8400 C   0  0  0  0  0  0  0  0  0  0  0  0
  160.5200  203.1050  149.2240 C   0  0  0  0  0  2  0  0  0  0  0  0
  161.2930  205.8510  149.4340 C   0  0  0  0  0  0  0  0  0  0  0  0
  161.2570  207.0700  151.9320 C   0  0  0  0  0  0  0  0  0  0  0  0
  161.1050  206.2090  155.1150 O   0  0  0  0  0  0  0  0  0  0  0  0
  161.2210  207.4080  153.1960 O   0  0  0  0  0  0  0  0  0  0  0  0
  161.1440  203.5590  150.5350 C   0  0  0  0  0  2  0  0  0  0  0  0
  161.2060  205.0550  150.6070 C   0  0  0  0  0  0  0  0  0  0  0  0
  161.3010  209.3910  150.8800 C   0  0  1  0  0  3  0  0  0  0  0  0
  163.0860  210.3950  152.1370 O   0  0  0  0  0  1  0  0  0  0  0  0
  161.7700  209.9320  152.2530 C   0  0  1  0  0  3  0  0  0  0  0  0
  159.4160  210.7880  152.3860 C   0  0  0  0  0  2  0  0  0  0  0  0
  160.8310  211.1690  154.2840 C   0  0  0  0  0  2  0  0  0  0  0  0
  160.8560  211.0570  152.7690 C   0  0  0  0  0  3  0  0  0  0  0  0
  158.5840  211.5340  153.4070 C   0  0  0  0  0  2  0  0  0  0  0  0
  159.4380  211.6450  154.6570 C   0  0  0  0  0  2  0  0  0  0  0  0
  162.0830  209.9880  149.7100 C   0  0  0  0  0  2  0  0  0  0  0  0
  161.5260  211.5480  147.8710 C   0  0  1  0  0  3  0  0  0  0  0  0
  162.7060  212.1140  148.6360 C   0  0  0  0  0  2  0  0  0  0  0  0
  161.6050  211.3870  149.3770 C   0  0  2  0  0  3  0  0  0  0  0  0
  159.5900  212.2030  146.6490 O   0  0  0  0  0  1  0  0  0  0  0  0
  160.5600  212.6680  147.5360 C   0  0  2  0  0  3  0  0  0  0  0  0
  161.3090  213.8150  146.8960 C   0  0  0  0  0  1  0  0  0  0  0  0
  1  4  1  0  0  0  0
  2  7  1  6  0  0  0
  2  6  1  0  0  0  0
  2 10  1  0  0  0  0
  3  5  1  0  0  0  0
  4 16  1  0  0  0  0
  4 11  2  0  0  0  0
  5 12  2  0  0  0  0
  6  9  1  0  0  0  0
  8 11  1  0  0  0  0
  8  3  1  0  0  0  0
  9 14  1  0  0  0  0
 10  1  2  0  0  0  0
 10 15  1  0  0  0  0
 11 13  1  0  0  0  0
 13  5  1  0  0  0  0
 14 15  1  0  0  0  0
 15  8  2  0  0  0  0
 16 24  1  6  0  0  0
 16 18  1  0  0  0  0
 18 17  1  6  0  0  0
 18 21  1  0  0  0  0
 19 21  1  0  0  0  0
 19 22  1  0  0  0  0
 20 23  1  0  0  0  0
 21 20  1  0  0  0  0
 22 23  1  0  0  0  0
 25 29  1  1  0  0  0
 25 26  1  0  0  0  0
 25 27  1  0  0  0  0
 26 27  1  0  0  0  0
 27 24  1  6  0  0  0
 28 29  1  0  0  0  0
 29 30  1  6  0  0  0
M  END
>  <MODEL>
5

>  <REMARK>
 VINA RESULT:      -7.8      1.740      2.492
  Name = 
  6 active torsions:
  status: ('A' for Active; 'I' for Inactive)
    1  A    between atoms: C_4  and  C_13
    2  A    between atoms: C_7  and  C_15
    3  A    between atoms: C_8  and  C_12
    4  A    between atoms: C_8  and  C_13
    5  A    between atoms: C_13  and  C_27
    6  A    between atoms: C_27  and  C_30
                            x       y       z     vdW  Elec       q    Type
                         _______ _______ _______ _____ _____    ______ ____

>  <TORSDO>
F 6

$$$$
=
 OpenBabel11052421523D

 30 34  0  0  1  0  0  0  0  0999 V2000
  160.4640  209.5410  152.4790 C   0  0  0  0  0  3  0  0  0  0  0  0
  159.8880  211.9780  152.7810 C   0  0  2  0  0  3  0  0  0  0  0  0
  160.0820  208.5630  156.4450 N   0  0  0  0  0  2  0  0  0  0  0  0
  160.7070  208.2440  152.9650 C   0  0  0  0  0  0  0  0  0  0  0  0
  160.4450  207.2660  156.2770 C   0  0  0  0  0  0  0  0  0  0  0  0
  159.3110  212.9820  153.7830 C   0  0  0  0  0  2  0  0  0  0  0  0
  159.0370  211.9560  151.6000 N   0  0  0  0  0  1  0  0  0  0  0  0
  160.1530  209.0300  155.1840 C   0  0  0  0  0  0  0  0  0  0  0  0
  159.9020  212.7770  155.1710 C   0  0  0  0  0  2  0  0  0  0  0  0
  160.0470  210.5820  153.3420 C   0  0  0  0  0  0  0  0  0  0  0  0
  160.5440  208.0340  154.3370 C   0  0  0  0  0  0  0  0  0  0  0  0
  160.5140  206.4470  157.2300 O   0  0  0  0  0  0  0  0  0  0  0  0
  160.7250  206.9380  155.0300 O   0  0  0  0  0  0  0  0  0  0  0  0
  159.4950  211.4050  155.6880 C   0  0  0  0  0  2  0  0  0  0  0  0
  159.9130  210.3280  154.7330 C   0  0  0  0  0  0  0  0  0  0  0  0
  161.2060  207.1820  152.0270 C   0  0  1  0  0  3  0  0  0  0  0  0
  163.3540  206.9530  150.9760 O   0  0  0  0  0  1  0  0  0  0  0  0
  162.1900  207.7300  150.9650 C   0  0  1  0  0  3  0  0  0  0  0  0
  162.6040  207.3470  148.5210 C   0  0  0  0  0  2  0  0  0  0  0  0
  160.4560  206.7190  149.3820 C   0  0  0  0  0  2  0  0  0  0  0  0
  161.5700  207.7360  149.5570 C   0  0  0  0  0  3  0  0  0  0  0  0
  161.8140  206.7900  147.3560 C   0  0  0  0  0  2  0  0  0  0  0  0
  160.5120  206.2630  147.9340 C   0  0  0  0  0  2  0  0  0  0  0  0
  161.7830  206.0100  152.8200 C   0  0  0  0  0  2  0  0  0  0  0  0
  161.6360  203.9460  151.4610 C   0  0  1  0  0  3  0  0  0  0  0  0
  160.4000  204.7820  151.1930 C   0  0  0  0  0  2  0  0  0  0  0  0
  160.9940  204.7380  152.5850 C   0  0  2  0  0  3  0  0  0  0  0  0
  162.3320  201.7360  152.0110 O   0  0  0  0  0  1  0  0  0  0  0  0
  161.2380  202.4880  151.5840 C   0  0  2  0  0  3  0  0  0  0  0  0
  160.7730  201.9690  150.2420 C   0  0  0  0  0  1  0  0  0  0  0  0
  1  4  2  0  0  0  0
  1 10  1  0  0  0  0
  2  7  1  6  0  0  0
  2 10  1  0  0  0  0
  2  6  1  0  0  0  0
  4 11  1  0  0  0  0
  5  3  1  0  0  0  0
  5 12  2  0  0  0  0
  6  9  1  0  0  0  0
  8  3  1  0  0  0  0
  9 14  1  0  0  0  0
 10 15  2  0  0  0  0
 11 13  1  0  0  0  0
 11  8  2  0  0  0  0
 13  5  1  0  0  0  0
 15  8  1  0  0  0  0
 15 14  1  0  0  0  0
 16 24  1  1  0  0  0
 16  4  1  0  0  0  0
 18 17  1  6  0  0  0
 18 16  1  0  0  0  0
 19 21  1  0  0  0  0
 20 21  1  0  0  0  0
 21 18  1  0  0  0  0
 22 23  1  0  0  0  0
 22 19  1  0  0  0  0
 23 20  1  0  0  0  0
 25 29  1  1  0  0  0
 25 27  1  0  0  0  0
 26 25  1  0  0  0  0
 26 27  1  0  0  0  0
 27 24  1  6  0  0  0
 29 30  1  6  0  0  0
 29 28  1  0  0  0  0
M  END
>  <MODEL>
6

>  <REMARK>
 VINA RESULT:      -7.1      3.581      7.928
  Name = 
  6 active torsions:
  status: ('A' for Active; 'I' for Inactive)
    1  A    between atoms: C_4  and  C_13
    2  A    between atoms: C_7  and  C_15
    3  A    between atoms: C_8  and  C_12
    4  A    between atoms: C_8  and  C_13
    5  A    between atoms: C_13  and  C_27
    6  A    between atoms: C_27  and  C_30
                            x       y       z     vdW  Elec       q    Type
                         _______ _______ _______ _____ _____    ______ ____

>  <TORSDO>
F 6

$$$$
=
 OpenBabel11052421523D

 30 34  0  0  1  0  0  0  0  0999 V2000
  160.9270  207.2390  151.3380 C   0  0  0  0  0  3  0  0  0  0  0  0
  161.1930  205.1650  149.9290 C   0  0  2  0  0  3  0  0  0  0  0  0
  162.2350  209.8380  148.4470 N   0  0  0  0  0  2  0  0  0  0  0  0
  161.0370  208.6230  151.5600 C   0  0  0  0  0  0  0  0  0  0  0  0
  162.1380  210.9400  149.2330 C   0  0  0  0  0  0  0  0  0  0  0  0
  161.4310  204.6850  148.4940 C   0  0  0  0  0  2  0  0  0  0  0  0
  159.9100  204.6510  150.3860 N   0  0  0  0  0  1  0  0  0  0  0  0
  161.8160  208.8710  149.2840 C   0  0  0  0  0  0  0  0  0  0  0  0
  162.5350  205.4880  147.8210 C   0  0  0  0  0  2  0  0  0  0  0  0
  161.2430  206.6690  150.0830 C   0  0  0  0  0  0  0  0  0  0  0  0
  161.4960  209.4070  150.4980 C   0  0  0  0  0  0  0  0  0  0  0  0
  162.4420  212.0950  148.8330 O   0  0  0  0  0  0  0  0  0  0  0  0
  161.7020  210.6990  150.4550 O   0  0  0  0  0  0  0  0  0  0  0  0
  162.0930  206.9390  147.6970 C   0  0  0  0  0  2  0  0  0  0  0  0
  161.7240  207.5010  149.0370 C   0  0  0  0  0  0  0  0  0  0  0  0
  160.7490  209.1810  152.9240 C   0  0  1  0  0  3  0  0  0  0  0  0
  162.2850  210.2880  154.4040 O   0  0  0  0  0  1  0  0  0  0  0  0
  161.9390  209.0280  153.9020 C   0  0  1  0  0  3  0  0  0  0  0  0
  161.5310  208.8260  156.3690 C   0  0  0  0  0  2  0  0  0  0  0  0
  160.2530  207.4010  154.9250 C   0  0  0  0  0  2  0  0  0  0  0  0
  161.6110  208.0690  155.0600 C   0  0  0  0  0  3  0  0  0  0  0  0
  160.6380  207.9910  157.2610 C   0  0  0  0  0  2  0  0  0  0  0  0
  159.7320  207.1960  156.3370 C   0  0  0  0  0  2  0  0  0  0  0  0
  160.2600  210.6250  152.8090 C   0  0  0  0  0  2  0  0  0  0  0  0
  158.6990  212.1690  153.9510 C   0  0  1  0  0  3  0  0  0  0  0  0
  158.9370  210.9760  154.8550 C   0  0  0  0  0  2  0  0  0  0  0  0
  158.8560  210.7820  153.3560 C   0  0  2  0  0  3  0  0  0  0  0  0
  157.0130  213.6790  153.2100 O   0  0  0  0  0  1  0  0  0  0  0  0
  157.2280  212.5380  153.9820 C   0  0  2  0  0  3  0  0  0  0  0  0
  156.8000  212.8140  155.4060 C   0  0  0  0  0  1  0  0  0  0  0  0
  1  4  1  0  0  0  0
  2 10  1  0  0  0  0
  2  7  1  6  0  0  0
  3  5  1  0  0  0  0
  3  8  1  0  0  0  0
  4 16  1  0  0  0  0
  5 13  1  0  0  0  0
  6  2  1  0  0  0  0
  8 11  1  0  0  0  0
  9  6  1  0  0  0  0
 10  1  2  0  0  0  0
 11  4  2  0  0  0  0
 12  5  2  0  0  0  0
 13 11  1  0  0  0  0
 14  9  1  0  0  0  0
 14 15  1  0  0  0  0
 15  8  2  0  0  0  0
 15 10  1  0  0  0  0
 16 24  1  6  0  0  0
 16 18  1  0  0  0  0
 18 17  1  1  0  0  0
 18 21  1  0  0  0  0
 19 22  1  0  0  0  0
 20 21  1  0  0  0  0
 20 23  1  0  0  0  0
 21 19  1  0  0  0  0
 23 22  1  0  0  0  0
 25 29  1  1  0  0  0
 25 26  1  0  0  0  0
 27 24  1  6  0  0  0
 27 25  1  0  0  0  0
 27 26  1  0  0  0  0
 28 29  1  0  0  0  0
 29 30  1  1  0  0  0
M  END
>  <MODEL>
7

>  <REMARK>
 VINA RESULT:      -7.0      2.611      5.245
  Name = 
  6 active torsions:
  status: ('A' for Active; 'I' for Inactive)
    1  A    between atoms: C_4  and  C_13
    2  A    between atoms: C_7  and  C_15
    3  A    between atoms: C_8  and  C_12
    4  A    between atoms: C_8  and  C_13
    5  A    between atoms: C_13  and  C_27
    6  A    between atoms: C_27  and  C_30
                            x       y       z     vdW  Elec       q    Type
                         _______ _______ _______ _____ _____    ______ ____

>  <TORSDO>
F 6

$$$$
=
 OpenBabel11052421523D

 30 34  0  0  1  0  0  0  0  0999 V2000
  161.3890  208.7360  151.2870 C   0  0  0  0  0  3  0  0  0  0  0  0
  161.0340  210.0880  153.3860 C   0  0  2  0  0  3  0  0  0  0  0  0
  161.2010  205.0840  153.1450 N   0  0  0  0  0  2  0  0  0  0  0  0
  161.5600  207.5250  150.5930 C   0  0  0  0  0  0  0  0  0  0  0  0
  161.4460  204.3700  152.0170 C   0  0  0  0  0  0  0  0  0  0  0  0
  160.6100  209.9770  154.8540 C   0  0  0  0  0  2  0  0  0  0  0  0
  160.1060  210.9730  152.6990 N   0  0  0  0  0  1  0  0  0  0  0  0
  161.2240  206.3460  152.6780 C   0  0  0  0  0  0  0  0  0  0  0  0
  161.2760  208.7870  155.5310 C   0  0  0  0  0  2  0  0  0  0  0  0
  161.1180  208.7550  152.6750 C   0  0  0  0  0  0  0  0  0  0  0  0
  161.4740  206.3450  151.3360 C   0  0  0  0  0  0  0  0  0  0  0  0
  161.5140  203.1140  152.0050 O   0  0  0  0  0  0  0  0  0  0  0  0
  161.6130  205.1070  150.9340 O   0  0  0  0  0  0  0  0  0  0  0  0
  160.7960  207.5040  154.8700 C   0  0  0  0  0  2  0  0  0  0  0  0
  161.0590  207.5320  153.3950 C   0  0  0  0  0  0  0  0  0  0  0  0
  161.9050  207.5510  149.1320 C   0  0  1  0  0  3  0  0  0  0  0  0
  160.0770  206.2000  148.3530 O   0  0  0  0  0  1  0  0  0  0  0  0
  161.4750  206.2630  148.3880 C   0  0  1  0  0  3  0  0  0  0  0  0
  162.8010  204.9140  146.7410 C   0  0  0  0  0  2  0  0  0  0  0  0
  160.9740  206.2070  145.8820 C   0  0  0  0  0  2  0  0  0  0  0  0
  162.0440  206.2080  146.9600 C   0  0  0  0  0  3  0  0  0  0  0  0
  162.7640  204.6770  145.2470 C   0  0  0  0  0  2  0  0  0  0  0  0
  161.5220  205.3810  144.7310 C   0  0  0  0  0  2  0  0  0  0  0  0
  161.3540  208.8210  148.4840 C   0  0  0  0  0  2  0  0  0  0  0  0
  161.5830  211.2740  148.2480 C   0  0  1  0  0  3  0  0  0  0  0  0
  162.9480  210.6460  148.0490 C   0  0  0  0  0  2  0  0  0  0  0  0
  161.9920  210.0650  149.0680 C   0  0  2  0  0  3  0  0  0  0  0  0
  160.4730  212.9120  149.5730 O   0  0  0  0  0  1  0  0  0  0  0  0
  161.7240  212.5250  149.0940 C   0  0  2  0  0  3  0  0  0  0  0  0
  162.3040  213.6440  148.2600 C   0  0  0  0  0  1  0  0  0  0  0  0
  1 10  1  0  0  0  0
  2  7  1  6  0  0  0
  2  6  1  0  0  0  0
  4  1  2  0  0  0  0
  4 11  1  0  0  0  0
  5  3  1  0  0  0  0
  6  9  1  0  0  0  0
  8  3  1  0  0  0  0
  8 15  1  0  0  0  0
 10  2  1  0  0  0  0
 10 15  2  0  0  0  0
 11  8  2  0  0  0  0
 12  5  2  0  0  0  0
 13 11  1  0  0  0  0
 13  5  1  0  0  0  0
 14  9  1  0  0  0  0
 15 14  1  0  0  0  0
 16 24  1  6  0  0  0
 16  4  1  0  0  0  0
 18 17  1  6  0  0  0
 18 16  1  0  0  0  0
 19 21  1  0  0  0  0
 20 21  1  0  0  0  0
 21 18  1  0  0  0  0
 22 19  1  0  0  0  0
 23 22  1  0  0  0  0
 23 20  1  0  0  0  0
 25 27  1  0  0  0  0
 25 29  1  1  0  0  0
 26 25  1  0  0  0  0
 26 27  1  0  0  0  0
 27 24  1  6  0  0  0
 29 30  1  6  0  0  0
 29 28  1  0  0  0  0
M  END
>  <MODEL>
8

>  <REMARK>
 VINA RESULT:      -7.0      2.259      6.004
  Name = 
  6 active torsions:
  status: ('A' for Active; 'I' for Inactive)
    1  A    between atoms: C_4  and  C_13
    2  A    between atoms: C_7  and  C_15
    3  A    between atoms: C_8  and  C_12
    4  A    between atoms: C_8  and  C_13
    5  A    between atoms: C_13  and  C_27
    6  A    between atoms: C_27  and  C_30
                            x       y       z     vdW  Elec       q    Type
                         _______ _______ _______ _____ _____    ______ ____

>  <TORSDO>
F 6

$$$$
=
 OpenBabel11052421523D

 30 34  0  0  1  0  0  0  0  0999 V2000
  160.7400  209.4820  153.2060 C   0  0  0  0  0  3  0  0  0  0  0  0
  160.3870  210.0730  155.6320 C   0  0  2  0  0  3  0  0  0  0  0  0
  161.0410  205.4400  153.8360 N   0  0  0  0  0  2  0  0  0  0  0  0
  160.9850  208.5710  152.1640 C   0  0  0  0  0  0  0  0  0  0  0  0
  161.2830  205.1410  152.5340 C   0  0  0  0  0  0  0  0  0  0  0  0
  160.0730  209.4690  157.0040 C   0  0  0  0  0  2  0  0  0  0  0  0
  159.3320  211.0130  155.2840 N   0  0  0  0  0  1  0  0  0  0  0  0
  160.9060  206.7780  153.7850 C   0  0  0  0  0  0  0  0  0  0  0  0
  160.8980  208.2140  157.2550 C   0  0  0  0  0  2  0  0  0  0  0  0
  160.5580  209.0420  154.5380 C   0  0  0  0  0  0  0  0  0  0  0  0
  161.0670  207.2180  152.5030 C   0  0  0  0  0  0  0  0  0  0  0  0
  161.4750  203.9650  152.1280 O   0  0  0  0  0  0  0  0  0  0  0  0
  161.3030  206.1880  151.7310 O   0  0  0  0  0  0  0  0  0  0  0  0
  160.5070  207.1490  156.2410 C   0  0  0  0  0  2  0  0  0  0  0  0
  160.6700  207.6600  154.8410 C   0  0  0  0  0  0  0  0  0  0  0  0
  161.2310  209.0840  150.7740 C   0  0  1  0  0  3  0  0  0  0  0  0
  163.1280  210.5240  151.0900 O   0  0  0  0  0  1  0  0  0  0  0  0
  161.7700  210.5340  150.7530 C   0  0  1  0  0  3  0  0  0  0  0  0
  161.0240  212.6030  149.5470 C   0  0  0  0  0  2  0  0  0  0  0  0
  162.8630  211.3880  148.6050 C   0  0  0  0  0  2  0  0  0  0  0  0
  161.5700  211.2010  149.3800 C   0  0  0  0  0  3  0  0  0  0  0  0
  161.4440  213.3480  148.2980 C   0  0  0  0  0  2  0  0  0  0  0  0
  162.6950  212.6570  147.7870 C   0  0  0  0  0  2  0  0  0  0  0  0
  162.1240  208.1090  150.0050 C   0  0  0  0  0  2  0  0  0  0  0  0
  162.0690  206.0990  148.5630 C   0  0  1  0  0  3  0  0  0  0  0  0
  162.2160  207.3190  147.6750 C   0  0  0  0  0  2  0  0  0  0  0  0
  161.3540  207.3890  148.9170 C   0  0  2  0  0  3  0  0  0  0  0  0
  160.8280  204.0810  148.8080 O   0  0  0  0  0  1  0  0  0  0  0  0
  161.0810  205.1360  147.9320 C   0  0  2  0  0  3  0  0  0  0  0  0
  161.6540  204.5850  146.6450 C   0  0  0  0  0  1  0  0  0  0  0  0
  1 10  1  0  0  0  0
  2  7  1  6  0  0  0
  2  6  1  0  0  0  0
  4 11  1  0  0  0  0
  4  1  2  0  0  0  0
  5  3  1  0  0  0  0
  6  9  1  0  0  0  0
  8  3  1  0  0  0  0
  8 15  1  0  0  0  0
 10 15  2  0  0  0  0
 10  2  1  0  0  0  0
 11  8  2  0  0  0  0
 12  5  2  0  0  0  0
 13 11  1  0  0  0  0
 13  5  1  0  0  0  0
 14  9  1  0  0  0  0
 15 14  1  0  0  0  0
 16 24  1  1  0  0  0
 16  4  1  0  0  0  0
 18 16  1  0  0  0  0
 18 17  1  6  0  0  0
 20 21  1  0  0  0  0
 21 19  1  0  0  0  0
 21 18  1  0  0  0  0
 22 19  1  0  0  0  0
 23 22  1  0  0  0  0
 23 20  1  0  0  0  0
 25 29  1  6  0  0  0
 25 27  1  0  0  0  0
 26 25  1  0  0  0  0
 26 27  1  0  0  0  0
 27 24  1  1  0  0  0
 29 30  1  6  0  0  0
 29 28  1  0  0  0  0
M  END
>  <MODEL>
9

>  <REMARK>
 VINA RESULT:      -6.9      2.368      6.862
  Name = 
  6 active torsions:
  status: ('A' for Active; 'I' for Inactive)
    1  A    between atoms: C_4  and  C_13
    2  A    between atoms: C_7  and  C_15
    3  A    between atoms: C_8  and  C_12
    4  A    between atoms: C_8  and  C_13
    5  A    between atoms: C_13  and  C_27
    6  A    between atoms: C_27  and  C_30
                            x       y       z     vdW  Elec       q    Type
                         _______ _______ _______ _____ _____    ______ ____

>  <TORSDO>
F 6

$$$$
