=
 OpenBabel11062409223D

 37 39  0  0  1  0  0  0  0  0999 V2000
  161.5100  207.7310  155.5840 C   0  0  0  0  0  2  0  0  0  0  0  0
  160.5860  209.2760  157.2610 C   0  0  0  0  0  1  0  0  0  0  0  0
  160.6950  207.9300  153.2360 C   0  0  0  0  0  0  0  0  0  0  0  0
  157.3470  209.2970  154.7490 O   0  0  0  0  0  0  0  0  0  0  0  0
  160.5010  207.4050  151.9550 C   0  0  0  0  0  3  0  0  0  0  0  0
  160.2320  208.4500  156.0380 C   0  0  1  0  0  0  0  0  0  0  0  0
  158.3660  209.8990  155.1770 C   0  0  0  0  0  0  0  0  0  0  0  0
  161.8340  205.8970  153.9000 C   0  0  0  0  0  3  0  0  0  0  0  0
  159.6630  209.3170  154.9760 N   0  0  0  0  0  0  0  0  0  0  0  0
  159.2900  207.4870  156.4100 O   0  0  0  0  0  1  0  0  0  0  0  0
  161.3440  207.1680  154.2130 C   0  0  0  0  0  0  0  0  0  0  0  0
  160.1810  209.2980  153.5920 C   0  0  1  0  0  3  0  0  0  0  0  0
  160.9820  206.1270  151.6340 C   0  0  0  0  0  0  0  0  0  0  0  0
  161.6540  205.3800  152.6140 C   0  0  0  0  0  3  0  0  0  0  0  0
  160.4860  206.3470  149.3280 O   0  0  0  0  0  0  0  0  0  0  0  0
  160.7880  205.5770  150.2810 C   0  0  0  0  0  0  0  0  0  0  0  0
  160.9360  204.1690  150.0570 N   0  0  0  0  0  2  0  0  0  0  0  0
  160.8380  203.5200  148.7830 C   0  0  0  0  0  0  0  0  0  0  0  0
  160.6950  204.1870  147.7240 O   0  0  0  0  0  0  0  0  0  0  0  0
  160.8350  201.4420  150.0970 C   0  0  0  0  0  1  0  0  0  0  0  0
  160.9460  202.0380  148.7070 C   0  0  0  0  0  2  0  0  0  0  0  0
  158.2060  211.1210  155.8340 O   0  0  0  0  0  0  0  0  0  0  0  0
  156.3690  212.6260  155.5700 C   0  0  0  0  0  2  0  0  0  0  0  0
  156.9730  211.5220  156.4110 C   0  0  0  0  0  3  0  0  0  0  0  0
  157.0820  212.9660  156.8580 C   0  0  0  0  0  2  0  0  0  0  0  0
  161.1280  210.5030  153.2820 C   0  0  1  0  0  0  0  0  0  0  0  0
  163.0520  210.6960  155.0020 C   0  0  0  0  0  1  0  0  0  0  0  0
  161.6730  211.1790  154.5650 C   0  0  0  0  0  2  0  0  0  0  0  0
  162.3320  209.9610  152.4860 C   0  0  0  0  0  2  0  0  0  0  0  0
  162.2540  210.1720  150.9990 C   0  0  0  0  0  0  0  0  0  0  0  0
  162.0380  211.2830  150.5420 O   0  0  0  0  0  0  0  0  0  0  0  0
  162.0670  209.3980  148.7760 O   0  0  0  0  0  1  0  0  0  0  0  0
  162.3710  209.0040  150.0790 C   0  0  0  0  0  2  0  0  0  0  0  0
  160.3890  211.5380  152.4020 C   0  0  0  0  0  2  0  0  0  0  0  0
  159.4930  212.4710  153.1590 C   0  0  0  0  0  0  0  0  0  0  0  0
  159.8670  212.9460  154.2610 O   0  0  0  0  0  0  0  0  0  0  0  0
  158.2180  212.8220  152.6340 N   0  0  0  0  0  1  0  0  0  0  0  0
  1  6  1  0  0  0  0
  3 12  1  0  0  0  0
  3 11  1  0  0  0  0
  4  7  2  0  0  0  0
  5  3  2  0  0  0  0
  6 10  1  0  0  0  0
  6  2  1  1  0  0  0
  7 22  1  0  0  0  0
  8 11  2  0  0  0  0
  9  7  1  0  0  0  0
  9  6  1  0  0  0  0
 11  1  1  0  0  0  0
 12 26  1  1  0  0  0
 12  9  1  0  0  0  0
 13  5  1  0  0  0  0
 13 14  2  0  0  0  0
 14  8  1  0  0  0  0
 15 16  2  0  0  0  0
 16 13  1  0  0  0  0
 17 16  1  0  0  0  0
 18 17  1  0  0  0  0
 19 18  2  0  0  0  0
 21 18  1  0  0  0  0
 21 20  1  0  0  0  0
 22 24  1  0  0  0  0
 23 24  1  0  0  0  0
 23 25  1  0  0  0  0
 24 25  1  0  0  0  0
 26 34  1  6  0  0  0
 26 28  1  0  0  0  0
 28 27  1  0  0  0  0
 29 26  1  0  0  0  0
 30 29  1  0  0  0  0
 31 30  2  0  0  0  0
 32 33  1  0  0  0  0
 33 30  1  0  0  0  0
 34 35  1  0  0  0  0
 35 36  2  0  0  0  0
 37 35  1  0  0  0  0
M  END
>  <MODEL>
1

>  <REMARK>
 VINA RESULT:      -3.9      0.000      0.000
  Name = 
  11 active torsions:
  status: ('A' for Active; 'I' for Inactive)
    1  A    between atoms: C_1  and  C_5
    2  A    between atoms: C_1  and  C_36
    3  A    between atoms: C_5  and  C_23
    4  A    between atoms: C_6  and  C_31
    5  A    between atoms: C_11  and  C_33
    6  A    between atoms: C_18  and  C_19
    7  A    between atoms: C_20  and  O_32
    8  A    between atoms: C_21  and  O_32
    9  A    between atoms: C_27  and  C_36
   10  A    between atoms: C_29  and  C_36
   11  A    between atoms: C_33  and  C_36
                            x       y       z     vdW  Elec       q    Type
                         _______ _______ _______ _____ _____    ______ ____

>  <TORSDO>
F 11

$$$$
=
 OpenBabel11062409223D

 37 39  0  0  1  0  0  0  0  0999 V2000
  161.0200  207.3370  155.3550 C   0  0  0  0  0  2  0  0  0  0  0  0
  159.9470  208.4640  157.2600 C   0  0  0  0  0  1  0  0  0  0  0  0
  160.7470  208.3480  153.0930 C   0  0  0  0  0  0  0  0  0  0  0  0
  157.3340  209.7760  154.3870 O   0  0  0  0  0  0  0  0  0  0  0  0
  160.7690  208.2590  151.6980 C   0  0  0  0  0  3  0  0  0  0  0  0
  159.7660  208.1040  155.7980 C   0  0  1  0  0  0  0  0  0  0  0  0
  158.3020  210.0410  155.1470 C   0  0  0  0  0  0  0  0  0  0  0  0
  161.4810  206.0440  153.2530 C   0  0  0  0  0  3  0  0  0  0  0  0
  159.5370  209.3270  154.9880 N   0  0  0  0  0  0  0  0  0  0  0  0
  158.6640  207.2530  155.6820 O   0  0  0  0  0  1  0  0  0  0  0  0
  161.0850  207.2340  153.8690 C   0  0  0  0  0  0  0  0  0  0  0  0
  160.3290  209.6210  153.7750 C   0  0  1  0  0  3  0  0  0  0  0  0
  161.1570  207.0660  151.0700 C   0  0  0  0  0  0  0  0  0  0  0  0
  161.5180  205.9620  151.8580 C   0  0  0  0  0  3  0  0  0  0  0  0
  161.1180  208.0250  148.9050 O   0  0  0  0  0  0  0  0  0  0  0  0
  161.1920  206.9750  149.6000 C   0  0  0  0  0  0  0  0  0  0  0  0
  161.3010  205.6930  148.9680 N   0  0  0  0  0  2  0  0  0  0  0  0
  161.4090  205.4740  147.5570 C   0  0  0  0  0  0  0  0  0  0  0  0
  161.5050  206.4410  146.7550 O   0  0  0  0  0  0  0  0  0  0  0  0
  161.8190  204.0920  145.5640 C   0  0  0  0  0  1  0  0  0  0  0  0
  161.4470  204.0810  147.0340 C   0  0  0  0  0  2  0  0  0  0  0  0
  158.1480  211.0280  156.1230 O   0  0  0  0  0  0  0  0  0  0  0  0
  158.6340  213.3650  156.0040 C   0  0  0  0  0  2  0  0  0  0  0  0
  157.5740  212.2960  155.8430 C   0  0  0  0  0  3  0  0  0  0  0  0
  157.6130  213.1450  157.0970 C   0  0  0  0  0  2  0  0  0  0  0  0
  161.4520  210.6800  154.0270 C   0  0  1  0  0  0  0  0  0  0  0  0
  162.9550  210.2850  151.9570 C   0  0  0  0  0  1  0  0  0  0  0  0
  162.8290  210.2330  153.4770 C   0  0  0  0  0  2  0  0  0  0  0  0
  161.0480  211.9750  153.2930 C   0  0  0  0  0  2  0  0  0  0  0  0
  160.0520  211.7890  152.1820 C   0  0  0  0  0  0  0  0  0  0  0  0
  160.4250  211.4550  151.0680 O   0  0  0  0  0  0  0  0  0  0  0  0
  158.3740  213.4480  152.2540 O   0  0  0  0  0  1  0  0  0  0  0  0
  158.6110  212.0840  152.4230 C   0  0  0  0  0  2  0  0  0  0  0  0
  161.5520  210.9880  155.5390 C   0  0  0  0  0  2  0  0  0  0  0  0
  162.8280  210.5380  156.1830 C   0  0  0  0  0  0  0  0  0  0  0  0
  162.9070  209.3870  156.6830 O   0  0  0  0  0  0  0  0  0  0  0  0
  163.9510  211.4090  156.2320 N   0  0  0  0  0  1  0  0  0  0  0  0
  1  6  1  0  0  0  0
  3 12  1  0  0  0  0
  3 11  1  0  0  0  0
  4  7  2  0  0  0  0
  5  3  2  0  0  0  0
  6  2  1  1  0  0  0
  7 22  1  0  0  0  0
  8 11  2  0  0  0  0
  9  7  1  0  0  0  0
  9  6  1  0  0  0  0
 10  6  1  0  0  0  0
 11  1  1  0  0  0  0
 12 26  1  1  0  0  0
 12  9  1  0  0  0  0
 13  5  1  0  0  0  0
 13 14  2  0  0  0  0
 14  8  1  0  0  0  0
 15 16  2  0  0  0  0
 16 13  1  0  0  0  0
 17 16  1  0  0  0  0
 18 17  1  0  0  0  0
 19 18  2  0  0  0  0
 20 21  1  0  0  0  0
 21 18  1  0  0  0  0
 23 25  1  0  0  0  0
 24 23  1  0  0  0  0
 24 22  1  0  0  0  0
 24 25  1  0  0  0  0
 26 29  1  6  0  0  0
 26 34  1  0  0  0  0
 27 28  1  0  0  0  0
 28 26  1  0  0  0  0
 30 33  1  0  0  0  0
 30 29  1  0  0  0  0
 31 30  2  0  0  0  0
 32 33  1  0  0  0  0
 34 35  1  0  0  0  0
 35 37  1  0  0  0  0
 35 36  2  0  0  0  0
M  END
>  <MODEL>
2

>  <REMARK>
 VINA RESULT:      -3.6      1.704      2.784
  Name = 
  11 active torsions:
  status: ('A' for Active; 'I' for Inactive)
    1  A    between atoms: C_1  and  C_5
    2  A    between atoms: C_1  and  C_36
    3  A    between atoms: C_5  and  C_23
    4  A    between atoms: C_6  and  C_31
    5  A    between atoms: C_11  and  C_33
    6  A    between atoms: C_18  and  C_19
    7  A    between atoms: C_20  and  O_32
    8  A    between atoms: C_21  and  O_32
    9  A    between atoms: C_27  and  C_36
   10  A    between atoms: C_29  and  C_36
   11  A    between atoms: C_33  and  C_36
                            x       y       z     vdW  Elec       q    Type
                         _______ _______ _______ _____ _____    ______ ____

>  <TORSDO>
F 11

$$$$
=
 OpenBabel11062409223D

 37 39  0  0  1  0  0  0  0  0999 V2000
  161.0960  207.6900  155.4760 C   0  0  0  0  0  2  0  0  0  0  0  0
  159.9650  208.9510  157.2600 C   0  0  0  0  0  1  0  0  0  0  0  0
  160.5640  208.2760  153.1120 C   0  0  0  0  0  0  0  0  0  0  0  0
  157.0470  209.4100  154.4200 O   0  0  0  0  0  0  0  0  0  0  0  0
  160.5280  207.9680  151.7490 C   0  0  0  0  0  3  0  0  0  0  0  0
  159.7670  208.3380  155.8870 C   0  0  1  0  0  0  0  0  0  0  0  0
  158.0010  209.9250  155.0570 C   0  0  0  0  0  0  0  0  0  0  0  0
  161.6360  206.1510  153.5670 C   0  0  0  0  0  3  0  0  0  0  0  0
  159.3190  209.3720  154.9200 N   0  0  0  0  0  0  0  0  0  0  0  0
  158.7970  207.3360  155.9820 O   0  0  0  0  0  1  0  0  0  0  0  0
  161.1000  207.3590  154.0220 C   0  0  0  0  0  0  0  0  0  0  0  0
  159.9970  209.5720  153.6220 C   0  0  1  0  0  3  0  0  0  0  0  0
  161.0560  206.7540  151.2830 C   0  0  0  0  0  0  0  0  0  0  0  0
  161.6150  205.8520  152.2020 C   0  0  0  0  0  3  0  0  0  0  0  0
  160.8950  207.3600  148.9990 O   0  0  0  0  0  0  0  0  0  0  0  0
  161.0300  206.4340  149.8460 C   0  0  0  0  0  0  0  0  0  0  0  0
  161.1490  205.0710  149.4180 N   0  0  0  0  0  2  0  0  0  0  0  0
  161.2020  204.6350  148.0550 C   0  0  0  0  0  0  0  0  0  0  0  0
  161.2350  205.4650  147.1080 O   0  0  0  0  0  0  0  0  0  0  0  0
  161.1050  202.3820  149.0360 C   0  0  0  0  0  1  0  0  0  0  0  0
  161.2590  203.1780  147.7550 C   0  0  0  0  0  2  0  0  0  0  0  0
  157.7530  211.0250  155.8800 O   0  0  0  0  0  0  0  0  0  0  0  0
  156.7340  213.0780  156.5620 C   0  0  0  0  0  2  0  0  0  0  0  0
  156.5510  211.7780  155.8070 C   0  0  0  0  0  3  0  0  0  0  0  0
  155.9800  211.9350  157.2010 C   0  0  0  0  0  2  0  0  0  0  0  0
  160.9620  210.8030  153.6270 C   0  0  1  0  0  0  0  0  0  0  0  0
  159.6880  213.0250  154.0010 C   0  0  0  0  0  1  0  0  0  0  0  0
  160.5190  211.9060  154.6200 C   0  0  0  0  0  2  0  0  0  0  0  0
  162.3550  210.3060  154.0640 C   0  0  0  0  0  2  0  0  0  0  0  0
  162.8090  210.7980  155.4100 C   0  0  0  0  0  0  0  0  0  0  0  0
  162.0240  210.8590  156.3430 O   0  0  0  0  0  0  0  0  0  0  0  0
  164.4920  211.4150  156.9470 O   0  0  0  0  0  1  0  0  0  0  0  0
  164.2080  211.2820  155.5880 C   0  0  0  0  0  2  0  0  0  0  0  0
  161.0790  211.3830  152.1980 C   0  0  0  0  0  2  0  0  0  0  0  0
  162.0880  210.6960  151.3280 C   0  0  0  0  0  0  0  0  0  0  0  0
  162.9670  209.9610  151.8460 O   0  0  0  0  0  0  0  0  0  0  0  0
  162.0560  210.8740  149.9170 N   0  0  0  0  0  1  0  0  0  0  0  0
  1  6  1  0  0  0  0
  3 12  1  0  0  0  0
  3 11  1  0  0  0  0
  4  7  2  0  0  0  0
  5  3  2  0  0  0  0
  6 10  1  0  0  0  0
  6  2  1  1  0  0  0
  7 22  1  0  0  0  0
  8 11  2  0  0  0  0
  9  7  1  0  0  0  0
  9  6  1  0  0  0  0
 11  1  1  0  0  0  0
 12 26  1  1  0  0  0
 12  9  1  0  0  0  0
 13  5  1  0  0  0  0
 13 14  2  0  0  0  0
 14  8  1  0  0  0  0
 15 16  2  0  0  0  0
 16 13  1  0  0  0  0
 17 16  1  0  0  0  0
 18 17  1  0  0  0  0
 19 18  2  0  0  0  0
 21 18  1  0  0  0  0
 21 20  1  0  0  0  0
 23 25  1  0  0  0  0
 24 22  1  0  0  0  0
 24 23  1  0  0  0  0
 24 25  1  0  0  0  0
 26 34  1  6  0  0  0
 26 29  1  0  0  0  0
 26 28  1  0  0  0  0
 27 28  1  0  0  0  0
 29 30  1  0  0  0  0
 30 33  1  0  0  0  0
 30 31  2  0  0  0  0
 33 32  1  0  0  0  0
 35 36  2  0  0  0  0
 35 34  1  0  0  0  0
 37 35  1  0  0  0  0
M  END
>  <MODEL>
3

>  <REMARK>
 VINA RESULT:      -2.1      1.630      2.734
  Name = 
  11 active torsions:
  status: ('A' for Active; 'I' for Inactive)
    1  A    between atoms: C_1  and  C_5
    2  A    between atoms: C_1  and  C_36
    3  A    between atoms: C_5  and  C_23
    4  A    between atoms: C_6  and  C_31
    5  A    between atoms: C_11  and  C_33
    6  A    between atoms: C_18  and  C_19
    7  A    between atoms: C_20  and  O_32
    8  A    between atoms: C_21  and  O_32
    9  A    between atoms: C_27  and  C_36
   10  A    between atoms: C_29  and  C_36
   11  A    between atoms: C_33  and  C_36
                            x       y       z     vdW  Elec       q    Type
                         _______ _______ _______ _____ _____    ______ ____

>  <TORSDO>
F 11

$$$$
=
 OpenBabel11062409223D

 37 39  0  0  1  0  0  0  0  0999 V2000
  158.5180  212.7370  139.7120 C   0  0  0  0  0  2  0  0  0  0  0  0
  159.0180  211.4250  137.6920 C   0  0  0  0  0  1  0  0  0  0  0  0
  160.2150  212.7660  141.5380 C   0  0  0  0  0  0  0  0  0  0  0  0
  161.3010  209.2150  140.2800 O   0  0  0  0  0  0  0  0  0  0  0  0
  160.5800  212.9700  142.8720 C   0  0  0  0  0  3  0  0  0  0  0  0
  159.1560  211.4380  139.2030 C   0  0  1  0  0  0  0  0  0  0  0  0
  161.2640  210.0750  139.3630 C   0  0  0  0  0  0  0  0  0  0  0  0
  157.9520  213.4660  142.0480 C   0  0  0  0  0  3  0  0  0  0  0  0
  160.5840  211.3190  139.5910 N   0  0  0  0  0  0  0  0  0  0  0  0
  158.4390  210.3580  139.7240 O   0  0  0  0  0  1  0  0  0  0  0  0
  158.8960  212.9960  141.1320 C   0  0  0  0  0  0  0  0  0  0  0  0
  161.2170  212.2640  140.5350 C   0  0  1  0  0  3  0  0  0  0  0  0
  159.6370  213.4340  143.8010 C   0  0  0  0  0  0  0  0  0  0  0  0
  158.3230  213.6860  143.3770 C   0  0  0  0  0  3  0  0  0  0  0  0
  161.2000  214.0250  145.4800 O   0  0  0  0  0  0  0  0  0  0  0  0
  160.0240  213.6620  145.2040 C   0  0  0  0  0  0  0  0  0  0  0  0
  159.0630  213.4590  146.2490 N   0  0  0  0  0  2  0  0  0  0  0  0
  159.2920  213.7060  147.6410 C   0  0  0  0  0  0  0  0  0  0  0  0
  160.3710  214.2200  148.0410 O   0  0  0  0  0  0  0  0  0  0  0  0
  157.0970  214.3950  148.5090 C   0  0  0  0  0  1  0  0  0  0  0  0
  158.2230  213.3870  148.6260 C   0  0  0  0  0  2  0  0  0  0  0  0
  161.8890  209.7970  138.1460 O   0  0  0  0  0  0  0  0  0  0  0  0
  161.0310  207.5820  137.8810 C   0  0  0  0  0  2  0  0  0  0  0  0
  161.3430  208.8960  137.1950 C   0  0  0  0  0  3  0  0  0  0  0  0
  162.2780  207.7140  137.0390 C   0  0  0  0  0  2  0  0  0  0  0  0
  162.0880  213.3470  139.8160 C   0  0  1  0  0  0  0  0  0  0  0  0
  163.0970  213.4920  142.1950 C   0  0  0  0  0  1  0  0  0  0  0  0
  163.1600  213.9650  140.7470 C   0  0  0  0  0  2  0  0  0  0  0  0
  162.8180  212.6600  138.6450 C   0  0  0  0  0  2  0  0  0  0  0  0
  164.3030  212.5030  138.8290 C   0  0  0  0  0  0  0  0  0  0  0  0
  164.7620  211.4750  139.2990 O   0  0  0  0  0  0  0  0  0  0  0  0
  164.7990  214.2480  137.3180 O   0  0  0  0  0  1  0  0  0  0  0  0
  165.2130  213.6380  138.5020 C   0  0  0  0  0  2  0  0  0  0  0  0
  161.1750  214.4530  139.2390 C   0  0  0  0  0  2  0  0  0  0  0  0
  161.0180  214.4160  137.7490 C   0  0  0  0  0  0  0  0  0  0  0  0
  162.0340  214.3530  137.0110 O   0  0  0  0  0  0  0  0  0  0  0  0
  159.7210  214.4530  137.1640 N   0  0  0  0  0  1  0  0  0  0  0  0
  1 11  1  0  0  0  0
  3  5  1  0  0  0  0
  5 13  2  0  0  0  0
  6  2  1  6  0  0  0
  6  9  1  0  0  0  0
  6  1  1  0  0  0  0
  6 10  1  0  0  0  0
  7  9  1  0  0  0  0
  7  4  2  0  0  0  0
  8 14  2  0  0  0  0
  9 12  1  0  0  0  0
 11  3  2  0  0  0  0
 11  8  1  0  0  0  0
 12 26  1  6  0  0  0
 12  3  1  0  0  0  0
 13 16  1  0  0  0  0
 14 13  1  0  0  0  0
 16 15  2  0  0  0  0
 16 17  1  0  0  0  0
 17 18  1  0  0  0  0
 18 19  2  0  0  0  0
 18 21  1  0  0  0  0
 20 21  1  0  0  0  0
 22  7  1  0  0  0  0
 24 23  1  0  0  0  0
 24 22  1  0  0  0  0
 25 24  1  0  0  0  0
 25 23  1  0  0  0  0
 26 29  1  6  0  0  0
 26 28  1  0  0  0  0
 28 27  1  0  0  0  0
 29 30  1  0  0  0  0
 30 31  2  0  0  0  0
 32 33  1  0  0  0  0
 33 30  1  0  0  0  0
 34 26  1  0  0  0  0
 35 34  1  0  0  0  0
 36 35  2  0  0  0  0
 37 35  1  0  0  0  0
M  END
>  <MODEL>
4

>  <REMARK>
 VINA RESULT:      -1.9     10.505     14.544
  Name = 
  11 active torsions:
  status: ('A' for Active; 'I' for Inactive)
    1  A    between atoms: C_1  and  C_5
    2  A    between atoms: C_1  and  C_36
    3  A    between atoms: C_5  and  C_23
    4  A    between atoms: C_6  and  C_31
    5  A    between atoms: C_11  and  C_33
    6  A    between atoms: C_18  and  C_19
    7  A    between atoms: C_20  and  O_32
    8  A    between atoms: C_21  and  O_32
    9  A    between atoms: C_27  and  C_36
   10  A    between atoms: C_29  and  C_36
   11  A    between atoms: C_33  and  C_36
                            x       y       z     vdW  Elec       q    Type
                         _______ _______ _______ _____ _____    ______ ____

>  <TORSDO>
F 11

$$$$
=
 OpenBabel11062409223D

 37 39  0  0  1  0  0  0  0  0999 V2000
  162.4950  209.8790  151.2300 C   0  0  0  0  0  2  0  0  0  0  0  0
  163.4140  207.6960  150.5670 C   0  0  0  0  0  1  0  0  0  0  0  0
  160.2170  209.9310  152.2410 C   0  0  0  0  0  0  0  0  0  0  0  0
  159.4590  206.7020  150.1530 O   0  0  0  0  0  0  0  0  0  0  0  0
  159.0410  210.6050  152.5860 C   0  0  0  0  0  3  0  0  0  0  0  0
  162.1400  208.5180  150.6160 C   0  0  1  0  0  0  0  0  0  0  0  0
  160.5130  206.6140  150.8350 C   0  0  0  0  0  0  0  0  0  0  0  0
  161.1520  211.9960  151.3850 C   0  0  0  0  0  3  0  0  0  0  0  0
  161.0930  207.8040  151.3890 N   0  0  0  0  0  0  0  0  0  0  0  0
  161.6940  208.7260  149.3070 O   0  0  0  0  0  1  0  0  0  0  0  0
  161.2630  210.6230  151.6230 C   0  0  0  0  0  0  0  0  0  0  0  0
  160.3580  208.4560  152.4940 C   0  0  1  0  0  3  0  0  0  0  0  0
  158.9170  211.9810  152.3420 C   0  0  0  0  0  0  0  0  0  0  0  0
  159.9830  212.6720  151.7450 C   0  0  0  0  0  3  0  0  0  0  0  0
  157.1170  213.4490  151.8790 O   0  0  0  0  0  0  0  0  0  0  0  0
  157.6840  212.6950  152.7160 C   0  0  0  0  0  0  0  0  0  0  0  0
  157.1410  212.5350  154.0340 N   0  0  0  0  0  2  0  0  0  0  0  0
  155.9190  213.1190  154.5000 C   0  0  0  0  0  0  0  0  0  0  0  0
  155.1700  213.7680  153.7210 O   0  0  0  0  0  0  0  0  0  0  0  0
  156.2900  211.7750  156.5250 C   0  0  0  0  0  1  0  0  0  0  0  0
  155.5090  212.9230  155.9170 C   0  0  0  0  0  2  0  0  0  0  0  0
  161.0870  205.3580  151.0380 O   0  0  0  0  0  0  0  0  0  0  0  0
  161.1840  203.0540  151.6690 C   0  0  0  0  0  2  0  0  0  0  0  0
  160.3150  204.1710  151.1300 C   0  0  0  0  0  3  0  0  0  0  0  0
  160.8900  203.1310  150.1890 C   0  0  0  0  0  2  0  0  0  0  0  0
  160.8890  208.0360  153.9050 C   0  0  1  0  0  0  0  0  0  0  0  0
  162.6500  206.1660  153.5870 C   0  0  0  0  0  1  0  0  0  0  0  0
  161.2240  206.5270  153.9920 C   0  0  0  0  0  2  0  0  0  0  0  0
  162.1880  208.8240  154.1710 C   0  0  0  0  0  2  0  0  0  0  0  0
  162.0690  209.9100  155.2040 C   0  0  0  0  0  0  0  0  0  0  0  0
  161.6270  211.0070  154.9000 O   0  0  0  0  0  0  0  0  0  0  0  0
  163.4360  210.6870  156.9650 O   0  0  0  0  0  1  0  0  0  0  0  0
  162.5600  209.6690  156.5910 C   0  0  0  0  0  2  0  0  0  0  0  0
  159.8560  208.4210  154.9880 C   0  0  0  0  0  2  0  0  0  0  0  0
  159.5830  207.3480  155.9980 C   0  0  0  0  0  0  0  0  0  0  0  0
  158.5850  206.5950  155.8620 O   0  0  0  0  0  0  0  0  0  0  0  0
  160.4500  207.1760  157.1130 N   0  0  0  0  0  1  0  0  0  0  0  0
  1 11  1  0  0  0  0
  3 12  1  0  0  0  0
  3  5  1  0  0  0  0
  4  7  2  0  0  0  0
  6  2  1  6  0  0  0
  6  1  1  0  0  0  0
  6  9  1  0  0  0  0
  7 22  1  0  0  0  0
  7  9  1  0  0  0  0
  8 11  1  0  0  0  0
  8 14  2  0  0  0  0
  9 12  1  0  0  0  0
 10  6  1  0  0  0  0
 11  3  2  0  0  0  0
 12 26  1  1  0  0  0
 13  5  2  0  0  0  0
 13 16  1  0  0  0  0
 14 13  1  0  0  0  0
 15 16  2  0  0  0  0
 16 17  1  0  0  0  0
 17 18  1  0  0  0  0
 18 21  1  0  0  0  0
 19 18  2  0  0  0  0
 21 20  1  0  0  0  0
 22 24  1  0  0  0  0
 24 23  1  0  0  0  0
 25 24  1  0  0  0  0
 25 23  1  0  0  0  0
 26 28  1  1  0  0  0
 26 29  1  0  0  0  0
 26 34  1  0  0  0  0
 27 28  1  0  0  0  0
 29 30  1  0  0  0  0
 30 33  1  0  0  0  0
 31 30  2  0  0  0  0
 33 32  1  0  0  0  0
 34 35  1  0  0  0  0
 35 37  1  0  0  0  0
 36 35  2  0  0  0  0
M  END
>  <MODEL>
5

>  <REMARK>
 VINA RESULT:      -1.6      2.020      7.615
  Name = 
  11 active torsions:
  status: ('A' for Active; 'I' for Inactive)
    1  A    between atoms: C_1  and  C_5
    2  A    between atoms: C_1  and  C_36
    3  A    between atoms: C_5  and  C_23
    4  A    between atoms: C_6  and  C_31
    5  A    between atoms: C_11  and  C_33
    6  A    between atoms: C_18  and  C_19
    7  A    between atoms: C_20  and  O_32
    8  A    between atoms: C_21  and  O_32
    9  A    between atoms: C_27  and  C_36
   10  A    between atoms: C_29  and  C_36
   11  A    between atoms: C_33  and  C_36
                            x       y       z     vdW  Elec       q    Type
                         _______ _______ _______ _____ _____    ______ ____

>  <TORSDO>
F 11

$$$$
=
 OpenBabel11062409223D

 37 39  0  0  1  0  0  0  0  0999 V2000
  162.7060  209.1770  150.1980 C   0  0  0  0  0  2  0  0  0  0  0  0
  163.2660  207.4790  148.5080 C   0  0  0  0  0  1  0  0  0  0  0  0
  160.7730  208.7320  151.7070 C   0  0  0  0  0  0  0  0  0  0  0  0
  159.2770  206.5830  148.7890 O   0  0  0  0  0  0  0  0  0  0  0  0
  159.7760  209.1650  152.5860 C   0  0  0  0  0  3  0  0  0  0  0  0
  162.1100  208.1640  149.2110 C   0  0  1  0  0  0  0  0  0  0  0  0
  160.4610  206.2700  149.0780 C   0  0  0  0  0  0  0  0  0  0  0  0
  161.6030  211.0010  151.5250 C   0  0  0  0  0  3  0  0  0  0  0  0
  161.2480  207.1600  149.8840 N   0  0  0  0  0  0  0  0  0  0  0  0
  161.3600  208.8610  148.2600 O   0  0  0  0  0  1  0  0  0  0  0  0
  161.6730  209.6530  151.1620 C   0  0  0  0  0  0  0  0  0  0  0  0
  160.8680  207.2850  151.3080 C   0  0  1  0  0  3  0  0  0  0  0  0
  159.6920  210.5180  152.9500 C   0  0  0  0  0  0  0  0  0  0  0  0
  160.6160  211.4300  152.4180 C   0  0  0  0  0  3  0  0  0  0  0  0
  158.5040  210.3910  154.9950 O   0  0  0  0  0  0  0  0  0  0  0  0
  158.6500  210.9730  153.8860 C   0  0  0  0  0  0  0  0  0  0  0  0
  157.8010  212.0720  153.5260 N   0  0  0  0  0  2  0  0  0  0  0  0
  156.7970  212.6500  154.3690 C   0  0  0  0  0  0  0  0  0  0  0  0
  156.6500  212.2680  155.5600 O   0  0  0  0  0  0  0  0  0  0  0  0
  156.3480  214.0750  152.4160 C   0  0  0  0  0  1  0  0  0  0  0  0
  155.9410  213.7460  153.8390 C   0  0  0  0  0  2  0  0  0  0  0  0
  160.9770  205.0610  148.6080 O   0  0  0  0  0  0  0  0  0  0  0  0
  161.4790  203.3000  147.0710 C   0  0  0  0  0  2  0  0  0  0  0  0
  161.0220  204.7360  147.2270 C   0  0  0  0  0  3  0  0  0  0  0  0
  162.4550  204.4300  146.8370 C   0  0  0  0  0  2  0  0  0  0  0  0
  161.7110  206.3560  152.2430 C   0  0  1  0  0  0  0  0  0  0  0  0
  164.1210  205.4510  152.5150 C   0  0  0  0  0  1  0  0  0  0  0  0
  162.9930  205.8240  151.5570 C   0  0  0  0  0  2  0  0  0  0  0  0
  162.1420  207.1890  153.4670 C   0  0  0  0  0  2  0  0  0  0  0  0
  161.2060  207.1180  154.6420 C   0  0  0  0  0  0  0  0  0  0  0  0
  160.2070  206.4170  154.5950 O   0  0  0  0  0  0  0  0  0  0  0  0
  161.7310  209.2730  155.4500 O   0  0  0  0  0  1  0  0  0  0  0  0
  161.4600  207.9630  155.8440 C   0  0  0  0  0  2  0  0  0  0  0  0
  160.8380  205.1800  152.7370 C   0  0  0  0  0  2  0  0  0  0  0  0
  160.8320  203.9850  151.8320 C   0  0  0  0  0  0  0  0  0  0  0  0
  159.9820  203.9010  150.9090 O   0  0  0  0  0  0  0  0  0  0  0  0
  161.7850  202.9450  152.0130 N   0  0  0  0  0  1  0  0  0  0  0  0
  1 11  1  0  0  0  0
  3  5  1  0  0  0  0
  4  7  2  0  0  0  0
  5 13  2  0  0  0  0
  6  2  1  6  0  0  0
  6  9  1  0  0  0  0
  6  1  1  0  0  0  0
  7  9  1  0  0  0  0
  8 14  2  0  0  0  0
  9 12  1  0  0  0  0
 10  6  1  0  0  0  0
 11  8  1  0  0  0  0
 11  3  2  0  0  0  0
 12  3  1  0  0  0  0
 12 26  1  1  0  0  0
 13 16  1  0  0  0  0
 14 13  1  0  0  0  0
 16 15  2  0  0  0  0
 17 16  1  0  0  0  0
 17 18  1  0  0  0  0
 18 19  2  0  0  0  0
 20 21  1  0  0  0  0
 21 18  1  0  0  0  0
 22  7  1  0  0  0  0
 23 24  1  0  0  0  0
 24 22  1  0  0  0  0
 25 23  1  0  0  0  0
 25 24  1  0  0  0  0
 26 28  1  6  0  0  0
 26 34  1  0  0  0  0
 26 29  1  0  0  0  0
 28 27  1  0  0  0  0
 29 30  1  0  0  0  0
 30 33  1  0  0  0  0
 31 30  2  0  0  0  0
 32 33  1  0  0  0  0
 35 37  1  0  0  0  0
 35 34  1  0  0  0  0
 36 35  2  0  0  0  0
M  END
>  <MODEL>
6

>  <REMARK>
 VINA RESULT:      -1.5      1.873      8.272
  Name = 
  11 active torsions:
  status: ('A' for Active; 'I' for Inactive)
    1  A    between atoms: C_1  and  C_5
    2  A    between atoms: C_1  and  C_36
    3  A    between atoms: C_5  and  C_23
    4  A    between atoms: C_6  and  C_31
    5  A    between atoms: C_11  and  C_33
    6  A    between atoms: C_18  and  C_19
    7  A    between atoms: C_20  and  O_32
    8  A    between atoms: C_21  and  O_32
    9  A    between atoms: C_27  and  C_36
   10  A    between atoms: C_29  and  C_36
   11  A    between atoms: C_33  and  C_36
                            x       y       z     vdW  Elec       q    Type
                         _______ _______ _______ _____ _____    ______ ____

>  <TORSDO>
F 11

$$$$
