=
 OpenBabel11062410383D

 32 37  0  0  1  0  0  0  0  0999 V2000
  161.2770  203.8860  145.7080 C   0  0  0  0  0  2  0  0  0  0  0  0
  161.4650  206.5630  150.2100 C   0  0  0  0  0  0  0  0  0  0  0  0
  162.0990  211.1030  148.4230 C   0  0  0  0  0  3  0  0  0  0  0  0
  161.9830  211.6290  149.6040 N   0  0  0  0  0  0  0  0  0  0  0  0
  161.0230  206.3060  152.6320 C   0  0  0  0  0  0  0  0  0  0  0  0
  160.8780  206.9640  153.8490 C   0  0  0  0  0  0  0  0  0  0  0  0
  162.0240  204.6200  148.8270 N   0  0  2  0  0  0  0  0  0  0  0  0
  162.2320  206.8210  147.8080 C   0  0  0  0  0  2  0  0  0  0  0  0
  160.8310  208.6760  155.2150 N   0  0  0  0  0  0  0  0  0  0  0  0
  162.2960  204.8150  146.3550 C   0  0  0  0  0  2  0  0  0  0  0  0
  162.0560  209.6500  148.2300 C   0  0  0  0  0  3  0  0  0  0  0  0
  161.7870  207.4060  149.0790 N   0  0  0  0  0  0  0  0  0  0  0  0
  161.8570  208.8250  149.2620 C   0  0  2  0  0  3  0  0  0  0  0  0
  161.4280  208.5380  151.6440 C   0  0  0  0  0  0  0  0  0  0  0  0
  160.6000  207.5240  155.8870 C   0  0  0  0  0  3  0  0  0  0  0  0
  160.6480  202.7900  147.7520 C   0  0  0  0  0  2  0  0  0  0  0  0
  161.6980  205.4080  147.6260 C   0  0  1  0  0  3  0  0  0  0  0  0
  160.6240  206.4380  155.0650 N   0  0  0  0  0  0  0  0  0  0  0  0
  161.7720  203.1720  148.7180 C   0  0  0  0  0  2  0  0  0  0  0  0
  161.2080  202.6060  146.4140 N   0  0  0  0  0  0  0  0  0  0  0  0
  161.8300  210.8600  150.8440 C   0  0  0  0  0  3  0  0  0  0  0  0
  161.6800  209.3700  150.6140 C   0  0  0  0  0  0  0  0  0  0  0  0
  161.2730  209.0910  152.8880 N   0  0  0  0  0  0  0  0  0  0  0  0
  161.1830  205.1110  149.9130 C   0  0  0  0  0  2  0  0  0  0  0  0
  160.9170  204.8130  152.6540 C   0  0  0  0  0  1  0  0  0  0  0  0
  160.8850  210.0180  155.7680 C   0  0  0  0  0  1  0  0  0  0  0  0
  161.3060  207.1030  151.4620 C   0  0  0  0  0  0  0  0  0  0  0  0
  161.0030  208.3000  153.9460 C   0  0  0  0  0  0  0  0  0  0  0  0
  160.3790  201.6620  145.6520 C   0  0  0  0  0  2  0  0  0  0  0  0
  160.8080  200.2280  145.7870 C   0  0  0  0  0  0  0  0  0  0  0  0
  161.5730  199.8290  146.8760 O   0  0  0  0  0  1  0  0  0  0  0  0
  160.4640  199.3830  144.9210 O   0  0  0  0  0  0  0  0  0  0  0  0
  1 10  1  0  0  0  0
  1 20  1  0  0  0  0
  2 27  2  0  0  0  0
  3  4  1  0  0  0  0
  4 21  2  0  0  0  0
  5 25  1  0  0  0  0
  5  6  2  0  0  0  0
  6 28  1  0  0  0  0
  6 18  1  0  0  0  0
  7 19  1  6  0  0  0
  7 24  1  0  0  0  0
  8 12  1  0  0  0  0
  9 26  1  0  0  0  0
  9 15  1  0  0  0  0
 11  3  2  0  0  0  0
 12 13  1  0  0  0  0
 12  2  1  0  0  0  0
 13 11  1  6  0  0  0
 13 22  1  0  0  0  0
 14 23  1  0  0  0  0
 16 19  1  0  0  0  0
 17 10  1  6  0  0  0
 17  8  1  0  0  0  0
 17  7  1  0  0  0  0
 18 15  2  0  0  0  0
 20 16  1  0  0  0  0
 22 21  1  0  0  0  0
 22 14  2  0  0  0  0
 23 28  2  0  0  0  0
 24  2  1  0  0  0  0
 27 14  1  0  0  0  0
 27  5  1  0  0  0  0
 28  9  1  0  0  0  0
 29 30  1  0  0  0  0
 29 20  1  0  0  0  0
 30 31  1  0  0  0  0
 32 30  2  0  0  0  0
M  END
>  <MODEL>
1

>  <REMARK>
 VINA RESULT:      -8.2      0.000      0.000
  Name = 
  2 active torsions:
  status: ('A' for Active; 'I' for Inactive)
    1  A    between atoms: C_1  and  C_10
    2  A    between atoms: C_10  and  N_24
                            x       y       z     vdW  Elec       q    Type
                         _______ _______ _______ _____ _____    ______ ____

>  <TORSDO>
F 2

$$$$
=
 OpenBabel11062410383D

 32 37  0  0  1  0  0  0  0  0999 V2000
  161.0250  203.3280  147.0600 C   0  0  0  0  0  2  0  0  0  0  0  0
  161.3820  206.7620  151.0050 C   0  0  0  0  0  0  0  0  0  0  0  0
  162.0370  210.8960  148.4190 C   0  0  0  0  0  3  0  0  0  0  0  0
  161.9620  211.6270  149.4890 N   0  0  0  0  0  0  0  0  0  0  0  0
  161.0050  206.9500  153.4440 C   0  0  0  0  0  0  0  0  0  0  0  0
  160.9050  207.8180  154.5260 C   0  0  0  0  0  0  0  0  0  0  0  0
  161.8710  204.5920  149.9780 N   0  0  2  0  0  0  0  0  0  0  0  0
  162.0840  206.5700  148.5770 C   0  0  0  0  0  2  0  0  0  0  0  0
  160.9230  209.7460  155.5650 N   0  0  0  0  0  0  0  0  0  0  0  0
  162.0760  204.3370  147.5050 C   0  0  0  0  0  2  0  0  0  0  0  0
  161.9650  209.4320  148.4900 C   0  0  0  0  0  3  0  0  0  0  0  0
  161.6850  207.3830  149.7340 N   0  0  0  0  0  0  0  0  0  0  0  0
  161.7820  208.8090  149.6580 C   0  0  2  0  0  3  0  0  0  0  0  0
  161.4160  208.9610  152.0630 C   0  0  0  0  0  0  0  0  0  0  0  0
  160.6930  208.7380  156.4380 C   0  0  0  0  0  3  0  0  0  0  0  0
  160.4370  202.6280  149.2830 C   0  0  0  0  0  2  0  0  0  0  0  0
  161.5230  205.1590  148.6640 C   0  0  1  0  0  3  0  0  0  0  0  0
  160.6760  207.5230  155.8230 N   0  0  0  0  0  0  0  0  0  0  0  0
  161.5930  203.1530  150.1360 C   0  0  0  0  0  2  0  0  0  0  0  0
  160.9550  202.1970  147.9860 N   0  0  0  0  0  0  0  0  0  0  0  0
  161.8330  211.0950  150.8500 C   0  0  0  0  0  3  0  0  0  0  0  0
  161.6520  209.5910  150.8950 C   0  0  0  0  0  0  0  0  0  0  0  0
  161.3050  209.7300  153.1910 N   0  0  0  0  0  0  0  0  0  0  0  0
  161.0690  205.2860  150.9790 C   0  0  0  0  0  2  0  0  0  0  0  0
  160.8750  205.4870  153.7360 C   0  0  0  0  0  1  0  0  0  0  0  0
  161.0130  211.1640  155.8670 C   0  0  0  0  0  1  0  0  0  0  0  0
  161.2660  207.5190  152.1430 C   0  0  0  0  0  0  0  0  0  0  0  0
  161.0530  209.1470  154.3800 C   0  0  0  0  0  0  0  0  0  0  0  0
  160.0900  201.1490  147.4260 C   0  0  0  0  0  2  0  0  0  0  0  0
  160.6450  200.4970  146.1900 C   0  0  0  0  0  0  0  0  0  0  0  0
  160.2020  200.8920  144.9350 O   0  0  0  0  0  0  0  0  0  0  0  0
  161.5230  199.6010  146.2910 O   0  0  0  0  0  1  0  0  0  0  0  0
  1 10  1  0  0  0  0
  1 20  1  0  0  0  0
  2 27  2  0  0  0  0
  3 11  2  0  0  0  0
  3  4  1  0  0  0  0
  4 21  2  0  0  0  0
  5 25  1  0  0  0  0
  5  6  2  0  0  0  0
  6 18  1  0  0  0  0
  7 19  1  6  0  0  0
  7 24  1  0  0  0  0
  8 17  1  0  0  0  0
  8 12  1  0  0  0  0
  9 26  1  0  0  0  0
  9 15  1  0  0  0  0
 12  2  1  0  0  0  0
 13 11  1  6  0  0  0
 13 12  1  0  0  0  0
 13 22  1  0  0  0  0
 14 27  1  0  0  0  0
 14 23  1  0  0  0  0
 16 19  1  0  0  0  0
 17 10  1  6  0  0  0
 17  7  1  0  0  0  0
 18 15  2  0  0  0  0
 20 16  1  0  0  0  0
 21 22  1  0  0  0  0
 22 14  2  0  0  0  0
 23 28  2  0  0  0  0
 24  2  1  0  0  0  0
 27  5  1  0  0  0  0
 28  6  1  0  0  0  0
 28  9  1  0  0  0  0
 29 20  1  0  0  0  0
 30 32  1  0  0  0  0
 30 29  1  0  0  0  0
 31 30  2  0  0  0  0
M  END
>  <MODEL>
2

>  <REMARK>
 VINA RESULT:      -7.7      1.001      1.159
  Name = 
  2 active torsions:
  status: ('A' for Active; 'I' for Inactive)
    1  A    between atoms: C_1  and  C_10
    2  A    between atoms: C_10  and  N_24
                            x       y       z     vdW  Elec       q    Type
                         _______ _______ _______ _____ _____    ______ ____

>  <TORSDO>
F 2

$$$$
=
 OpenBabel11062410383D

 32 37  0  0  1  0  0  0  0  0999 V2000
  160.6580  209.5010  154.7530 C   0  0  0  0  0  2  0  0  0  0  0  0
  161.2160  206.6180  150.4110 C   0  0  0  0  0  0  0  0  0  0  0  0
  160.6780  202.1280  152.3490 C   0  0  0  0  0  3  0  0  0  0  0  0
  160.6960  201.5730  151.1750 N   0  0  0  0  0  0  0  0  0  0  0  0
  161.2970  206.8310  147.9470 C   0  0  0  0  0  0  0  0  0  0  0  0
  161.2710  206.1500  146.7340 C   0  0  0  0  0  0  0  0  0  0  0  0
  161.8410  208.5000  151.8510 N   0  0  2  0  0  0  0  0  0  0  0  0
  161.4540  206.3480  152.9200 C   0  0  0  0  0  2  0  0  0  0  0  0
  161.1790  204.4080  145.4080 N   0  0  0  0  0  0  0  0  0  0  0  0
  161.5980  208.3790  154.3300 C   0  0  0  0  0  2  0  0  0  0  0  0
  160.8600  203.5750  152.5100 C   0  0  0  0  0  3  0  0  0  0  0  0
  161.1620  205.7870  151.5940 N   0  0  0  0  0  0  0  0  0  0  0  0
  161.0100  204.3710  151.4480 C   0  0  0  0  0  0  0  0  0  0  0  0
  161.1010  204.6120  149.0240 C   0  0  0  0  0  0  0  0  0  0  0  0
  161.2900  205.5500  144.6880 C   0  0  0  0  0  3  0  0  0  0  0  0
  160.6350  210.5890  152.6110 C   0  0  0  0  0  2  0  0  0  0  0  0
  161.1560  207.8390  152.9750 C   0  0  1  0  0  3  0  0  0  0  0  0
  161.3500  206.6530  145.4840 N   0  0  0  0  0  0  0  0  0  0  0  0
  161.8350  209.9730  151.8890 C   0  0  0  0  0  2  0  0  0  0  0  0
  160.9530  210.7380  154.0290 N   0  0  0  0  0  0  0  0  0  0  0  0
  160.9230  202.2970  149.9190 C   0  0  0  0  0  2  0  0  0  0  0  0
  161.0000  203.8000  150.0950 C   0  0  0  0  0  0  0  0  0  0  0  0
  161.0890  204.0360  147.7810 N   0  0  0  0  0  0  0  0  0  0  0  0
  161.1470  208.1090  150.6280 C   0  0  0  0  0  2  0  0  0  0  0  0
  161.4650  208.3180  147.8830 C   0  0  0  0  0  1  0  0  0  0  0  0
  161.0960  203.0520  144.8940 C   0  0  0  0  0  1  0  0  0  0  0  0
  161.2040  206.0540  149.1600 C   0  0  0  0  0  0  0  0  0  0  0  0
  161.1710  204.8090  146.6810 C   0  0  0  0  0  0  0  0  0  0  0  0
  160.1770  211.8460  154.6020 C   0  0  0  0  0  2  0  0  0  0  0  0
  158.7630  211.4800  154.9570 C   0  0  0  0  0  0  0  0  0  0  0  0
  158.4240  211.2090  156.2750 O   0  0  0  0  0  1  0  0  0  0  0  0
  157.8810  211.4320  154.0610 O   0  0  0  0  0  0  0  0  0  0  0  0
  2 24  1  0  0  0  0
  2 12  1  0  0  0  0
  3 11  1  0  0  0  0
  4  3  2  0  0  0  0
  5 27  1  0  0  0  0
  6  5  2  0  0  0  0
  7 24  1  6  0  0  0
  7 19  1  0  0  0  0
  7 17  1  0  0  0  0
  9 28  1  0  0  0  0
 10  1  1  0  0  0  0
 12  8  1  0  0  0  0
 13 12  1  0  0  0  0
 13 11  2  0  0  0  0
 14 27  1  0  0  0  0
 14 22  2  0  0  0  0
 15  9  1  0  0  0  0
 15 18  2  0  0  0  0
 16 20  1  0  0  0  0
 17  8  1  1  0  0  0
 17 10  1  0  0  0  0
 18  6  1  0  0  0  0
 19 16  1  0  0  0  0
 20 29  1  0  0  0  0
 20  1  1  0  0  0  0
 21 22  1  0  0  0  0
 21  4  1  0  0  0  0
 22 13  1  0  0  0  0
 23 14  1  0  0  0  0
 25  5  1  0  0  0  0
 26  9  1  0  0  0  0
 27  2  2  0  0  0  0
 28  6  1  0  0  0  0
 28 23  2  0  0  0  0
 29 30  1  0  0  0  0
 30 31  1  0  0  0  0
 32 30  2  0  0  0  0
M  END
>  <MODEL>
3

>  <REMARK>
 VINA RESULT:      -7.1      4.108      8.966
  Name = 
  2 active torsions:
  status: ('A' for Active; 'I' for Inactive)
    1  A    between atoms: C_1  and  C_10
    2  A    between atoms: C_10  and  N_24
                            x       y       z     vdW  Elec       q    Type
                         _______ _______ _______ _____ _____    ______ ____

>  <TORSDO>
F 2

$$$$
=
 OpenBabel11062410383D

 32 37  0  0  1  0  0  0  0  0999 V2000
  161.7070  209.9430  154.9450 C   0  0  0  0  0  2  0  0  0  0  0  0
  161.0580  206.0300  151.5190 C   0  0  0  0  0  0  0  0  0  0  0  0
  161.7720  208.5020  147.3260 C   0  0  0  0  0  3  0  0  0  0  0  0
  161.7240  207.4100  146.6250 N   0  0  0  0  0  0  0  0  0  0  0  0
  160.8830  203.5640  151.4130 C   0  0  0  0  0  0  0  0  0  0  0  0
  160.8800  202.4470  150.5820 C   0  0  0  0  0  0  0  0  0  0  0  0
  160.4430  207.2410  153.5580 N   0  0  2  0  0  0  0  0  0  0  0  0
  160.9180  208.5600  151.5690 C   0  0  0  0  0  2  0  0  0  0  0  0
  160.9640  201.3520  148.6870 N   0  0  0  0  0  0  0  0  0  0  0  0
  160.7780  209.7040  153.7610 C   0  0  0  0  0  2  0  0  0  0  0  0
  161.5630  208.4850  148.7780 C   0  0  0  0  0  3  0  0  0  0  0  0
  161.1750  207.3060  150.8490 N   0  0  0  0  0  0  0  0  0  0  0  0
  161.3540  207.3360  149.4280 C   0  0  0  0  0  0  0  0  0  0  0  0
  161.1700  204.9070  149.3550 C   0  0  0  0  0  0  0  0  0  0  0  0
  160.8010  200.4970  149.7240 C   0  0  0  0  0  3  0  0  0  0  0  0
  161.6260  207.6800  155.7500 C   0  0  0  0  0  2  0  0  0  0  0  0
  161.1830  208.4130  153.0600 C   0  0  1  0  0  3  0  0  0  0  0  0
  160.7440  201.1480  150.9190 N   0  0  0  0  0  0  0  0  0  0  0  0
  160.4150  207.0910  155.0240 C   0  0  0  0  0  2  0  0  0  0  0  0
  161.3560  209.0800  156.0740 N   0  0  0  0  0  0  0  0  0  0  0  0
  161.4350  206.0820  147.1770 C   0  0  0  0  0  2  0  0  0  0  0  0
  161.3290  206.0680  148.6880 C   0  0  0  0  0  0  0  0  0  0  0  0
  161.1500  203.7480  148.6240 N   0  0  0  0  0  0  0  0  0  0  0  0
  161.1000  206.0520  153.0270 C   0  0  0  0  0  2  0  0  0  0  0  0
  160.6770  203.3180  152.8750 C   0  0  0  0  0  1  0  0  0  0  0  0
  161.0600  201.0130  147.2770 C   0  0  0  0  0  1  0  0  0  0  0  0
  161.0370  204.8610  150.8000 C   0  0  0  0  0  0  0  0  0  0  0  0
  161.0100  202.5620  149.2480 C   0  0  0  0  0  0  0  0  0  0  0  0
  162.1260  209.4750  157.2610 C   0  0  0  0  0  2  0  0  0  0  0  0
  162.6320  210.8900  157.2150 C   0  0  0  0  0  0  0  0  0  0  0  0
  163.9960  211.1400  157.1460 O   0  0  0  0  0  0  0  0  0  0  0  0
  161.8190  211.8500  157.2270 O   0  0  0  0  0  1  0  0  0  0  0  0
  1 20  1  0  0  0  0
  2 24  1  0  0  0  0
  3 11  1  0  0  0  0
  4 21  1  0  0  0  0
  4  3  2  0  0  0  0
  5 25  1  0  0  0  0
  6 18  1  0  0  0  0
  6  5  2  0  0  0  0
  7 24  1  6  0  0  0
  7 19  1  0  0  0  0
  9 28  1  0  0  0  0
  9 15  1  0  0  0  0
 10  1  1  0  0  0  0
 11 13  2  0  0  0  0
 12  2  1  0  0  0  0
 12  8  1  0  0  0  0
 13 12  1  0  0  0  0
 14 27  1  0  0  0  0
 15 18  2  0  0  0  0
 16 20  1  0  0  0  0
 17  8  1  6  0  0  0
 17  7  1  0  0  0  0
 17 10  1  0  0  0  0
 19 16  1  0  0  0  0
 20 29  1  0  0  0  0
 21 22  1  0  0  0  0
 22 14  2  0  0  0  0
 22 13  1  0  0  0  0
 23 28  2  0  0  0  0
 23 14  1  0  0  0  0
 26  9  1  0  0  0  0
 27  5  1  0  0  0  0
 27  2  2  0  0  0  0
 28  6  1  0  0  0  0
 30 32  1  0  0  0  0
 30 29  1  0  0  0  0
 31 30  2  0  0  0  0
M  END
>  <MODEL>
4

>  <REMARK>
 VINA RESULT:      -6.2      4.440      8.339
  Name = 
  2 active torsions:
  status: ('A' for Active; 'I' for Inactive)
    1  A    between atoms: C_1  and  C_10
    2  A    between atoms: C_10  and  N_24
                            x       y       z     vdW  Elec       q    Type
                         _______ _______ _______ _____ _____    ______ ____

>  <TORSDO>
F 2

$$$$
=
 OpenBabel11062410383D

 32 37  0  0  1  0  0  0  0  0999 V2000
  160.3880  214.1950  147.1980 C   0  0  0  0  0  2  0  0  0  0  0  0
  160.5330  211.3470  151.5960 C   0  0  0  0  0  0  0  0  0  0  0  0
  157.9110  214.2850  154.5460 C   0  0  0  0  0  3  0  0  0  0  0  0
  157.9200  213.4040  155.5000 N   0  0  0  0  0  0  0  0  0  0  0  0
  161.1370  209.0930  152.4200 C   0  0  0  0  0  0  0  0  0  0  0  0
  161.0630  208.2020  153.4870 C   0  0  0  0  0  0  0  0  0  0  0  0
  161.5810  212.2650  149.5810 N   0  0  2  0  0  0  0  0  0  0  0  0
  160.1840  213.7590  150.9000 C   0  0  0  0  0  2  0  0  0  0  0  0
  160.5290  207.5110  155.4960 N   0  0  0  0  0  0  0  0  0  0  0  0
  160.8650  214.4530  148.6220 C   0  0  0  0  0  2  0  0  0  0  0  0
  158.6200  214.0470  153.2840 C   0  0  0  0  0  3  0  0  0  0  0  0
  159.9390  212.6460  151.8260 N   0  0  0  0  0  0  0  0  0  0  0  0
  159.2660  212.8980  153.0650 C   0  0  2  0  0  3  0  0  0  0  0  0
  159.8830  210.6740  153.8510 C   0  0  0  0  0  0  0  0  0  0  0  0
  161.2130  206.5520  154.8290 C   0  0  0  0  0  3  0  0  0  0  0  0
  161.1890  211.9310  147.1050 C   0  0  0  0  0  2  0  0  0  0  0  0
  160.4990  213.2600  149.4970 C   0  0  1  0  0  3  0  0  0  0  0  0
  161.5620  206.9510  153.5740 N   0  0  0  0  0  0  0  0  0  0  0  0
  162.1550  211.8490  148.2890 C   0  0  0  0  0  2  0  0  0  0  0  0
  161.2780  213.2610  146.5050 N   0  0  0  0  0  0  0  0  0  0  0  0
  158.6390  212.1270  155.4440 C   0  0  0  0  0  3  0  0  0  0  0  0
  159.2750  211.8520  154.0960 C   0  0  0  0  0  0  0  0  0  0  0  0
  159.8690  209.7290  154.8430 N   0  0  0  0  0  0  0  0  0  0  0  0
  161.0250  211.0660  150.1980 C   0  0  0  0  0  2  0  0  0  0  0  0
  161.8910  208.6370  151.2100 C   0  0  0  0  0  1  0  0  0  0  0  0
  160.0090  207.4370  156.8500 C   0  0  0  0  0  1  0  0  0  0  0  0
  160.5250  210.3900  152.5800 C   0  0  0  0  0  0  0  0  0  0  0  0
  160.4500  208.5310  154.6380 C   0  0  0  0  0  0  0  0  0  0  0  0
  160.9160  213.1930  145.0830 C   0  0  0  0  0  2  0  0  0  0  0  0
  162.0890  213.3120  144.1500 C   0  0  0  0  0  0  0  0  0  0  0  0
  162.1110  212.5910  142.9630 O   0  0  0  0  0  0  0  0  0  0  0  0
  163.0470  214.0750  144.4370 O   0  0  0  0  0  1  0  0  0  0  0  0
  1 10  1  0  0  0  0
  2 12  1  0  0  0  0
  2 27  2  0  0  0  0
  3  4  1  0  0  0  0
  5 27  1  0  0  0  0
  5  6  2  0  0  0  0
  6 18  1  0  0  0  0
  6 28  1  0  0  0  0
  7 19  1  6  0  0  0
  7 24  1  0  0  0  0
  8 12  1  0  0  0  0
  9 26  1  0  0  0  0
 11  3  2  0  0  0  0
 12 13  1  0  0  0  0
 13 11  1  6  0  0  0
 13 22  1  0  0  0  0
 14 22  2  0  0  0  0
 14 23  1  0  0  0  0
 15  9  1  0  0  0  0
 16 19  1  0  0  0  0
 17 10  1  6  0  0  0
 17  7  1  0  0  0  0
 17  8  1  0  0  0  0
 18 15  2  0  0  0  0
 20 16  1  0  0  0  0
 20  1  1  0  0  0  0
 21  4  2  0  0  0  0
 22 21  1  0  0  0  0
 24  2  1  0  0  0  0
 25  5  1  0  0  0  0
 27 14  1  0  0  0  0
 28 23  2  0  0  0  0
 28  9  1  0  0  0  0
 29 20  1  0  0  0  0
 30 32  1  0  0  0  0
 30 29  1  0  0  0  0
 31 30  2  0  0  0  0
M  END
>  <MODEL>
5

>  <REMARK>
 VINA RESULT:      -5.7      5.411      7.554
  Name = 
  2 active torsions:
  status: ('A' for Active; 'I' for Inactive)
    1  A    between atoms: C_1  and  C_10
    2  A    between atoms: C_10  and  N_24
                            x       y       z     vdW  Elec       q    Type
                         _______ _______ _______ _____ _____    ______ ____

>  <TORSDO>
F 2

$$$$
