=
 OpenBabel11062410053D

 43 46  0  0  0  0  0  0  0  0999 V2000
  161.9580  209.2030  148.2680 C   0  0  0  0  0  3  0  0  0  0  0  0
  162.0650  210.1360  149.3020 C   0  0  0  0  0  0  0  0  0  0  0  0
  161.6370  207.8720  148.5520 C   0  0  0  0  0  3  0  0  0  0  0  0
  161.8270  209.7350  150.6220 C   0  0  0  0  0  3  0  0  0  0  0  0
  161.5160  208.4000  150.9210 C   0  0  0  0  0  0  0  0  0  0  0  0
  161.4190  207.4730  149.8740 C   0  0  0  0  0  3  0  0  0  0  0  0
  161.2460  206.6020  152.6600 C   0  0  0  0  0  0  0  0  0  0  0  0
  160.9630  208.5380  154.6850 C   0  0  0  0  0  0  0  0  0  0  0  0
  161.1810  208.9420  153.3510 C   0  0  0  0  0  0  0  0  0  0  0  0
  161.3220  210.2920  153.0480 O   0  0  0  0  0  1  0  0  0  0  0  0
  161.3030  207.9760  152.3260 C   0  0  0  0  0  0  0  0  0  0  0  0
  161.0770  206.2190  153.9970 C   0  0  0  0  0  3  0  0  0  0  0  0
  160.9430  207.1770  154.9970 C   0  0  0  0  0  3  0  0  0  0  0  0
  159.7060  210.3150  156.0100 C   0  0  0  0  0  0  0  0  0  0  0  0
  158.5970  210.0850  155.4590 O   0  0  0  0  0  0  0  0  0  0  0  0
  159.8250  211.4380  156.9750 C   0  0  0  0  0  1  0  0  0  0  0  0
  160.8410  209.4780  155.7610 N   0  0  0  0  0  2  0  0  0  0  0  0
  161.3230  205.6060  151.6320 N   0  0  0  0  0  2  0  0  0  0  0  0
  160.8190  204.2460  151.7750 C   0  0  0  0  0  2  0  0  0  0  0  0
  160.7650  202.1210  150.4570 C   0  0  0  0  0  3  0  0  0  0  0  0
  161.0970  202.1130  148.0530 C   0  0  0  0  0  0  0  0  0  0  0  0
  161.1840  204.2000  149.2920 C   0  0  0  0  0  3  0  0  0  0  0  0
  160.8470  201.4270  149.2470 C   0  0  0  0  0  3  0  0  0  0  0  0
  160.9380  203.5070  150.4830 C   0  0  0  0  0  0  0  0  0  0  0  0
  161.2660  203.5050  148.0830 C   0  0  0  0  0  3  0  0  0  0  0  0
  160.3450  201.6850  145.7360 C   0  0  0  0  0  1  0  0  0  0  0  0
  161.1670  201.3920  146.8570 O   0  0  0  0  0  0  0  0  0  0  0  0
  162.3710  211.5620  148.9760 C   0  0  0  0  0  2  0  0  0  0  0  0
  161.3380  212.1330  148.2250 O   0  0  0  0  0  0  0  0  0  0  0  0
  161.7130  213.4680  148.0410 C   0  0  0  0  0  2  0  0  0  0  0  0
  161.1420  213.9910  146.7320 C   0  0  0  0  0  2  0  0  0  0  0  0
  160.0810  213.1060  146.2600 N   0  0  0  0  0  0  0  0  0  0  0  0
  160.4220  212.5400  144.9440 C   0  0  0  0  0  3  0  0  0  0  0  0
  159.8510  212.4300  142.4670 C   0  0  0  0  0  2  0  0  0  0  0  0
  162.0210  212.7000  142.9780 C   0  0  0  0  0  2  0  0  0  0  0  0
  161.0860  211.7570  142.5110 O   0  0  0  0  0  0  0  0  0  0  0  0
  161.7890  213.0420  144.4580 C   0  0  0  0  0  2  0  0  0  0  0  0
  159.3140  212.7010  143.8820 C   0  0  0  0  0  2  0  0  0  0  0  0
  158.8590  213.8900  146.1370 C   0  0  0  0  0  2  0  0  0  0  0  0
  157.3970  212.2440  146.9800 O   0  0  0  0  0  0  0  0  0  0  0  0
  157.8270  213.3810  147.0910 C   0  0  0  0  0  0  0  0  0  0  0  0
  158.4040  213.7140  149.6170 C   0  0  0  0  0  1  0  0  0  0  0  0
  157.2420  214.4310  148.4190 S   0  0  0  0  0  0  0  0  0  0  0  0
  1  3  2  0  0  0  0
  1  2  1  0  0  0  0
  2  4  2  0  0  0  0
  3  6  1  0  0  0  0
  4  5  1  0  0  0  0
  5 11  1  0  0  0  0
  6  5  2  0  0  0  0
  7 12  1  0  0  0  0
  8 13  1  0  0  0  0
  8 17  1  0  0  0  0
  9  8  2  0  0  0  0
 10  9  1  0  0  0  0
 11  7  2  0  0  0  0
 11  9  1  0  0  0  0
 12 13  2  0  0  0  0
 14 16  1  0  0  0  0
 15 14  2  0  0  0  0
 17 14  1  0  0  0  0
 18 19  1  0  0  0  0
 18  7  1  0  0  0  0
 20 24  1  0  0  0  0
 21 25  2  0  0  0  0
 21 23  1  0  0  0  0
 22 24  2  0  0  0  0
 23 20  2  0  0  0  0
 24 19  1  0  0  0  0
 25 22  1  0  0  0  0
 26 27  1  0  0  0  0
 27 21  1  0  0  0  0
 28  2  1  0  0  0  0
 29 28  1  0  0  0  0
 30 29  1  0  0  0  0
 31 30  1  0  0  0  0
 32 31  1  0  0  0  0
 33 32  1  0  0  0  0
 34 36  1  0  0  0  0
 34 38  1  0  0  0  0
 35 37  1  0  0  0  0
 36 35  1  0  0  0  0
 37 33  1  0  0  0  0
 38 33  1  0  0  0  0
 39 32  1  0  0  0  0
 39 41  1  0  0  0  0
 40 41  2  0  0  0  0
 41 43  1  0  0  0  0
 43 42  1  0  0  0  0
M  END
>  <MODEL>
1

>  <REMARK>
 VINA RESULT:      -8.3      0.000      0.000
  Name = 
  15 active torsions:
  status: ('A' for Active; 'I' for Inactive)
    1  A    between atoms: C_1  and  N_34
    2  A    between atoms: C_1  and  C_35
    3  A    between atoms: C_3  and  C_4
    4  A    between atoms: C_3  and  O_12
    5  A    between atoms: C_4  and  N_14
    6  A    between atoms: C_6  and  C_17
    7  A    between atoms: C_8  and  N_34
    8  A    between atoms: C_11  and  N_14
    9  A    between atoms: O_12  and  C_17
   10  A    between atoms: N_14  and  C_41
   11  A    between atoms: C_16  and  N_23
   12  A    between atoms: C_19  and  O_37
   13  A    between atoms: C_22  and  C_41
   14  A    between atoms: C_22  and  S_42
   15  A    between atoms: C_27  and  C_30
                            x       y       z     vdW  Elec       q    Type
                         _______ _______ _______ _____ _____    ______ ____

>  <TORSDO>
F 15

$$$$
=
 OpenBabel11062410053D

 43 46  0  0  0  0  0  0  0  0999 V2000
  162.4250  213.2330  148.8860 C   0  0  0  0  0  3  0  0  0  0  0  0
  161.9670  212.0410  148.3200 C   0  0  0  0  0  0  0  0  0  0  0  0
  162.3030  214.4370  148.1860 C   0  0  0  0  0  3  0  0  0  0  0  0
  161.3640  212.0630  147.0560 C   0  0  0  0  0  3  0  0  0  0  0  0
  161.2470  213.2630  146.3390 C   0  0  0  0  0  0  0  0  0  0  0  0
  161.7180  214.4510  146.9170 C   0  0  0  0  0  3  0  0  0  0  0  0
  159.3250  213.7500  144.7900 C   0  0  0  0  0  0  0  0  0  0  0  0
  160.8040  212.8130  142.5840 C   0  0  0  0  0  0  0  0  0  0  0  0
  161.3860  212.8200  143.8700 C   0  0  0  0  0  0  0  0  0  0  0  0
  162.7100  212.4280  144.0360 O   0  0  0  0  0  1  0  0  0  0  0  0
  160.6430  213.2710  144.9850 C   0  0  0  0  0  0  0  0  0  0  0  0
  158.7810  213.7800  143.4990 C   0  0  0  0  0  3  0  0  0  0  0  0
  159.5160  213.3210  142.4100 C   0  0  0  0  0  3  0  0  0  0  0  0
  162.4220  213.1730  140.6490 C   0  0  0  0  0  0  0  0  0  0  0  0
  162.8800  214.2550  141.1010 O   0  0  0  0  0  0  0  0  0  0  0  0
  162.8660  212.6900  139.3170 C   0  0  0  0  0  1  0  0  0  0  0  0
  161.5190  212.3740  141.4220 N   0  0  0  0  0  2  0  0  0  0  0  0
  158.5360  214.1700  145.9110 N   0  0  0  0  0  2  0  0  0  0  0  0
  157.2690  213.5600  146.2900 C   0  0  0  0  0  2  0  0  0  0  0  0
  158.0350  213.5480  148.6700 C   0  0  0  0  0  3  0  0  0  0  0  0
  156.5520  214.1890  150.4820 C   0  0  0  0  0  0  0  0  0  0  0  0
  155.7520  214.1930  148.1880 C   0  0  0  0  0  3  0  0  0  0  0  0
  157.8070  213.7600  150.0330 C   0  0  0  0  0  3  0  0  0  0  0  0
  157.0090  213.7590  147.7470 C   0  0  0  0  0  0  0  0  0  0  0  0
  155.5260  214.4040  149.5500 C   0  0  0  0  0  3  0  0  0  0  0  0
  157.1600  213.7810  152.8450 C   0  0  0  0  0  1  0  0  0  0  0  0
  156.3550  214.4000  151.8500 O   0  0  0  0  0  0  0  0  0  0  0  0
  162.0710  210.7710  149.0990 C   0  0  0  0  0  2  0  0  0  0  0  0
  162.3760  209.6940  148.2590 O   0  0  0  0  0  0  0  0  0  0  0  0
  162.0870  208.5490  149.0090 C   0  0  0  0  0  2  0  0  0  0  0  0
  161.0740  207.6890  148.2710 C   0  0  0  0  0  2  0  0  0  0  0  0
  161.3520  206.2740  148.5070 N   0  0  0  0  0  0  0  0  0  0  0  0
  161.1710  205.4960  147.2700 C   0  0  0  0  0  3  0  0  0  0  0  0
  160.7600  205.5650  144.7600 C   0  0  0  0  0  2  0  0  0  0  0  0
  162.3730  204.1710  145.4670 C   0  0  0  0  0  2  0  0  0  0  0  0
  161.0570  204.2050  144.9690 O   0  0  0  0  0  0  0  0  0  0  0  0
  162.4530  204.7400  146.8930 C   0  0  0  0  0  2  0  0  0  0  0  0
  160.5890  206.3090  146.0930 C   0  0  0  0  0  2  0  0  0  0  0  0
  160.4170  205.7900  149.5130 C   0  0  0  0  0  2  0  0  0  0  0  0
  160.7860  203.4640  149.6100 O   0  0  0  0  0  0  0  0  0  0  0  0
  160.9490  204.5470  150.1500 C   0  0  0  0  0  0  0  0  0  0  0  0
  161.2310  206.3190  152.0480 C   0  0  0  0  0  1  0  0  0  0  0  0
  161.8540  204.6500  151.6930 S   0  0  0  0  0  0  0  0  0  0  0  0
  2  1  1  0  0  0  0
  2 28  1  0  0  0  0
  3  1  2  0  0  0  0
  4  2  2  0  0  0  0
  5  6  2  0  0  0  0
  5  4  1  0  0  0  0
  6  3  1  0  0  0  0
  7 11  1  0  0  0  0
  7 18  1  0  0  0  0
  8  9  1  0  0  0  0
  9 10  1  0  0  0  0
  9 11  2  0  0  0  0
 11  5  1  0  0  0  0
 12  7  2  0  0  0  0
 13  8  2  0  0  0  0
 13 12  1  0  0  0  0
 14 15  2  0  0  0  0
 14 17  1  0  0  0  0
 16 14  1  0  0  0  0
 17  8  1  0  0  0  0
 18 19  1  0  0  0  0
 19 24  1  0  0  0  0
 20 23  1  0  0  0  0
 21 27  1  0  0  0  0
 22 25  2  0  0  0  0
 23 21  2  0  0  0  0
 24 22  1  0  0  0  0
 24 20  2  0  0  0  0
 25 21  1  0  0  0  0
 27 26  1  0  0  0  0
 29 30  1  0  0  0  0
 29 28  1  0  0  0  0
 31 32  1  0  0  0  0
 31 30  1  0  0  0  0
 32 39  1  0  0  0  0
 33 32  1  0  0  0  0
 34 36  1  0  0  0  0
 34 38  1  0  0  0  0
 35 37  1  0  0  0  0
 36 35  1  0  0  0  0
 37 33  1  0  0  0  0
 38 33  1  0  0  0  0
 39 41  1  0  0  0  0
 40 41  2  0  0  0  0
 41 43  1  0  0  0  0
 43 42  1  0  0  0  0
M  END
>  <MODEL>
2

>  <REMARK>
 VINA RESULT:      -7.1      3.353     10.421
  Name = 
  15 active torsions:
  status: ('A' for Active; 'I' for Inactive)
    1  A    between atoms: C_1  and  N_34
    2  A    between atoms: C_1  and  C_35
    3  A    between atoms: C_3  and  C_4
    4  A    between atoms: C_3  and  O_12
    5  A    between atoms: C_4  and  N_14
    6  A    between atoms: C_6  and  C_17
    7  A    between atoms: C_8  and  N_34
    8  A    between atoms: C_11  and  N_14
    9  A    between atoms: O_12  and  C_17
   10  A    between atoms: N_14  and  C_41
   11  A    between atoms: C_16  and  N_23
   12  A    between atoms: C_19  and  O_37
   13  A    between atoms: C_22  and  C_41
   14  A    between atoms: C_22  and  S_42
   15  A    between atoms: C_27  and  C_30
                            x       y       z     vdW  Elec       q    Type
                         _______ _______ _______ _____ _____    ______ ____

>  <TORSDO>
F 15

$$$$
=
 OpenBabel11062410053D

 43 46  0  0  0  0  0  0  0  0999 V2000
  162.5510  212.8630  147.7630 C   0  0  0  0  0  3  0  0  0  0  0  0
  161.9040  211.8860  148.5250 C   0  0  0  0  0  0  0  0  0  0  0  0
  162.0030  214.1450  147.6510 C   0  0  0  0  0  3  0  0  0  0  0  0
  160.7160  212.2070  149.1930 C   0  0  0  0  0  3  0  0  0  0  0  0
  160.1510  213.4860  149.0780 C   0  0  0  0  0  0  0  0  0  0  0  0
  160.8070  214.4530  148.3050 C   0  0  0  0  0  3  0  0  0  0  0  0
  157.6940  214.0230  149.0050 C   0  0  0  0  0  0  0  0  0  0  0  0
  157.5960  214.1830  151.8140 C   0  0  0  0  0  0  0  0  0  0  0  0
  158.8100  213.8660  151.1690 C   0  0  0  0  0  0  0  0  0  0  0  0
  159.9400  213.5660  151.9230 O   0  0  0  0  0  1  0  0  0  0  0  0
  158.8720  213.8030  149.7580 C   0  0  0  0  0  0  0  0  0  0  0  0
  156.4880  214.2910  149.6640 C   0  0  0  0  0  3  0  0  0  0  0  0
  156.4400  214.3640  151.0530 C   0  0  0  0  0  3  0  0  0  0  0  0
  157.3470  213.1270  154.1200 C   0  0  0  0  0  0  0  0  0  0  0  0
  157.6050  211.9600  153.7240 O   0  0  0  0  0  0  0  0  0  0  0  0
  156.9490  213.3500  155.5340 C   0  0  0  0  0  1  0  0  0  0  0  0
  157.4810  214.2500  153.2420 N   0  0  0  0  0  2  0  0  0  0  0  0
  157.7410  214.0100  147.5710 N   0  0  0  0  0  2  0  0  0  0  0  0
  157.7010  212.7960  146.7660 C   0  0  0  0  0  2  0  0  0  0  0  0
  158.2230  213.8740  144.5710 C   0  0  0  0  0  3  0  0  0  0  0  0
  160.2070  213.2780  143.3060 C   0  0  0  0  0  0  0  0  0  0  0  0
  159.7310  212.1830  145.4210 C   0  0  0  0  0  3  0  0  0  0  0  0
  159.0410  214.0390  143.4490 C   0  0  0  0  0  3  0  0  0  0  0  0
  158.5630  212.9440  145.5560 C   0  0  0  0  0  0  0  0  0  0  0  0
  160.5460  212.3470  144.3000 C   0  0  0  0  0  3  0  0  0  0  0  0
  161.7620  212.4190  141.5850 C   0  0  0  0  0  1  0  0  0  0  0  0
  161.0080  213.4680  142.1770 O   0  0  0  0  0  0  0  0  0  0  0  0
  162.5240  210.5340  148.6640 C   0  0  0  0  0  2  0  0  0  0  0  0
  161.6570  209.5390  148.2020 O   0  0  0  0  0  0  0  0  0  0  0  0
  161.8320  208.4630  149.0780 C   0  0  0  0  0  2  0  0  0  0  0  0
  160.8070  207.3800  148.7800 C   0  0  0  0  0  2  0  0  0  0  0  0
  161.4410  206.0650  148.8230 N   0  0  0  0  0  0  0  0  0  0  0  0
  161.4120  205.4300  147.4950 C   0  0  0  0  0  3  0  0  0  0  0  0
  160.9060  205.7130  145.0180 C   0  0  0  0  0  2  0  0  0  0  0  0
  162.8350  204.6820  145.5290 C   0  0  0  0  0  2  0  0  0  0  0  0
  161.5330  204.4530  145.0450 O   0  0  0  0  0  0  0  0  0  0  0  0
  162.8250  205.0670  147.0180 C   0  0  0  0  0  2  0  0  0  0  0  0
  160.6070  206.2160  146.4380 C   0  0  0  0  0  2  0  0  0  0  0  0
  160.7000  205.2350  149.7630 C   0  0  0  0  0  2  0  0  0  0  0  0
  162.2320  205.8530  151.4440 O   0  0  0  0  0  0  0  0  0  0  0  0
  161.5300  204.9700  150.9770 C   0  0  0  0  0  0  0  0  0  0  0  0
  160.7010  202.5820  150.3200 C   0  0  0  0  0  1  0  0  0  0  0  0
  161.4730  203.3630  151.7670 S   0  0  0  0  0  0  0  0  0  0  0  0
  1  2  1  0  0  0  0
  2 28  1  0  0  0  0
  2  4  2  0  0  0  0
  3  1  2  0  0  0  0
  3  6  1  0  0  0  0
  5  4  1  0  0  0  0
  5 11  1  0  0  0  0
  6  5  2  0  0  0  0
  7 12  2  0  0  0  0
  7 11  1  0  0  0  0
  8 17  1  0  0  0  0
  9  8  1  0  0  0  0
  9 10  1  0  0  0  0
 11  9  2  0  0  0  0
 12 13  1  0  0  0  0
 13  8  2  0  0  0  0
 14 16  1  0  0  0  0
 15 14  2  0  0  0  0
 17 14  1  0  0  0  0
 18  7  1  0  0  0  0
 19 18  1  0  0  0  0
 20 24  1  0  0  0  0
 21 23  1  0  0  0  0
 21 25  2  0  0  0  0
 22 24  2  0  0  0  0
 23 20  2  0  0  0  0
 24 19  1  0  0  0  0
 25 22  1  0  0  0  0
 26 27  1  0  0  0  0
 27 21  1  0  0  0  0
 29 28  1  0  0  0  0
 29 30  1  0  0  0  0
 31 32  1  0  0  0  0
 31 30  1  0  0  0  0
 32 39  1  0  0  0  0
 33 32  1  0  0  0  0
 34 36  1  0  0  0  0
 34 38  1  0  0  0  0
 35 37  1  0  0  0  0
 36 35  1  0  0  0  0
 37 33  1  0  0  0  0
 38 33  1  0  0  0  0
 39 41  1  0  0  0  0
 41 40  2  0  0  0  0
 41 43  1  0  0  0  0
 42 43  1  0  0  0  0
M  END
>  <MODEL>
3

>  <REMARK>
 VINA RESULT:      -6.9      3.273      8.402
  Name = 
  15 active torsions:
  status: ('A' for Active; 'I' for Inactive)
    1  A    between atoms: C_1  and  N_34
    2  A    between atoms: C_1  and  C_35
    3  A    between atoms: C_3  and  C_4
    4  A    between atoms: C_3  and  O_12
    5  A    between atoms: C_4  and  N_14
    6  A    between atoms: C_6  and  C_17
    7  A    between atoms: C_8  and  N_34
    8  A    between atoms: C_11  and  N_14
    9  A    between atoms: O_12  and  C_17
   10  A    between atoms: N_14  and  C_41
   11  A    between atoms: C_16  and  N_23
   12  A    between atoms: C_19  and  O_37
   13  A    between atoms: C_22  and  C_41
   14  A    between atoms: C_22  and  S_42
   15  A    between atoms: C_27  and  C_30
                            x       y       z     vdW  Elec       q    Type
                         _______ _______ _______ _____ _____    ______ ____

>  <TORSDO>
F 15

$$$$
=
 OpenBabel11062410053D

 43 46  0  0  0  0  0  0  0  0999 V2000
  162.3340  209.2030  148.1910 C   0  0  0  0  0  3  0  0  0  0  0  0
  161.9680  210.1800  149.1200 C   0  0  0  0  0  0  0  0  0  0  0  0
  162.3790  207.8570  148.5660 C   0  0  0  0  0  3  0  0  0  0  0  0
  161.6250  209.8000  150.4230 C   0  0  0  0  0  3  0  0  0  0  0  0
  161.6780  208.4540  150.8140 C   0  0  0  0  0  0  0  0  0  0  0  0
  162.0540  207.4850  149.8730 C   0  0  0  0  0  3  0  0  0  0  0  0
  161.2670  206.7000  152.5710 C   0  0  0  0  0  0  0  0  0  0  0  0
  160.8170  208.6850  154.5160 C   0  0  0  0  0  0  0  0  0  0  0  0
  161.1430  209.0560  153.1940 C   0  0  0  0  0  0  0  0  0  0  0  0
  161.3080  210.3980  152.8690 O   0  0  0  0  0  1  0  0  0  0  0  0
  161.3510  208.0650  152.2070 C   0  0  0  0  0  0  0  0  0  0  0  0
  160.9880  206.3500  153.8980 C   0  0  0  0  0  3  0  0  0  0  0  0
  160.7710  207.3330  154.8590 C   0  0  0  0  0  3  0  0  0  0  0  0
  159.3620  210.3000  155.8460 C   0  0  0  0  0  0  0  0  0  0  0  0
  158.2760  209.8570  155.3890 O   0  0  0  0  0  0  0  0  0  0  0  0
  159.3500  211.4810  156.7470 C   0  0  0  0  0  1  0  0  0  0  0  0
  160.6050  209.6520  155.5530 N   0  0  0  0  0  2  0  0  0  0  0  0
  161.4300  205.6770  151.5780 N   0  0  0  0  0  2  0  0  0  0  0  0
  161.4260  204.2500  151.8710 C   0  0  0  0  0  2  0  0  0  0  0  0
  161.5880  204.0560  149.3820 C   0  0  0  0  0  3  0  0  0  0  0  0
  161.0970  201.9720  148.2390 C   0  0  0  0  0  0  0  0  0  0  0  0
  160.9000  202.1160  150.6560 C   0  0  0  0  0  3  0  0  0  0  0  0
  161.4900  203.3140  148.2010 C   0  0  0  0  0  3  0  0  0  0  0  0
  161.2900  203.4610  150.6100 C   0  0  0  0  0  0  0  0  0  0  0  0
  160.8020  201.3770  149.4760 C   0  0  0  0  0  3  0  0  0  0  0  0
  160.6050  201.8480  145.8180 C   0  0  0  0  0  1  0  0  0  0  0  0
  161.0140  201.2540  147.0430 O   0  0  0  0  0  0  0  0  0  0  0  0
  161.8890  211.6090  148.6900 C   0  0  0  0  0  2  0  0  0  0  0  0
  161.0670  212.3430  149.5510 O   0  0  0  0  0  0  0  0  0  0  0  0
  161.0540  213.6410  149.0290 C   0  0  0  0  0  2  0  0  0  0  0  0
  159.7750  214.3520  149.4410 C   0  0  0  0  0  2  0  0  0  0  0  0
  158.6150  213.6600  148.8830 N   0  0  0  0  0  0  0  0  0  0  0  0
  158.5870  213.7910  147.4170 C   0  0  0  0  0  3  0  0  0  0  0  0
  158.8000  212.6070  145.1750 C   0  0  0  0  0  2  0  0  0  0  0  0
  157.0720  214.0260  145.3920 C   0  0  0  0  0  2  0  0  0  0  0  0
  158.3360  213.8790  144.7900 O   0  0  0  0  0  0  0  0  0  0  0  0
  157.1870  214.1750  146.9180 C   0  0  0  0  0  2  0  0  0  0  0  0
  159.1790  212.5810  146.6640 C   0  0  0  0  0  2  0  0  0  0  0  0
  157.4140  214.2680  149.4390 C   0  0  0  0  0  2  0  0  0  0  0  0
  156.3050  214.2820  151.5180 O   0  0  0  0  0  0  0  0  0  0  0  0
  157.2570  213.8750  150.8720 C   0  0  0  0  0  0  0  0  0  0  0  0
  158.5240  213.7740  153.1540 C   0  0  0  0  0  1  0  0  0  0  0  0
  158.4530  212.7810  151.6350 S   0  0  0  0  0  0  0  0  0  0  0  0
  1  3  2  0  0  0  0
  1  2  1  0  0  0  0
  2  4  2  0  0  0  0
  3  6  1  0  0  0  0
  4  5  1  0  0  0  0
  5 11  1  0  0  0  0
  6  5  2  0  0  0  0
  7 12  1  0  0  0  0
  8 13  1  0  0  0  0
  8 17  1  0  0  0  0
  9  8  2  0  0  0  0
 10  9  1  0  0  0  0
 11  7  2  0  0  0  0
 11  9  1  0  0  0  0
 12 13  2  0  0  0  0
 14 16  1  0  0  0  0
 15 14  2  0  0  0  0
 17 14  1  0  0  0  0
 18 19  1  0  0  0  0
 18  7  1  0  0  0  0
 20 24  1  0  0  0  0
 21 25  2  0  0  0  0
 23 21  1  0  0  0  0
 23 20  2  0  0  0  0
 24 22  2  0  0  0  0
 24 19  1  0  0  0  0
 25 22  1  0  0  0  0
 26 27  1  0  0  0  0
 27 21  1  0  0  0  0
 28  2  1  0  0  0  0
 28 29  1  0  0  0  0
 30 31  1  0  0  0  0
 30 29  1  0  0  0  0
 32 39  1  0  0  0  0
 32 31  1  0  0  0  0
 33 32  1  0  0  0  0
 34 38  1  0  0  0  0
 35 37  1  0  0  0  0
 36 34  1  0  0  0  0
 36 35  1  0  0  0  0
 37 33  1  0  0  0  0
 38 33  1  0  0  0  0
 39 41  1  0  0  0  0
 41 40  2  0  0  0  0
 41 43  1  0  0  0  0
 43 42  1  0  0  0  0
M  END
>  <MODEL>
4

>  <REMARK>
 VINA RESULT:      -6.9      1.554      2.338
  Name = 
  15 active torsions:
  status: ('A' for Active; 'I' for Inactive)
    1  A    between atoms: C_1  and  N_34
    2  A    between atoms: C_1  and  C_35
    3  A    between atoms: C_3  and  C_4
    4  A    between atoms: C_3  and  O_12
    5  A    between atoms: C_4  and  N_14
    6  A    between atoms: C_6  and  C_17
    7  A    between atoms: C_8  and  N_34
    8  A    between atoms: C_11  and  N_14
    9  A    between atoms: O_12  and  C_17
   10  A    between atoms: N_14  and  C_41
   11  A    between atoms: C_16  and  N_23
   12  A    between atoms: C_19  and  O_37
   13  A    between atoms: C_22  and  C_41
   14  A    between atoms: C_22  and  S_42
   15  A    between atoms: C_27  and  C_30
                            x       y       z     vdW  Elec       q    Type
                         _______ _______ _______ _____ _____    ______ ____

>  <TORSDO>
F 15

$$$$
=
 OpenBabel11062410053D

 43 46  0  0  0  0  0  0  0  0999 V2000
  162.7560  213.3150  148.3790 C   0  0  0  0  0  3  0  0  0  0  0  0
  162.0510  212.1850  147.9580 C   0  0  0  0  0  0  0  0  0  0  0  0
  162.8210  214.4480  147.5620 C   0  0  0  0  0  3  0  0  0  0  0  0
  161.3920  212.2020  146.7230 C   0  0  0  0  0  3  0  0  0  0  0  0
  161.4600  213.3290  145.8900 C   0  0  0  0  0  0  0  0  0  0  0  0
  162.1770  214.4530  146.3220 C   0  0  0  0  0  3  0  0  0  0  0  0
  159.4440  213.7400  144.4420 C   0  0  0  0  0  0  0  0  0  0  0  0
  160.8570  212.9040  142.1550 C   0  0  0  0  0  0  0  0  0  0  0  0
  161.4990  212.9240  143.4110 C   0  0  0  0  0  0  0  0  0  0  0  0
  162.8470  212.5950  143.5080 O   0  0  0  0  0  1  0  0  0  0  0  0
  160.7910  213.3230  144.5670 C   0  0  0  0  0  0  0  0  0  0  0  0
  158.8370  213.7590  143.1800 C   0  0  0  0  0  3  0  0  0  0  0  0
  159.5390  213.3500  142.0500 C   0  0  0  0  0  3  0  0  0  0  0  0
  161.3340  211.2870  140.2430 C   0  0  0  0  0  0  0  0  0  0  0  0
  160.3280  210.5650  140.4690 O   0  0  0  0  0  0  0  0  0  0  0  0
  162.3000  210.8880  139.1880 C   0  0  0  0  0  1  0  0  0  0  0  0
  161.5350  212.5150  140.9530 N   0  0  0  0  0  2  0  0  0  0  0  0
  158.6910  214.1070  145.6060 N   0  0  0  0  0  2  0  0  0  0  0  0
  157.7310  213.2310  146.2650 C   0  0  0  0  0  2  0  0  0  0  0  0
  156.3620  213.7900  148.2820 C   0  0  0  0  0  3  0  0  0  0  0  0
  157.3910  214.1630  150.4480 C   0  0  0  0  0  0  0  0  0  0  0  0
  158.7670  213.6480  148.5140 C   0  0  0  0  0  3  0  0  0  0  0  0
  156.2490  214.0840  149.6440 C   0  0  0  0  0  3  0  0  0  0  0  0
  157.6200  213.5750  147.7140 C   0  0  0  0  0  0  0  0  0  0  0  0
  158.6530  213.9430  149.8740 C   0  0  0  0  0  3  0  0  0  0  0  0
  156.4400  213.6710  152.6780 C   0  0  0  0  0  1  0  0  0  0  0  0
  157.2470  214.4530  151.8080 O   0  0  0  0  0  0  0  0  0  0  0  0
  161.9610  210.9980  148.8620 C   0  0  0  0  0  2  0  0  0  0  0  0
  162.3900  209.8390  148.2060 O   0  0  0  0  0  0  0  0  0  0  0  0
  161.7880  208.7820  148.8960 C   0  0  0  0  0  2  0  0  0  0  0  0
  162.3680  208.6820  150.2980 C   0  0  0  0  0  2  0  0  0  0  0  0
  161.4500  207.9530  151.1700 N   0  0  0  0  0  0  0  0  0  0  0  0
  161.3920  208.5760  152.5020 C   0  0  0  0  0  3  0  0  0  0  0  0
  160.0460  210.0080  154.1190 C   0  0  0  0  0  2  0  0  0  0  0  0
  160.9720  208.1460  154.9690 C   0  0  0  0  0  2  0  0  0  0  0  0
  161.0940  209.5480  154.9390 O   0  0  0  0  0  0  0  0  0  0  0  0
  161.3280  207.5180  153.6120 C   0  0  0  0  0  2  0  0  0  0  0  0
  160.3000  209.6590  152.6440 C   0  0  0  0  0  2  0  0  0  0  0  0
  161.9410  206.5880  151.3050 C   0  0  0  0  0  2  0  0  0  0  0  0
  160.1290  205.0840  151.1990 O   0  0  0  0  0  0  0  0  0  0  0  0
  161.0290  205.6430  150.5910 C   0  0  0  0  0  0  0  0  0  0  0  0
  160.8680  203.5820  148.9950 C   0  0  0  0  0  1  0  0  0  0  0  0
  161.2360  205.3540  148.8360 S   0  0  0  0  0  0  0  0  0  0  0  0
  2  1  1  0  0  0  0
  2 28  1  0  0  0  0
  3  1  2  0  0  0  0
  4  2  2  0  0  0  0
  5  6  2  0  0  0  0
  5  4  1  0  0  0  0
  6  3  1  0  0  0  0
  7 11  1  0  0  0  0
  7 18  1  0  0  0  0
  8  9  1  0  0  0  0
  9 10  1  0  0  0  0
  9 11  2  0  0  0  0
 11  5  1  0  0  0  0
 12  7  2  0  0  0  0
 13  8  2  0  0  0  0
 13 12  1  0  0  0  0
 14 15  2  0  0  0  0
 14 17  1  0  0  0  0
 16 14  1  0  0  0  0
 17  8  1  0  0  0  0
 18 19  1  0  0  0  0
 19 24  1  0  0  0  0
 20 23  1  0  0  0  0
 21 27  1  0  0  0  0
 22 25  2  0  0  0  0
 23 21  2  0  0  0  0
 24 20  2  0  0  0  0
 24 22  1  0  0  0  0
 25 21  1  0  0  0  0
 27 26  1  0  0  0  0
 29 28  1  0  0  0  0
 29 30  1  0  0  0  0
 30 31  1  0  0  0  0
 31 32  1  0  0  0  0
 32 39  1  0  0  0  0
 32 33  1  0  0  0  0
 33 38  1  0  0  0  0
 33 37  1  0  0  0  0
 34 36  1  0  0  0  0
 36 35  1  0  0  0  0
 37 35  1  0  0  0  0
 38 34  1  0  0  0  0
 41 40  2  0  0  0  0
 41 39  1  0  0  0  0
 43 42  1  0  0  0  0
 43 41  1  0  0  0  0
M  END
>  <MODEL>
5

>  <REMARK>
 VINA RESULT:      -6.9      2.670     10.824
  Name = 
  15 active torsions:
  status: ('A' for Active; 'I' for Inactive)
    1  A    between atoms: C_1  and  N_34
    2  A    between atoms: C_1  and  C_35
    3  A    between atoms: C_3  and  C_4
    4  A    between atoms: C_3  and  O_12
    5  A    between atoms: C_4  and  N_14
    6  A    between atoms: C_6  and  C_17
    7  A    between atoms: C_8  and  N_34
    8  A    between atoms: C_11  and  N_14
    9  A    between atoms: O_12  and  C_17
   10  A    between atoms: N_14  and  C_41
   11  A    between atoms: C_16  and  N_23
   12  A    between atoms: C_19  and  O_37
   13  A    between atoms: C_22  and  C_41
   14  A    between atoms: C_22  and  S_42
   15  A    between atoms: C_27  and  C_30
                            x       y       z     vdW  Elec       q    Type
                         _______ _______ _______ _____ _____    ______ ____

>  <TORSDO>
F 15

$$$$
=
 OpenBabel11062410053D

 43 46  0  0  0  0  0  0  0  0999 V2000
  162.4420  212.6770  148.2820 C   0  0  0  0  0  3  0  0  0  0  0  0
  161.7080  211.7040  148.9650 C   0  0  0  0  0  0  0  0  0  0  0  0
  161.9920  214.0000  148.2430 C   0  0  0  0  0  3  0  0  0  0  0  0
  160.5300  212.0670  149.6300 C   0  0  0  0  0  3  0  0  0  0  0  0
  160.0630  213.3890  149.5880 C   0  0  0  0  0  0  0  0  0  0  0  0
  160.8060  214.3530  148.8930 C   0  0  0  0  0  3  0  0  0  0  0  0
  157.6620  214.1390  149.5030 C   0  0  0  0  0  0  0  0  0  0  0  0
  157.4920  214.0680  152.3130 C   0  0  0  0  0  0  0  0  0  0  0  0
  158.6940  213.7040  151.6720 C   0  0  0  0  0  0  0  0  0  0  0  0
  159.7720  213.2470  152.4230 O   0  0  0  0  0  1  0  0  0  0  0  0
  158.7940  213.7560  150.2630 C   0  0  0  0  0  0  0  0  0  0  0  0
  156.4630  214.4520  150.1550 C   0  0  0  0  0  3  0  0  0  0  0  0
  156.3790  214.4110  151.5430 C   0  0  0  0  0  3  0  0  0  0  0  0
  157.0080  212.8610  154.5040 C   0  0  0  0  0  0  0  0  0  0  0  0
  157.1020  211.7080  154.0060 O   0  0  0  0  0  0  0  0  0  0  0  0
  156.5990  213.0130  155.9240 C   0  0  0  0  0  1  0  0  0  0  0  0
  157.3380  214.0240  153.7380 N   0  0  0  0  0  2  0  0  0  0  0  0
  157.7530  214.2430  148.0760 N   0  0  0  0  0  2  0  0  0  0  0  0
  157.2370  213.2410  147.1520 C   0  0  0  0  0  2  0  0  0  0  0  0
  157.8180  213.7280  144.7690 C   0  0  0  0  0  3  0  0  0  0  0  0
  159.8700  212.9000  143.7700 C   0  0  0  0  0  0  0  0  0  0  0  0
  159.3380  212.3780  146.0820 C   0  0  0  0  0  3  0  0  0  0  0  0
  158.6770  213.6260  143.6710 C   0  0  0  0  0  3  0  0  0  0  0  0
  158.1440  213.1020  145.9740 C   0  0  0  0  0  0  0  0  0  0  0  0
  160.1940  212.2760  144.9840 C   0  0  0  0  0  3  0  0  0  0  0  0
  161.0060  211.5940  142.0030 C   0  0  0  0  0  1  0  0  0  0  0  0
  160.7120  212.8210  142.6580 O   0  0  0  0  0  0  0  0  0  0  0  0
  162.2240  210.3030  149.0270 C   0  0  0  0  0  2  0  0  0  0  0  0
  161.5350  209.4780  148.1320 O   0  0  0  0  0  0  0  0  0  0  0  0
  162.0740  208.2010  148.3200 C   0  0  0  0  0  2  0  0  0  0  0  0
  161.1490  207.3730  149.1970 C   0  0  0  0  0  2  0  0  0  0  0  0
  161.0620  206.0070  148.6840 N   0  0  0  0  0  0  0  0  0  0  0  0
  160.7200  205.0680  149.7650 C   0  0  0  0  0  3  0  0  0  0  0  0
  160.8790  202.6810  150.6320 C   0  0  0  0  0  2  0  0  0  0  0  0
  161.3200  204.3100  152.1130 C   0  0  0  0  0  2  0  0  0  0  0  0
  160.3490  203.3600  151.7450 O   0  0  0  0  0  0  0  0  0  0  0  0
  161.4320  205.4370  151.0730 C   0  0  0  0  0  2  0  0  0  0  0  0
  160.8960  203.5810  149.3870 C   0  0  0  0  0  2  0  0  0  0  0  0
  162.3620  205.6470  148.1350 C   0  0  0  0  0  2  0  0  0  0  0  0
  162.8010  204.1460  146.3710 O   0  0  0  0  0  0  0  0  0  0  0  0
  162.2040  205.1470  146.7350 C   0  0  0  0  0  0  0  0  0  0  0  0
  160.8100  204.4980  144.6240 C   0  0  0  0  0  1  0  0  0  0  0  0
  161.1140  206.0000  145.5980 S   0  0  0  0  0  0  0  0  0  0  0  0
  1  2  1  0  0  0  0
  2 28  1  0  0  0  0
  2  4  2  0  0  0  0
  3  1  2  0  0  0  0
  3  6  1  0  0  0  0
  5  4  1  0  0  0  0
  5 11  1  0  0  0  0
  6  5  2  0  0  0  0
  7 12  2  0  0  0  0
  7 11  1  0  0  0  0
  8 17  1  0  0  0  0
  9  8  1  0  0  0  0
  9 10  1  0  0  0  0
 11  9  2  0  0  0  0
 12 13  1  0  0  0  0
 13  8  2  0  0  0  0
 14 16  1  0  0  0  0
 15 14  2  0  0  0  0
 17 14  1  0  0  0  0
 18  7  1  0  0  0  0
 19 18  1  0  0  0  0
 20 24  1  0  0  0  0
 21 25  2  0  0  0  0
 23 21  1  0  0  0  0
 23 20  2  0  0  0  0
 24 22  2  0  0  0  0
 24 19  1  0  0  0  0
 25 22  1  0  0  0  0
 26 27  1  0  0  0  0
 27 21  1  0  0  0  0
 29 30  1  0  0  0  0
 29 28  1  0  0  0  0
 30 31  1  0  0  0  0
 32 31  1  0  0  0  0
 32 33  1  0  0  0  0
 33 37  1  0  0  0  0
 34 36  1  0  0  0  0
 36 35  1  0  0  0  0
 37 35  1  0  0  0  0
 38 33  1  0  0  0  0
 38 34  1  0  0  0  0
 39 32  1  0  0  0  0
 40 41  2  0  0  0  0
 41 39  1  0  0  0  0
 42 43  1  0  0  0  0
 43 41  1  0  0  0  0
M  END
>  <MODEL>
6

>  <REMARK>
 VINA RESULT:      -6.8      2.912      8.717
  Name = 
  15 active torsions:
  status: ('A' for Active; 'I' for Inactive)
    1  A    between atoms: C_1  and  N_34
    2  A    between atoms: C_1  and  C_35
    3  A    between atoms: C_3  and  C_4
    4  A    between atoms: C_3  and  O_12
    5  A    between atoms: C_4  and  N_14
    6  A    between atoms: C_6  and  C_17
    7  A    between atoms: C_8  and  N_34
    8  A    between atoms: C_11  and  N_14
    9  A    between atoms: O_12  and  C_17
   10  A    between atoms: N_14  and  C_41
   11  A    between atoms: C_16  and  N_23
   12  A    between atoms: C_19  and  O_37
   13  A    between atoms: C_22  and  C_41
   14  A    between atoms: C_22  and  S_42
   15  A    between atoms: C_27  and  C_30
                            x       y       z     vdW  Elec       q    Type
                         _______ _______ _______ _____ _____    ______ ____

>  <TORSDO>
F 15

$$$$
=
 OpenBabel11062410053D

 43 46  0  0  0  0  0  0  0  0999 V2000
  161.3500  207.2330  154.3090 C   0  0  0  0  0  3  0  0  0  0  0  0
  161.2220  207.3650  152.9240 C   0  0  0  0  0  0  0  0  0  0  0  0
  160.9910  208.2890  155.1520 C   0  0  0  0  0  3  0  0  0  0  0  0
  160.7120  208.5530  152.3870 C   0  0  0  0  0  3  0  0  0  0  0  0
  160.3600  209.6240  153.2230 C   0  0  0  0  0  0  0  0  0  0  0  0
  160.5000  209.4800  154.6100 C   0  0  0  0  0  3  0  0  0  0  0  0
  160.5230  211.4940  151.5480 C   0  0  0  0  0  0  0  0  0  0  0  0
  158.2240  212.7170  152.6180 C   0  0  0  0  0  0  0  0  0  0  0  0
  158.6920  211.5020  153.1610 C   0  0  0  0  0  0  0  0  0  0  0  0
  157.9810  210.8750  154.1790 O   0  0  0  0  0  1  0  0  0  0  0  0
  159.8570  210.8930  152.6420 C   0  0  0  0  0  0  0  0  0  0  0  0
  160.0170  212.6760  150.9910 C   0  0  0  0  0  3  0  0  0  0  0  0
  158.8770  213.2760  151.5180 C   0  0  0  0  0  3  0  0  0  0  0  0
  156.8670  213.8990  154.4230 C   0  0  0  0  0  0  0  0  0  0  0  0
  157.8530  214.0850  155.1840 O   0  0  0  0  0  0  0  0  0  0  0  0
  155.5080  214.2850  154.8790 C   0  0  0  0  0  1  0  0  0  0  0  0
  157.0430  213.3700  153.1040 N   0  0  0  0  0  2  0  0  0  0  0  0
  161.7320  210.9190  151.0330 N   0  0  0  0  0  2  0  0  0  0  0  0
  161.8480  210.3130  149.7130 C   0  0  0  0  0  2  0  0  0  0  0  0
  160.8350  211.5460  147.7880 C   0  0  0  0  0  3  0  0  0  0  0  0
  161.9940  213.3870  146.7120 C   0  0  0  0  0  0  0  0  0  0  0  0
  163.0320  212.2040  148.5620 C   0  0  0  0  0  3  0  0  0  0  0  0
  160.8770  212.5510  146.8170 C   0  0  0  0  0  3  0  0  0  0  0  0
  161.9130  211.3680  148.6590 C   0  0  0  0  0  0  0  0  0  0  0  0
  163.0730  213.2070  147.5910 C   0  0  0  0  0  3  0  0  0  0  0  0
  161.5560  214.1660  144.4050 C   0  0  0  0  0  1  0  0  0  0  0  0
  162.0050  214.3870  145.7360 O   0  0  0  0  0  0  0  0  0  0  0  0
  161.5740  206.2120  152.0420 C   0  0  0  0  0  2  0  0  0  0  0  0
  161.0440  205.0190  152.5450 O   0  0  0  0  0  0  0  0  0  0  0  0
  161.1840  204.0890  151.5100 C   0  0  0  0  0  2  0  0  0  0  0  0
  160.9930  204.7760  150.1670 C   0  0  0  0  0  2  0  0  0  0  0  0
  161.2900  203.8450  149.0810 N   0  0  0  0  0  0  0  0  0  0  0  0
  161.2340  204.5300  147.7800 C   0  0  0  0  0  3  0  0  0  0  0  0
  161.3550  206.7490  146.5420 C   0  0  0  0  0  2  0  0  0  0  0  0
  162.5330  205.0520  145.6610 C   0  0  0  0  0  2  0  0  0  0  0  0
  161.3690  205.8240  145.4810 O   0  0  0  0  0  0  0  0  0  0  0  0
  162.4190  204.1330  146.8880 C   0  0  0  0  0  2  0  0  0  0  0  0
  161.0460  206.0590  147.8790 C   0  0  0  0  0  2  0  0  0  0  0  0
  160.2890  202.7870  149.1050 C   0  0  0  0  0  2  0  0  0  0  0  0
  161.0540  200.9210  150.3260 O   0  0  0  0  0  0  0  0  0  0  0  0
  160.9550  201.4550  149.2320 C   0  0  0  0  0  0  0  0  0  0  0  0
  160.3250  201.3740  146.6990 C   0  0  0  0  0  1  0  0  0  0  0  0
  161.5840  200.6270  147.7740 S   0  0  0  0  0  0  0  0  0  0  0  0
  1  3  1  0  0  0  0
  2  1  2  0  0  0  0
  4  2  1  0  0  0  0
  4  5  2  0  0  0  0
  5  6  1  0  0  0  0
  6  3  2  0  0  0  0
  7 11  1  0  0  0  0
  8 17  1  0  0  0  0
  8  9  1  0  0  0  0
  9 10  1  0  0  0  0
 11  9  2  0  0  0  0
 11  5  1  0  0  0  0
 12 13  1  0  0  0  0
 12  7  2  0  0  0  0
 13  8  2  0  0  0  0
 14 16  1  0  0  0  0
 14 15  2  0  0  0  0
 17 14  1  0  0  0  0
 18  7  1  0  0  0  0
 19 18  1  0  0  0  0
 20 24  1  0  0  0  0
 21 23  1  0  0  0  0
 21 25  2  0  0  0  0
 22 24  2  0  0  0  0
 23 20  2  0  0  0  0
 24 19  1  0  0  0  0
 25 22  1  0  0  0  0
 26 27  1  0  0  0  0
 27 21  1  0  0  0  0
 28 29  1  0  0  0  0
 28  2  1  0  0  0  0
 30 29  1  0  0  0  0
 31 30  1  0  0  0  0
 32 39  1  0  0  0  0
 32 31  1  0  0  0  0
 33 38  1  0  0  0  0
 33 32  1  0  0  0  0
 34 38  1  0  0  0  0
 35 37  1  0  0  0  0
 36 35  1  0  0  0  0
 36 34  1  0  0  0  0
 37 33  1  0  0  0  0
 39 41  1  0  0  0  0
 41 40  2  0  0  0  0
 42 43  1  0  0  0  0
 43 41  1  0  0  0  0
M  END
>  <MODEL>
7

>  <REMARK>
 VINA RESULT:      -6.8      3.458      8.409
  Name = 
  15 active torsions:
  status: ('A' for Active; 'I' for Inactive)
    1  A    between atoms: C_1  and  N_34
    2  A    between atoms: C_1  and  C_35
    3  A    between atoms: C_3  and  C_4
    4  A    between atoms: C_3  and  O_12
    5  A    between atoms: C_4  and  N_14
    6  A    between atoms: C_6  and  C_17
    7  A    between atoms: C_8  and  N_34
    8  A    between atoms: C_11  and  N_14
    9  A    between atoms: O_12  and  C_17
   10  A    between atoms: N_14  and  C_41
   11  A    between atoms: C_16  and  N_23
   12  A    between atoms: C_19  and  O_37
   13  A    between atoms: C_22  and  C_41
   14  A    between atoms: C_22  and  S_42
   15  A    between atoms: C_27  and  C_30
                            x       y       z     vdW  Elec       q    Type
                         _______ _______ _______ _____ _____    ______ ____

>  <TORSDO>
F 15

$$$$
=
 OpenBabel11062410053D

 43 46  0  0  0  0  0  0  0  0999 V2000
  161.9300  209.0700  153.7850 C   0  0  0  0  0  3  0  0  0  0  0  0
  161.4710  209.3350  152.4920 C   0  0  0  0  0  0  0  0  0  0  0  0
  161.3750  209.7400  154.8790 C   0  0  0  0  0  3  0  0  0  0  0  0
  160.4350  210.2580  152.3020 C   0  0  0  0  0  3  0  0  0  0  0  0
  159.8780  210.9440  153.3910 C   0  0  0  0  0  0  0  0  0  0  0  0
  160.3540  210.6740  154.6820 C   0  0  0  0  0  3  0  0  0  0  0  0
  158.8420  212.8010  152.0460 C   0  0  0  0  0  0  0  0  0  0  0  0
  156.7220  213.0150  153.8870 C   0  0  0  0  0  0  0  0  0  0  0  0
  157.7310  212.0480  154.0850 C   0  0  0  0  0  0  0  0  0  0  0  0
  157.6420  211.1590  155.1500 O   0  0  0  0  0  1  0  0  0  0  0  0
  158.8090  211.9480  153.1760 C   0  0  0  0  0  0  0  0  0  0  0  0
  157.8070  213.7220  151.8410 C   0  0  0  0  0  3  0  0  0  0  0  0
  156.7570  213.8230  152.7490 C   0  0  0  0  0  3  0  0  0  0  0  0
  155.6440  213.7420  156.0790 C   0  0  0  0  0  0  0  0  0  0  0  0
  156.6190  214.4530  156.4390 O   0  0  0  0  0  0  0  0  0  0  0  0
  154.4940  213.5570  156.9990 C   0  0  0  0  0  1  0  0  0  0  0  0
  155.6050  213.1500  154.7760 N   0  0  0  0  0  2  0  0  0  0  0  0
  159.9480  212.7480  151.1350 N   0  0  0  0  0  2  0  0  0  0  0  0
  160.4650  213.9040  150.4140 C   0  0  0  0  0  2  0  0  0  0  0  0
  161.8060  213.5400  148.3350 C   0  0  0  0  0  3  0  0  0  0  0  0
  160.7440  212.9970  146.2210 C   0  0  0  0  0  0  0  0  0  0  0  0
  159.3950  213.3670  148.2070 C   0  0  0  0  0  3  0  0  0  0  0  0
  161.8990  213.2360  146.9730 C   0  0  0  0  0  3  0  0  0  0  0  0
  160.5560  213.6100  148.9530 C   0  0  0  0  0  0  0  0  0  0  0  0
  159.4900  213.0650  146.8470 C   0  0  0  0  0  3  0  0  0  0  0  0
  162.0380  212.9890  144.1130 C   0  0  0  0  0  1  0  0  0  0  0  0
  160.8690  212.6900  144.8630 O   0  0  0  0  0  0  0  0  0  0  0  0
  162.0500  208.5820  151.3390 C   0  0  0  0  0  2  0  0  0  0  0  0
  161.2140  208.6620  150.2200 O   0  0  0  0  0  0  0  0  0  0  0  0
  160.9030  207.3370  149.8980 C   0  0  0  0  0  2  0  0  0  0  0  0
  161.7850  206.8610  148.7550 C   0  0  0  0  0  2  0  0  0  0  0  0
  161.6920  205.4090  148.6220 N   0  0  0  0  0  0  0  0  0  0  0  0
  161.2610  205.0390  147.2630 C   0  0  0  0  0  3  0  0  0  0  0  0
  160.4740  205.8620  144.9880 C   0  0  0  0  0  2  0  0  0  0  0  0
  162.0600  204.2720  144.9780 C   0  0  0  0  0  2  0  0  0  0  0  0
  160.6900  204.4920  144.7440 O   0  0  0  0  0  0  0  0  0  0  0  0
  162.4050  204.3890  146.4720 C   0  0  0  0  0  2  0  0  0  0  0  0
  160.5710  206.1810  146.4880 C   0  0  0  0  0  2  0  0  0  0  0  0
  160.7070  204.9280  149.5800 C   0  0  0  0  0  2  0  0  0  0  0  0
  160.5550  202.6390  149.0370 O   0  0  0  0  0  0  0  0  0  0  0  0
  160.9230  203.4740  149.8490 C   0  0  0  0  0  0  0  0  0  0  0  0
  160.8060  204.1200  152.3770 C   0  0  0  0  0  1  0  0  0  0  0  0
  161.7490  202.9540  151.3510 S   0  0  0  0  0  0  0  0  0  0  0  0
  1  3  1  0  0  0  0
  2  1  2  0  0  0  0
  4  2  1  0  0  0  0
  4  5  2  0  0  0  0
  5  6  1  0  0  0  0
  6  3  2  0  0  0  0
  7 11  1  0  0  0  0
  8  9  1  0  0  0  0
  8 17  1  0  0  0  0
  9 10  1  0  0  0  0
 11  5  1  0  0  0  0
 11  9  2  0  0  0  0
 12  7  2  0  0  0  0
 12 13  1  0  0  0  0
 13  8  2  0  0  0  0
 14 15  2  0  0  0  0
 14 16  1  0  0  0  0
 17 14  1  0  0  0  0
 18  7  1  0  0  0  0
 19 18  1  0  0  0  0
 20 24  1  0  0  0  0
 21 25  2  0  0  0  0
 21 23  1  0  0  0  0
 22 24  2  0  0  0  0
 23 20  2  0  0  0  0
 24 19  1  0  0  0  0
 25 22  1  0  0  0  0
 26 27  1  0  0  0  0
 27 21  1  0  0  0  0
 28  2  1  0  0  0  0
 29 28  1  0  0  0  0
 30 29  1  0  0  0  0
 31 30  1  0  0  0  0
 32 31  1  0  0  0  0
 32 39  1  0  0  0  0
 33 32  1  0  0  0  0
 34 38  1  0  0  0  0
 35 37  1  0  0  0  0
 36 35  1  0  0  0  0
 36 34  1  0  0  0  0
 37 33  1  0  0  0  0
 38 33  1  0  0  0  0
 39 41  1  0  0  0  0
 40 41  2  0  0  0  0
 41 43  1  0  0  0  0
 43 42  1  0  0  0  0
M  END
>  <MODEL>
8

>  <REMARK>
 VINA RESULT:      -6.7      3.406      8.087
  Name = 
  15 active torsions:
  status: ('A' for Active; 'I' for Inactive)
    1  A    between atoms: C_1  and  N_34
    2  A    between atoms: C_1  and  C_35
    3  A    between atoms: C_3  and  C_4
    4  A    between atoms: C_3  and  O_12
    5  A    between atoms: C_4  and  N_14
    6  A    between atoms: C_6  and  C_17
    7  A    between atoms: C_8  and  N_34
    8  A    between atoms: C_11  and  N_14
    9  A    between atoms: O_12  and  C_17
   10  A    between atoms: N_14  and  C_41
   11  A    between atoms: C_16  and  N_23
   12  A    between atoms: C_19  and  O_37
   13  A    between atoms: C_22  and  C_41
   14  A    between atoms: C_22  and  S_42
   15  A    between atoms: C_27  and  C_30
                            x       y       z     vdW  Elec       q    Type
                         _______ _______ _______ _____ _____    ______ ____

>  <TORSDO>
F 15

$$$$
=
 OpenBabel11062410053D

 43 46  0  0  0  0  0  0  0  0999 V2000
  161.1680  205.6800  153.2610 C   0  0  0  0  0  3  0  0  0  0  0  0
  161.1600  206.8200  152.4530 C   0  0  0  0  0  0  0  0  0  0  0  0
  161.2020  204.4080  152.6820 C   0  0  0  0  0  3  0  0  0  0  0  0
  161.2090  206.6800  151.0610 C   0  0  0  0  0  3  0  0  0  0  0  0
  161.2310  205.4090  150.4690 C   0  0  0  0  0  0  0  0  0  0  0  0
  161.2320  204.2730  151.2910 C   0  0  0  0  0  3  0  0  0  0  0  0
  161.2960  206.4180  148.1640 C   0  0  0  0  0  0  0  0  0  0  0  0
  161.2210  203.8590  146.9910 C   0  0  0  0  0  0  0  0  0  0  0  0
  161.2260  203.9890  148.3960 C   0  0  0  0  0  0  0  0  0  0  0  0
  161.2610  202.8540  149.1990 O   0  0  0  0  0  1  0  0  0  0  0  0
  161.2430  205.2700  148.9920 C   0  0  0  0  0  0  0  0  0  0  0  0
  161.3390  206.2680  146.7720 C   0  0  0  0  0  3  0  0  0  0  0  0
  161.3070  205.0030  146.1940 C   0  0  0  0  0  3  0  0  0  0  0  0
  160.3410  202.1990  145.2690 C   0  0  0  0  0  0  0  0  0  0  0  0
  159.6920  203.0620  144.6210 O   0  0  0  0  0  0  0  0  0  0  0  0
  160.2410  200.7680  144.8860 C   0  0  0  0  0  1  0  0  0  0  0  0
  161.2120  202.5820  146.3390 N   0  0  0  0  0  2  0  0  0  0  0  0
  161.2690  207.7280  148.7450 N   0  0  0  0  0  2  0  0  0  0  0  0
  162.4040  208.6420  148.7480 C   0  0  0  0  0  2  0  0  0  0  0  0
  161.7120  210.5130  150.2560 C   0  0  0  0  0  3  0  0  0  0  0  0
  161.1330  212.7010  149.3780 C   0  0  0  0  0  0  0  0  0  0  0  0
  161.7750  210.9080  147.8690 C   0  0  0  0  0  3  0  0  0  0  0  0
  161.3070  211.8350  150.4640 C   0  0  0  0  0  3  0  0  0  0  0  0
  161.9420  210.0460  148.9600 C   0  0  0  0  0  0  0  0  0  0  0  0
  161.3690  212.2280  148.0780 C   0  0  0  0  0  3  0  0  0  0  0  0
  159.3710  214.4230  149.5980 C   0  0  0  0  0  1  0  0  0  0  0  0
  160.7330  214.0180  149.6170 O   0  0  0  0  0  0  0  0  0  0  0  0
  161.1620  208.1710  153.0910 C   0  0  0  0  0  2  0  0  0  0  0  0
  160.8620  208.0790  154.4540 O   0  0  0  0  0  0  0  0  0  0  0  0
  160.8360  209.4000  154.9140 C   0  0  0  0  0  2  0  0  0  0  0  0
  159.7900  209.5460  156.0080 C   0  0  0  0  0  2  0  0  0  0  0  0
  159.1660  210.8650  155.9300 N   0  0  0  0  0  0  0  0  0  0  0  0
  157.7280  210.7780  156.2340 C   0  0  0  0  0  3  0  0  0  0  0  0
  155.6470  212.0100  157.0240 C   0  0  0  0  0  2  0  0  0  0  0  0
  155.4020  210.6970  155.2180 C   0  0  0  0  0  2  0  0  0  0  0  0
  155.1120  210.7810  156.5930 O   0  0  0  0  0  0  0  0  0  0  0  0
  156.9060  210.4970  154.9690 C   0  0  0  0  0  2  0  0  0  0  0  0
  157.1830  211.9700  157.0500 C   0  0  0  0  0  2  0  0  0  0  0  0
  159.3360  211.3670  154.5740 C   0  0  0  0  0  2  0  0  0  0  0  0
  160.0780  213.3850  155.5420 O   0  0  0  0  0  0  0  0  0  0  0  0
  159.5180  212.8510  154.5970 C   0  0  0  0  0  0  0  0  0  0  0  0
  157.2440  213.9040  153.8630 C   0  0  0  0  0  1  0  0  0  0  0  0
  158.9420  213.8440  153.2220 S   0  0  0  0  0  0  0  0  0  0  0  0
  2 28  1  0  0  0  0
  2  1  2  0  0  0  0
  3  1  1  0  0  0  0
  4  2  1  0  0  0  0
  5  4  2  0  0  0  0
  5  6  1  0  0  0  0
  6  3  2  0  0  0  0
  7 18  1  0  0  0  0
  7 11  1  0  0  0  0
  8  9  1  0  0  0  0
  9 11  2  0  0  0  0
  9 10  1  0  0  0  0
 11  5  1  0  0  0  0
 12  7  2  0  0  0  0
 13 12  1  0  0  0  0
 13  8  2  0  0  0  0
 14 17  1  0  0  0  0
 15 14  2  0  0  0  0
 16 14  1  0  0  0  0
 17  8  1  0  0  0  0
 18 19  1  0  0  0  0
 19 24  1  0  0  0  0
 20 23  1  0  0  0  0
 21 27  1  0  0  0  0
 21 23  2  0  0  0  0
 22 25  2  0  0  0  0
 22 24  1  0  0  0  0
 24 20  2  0  0  0  0
 25 21  1  0  0  0  0
 26 27  1  0  0  0  0
 28 29  1  0  0  0  0
 29 30  1  0  0  0  0
 30 31  1  0  0  0  0
 32 31  1  0  0  0  0
 32 33  1  0  0  0  0
 33 38  1  0  0  0  0
 34 38  1  0  0  0  0
 35 36  1  0  0  0  0
 36 34  1  0  0  0  0
 37 35  1  0  0  0  0
 37 33  1  0  0  0  0
 39 41  1  0  0  0  0
 39 32  1  0  0  0  0
 41 40  2  0  0  0  0
 43 42  1  0  0  0  0
 43 41  1  0  0  0  0
M  END
>  <MODEL>
9

>  <REMARK>
 VINA RESULT:      -6.3      2.928      9.444
  Name = 
  15 active torsions:
  status: ('A' for Active; 'I' for Inactive)
    1  A    between atoms: C_1  and  N_34
    2  A    between atoms: C_1  and  C_35
    3  A    between atoms: C_3  and  C_4
    4  A    between atoms: C_3  and  O_12
    5  A    between atoms: C_4  and  N_14
    6  A    between atoms: C_6  and  C_17
    7  A    between atoms: C_8  and  N_34
    8  A    between atoms: C_11  and  N_14
    9  A    between atoms: O_12  and  C_17
   10  A    between atoms: N_14  and  C_41
   11  A    between atoms: C_16  and  N_23
   12  A    between atoms: C_19  and  O_37
   13  A    between atoms: C_22  and  C_41
   14  A    between atoms: C_22  and  S_42
   15  A    between atoms: C_27  and  C_30
                            x       y       z     vdW  Elec       q    Type
                         _______ _______ _______ _____ _____    ______ ____

>  <TORSDO>
F 15

$$$$
