=
 OpenBabel11062408143D

 32 36  0  0  1  0  0  0  0  0999 V2000
  161.7750  206.7700  151.1320 C   0  0  1  0  0  3  0  0  0  0  0  0
  161.1730  204.9090  149.5340 C   0  0  0  0  0  0  0  0  0  0  0  0
  161.4100  207.1990  152.5530 C   0  0  0  0  0  2  0  0  0  0  0  0
  161.3400  205.3470  150.8560 C   0  0  0  0  0  0  0  0  0  0  0  0
  160.8320  203.5690  149.2700 C   0  0  0  0  0  0  0  0  0  0  0  0
  162.6860  205.5400  145.1910 C   0  0  0  0  0  2  0  0  0  0  0  0
  161.4300  205.8920  148.4250 C   0  0  2  0  0  3  0  0  0  0  0  0
  162.7200  203.6760  146.8950 C   0  0  0  0  0  2  0  0  0  0  0  0
  161.2720  203.9490  146.8540 N   0  0  1  0  0  0  0  0  0  0  0  0
  161.1770  204.4440  151.9200 C   0  0  0  0  0  0  0  0  0  0  0  0
  160.5880  203.1180  147.8490 C   0  0  0  0  0  2  0  0  0  0  0  0
  160.8190  203.1210  151.6620 C   0  0  0  0  0  3  0  0  0  0  0  0
  161.3540  204.8740  153.2410 O   0  0  0  0  0  0  0  0  0  0  0  0
  160.7450  207.2130  148.7760 C   0  0  0  0  0  2  0  0  0  0  0  0
  161.2260  207.7930  150.1190 C   0  0  2  0  0  3  0  0  0  0  0  0
  160.9500  205.3760  147.0600 C   0  0  2  0  0  3  0  0  0  0  0  0
  160.6360  202.6790  150.3470 C   0  0  0  0  0  0  0  0  0  0  0  0
  161.9120  206.1530  153.5460 C   0  0  0  0  0  2  0  0  0  0  0  0
  163.5470  204.7450  146.1660 C   0  0  0  0  0  2  0  0  0  0  0  0
  161.5380  206.2350  145.9280 C   0  0  0  0  0  2  0  0  0  0  0  0
  160.2740  201.2470  150.1220 C   0  0  0  0  0  2  0  0  0  0  0  0
  161.3660  200.5620  149.5900 O   0  0  0  0  0  1  0  0  0  0  0  0
  162.2480  208.8950  149.8840 C   0  0  0  0  0  2  0  0  0  0  0  0
  161.8400  209.7510  148.6970 C   0  0  0  0  0  2  0  0  0  0  0  0
  161.8920  211.2200  149.0810 C   0  0  0  0  0  2  0  0  0  0  0  0
  163.6680  212.2450  147.8820 O   0  0  0  0  0  0  0  0  0  0  0  0
  161.5640  212.6090  146.9590 N   0  0  0  0  0  2  0  0  0  0  0  0
  162.4280  212.0410  147.9560 C   0  0  0  0  0  0  0  0  0  0  0  0
  160.1200  212.4000  146.8500 C   0  0  1  0  0  3  0  0  0  0  0  0
  159.3610  213.5290  147.5200 C   0  0  0  0  0  1  0  0  0  0  0  0
  159.6770  212.2390  145.4040 C   0  0  0  0  0  2  0  0  0  0  0  0
  158.3010  212.4480  145.3010 O   0  0  0  0  0  1  0  0  0  0  0  0
  1  3  1  1  0  0  0
  2  4  1  0  0  0  0
  3 18  1  0  0  0  0
  4  1  1  0  0  0  0
  4 10  2  0  0  0  0
  5  2  2  0  0  0  0
  5 17  1  0  0  0  0
  6 20  1  0  0  0  0
  6 19  1  0  0  0  0
  7 14  1  1  0  0  0
  7  2  1  0  0  0  0
  9  8  1  1  0  0  0
  9 16  1  0  0  0  0
  9 11  1  0  0  0  0
 10 13  1  0  0  0  0
 11  5  1  0  0  0  0
 12 10  1  0  0  0  0
 13 18  1  0  0  0  0
 14 15  1  0  0  0  0
 15 23  1  6  0  0  0
 15  1  1  0  0  0  0
 16 20  1  6  0  0  0
 16  7  1  0  0  0  0
 17 12  2  0  0  0  0
 19  8  1  0  0  0  0
 21 17  1  0  0  0  0
 22 21  1  0  0  0  0
 24 25  1  0  0  0  0
 24 23  1  0  0  0  0
 26 28  2  0  0  0  0
 27 28  1  0  0  0  0
 28 25  1  0  0  0  0
 29 27  1  0  0  0  0
 29 30  1  6  0  0  0
 31 29  1  0  0  0  0
 32 31  1  0  0  0  0
M  END
>  <MODEL>
1

>  <REMARK>
 VINA RESULT:      -8.6      0.000      0.000
  Name = 
  7 active torsions:
  status: ('A' for Active; 'I' for Inactive)
    1  A    between atoms: CA_3  and  N_19
    2  A    between atoms: CA_3  and  C_22
    3  A    between atoms: C_13  and  C_29
    4  A    between atoms: C_15  and  C_20
    5  A    between atoms: C_15  and  C_26
    6  A    between atoms: C_16  and  C_20
    7  A    between atoms: C_16  and  C_27
                            x       y       z     vdW  Elec       q    Type
                         _______ _______ _______ _____ _____    ______ ____

>  <TORSDO>
F 7

$$$$
=
 OpenBabel11062408143D

 32 36  0  0  1  0  0  0  0  0999 V2000
  161.7120  206.6100  151.1550 C   0  0  1  0  0  3  0  0  0  0  0  0
  161.1550  204.7750  149.5120 C   0  0  0  0  0  0  0  0  0  0  0  0
  161.3380  206.9950  152.5870 C   0  0  0  0  0  2  0  0  0  0  0  0
  161.3120  205.1840  150.8450 C   0  0  0  0  0  0  0  0  0  0  0  0
  160.8470  203.4340  149.2160 C   0  0  0  0  0  0  0  0  0  0  0  0
  162.6490  205.5500  145.1860 C   0  0  0  0  0  2  0  0  0  0  0  0
  161.3870  205.7910  148.4280 C   0  0  2  0  0  3  0  0  0  0  0  0
  162.7300  203.6460  146.8440 C   0  0  0  0  0  2  0  0  0  0  0  0
  161.2760  203.8840  146.8090 N   0  0  1  0  0  0  0  0  0  0  0  0
  161.1720  204.2520  151.8860 C   0  0  0  0  0  0  0  0  0  0  0  0
  160.6130  203.0120  147.7840 C   0  0  0  0  0  2  0  0  0  0  0  0
  160.8460  202.9270  151.5950 C   0  0  0  0  0  3  0  0  0  0  0  0
  161.3390  204.6530  153.2170 O   0  0  0  0  0  0  0  0  0  0  0  0
  160.6700  207.0860  148.8110 C   0  0  0  0  0  2  0  0  0  0  0  0
  161.1370  207.6440  150.1680 C   0  0  2  0  0  3  0  0  0  0  0  0
  160.9190  205.2970  147.0500 C   0  0  2  0  0  3  0  0  0  0  0  0
  160.6730  202.5130  150.2700 C   0  0  0  0  0  0  0  0  0  0  0  0
  161.8650  205.9370  153.5540 C   0  0  0  0  0  2  0  0  0  0  0  0
  163.5290  204.7530  146.1410 C   0  0  0  0  0  2  0  0  0  0  0  0
  161.4850  206.1980  145.9400 C   0  0  0  0  0  2  0  0  0  0  0  0
  160.3470  201.0790  150.0100 C   0  0  0  0  0  2  0  0  0  0  0  0
  161.3990  200.4720  149.3240 O   0  0  0  0  0  1  0  0  0  0  0  0
  162.1320  208.7760  149.9610 C   0  0  0  0  0  2  0  0  0  0  0  0
  161.5930  210.0680  150.5530 C   0  0  0  0  0  2  0  0  0  0  0  0
  162.0220  210.1850  152.0060 C   0  0  0  0  0  2  0  0  0  0  0  0
  160.1060  211.5700  152.2350 O   0  0  0  0  0  0  0  0  0  0  0  0
  160.9050  210.7130  154.2440 N   0  0  0  0  0  2  0  0  0  0  0  0
  160.9640  210.8560  152.8170 C   0  0  0  0  0  0  0  0  0  0  0  0
  161.7670  209.8590  155.0620 C   0  0  1  0  0  3  0  0  0  0  0  0
  162.6770  210.6960  155.9400 C   0  0  0  0  0  1  0  0  0  0  0  0
  160.9640  208.8780  155.9020 C   0  0  0  0  0  2  0  0  0  0  0  0
  161.8210  207.9680  156.5220 O   0  0  0  0  0  1  0  0  0  0  0  0
  1  3  1  1  0  0  0
  2  4  1  0  0  0  0
  3 18  1  0  0  0  0
  4  1  1  0  0  0  0
  4 10  2  0  0  0  0
  5  2  2  0  0  0  0
  5 17  1  0  0  0  0
  6 20  1  0  0  0  0
  6 19  1  0  0  0  0
  7 14  1  1  0  0  0
  7  2  1  0  0  0  0
  9  8  1  1  0  0  0
  9 16  1  0  0  0  0
  9 11  1  0  0  0  0
 10 13  1  0  0  0  0
 11  5  1  0  0  0  0
 12 10  1  0  0  0  0
 13 18  1  0  0  0  0
 14 15  1  0  0  0  0
 15 23  1  6  0  0  0
 15  1  1  0  0  0  0
 16 20  1  6  0  0  0
 16  7  1  0  0  0  0
 17 12  2  0  0  0  0
 19  8  1  0  0  0  0
 21 17  1  0  0  0  0
 22 21  1  0  0  0  0
 23 24  1  0  0  0  0
 24 25  1  0  0  0  0
 25 28  1  0  0  0  0
 26 28  2  0  0  0  0
 27 29  1  0  0  0  0
 28 27  1  0  0  0  0
 29 31  1  0  0  0  0
 29 30  1  1  0  0  0
 31 32  1  0  0  0  0
M  END
>  <MODEL>
2

>  <REMARK>
 VINA RESULT:      -8.3      2.749      4.251
  Name = 
  7 active torsions:
  status: ('A' for Active; 'I' for Inactive)
    1  A    between atoms: CA_3  and  N_19
    2  A    between atoms: CA_3  and  C_22
    3  A    between atoms: C_13  and  C_29
    4  A    between atoms: C_15  and  C_20
    5  A    between atoms: C_15  and  C_26
    6  A    between atoms: C_16  and  C_20
    7  A    between atoms: C_16  and  C_27
                            x       y       z     vdW  Elec       q    Type
                         _______ _______ _______ _____ _____    ______ ____

>  <TORSDO>
F 7

$$$$
=
 OpenBabel11062408143D

 32 36  0  0  1  0  0  0  0  0999 V2000
  161.0620  206.4230  151.0250 C   0  0  1  0  0  3  0  0  0  0  0  0
  161.2000  208.2130  152.8020 C   0  0  0  0  0  0  0  0  0  0  0  0
  161.5180  204.9750  150.8450 C   0  0  0  0  0  2  0  0  0  0  0  0
  161.1430  206.8500  152.4750 C   0  0  0  0  0  0  0  0  0  0  0  0
  161.2080  208.6180  154.1500 C   0  0  0  0  0  0  0  0  0  0  0  0
  159.8870  212.4340  151.3830 C   0  0  0  0  0  2  0  0  0  0  0  0
  161.1890  209.2120  151.6770 C   0  0  2  0  0  3  0  0  0  0  0  0
  159.4040  210.9240  153.3490 C   0  0  0  0  0  2  0  0  0  0  0  0
  160.8750  210.9730  153.4290 N   0  0  1  0  0  0  0  0  0  0  0  0
  161.0810  205.8860  153.4950 C   0  0  0  0  0  0  0  0  0  0  0  0
  161.3370  210.0830  154.4980 C   0  0  0  0  0  2  0  0  0  0  0  0
  161.1110  206.2840  154.8320 C   0  0  0  0  0  3  0  0  0  0  0  0
  161.0120  204.5250  153.1740 O   0  0  0  0  0  0  0  0  0  0  0  0
  162.1710  208.7470  150.6020 C   0  0  0  0  0  2  0  0  0  0  0  0
  161.8430  207.3420  150.0660 C   0  0  2  0  0  3  0  0  0  0  0  0
  161.5310  210.6330  152.1500 C   0  0  2  0  0  3  0  0  0  0  0  0
  161.1830  207.6410  155.1670 C   0  0  0  0  0  0  0  0  0  0  0  0
  160.7790  204.0800  151.8370 C   0  0  0  0  0  2  0  0  0  0  0  0
  158.8600  211.5230  152.0440 C   0  0  0  0  0  2  0  0  0  0  0  0
  161.1680  211.6590  151.0630 C   0  0  0  0  0  2  0  0  0  0  0  0
  161.1900  208.0160  156.6120 C   0  0  0  0  0  2  0  0  0  0  0  0
  160.1070  207.4200  157.2600 O   0  0  0  0  0  1  0  0  0  0  0  0
  161.1170  207.4400  148.7320 C   0  0  0  0  0  2  0  0  0  0  0  0
  161.9310  206.7720  147.6370 C   0  0  0  0  0  2  0  0  0  0  0  0
  161.2700  205.4660  147.2290 C   0  0  0  0  0  2  0  0  0  0  0  0
  163.2510  205.1840  145.9480 O   0  0  0  0  0  0  0  0  0  0  0  0
  161.8490  203.3280  145.9510 N   0  0  0  0  0  2  0  0  0  0  0  0
  162.1760  204.6680  146.3520 C   0  0  0  0  0  0  0  0  0  0  0  0
  160.6890  202.5550  146.3970 C   0  0  1  0  0  3  0  0  0  0  0  0
  160.1600  201.6830  145.2740 C   0  0  0  0  0  1  0  0  0  0  0  0
  161.0040  201.7140  147.6250 C   0  0  0  0  0  2  0  0  0  0  0  0
  160.5210  202.3470  148.7720 O   0  0  0  0  0  1  0  0  0  0  0  0
  1  3  1  1  0  0  0
  1  4  1  0  0  0  0
  2  5  1  0  0  0  0
  3 18  1  0  0  0  0
  4  2  2  0  0  0  0
  4 10  1  0  0  0  0
  5 11  1  0  0  0  0
  5 17  2  0  0  0  0
  6 19  1  0  0  0  0
  7 14  1  6  0  0  0
  7 16  1  0  0  0  0
  7  2  1  0  0  0  0
  9  8  1  6  0  0  0
  9 11  1  0  0  0  0
 10 12  2  0  0  0  0
 12 17  1  0  0  0  0
 13 10  1  0  0  0  0
 15 23  1  6  0  0  0
 15 14  1  0  0  0  0
 15  1  1  0  0  0  0
 16 20  1  6  0  0  0
 16  9  1  0  0  0  0
 17 21  1  0  0  0  0
 18 13  1  0  0  0  0
 19  8  1  0  0  0  0
 20  6  1  0  0  0  0
 21 22  1  0  0  0  0
 24 23  1  0  0  0  0
 25 24  1  0  0  0  0
 26 28  2  0  0  0  0
 27 28  1  0  0  0  0
 27 29  1  0  0  0  0
 28 25  1  0  0  0  0
 29 30  1  6  0  0  0
 29 31  1  0  0  0  0
 31 32  1  0  0  0  0
M  END
>  <MODEL>
3

>  <REMARK>
 VINA RESULT:      -8.1      3.105      7.329
  Name = 
  7 active torsions:
  status: ('A' for Active; 'I' for Inactive)
    1  A    between atoms: CA_3  and  N_19
    2  A    between atoms: CA_3  and  C_22
    3  A    between atoms: C_13  and  C_29
    4  A    between atoms: C_15  and  C_20
    5  A    between atoms: C_15  and  C_26
    6  A    between atoms: C_16  and  C_20
    7  A    between atoms: C_16  and  C_27
                            x       y       z     vdW  Elec       q    Type
                         _______ _______ _______ _____ _____    ______ ____

>  <TORSDO>
F 7

$$$$
=
 OpenBabel11062408143D

 32 36  0  0  1  0  0  0  0  0999 V2000
  161.6340  206.5980  151.1710 C   0  0  1  0  0  3  0  0  0  0  0  0
  161.1380  204.7440  149.5280 C   0  0  0  0  0  0  0  0  0  0  0  0
  161.2480  206.9690  152.6020 C   0  0  0  0  0  2  0  0  0  0  0  0
  161.2820  205.1590  150.8600 C   0  0  0  0  0  0  0  0  0  0  0  0
  160.8770  203.3930  149.2320 C   0  0  0  0  0  0  0  0  0  0  0  0
  162.6010  205.5700  145.2010 C   0  0  0  0  0  2  0  0  0  0  0  0
  161.3340  205.7680  148.4440 C   0  0  2  0  0  3  0  0  0  0  0  0
  162.7490  203.6710  146.8580 C   0  0  0  0  0  2  0  0  0  0  0  0
  161.2880  203.8580  146.8250 N   0  0  1  0  0  0  0  0  0  0  0  0
  161.1760  204.2220  151.9020 C   0  0  0  0  0  0  0  0  0  0  0  0
  160.6560  202.9640  147.8000 C   0  0  0  0  0  2  0  0  0  0  0  0
  160.8950  202.8870  151.6110 C   0  0  0  0  0  3  0  0  0  0  0  0
  161.3300  204.6290  153.2330 O   0  0  0  0  0  0  0  0  0  0  0  0
  160.5740  207.0370  148.8270 C   0  0  0  0  0  2  0  0  0  0  0  0
  161.0220  207.6110  150.1840 C   0  0  2  0  0  3  0  0  0  0  0  0
  160.8820  205.2580  147.0660 C   0  0  2  0  0  3  0  0  0  0  0  0
  160.7360  202.4670  150.2860 C   0  0  0  0  0  0  0  0  0  0  0  0
  161.8120  205.9310  153.5690 C   0  0  0  0  0  2  0  0  0  0  0  0
  163.5090  204.8040  146.1540 C   0  0  0  0  0  2  0  0  0  0  0  0
  161.4160  206.1780  145.9550 C   0  0  0  0  0  2  0  0  0  0  0  0
  160.4580  201.0230  150.0260 C   0  0  0  0  0  2  0  0  0  0  0  0
  161.4510  200.4920  149.2020 O   0  0  0  0  0  1  0  0  0  0  0  0
  161.9770  208.7770  149.9760 C   0  0  0  0  0  2  0  0  0  0  0  0
  162.2830  209.4520  151.3020 C   0  0  0  0  0  2  0  0  0  0  0  0
  161.1570  210.4060  151.6640 C   0  0  0  0  0  2  0  0  0  0  0  0
  162.2150  210.4770  153.7900 O   0  0  0  0  0  0  0  0  0  0  0  0
  160.0230  211.2530  153.7940 N   0  0  0  0  0  2  0  0  0  0  0  0
  161.1720  210.7100  153.1260 C   0  0  0  0  0  0  0  0  0  0  0  0
  158.7680  211.6580  153.1580 C   0  0  1  0  0  3  0  0  0  0  0  0
  157.6150  211.5700  154.1400 C   0  0  0  0  0  1  0  0  0  0  0  0
  158.8590  213.0540  152.5600 C   0  0  0  0  0  2  0  0  0  0  0  0
  158.3350  213.0520  151.2660 O   0  0  0  0  0  1  0  0  0  0  0  0
  1  3  1  1  0  0  0
  2  4  1  0  0  0  0
  3 18  1  0  0  0  0
  4  1  1  0  0  0  0
  4 10  2  0  0  0  0
  5  2  2  0  0  0  0
  5 17  1  0  0  0  0
  6 20  1  0  0  0  0
  6 19  1  0  0  0  0
  7 14  1  1  0  0  0
  7  2  1  0  0  0  0
  9  8  1  1  0  0  0
  9 16  1  0  0  0  0
  9 11  1  0  0  0  0
 10 13  1  0  0  0  0
 11  5  1  0  0  0  0
 12 10  1  0  0  0  0
 13 18  1  0  0  0  0
 14 15  1  0  0  0  0
 15 23  1  6  0  0  0
 15  1  1  0  0  0  0
 16 20  1  6  0  0  0
 16  7  1  0  0  0  0
 17 12  2  0  0  0  0
 19  8  1  0  0  0  0
 21 17  1  0  0  0  0
 22 21  1  0  0  0  0
 23 24  1  0  0  0  0
 24 25  1  0  0  0  0
 25 28  1  0  0  0  0
 28 26  2  0  0  0  0
 28 27  1  0  0  0  0
 29 27  1  0  0  0  0
 29 30  1  1  0  0  0
 31 29  1  0  0  0  0
 32 31  1  0  0  0  0
M  END
>  <MODEL>
4

>  <REMARK>
 VINA RESULT:      -8.1      2.755      3.155
  Name = 
  7 active torsions:
  status: ('A' for Active; 'I' for Inactive)
    1  A    between atoms: CA_3  and  N_19
    2  A    between atoms: CA_3  and  C_22
    3  A    between atoms: C_13  and  C_29
    4  A    between atoms: C_15  and  C_20
    5  A    between atoms: C_15  and  C_26
    6  A    between atoms: C_16  and  C_20
    7  A    between atoms: C_16  and  C_27
                            x       y       z     vdW  Elec       q    Type
                         _______ _______ _______ _____ _____    ______ ____

>  <TORSDO>
F 7

$$$$
=
 OpenBabel11062408143D

 32 36  0  0  1  0  0  0  0  0999 V2000
  161.8590  208.7140  151.1840 C   0  0  1  0  0  3  0  0  0  0  0  0
  160.6700  209.8510  153.1000 C   0  0  0  0  0  0  0  0  0  0  0  0
  161.8300  208.7520  149.6560 C   0  0  0  0  0  2  0  0  0  0  0  0
  161.1400  209.9050  151.7800 C   0  0  0  0  0  0  0  0  0  0  0  0
  160.0590  210.9780  153.6800 C   0  0  0  0  0  0  0  0  0  0  0  0
  161.4860  207.9600  157.2610 C   0  0  0  0  0  2  0  0  0  0  0  0
  160.8970  208.5850  153.8810 C   0  0  2  0  0  3  0  0  0  0  0  0
  161.4910  210.2810  156.2650 C   0  0  0  0  0  2  0  0  0  0  0  0
  160.1290  209.8560  155.8970 N   0  0  1  0  0  0  0  0  0  0  0  0
  161.0110  211.0900  151.0370 C   0  0  0  0  0  0  0  0  0  0  0  0
  159.4950  210.8950  155.0800 C   0  0  0  0  0  2  0  0  0  0  0  0
  160.3870  212.2020  151.6030 C   0  0  0  0  0  3  0  0  0  0  0  0
  161.4890  211.1520  149.7230 O   0  0  0  0  0  0  0  0  0  0  0  0
  160.5270  207.3940  152.9980 C   0  0  0  0  0  2  0  0  0  0  0  0
  161.3280  207.3560  151.6840 C   0  0  2  0  0  3  0  0  0  0  0  0
  160.1030  208.5560  155.1960 C   0  0  2  0  0  3  0  0  0  0  0  0
  159.9010  212.1520  152.9150 C   0  0  0  0  0  0  0  0  0  0  0  0
  162.3060  210.1190  149.1710 C   0  0  0  0  0  2  0  0  0  0  0  0
  162.3510  209.1250  156.7960 C   0  0  0  0  0  2  0  0  0  0  0  0
  160.6250  207.4340  156.1100 C   0  0  0  0  0  2  0  0  0  0  0  0
  159.2610  213.3760  153.4820 C   0  0  0  0  0  2  0  0  0  0  0  0
  158.6110  214.0820  152.4700 O   0  0  0  0  0  1  0  0  0  0  0  0
  162.4710  206.3570  151.7900 C   0  0  0  0  0  2  0  0  0  0  0  0
  162.0190  204.9860  151.3150 C   0  0  0  0  0  2  0  0  0  0  0  0
  161.0210  205.1390  150.1800 C   0  0  0  0  0  2  0  0  0  0  0  0
  160.7490  202.8410  149.6430 O   0  0  0  0  0  0  0  0  0  0  0  0
  161.5880  204.1310  147.9000 N   0  0  0  0  0  2  0  0  0  0  0  0
  161.1050  203.9800  149.2430 C   0  0  0  0  0  0  0  0  0  0  0  0
  161.9600  205.3910  147.2540 C   0  0  1  0  0  3  0  0  0  0  0  0
  162.7840  205.1340  146.0080 C   0  0  0  0  0  1  0  0  0  0  0  0
  160.7420  206.2420  146.9260 C   0  0  0  0  0  2  0  0  0  0  0  0
  160.5150  206.2370  145.5490 O   0  0  0  0  0  1  0  0  0  0  0  0
  1  3  1  6  0  0  0
  1 15  1  0  0  0  0
  1  4  1  0  0  0  0
  2  5  1  0  0  0  0
  2  7  1  0  0  0  0
  4  2  2  0  0  0  0
  5 11  1  0  0  0  0
  7 14  1  6  0  0  0
  7 16  1  0  0  0  0
  8 19  1  0  0  0  0
  9 11  1  6  0  0  0
  9  8  1  0  0  0  0
 10 12  2  0  0  0  0
 10  4  1  0  0  0  0
 12 17  1  0  0  0  0
 13 10  1  0  0  0  0
 15 23  1  1  0  0  0
 15 14  1  0  0  0  0
 16  9  1  0  0  0  0
 16 20  1  1  0  0  0
 17 21  1  0  0  0  0
 17  5  2  0  0  0  0
 18  3  1  0  0  0  0
 18 13  1  0  0  0  0
 19  6  1  0  0  0  0
 20  6  1  0  0  0  0
 22 21  1  0  0  0  0
 24 23  1  0  0  0  0
 25 24  1  0  0  0  0
 27 28  1  0  0  0  0
 28 26  2  0  0  0  0
 28 25  1  0  0  0  0
 29 30  1  6  0  0  0
 29 27  1  0  0  0  0
 31 29  1  0  0  0  0
 32 31  1  0  0  0  0
M  END
>  <MODEL>
5

>  <REMARK>
 VINA RESULT:      -7.5      3.592      8.386
  Name = 
  7 active torsions:
  status: ('A' for Active; 'I' for Inactive)
    1  A    between atoms: CA_3  and  N_19
    2  A    between atoms: CA_3  and  C_22
    3  A    between atoms: C_13  and  C_29
    4  A    between atoms: C_15  and  C_20
    5  A    between atoms: C_15  and  C_26
    6  A    between atoms: C_16  and  C_20
    7  A    between atoms: C_16  and  C_27
                            x       y       z     vdW  Elec       q    Type
                         _______ _______ _______ _____ _____    ______ ____

>  <TORSDO>
F 7

$$$$
=
 OpenBabel11062408143D

 32 36  0  0  1  0  0  0  0  0999 V2000
  161.8150  206.7500  150.9690 C   0  0  1  0  0  3  0  0  0  0  0  0
  161.2370  204.8420  149.4180 C   0  0  0  0  0  0  0  0  0  0  0  0
  161.4720  207.1900  152.3920 C   0  0  0  0  0  2  0  0  0  0  0  0
  161.4220  205.3080  150.7280 C   0  0  0  0  0  0  0  0  0  0  0  0
  160.9360  203.4860  149.1850 C   0  0  0  0  0  0  0  0  0  0  0  0
  162.6170  205.4490  145.0280 C   0  0  0  0  0  2  0  0  0  0  0  0
  161.4320  205.8140  148.2870 C   0  0  2  0  0  3  0  0  0  0  0  0
  162.7580  203.6180  146.7600 C   0  0  0  0  0  2  0  0  0  0  0  0
  161.3010  203.8400  146.7520 N   0  0  1  0  0  0  0  0  0  0  0  0
  161.3180  204.4180  151.8100 C   0  0  0  0  0  0  0  0  0  0  0  0
  160.6720  203.0030  147.7780 C   0  0  0  0  0  2  0  0  0  0  0  0
  160.9990  203.0800  151.5830 C   0  0  0  0  0  3  0  0  0  0  0  0
  161.5130  204.8770  153.1190 O   0  0  0  0  0  0  0  0  0  0  0  0
  160.7110  207.1170  148.6340 C   0  0  0  0  0  2  0  0  0  0  0  0
  161.2050  207.7350  149.9540 C   0  0  2  0  0  3  0  0  0  0  0  0
  160.9360  205.2590  146.9430 C   0  0  2  0  0  3  0  0  0  0  0  0
  160.7980  202.6090  150.2810 C   0  0  0  0  0  0  0  0  0  0  0  0
  162.0340  206.1790  153.3880 C   0  0  0  0  0  2  0  0  0  0  0  0
  163.5290  204.7010  145.9920 C   0  0  0  0  0  2  0  0  0  0  0  0
  161.4650  206.1180  145.7820 C   0  0  0  0  0  2  0  0  0  0  0  0
  160.4800  201.1630  150.0890 C   0  0  0  0  0  2  0  0  0  0  0  0
  159.1700  201.0240  149.6310 O   0  0  0  0  0  1  0  0  0  0  0  0
  162.1830  208.8680  149.6750 C   0  0  0  0  0  2  0  0  0  0  0  0
  161.5960  209.8340  148.6610 C   0  0  0  0  0  2  0  0  0  0  0  0
  162.0220  211.2530  148.9970 C   0  0  0  0  0  2  0  0  0  0  0  0
  160.8530  212.2710  147.1970 O   0  0  0  0  0  0  0  0  0  0  0  0
  160.3480  213.1650  149.2840 N   0  0  0  0  0  2  0  0  0  0  0  0
  161.0520  212.2420  148.4390 C   0  0  0  0  0  0  0  0  0  0  0  0
  160.4000  213.2070  150.7460 C   0  0  1  0  0  3  0  0  0  0  0  0
  159.7130  214.4530  151.2720 C   0  0  0  0  0  1  0  0  0  0  0  0
  159.7990  211.9580  151.3730 C   0  0  0  0  0  2  0  0  0  0  0  0
  158.6550  212.2930  152.1000 O   0  0  0  0  0  1  0  0  0  0  0  0
  1  3  1  1  0  0  0
  2  4  1  0  0  0  0
  3 18  1  0  0  0  0
  4  1  1  0  0  0  0
  4 10  2  0  0  0  0
  5  2  2  0  0  0  0
  5 17  1  0  0  0  0
  6 20  1  0  0  0  0
  6 19  1  0  0  0  0
  7 14  1  1  0  0  0
  7  2  1  0  0  0  0
  9  8  1  1  0  0  0
  9 16  1  0  0  0  0
  9 11  1  0  0  0  0
 10 13  1  0  0  0  0
 11  5  1  0  0  0  0
 12 10  1  0  0  0  0
 13 18  1  0  0  0  0
 14 15  1  0  0  0  0
 15 23  1  6  0  0  0
 15  1  1  0  0  0  0
 16 20  1  6  0  0  0
 16  7  1  0  0  0  0
 17 12  2  0  0  0  0
 19  8  1  0  0  0  0
 21 17  1  0  0  0  0
 22 21  1  0  0  0  0
 24 25  1  0  0  0  0
 24 23  1  0  0  0  0
 26 28  2  0  0  0  0
 27 29  1  0  0  0  0
 28 25  1  0  0  0  0
 28 27  1  0  0  0  0
 29 30  1  1  0  0  0
 29 31  1  0  0  0  0
 31 32  1  0  0  0  0
M  END
>  <MODEL>
6

>  <REMARK>
 VINA RESULT:      -7.3      1.774      2.067
  Name = 
  7 active torsions:
  status: ('A' for Active; 'I' for Inactive)
    1  A    between atoms: CA_3  and  N_19
    2  A    between atoms: CA_3  and  C_22
    3  A    between atoms: C_13  and  C_29
    4  A    between atoms: C_15  and  C_20
    5  A    between atoms: C_15  and  C_26
    6  A    between atoms: C_16  and  C_20
    7  A    between atoms: C_16  and  C_27
                            x       y       z     vdW  Elec       q    Type
                         _______ _______ _______ _____ _____    ______ ____

>  <TORSDO>
F 7

$$$$
=
 OpenBabel11062408143D

 32 36  0  0  1  0  0  0  0  0999 V2000
  161.2060  207.0790  151.6880 C   0  0  1  0  0  3  0  0  0  0  0  0
  161.0090  209.0300  153.2790 C   0  0  0  0  0  0  0  0  0  0  0  0
  161.8730  205.7030  151.6670 C   0  0  0  0  0  2  0  0  0  0  0  0
  161.1620  207.6490  153.0890 C   0  0  0  0  0  0  0  0  0  0  0  0
  160.9020  209.5580  154.5800 C   0  0  0  0  0  0  0  0  0  0  0  0
  159.1630  212.8560  151.4070 C   0  0  0  0  0  2  0  0  0  0  0  0
  160.9020  209.9040  152.0600 C   0  0  2  0  0  3  0  0  0  0  0  0
  158.8200  211.4870  153.5010 C   0  0  0  0  0  2  0  0  0  0  0  0
  160.2630  211.7590  153.6160 N   0  0  1  0  0  0  0  0  0  0  0  0
  161.1970  206.7880  154.1990 C   0  0  0  0  0  0  0  0  0  0  0  0
  160.8040  211.0530  154.7820 C   0  0  0  0  0  2  0  0  0  0  0  0
  161.1130  207.3120  155.4890 C   0  0  0  0  0  3  0  0  0  0  0  0
  161.3390  205.4080  154.0140 O   0  0  0  0  0  0  0  0  0  0  0  0
  161.9850  209.4890  151.0640 C   0  0  0  0  0  2  0  0  0  0  0  0
  161.8860  208.0060  150.6630 C   0  0  2  0  0  3  0  0  0  0  0  0
  161.0150  211.3990  152.3960 C   0  0  2  0  0  3  0  0  0  0  0  0
  160.9750  208.6900  155.6890 C   0  0  0  0  0  0  0  0  0  0  0  0
  161.2290  204.8080  152.7230 C   0  0  0  0  0  2  0  0  0  0  0  0
  158.2510  211.8720  152.1280 C   0  0  0  0  0  2  0  0  0  0  0  0
  160.5550  212.2520  151.2020 C   0  0  0  0  0  2  0  0  0  0  0  0
  160.8660  209.1980  157.0880 C   0  0  0  0  0  2  0  0  0  0  0  0
  159.6630  209.8860  157.2490 O   0  0  0  0  0  1  0  0  0  0  0  0
  161.2100  207.8690  149.3070 C   0  0  0  0  0  2  0  0  0  0  0  0
  162.0240  206.9600  148.4010 C   0  0  0  0  0  2  0  0  0  0  0  0
  161.1620  205.8030  147.9260 C   0  0  0  0  0  2  0  0  0  0  0  0
  162.8560  205.2600  146.3510 O   0  0  0  0  0  0  0  0  0  0  0  0
  161.7680  203.4120  147.2520 N   0  0  0  0  0  2  0  0  0  0  0  0
  161.9740  204.8290  147.1390 C   0  0  0  0  0  0  0  0  0  0  0  0
  160.8490  202.7460  148.1760 C   0  0  1  0  0  3  0  0  0  0  0  0
  160.6440  201.2970  147.7790 C   0  0  0  0  0  1  0  0  0  0  0  0
  161.3220  202.8450  149.6180 C   0  0  0  0  0  2  0  0  0  0  0  0
  160.7900  201.7950  150.3680 O   0  0  0  0  0  1  0  0  0  0  0  0
  1  3  1  1  0  0  0
  1  4  1  0  0  0  0
  2  5  1  0  0  0  0
  3 18  1  0  0  0  0
  4  2  2  0  0  0  0
  4 10  1  0  0  0  0
  5 11  1  0  0  0  0
  5 17  2  0  0  0  0
  6 19  1  0  0  0  0
  7 14  1  6  0  0  0
  7 16  1  0  0  0  0
  7  2  1  0  0  0  0
  9  8  1  6  0  0  0
  9 11  1  0  0  0  0
 10 12  2  0  0  0  0
 12 17  1  0  0  0  0
 13 10  1  0  0  0  0
 15 23  1  6  0  0  0
 15 14  1  0  0  0  0
 15  1  1  0  0  0  0
 16 20  1  6  0  0  0
 16  9  1  0  0  0  0
 17 21  1  0  0  0  0
 18 13  1  0  0  0  0
 19  8  1  0  0  0  0
 20  6  1  0  0  0  0
 21 22  1  0  0  0  0
 24 23  1  0  0  0  0
 25 24  1  0  0  0  0
 26 28  2  0  0  0  0
 27 29  1  0  0  0  0
 28 27  1  0  0  0  0
 28 25  1  0  0  0  0
 29 30  1  6  0  0  0
 29 31  1  0  0  0  0
 31 32  1  0  0  0  0
M  END
>  <MODEL>
7

>  <REMARK>
 VINA RESULT:      -7.3      3.117      7.793
  Name = 
  7 active torsions:
  status: ('A' for Active; 'I' for Inactive)
    1  A    between atoms: CA_3  and  N_19
    2  A    between atoms: CA_3  and  C_22
    3  A    between atoms: C_13  and  C_29
    4  A    between atoms: C_15  and  C_20
    5  A    between atoms: C_15  and  C_26
    6  A    between atoms: C_16  and  C_20
    7  A    between atoms: C_16  and  C_27
                            x       y       z     vdW  Elec       q    Type
                         _______ _______ _______ _____ _____    ______ ____

>  <TORSDO>
F 7

$$$$
=
 OpenBabel11062408143D

 32 36  0  0  1  0  0  0  0  0999 V2000
  161.2440  202.7440  150.0100 C   0  0  1  0  0  3  0  0  0  0  0  0
  160.9600  204.5050  148.2230 C   0  0  0  0  0  0  0  0  0  0  0  0
  160.8450  201.2840  150.2300 C   0  0  0  0  0  2  0  0  0  0  0  0
  161.0780  203.1490  148.5620 C   0  0  0  0  0  0  0  0  0  0  0  0
  160.8720  204.8920  146.8720 C   0  0  0  0  0  0  0  0  0  0  0  0
  162.2060  208.7830  149.5260 C   0  0  0  0  0  2  0  0  0  0  0  0
  160.9960  205.5180  149.3340 C   0  0  2  0  0  3  0  0  0  0  0  0
  162.6380  207.2640  147.5550 C   0  0  0  0  0  2  0  0  0  0  0  0
  161.1650  207.2650  147.5490 N   0  0  1  0  0  0  0  0  0  0  0  0
  161.1190  202.1740  147.5510 C   0  0  0  0  0  0  0  0  0  0  0  0
  160.6780  206.3470  146.5140 C   0  0  0  0  0  2  0  0  0  0  0  0
  161.0100  202.5540  146.2130 C   0  0  0  0  0  3  0  0  0  0  0  0
  161.2470  200.8200  147.8840 O   0  0  0  0  0  0  0  0  0  0  0  0
  160.0840  205.0370  150.4630 C   0  0  0  0  0  2  0  0  0  0  0  0
  160.4830  203.6490  150.9980 C   0  0  2  0  0  3  0  0  0  0  0  0
  160.5850  206.9210  148.8630 C   0  0  2  0  0  3  0  0  0  0  0  0
  160.8770  203.9030  145.8660 C   0  0  0  0  0  0  0  0  0  0  0  0
  161.5620  200.4010  149.2120 C   0  0  0  0  0  2  0  0  0  0  0  0
  163.2280  207.8970  148.8230 C   0  0  0  0  0  2  0  0  0  0  0  0
  160.9680  207.9720  149.9190 C   0  0  0  0  0  2  0  0  0  0  0  0
  160.7860  204.2590  144.4190 C   0  0  0  0  0  2  0  0  0  0  0  0
  161.8170  205.1360  144.0830 O   0  0  0  0  0  1  0  0  0  0  0  0
  161.2720  203.7880  152.2910 C   0  0  0  0  0  2  0  0  0  0  0  0
  161.7580  205.2170  152.4630 C   0  0  0  0  0  2  0  0  0  0  0  0
  161.3170  205.7500  153.8160 C   0  0  0  0  0  2  0  0  0  0  0  0
  160.5820  207.6720  152.6280 O   0  0  0  0  0  0  0  0  0  0  0  0
  161.0970  208.0740  154.8600 N   0  0  0  0  0  2  0  0  0  0  0  0
  160.9770  207.2010  153.7270 C   0  0  0  0  0  0  0  0  0  0  0  0
  161.4590  207.6750  156.2210 C   0  0  1  0  0  3  0  0  0  0  0  0
  162.1600  208.8080  156.9450 C   0  0  0  0  0  1  0  0  0  0  0  0
  160.2500  207.1980  157.0130 C   0  0  0  0  0  2  0  0  0  0  0  0
  159.1360  207.1110  156.1760 O   0  0  0  0  0  1  0  0  0  0  0  0
  1  3  1  6  0  0  0
  1 15  1  0  0  0  0
  2  4  1  0  0  0  0
  2  7  1  0  0  0  0
  4  1  1  0  0  0  0
  5  2  2  0  0  0  0
  6 20  1  0  0  0  0
  7 14  1  1  0  0  0
  8 19  1  0  0  0  0
  9 11  1  6  0  0  0
  9  8  1  0  0  0  0
  9 16  1  0  0  0  0
 10 13  1  0  0  0  0
 10  4  2  0  0  0  0
 11  5  1  0  0  0  0
 12 10  1  0  0  0  0
 13 18  1  0  0  0  0
 14 15  1  0  0  0  0
 15 23  1  1  0  0  0
 16  7  1  0  0  0  0
 16 20  1  1  0  0  0
 17 12  2  0  0  0  0
 17  5  1  0  0  0  0
 18  3  1  0  0  0  0
 19  6  1  0  0  0  0
 21 17  1  0  0  0  0
 22 21  1  0  0  0  0
 23 24  1  0  0  0  0
 24 25  1  0  0  0  0
 26 28  2  0  0  0  0
 27 29  1  0  0  0  0
 28 25  1  0  0  0  0
 28 27  1  0  0  0  0
 29 30  1  1  0  0  0
 29 31  1  0  0  0  0
 32 31  1  0  0  0  0
M  END
>  <MODEL>
8

>  <REMARK>
 VINA RESULT:      -7.1      3.167      6.459
  Name = 
  7 active torsions:
  status: ('A' for Active; 'I' for Inactive)
    1  A    between atoms: CA_3  and  N_19
    2  A    between atoms: CA_3  and  C_22
    3  A    between atoms: C_13  and  C_29
    4  A    between atoms: C_15  and  C_20
    5  A    between atoms: C_15  and  C_26
    6  A    between atoms: C_16  and  C_20
    7  A    between atoms: C_16  and  C_27
                            x       y       z     vdW  Elec       q    Type
                         _______ _______ _______ _____ _____    ______ ____

>  <TORSDO>
F 7

$$$$
=
 OpenBabel11062408143D

 32 36  0  0  1  0  0  0  0  0999 V2000
  161.2670  207.3470  151.8490 C   0  0  1  0  0  3  0  0  0  0  0  0
  160.8070  209.2140  153.4860 C   0  0  0  0  0  0  0  0  0  0  0  0
  161.9880  205.9990  151.8490 C   0  0  0  0  0  2  0  0  0  0  0  0
  161.0390  207.8500  153.2580 C   0  0  0  0  0  0  0  0  0  0  0  0
  160.5300  209.6770  154.7870 C   0  0  0  0  0  0  0  0  0  0  0  0
  159.0310  213.0530  151.5730 C   0  0  0  0  0  2  0  0  0  0  0  0
  160.8040  210.1390  152.3000 C   0  0  2  0  0  3  0  0  0  0  0  0
  158.5070  211.5760  153.5540 C   0  0  0  0  0  2  0  0  0  0  0  0
  159.9150  211.8950  153.8480 N   0  0  1  0  0  0  0  0  0  0  0  0
  160.9820  206.9400  154.3280 C   0  0  0  0  0  0  0  0  0  0  0  0
  160.3470  211.1560  155.0380 C   0  0  0  0  0  2  0  0  0  0  0  0
  160.7280  207.4000  155.6200 C   0  0  0  0  0  3  0  0  0  0  0  0
  161.2010  205.5760  154.1030 O   0  0  0  0  0  0  0  0  0  0  0  0
  162.0110  209.8110  151.4220 C   0  0  0  0  0  2  0  0  0  0  0  0
  162.0210  208.3450  150.9500 C   0  0  2  0  0  3  0  0  0  0  0  0
  160.8170  211.6200  152.7100 C   0  0  2  0  0  3  0  0  0  0  0  0
  160.5110  208.7610  155.8590 C   0  0  0  0  0  0  0  0  0  0  0  0
  161.2650  205.0330  152.7840 C   0  0  0  0  0  2  0  0  0  0  0  0
  158.0840  212.0030  152.1410 C   0  0  0  0  0  2  0  0  0  0  0  0
  160.4610  212.5100  151.5070 C   0  0  0  0  0  2  0  0  0  0  0  0
  160.2210  209.2000  157.2570 C   0  0  0  0  0  2  0  0  0  0  0  0
  159.8380  210.5410  157.2610 O   0  0  0  0  0  1  0  0  0  0  0  0
  161.5110  208.2460  149.5200 C   0  0  0  0  0  2  0  0  0  0  0  0
  161.9280  206.9220  148.9010 C   0  0  0  0  0  2  0  0  0  0  0  0
  160.6930  206.1080  148.5500 C   0  0  0  0  0  2  0  0  0  0  0  0
  160.8680  203.9640  149.5580 O   0  0  0  0  0  0  0  0  0  0  0  0
  161.4940  204.0150  147.3190 N   0  0  0  0  0  2  0  0  0  0  0  0
  161.0150  204.6510  148.5130 C   0  0  0  0  0  0  0  0  0  0  0  0
  161.6400  204.6460  146.0060 C   0  0  1  0  0  3  0  0  0  0  0  0
  163.0820  205.0430  145.7570 C   0  0  0  0  0  1  0  0  0  0  0  0
  161.1290  203.7510  144.8860 C   0  0  0  0  0  2  0  0  0  0  0  0
  160.8330  202.4830  145.3870 O   0  0  0  0  0  1  0  0  0  0  0  0
  1  3  1  1  0  0  0
  1  4  1  0  0  0  0
  2  5  1  0  0  0  0
  3 18  1  0  0  0  0
  4  2  2  0  0  0  0
  4 10  1  0  0  0  0
  5 11  1  0  0  0  0
  5 17  2  0  0  0  0
  6 19  1  0  0  0  0
  7 14  1  6  0  0  0
  7 16  1  0  0  0  0
  7  2  1  0  0  0  0
  9  8  1  6  0  0  0
  9 11  1  0  0  0  0
 10 12  2  0  0  0  0
 12 17  1  0  0  0  0
 13 10  1  0  0  0  0
 15 23  1  6  0  0  0
 15 14  1  0  0  0  0
 15  1  1  0  0  0  0
 16 20  1  6  0  0  0
 16  9  1  0  0  0  0
 17 21  1  0  0  0  0
 18 13  1  0  0  0  0
 19  8  1  0  0  0  0
 20  6  1  0  0  0  0
 21 22  1  0  0  0  0
 24 23  1  0  0  0  0
 25 24  1  0  0  0  0
 27 28  1  0  0  0  0
 28 25  1  0  0  0  0
 28 26  2  0  0  0  0
 29 30  1  6  0  0  0
 29 27  1  0  0  0  0
 31 32  1  0  0  0  0
 31 29  1  0  0  0  0
M  END
>  <MODEL>
9

>  <REMARK>
 VINA RESULT:      -7.1      3.510      7.635
  Name = 
  7 active torsions:
  status: ('A' for Active; 'I' for Inactive)
    1  A    between atoms: CA_3  and  N_19
    2  A    between atoms: CA_3  and  C_22
    3  A    between atoms: C_13  and  C_29
    4  A    between atoms: C_15  and  C_20
    5  A    between atoms: C_15  and  C_26
    6  A    between atoms: C_16  and  C_20
    7  A    between atoms: C_16  and  C_27
                            x       y       z     vdW  Elec       q    Type
                         _______ _______ _______ _____ _____    ______ ____

>  <TORSDO>
F 7

$$$$
