=
 OpenBabel11052423123D

 27 32  0  0  1  0  0  0  0  0999 V2000
  161.1960  211.1810  153.9470 N   0  0  0  0  0  2  0  0  0  0  0  0
  161.0270  210.3000  151.5210 C   0  0  0  0  0  0  0  0  0  0  0  0
  160.5130  208.2820  152.8800 N   0  0  0  0  0  0  0  0  0  0  0  0
  162.1630  207.9060  148.2840 C   0  0  0  0  0  3  0  0  0  0  0  0
  162.4990  205.6780  147.2080 C   0  0  0  0  0  1  0  0  0  0  0  0
  161.4810  210.8510  150.3150 C   0  0  0  0  0  3  0  0  0  0  0  0
  161.2650  206.6850  150.6390 C   0  0  0  0  0  3  0  0  0  0  0  0
  159.0210  211.4110  152.6550 C   0  0  1  0  0  3  0  0  0  0  0  0
  159.7720  208.8920  156.4030 C   0  0  0  0  0  2  0  0  0  0  0  0
  159.9510  212.5500  152.2580 C   0  0  0  0  0  2  0  0  0  0  0  0
  161.6430  205.9040  149.5440 C   0  0  0  0  0  3  0  0  0  0  0  0
  161.0060  209.0980  157.2600 C   0  0  0  0  0  2  0  0  0  0  0  0
  161.3280  208.0830  150.5630 C   0  0  0  0  0  0  0  0  0  0  0  0
  160.5340  211.2030  152.6330 C   0  0  1  0  0  0  0  0  0  0  0  0
  162.0900  206.5140  148.3670 C   0  0  0  0  0  0  0  0  0  0  0  0
  161.7790  208.6950  149.3710 C   0  0  0  0  0  0  0  0  0  0  0  0
  161.7750  209.8670  154.2290 C   0  0  1  0  0  3  0  0  0  0  0  0
  160.9730  208.8910  151.6560 C   0  0  0  0  0  0  0  0  0  0  0  0
  160.0930  208.1600  155.1850 N   0  0  0  0  0  2  0  0  0  0  0  0
  161.8480  210.0480  149.2820 N   0  0  0  0  0  0  0  0  0  0  0  0
  161.8280  210.2610  156.7370 C   0  0  0  0  0  2  0  0  0  0  0  0
  162.6150  209.8520  155.5020 C   0  0  0  0  0  2  0  0  0  0  0  0
  160.7870  208.7290  154.0710 C   0  0  0  0  0  0  0  0  0  0  0  0
  158.4750  211.6540  154.0550 C   0  0  0  0  0  2  0  0  0  0  0  0
  156.9340  213.0060  155.3850 C   0  0  0  0  0  2  0  0  0  0  0  0
  156.1980  212.0840  154.6180 O   0  0  0  0  0  0  0  0  0  0  0  0
  157.3340  212.6520  154.0070 C   0  0  2  0  0  3  0  0  0  0  0  0
  1 17  1  0  0  0  0
  2 18  1  0  0  0  0
  2 14  1  0  0  0  0
  3 23  2  0  0  0  0
  4 15  2  0  0  0  0
  4 16  1  0  0  0  0
  5 15  1  0  0  0  0
  6  2  2  0  0  0  0
  8 24  1  1  0  0  0
  9 12  1  0  0  0  0
 10  8  1  0  0  0  0
 11  7  2  0  0  0  0
 13  7  1  0  0  0  0
 13 18  2  0  0  0  0
 14 10  1  6  0  0  0
 14  8  1  0  0  0  0
 14  1  1  0  0  0  0
 15 11  1  0  0  0  0
 16 13  1  0  0  0  0
 17 22  1  1  0  0  0
 18  3  1  0  0  0  0
 19  9  1  0  0  0  0
 20 16  2  0  0  0  0
 20  6  1  0  0  0  0
 21 12  1  0  0  0  0
 22 21  1  0  0  0  0
 23 17  1  0  0  0  0
 23 19  1  0  0  0  0
 26 25  1  0  0  0  0
 27 24  1  1  0  0  0
 27 26  1  0  0  0  0
 27 25  1  0  0  0  0
M  END
>  <MODEL>
1

>  <REMARK>
 VINA RESULT:      -6.0      0.000      0.000
  Name = 
  2 active torsions:
  status: ('A' for Active; 'I' for Inactive)
    1  A    between atoms: C_9  and  C_27
    2  A    between atoms: C_25  and  C_27
                            x       y       z     vdW  Elec       q    Type
                         _______ _______ _______ _____ _____    ______ ____

>  <TORSDO>
F 2

$$$$
=
 OpenBabel11052423123D

 27 32  0  0  1  0  0  0  0  0999 V2000
  161.8730  210.7370  153.4880 N   0  0  0  0  0  2  0  0  0  0  0  0
  161.5300  208.7030  151.9250 C   0  0  0  0  0  0  0  0  0  0  0  0
  160.3220  208.0250  153.9890 N   0  0  0  0  0  0  0  0  0  0  0  0
  161.9580  204.7010  150.7850 C   0  0  0  0  0  3  0  0  0  0  0  0
  161.5900  202.2600  151.1530 C   0  0  0  0  0  1  0  0  0  0  0  0
  162.1940  208.3360  150.7470 C   0  0  0  0  0  3  0  0  0  0  0  0
  160.6050  205.3100  153.1620 C   0  0  0  0  0  3  0  0  0  0  0  0
  159.9530  210.7150  151.8230 C   0  0  1  0  0  3  0  0  0  0  0  0
  159.6670  210.6950  156.3920 C   0  0  0  0  0  2  0  0  0  0  0  0
  161.2230  211.1520  151.1030 C   0  0  0  0  0  2  0  0  0  0  0  0
  160.7540  203.9800  152.7590 C   0  0  0  0  0  3  0  0  0  0  0  0
  160.8610  211.0420  157.2600 C   0  0  0  0  0  2  0  0  0  0  0  0
  161.1280  206.3460  152.3760 C   0  0  0  0  0  0  0  0  0  0  0  0
  161.3130  210.1670  152.2510 C   0  0  1  0  0  0  0  0  0  0  0  0
  161.4280  203.6760  151.5720 C   0  0  0  0  0  0  0  0  0  0  0  0
  161.8080  206.0340  151.1760 C   0  0  0  0  0  0  0  0  0  0  0  0
  161.9730  209.7250  154.5410 C   0  0  1  0  0  3  0  0  0  0  0  0
  161.0100  207.6900  152.7670 C   0  0  0  0  0  0  0  0  0  0  0  0
  159.7830  209.3480  155.8510 N   0  0  0  0  0  2  0  0  0  0  0  0
  162.3220  207.0270  150.4050 N   0  0  0  0  0  0  0  0  0  0  0  0
  162.0420  211.4520  156.4020 C   0  0  0  0  0  2  0  0  0  0  0  0
  162.7050  210.2340  155.7790 C   0  0  0  0  0  2  0  0  0  0  0  0
  160.6750  208.9870  154.7910 C   0  0  0  0  0  0  0  0  0  0  0  0
  159.4560  211.8390  152.7210 C   0  0  0  0  0  2  0  0  0  0  0  0
  158.2040  213.9080  152.3660 C   0  0  0  0  0  2  0  0  0  0  0  0
  158.2240  213.1660  151.1700 O   0  0  0  0  0  0  0  0  0  0  0  0
  159.3980  213.1420  151.9480 C   0  0  2  0  0  3  0  0  0  0  0  0
  1 17  1  0  0  0  0
  2 14  1  0  0  0  0
  2 18  1  0  0  0  0
  3 23  2  0  0  0  0
  4 16  1  0  0  0  0
  4 15  2  0  0  0  0
  5 15  1  0  0  0  0
  6  2  2  0  0  0  0
  8 14  1  0  0  0  0
  8 24  1  1  0  0  0
  9 12  1  0  0  0  0
 10  8  1  0  0  0  0
 11  7  2  0  0  0  0
 13 18  2  0  0  0  0
 13  7  1  0  0  0  0
 14 10  1  6  0  0  0
 14  1  1  0  0  0  0
 15 11  1  0  0  0  0
 16 13  1  0  0  0  0
 17 23  1  0  0  0  0
 17 22  1  1  0  0  0
 18  3  1  0  0  0  0
 19  9  1  0  0  0  0
 20  6  1  0  0  0  0
 20 16  2  0  0  0  0
 21 12  1  0  0  0  0
 22 21  1  0  0  0  0
 23 19  1  0  0  0  0
 26 27  1  0  0  0  0
 26 25  1  0  0  0  0
 27 25  1  0  0  0  0
 27 24  1  1  0  0  0
M  END
>  <MODEL>
2

>  <REMARK>
 VINA RESULT:      -5.4      1.974      2.650
  Name = 
  2 active torsions:
  status: ('A' for Active; 'I' for Inactive)
    1  A    between atoms: C_9  and  C_27
    2  A    between atoms: C_25  and  C_27
                            x       y       z     vdW  Elec       q    Type
                         _______ _______ _______ _____ _____    ______ ____

>  <TORSDO>
F 2

$$$$
=
 OpenBabel11052423123D

 27 32  0  0  1  0  0  0  0  0999 V2000
  161.6770  211.0210  153.4130 N   0  0  0  0  0  2  0  0  0  0  0  0
  161.1200  209.3980  151.4770 C   0  0  0  0  0  0  0  0  0  0  0  0
  160.4300  208.1140  153.4910 N   0  0  0  0  0  0  0  0  0  0  0  0
  161.5170  205.8590  149.2810 C   0  0  0  0  0  3  0  0  0  0  0  0
  161.3770  203.3760  149.0710 C   0  0  0  0  0  1  0  0  0  0  0  0
  161.5300  209.3990  150.1360 C   0  0  0  0  0  3  0  0  0  0  0  0
  160.6810  205.7260  151.9520 C   0  0  0  0  0  3  0  0  0  0  0  0
  159.4460  211.1890  152.2090 C   0  0  1  0  0  3  0  0  0  0  0  0
  160.1640  210.0400  156.5820 C   0  0  0  0  0  2  0  0  0  0  0  0
  160.5020  211.9230  151.3920 C   0  0  0  0  0  2  0  0  0  0  0  0
  160.8140  204.5560  151.1990 C   0  0  0  0  0  3  0  0  0  0  0  0
  161.4960  210.2980  157.2580 C   0  0  0  0  0  2  0  0  0  0  0  0
  160.9610  206.9720  151.3730 C   0  0  0  0  0  0  0  0  0  0  0  0
  160.8960  210.7070  152.2060 C   0  0  1  0  0  0  0  0  0  0  0  0
  161.2300  204.6230  149.8650 C   0  0  0  0  0  0  0  0  0  0  0  0
  161.3790  207.0340  150.0240 C   0  0  0  0  0  0  0  0  0  0  0  0
  162.0630  209.8040  154.1280 C   0  0  1  0  0  3  0  0  0  0  0  0
  160.8540  208.1610  152.1130 C   0  0  0  0  0  0  0  0  0  0  0  0
  160.2360  208.8840  155.7000 N   0  0  0  0  0  2  0  0  0  0  0  0
  161.6550  208.2340  149.4500 N   0  0  0  0  0  0  0  0  0  0  0  0
  162.4370  211.0290  156.3200 C   0  0  0  0  0  2  0  0  0  0  0  0
  163.0160  210.0770  155.2870 C   0  0  0  0  0  2  0  0  0  0  0  0
  160.8940  208.8890  154.4290 C   0  0  0  0  0  0  0  0  0  0  0  0
  159.0930  212.0020  153.4470 C   0  0  0  0  0  2  0  0  0  0  0  0
  156.7570  212.4220  154.0310 C   0  0  0  0  0  2  0  0  0  0  0  0
  157.5070  212.2460  155.2100 O   0  0  0  0  0  0  0  0  0  0  0  0
  157.8550  211.4340  154.1120 C   0  0  2  0  0  3  0  0  0  0  0  0
  1 17  1  0  0  0  0
  2 18  1  0  0  0  0
  2 14  1  0  0  0  0
  3 23  2  0  0  0  0
  4 15  2  0  0  0  0
  4 16  1  0  0  0  0
  5 15  1  0  0  0  0
  6  2  2  0  0  0  0
  8 24  1  1  0  0  0
  9 12  1  0  0  0  0
 10  8  1  0  0  0  0
 11  7  2  0  0  0  0
 13  7  1  0  0  0  0
 13 18  2  0  0  0  0
 14 10  1  6  0  0  0
 14  8  1  0  0  0  0
 14  1  1  0  0  0  0
 15 11  1  0  0  0  0
 16 13  1  0  0  0  0
 17 23  1  0  0  0  0
 17 22  1  1  0  0  0
 18  3  1  0  0  0  0
 19  9  1  0  0  0  0
 20 16  2  0  0  0  0
 20  6  1  0  0  0  0
 21 12  1  0  0  0  0
 22 21  1  0  0  0  0
 23 19  1  0  0  0  0
 25 27  1  0  0  0  0
 25 26  1  0  0  0  0
 27 24  1  6  0  0  0
 27 26  1  0  0  0  0
M  END
>  <MODEL>
3

>  <REMARK>
 VINA RESULT:      -5.4      1.139      1.476
  Name = 
  2 active torsions:
  status: ('A' for Active; 'I' for Inactive)
    1  A    between atoms: C_9  and  C_27
    2  A    between atoms: C_25  and  C_27
                            x       y       z     vdW  Elec       q    Type
                         _______ _______ _______ _____ _____    ______ ____

>  <TORSDO>
F 2

$$$$
=
 OpenBabel11052423123D

 27 32  0  0  1  0  0  0  0  0999 V2000
  161.9560  203.0850  147.5490 N   0  0  0  0  0  2  0  0  0  0  0  0
  161.2850  203.6440  149.9850 C   0  0  0  0  0  0  0  0  0  0  0  0
  160.5730  205.6720  148.7350 N   0  0  0  0  0  0  0  0  0  0  0  0
  161.4710  205.8300  153.5470 C   0  0  0  0  0  3  0  0  0  0  0  0
  161.2090  207.9480  154.8420 C   0  0  0  0  0  1  0  0  0  0  0  0
  161.6710  203.0550  151.1960 C   0  0  0  0  0  3  0  0  0  0  0  0
  160.6800  207.1200  151.1890 C   0  0  0  0  0  3  0  0  0  0  0  0
  159.7130  202.3180  148.4640 C   0  0  1  0  0  3  0  0  0  0  0  0
  160.4560  205.3330  145.1010 C   0  0  0  0  0  2  0  0  0  0  0  0
  160.7870  201.3310  148.9050 C   0  0  0  0  0  2  0  0  0  0  0  0
  160.7430  207.8300  152.3920 C   0  0  0  0  0  3  0  0  0  0  0  0
  161.8120  205.4530  144.4320 C   0  0  0  0  0  2  0  0  0  0  0  0
  161.0080  205.7580  151.1580 C   0  0  0  0  0  0  0  0  0  0  0  0
  161.1380  202.7960  148.7380 C   0  0  1  0  0  0  0  0  0  0  0  0
  161.1360  207.1860  153.5680 C   0  0  0  0  0  0  0  0  0  0  0  0
  161.4040  205.1100  152.3510 C   0  0  0  0  0  0  0  0  0  0  0  0
  162.2960  204.5060  147.4710 C   0  0  1  0  0  3  0  0  0  0  0  0
  160.9730  205.0250  149.9600 C   0  0  0  0  0  0  0  0  0  0  0  0
  160.4560  205.9710  146.4100 N   0  0  0  0  0  2  0  0  0  0  0  0
  161.7270  203.7910  152.3370 N   0  0  0  0  0  0  0  0  0  0  0  0
  162.7690  204.4110  144.9780 C   0  0  0  0  0  2  0  0  0  0  0  0
  163.2830  204.8160  146.3500 C   0  0  0  0  0  2  0  0  0  0  0  0
  161.0900  205.4180  147.5680 C   0  0  0  0  0  0  0  0  0  0  0  0
  159.4230  202.1360  146.9810 C   0  0  0  0  0  2  0  0  0  0  0  0
  160.4560  201.4180  144.8860 C   0  0  0  0  0  2  0  0  0  0  0  0
  159.8080  200.3200  145.4840 O   0  0  0  0  0  0  0  0  0  0  0  0
  160.4560  201.2220  146.3520 C   0  0  2  0  0  3  0  0  0  0  0  0
  1 14  1  0  0  0  0
  2  6  1  0  0  0  0
  3 18  1  0  0  0  0
  4 15  1  0  0  0  0
  6 20  2  0  0  0  0
  7 11  1  0  0  0  0
  8 24  1  6  0  0  0
  8 14  1  0  0  0  0
  8 10  1  0  0  0  0
  9 19  1  0  0  0  0
 11 15  2  0  0  0  0
 12 21  1  0  0  0  0
 12  9  1  0  0  0  0
 13  7  2  0  0  0  0
 13 16  1  0  0  0  0
 14 10  1  1  0  0  0
 14  2  1  0  0  0  0
 15  5  1  0  0  0  0
 16  4  2  0  0  0  0
 17 22  1  6  0  0  0
 17  1  1  0  0  0  0
 17 23  1  0  0  0  0
 18  2  2  0  0  0  0
 18 13  1  0  0  0  0
 19 23  1  0  0  0  0
 20 16  1  0  0  0  0
 21 22  1  0  0  0  0
 23  3  2  0  0  0  0
 25 26  1  0  0  0  0
 25 27  1  0  0  0  0
 26 27  1  0  0  0  0
 27 24  1  1  0  0  0
M  END
>  <MODEL>
4

>  <REMARK>
 VINA RESULT:      -5.2      4.708      9.511
  Name = 
  2 active torsions:
  status: ('A' for Active; 'I' for Inactive)
    1  A    between atoms: C_9  and  C_27
    2  A    between atoms: C_25  and  C_27
                            x       y       z     vdW  Elec       q    Type
                         _______ _______ _______ _____ _____    ______ ____

>  <TORSDO>
F 2

$$$$
=
 OpenBabel11052423123D

 27 32  0  0  1  0  0  0  0  0999 V2000
  161.1440  212.9330  138.8820 N   0  0  0  0  0  2  0  0  0  0  0  0
  161.9470  212.5890  141.3170 C   0  0  0  0  0  0  0  0  0  0  0  0
  159.6240  211.7030  141.3700 N   0  0  0  0  0  0  0  0  0  0  0  0
  161.8620  213.2320  145.4500 C   0  0  0  0  0  3  0  0  0  0  0  0
  160.7180  213.1310  147.6670 C   0  0  0  0  0  1  0  0  0  0  0  0
  163.0390  213.1360  142.0050 C   0  0  0  0  0  3  0  0  0  0  0  0
  159.6170  212.1260  144.1910 C   0  0  0  0  0  3  0  0  0  0  0  0
  162.4320  210.8370  139.5170 C   0  0  1  0  0  3  0  0  0  0  0  0
  158.0830  211.1060  138.1140 C   0  0  0  0  0  2  0  0  0  0  0  0
  163.4240  211.9670  139.2680 C   0  0  0  0  0  2  0  0  0  0  0  0
  159.6110  212.3430  145.5710 C   0  0  0  0  0  3  0  0  0  0  0  0
  157.5410  212.3600  137.4560 C   0  0  0  0  0  2  0  0  0  0  0  0
  160.7470  212.4560  143.4300 C   0  0  0  0  0  0  0  0  0  0  0  0
  162.0550  212.2830  139.8370 C   0  0  1  0  0  0  0  0  0  0  0  0
  160.7320  212.8940  146.2000 C   0  0  0  0  0  0  0  0  0  0  0  0
  161.8790  213.0110  144.0700 C   0  0  0  0  0  0  0  0  0  0  0  0
  159.8580  213.2500  139.5060 C   0  0  1  0  0  3  0  0  0  0  0  0
  160.7720  212.2660  142.0380 C   0  0  0  0  0  0  0  0  0  0  0  0
  158.1980  211.2760  139.5560 N   0  0  0  0  0  2  0  0  0  0  0  0
  162.9810  213.3380  143.3470 N   0  0  0  0  0  0  0  0  0  0  0  0
  158.6420  213.3880  137.2810 C   0  0  0  0  0  2  0  0  0  0  0  0
  158.9510  214.0770  138.6000 C   0  0  0  0  0  2  0  0  0  0  0  0
  159.2130  212.0620  140.1890 C   0  0  0  0  0  0  0  0  0  0  0  0
  161.8580  210.3530  138.1930 C   0  0  0  0  0  2  0  0  0  0  0  0
  160.5150  208.4750  137.3910 C   0  0  0  0  0  2  0  0  0  0  0  0
  160.4400  208.5340  138.7960 O   0  0  0  0  0  0  0  0  0  0  0  0
  161.6860  208.8470  138.2150 C   0  0  2  0  0  3  0  0  0  0  0  0
  1 17  1  0  0  0  0
  1 14  1  0  0  0  0
  2  6  2  0  0  0  0
  2 18  1  0  0  0  0
  3 18  1  0  0  0  0
  4 15  2  0  0  0  0
  6 20  1  0  0  0  0
  7 11  2  0  0  0  0
  8 24  1  6  0  0  0
  8 14  1  0  0  0  0
  9 19  1  0  0  0  0
 10  8  1  0  0  0  0
 11 15  1  0  0  0  0
 12  9  1  0  0  0  0
 13 16  1  0  0  0  0
 13  7  1  0  0  0  0
 14 10  1  6  0  0  0
 14  2  1  0  0  0  0
 15  5  1  0  0  0  0
 16  4  1  0  0  0  0
 17 22  1  6  0  0  0
 17 23  1  0  0  0  0
 18 13  2  0  0  0  0
 19 23  1  0  0  0  0
 20 16  2  0  0  0  0
 21 12  1  0  0  0  0
 21 22  1  0  0  0  0
 23  3  2  0  0  0  0
 25 27  1  0  0  0  0
 25 26  1  0  0  0  0
 27 24  1  6  0  0  0
 27 26  1  0  0  0  0
M  END
>  <MODEL>
5

>  <REMARK>
 VINA RESULT:      -5.0      9.471     13.601
  Name = 
  2 active torsions:
  status: ('A' for Active; 'I' for Inactive)
    1  A    between atoms: C_9  and  C_27
    2  A    between atoms: C_25  and  C_27
                            x       y       z     vdW  Elec       q    Type
                         _______ _______ _______ _____ _____    ______ ____

>  <TORSDO>
F 2

$$$$
=
 OpenBabel11052423123D

 27 32  0  0  1  0  0  0  0  0999 V2000
  160.3320  212.6230  153.7420 N   0  0  0  0  0  2  0  0  0  0  0  0
  160.7860  210.5650  152.2410 C   0  0  0  0  0  0  0  0  0  0  0  0
  159.4260  209.6110  154.0910 N   0  0  0  0  0  0  0  0  0  0  0  0
  162.3790  206.7930  151.3840 C   0  0  0  0  0  3  0  0  0  0  0  0
  162.5580  204.3380  151.7960 C   0  0  0  0  0  1  0  0  0  0  0  0
  161.7220  210.3720  151.2160 C   0  0  0  0  0  3  0  0  0  0  0  0
  160.5100  207.0510  153.4550 C   0  0  0  0  0  3  0  0  0  0  0  0
  158.8110  212.1210  151.7700 C   0  0  1  0  0  3  0  0  0  0  0  0
  157.7140  212.0400  156.2130 C   0  0  0  0  0  2  0  0  0  0  0  0
  160.0440  212.8590  151.2640 C   0  0  0  0  0  2  0  0  0  0  0  0
  161.0500  205.7990  153.1480 C   0  0  0  0  0  3  0  0  0  0  0  0
  158.6090  212.6750  157.2600 C   0  0  0  0  0  2  0  0  0  0  0  0
  160.8980  208.1830  152.7250 C   0  0  0  0  0  0  0  0  0  0  0  0
  160.1630  211.9300  152.4550 C   0  0  1  0  0  0  0  0  0  0  0  0
  161.9820  205.6700  152.1130 C   0  0  0  0  0  0  0  0  0  0  0  0
  161.8390  208.0470  151.6790 C   0  0  0  0  0  0  0  0  0  0  0  0
  160.4840  211.6700  154.8430 C   0  0  1  0  0  3  0  0  0  0  0  0
  160.3860  209.4560  153.0260 C   0  0  0  0  0  0  0  0  0  0  0  0
  158.2520  210.7630  155.7660 N   0  0  0  0  0  2  0  0  0  0  0  0
  162.2260  209.1350  150.9640 N   0  0  0  0  0  0  0  0  0  0  0  0
  159.7900  213.3640  156.6040 C   0  0  0  0  0  2  0  0  0  0  0  0
  160.8320  212.3470  156.1650 C   0  0  0  0  0  2  0  0  0  0  0  0
  159.3820  210.6330  154.8960 C   0  0  0  0  0  0  0  0  0  0  0  0
  157.9000  213.0870  152.5130 C   0  0  0  0  0  2  0  0  0  0  0  0
  156.0820  214.3750  151.5080 C   0  0  0  0  0  2  0  0  0  0  0  0
  156.8650  213.8030  150.4870 O   0  0  0  0  0  0  0  0  0  0  0  0
  157.5520  214.2670  151.6270 C   0  0  2  0  0  3  0  0  0  0  0  0
  1 17  1  0  0  0  0
  2 14  1  0  0  0  0
  2 18  1  0  0  0  0
  3 23  2  0  0  0  0
  4 16  1  0  0  0  0
  4 15  2  0  0  0  0
  5 15  1  0  0  0  0
  6  2  2  0  0  0  0
  8 14  1  0  0  0  0
  8 24  1  1  0  0  0
  9 12  1  0  0  0  0
 10  8  1  0  0  0  0
 11  7  2  0  0  0  0
 13 18  2  0  0  0  0
 13  7  1  0  0  0  0
 14 10  1  6  0  0  0
 14  1  1  0  0  0  0
 15 11  1  0  0  0  0
 16 13  1  0  0  0  0
 17 23  1  0  0  0  0
 17 22  1  1  0  0  0
 18  3  1  0  0  0  0
 19  9  1  0  0  0  0
 20  6  1  0  0  0  0
 20 16  2  0  0  0  0
 21 12  1  0  0  0  0
 22 21  1  0  0  0  0
 23 19  1  0  0  0  0
 25 27  1  0  0  0  0
 26 25  1  0  0  0  0
 26 27  1  0  0  0  0
 27 24  1  1  0  0  0
M  END
>  <MODEL>
6

>  <REMARK>
 VINA RESULT:      -4.7      2.247      2.914
  Name = 
  2 active torsions:
  status: ('A' for Active; 'I' for Inactive)
    1  A    between atoms: C_9  and  C_27
    2  A    between atoms: C_25  and  C_27
                            x       y       z     vdW  Elec       q    Type
                         _______ _______ _______ _____ _____    ______ ____

>  <TORSDO>
F 2

$$$$
=
 OpenBabel11052423123D

 27 32  0  0  1  0  0  0  0  0999 V2000
  160.8280  213.5510  140.2750 N   0  0  0  0  0  2  0  0  0  0  0  0
  158.3340  212.8690  140.3540 C   0  0  0  0  0  0  0  0  0  0  0  0
  159.4520  210.7890  139.5740 N   0  0  0  0  0  0  0  0  0  0  0  0
  154.7060  211.6170  138.6900 C   0  0  0  0  0  3  0  0  0  0  0  0
  153.3120  209.9530  137.4560 C   0  0  0  0  0  1  0  0  0  0  0  0
  157.1750  213.6530  140.4280 C   0  0  0  0  0  3  0  0  0  0  0  0
  156.9530  209.9560  138.4810 C   0  0  0  0  0  3  0  0  0  0  0  0
  159.8010  212.7160  142.4440 C   0  0  1  0  0  3  0  0  0  0  0  0
  163.0810  210.7000  139.9670 C   0  0  0  0  0  2  0  0  0  0  0  0
  159.4720  214.1940  142.2810 C   0  0  0  0  0  2  0  0  0  0  0  0
  155.7290  209.5540  137.9380 C   0  0  0  0  0  3  0  0  0  0  0  0
  163.8310  211.4530  138.8860 C   0  0  0  0  0  2  0  0  0  0  0  0
  157.0600  211.1900  139.1370 C   0  0  0  0  0  0  0  0  0  0  0  0
  159.6020  213.3160  141.0530 C   0  0  1  0  0  0  0  0  0  0  0  0
  154.6080  210.3820  138.0430 C   0  0  0  0  0  0  0  0  0  0  0  0
  155.9230  212.0230  139.2430 C   0  0  0  0  0  0  0  0  0  0  0  0
  160.8710  212.7040  139.0820 C   0  0  1  0  0  3  0  0  0  0  0  0
  158.2820  211.6270  139.6750 C   0  0  0  0  0  0  0  0  0  0  0  0
  161.7500  210.3180  139.5150 N   0  0  0  0  0  2  0  0  0  0  0  0
  156.0110  213.2230  139.8740 N   0  0  0  0  0  0  0  0  0  0  0  0
  163.3920  212.9040  138.8460 C   0  0  0  0  0  2  0  0  0  0  0  0
  162.0410  213.0400  138.1620 C   0  0  0  0  0  2  0  0  0  0  0  0
  160.6590  211.2350  139.3800 C   0  0  0  0  0  0  0  0  0  0  0  0
  161.2680  212.5510  142.8150 C   0  0  0  0  0  2  0  0  0  0  0  0
  163.0690  213.3590  144.2560 C   0  0  0  0  0  2  0  0  0  0  0  0
  161.9820  212.9530  145.0540 O   0  0  0  0  0  0  0  0  0  0  0  0
  161.6710  213.5950  143.8380 C   0  0  2  0  0  3  0  0  0  0  0  0
  1 14  1  0  0  0  0
  2  6  1  0  0  0  0
  2 14  1  0  0  0  0
  3 18  1  0  0  0  0
  4 16  1  0  0  0  0
  5 15  1  0  0  0  0
  7 13  1  0  0  0  0
  8 24  1  6  0  0  0
 10  8  1  0  0  0  0
 11 15  1  0  0  0  0
 11  7  2  0  0  0  0
 12  9  1  0  0  0  0
 13 16  2  0  0  0  0
 13 18  1  0  0  0  0
 14 10  1  1  0  0  0
 14  8  1  0  0  0  0
 15  4  2  0  0  0  0
 16 20  1  0  0  0  0
 17 22  1  1  0  0  0
 17 23  1  0  0  0  0
 17  1  1  0  0  0  0
 18  2  2  0  0  0  0
 19  9  1  0  0  0  0
 20  6  2  0  0  0  0
 21 12  1  0  0  0  0
 22 21  1  0  0  0  0
 23 19  1  0  0  0  0
 23  3  2  0  0  0  0
 25 26  1  0  0  0  0
 27 24  1  6  0  0  0
 27 25  1  0  0  0  0
 27 26  1  0  0  0  0
M  END
>  <MODEL>
7

>  <REMARK>
 VINA RESULT:      -4.6     10.659     13.632
  Name = 
  2 active torsions:
  status: ('A' for Active; 'I' for Inactive)
    1  A    between atoms: C_9  and  C_27
    2  A    between atoms: C_25  and  C_27
                            x       y       z     vdW  Elec       q    Type
                         _______ _______ _______ _____ _____    ______ ____

>  <TORSDO>
F 2

$$$$
=
 OpenBabel11052423123D

 27 32  0  0  1  0  0  0  0  0999 V2000
  161.3290  210.9710  140.7410 N   0  0  0  0  0  2  0  0  0  0  0  0
  159.1920  210.7160  139.3050 C   0  0  0  0  0  0  0  0  0  0  0  0
  159.1210  213.1080  139.9820 N   0  0  0  0  0  0  0  0  0  0  0  0
  155.0610  210.7160  138.6460 C   0  0  0  0  0  3  0  0  0  0  0  0
  152.8430  211.8610  138.5980 C   0  0  0  0  0  1  0  0  0  0  0  0
  158.5100  209.5690  138.8790 C   0  0  0  0  0  3  0  0  0  0  0  0
  156.3120  213.0770  139.4900 C   0  0  0  0  0  3  0  0  0  0  0  0
  161.4500  211.2300  138.2170 C   0  0  1  0  0  3  0  0  0  0  0  0
  162.2170  214.4510  141.3770 C   0  0  0  0  0  2  0  0  0  0  0  0
  161.4880  209.7460  138.5610 C   0  0  0  0  0  2  0  0  0  0  0  0
  154.9340  213.0570  139.2580 C   0  0  0  0  0  3  0  0  0  0  0  0
  162.4370  214.0920  142.8340 C   0  0  0  0  0  2  0  0  0  0  0  0
  157.0760  211.9170  139.2970 C   0  0  0  0  0  0  0  0  0  0  0  0
  160.7020  210.6990  139.4380 C   0  0  1  0  0  0  0  0  0  0  0  0
  154.3100  211.8790  138.8350 C   0  0  0  0  0  0  0  0  0  0  0  0
  156.4410  210.7290  138.8680 C   0  0  0  0  0  0  0  0  0  0  0  0
  160.4990  211.8620  141.5540 C   0  0  1  0  0  3  0  0  0  0  0  0
  158.4590  211.9050  139.5420 C   0  0  0  0  0  0  0  0  0  0  0  0
  160.8070  214.3670  141.0210 N   0  0  0  0  0  2  0  0  0  0  0  0
  157.1660  209.5970  138.6780 N   0  0  0  0  0  0  0  0  0  0  0  0
  162.4450  212.5870  143.0160 C   0  0  0  0  0  2  0  0  0  0  0  0
  161.0310  212.0300  142.9740 C   0  0  0  0  0  2  0  0  0  0  0  0
  160.1020  213.1350  140.8370 C   0  0  0  0  0  0  0  0  0  0  0  0
  162.7810  211.8770  138.5700 C   0  0  0  0  0  2  0  0  0  0  0  0
  163.9790  213.9700  138.1780 C   0  0  0  0  0  2  0  0  0  0  0  0
  162.6050  214.1700  137.9420 O   0  0  0  0  0  0  0  0  0  0  0  0
  163.1430  212.9300  137.5410 C   0  0  2  0  0  3  0  0  0  0  0  0
  1 17  1  0  0  0  0
  2 14  1  0  0  0  0
  2 18  1  0  0  0  0
  3 23  2  0  0  0  0
  4 15  2  0  0  0  0
  4 16  1  0  0  0  0
  5 15  1  0  0  0  0
  6  2  2  0  0  0  0
  8 10  1  0  0  0  0
  8 24  1  1  0  0  0
  8 14  1  0  0  0  0
  9 12  1  0  0  0  0
 11  7  2  0  0  0  0
 12 21  1  0  0  0  0
 13  7  1  0  0  0  0
 13 18  2  0  0  0  0
 14 10  1  6  0  0  0
 14  1  1  0  0  0  0
 15 11  1  0  0  0  0
 16 13  1  0  0  0  0
 17 22  1  1  0  0  0
 18  3  1  0  0  0  0
 19  9  1  0  0  0  0
 20 16  2  0  0  0  0
 20  6  1  0  0  0  0
 22 21  1  0  0  0  0
 23 19  1  0  0  0  0
 23 17  1  0  0  0  0
 26 25  1  0  0  0  0
 27 26  1  0  0  0  0
 27 25  1  0  0  0  0
 27 24  1  1  0  0  0
M  END
>  <MODEL>
8

>  <REMARK>
 VINA RESULT:      -4.5     11.169     14.227
  Name = 
  2 active torsions:
  status: ('A' for Active; 'I' for Inactive)
    1  A    between atoms: C_9  and  C_27
    2  A    between atoms: C_25  and  C_27
                            x       y       z     vdW  Elec       q    Type
                         _______ _______ _______ _____ _____    ______ ____

>  <TORSDO>
F 2

$$$$
=
 OpenBabel11052423123D

 27 32  0  0  1  0  0  0  0  0999 V2000
  160.0050  211.8720  155.0440 N   0  0  0  0  0  2  0  0  0  0  0  0
  159.7790  212.6270  152.5790 C   0  0  0  0  0  0  0  0  0  0  0  0
  160.6310  210.3010  152.3680 N   0  0  0  0  0  0  0  0  0  0  0  0
  161.2240  213.5690  148.7690 C   0  0  0  0  0  3  0  0  0  0  0  0
  162.3760  212.9530  146.6410 C   0  0  0  0  0  1  0  0  0  0  0  0
  159.6320  213.9070  152.0260 C   0  0  0  0  0  3  0  0  0  0  0  0
  161.5730  210.9720  149.7610 C   0  0  0  0  0  3  0  0  0  0  0  0
  157.7820  211.6390  153.8370 C   0  0  1  0  0  3  0  0  0  0  0  0
  160.4580  208.2710  155.3980 C   0  0  0  0  0  2  0  0  0  0  0  0
  157.9190  213.0700  154.3430 C   0  0  0  0  0  2  0  0  0  0  0  0
  162.0430  211.3060  148.4880 C   0  0  0  0  0  3  0  0  0  0  0  0
  161.5810  208.5440  156.3820 C   0  0  0  0  0  2  0  0  0  0  0  0
  160.9210  211.9340  150.5460 C   0  0  0  0  0  0  0  0  0  0  0  0
  159.1550  212.3020  153.9220 C   0  0  1  0  0  0  0  0  0  0  0  0
  161.8680  212.6020  147.9920 C   0  0  0  0  0  0  0  0  0  0  0  0
  160.7440  213.2420  150.0390 C   0  0  0  0  0  0  0  0  0  0  0  0
  161.2020  211.1760  154.5670 C   0  0  1  0  0  3  0  0  0  0  0  0
  160.4570  211.6300  151.8360 C   0  0  0  0  0  0  0  0  0  0  0  0
  160.8300  208.6760  154.0500 N   0  0  0  0  0  2  0  0  0  0  0  0
  160.1160  214.1850  150.7880 N   0  0  0  0  0  0  0  0  0  0  0  0
  161.5890  210.0050  156.7870 C   0  0  0  0  0  2  0  0  0  0  0  0
  162.1900  210.8660  155.6870 C   0  0  0  0  0  2  0  0  0  0  0  0
  160.8960  210.0380  153.6150 C   0  0  0  0  0  0  0  0  0  0  0  0
  157.5000  210.7030  155.0040 C   0  0  0  0  0  2  0  0  0  0  0  0
  155.2060  209.9530  155.3860 C   0  0  0  0  0  2  0  0  0  0  0  0
  155.1860  211.1450  154.6360 O   0  0  0  0  0  0  0  0  0  0  0  0
  156.1690  211.0460  155.6420 C   0  0  2  0  0  3  0  0  0  0  0  0
  2 14  1  0  0  0  0
  3 23  2  0  0  0  0
  4 16  1  0  0  0  0
  5 15  1  0  0  0  0
  6  2  1  0  0  0  0
  7 13  1  0  0  0  0
  8 14  1  0  0  0  0
  8 10  1  0  0  0  0
  8 24  1  1  0  0  0
  9 12  1  0  0  0  0
 11  7  2  0  0  0  0
 12 21  1  0  0  0  0
 13 18  1  0  0  0  0
 14 10  1  1  0  0  0
 14  1  1  0  0  0  0
 15 11  1  0  0  0  0
 15  4  2  0  0  0  0
 16 13  2  0  0  0  0
 16 20  1  0  0  0  0
 17  1  1  0  0  0  0
 17 22  1  1  0  0  0
 18  3  1  0  0  0  0
 18  2  2  0  0  0  0
 19  9  1  0  0  0  0
 20  6  2  0  0  0  0
 22 21  1  0  0  0  0
 23 19  1  0  0  0  0
 23 17  1  0  0  0  0
 25 27  1  0  0  0  0
 26 25  1  0  0  0  0
 26 27  1  0  0  0  0
 27 24  1  6  0  0  0
M  END
>  <MODEL>
9

>  <REMARK>
 VINA RESULT:      -4.5      2.495      3.458
  Name = 
  2 active torsions:
  status: ('A' for Active; 'I' for Inactive)
    1  A    between atoms: C_9  and  C_27
    2  A    between atoms: C_25  and  C_27
                            x       y       z     vdW  Elec       q    Type
                         _______ _______ _______ _____ _____    ______ ____

>  <TORSDO>
F 2

$$$$
