=
 OpenBabel11052422523D

 28 31  0  0  1  0  0  0  0  0999 V2000
  160.8650  210.2870  152.8880 C   0  0  2  0  0  3  0  0  0  0  0  0
  161.5650  207.8870  156.3710 C   0  0  0  0  0  1  0  0  0  0  0  0
  160.8260  206.6740  151.3920 C   0  0  2  0  0  3  0  0  0  0  0  0
  161.3400  208.0270  153.9070 N   0  0  2  0  0  0  0  0  0  0  0  0
  161.1920  208.1570  151.4580 C   0  0  0  0  0  2  0  0  0  0  0  0
  161.5020  210.1000  155.2860 C   0  0  0  0  0  2  0  0  0  0  0  0
  160.8140  206.6580  153.8870 C   0  0  0  0  0  2  0  0  0  0  0  0
  160.9810  208.6560  155.1920 C   0  0  2  0  0  3  0  0  0  0  0  0
  161.3060  205.9300  152.6390 C   0  0  0  0  0  2  0  0  0  0  0  0
  161.8930  210.6900  153.9350 C   0  0  0  0  0  2  0  0  0  0  0  0
  160.7000  208.7480  152.7850 C   0  0  2  0  0  3  0  0  0  0  0  0
  161.6620  206.8200  149.0900 C   0  0  0  0  0  3  0  0  0  0  0  0
  160.7340  204.0190  148.8890 C   0  0  0  0  0  2  0  0  0  0  0  0
  162.2270  205.0530  147.2410 C   0  0  0  0  0  0  0  0  0  0  0  0
  161.3450  206.0390  150.1330 C   0  0  0  0  0  0  0  0  0  0  0  0
  161.0060  203.9560  151.2340 F   0  0  0  0  0  0  0  0  0  0  0  0
  161.6020  204.0210  147.7230 N   0  0  0  0  0  0  0  0  0  0  0  0
  161.4930  204.5500  150.0820 C   0  0  1  0  0  3  0  0  0  0  0  0
  163.0320  204.8760  146.0050 C   0  0  0  0  0  1  0  0  0  0  0  0
  162.1460  206.3710  147.8130 N   0  0  0  0  0  2  0  0  0  0  0  0
  161.0270  211.0260  151.5850 C   0  0  0  0  0  0  0  0  0  0  0  0
  161.9140  210.5580  150.6040 C   0  0  0  0  0  3  0  0  0  0  0  0
  160.3760  212.8390  150.1060 C   0  0  0  0  0  0  0  0  0  0  0  0
  162.0360  211.2300  149.3860 C   0  0  0  0  0  3  0  0  0  0  0  0
  159.3760  212.6250  152.2610 F   0  0  0  0  0  0  0  0  0  0  0  0
  160.2500  212.1680  151.3290 C   0  0  0  0  0  0  0  0  0  0  0  0
  159.6140  213.9720  149.8480 O   0  0  0  0  0  1  0  0  0  0  0  0
  161.2690  212.3700  149.1370 C   0  0  0  0  0  3  0  0  0  0  0  0
  1 21  1  6  0  0  0
  1 10  1  0  0  0  0
  3 15  1  6  0  0  0
  3  5  1  0  0  0  0
  3  9  1  0  0  0  0
  4  7  1  1  0  0  0
  4  8  1  0  0  0  0
  8  6  1  0  0  0  0
  8  2  1  1  0  0  0
  9  7  1  0  0  0  0
 10  6  1  0  0  0  0
 11  5  1  6  0  0  0
 11  1  1  0  0  0  0
 11  4  1  0  0  0  0
 12 15  2  0  0  0  0
 13 18  1  0  0  0  0
 14 17  2  0  0  0  0
 14 20  1  0  0  0  0
 17 13  1  0  0  0  0
 18 15  1  0  0  0  0
 18 16  1  1  0  0  0
 19 14  1  0  0  0  0
 20 12  1  0  0  0  0
 22 21  2  0  0  0  0
 23 26  2  0  0  0  0
 24 22  1  0  0  0  0
 26 21  1  0  0  0  0
 26 25  1  0  0  0  0
 27 23  1  0  0  0  0
 28 24  2  0  0  0  0
 28 23  1  0  0  0  0
M  END
>  <MODEL>
1

>  <REMARK>
 VINA RESULT:      -8.2      0.000      0.000
  Name = 
  2 active torsions:
  status: ('A' for Active; 'I' for Inactive)
    1  A    between atoms: C_1  and  C_2
    2  A    between atoms: C_10  and  C_13
                            x       y       z     vdW  Elec       q    Type
                         _______ _______ _______ _____ _____    ______ ____

>  <TORSDO>
F 2

$$$$
=
 OpenBabel11052422523D

 28 31  0  0  1  0  0  0  0  0999 V2000
  161.5980  210.0970  152.3460 C   0  0  2  0  0  3  0  0  0  0  0  0
  161.3860  211.9330  148.4780 C   0  0  0  0  0  1  0  0  0  0  0  0
  162.2520  207.0550  149.9790 C   0  0  2  0  0  3  0  0  0  0  0  0
  161.5450  209.8660  149.8330 N   0  0  2  0  0  0  0  0  0  0  0  0
  161.6320  207.7990  151.1600 C   0  0  0  0  0  2  0  0  0  0  0  0
  161.0400  212.0550  150.9150 C   0  0  0  0  0  2  0  0  0  0  0  0
  162.3050  209.2270  148.7520 C   0  0  0  0  0  2  0  0  0  0  0  0
  161.8070  211.3170  149.8060 C   0  0  2  0  0  3  0  0  0  0  0  0
  161.9310  207.7510  148.6550 C   0  0  0  0  0  2  0  0  0  0  0  0
  160.5310  211.1310  152.0170 C   0  0  0  0  0  2  0  0  0  0  0  0
  162.0310  209.2790  151.1010 C   0  0  2  0  0  3  0  0  0  0  0  0
  161.2540  205.1130  148.8610 C   0  0  0  0  0  3  0  0  0  0  0  0
  160.7830  204.1410  151.6140 C   0  0  0  0  0  2  0  0  0  0  0  0
  160.6000  202.6990  149.6390 C   0  0  0  0  0  0  0  0  0  0  0  0
  161.8360  205.6120  149.9610 C   0  0  0  0  0  0  0  0  0  0  0  0
  162.5950  205.5300  152.2160 F   0  0  0  0  0  0  0  0  0  0  0  0
  160.6050  202.8730  150.9270 N   0  0  0  0  0  0  0  0  0  0  0  0
  162.0840  204.7730  151.1760 C   0  0  1  0  0  3  0  0  0  0  0  0
  160.3500  201.3320  149.1130 C   0  0  0  0  0  1  0  0  0  0  0  0
  160.7780  203.7670  148.6910 N   0  0  0  0  0  2  0  0  0  0  0  0
  161.2880  209.3030  153.5880 C   0  0  0  0  0  0  0  0  0  0  0  0
  160.7440  208.0130  153.4950 C   0  0  0  0  0  3  0  0  0  0  0  0
  161.3310  209.0890  156.0070 C   0  0  0  0  0  0  0  0  0  0  0  0
  160.4890  207.2700  154.6490 C   0  0  0  0  0  3  0  0  0  0  0  0
  162.1300  211.0780  154.9590 F   0  0  0  0  0  0  0  0  0  0  0  0
  161.5890  209.8380  154.8510 C   0  0  0  0  0  0  0  0  0  0  0  0
  161.6220  209.6140  157.2600 O   0  0  0  0  0  1  0  0  0  0  0  0
  160.7810  207.8080  155.9040 C   0  0  0  0  0  3  0  0  0  0  0  0
  1 21  1  1  0  0  0
  3 15  1  6  0  0  0
  3  5  1  0  0  0  0
  4  7  1  6  0  0  0
  4 11  1  0  0  0  0
  6 10  1  0  0  0  0
  8  2  1  6  0  0  0
  8  4  1  0  0  0  0
  8  6  1  0  0  0  0
  9  7  1  0  0  0  0
  9  3  1  0  0  0  0
 10  1  1  0  0  0  0
 11  5  1  1  0  0  0
 11  1  1  0  0  0  0
 12 15  2  0  0  0  0
 14 17  2  0  0  0  0
 15 18  1  0  0  0  0
 17 13  1  0  0  0  0
 18 13  1  0  0  0  0
 18 16  1  1  0  0  0
 19 14  1  0  0  0  0
 20 12  1  0  0  0  0
 20 14  1  0  0  0  0
 21 26  1  0  0  0  0
 22 21  2  0  0  0  0
 22 24  1  0  0  0  0
 23 27  1  0  0  0  0
 24 28  2  0  0  0  0
 26 25  1  0  0  0  0
 26 23  2  0  0  0  0
 28 23  1  0  0  0  0
M  END
>  <MODEL>
2

>  <REMARK>
 VINA RESULT:      -8.0      2.463      4.683
  Name = 
  2 active torsions:
  status: ('A' for Active; 'I' for Inactive)
    1  A    between atoms: C_1  and  C_2
    2  A    between atoms: C_10  and  C_13
                            x       y       z     vdW  Elec       q    Type
                         _______ _______ _______ _____ _____    ______ ____

>  <TORSDO>
F 2

$$$$
=
 OpenBabel11052422523D

 28 31  0  0  1  0  0  0  0  0999 V2000
  161.9730  206.4070  149.3810 C   0  0  2  0  0  3  0  0  0  0  0  0
  161.1250  207.5800  153.4170 C   0  0  0  0  0  1  0  0  0  0  0  0
  162.2860  210.2990  149.1660 C   0  0  2  0  0  3  0  0  0  0  0  0
  161.5260  208.2370  151.0620 N   0  0  2  0  0  0  0  0  0  0  0  0
  161.8500  208.9040  148.7190 C   0  0  0  0  0  2  0  0  0  0  0  0
  161.1680  205.8440  151.6680 C   0  0  0  0  0  2  0  0  0  0  0  0
  162.1140  209.4990  151.5240 C   0  0  0  0  0  2  0  0  0  0  0  0
  161.7600  207.2000  152.0840 C   0  0  2  0  0  3  0  0  0  0  0  0
  161.7490  210.6260  150.5610 C   0  0  0  0  0  2  0  0  0  0  0  0
  160.8530  205.7540  150.1780 C   0  0  0  0  0  2  0  0  0  0  0  0
  162.2140  207.8810  149.8020 C   0  0  2  0  0  3  0  0  0  0  0  0
  160.7410  211.2010  147.4880 C   0  0  0  0  0  3  0  0  0  0  0  0
  163.1330  212.6130  146.4730 C   0  0  0  0  0  2  0  0  0  0  0  0
  160.8500  213.1970  145.7960 C   0  0  0  0  0  0  0  0  0  0  0  0
  161.8920  211.3440  148.1620 C   0  0  0  0  0  0  0  0  0  0  0  0
  163.9680  212.3900  148.6710 F   0  0  0  0  0  0  0  0  0  0  0  0
  162.1300  213.4200  145.8000 N   0  0  0  0  0  0  0  0  0  0  0  0
  162.7980  212.5160  147.9430 C   0  0  1  0  0  3  0  0  0  0  0  0
  159.9790  214.1040  145.0060 C   0  0  0  0  0  1  0  0  0  0  0  0
  160.2330  212.0920  146.4820 N   0  0  0  0  0  2  0  0  0  0  0  0
  161.8740  206.1470  147.9010 C   0  0  0  0  0  0  0  0  0  0  0  0
  163.0040  205.7510  147.1680 C   0  0  0  0  0  3  0  0  0  0  0  0
  160.5310  205.9840  145.8840 C   0  0  0  0  0  0  0  0  0  0  0  0
  162.8980  205.4810  145.8020 C   0  0  0  0  0  3  0  0  0  0  0  0
  159.5270  206.6210  147.9520 F   0  0  0  0  0  0  0  0  0  0  0  0
  160.6320  206.2550  147.2550 C   0  0  0  0  0  0  0  0  0  0  0  0
  159.3060  206.0930  145.2380 O   0  0  0  0  0  1  0  0  0  0  0  0
  161.6630  205.5980  145.1600 C   0  0  0  0  0  3  0  0  0  0  0  0
  1 21  1  6  0  0  0
  1 11  1  0  0  0  0
  1 10  1  0  0  0  0
  3 15  1  6  0  0  0
  3  9  1  0  0  0  0
  4  7  1  1  0  0  0
  4  8  1  0  0  0  0
  5  3  1  0  0  0  0
  6  8  1  0  0  0  0
  8  2  1  1  0  0  0
  9  7  1  0  0  0  0
 10  6  1  0  0  0  0
 11  5  1  6  0  0  0
 11  4  1  0  0  0  0
 12 15  2  0  0  0  0
 13 18  1  0  0  0  0
 14 17  2  0  0  0  0
 14 20  1  0  0  0  0
 17 13  1  0  0  0  0
 18 15  1  0  0  0  0
 18 16  1  1  0  0  0
 19 14  1  0  0  0  0
 20 12  1  0  0  0  0
 22 21  2  0  0  0  0
 23 26  2  0  0  0  0
 24 22  1  0  0  0  0
 26 21  1  0  0  0  0
 26 25  1  0  0  0  0
 27 23  1  0  0  0  0
 28 24  2  0  0  0  0
 28 23  1  0  0  0  0
M  END
>  <MODEL>
3

>  <REMARK>
 VINA RESULT:      -7.9      3.388      6.659
  Name = 
  2 active torsions:
  status: ('A' for Active; 'I' for Inactive)
    1  A    between atoms: C_1  and  C_2
    2  A    between atoms: C_10  and  C_13
                            x       y       z     vdW  Elec       q    Type
                         _______ _______ _______ _____ _____    ______ ____

>  <TORSDO>
F 2

$$$$
=
 OpenBabel11052422523D

 28 31  0  0  1  0  0  0  0  0999 V2000
  161.4990  209.7260  152.2670 C   0  0  2  0  0  3  0  0  0  0  0  0
  161.5840  212.0530  148.6670 C   0  0  0  0  0  1  0  0  0  0  0  0
  161.9540  206.9630  149.5370 C   0  0  2  0  0  3  0  0  0  0  0  0
  161.5090  209.8240  149.7440 N   0  0  2  0  0  0  0  0  0  0  0  0
  161.3640  207.6060  150.7920 C   0  0  0  0  0  2  0  0  0  0  0  0
  161.1690  211.8940  151.0910 C   0  0  0  0  0  2  0  0  0  0  0  0
  162.2440  209.2600  148.6060 C   0  0  0  0  0  2  0  0  0  0  0  0
  161.9020  211.2350  149.9120 C   0  0  2  0  0  3  0  0  0  0  0  0
  161.7410  207.8500  148.3090 C   0  0  0  0  0  2  0  0  0  0  0  0
  160.5420  210.8890  152.0520 C   0  0  0  0  0  2  0  0  0  0  0  0
  161.8970  209.0360  150.9350 C   0  0  2  0  0  3  0  0  0  0  0  0
  161.1660  204.8010  150.3880 C   0  0  0  0  0  3  0  0  0  0  0  0
  161.8870  203.8120  147.6950 C   0  0  0  0  0  2  0  0  0  0  0  0
  160.5000  202.5320  149.2620 C   0  0  0  0  0  0  0  0  0  0  0  0
  161.4090  205.5800  149.3230 C   0  0  0  0  0  0  0  0  0  0  0  0
  161.5750  206.0460  146.9950 F   0  0  0  0  0  0  0  0  0  0  0  0
  161.0390  202.7000  148.0910 N   0  0  0  0  0  0  0  0  0  0  0  0
  161.1510  205.1120  147.9240 C   0  0  1  0  0  3  0  0  0  0  0  0
  159.7030  201.3020  149.5010 C   0  0  0  0  0  1  0  0  0  0  0  0
  160.6700  203.4530  150.3550 N   0  0  0  0  0  2  0  0  0  0  0  0
  161.0770  208.8120  153.3870 C   0  0  0  0  0  0  0  0  0  0  0  0
  161.0530  207.4210  153.2050 C   0  0  0  0  0  3  0  0  0  0  0  0
  160.3860  208.5030  155.6950 C   0  0  0  0  0  0  0  0  0  0  0  0
  160.6910  206.5780  154.2580 C   0  0  0  0  0  3  0  0  0  0  0  0
  160.7820  210.6950  154.8400 F   0  0  0  0  0  0  0  0  0  0  0  0
  160.7480  209.3520  154.6410 C   0  0  0  0  0  0  0  0  0  0  0  0
  160.0560  209.0310  156.9370 O   0  0  0  0  0  1  0  0  0  0  0  0
  160.3570  207.1190  155.5010 C   0  0  0  0  0  3  0  0  0  0  0  0
  1 21  1  1  0  0  0
  3 15  1  6  0  0  0
  3  5  1  0  0  0  0
  4  7  1  6  0  0  0
  4  8  1  0  0  0  0
  4 11  1  0  0  0  0
  6 10  1  0  0  0  0
  8  2  1  6  0  0  0
  8  6  1  0  0  0  0
  9  7  1  0  0  0  0
  9  3  1  0  0  0  0
 10  1  1  0  0  0  0
 11  5  1  6  0  0  0
 11  1  1  0  0  0  0
 13 18  1  0  0  0  0
 13 17  1  0  0  0  0
 14 19  1  0  0  0  0
 14 20  1  0  0  0  0
 15 12  2  0  0  0  0
 17 14  2  0  0  0  0
 18 16  1  6  0  0  0
 18 15  1  0  0  0  0
 20 12  1  0  0  0  0
 21 26  1  0  0  0  0
 22 21  2  0  0  0  0
 22 24  1  0  0  0  0
 23 27  1  0  0  0  0
 24 28  2  0  0  0  0
 26 25  1  0  0  0  0
 26 23  2  0  0  0  0
 28 23  1  0  0  0  0
M  END
>  <MODEL>
4

>  <REMARK>
 VINA RESULT:      -7.8      2.524      4.759
  Name = 
  2 active torsions:
  status: ('A' for Active; 'I' for Inactive)
    1  A    between atoms: C_1  and  C_2
    2  A    between atoms: C_10  and  C_13
                            x       y       z     vdW  Elec       q    Type
                         _______ _______ _______ _____ _____    ______ ____

>  <TORSDO>
F 2

$$$$
=
 OpenBabel11052422523D

 28 31  0  0  1  0  0  0  0  0999 V2000
  160.9100  211.6640  151.9560 C   0  0  2  0  0  3  0  0  0  0  0  0
  161.1520  212.8740  147.8500 C   0  0  0  0  0  1  0  0  0  0  0  0
  162.1240  208.3750  150.2220 C   0  0  2  0  0  3  0  0  0  0  0  0
  161.2510  211.0550  149.5300 N   0  0  2  0  0  0  0  0  0  0  0  0
  161.2820  209.2270  151.1720 C   0  0  0  0  0  2  0  0  0  0  0  0
  160.4370  213.3250  150.1650 C   0  0  0  0  0  2  0  0  0  0  0  0
  162.2070  210.3360  148.6800 C   0  0  0  0  0  2  0  0  0  0  0  0
  161.4110  212.5040  149.3060 C   0  0  2  0  0  3  0  0  0  0  0  0
  161.9560  208.8340  148.7720 C   0  0  0  0  0  2  0  0  0  0  0  0
  159.8340  212.5330  151.3210 C   0  0  0  0  0  2  0  0  0  0  0  0
  161.5810  210.7120  150.9300 C   0  0  2  0  0  3  0  0  0  0  0  0
  161.2130  206.2600  149.3760 C   0  0  0  0  0  3  0  0  0  0  0  0
  160.9720  205.5600  152.2400 C   0  0  0  0  0  2  0  0  0  0  0  0
  160.7870  203.9050  150.4400 C   0  0  0  0  0  0  0  0  0  0  0  0
  161.8160  206.9140  150.3800 C   0  0  0  0  0  0  0  0  0  0  0  0
  162.7060  207.1280  152.5780 F   0  0  0  0  0  0  0  0  0  0  0  0
  160.8510  204.2160  151.7000 N   0  0  0  0  0  0  0  0  0  0  0  0
  162.1950  206.2290  151.6570 C   0  0  1  0  0  3  0  0  0  0  0  0
  160.6120  202.4760  150.0750 C   0  0  0  0  0  1  0  0  0  0  0  0
  160.8310  204.8750  149.3770 N   0  0  0  0  0  2  0  0  0  0  0  0
  160.4740  211.0380  153.2550 C   0  0  0  0  0  0  0  0  0  0  0  0
  159.1150  210.9770  153.5990 C   0  0  0  0  0  3  0  0  0  0  0  0
  161.0260  209.8590  155.3060 C   0  0  0  0  0  0  0  0  0  0  0  0
  158.7160  210.3670  154.7900 C   0  0  0  0  0  3  0  0  0  0  0  0
  162.7490  210.5060  153.7870 F   0  0  0  0  0  0  0  0  0  0  0  0
  161.4310  210.4690  154.1110 C   0  0  0  0  0  0  0  0  0  0  0  0
  161.9680  209.2980  156.1590 O   0  0  0  0  0  1  0  0  0  0  0  0
  159.6700  209.8100  155.6430 C   0  0  0  0  0  3  0  0  0  0  0  0
  1 21  1  1  0  0  0
  3 15  1  6  0  0  0
  3  5  1  0  0  0  0
  4  7  1  6  0  0  0
  4 11  1  0  0  0  0
  6 10  1  0  0  0  0
  7  9  1  0  0  0  0
  8  2  1  6  0  0  0
  8  4  1  0  0  0  0
  8  6  1  0  0  0  0
  9  3  1  0  0  0  0
 10  1  1  0  0  0  0
 11  5  1  1  0  0  0
 11  1  1  0  0  0  0
 12 20  1  0  0  0  0
 12 15  2  0  0  0  0
 14 17  2  0  0  0  0
 15 18  1  0  0  0  0
 17 13  1  0  0  0  0
 18 13  1  0  0  0  0
 18 16  1  1  0  0  0
 19 14  1  0  0  0  0
 20 14  1  0  0  0  0
 21 22  2  0  0  0  0
 21 26  1  0  0  0  0
 22 24  1  0  0  0  0
 23 28  1  0  0  0  0
 23 27  1  0  0  0  0
 24 28  2  0  0  0  0
 25 26  1  0  0  0  0
 26 23  2  0  0  0  0
M  END
>  <MODEL>
5

>  <REMARK>
 VINA RESULT:      -7.6      2.567      4.851
  Name = 
  2 active torsions:
  status: ('A' for Active; 'I' for Inactive)
    1  A    between atoms: C_1  and  C_2
    2  A    between atoms: C_10  and  C_13
                            x       y       z     vdW  Elec       q    Type
                         _______ _______ _______ _____ _____    ______ ____

>  <TORSDO>
F 2

$$$$
=
 OpenBabel11052422523D

 28 31  0  0  1  0  0  0  0  0999 V2000
  160.1570  210.8140  154.1210 C   0  0  2  0  0  3  0  0  0  0  0  0
  162.0550  208.5950  157.2610 C   0  0  0  0  0  1  0  0  0  0  0  0
  160.6970  207.3310  152.4270 C   0  0  2  0  0  3  0  0  0  0  0  0
  161.3410  208.7220  154.8920 N   0  0  2  0  0  0  0  0  0  0  0  0
  160.7050  208.8560  152.5220 C   0  0  0  0  0  2  0  0  0  0  0  0
  161.2630  210.7440  156.3490 C   0  0  0  0  0  2  0  0  0  0  0  0
  161.1610  207.2650  154.8780 C   0  0  0  0  0  2  0  0  0  0  0  0
  161.0920  209.2190  156.2570 C   0  0  2  0  0  3  0  0  0  0  0  0
  161.5670  206.7040  153.5180 C   0  0  0  0  0  2  0  0  0  0  0  0
  161.2390  211.4370  154.9910 C   0  0  0  0  0  2  0  0  0  0  0  0
  160.3470  209.2840  153.9510 C   0  0  2  0  0  3  0  0  0  0  0  0
  161.2730  207.7730  150.0840 C   0  0  0  0  0  3  0  0  0  0  0  0
  160.4490  204.9640  149.6590 C   0  0  0  0  0  2  0  0  0  0  0  0
  161.7110  206.2520  147.9970 C   0  0  0  0  0  0  0  0  0  0  0  0
  161.1040  206.8660  151.0580 C   0  0  0  0  0  0  0  0  0  0  0  0
  160.9730  204.6600  151.9420 F   0  0  0  0  0  0  0  0  0  0  0  0
  161.1860  205.1400  148.4190 N   0  0  0  0  0  0  0  0  0  0  0  0
  161.3080  205.4020  150.8220 C   0  0  1  0  0  3  0  0  0  0  0  0
  162.3850  206.2550  146.6730 C   0  0  0  0  0  1  0  0  0  0  0  0
  161.6360  207.4930  148.7210 N   0  0  0  0  0  2  0  0  0  0  0  0
  159.8900  211.5940  152.8610 C   0  0  0  0  0  0  0  0  0  0  0  0
  160.8420  211.6390  151.8310 C   0  0  0  0  0  3  0  0  0  0  0  0
  158.3920  212.9460  151.5080 C   0  0  0  0  0  0  0  0  0  0  0  0
  160.5740  212.3380  150.6530 C   0  0  0  0  0  3  0  0  0  0  0  0
  157.7180  212.2000  153.6720 F   0  0  0  0  0  0  0  0  0  0  0  0
  158.6570  212.2460  152.6920 C   0  0  0  0  0  0  0  0  0  0  0  0
  157.1760  213.5970  151.3370 O   0  0  0  0  0  1  0  0  0  0  0  0
  159.3510  212.9920  150.4920 C   0  0  0  0  0  3  0  0  0  0  0  0
  1 21  1  6  0  0  0
  1 10  1  0  0  0  0
  3 15  1  6  0  0  0
  3  5  1  0  0  0  0
  3  9  1  0  0  0  0
  4  7  1  1  0  0  0
  4  8  1  0  0  0  0
  8  6  1  0  0  0  0
  8  2  1  1  0  0  0
  9  7  1  0  0  0  0
 10  6  1  0  0  0  0
 11  5  1  6  0  0  0
 11  1  1  0  0  0  0
 11  4  1  0  0  0  0
 12 15  2  0  0  0  0
 13 18  1  0  0  0  0
 14 17  2  0  0  0  0
 14 20  1  0  0  0  0
 17 13  1  0  0  0  0
 18 15  1  0  0  0  0
 18 16  1  1  0  0  0
 19 14  1  0  0  0  0
 20 12  1  0  0  0  0
 22 21  2  0  0  0  0
 23 26  2  0  0  0  0
 24 22  1  0  0  0  0
 26 21  1  0  0  0  0
 26 25  1  0  0  0  0
 27 23  1  0  0  0  0
 28 24  2  0  0  0  0
 28 23  1  0  0  0  0
M  END
>  <MODEL>
6

>  <REMARK>
 VINA RESULT:      -7.5      1.416      1.656
  Name = 
  2 active torsions:
  status: ('A' for Active; 'I' for Inactive)
    1  A    between atoms: C_1  and  C_2
    2  A    between atoms: C_10  and  C_13
                            x       y       z     vdW  Elec       q    Type
                         _______ _______ _______ _____ _____    ______ ____

>  <TORSDO>
F 2

$$$$
=
 OpenBabel11052422523D

 28 31  0  0  1  0  0  0  0  0999 V2000
  161.4290  205.0420  149.6550 C   0  0  2  0  0  3  0  0  0  0  0  0
  160.8140  204.9550  153.8970 C   0  0  0  0  0  1  0  0  0  0  0  0
  162.2220  208.7380  150.6560 C   0  0  2  0  0  3  0  0  0  0  0  0
  161.2470  206.2790  151.8480 N   0  0  2  0  0  0  0  0  0  0  0  0
  161.6070  207.6170  149.8190 C   0  0  0  0  0  2  0  0  0  0  0  0
  160.6050  203.8740  151.6920 C   0  0  0  0  0  2  0  0  0  0  0  0
  161.9970  207.2540  152.6490 C   0  0  0  0  0  2  0  0  0  0  0  0
  161.3700  204.9510  152.4780 C   0  0  2  0  0  3  0  0  0  0  0  0
  161.7580  208.6620  152.1110 C   0  0  0  0  0  2  0  0  0  0  0  0
  160.2520  204.2990  150.2710 C   0  0  0  0  0  2  0  0  0  0  0  0
  161.8610  206.2680  150.5020 C   0  0  2  0  0  3  0  0  0  0  0  0
  161.2990  211.0070  150.7870 C   0  0  0  0  0  3  0  0  0  0  0  0
  161.2070  210.8230  147.8370 C   0  0  0  0  0  2  0  0  0  0  0  0
  160.9550  212.9390  149.0520 C   0  0  0  0  0  0  0  0  0  0  0  0
  161.9420  210.0860  150.0540 C   0  0  0  0  0  0  0  0  0  0  0  0
  162.9340  209.2300  148.0680 F   0  0  0  0  0  0  0  0  0  0  0  0
  161.0770  212.2670  147.9460 N   0  0  0  0  0  0  0  0  0  0  0  0
  162.3910  210.3610  148.6530 C   0  0  1  0  0  3  0  0  0  0  0  0
  160.7810  214.4110  148.9660 C   0  0  0  0  0  1  0  0  0  0  0  0
  160.9350  212.3290  150.3550 N   0  0  0  0  0  2  0  0  0  0  0  0
  161.2710  205.2800  148.1770 C   0  0  0  0  0  0  0  0  0  0  0  0
  160.5680  206.3990  147.7030 C   0  0  0  0  0  3  0  0  0  0  0  0
  161.7500  204.6350  145.8840 C   0  0  0  0  0  0  0  0  0  0  0  0
  160.4520  206.6300  146.3310 C   0  0  0  0  0  3  0  0  0  0  0  0
  162.5660  203.3210  147.7010 F   0  0  0  0  0  0  0  0  0  0  0  0
  161.8690  204.4000  147.2600 C   0  0  0  0  0  0  0  0  0  0  0  0
  162.3370  203.7670  144.9720 O   0  0  0  0  0  1  0  0  0  0  0  0
  161.0410  205.7490  145.4220 C   0  0  0  0  0  3  0  0  0  0  0  0
  1 21  1  6  0  0  0
  1 10  1  0  0  0  0
  1 11  1  0  0  0  0
  3 15  1  6  0  0  0
  3  9  1  0  0  0  0
  4  8  1  0  0  0  0
  4  7  1  1  0  0  0
  5  3  1  0  0  0  0
  6  8  1  0  0  0  0
  8  2  1  1  0  0  0
  9  7  1  0  0  0  0
 10  6  1  0  0  0  0
 11  5  1  6  0  0  0
 11  4  1  0  0  0  0
 13 17  1  0  0  0  0
 13 18  1  0  0  0  0
 14 20  1  0  0  0  0
 15 12  2  0  0  0  0
 17 14  2  0  0  0  0
 18 16  1  6  0  0  0
 18 15  1  0  0  0  0
 19 14  1  0  0  0  0
 20 12  1  0  0  0  0
 22 21  1  0  0  0  0
 23 26  1  0  0  0  0
 24 22  2  0  0  0  0
 26 25  1  0  0  0  0
 26 21  2  0  0  0  0
 27 23  1  0  0  0  0
 28 23  2  0  0  0  0
 28 24  1  0  0  0  0
M  END
>  <MODEL>
7

>  <REMARK>
 VINA RESULT:      -7.1      3.340      6.693
  Name = 
  2 active torsions:
  status: ('A' for Active; 'I' for Inactive)
    1  A    between atoms: C_1  and  C_2
    2  A    between atoms: C_10  and  C_13
                            x       y       z     vdW  Elec       q    Type
                         _______ _______ _______ _____ _____    ______ ____

>  <TORSDO>
F 2

$$$$
=
 OpenBabel11052422523D

 28 31  0  0  1  0  0  0  0  0999 V2000
  161.5660  207.5480  153.1170 C   0  0  2  0  0  3  0  0  0  0  0  0
  160.7440  208.6250  157.1840 C   0  0  0  0  0  1  0  0  0  0  0  0
  160.4580  211.2800  152.7480 C   0  0  2  0  0  3  0  0  0  0  0  0
  160.6610  209.2170  154.7800 N   0  0  2  0  0  0  0  0  0  0  0  0
  160.5050  209.7940  152.3960 C   0  0  0  0  0  2  0  0  0  0  0  0
  161.2330  206.8980  155.4950 C   0  0  0  0  0  2  0  0  0  0  0  0
  160.8040  210.6340  155.1340 C   0  0  0  0  0  2  0  0  0  0  0  0
  161.3430  208.4010  155.8010 C   0  0  2  0  0  3  0  0  0  0  0  0
  159.9750  211.4940  154.1840 C   0  0  0  0  0  2  0  0  0  0  0  0
  160.8310  206.6020  154.0540 C   0  0  0  0  0  2  0  0  0  0  0  0
  161.3080  209.0380  153.4620 C   0  0  2  0  0  3  0  0  0  0  0  0
  160.2160  212.5700  150.6760 C   0  0  0  0  0  3  0  0  0  0  0  0
  157.8150  213.6830  151.9970 C   0  0  0  0  0  2  0  0  0  0  0  0
  158.2590  213.9380  149.5990 C   0  0  0  0  0  0  0  0  0  0  0  0
  159.6260  212.0500  151.7630 C   0  0  0  0  0  0  0  0  0  0  0  0
  157.8070  211.6820  153.2520 F   0  0  0  0  0  0  0  0  0  0  0  0
  157.4900  214.0800  150.6370 N   0  0  0  0  0  0  0  0  0  0  0  0
  158.1610  212.2130  152.0240 C   0  0  1  0  0  3  0  0  0  0  0  0
  157.7790  214.4530  148.2910 C   0  0  0  0  0  1  0  0  0  0  0  0
  159.5710  213.3490  149.6540 N   0  0  0  0  0  2  0  0  0  0  0  0
  161.4270  207.1690  151.6660 C   0  0  0  0  0  0  0  0  0  0  0  0
  160.6870  206.0380  151.2890 C   0  0  0  0  0  3  0  0  0  0  0  0
  161.8510  207.6470  149.3220 C   0  0  0  0  0  0  0  0  0  0  0  0
  160.5350  205.7110  149.9410 C   0  0  0  0  0  3  0  0  0  0  0  0
  162.7120  209.0860  151.0200 F   0  0  0  0  0  0  0  0  0  0  0  0
  162.0050  207.9790  150.6750 C   0  0  0  0  0  0  0  0  0  0  0  0
  162.4240  208.4420  148.3370 O   0  0  0  0  0  1  0  0  0  0  0  0
  161.1180  206.5140  148.9580 C   0  0  0  0  0  3  0  0  0  0  0  0
  1 21  1  6  0  0  0
  1 11  1  0  0  0  0
  1 10  1  0  0  0  0
  3 15  1  6  0  0  0
  3  9  1  0  0  0  0
  4  7  1  1  0  0  0
  4  8  1  0  0  0  0
  5  3  1  0  0  0  0
  6  8  1  0  0  0  0
  8  2  1  1  0  0  0
  9  7  1  0  0  0  0
 10  6  1  0  0  0  0
 11  5  1  6  0  0  0
 11  4  1  0  0  0  0
 12 15  2  0  0  0  0
 13 18  1  0  0  0  0
 14 20  1  0  0  0  0
 14 17  2  0  0  0  0
 15 18  1  0  0  0  0
 17 13  1  0  0  0  0
 18 16  1  1  0  0  0
 19 14  1  0  0  0  0
 20 12  1  0  0  0  0
 22 21  1  0  0  0  0
 23 26  1  0  0  0  0
 24 22  2  0  0  0  0
 26 25  1  0  0  0  0
 26 21  2  0  0  0  0
 27 23  1  0  0  0  0
 28 23  2  0  0  0  0
 28 24  1  0  0  0  0
M  END
>  <MODEL>
8

>  <REMARK>
 VINA RESULT:      -7.1      3.111      6.246
  Name = 
  2 active torsions:
  status: ('A' for Active; 'I' for Inactive)
    1  A    between atoms: C_1  and  C_2
    2  A    between atoms: C_10  and  C_13
                            x       y       z     vdW  Elec       q    Type
                         _______ _______ _______ _____ _____    ______ ____

>  <TORSDO>
F 2

$$$$
=
 OpenBabel11052422523D

 28 31  0  0  1  0  0  0  0  0999 V2000
  161.2290  203.2870  148.0680 C   0  0  2  0  0  3  0  0  0  0  0  0
  160.3640  200.2150  150.9310 C   0  0  0  0  0  1  0  0  0  0  0  0
  161.9000  205.1320  151.4500 C   0  0  2  0  0  3  0  0  0  0  0  0
  160.8970  202.5900  150.4720 N   0  0  2  0  0  0  0  0  0  0  0  0
  161.3540  204.9650  150.0330 C   0  0  0  0  0  2  0  0  0  0  0  0
  160.3050  201.0410  148.6090 C   0  0  0  0  0  2  0  0  0  0  0  0
  161.5820  202.6770  151.7660 C   0  0  0  0  0  2  0  0  0  0  0  0
  161.0040  201.2090  149.9680 C   0  0  2  0  0  3  0  0  0  0  0  0
  161.3520  204.0530  152.3860 C   0  0  0  0  0  2  0  0  0  0  0  0
  160.0300  202.3650  147.9040 C   0  0  0  0  0  2  0  0  0  0  0  0
  161.5890  203.5260  149.5580 C   0  0  2  0  0  3  0  0  0  0  0  0
  160.8310  206.6600  153.0440 C   0  0  0  0  0  3  0  0  0  0  0  0
  161.2060  208.6750  150.9110 C   0  0  0  0  0  2  0  0  0  0  0  0
  160.6420  209.2660  153.2230 C   0  0  0  0  0  0  0  0  0  0  0  0
  161.6340  206.5120  151.9800 C   0  0  0  0  0  0  0  0  0  0  0  0
  162.9720  207.2910  150.1720 F   0  0  0  0  0  0  0  0  0  0  0  0
  160.9740  209.5960  152.0110 N   0  0  0  0  0  0  0  0  0  0  0  0
  162.2760  207.6830  151.3030 C   0  0  1  0  0  3  0  0  0  0  0  0
  160.3930  210.3520  154.2060 C   0  0  0  0  0  1  0  0  0  0  0  0
  160.4580  207.9060  153.6560 N   0  0  0  0  0  2  0  0  0  0  0  0
  161.1540  204.5150  147.1990 C   0  0  0  0  0  0  0  0  0  0  0  0
  160.8960  205.7750  147.7610 C   0  0  0  0  0  3  0  0  0  0  0  0
  161.3520  205.5530  145.0110 C   0  0  0  0  0  0  0  0  0  0  0  0
  160.8590  206.9130  146.9530 C   0  0  0  0  0  3  0  0  0  0  0  0
  161.6570  203.2000  145.2610 F   0  0  0  0  0  0  0  0  0  0  0  0
  161.3900  204.4080  145.8190 C   0  0  0  0  0  0  0  0  0  0  0  0
  161.5810  205.4530  143.6450 O   0  0  0  0  0  1  0  0  0  0  0  0
  161.0860  206.8020  145.5800 C   0  0  0  0  0  3  0  0  0  0  0  0
  1 21  1  1  0  0  0
  1 11  1  0  0  0  0
  3 15  1  1  0  0  0
  3  9  1  0  0  0  0
  4  7  1  1  0  0  0
  5  3  1  0  0  0  0
  6  8  1  0  0  0  0
  7  9  1  0  0  0  0
  8  4  1  0  0  0  0
  8  2  1  1  0  0  0
 10  1  1  0  0  0  0
 10  6  1  0  0  0  0
 11  5  1  1  0  0  0
 11  4  1  0  0  0  0
 12 20  1  0  0  0  0
 13 18  1  0  0  0  0
 13 17  1  0  0  0  0
 14 20  1  0  0  0  0
 14 19  1  0  0  0  0
 15 12  2  0  0  0  0
 17 14  2  0  0  0  0
 18 16  1  6  0  0  0
 18 15  1  0  0  0  0
 21 22  1  0  0  0  0
 23 28  2  0  0  0  0
 23 26  1  0  0  0  0
 24 22  2  0  0  0  0
 25 26  1  0  0  0  0
 26 21  2  0  0  0  0
 27 23  1  0  0  0  0
 28 24  1  0  0  0  0
M  END
>  <MODEL>
9

>  <REMARK>
 VINA RESULT:      -7.1      3.349      7.366
  Name = 
  2 active torsions:
  status: ('A' for Active; 'I' for Inactive)
    1  A    between atoms: C_1  and  C_2
    2  A    between atoms: C_10  and  C_13
                            x       y       z     vdW  Elec       q    Type
                         _______ _______ _______ _____ _____    ______ ____

>  <TORSDO>
F 2

$$$$
