=
 OpenBabel11062408003D

 34 37  0  0  1  0  0  0  0  0999 V2000
  160.6300  206.1230  153.2170 C   0  0  0  0  0  2  0  0  0  0  0  0
  161.7940  209.8810  153.8080 C   0  0  0  0  0  2  0  0  0  0  0  0
  161.8000  209.1610  151.4230 C   0  0  1  0  0  3  0  0  0  0  0  0
  161.7110  210.1540  149.0900 N   0  0  0  0  0  0  0  0  0  0  0  0
  160.5400  207.3930  155.3380 C   0  0  0  0  0  2  0  0  0  0  0  0
  161.2820  208.5880  155.9140 C   0  0  0  0  0  2  0  0  0  0  0  0
  161.4250  211.4880  150.9830 O   0  0  0  0  0  0  0  0  0  0  0  0
  160.9560  209.3030  152.6820 C   0  0  0  0  0  2  0  0  0  0  0  0
  161.4460  206.6310  154.3910 C   0  0  0  0  0  2  0  0  0  0  0  0
  161.5220  207.7940  150.7660 C   0  0  1  0  0  3  0  0  0  0  0  0
  161.5390  205.6330  152.0990 C   0  0  0  0  0  2  0  0  0  0  0  0
  161.0090  209.8560  155.1100 C   0  0  0  0  0  2  0  0  0  0  0  0
  161.8300  208.8470  148.5270 C   0  0  0  0  0  3  0  0  0  0  0  0
  161.7740  207.7320  149.2640 C   0  0  0  0  0  0  0  0  0  0  0  0
  161.5990  210.3330  150.5050 C   0  0  0  0  0  0  0  0  0  0  0  0
  162.3790  206.7570  151.4960 C   0  0  0  0  0  2  0  0  0  0  0  0
  162.5390  205.0380  146.7070 C   0  0  0  0  0  0  0  0  0  0  0  0
  161.7940  203.9650  147.2020 C   0  0  0  0  0  3  0  0  0  0  0  0
  161.7630  206.4380  148.5390 C   0  0  0  0  0  0  0  0  0  0  0  0
  161.0360  204.1200  148.3640 C   0  0  0  0  0  3  0  0  0  0  0  0
  162.5270  206.2660  147.3750 C   0  0  0  0  0  3  0  0  0  0  0  0
  161.0220  205.3490  149.0300 C   0  0  0  0  0  3  0  0  0  0  0  0
  163.2790  204.8870  145.5820 F   0  0  0  0  0  0  0  0  0  0  0  0
  161.5790  211.2830  148.1810 C   0  0  0  0  0  2  0  0  0  0  0  0
  162.8830  212.0540  148.1400 C   0  0  0  0  0  2  0  0  0  0  0  0
  162.6600  213.4100  147.5010 C   0  0  0  0  0  2  0  0  0  0  0  0
  162.6120  213.2670  145.9870 C   0  0  0  0  0  2  0  0  0  0  0  0
  161.5980  212.3700  143.4480 O   0  0  0  0  0  0  0  0  0  0  0  0
  161.2490  213.4510  145.5000 N   0  0  0  0  0  0  0  0  0  0  0  0
  160.7900  212.8600  144.2800 C   0  0  0  0  0  0  0  0  0  0  0  0
  158.5950  212.5350  145.3230 C   0  0  0  0  0  2  0  0  0  0  0  0
  158.9770  213.4810  146.4790 C   0  0  0  0  0  2  0  0  0  0  0  0
  160.3020  214.2350  146.2850 C   0  0  0  0  0  2  0  0  0  0  0  0
  159.3230  212.8360  144.0110 C   0  0  0  0  0  2  0  0  0  0  0  0
  1  9  1  0  0  0  0
  2 12  1  0  0  0  0
  3  8  1  1  0  0  0
  4 15  1  0  0  0  0
  5  6  1  0  0  0  0
  8  2  1  0  0  0  0
  9  5  1  0  0  0  0
 10  3  1  0  0  0  0
 10 16  1  1  0  0  0
 11  1  1  0  0  0  0
 12  6  1  0  0  0  0
 13  4  1  0  0  0  0
 13 14  2  0  0  0  0
 14 10  1  0  0  0  0
 15  7  2  0  0  0  0
 15  3  1  0  0  0  0
 16 11  1  0  0  0  0
 17 18  2  0  0  0  0
 17 21  1  0  0  0  0
 18 20  1  0  0  0  0
 19 22  1  0  0  0  0
 19 14  1  0  0  0  0
 20 22  2  0  0  0  0
 21 19  2  0  0  0  0
 23 17  1  0  0  0  0
 24  4  1  0  0  0  0
 25 24  1  0  0  0  0
 26 25  1  0  0  0  0
 27 26  1  0  0  0  0
 28 30  2  0  0  0  0
 29 27  1  0  0  0  0
 29 33  1  0  0  0  0
 30 29  1  0  0  0  0
 31 32  1  0  0  0  0
 33 32  1  0  0  0  0
 34 30  1  0  0  0  0
 34 31  1  0  0  0  0
M  END
>  <MODEL>
1

>  <REMARK>
 VINA RESULT:      -9.1      0.000      0.000
  Name = 
  6 active torsions:
  status: ('A' for Active; 'I' for Inactive)
    1  A    between atoms: C_3  and  N_13
    2  A    between atoms: C_3  and  C_17
    3  A    between atoms: N_5  and  C_18
    4  A    between atoms: C_12  and  C_28
    5  A    between atoms: C_17  and  C_29
    6  A    between atoms: C_18  and  C_29
                            x       y       z     vdW  Elec       q    Type
                         _______ _______ _______ _____ _____    ______ ____

>  <TORSDO>
F 6

$$$$
=
 OpenBabel11062408003D

 34 37  0  0  1  0  0  0  0  0999 V2000
  160.6840  206.2580  153.1660 C   0  0  0  0  0  2  0  0  0  0  0  0
  161.8340  210.0280  153.7030 C   0  0  0  0  0  2  0  0  0  0  0  0
  161.8370  209.2750  151.3270 C   0  0  1  0  0  3  0  0  0  0  0  0
  161.7380  210.2370  148.9820 N   0  0  0  0  0  0  0  0  0  0  0  0
  160.5940  207.5560  155.2700 C   0  0  0  0  0  2  0  0  0  0  0  0
  161.3320  208.7620  155.8280 C   0  0  0  0  0  2  0  0  0  0  0  0
  161.4510  211.5950  150.8570 O   0  0  0  0  0  0  0  0  0  0  0  0
  160.9950  209.4310  152.5870 C   0  0  0  0  0  2  0  0  0  0  0  0
  161.5010  206.7850  154.3310 C   0  0  0  0  0  2  0  0  0  0  0  0
  161.5620  207.8980  150.6900 C   0  0  1  0  0  3  0  0  0  0  0  0
  161.5910  205.7560  152.0530 C   0  0  0  0  0  2  0  0  0  0  0  0
  161.0530  210.0180  155.0070 C   0  0  0  0  0  2  0  0  0  0  0  0
  161.8600  208.9220  148.4370 C   0  0  0  0  0  3  0  0  0  0  0  0
  161.8100  207.8180  149.1880 C   0  0  0  0  0  0  0  0  0  0  0  0
  161.6290  210.4340  150.3940 C   0  0  0  0  0  0  0  0  0  0  0  0
  162.4260  206.8750  151.4320 C   0  0  0  0  0  2  0  0  0  0  0  0
  162.6180  205.0750  146.6950 C   0  0  0  0  0  0  0  0  0  0  0  0
  161.8390  204.0220  147.1800 C   0  0  0  0  0  3  0  0  0  0  0  0
  161.8030  206.5130  148.4810 C   0  0  0  0  0  0  0  0  0  0  0  0
  161.0450  204.2050  148.3140 C   0  0  0  0  0  3  0  0  0  0  0  0
  162.6030  206.3130  147.3460 C   0  0  0  0  0  3  0  0  0  0  0  0
  161.0290  205.4430  148.9620 C   0  0  0  0  0  3  0  0  0  0  0  0
  163.3920  204.8970  145.5990 F   0  0  0  0  0  0  0  0  0  0  0  0
  161.5980  211.3520  148.0580 C   0  0  0  0  0  2  0  0  0  0  0  0
  162.9200  212.0850  147.9480 C   0  0  0  0  0  2  0  0  0  0  0  0
  162.7600  213.3070  147.0660 C   0  0  0  0  0  2  0  0  0  0  0  0
  161.5000  213.1750  146.2240 C   0  0  0  0  0  2  0  0  0  0  0  0
  159.7920  211.9970  144.2290 O   0  0  0  0  0  0  0  0  0  0  0  0
  161.8420  212.9710  144.8200 N   0  0  0  0  0  0  0  0  0  0  0  0
  160.8880  212.4970  143.8640 C   0  0  0  0  0  0  0  0  0  0  0  0
  161.9330  213.9430  142.1820 C   0  0  0  0  0  2  0  0  0  0  0  0
  163.1540  214.1670  143.0960 C   0  0  0  0  0  2  0  0  0  0  0  0
  163.1890  213.2830  144.3540 C   0  0  0  0  0  2  0  0  0  0  0  0
  161.2220  212.6090  142.4140 C   0  0  0  0  0  2  0  0  0  0  0  0
  1  9  1  0  0  0  0
  2 12  1  0  0  0  0
  3  8  1  1  0  0  0
  4 15  1  0  0  0  0
  5  6  1  0  0  0  0
  8  2  1  0  0  0  0
  9  5  1  0  0  0  0
 10  3  1  0  0  0  0
 10 16  1  1  0  0  0
 11  1  1  0  0  0  0
 12  6  1  0  0  0  0
 13  4  1  0  0  0  0
 13 14  2  0  0  0  0
 14 10  1  0  0  0  0
 15  7  2  0  0  0  0
 15  3  1  0  0  0  0
 16 11  1  0  0  0  0
 17 18  2  0  0  0  0
 17 21  1  0  0  0  0
 18 20  1  0  0  0  0
 19 22  1  0  0  0  0
 19 14  1  0  0  0  0
 20 22  2  0  0  0  0
 21 19  2  0  0  0  0
 23 17  1  0  0  0  0
 24  4  1  0  0  0  0
 25 24  1  0  0  0  0
 26 25  1  0  0  0  0
 27 26  1  0  0  0  0
 29 27  1  0  0  0  0
 30 28  2  0  0  0  0
 30 29  1  0  0  0  0
 31 34  1  0  0  0  0
 31 32  1  0  0  0  0
 32 33  1  0  0  0  0
 33 29  1  0  0  0  0
 34 30  1  0  0  0  0
M  END
>  <MODEL>
2

>  <REMARK>
 VINA RESULT:      -9.0      0.935      1.524
  Name = 
  6 active torsions:
  status: ('A' for Active; 'I' for Inactive)
    1  A    between atoms: C_3  and  N_13
    2  A    between atoms: C_3  and  C_17
    3  A    between atoms: N_5  and  C_18
    4  A    between atoms: C_12  and  C_28
    5  A    between atoms: C_17  and  C_29
    6  A    between atoms: C_18  and  C_29
                            x       y       z     vdW  Elec       q    Type
                         _______ _______ _______ _____ _____    ______ ____

>  <TORSDO>
F 6

$$$$
=
 OpenBabel11062408003D

 34 37  0  0  1  0  0  0  0  0999 V2000
  160.1710  206.9570  154.5520 C   0  0  0  0  0  2  0  0  0  0  0  0
  161.9470  210.0880  152.8580 C   0  0  0  0  0  2  0  0  0  0  0  0
  161.7790  208.0780  151.3950 C   0  0  1  0  0  3  0  0  0  0  0  0
  161.7990  207.4560  148.9350 N   0  0  0  0  0  0  0  0  0  0  0  0
  160.3400  209.2490  155.4690 C   0  0  0  0  0  2  0  0  0  0  0  0
  161.2800  210.4260  155.2690 C   0  0  0  0  0  2  0  0  0  0  0  0
  161.7800  209.6880  149.6160 O   0  0  0  0  0  0  0  0  0  0  0  0
  161.0000  209.0750  152.2430 C   0  0  0  0  0  2  0  0  0  0  0  0
  161.0870  207.9490  155.2460 C   0  0  0  0  0  2  0  0  0  0  0  0
  161.2660  206.6510  151.6710 C   0  0  1  0  0  3  0  0  0  0  0  0
  160.9600  205.7650  154.0310 C   0  0  0  0  0  2  0  0  0  0  0  0
  161.2000  210.9710  153.8460 C   0  0  0  0  0  2  0  0  0  0  0  0
  161.6890  206.0750  149.2830 C   0  0  0  0  0  3  0  0  0  0  0  0
  161.4680  205.6570  150.5340 C   0  0  0  0  0  0  0  0  0  0  0  0
  161.7520  208.4690  149.9440 C   0  0  0  0  0  0  0  0  0  0  0  0
  161.9590  206.1580  152.9440 C   0  0  0  0  0  2  0  0  0  0  0  0
  160.1690  202.1270  150.0470 C   0  0  0  0  0  0  0  0  0  0  0  0
  160.8260  201.4450  151.0730 C   0  0  0  0  0  3  0  0  0  0  0  0
  161.2290  204.2060  150.7340 C   0  0  0  0  0  0  0  0  0  0  0  0
  161.6870  202.1350  151.9300 C   0  0  0  0  0  3  0  0  0  0  0  0
  160.3730  203.4990  149.8760 C   0  0  0  0  0  3  0  0  0  0  0  0
  161.8890  203.5080  151.7600 C   0  0  0  0  0  3  0  0  0  0  0  0
  159.3380  201.4580  149.2130 F   0  0  0  0  0  0  0  0  0  0  0  0
  161.8320  207.8080  147.5240 C   0  0  0  0  0  2  0  0  0  0  0  0
  161.5530  206.5740  146.6890 C   0  0  0  0  0  2  0  0  0  0  0  0
  162.7060  205.5980  146.8110 C   0  0  0  0  0  2  0  0  0  0  0  0
  162.6880  204.6280  145.6390 C   0  0  0  0  0  2  0  0  0  0  0  0
  160.5240  204.8390  143.7530 O   0  0  0  0  0  0  0  0  0  0  0  0
  161.4640  203.8340  145.6530 N   0  0  0  0  0  0  0  0  0  0  0  0
  160.4940  203.9100  144.6020 C   0  0  0  0  0  0  0  0  0  0  0  0
  160.0730  201.5110  144.8860 C   0  0  0  0  0  2  0  0  0  0  0  0
  160.8320  201.5110  146.2280 C   0  0  0  0  0  2  0  0  0  0  0  0
  161.2190  202.9050  146.7510 C   0  0  0  0  0  2  0  0  0  0  0  0
  159.4390  202.8580  144.5330 C   0  0  0  0  0  2  0  0  0  0  0  0
  1  9  1  0  0  0  0
  2 12  1  0  0  0  0
  3 10  1  0  0  0  0
  3  8  1  1  0  0  0
  4 13  1  0  0  0  0
  4 15  1  0  0  0  0
  6  5  1  0  0  0  0
  7 15  2  0  0  0  0
  8  2  1  0  0  0  0
  9  5  1  0  0  0  0
 10 16  1  1  0  0  0
 11  1  1  0  0  0  0
 12  6  1  0  0  0  0
 13 14  2  0  0  0  0
 14 19  1  0  0  0  0
 14 10  1  0  0  0  0
 15  3  1  0  0  0  0
 16 11  1  0  0  0  0
 17 18  1  0  0  0  0
 18 20  2  0  0  0  0
 19 22  2  0  0  0  0
 21 17  2  0  0  0  0
 21 19  1  0  0  0  0
 22 20  1  0  0  0  0
 23 17  1  0  0  0  0
 24  4  1  0  0  0  0
 25 26  1  0  0  0  0
 25 24  1  0  0  0  0
 27 29  1  0  0  0  0
 27 26  1  0  0  0  0
 28 30  2  0  0  0  0
 29 33  1  0  0  0  0
 30 29  1  0  0  0  0
 31 32  1  0  0  0  0
 32 33  1  0  0  0  0
 34 30  1  0  0  0  0
 34 31  1  0  0  0  0
M  END
>  <MODEL>
3

>  <REMARK>
 VINA RESULT:      -8.4      3.710      5.730
  Name = 
  6 active torsions:
  status: ('A' for Active; 'I' for Inactive)
    1  A    between atoms: C_3  and  N_13
    2  A    between atoms: C_3  and  C_17
    3  A    between atoms: N_5  and  C_18
    4  A    between atoms: C_12  and  C_28
    5  A    between atoms: C_17  and  C_29
    6  A    between atoms: C_18  and  C_29
                            x       y       z     vdW  Elec       q    Type
                         _______ _______ _______ _____ _____    ______ ____

>  <TORSDO>
F 6

$$$$
=
 OpenBabel11062408003D

 34 37  0  0  1  0  0  0  0  0999 V2000
  160.6230  206.6230  148.6090 C   0  0  0  0  0  2  0  0  0  0  0  0
  161.6690  204.8080  151.9920 C   0  0  0  0  0  2  0  0  0  0  0  0
  161.5670  207.2930  152.1410 C   0  0  1  0  0  3  0  0  0  0  0  0
  161.3050  209.1290  153.8730 N   0  0  0  0  0  0  0  0  0  0  0  0
  160.6050  204.1900  149.0610 C   0  0  0  0  0  2  0  0  0  0  0  0
  161.3300  203.2650  150.0230 C   0  0  0  0  0  2  0  0  0  0  0  0
  161.0750  206.8800  154.4520 O   0  0  0  0  0  0  0  0  0  0  0  0
  160.7910  206.0300  151.7910 C   0  0  0  0  0  2  0  0  0  0  0  0
  161.4840  205.3790  148.7270 C   0  0  0  0  0  2  0  0  0  0  0  0
  161.3060  208.3730  151.0720 C   0  0  1  0  0  3  0  0  0  0  0  0
  161.4850  207.8770  148.5880 C   0  0  0  0  0  2  0  0  0  0  0  0
  160.9620  203.5660  151.4740 C   0  0  0  0  0  2  0  0  0  0  0  0
  161.4430  210.1160  152.8500 C   0  0  0  0  0  3  0  0  0  0  0  0
  161.4730  209.8110  151.5480 C   0  0  0  0  0  0  0  0  0  0  0  0
  161.2670  207.7370  153.5450 C   0  0  0  0  0  0  0  0  0  0  0  0
  162.2440  208.0850  149.8970 C   0  0  0  0  0  2  0  0  0  0  0  0
  162.3370  212.0000  148.5730 C   0  0  0  0  0  0  0  0  0  0  0  0
  161.4250  213.0470  148.7240 C   0  0  0  0  0  3  0  0  0  0  0  0
  161.4720  210.9410  150.5850 C   0  0  0  0  0  0  0  0  0  0  0  0
  160.5340  213.0460  149.8000 C   0  0  0  0  0  3  0  0  0  0  0  0
  162.3560  210.9500  149.4960 C   0  0  0  0  0  3  0  0  0  0  0  0
  160.5550  211.9970  150.7240 C   0  0  0  0  0  3  0  0  0  0  0  0
  163.1980  211.9970  147.5280 F   0  0  0  0  0  0  0  0  0  0  0  0
  161.0760  209.5820  155.2370 C   0  0  0  0  0  2  0  0  0  0  0  0
  161.3010  211.0790  155.3160 C   0  0  0  0  0  2  0  0  0  0  0  0
  160.1210  211.7420  155.9980 C   0  0  0  0  0  2  0  0  0  0  0  0
  158.8930  210.8500  155.8880 C   0  0  0  0  0  2  0  0  0  0  0  0
  156.2720  211.7250  156.6920 O   0  0  0  0  0  0  0  0  0  0  0  0
  157.8940  211.4620  155.0180 N   0  0  0  0  0  0  0  0  0  0  0  0
  156.6630  211.9880  155.5230 C   0  0  0  0  0  0  0  0  0  0  0  0
  156.7900  213.7660  153.8400 C   0  0  0  0  0  2  0  0  0  0  0  0
  157.8950  213.0030  153.0820 C   0  0  0  0  0  2  0  0  0  0  0  0
  158.1560  211.5740  153.5880 C   0  0  0  0  0  2  0  0  0  0  0  0
  155.8450  212.8610  154.6320 C   0  0  0  0  0  2  0  0  0  0  0  0
  1  9  1  0  0  0  0
  3  8  1  6  0  0  0
  3 15  1  0  0  0  0
  4 24  1  0  0  0  0
  5  6  1  0  0  0  0
  6 12  1  0  0  0  0
  8  2  1  0  0  0  0
  9  5  1  0  0  0  0
 10 16  1  6  0  0  0
 10 14  1  0  0  0  0
 10  3  1  0  0  0  0
 11  1  1  0  0  0  0
 11 16  1  0  0  0  0
 12  2  1  0  0  0  0
 13  4  1  0  0  0  0
 14 13  2  0  0  0  0
 15  4  1  0  0  0  0
 15  7  2  0  0  0  0
 17 18  2  0  0  0  0
 17 21  1  0  0  0  0
 18 20  1  0  0  0  0
 19 22  1  0  0  0  0
 19 14  1  0  0  0  0
 20 22  2  0  0  0  0
 21 19  2  0  0  0  0
 23 17  1  0  0  0  0
 24 25  1  0  0  0  0
 25 26  1  0  0  0  0
 27 26  1  0  0  0  0
 29 30  1  0  0  0  0
 29 27  1  0  0  0  0
 30 28  2  0  0  0  0
 31 34  1  0  0  0  0
 32 33  1  0  0  0  0
 32 31  1  0  0  0  0
 33 29  1  0  0  0  0
 34 30  1  0  0  0  0
M  END
>  <MODEL>
4

>  <REMARK>
 VINA RESULT:      -8.4      3.774      7.349
  Name = 
  6 active torsions:
  status: ('A' for Active; 'I' for Inactive)
    1  A    between atoms: C_3  and  N_13
    2  A    between atoms: C_3  and  C_17
    3  A    between atoms: N_5  and  C_18
    4  A    between atoms: C_12  and  C_28
    5  A    between atoms: C_17  and  C_29
    6  A    between atoms: C_18  and  C_29
                            x       y       z     vdW  Elec       q    Type
                         _______ _______ _______ _____ _____    ______ ____

>  <TORSDO>
F 6

$$$$
=
 OpenBabel11062408003D

 34 37  0  0  1  0  0  0  0  0999 V2000
  160.4220  206.6950  154.4660 C   0  0  0  0  0  2  0  0  0  0  0  0
  162.0120  210.3190  154.0550 C   0  0  0  0  0  2  0  0  0  0  0  0
  161.7870  209.0420  151.9270 C   0  0  1  0  0  3  0  0  0  0  0  0
  161.6510  209.4390  149.4250 N   0  0  0  0  0  0  0  0  0  0  0  0
  160.6060  208.4460  156.2040 C   0  0  0  0  0  2  0  0  0  0  0  0
  161.5050  209.6490  156.4350 C   0  0  0  0  0  2  0  0  0  0  0  0
  161.6310  211.2190  150.9330 O   0  0  0  0  0  0  0  0  0  0  0  0
  161.0460  209.5860  153.1410 C   0  0  0  0  0  2  0  0  0  0  0  0
  161.3620  207.3750  155.4440 C   0  0  0  0  0  2  0  0  0  0  0  0
  161.3230  207.5990  151.6440 C   0  0  1  0  0  3  0  0  0  0  0  0
  161.1990  205.8430  153.4730 C   0  0  0  0  0  2  0  0  0  0  0  0
  161.3160  210.7060  155.3500 C   0  0  0  0  0  2  0  0  0  0  0  0
  161.5940  208.0300  149.2030 C   0  0  0  0  0  3  0  0  0  0  0  0
  161.4680  207.1430  150.1960 C   0  0  0  0  0  0  0  0  0  0  0  0
  161.6510  209.9700  150.7530 C   0  0  0  0  0  0  0  0  0  0  0  0
  162.1120  206.6770  152.5770 C   0  0  0  0  0  2  0  0  0  0  0  0
  161.4140  203.9360  148.1720 C   0  0  0  0  0  0  0  0  0  0  0  0
  160.9680  203.0150  149.1220 C   0  0  0  0  0  3  0  0  0  0  0  0
  161.2740  205.7210  149.8190 C   0  0  0  0  0  0  0  0  0  0  0  0
  160.6760  203.4390  150.4210 C   0  0  0  0  0  3  0  0  0  0  0  0
  161.5710  205.2810  148.5200 C   0  0  0  0  0  3  0  0  0  0  0  0
  160.8310  204.7840  150.7680 C   0  0  0  0  0  3  0  0  0  0  0  0
  161.7020  203.5250  146.9140 F   0  0  0  0  0  0  0  0  0  0  0  0
  161.5800  210.3190  148.2680 C   0  0  0  0  0  2  0  0  0  0  0  0
  162.5990  211.4310  148.4150 C   0  0  0  0  0  2  0  0  0  0  0  0
  161.9750  212.7570  148.0300 C   0  0  0  0  0  2  0  0  0  0  0  0
  161.0440  212.5640  146.8420 C   0  0  0  0  0  2  0  0  0  0  0  0
  158.6740  212.2150  145.2480 O   0  0  0  0  0  0  0  0  0  0  0  0
  159.7370  213.1520  147.1170 N   0  0  0  0  0  0  0  0  0  0  0  0
  158.5760  212.8230  146.3460 C   0  0  0  0  0  0  0  0  0  0  0  0
  157.2310  213.0010  148.3890 C   0  0  0  0  0  2  0  0  0  0  0  0
  158.3950  213.6960  149.1240 C   0  0  0  0  0  2  0  0  0  0  0  0
  159.5840  214.0830  148.2300 C   0  0  0  0  0  2  0  0  0  0  0  0
  157.2380  213.2180  146.8740 C   0  0  0  0  0  2  0  0  0  0  0  0
  1  9  1  0  0  0  0
  2 12  1  0  0  0  0
  3  8  1  1  0  0  0
  4 15  1  0  0  0  0
  5  6  1  0  0  0  0
  8  2  1  0  0  0  0
  9  5  1  0  0  0  0
 10  3  1  0  0  0  0
 10 16  1  1  0  0  0
 11  1  1  0  0  0  0
 12  6  1  0  0  0  0
 13  4  1  0  0  0  0
 13 14  2  0  0  0  0
 14 10  1  0  0  0  0
 15  7  2  0  0  0  0
 15  3  1  0  0  0  0
 16 11  1  0  0  0  0
 17 21  2  0  0  0  0
 17 18  1  0  0  0  0
 18 20  2  0  0  0  0
 19 14  1  0  0  0  0
 19 22  2  0  0  0  0
 20 22  1  0  0  0  0
 21 19  1  0  0  0  0
 23 17  1  0  0  0  0
 24 25  1  0  0  0  0
 24  4  1  0  0  0  0
 26 25  1  0  0  0  0
 27 29  1  0  0  0  0
 27 26  1  0  0  0  0
 28 30  2  0  0  0  0
 29 33  1  0  0  0  0
 30 34  1  0  0  0  0
 30 29  1  0  0  0  0
 31 32  1  0  0  0  0
 33 32  1  0  0  0  0
 34 31  1  0  0  0  0
M  END
>  <MODEL>
5

>  <REMARK>
 VINA RESULT:      -8.2      1.458      1.833
  Name = 
  6 active torsions:
  status: ('A' for Active; 'I' for Inactive)
    1  A    between atoms: C_3  and  N_13
    2  A    between atoms: C_3  and  C_17
    3  A    between atoms: N_5  and  C_18
    4  A    between atoms: C_12  and  C_28
    5  A    between atoms: C_17  and  C_29
    6  A    between atoms: C_18  and  C_29
                            x       y       z     vdW  Elec       q    Type
                         _______ _______ _______ _____ _____    ______ ____

>  <TORSDO>
F 6

$$$$
=
 OpenBabel11062408003D

 34 37  0  0  1  0  0  0  0  0999 V2000
  161.0100  211.2590  154.4520 C   0  0  0  0  0  2  0  0  0  0  0  0
  160.5870  207.3240  154.0430 C   0  0  0  0  0  2  0  0  0  0  0  0
  161.1580  208.5260  151.9360 C   0  0  1  0  0  3  0  0  0  0  0  0
  162.1820  208.0800  149.6580 N   0  0  0  0  0  0  0  0  0  0  0  0
  160.7200  209.5970  156.2610 C   0  0  0  0  0  2  0  0  0  0  0  0
  160.1220  208.2040  156.3630 C   0  0  0  0  0  2  0  0  0  0  0  0
  162.1580  206.4370  151.3150 O   0  0  0  0  0  0  0  0  0  0  0  0
  161.5810  208.2560  153.3740 C   0  0  0  0  0  2  0  0  0  0  0  0
  160.0060  210.3870  155.1830 C   0  0  0  0  0  2  0  0  0  0  0  0
  161.3150  210.0280  151.6260 C   0  0  1  0  0  3  0  0  0  0  0  0
  160.4070  211.8240  153.1750 C   0  0  0  0  0  2  0  0  0  0  0  0
  160.9040  207.1960  155.5250 C   0  0  0  0  0  2  0  0  0  0  0  0
  161.9560  209.4410  149.2890 C   0  0  0  0  0  3  0  0  0  0  0  0
  161.5330  210.3670  150.1560 C   0  0  0  0  0  0  0  0  0  0  0  0
  161.8880  207.6240  150.9820 C   0  0  0  0  0  0  0  0  0  0  0  0
  160.0660  210.7350  152.1590 C   0  0  0  0  0  2  0  0  0  0  0  0
  162.2570  213.5220  148.1790 C   0  0  0  0  0  0  0  0  0  0  0  0
  161.3330  214.4130  148.7300 C   0  0  0  0  0  3  0  0  0  0  0  0
  161.4790  211.7720  149.6780 C   0  0  0  0  0  0  0  0  0  0  0  0
  160.4780  213.9900  149.7510 C   0  0  0  0  0  3  0  0  0  0  0  0
  162.3260  212.2080  148.6480 C   0  0  0  0  0  3  0  0  0  0  0  0
  160.5490  212.6760  150.2210 C   0  0  0  0  0  3  0  0  0  0  0  0
  163.0820  213.9310  147.1860 F   0  0  0  0  0  0  0  0  0  0  0  0
  162.8360  207.2070  148.6950 C   0  0  0  0  0  2  0  0  0  0  0  0
  161.9180  206.9840  147.5110 C   0  0  0  0  0  2  0  0  0  0  0  0
  160.9250  205.8840  147.8290 C   0  0  0  0  0  2  0  0  0  0  0  0
  161.6080  204.5280  147.7340 C   0  0  0  0  0  2  0  0  0  0  0  0
  160.9420  201.8010  147.0990 O   0  0  0  0  0  0  0  0  0  0  0  0
  160.9740  203.5730  148.6370 N   0  0  0  0  0  0  0  0  0  0  0  0
  160.7950  202.1960  148.2860 C   0  0  0  0  0  0  0  0  0  0  0  0
  161.2060  201.5990  150.6280 C   0  0  0  0  0  2  0  0  0  0  0  0
  161.0380  203.0700  151.0590 C   0  0  0  0  0  2  0  0  0  0  0  0
  160.5290  204.0120  149.9550 C   0  0  0  0  0  2  0  0  0  0  0  0
  160.4280  201.2320  149.3630 C   0  0  0  0  0  2  0  0  0  0  0  0
  1  9  1  0  0  0  0
  2 12  1  0  0  0  0
  3  8  1  1  0  0  0
  4 15  1  0  0  0  0
  5  6  1  0  0  0  0
  8  2  1  0  0  0  0
  9  5  1  0  0  0  0
 10  3  1  0  0  0  0
 10 16  1  6  0  0  0
 11  1  1  0  0  0  0
 12  6  1  0  0  0  0
 13  4  1  0  0  0  0
 13 14  2  0  0  0  0
 14 10  1  0  0  0  0
 15  7  2  0  0  0  0
 15  3  1  0  0  0  0
 16 11  1  0  0  0  0
 17 21  2  0  0  0  0
 17 18  1  0  0  0  0
 18 20  2  0  0  0  0
 19 14  1  0  0  0  0
 19 22  2  0  0  0  0
 20 22  1  0  0  0  0
 21 19  1  0  0  0  0
 23 17  1  0  0  0  0
 24  4  1  0  0  0  0
 25 26  1  0  0  0  0
 25 24  1  0  0  0  0
 27 26  1  0  0  0  0
 27 29  1  0  0  0  0
 28 30  2  0  0  0  0
 29 33  1  0  0  0  0
 30 29  1  0  0  0  0
 30 34  1  0  0  0  0
 31 32  1  0  0  0  0
 33 32  1  0  0  0  0
 34 31  1  0  0  0  0
M  END
>  <MODEL>
6

>  <REMARK>
 VINA RESULT:      -8.1      3.351      7.271
  Name = 
  6 active torsions:
  status: ('A' for Active; 'I' for Inactive)
    1  A    between atoms: C_3  and  N_13
    2  A    between atoms: C_3  and  C_17
    3  A    between atoms: N_5  and  C_18
    4  A    between atoms: C_12  and  C_28
    5  A    between atoms: C_17  and  C_29
    6  A    between atoms: C_18  and  C_29
                            x       y       z     vdW  Elec       q    Type
                         _______ _______ _______ _____ _____    ______ ____

>  <TORSDO>
F 6

$$$$
=
 OpenBabel11062408003D

 34 37  0  0  1  0  0  0  0  0999 V2000
  160.4540  206.2620  153.2830 C   0  0  0  0  0  2  0  0  0  0  0  0
  161.9520  209.9240  153.7000 C   0  0  0  0  0  2  0  0  0  0  0  0
  162.0010  209.0480  151.3680 C   0  0  1  0  0  3  0  0  0  0  0  0
  162.1200  209.8870  148.9770 N   0  0  0  0  0  0  0  0  0  0  0  0
  160.3890  207.6740  155.3130 C   0  0  0  0  0  2  0  0  0  0  0  0
  161.2160  208.8290  155.8530 C   0  0  0  0  0  2  0  0  0  0  0  0
  161.8770  211.3660  150.7650 O   0  0  0  0  0  0  0  0  0  0  0  0
  161.1160  209.3540  152.5700 C   0  0  0  0  0  2  0  0  0  0  0  0
  161.2600  206.7680  154.4650 C   0  0  0  0  0  2  0  0  0  0  0  0
  161.6200  207.6720  150.7840 C   0  0  1  0  0  3  0  0  0  0  0  0
  161.3620  205.6140  152.2480 C   0  0  0  0  0  2  0  0  0  0  0  0
  161.1080  210.0610  154.9580 C   0  0  0  0  0  2  0  0  0  0  0  0
  162.1370  208.5390  148.5040 C   0  0  0  0  0  3  0  0  0  0  0  0
  161.9360  207.4870  149.3040 C   0  0  0  0  0  0  0  0  0  0  0  0
  161.9600  210.1700  150.3700 C   0  0  0  0  0  0  0  0  0  0  0  0
  162.3360  206.6100  151.6220 C   0  0  0  0  0  2  0  0  0  0  0  0
  161.0730  203.8430  148.7050 C   0  0  0  0  0  0  0  0  0  0  0  0
  161.5780  203.6450  147.4180 C   0  0  0  0  0  3  0  0  0  0  0  0
  161.8320  206.1530  148.6610 C   0  0  0  0  0  0  0  0  0  0  0  0
  162.2070  204.6970  146.7470 C   0  0  0  0  0  3  0  0  0  0  0  0
  161.1950  205.0910  149.3210 C   0  0  0  0  0  3  0  0  0  0  0  0
  162.3310  205.9440  147.3640 C   0  0  0  0  0  3  0  0  0  0  0  0
  160.4580  202.8250  149.3540 F   0  0  0  0  0  0  0  0  0  0  0  0
  162.1430  210.9590  147.9940 C   0  0  0  0  0  2  0  0  0  0  0  0
  160.8210  211.7000  148.0240 C   0  0  0  0  0  2  0  0  0  0  0  0
  161.0680  213.1950  148.0480 C   0  0  0  0  0  2  0  0  0  0  0  0
  159.7470  213.9390  147.9210 C   0  0  0  0  0  2  0  0  0  0  0  0
  156.9220  213.7590  148.4390 O   0  0  0  0  0  0  0  0  0  0  0  0
  159.1090  214.0730  149.2260 N   0  0  0  0  0  0  0  0  0  0  0  0
  157.7100  213.8410  149.4180 C   0  0  0  0  0  0  0  0  0  0  0  0
  158.2210  212.8940  151.6220 C   0  0  0  0  0  2  0  0  0  0  0  0
  159.6510  213.4680  151.5640 C   0  0  0  0  0  2  0  0  0  0  0  0
  159.9150  214.4250  150.3900 C   0  0  0  0  0  2  0  0  0  0  0  0
  157.1990  213.6960  150.8120 C   0  0  0  0  0  2  0  0  0  0  0  0
  1  9  1  0  0  0  0
  2 12  1  0  0  0  0
  3  8  1  1  0  0  0
  4 15  1  0  0  0  0
  5  6  1  0  0  0  0
  8  2  1  0  0  0  0
  9  5  1  0  0  0  0
 10  3  1  0  0  0  0
 10 16  1  1  0  0  0
 11  1  1  0  0  0  0
 12  6  1  0  0  0  0
 13  4  1  0  0  0  0
 13 14  2  0  0  0  0
 14 10  1  0  0  0  0
 15  7  2  0  0  0  0
 15  3  1  0  0  0  0
 16 11  1  0  0  0  0
 17 21  1  0  0  0  0
 17 23  1  0  0  0  0
 18 17  2  0  0  0  0
 19 14  1  0  0  0  0
 19 21  2  0  0  0  0
 20 22  2  0  0  0  0
 20 18  1  0  0  0  0
 22 19  1  0  0  0  0
 24 25  1  0  0  0  0
 24  4  1  0  0  0  0
 25 26  1  0  0  0  0
 27 26  1  0  0  0  0
 27 29  1  0  0  0  0
 28 30  2  0  0  0  0
 29 30  1  0  0  0  0
 29 33  1  0  0  0  0
 30 34  1  0  0  0  0
 32 31  1  0  0  0  0
 33 32  1  0  0  0  0
 34 31  1  0  0  0  0
M  END
>  <MODEL>
7

>  <REMARK>
 VINA RESULT:      -7.8      2.236      3.026
  Name = 
  6 active torsions:
  status: ('A' for Active; 'I' for Inactive)
    1  A    between atoms: C_3  and  N_13
    2  A    between atoms: C_3  and  C_17
    3  A    between atoms: N_5  and  C_18
    4  A    between atoms: C_12  and  C_28
    5  A    between atoms: C_17  and  C_29
    6  A    between atoms: C_18  and  C_29
                            x       y       z     vdW  Elec       q    Type
                         _______ _______ _______ _____ _____    ______ ____

>  <TORSDO>
F 6

$$$$
=
 OpenBabel11062408003D

 34 37  0  0  1  0  0  0  0  0999 V2000
  162.5630  209.1500  150.4170 C   0  0  0  0  0  2  0  0  0  0  0  0
  160.6670  207.5400  153.5210 C   0  0  0  0  0  2  0  0  0  0  0  0
  160.8970  206.0280  151.5540 C   0  0  1  0  0  3  0  0  0  0  0  0
  160.8850  203.5540  150.9900 N   0  0  0  0  0  0  0  0  0  0  0  0
  162.3190  210.1220  152.6780 C   0  0  0  0  0  2  0  0  0  0  0  0
  161.3360  209.9550  153.8250 C   0  0  0  0  0  2  0  0  0  0  0  0
  160.8300  204.2890  153.2040 O   0  0  0  0  0  0  0  0  0  0  0  0
  161.6460  206.8960  152.5570 C   0  0  0  0  0  2  0  0  0  0  0  0
  161.6170  209.8720  151.3580 C   0  0  0  0  0  2  0  0  0  0  0  0
  161.4630  206.2680  150.1400 C   0  0  1  0  0  3  0  0  0  0  0  0
  161.8140  208.6040  149.2100 C   0  0  0  0  0  2  0  0  0  0  0  0
  161.3880  208.5450  154.4060 C   0  0  0  0  0  2  0  0  0  0  0  0
  161.0460  203.8680  149.6060 C   0  0  0  0  0  3  0  0  0  0  0  0
  161.2890  205.1080  149.1670 C   0  0  0  0  0  0  0  0  0  0  0  0
  160.9030  204.5870  151.9800 C   0  0  0  0  0  0  0  0  0  0  0  0
  160.7960  207.5310  149.5930 C   0  0  0  0  0  2  0  0  0  0  0  0
  160.9160  206.0260  145.5060 C   0  0  0  0  0  0  0  0  0  0  0  0
  162.1590  205.6430  144.9950 C   0  0  0  0  0  3  0  0  0  0  0  0
  161.5810  205.2720  147.7210 C   0  0  0  0  0  0  0  0  0  0  0  0
  163.1160  205.0780  145.8410 C   0  0  0  0  0  3  0  0  0  0  0  0
  160.6310  205.8460  146.8620 C   0  0  0  0  0  3  0  0  0  0  0  0
  162.8300  204.8960  147.1970 C   0  0  0  0  0  3  0  0  0  0  0  0
  159.9890  206.5780  144.6880 F   0  0  0  0  0  0  0  0  0  0  0  0
  160.8320  202.1520  151.3740 C   0  0  0  0  0  2  0  0  0  0  0  0
  161.6290  201.3260  150.3840 C   0  0  0  0  0  2  0  0  0  0  0  0
  160.7640  200.9800  149.1880 C   0  0  0  0  0  2  0  0  0  0  0  0
  161.5810  200.1990  148.1700 C   0  0  0  0  0  2  0  0  0  0  0  0
  161.2060  198.4780  145.8940 O   0  0  0  0  0  0  0  0  0  0  0  0
  161.2590  200.6350  146.8150 N   0  0  0  0  0  0  0  0  0  0  0  0
  160.9600  199.7070  145.7670 C   0  0  0  0  0  0  0  0  0  0  0  0
  159.3300  201.3100  144.8810 C   0  0  0  0  0  2  0  0  0  0  0  0
  159.9060  202.4270  145.7750 C   0  0  0  0  0  2  0  0  0  0  0  0
  161.2060  202.0600  146.5090 C   0  0  0  0  0  2  0  0  0  0  0  0
  160.3470  200.2280  144.5110 C   0  0  0  0  0  2  0  0  0  0  0  0
  1  9  1  0  0  0  0
  2 12  1  0  0  0  0
  3 15  1  0  0  0  0
  3  8  1  1  0  0  0
  4 24  1  0  0  0  0
  4 15  1  0  0  0  0
  5  6  1  0  0  0  0
  6 12  1  0  0  0  0
  8  2  1  0  0  0  0
  9  5  1  0  0  0  0
 10 16  1  6  0  0  0
 10  3  1  0  0  0  0
 11 16  1  0  0  0  0
 11  1  1  0  0  0  0
 13  4  1  0  0  0  0
 14 13  2  0  0  0  0
 14 10  1  0  0  0  0
 15  7  2  0  0  0  0
 17 21  1  0  0  0  0
 18 17  2  0  0  0  0
 18 20  1  0  0  0  0
 19 14  1  0  0  0  0
 20 22  2  0  0  0  0
 21 19  2  0  0  0  0
 22 19  1  0  0  0  0
 23 17  1  0  0  0  0
 25 24  1  0  0  0  0
 26 25  1  0  0  0  0
 27 26  1  0  0  0  0
 29 27  1  0  0  0  0
 30 28  2  0  0  0  0
 30 29  1  0  0  0  0
 31 32  1  0  0  0  0
 32 33  1  0  0  0  0
 33 29  1  0  0  0  0
 34 31  1  0  0  0  0
 34 30  1  0  0  0  0
M  END
>  <MODEL>
8

>  <REMARK>
 VINA RESULT:      -7.7      4.654      7.664
  Name = 
  6 active torsions:
  status: ('A' for Active; 'I' for Inactive)
    1  A    between atoms: C_3  and  N_13
    2  A    between atoms: C_3  and  C_17
    3  A    between atoms: N_5  and  C_18
    4  A    between atoms: C_12  and  C_28
    5  A    between atoms: C_17  and  C_29
    6  A    between atoms: C_18  and  C_29
                            x       y       z     vdW  Elec       q    Type
                         _______ _______ _______ _____ _____    ______ ____

>  <TORSDO>
F 6

$$$$
=
 OpenBabel11062408003D

 34 37  0  0  1  0  0  0  0  0999 V2000
  161.0180  211.3210  154.7020 C   0  0  0  0  0  2  0  0  0  0  0  0
  160.4370  207.3870  154.5890 C   0  0  0  0  0  2  0  0  0  0  0  0
  161.0260  208.4070  152.3930 C   0  0  1  0  0  3  0  0  0  0  0  0
  162.0020  207.7550  150.1440 N   0  0  0  0  0  0  0  0  0  0  0  0
  160.6880  209.8090  156.6320 C   0  0  0  0  0  2  0  0  0  0  0  0
  160.0380  208.4520  156.8420 C   0  0  0  0  0  2  0  0  0  0  0  0
  161.9360  206.2400  151.9170 O   0  0  0  0  0  0  0  0  0  0  0  0
  161.4570  208.2270  153.8420 C   0  0  0  0  0  2  0  0  0  0  0  0
  159.9900  210.5460  155.5050 C   0  0  0  0  0  2  0  0  0  0  0  0
  161.2370  209.8750  151.9710 C   0  0  1  0  0  3  0  0  0  0  0  0
  160.4200  211.8140  153.3920 C   0  0  0  0  0  2  0  0  0  0  0  0
  160.7690  207.3550  156.0720 C   0  0  0  0  0  2  0  0  0  0  0  0
  161.8230  209.0930  149.6770 C   0  0  0  0  0  3  0  0  0  0  0  0
  161.4480  210.0970  150.4770 C   0  0  0  0  0  0  0  0  0  0  0  0
  161.7080  207.4090  151.5010 C   0  0  0  0  0  0  0  0  0  0  0  0
  160.0240  210.6680  152.4640 C   0  0  0  0  0  2  0  0  0  0  0  0
  162.2690  213.0680  148.2680 C   0  0  0  0  0  0  0  0  0  0  0  0
  161.3860  214.0320  148.7590 C   0  0  0  0  0  3  0  0  0  0  0  0
  161.4430  211.4630  149.8980 C   0  0  0  0  0  0  0  0  0  0  0  0
  160.5270  213.7180  149.8150 C   0  0  0  0  0  3  0  0  0  0  0  0
  162.2940  211.7890  148.8320 C   0  0  0  0  0  3  0  0  0  0  0  0
  160.5530  212.4400  150.3800 C   0  0  0  0  0  3  0  0  0  0  0  0
  163.0990  213.3700  147.2410 F   0  0  0  0  0  0  0  0  0  0  0  0
  162.6090  206.7890  149.2410 C   0  0  0  0  0  2  0  0  0  0  0  0
  162.3140  207.1830  147.8070 C   0  0  0  0  0  2  0  0  0  0  0  0
  161.3480  206.1930  147.1890 C   0  0  0  0  0  2  0  0  0  0  0  0
  161.0850  205.0520  148.1600 C   0  0  0  0  0  2  0  0  0  0  0  0
  160.8930  202.4730  149.4240 O   0  0  0  0  0  0  0  0  0  0  0  0
  161.3300  203.7660  147.5160 N   0  0  0  0  0  0  0  0  0  0  0  0
  161.0860  202.5210  148.1800 C   0  0  0  0  0  0  0  0  0  0  0  0
  160.3700  201.5750  146.0350 C   0  0  0  0  0  2  0  0  0  0  0  0
  160.9670  202.7760  145.2770 C   0  0  0  0  0  2  0  0  0  0  0  0
  161.8120  203.7290  146.1400 C   0  0  0  0  0  2  0  0  0  0  0  0
  161.0660  201.2730  147.3640 C   0  0  0  0  0  2  0  0  0  0  0  0
  1  9  1  0  0  0  0
  2 12  1  0  0  0  0
  3  8  1  1  0  0  0
  4 15  1  0  0  0  0
  5  6  1  0  0  0  0
  8  2  1  0  0  0  0
  9  5  1  0  0  0  0
 10  3  1  0  0  0  0
 10 16  1  6  0  0  0
 11  1  1  0  0  0  0
 12  6  1  0  0  0  0
 13  4  1  0  0  0  0
 13 14  2  0  0  0  0
 14 10  1  0  0  0  0
 15  7  2  0  0  0  0
 15  3  1  0  0  0  0
 16 11  1  0  0  0  0
 17 18  2  0  0  0  0
 17 21  1  0  0  0  0
 18 20  1  0  0  0  0
 19 22  1  0  0  0  0
 19 14  1  0  0  0  0
 20 22  2  0  0  0  0
 21 19  2  0  0  0  0
 23 17  1  0  0  0  0
 24  4  1  0  0  0  0
 25 24  1  0  0  0  0
 26 25  1  0  0  0  0
 26 27  1  0  0  0  0
 29 27  1  0  0  0  0
 29 30  1  0  0  0  0
 30 28  2  0  0  0  0
 31 34  1  0  0  0  0
 32 31  1  0  0  0  0
 32 33  1  0  0  0  0
 33 29  1  0  0  0  0
 34 30  1  0  0  0  0
M  END
>  <MODEL>
9

>  <REMARK>
 VINA RESULT:      -7.5      3.423      7.045
  Name = 
  6 active torsions:
  status: ('A' for Active; 'I' for Inactive)
    1  A    between atoms: C_3  and  N_13
    2  A    between atoms: C_3  and  C_17
    3  A    between atoms: N_5  and  C_18
    4  A    between atoms: C_12  and  C_28
    5  A    between atoms: C_17  and  C_29
    6  A    between atoms: C_18  and  C_29
                            x       y       z     vdW  Elec       q    Type
                         _______ _______ _______ _____ _____    ______ ____

>  <TORSDO>
F 6

$$$$
