=
 OpenBabel11052423083D

 27 30  0  0  1  0  0  0  0  0999 V2000
  160.9870  206.3910  148.6380 N   0  0  0  0  0  0  0  0  0  0  0  0
  161.3660  207.6480  149.2430 C   0  0  0  0  0  0  0  0  0  0  0  0
  161.8600  208.6980  148.4450 C   0  0  0  0  0  3  0  0  0  0  0  0
  161.6250  209.0690  151.2080 C   0  0  0  0  0  0  0  0  0  0  0  0
  162.1100  210.1030  150.3930 C   0  0  0  0  0  3  0  0  0  0  0  0
  161.2520  207.8550  150.6290 C   0  0  0  0  0  3  0  0  0  0  0  0
  162.2340  209.9150  149.0160 C   0  0  0  0  0  3  0  0  0  0  0  0
  161.3780  209.2870  152.6700 C   0  0  2  0  0  3  0  0  0  0  0  0
  161.1180  208.0090  153.3090 N   0  0  0  0  0  1  0  0  0  0  0  0
  159.9290  210.2820  154.2860 O   0  0  0  0  0  0  0  0  0  0  0  0
  160.6230  211.3780  153.7420 C   0  0  0  0  0  2  0  0  0  0  0  0
  160.2030  210.2270  152.9070 C   0  0  1  0  0  3  0  0  0  0  0  0
  161.8120  205.3570  144.5990 C   0  0  0  0  0  3  0  0  0  0  0  0
  161.2880  206.0660  147.2640 C   0  0  0  0  0  0  0  0  0  0  0  0
  162.5280  205.5120  146.9080 C   0  0  0  0  0  3  0  0  0  0  0  0
  162.7890  205.1610  145.5800 C   0  0  0  0  0  3  0  0  0  0  0  0
  160.5700  205.8950  144.9470 C   0  0  0  0  0  3  0  0  0  0  0  0
  160.3090  206.2460  146.2750 C   0  0  0  0  0  3  0  0  0  0  0  0
  160.2020  205.4260  149.4120 C   0  0  0  0  0  2  0  0  0  0  0  0
  161.7250  204.7210  152.3930 Cl  0  0  0  0  0  0  0  0  0  0  0  0
  161.3520  201.4330  150.5410 C   0  0  0  0  0  3  0  0  0  0  0  0
  161.5650  201.8710  149.1220 C   0  0  1  0  0  3  0  0  0  0  0  0
  161.0340  204.2070  149.7910 C   0  0  2  0  0  3  0  0  0  0  0  0
  161.0070  202.3000  151.5040 C   0  0  0  0  0  3  0  0  0  0  0  0
  161.1570  200.5430  148.0150 Cl  0  0  0  0  0  0  0  0  0  0  0  0
  160.7190  203.0920  148.7970 C   0  0  0  0  0  2  0  0  0  0  0  0
  160.7500  203.7650  151.2440 C   0  0  1  0  0  3  0  0  0  0  0  0
  1  2  1  0  0  0  0
  1 19  1  0  0  0  0
  2  6  1  0  0  0  0
  3  7  1  0  0  0  0
  3  2  2  0  0  0  0
  4  8  1  0  0  0  0
  5  4  1  0  0  0  0
  6  4  2  0  0  0  0
  7  5  2  0  0  0  0
  8  9  1  1  0  0  0
 11 10  1  0  0  0  0
 12  8  1  1  0  0  0
 12 11  1  0  0  0  0
 12 10  1  0  0  0  0
 13 17  2  0  0  0  0
 13 16  1  0  0  0  0
 14  1  1  0  0  0  0
 15 14  1  0  0  0  0
 16 15  2  0  0  0  0
 17 18  1  0  0  0  0
 18 14  2  0  0  0  0
 21 24  2  0  0  0  0
 22 25  1  6  0  0  0
 22 21  1  0  0  0  0
 23 19  1  6  0  0  0
 23 27  1  0  0  0  0
 26 22  1  0  0  0  0
 26 23  1  0  0  0  0
 27 24  1  0  0  0  0
 27 20  1  1  0  0  0
M  END
>  <MODEL>
1

>  <REMARK>
 VINA RESULT:      -8.5      0.000      0.000
  Name = 
  6 active torsions:
  status: ('A' for Active; 'I' for Inactive)
    1  A    between atoms: C_1  and  N_15
    2  A    between atoms: C_1  and  C_18
    3  A    between atoms: C_2  and  N_15
    4  A    between atoms: C_8  and  C_14
    5  A    between atoms: C_8  and  C_16
    6  A    between atoms: C_9  and  N_15
                            x       y       z     vdW  Elec       q    Type
                         _______ _______ _______ _____ _____    ______ ____

>  <TORSDO>
F 6

$$$$
=
 OpenBabel11052423083D

 27 30  0  0  1  0  0  0  0  0999 V2000
  161.0640  206.7140  148.7180 N   0  0  0  0  0  0  0  0  0  0  0  0
  161.4910  208.0020  149.2190 C   0  0  0  0  0  0  0  0  0  0  0  0
  161.8360  208.1550  150.5760 C   0  0  0  0  0  3  0  0  0  0  0  0
  161.9800  210.3650  148.8650 C   0  0  0  0  0  0  0  0  0  0  0  0
  162.3240  210.4940  150.2190 C   0  0  0  0  0  3  0  0  0  0  0  0
  161.5730  209.1220  148.3750 C   0  0  0  0  0  3  0  0  0  0  0  0
  162.2460  209.3930  151.0730 C   0  0  0  0  0  3  0  0  0  0  0  0
  162.1650  211.5030  147.9080 C   0  0  2  0  0  3  0  0  0  0  0  0
  163.3920  212.2100  148.2340 N   0  0  0  0  0  1  0  0  0  0  0  0
  161.2120  213.5060  147.0250 O   0  0  0  0  0  0  0  0  0  0  0  0
  160.3020  212.5050  146.6380 C   0  0  0  0  0  2  0  0  0  0  0  0
  160.9900  212.4700  147.9500 C   0  0  1  0  0  3  0  0  0  0  0  0
  161.7950  205.3460  144.7620 C   0  0  0  0  0  3  0  0  0  0  0  0
  161.3320  206.2760  147.3690 C   0  0  0  0  0  0  0  0  0  0  0  0
  162.5680  205.7000  147.0300 C   0  0  0  0  0  3  0  0  0  0  0  0
  162.7980  205.2390  145.7300 C   0  0  0  0  0  3  0  0  0  0  0  0
  160.5590  205.9050  145.0940 C   0  0  0  0  0  3  0  0  0  0  0  0
  160.3280  206.3660  146.3940 C   0  0  0  0  0  3  0  0  0  0  0  0
  160.2620  205.8370  149.5750 C   0  0  0  0  0  2  0  0  0  0  0  0
  161.8300  205.3300  152.5710 Cl  0  0  0  0  0  0  0  0  0  0  0  0
  161.3070  201.9140  151.0090 C   0  0  0  0  0  3  0  0  0  0  0  0
  161.5010  202.2250  149.5540 C   0  0  1  0  0  3  0  0  0  0  0  0
  161.0630  204.6260  150.0370 C   0  0  2  0  0  3  0  0  0  0  0  0
  161.0140  202.8700  151.9030 C   0  0  0  0  0  3  0  0  0  0  0  0
  161.0240  200.8260  148.5700 Cl  0  0  0  0  0  0  0  0  0  0  0  0
  160.6880  203.4440  149.1460 C   0  0  0  0  0  2  0  0  0  0  0  0
  160.7980  204.3160  151.5270 C   0  0  1  0  0  3  0  0  0  0  0  0
  1  2  1  0  0  0  0
  1 19  1  0  0  0  0
  2  3  1  0  0  0  0
  3  7  2  0  0  0  0
  4  5  2  0  0  0  0
  5  7  1  0  0  0  0
  6  4  1  0  0  0  0
  6  2  2  0  0  0  0
  8  9  1  1  0  0  0
  8  4  1  0  0  0  0
 10 12  1  0  0  0  0
 11 10  1  0  0  0  0
 11 12  1  0  0  0  0
 12  8  1  6  0  0  0
 13 17  2  0  0  0  0
 13 16  1  0  0  0  0
 14  1  1  0  0  0  0
 15 14  1  0  0  0  0
 16 15  2  0  0  0  0
 17 18  1  0  0  0  0
 18 14  2  0  0  0  0
 21 24  2  0  0  0  0
 22 25  1  6  0  0  0
 22 21  1  0  0  0  0
 23 19  1  6  0  0  0
 23 27  1  0  0  0  0
 26 22  1  0  0  0  0
 26 23  1  0  0  0  0
 27 24  1  0  0  0  0
 27 20  1  1  0  0  0
M  END
>  <MODEL>
2

>  <REMARK>
 VINA RESULT:      -8.0      2.269      3.048
  Name = 
  6 active torsions:
  status: ('A' for Active; 'I' for Inactive)
    1  A    between atoms: C_1  and  N_15
    2  A    between atoms: C_1  and  C_18
    3  A    between atoms: C_2  and  N_15
    4  A    between atoms: C_8  and  C_14
    5  A    between atoms: C_8  and  C_16
    6  A    between atoms: C_9  and  N_15
                            x       y       z     vdW  Elec       q    Type
                         _______ _______ _______ _____ _____    ______ ____

>  <TORSDO>
F 6

$$$$
=
 OpenBabel11052423083D

 27 30  0  0  1  0  0  0  0  0999 V2000
  161.3210  209.1710  153.4510 N   0  0  0  0  0  0  0  0  0  0  0  0
  161.4010  208.3990  152.2310 C   0  0  0  0  0  0  0  0  0  0  0  0
  161.9060  208.9840  151.0540 C   0  0  0  0  0  3  0  0  0  0  0  0
  161.0570  206.3180  151.0060 C   0  0  0  0  0  0  0  0  0  0  0  0
  161.5690  206.9200  149.8460 C   0  0  0  0  0  3  0  0  0  0  0  0
  160.9830  207.0580  152.1880 C   0  0  0  0  0  3  0  0  0  0  0  0
  161.9860  208.2510  149.8690 C   0  0  0  0  0  3  0  0  0  0  0  0
  160.7100  204.8610  151.0330 C   0  0  2  0  0  3  0  0  0  0  0  0
  160.8650  204.3550  152.3870 N   0  0  0  0  0  1  0  0  0  0  0  0
  161.2130  202.7020  150.1460 O   0  0  0  0  0  0  0  0  0  0  0  0
  160.7620  203.4250  149.0270 C   0  0  0  0  0  2  0  0  0  0  0  0
  161.5880  204.0560  150.0830 C   0  0  1  0  0  3  0  0  0  0  0  0
  160.5860  207.4360  157.2600 C   0  0  0  0  0  3  0  0  0  0  0  0
  161.1010  208.5660  154.7420 C   0  0  0  0  0  0  0  0  0  0  0  0
  161.7980  209.0130  155.8770 C   0  0  0  0  0  3  0  0  0  0  0  0
  161.5420  208.4480  157.1300 C   0  0  0  0  0  3  0  0  0  0  0  0
  159.8790  206.9940  156.1380 C   0  0  0  0  0  3  0  0  0  0  0  0
  160.1340  207.5590  154.8850 C   0  0  0  0  0  3  0  0  0  0  0  0
  161.3890  210.6330  153.3840 C   0  0  0  0  0  2  0  0  0  0  0  0
  158.9360  210.9970  155.7400 Cl  0  0  0  0  0  0  0  0  0  0  0  0
  158.1900  213.4860  152.9770 C   0  0  0  0  0  3  0  0  0  0  0  0
  158.6300  212.7180  151.7650 C   0  0  1  0  0  3  0  0  0  0  0  0
  160.0040  211.2490  153.2290 C   0  0  2  0  0  3  0  0  0  0  0  0
  158.6170  213.1690  154.2090 C   0  0  0  0  0  3  0  0  0  0  0  0
  158.6440  213.7880  150.3480 Cl  0  0  0  0  0  0  0  0  0  0  0  0
  160.0120  212.1190  151.9740 C   0  0  0  0  0  2  0  0  0  0  0  0
  159.6110  212.0650  154.4800 C   0  0  1  0  0  3  0  0  0  0  0  0
  1 14  1  0  0  0  0
  2  1  1  0  0  0  0
  3  2  2  0  0  0  0
  4  8  1  0  0  0  0
  4  6  2  0  0  0  0
  5  7  2  0  0  0  0
  5  4  1  0  0  0  0
  6  2  1  0  0  0  0
  7  3  1  0  0  0  0
  8  9  1  1  0  0  0
 11 12  1  0  0  0  0
 11 10  1  0  0  0  0
 12 10  1  0  0  0  0
 12  8  1  1  0  0  0
 14 18  2  0  0  0  0
 14 15  1  0  0  0  0
 15 16  2  0  0  0  0
 16 13  1  0  0  0  0
 17 13  2  0  0  0  0
 18 17  1  0  0  0  0
 19  1  1  0  0  0  0
 21 24  2  0  0  0  0
 22 25  1  6  0  0  0
 22 26  1  0  0  0  0
 22 21  1  0  0  0  0
 23 19  1  1  0  0  0
 23 27  1  0  0  0  0
 24 27  1  0  0  0  0
 26 23  1  0  0  0  0
 27 20  1  1  0  0  0
M  END
>  <MODEL>
3

>  <REMARK>
 VINA RESULT:      -6.5      4.132      8.477
  Name = 
  6 active torsions:
  status: ('A' for Active; 'I' for Inactive)
    1  A    between atoms: C_1  and  N_15
    2  A    between atoms: C_1  and  C_18
    3  A    between atoms: C_2  and  N_15
    4  A    between atoms: C_8  and  C_14
    5  A    between atoms: C_8  and  C_16
    6  A    between atoms: C_9  and  N_15
                            x       y       z     vdW  Elec       q    Type
                         _______ _______ _______ _____ _____    ______ ____

>  <TORSDO>
F 6

$$$$
=
 OpenBabel11052423083D

 27 30  0  0  1  0  0  0  0  0999 V2000
  161.6710  207.8100  151.8680 N   0  0  0  0  0  0  0  0  0  0  0  0
  161.4190  206.3940  151.7100 C   0  0  0  0  0  0  0  0  0  0  0  0
  161.2980  205.5660  152.8430 C   0  0  0  0  0  3  0  0  0  0  0  0
  161.0500  204.4460  150.2910 C   0  0  0  0  0  0  0  0  0  0  0  0
  160.9280  203.6410  151.4320 C   0  0  0  0  0  3  0  0  0  0  0  0
  161.2870  205.8150  150.4370 C   0  0  0  0  0  3  0  0  0  0  0  0
  161.0590  204.1980  152.7050 C   0  0  0  0  0  3  0  0  0  0  0  0
  160.8010  203.8910  148.9210 C   0  0  2  0  0  3  0  0  0  0  0  0
  160.7640  202.4400  148.9900 N   0  0  0  0  0  1  0  0  0  0  0  0
  161.5770  203.7970  146.6660 O   0  0  0  0  0  0  0  0  0  0  0  0
  161.2770  205.1570  146.8580 C   0  0  0  0  0  2  0  0  0  0  0  0
  161.8730  204.3310  147.9330 C   0  0  1  0  0  3  0  0  0  0  0  0
  162.1160  210.4200  148.5440 C   0  0  0  0  0  3  0  0  0  0  0  0
  161.7920  208.7090  150.7460 C   0  0  0  0  0  0  0  0  0  0  0  0
  162.0310  210.0790  150.9410 C   0  0  0  0  0  3  0  0  0  0  0  0
  162.1900  210.9310  149.8430 C   0  0  0  0  0  3  0  0  0  0  0  0
  161.8920  209.0560  148.3410 C   0  0  0  0  0  3  0  0  0  0  0  0
  161.7330  208.2040  149.4380 C   0  0  0  0  0  3  0  0  0  0  0  0
  161.8900  208.3580  153.2090 C   0  0  0  0  0  2  0  0  0  0  0  0
  159.9180  206.9730  155.6360 Cl  0  0  0  0  0  0  0  0  0  0  0  0
  159.0940  210.6730  155.5250 C   0  0  0  0  0  3  0  0  0  0  0  0
  159.2250  210.9580  154.0570 C   0  0  1  0  0  3  0  0  0  0  0  0
  160.5970  208.8980  153.8080 C   0  0  2  0  0  3  0  0  0  0  0  0
  159.6640  209.5990  156.0900 C   0  0  0  0  0  3  0  0  0  0  0  0
  159.1620  212.7100  153.7770 Cl  0  0  0  0  0  0  0  0  0  0  0  0
  160.5260  210.3930  153.5090 C   0  0  0  0  0  2  0  0  0  0  0  0
  160.5260  208.6220  155.3260 C   0  0  1  0  0  3  0  0  0  0  0  0
  1 19  1  0  0  0  0
  2  1  1  0  0  0  0
  2  3  1  0  0  0  0
  4  6  1  0  0  0  0
  4  5  2  0  0  0  0
  5  7  1  0  0  0  0
  6  2  2  0  0  0  0
  7  3  2  0  0  0  0
  8  9  1  1  0  0  0
  8  4  1  0  0  0  0
 10 11  1  0  0  0  0
 10 12  1  0  0  0  0
 11 12  1  0  0  0  0
 12  8  1  1  0  0  0
 13 16  1  0  0  0  0
 14 15  1  0  0  0  0
 14  1  1  0  0  0  0
 16 15  2  0  0  0  0
 17 13  2  0  0  0  0
 17 18  1  0  0  0  0
 18 14  2  0  0  0  0
 21 24  2  0  0  0  0
 22 25  1  1  0  0  0
 22 21  1  0  0  0  0
 23 19  1  1  0  0  0
 23 27  1  0  0  0  0
 26 23  1  0  0  0  0
 26 22  1  0  0  0  0
 27 20  1  6  0  0  0
 27 24  1  0  0  0  0
M  END
>  <MODEL>
4

>  <REMARK>
 VINA RESULT:      -6.5      3.213      7.176
  Name = 
  6 active torsions:
  status: ('A' for Active; 'I' for Inactive)
    1  A    between atoms: C_1  and  N_15
    2  A    between atoms: C_1  and  C_18
    3  A    between atoms: C_2  and  N_15
    4  A    between atoms: C_8  and  C_14
    5  A    between atoms: C_8  and  C_16
    6  A    between atoms: C_9  and  N_15
                            x       y       z     vdW  Elec       q    Type
                         _______ _______ _______ _____ _____    ______ ____

>  <TORSDO>
F 6

$$$$
=
 OpenBabel11052423083D

 27 30  0  0  1  0  0  0  0  0999 V2000
  161.0240  209.4830  153.4380 N   0  0  0  0  0  0  0  0  0  0  0  0
  160.1730  210.6100  153.1280 C   0  0  0  0  0  0  0  0  0  0  0  0
  160.5140  211.4880  152.0810 C   0  0  0  0  0  3  0  0  0  0  0  0
  158.1810  211.9510  153.5540 C   0  0  0  0  0  0  0  0  0  0  0  0
  158.5370  212.8090  152.5030 C   0  0  0  0  0  3  0  0  0  0  0  0
  158.9960  210.8570  153.8540 C   0  0  0  0  0  3  0  0  0  0  0  0
  159.7040  212.5820  151.7730 C   0  0  0  0  0  3  0  0  0  0  0  0
  156.8770  212.1100  154.2760 C   0  0  2  0  0  3  0  0  0  0  0  0
  156.7970  213.4490  154.8340 N   0  0  0  0  0  1  0  0  0  0  0  0
  155.5730  211.3870  156.1400 O   0  0  0  0  0  0  0  0  0  0  0  0
  155.4570  210.3280  155.2220 C   0  0  0  0  0  2  0  0  0  0  0  0
  156.7220  211.0810  155.3880 C   0  0  1  0  0  3  0  0  0  0  0  0
  160.7290  207.4420  157.1540 C   0  0  0  0  0  3  0  0  0  0  0  0
  160.9550  208.7790  154.6960 C   0  0  0  0  0  0  0  0  0  0  0  0
  161.6270  209.2620  155.8310 C   0  0  0  0  0  3  0  0  0  0  0  0
  161.5160  208.5930  157.0550 C   0  0  0  0  0  3  0  0  0  0  0  0
  160.0460  206.9620  156.0330 C   0  0  0  0  0  3  0  0  0  0  0  0
  160.1580  207.6300  154.8100 C   0  0  0  0  0  3  0  0  0  0  0  0
  162.0530  209.0710  152.4800 C   0  0  0  0  0  2  0  0  0  0  0  0
  161.9540  210.0460  149.2030 Cl  0  0  0  0  0  0  0  0  0  0  0  0
  161.4340  206.2900  149.2520 C   0  0  0  0  0  3  0  0  0  0  0  0
  160.6370  206.1210  150.5120 C   0  0  1  0  0  3  0  0  0  0  0  0
  161.4450  208.3420  151.2880 C   0  0  2  0  0  3  0  0  0  0  0  0
  162.1760  207.3850  149.0250 C   0  0  0  0  0  3  0  0  0  0  0  0
  160.5040  204.3960  150.9130 Cl  0  0  0  0  0  0  0  0  0  0  0  0
  161.2810  206.8720  151.6670 C   0  0  0  0  0  2  0  0  0  0  0  0
  162.3210  208.5060  150.0260 C   0  0  1  0  0  3  0  0  0  0  0  0
  1 14  1  0  0  0  0
  2  1  1  0  0  0  0
  2  6  1  0  0  0  0
  3  2  2  0  0  0  0
  4  6  2  0  0  0  0
  4  8  1  0  0  0  0
  5  4  1  0  0  0  0
  7  3  1  0  0  0  0
  7  5  2  0  0  0  0
  8  9  1  1  0  0  0
 11 12  1  0  0  0  0
 11 10  1  0  0  0  0
 12  8  1  6  0  0  0
 12 10  1  0  0  0  0
 14 18  2  0  0  0  0
 14 15  1  0  0  0  0
 15 16  2  0  0  0  0
 16 13  1  0  0  0  0
 17 13  2  0  0  0  0
 18 17  1  0  0  0  0
 19  1  1  0  0  0  0
 21 22  1  0  0  0  0
 22 25  1  1  0  0  0
 22 26  1  0  0  0  0
 23 26  1  0  0  0  0
 23 19  1  1  0  0  0
 24 21  2  0  0  0  0
 24 27  1  0  0  0  0
 27 20  1  6  0  0  0
 27 23  1  0  0  0  0
M  END
>  <MODEL>
5

>  <REMARK>
 VINA RESULT:      -6.3      3.334      6.754
  Name = 
  6 active torsions:
  status: ('A' for Active; 'I' for Inactive)
    1  A    between atoms: C_1  and  N_15
    2  A    between atoms: C_1  and  C_18
    3  A    between atoms: C_2  and  N_15
    4  A    between atoms: C_8  and  C_14
    5  A    between atoms: C_8  and  C_16
    6  A    between atoms: C_9  and  N_15
                            x       y       z     vdW  Elec       q    Type
                         _______ _______ _______ _____ _____    ______ ____

>  <TORSDO>
F 6

$$$$
=
 OpenBabel11052423083D

 27 30  0  0  1  0  0  0  0  0999 V2000
  161.8470  206.4930  149.2420 N   0  0  0  0  0  0  0  0  0  0  0  0
  161.8430  207.9040  149.5590 C   0  0  0  0  0  0  0  0  0  0  0  0
  162.0740  208.8570  148.5500 C   0  0  0  0  0  3  0  0  0  0  0  0
  161.6120  209.7200  151.1710 C   0  0  0  0  0  0  0  0  0  0  0  0
  161.8390  210.6530  150.1480 C   0  0  0  0  0  3  0  0  0  0  0  0
  161.6090  208.3560  150.8690 C   0  0  0  0  0  3  0  0  0  0  0  0
  162.0760  210.2220  148.8420 C   0  0  0  0  0  3  0  0  0  0  0  0
  161.2440  210.1620  152.5540 C   0  0  2  0  0  3  0  0  0  0  0  0
  161.2540  209.0140  153.4450 N   0  0  0  0  0  1  0  0  0  0  0  0
  159.5180  211.0820  153.9230 O   0  0  0  0  0  0  0  0  0  0  0  0
  159.9680  212.1820  153.1710 C   0  0  0  0  0  2  0  0  0  0  0  0
  159.8730  210.8240  152.5870 C   0  0  1  0  0  3  0  0  0  0  0  0
  160.7900  203.4460  152.0100 C   0  0  0  0  0  3  0  0  0  0  0  0
  161.4670  205.4790  150.1970 C   0  0  0  0  0  0  0  0  0  0  0  0
  160.2260  204.8280  150.1020 C   0  0  0  0  0  3  0  0  0  0  0  0
  159.8890  203.8160  151.0080 C   0  0  0  0  0  3  0  0  0  0  0  0
  162.0320  204.0800  152.1030 C   0  0  0  0  0  3  0  0  0  0  0  0
  162.3690  205.0910  151.1980 C   0  0  0  0  0  3  0  0  0  0  0  0
  162.3240  206.0500  147.9300 C   0  0  0  0  0  2  0  0  0  0  0  0
  160.2350  206.3140  145.2340 Cl  0  0  0  0  0  0  0  0  0  0  0  0
  160.8810  202.6160  145.7710 C   0  0  0  0  0  3  0  0  0  0  0  0
  160.9580  202.5470  147.2680 C   0  0  1  0  0  3  0  0  0  0  0  0
  161.4050  204.9930  147.3310 C   0  0  2  0  0  3  0  0  0  0  0  0
  161.0530  203.7680  145.1060 C   0  0  0  0  0  3  0  0  0  0  0  0
  161.5400  200.9450  147.7670 Cl  0  0  0  0  0  0  0  0  0  0  0  0
  161.8800  203.6250  147.8150 C   0  0  0  0  0  2  0  0  0  0  0  0
  161.3910  205.0720  145.7880 C   0  0  1  0  0  3  0  0  0  0  0  0
  1  2  1  0  0  0  0
  1 14  1  0  0  0  0
  2  6  1  0  0  0  0
  3  7  1  0  0  0  0
  3  2  2  0  0  0  0
  4  8  1  0  0  0  0
  5  4  1  0  0  0  0
  6  4  2  0  0  0  0
  7  5  2  0  0  0  0
  8  9  1  1  0  0  0
 11 10  1  0  0  0  0
 12  8  1  1  0  0  0
 12 11  1  0  0  0  0
 12 10  1  0  0  0  0
 13 17  1  0  0  0  0
 14 18  1  0  0  0  0
 15 14  2  0  0  0  0
 15 16  1  0  0  0  0
 16 13  2  0  0  0  0
 18 17  2  0  0  0  0
 19  1  1  0  0  0  0
 21 22  1  0  0  0  0
 22 25  1  6  0  0  0
 22 26  1  0  0  0  0
 23 26  1  0  0  0  0
 23 19  1  1  0  0  0
 24 21  2  0  0  0  0
 24 27  1  0  0  0  0
 27 20  1  1  0  0  0
 27 23  1  0  0  0  0
M  END
>  <MODEL>
6

>  <REMARK>
 VINA RESULT:      -6.2      1.758      3.825
  Name = 
  6 active torsions:
  status: ('A' for Active; 'I' for Inactive)
    1  A    between atoms: C_1  and  N_15
    2  A    between atoms: C_1  and  C_18
    3  A    between atoms: C_2  and  N_15
    4  A    between atoms: C_8  and  C_14
    5  A    between atoms: C_8  and  C_16
    6  A    between atoms: C_9  and  N_15
                            x       y       z     vdW  Elec       q    Type
                         _______ _______ _______ _____ _____    ______ ____

>  <TORSDO>
F 6

$$$$
=
 OpenBabel11052423083D

 27 30  0  0  1  0  0  0  0  0999 V2000
  161.5980  208.3690  151.9410 N   0  0  0  0  0  0  0  0  0  0  0  0
  161.3340  207.3970  150.9040 C   0  0  0  0  0  0  0  0  0  0  0  0
  161.3420  207.7850  149.5510 C   0  0  0  0  0  3  0  0  0  0  0  0
  160.8050  205.1200  150.2100 C   0  0  0  0  0  0  0  0  0  0  0  0
  160.8230  205.5270  148.8680 C   0  0  0  0  0  3  0  0  0  0  0  0
  161.0650  206.0530  151.2150 C   0  0  0  0  0  3  0  0  0  0  0  0
  161.0840  206.8580  148.5400 C   0  0  0  0  0  3  0  0  0  0  0  0
  160.6390  203.6770  150.5780 C   0  0  2  0  0  3  0  0  0  0  0  0
  161.5350  203.3550  151.6760 N   0  0  0  0  0  1  0  0  0  0  0  0
  161.1020  201.4450  149.8680 O   0  0  0  0  0  0  0  0  0  0  0  0
  159.8630  201.7340  149.2690 C   0  0  0  0  0  2  0  0  0  0  0  0
  160.9260  202.7590  149.3970 C   0  0  1  0  0  3  0  0  0  0  0  0
  160.4160  207.8470  155.9900 C   0  0  0  0  0  3  0  0  0  0  0  0
  161.1650  208.1890  153.3060 C   0  0  0  0  0  0  0  0  0  0  0  0
  160.7840  206.9230  153.7810 C   0  0  0  0  0  3  0  0  0  0  0  0
  160.4090  206.7540  155.1180 C   0  0  0  0  0  3  0  0  0  0  0  0
  160.8060  209.1070  155.5290 C   0  0  0  0  0  3  0  0  0  0  0  0
  161.1810  209.2760  154.1930 C   0  0  0  0  0  3  0  0  0  0  0  0
  162.2660  209.6270  151.5970 C   0  0  0  0  0  2  0  0  0  0  0  0
  159.2570  211.0150  152.4450 Cl  0  0  0  0  0  0  0  0  0  0  0  0
  160.6390  213.0560  149.5630 C   0  0  0  0  0  3  0  0  0  0  0  0
  161.3210  211.9930  148.7530 C   0  0  1  0  0  3  0  0  0  0  0  0
  161.3630  210.5260  150.7620 C   0  0  2  0  0  3  0  0  0  0  0  0
  160.3440  212.8770  150.8590 C   0  0  0  0  0  3  0  0  0  0  0  0
  162.2990  212.7450  147.4760 Cl  0  0  0  0  0  0  0  0  0  0  0  0
  162.2020  211.1200  149.6330 C   0  0  0  0  0  2  0  0  0  0  0  0
  160.7180  211.6310  151.6270 C   0  0  1  0  0  3  0  0  0  0  0  0
  1 14  1  0  0  0  0
  2  6  1  0  0  0  0
  2  1  1  0  0  0  0
  3  2  2  0  0  0  0
  4  8  1  0  0  0  0
  4  6  2  0  0  0  0
  5  4  1  0  0  0  0
  7  5  2  0  0  0  0
  7  3  1  0  0  0  0
  8  9  1  1  0  0  0
 11 12  1  0  0  0  0
 11 10  1  0  0  0  0
 12 10  1  0  0  0  0
 12  8  1  1  0  0  0
 14 15  2  0  0  0  0
 14 18  1  0  0  0  0
 15 16  1  0  0  0  0
 16 13  2  0  0  0  0
 17 13  1  0  0  0  0
 18 17  2  0  0  0  0
 19  1  1  0  0  0  0
 21 24  2  0  0  0  0
 22 25  1  6  0  0  0
 22 21  1  0  0  0  0
 22 26  1  0  0  0  0
 23 19  1  1  0  0  0
 23 27  1  0  0  0  0
 24 27  1  0  0  0  0
 26 23  1  0  0  0  0
 27 20  1  6  0  0  0
M  END
>  <MODEL>
7

>  <REMARK>
 VINA RESULT:      -6.2      3.767      7.911
  Name = 
  6 active torsions:
  status: ('A' for Active; 'I' for Inactive)
    1  A    between atoms: C_1  and  N_15
    2  A    between atoms: C_1  and  C_18
    3  A    between atoms: C_2  and  N_15
    4  A    between atoms: C_8  and  C_14
    5  A    between atoms: C_8  and  C_16
    6  A    between atoms: C_9  and  N_15
                            x       y       z     vdW  Elec       q    Type
                         _______ _______ _______ _____ _____    ______ ____

>  <TORSDO>
F 6

$$$$
=
 OpenBabel11052423083D

 27 30  0  0  1  0  0  0  0  0999 V2000
  160.7520  205.6280  150.6960 N   0  0  0  0  0  0  0  0  0  0  0  0
  160.9260  206.2350  151.9970 C   0  0  0  0  0  0  0  0  0  0  0  0
  161.2280  205.4360  153.1170 C   0  0  0  0  0  3  0  0  0  0  0  0
  160.9650  208.2030  153.4370 C   0  0  0  0  0  0  0  0  0  0  0  0
  161.2710  207.3890  154.5370 C   0  0  0  0  0  3  0  0  0  0  0  0
  160.8020  207.6230  152.1770 C   0  0  0  0  0  3  0  0  0  0  0  0
  161.3950  206.0080  154.3790 C   0  0  0  0  0  3  0  0  0  0  0  0
  160.9390  209.6960  153.5620 C   0  0  2  0  0  3  0  0  0  0  0  0
  161.9090  210.2720  152.6460 N   0  0  0  0  0  1  0  0  0  0  0  0
  161.0890  211.5410  155.0700 O   0  0  0  0  0  0  0  0  0  0  0  0
  160.0490  210.7580  155.6040 C   0  0  0  0  0  2  0  0  0  0  0  0
  161.2480  210.1460  154.9840 C   0  0  1  0  0  3  0  0  0  0  0  0
  161.9820  207.4490  147.0580 C   0  0  0  0  0  3  0  0  0  0  0  0
  161.1620  206.2760  149.4740 C   0  0  0  0  0  0  0  0  0  0  0  0
  162.3730  206.9870  149.4040 C   0  0  0  0  0  3  0  0  0  0  0  0
  162.7790  207.5720  148.2010 C   0  0  0  0  0  3  0  0  0  0  0  0
  160.7830  206.7330  147.1150 C   0  0  0  0  0  3  0  0  0  0  0  0
  160.3770  206.1470  148.3180 C   0  0  0  0  0  3  0  0  0  0  0  0
  160.0670  204.3380  150.5880 C   0  0  0  0  0  2  0  0  0  0  0  0
  162.1140  202.0090  152.0310 Cl  0  0  0  0  0  0  0  0  0  0  0  0
  161.3800  200.8020  148.5110 C   0  0  0  0  0  3  0  0  0  0  0  0
  161.3270  202.1010  147.7620 C   0  0  1  0  0  3  0  0  0  0  0  0
  160.9470  203.2950  149.9110 C   0  0  2  0  0  3  0  0  0  0  0  0
  161.2270  200.7470  149.8430 C   0  0  0  0  0  3  0  0  0  0  0  0
  160.7110  201.8240  146.1200 Cl  0  0  0  0  0  0  0  0  0  0  0  0
  160.4440  203.1080  148.4820 C   0  0  0  0  0  2  0  0  0  0  0  0
  160.9360  201.9620  150.6920 C   0  0  1  0  0  3  0  0  0  0  0  0
  1  2  1  0  0  0  0
  2  6  2  0  0  0  0
  2  3  1  0  0  0  0
  3  7  2  0  0  0  0
  4  8  1  0  0  0  0
  4  5  2  0  0  0  0
  6  4  1  0  0  0  0
  7  5  1  0  0  0  0
  8  9  1  6  0  0  0
 10 11  1  0  0  0  0
 12  8  1  6  0  0  0
 12 10  1  0  0  0  0
 12 11  1  0  0  0  0
 13 17  2  0  0  0  0
 13 16  1  0  0  0  0
 14  1  1  0  0  0  0
 15 14  1  0  0  0  0
 16 15  2  0  0  0  0
 17 18  1  0  0  0  0
 18 14  2  0  0  0  0
 19  1  1  0  0  0  0
 21 24  2  0  0  0  0
 22 25  1  6  0  0  0
 22 26  1  0  0  0  0
 22 21  1  0  0  0  0
 23 19  1  1  0  0  0
 23 27  1  0  0  0  0
 24 27  1  0  0  0  0
 26 23  1  0  0  0  0
 27 20  1  1  0  0  0
M  END
>  <MODEL>
8

>  <REMARK>
 VINA RESULT:      -6.2      1.883      2.886
  Name = 
  6 active torsions:
  status: ('A' for Active; 'I' for Inactive)
    1  A    between atoms: C_1  and  N_15
    2  A    between atoms: C_1  and  C_18
    3  A    between atoms: C_2  and  N_15
    4  A    between atoms: C_8  and  C_14
    5  A    between atoms: C_8  and  C_16
    6  A    between atoms: C_9  and  N_15
                            x       y       z     vdW  Elec       q    Type
                         _______ _______ _______ _____ _____    ______ ____

>  <TORSDO>
F 6

$$$$
=
 OpenBabel11052423083D

 27 30  0  0  1  0  0  0  0  0999 V2000
  161.7910  208.5430  150.9950 N   0  0  0  0  0  0  0  0  0  0  0  0
  161.4640  208.0130  152.3000 C   0  0  0  0  0  0  0  0  0  0  0  0
  161.4350  206.6210  152.5110 C   0  0  0  0  0  3  0  0  0  0  0  0
  160.8480  208.3450  154.6360 C   0  0  0  0  0  0  0  0  0  0  0  0
  160.8310  206.9550  154.8260 C   0  0  0  0  0  3  0  0  0  0  0  0
  161.1700  208.8630  153.3790 C   0  0  0  0  0  3  0  0  0  0  0  0
  161.1170  206.0950  153.7640 C   0  0  0  0  0  3  0  0  0  0  0  0
  160.6560  209.2850  155.7860 C   0  0  2  0  0  3  0  0  0  0  0  0
  159.3500  209.9140  155.6800 N   0  0  0  0  0  1  0  0  0  0  0  0
  161.6340  211.0750  157.0280 O   0  0  0  0  0  0  0  0  0  0  0  0
  162.6620  210.1180  156.9570 C   0  0  0  0  0  2  0  0  0  0  0  0
  161.7380  210.3560  155.8230 C   0  0  1  0  0  3  0  0  0  0  0  0
  161.4760  206.1620  147.4890 C   0  0  0  0  0  3  0  0  0  0  0  0
  161.6790  207.7620  149.7860 C   0  0  0  0  0  0  0  0  0  0  0  0
  162.7060  207.7630  148.8280 C   0  0  0  0  0  3  0  0  0  0  0  0
  162.6030  206.9670  147.6830 C   0  0  0  0  0  3  0  0  0  0  0  0
  160.4560  206.1450  148.4430 C   0  0  0  0  0  3  0  0  0  0  0  0
  160.5580  206.9410  149.5880 C   0  0  0  0  0  3  0  0  0  0  0  0
  162.3310  209.9010  150.8830 C   0  0  0  0  0  2  0  0  0  0  0  0
  159.4750  211.4080  152.0110 Cl  0  0  0  0  0  0  0  0  0  0  0  0
  160.6200  213.3550  148.9640 C   0  0  0  0  0  3  0  0  0  0  0  0
  161.1780  212.2560  148.1080 C   0  0  1  0  0  3  0  0  0  0  0  0
  161.3780  210.8190  150.1290 C   0  0  2  0  0  3  0  0  0  0  0  0
  160.4560  213.2060  150.2870 C   0  0  0  0  0  3  0  0  0  0  0  0
  162.0440  212.9540  146.7230 Cl  0  0  0  0  0  0  0  0  0  0  0  0
  162.1150  211.3660  148.9090 C   0  0  0  0  0  2  0  0  0  0  0  0
  160.8640  211.9590  151.0350 C   0  0  1  0  0  3  0  0  0  0  0  0
  1  2  1  0  0  0  0
  2  3  2  0  0  0  0
  2  6  1  0  0  0  0
  3  7  1  0  0  0  0
  4  5  1  0  0  0  0
  4  8  1  0  0  0  0
  6  4  2  0  0  0  0
  7  5  2  0  0  0  0
  8  9  1  6  0  0  0
 11 10  1  0  0  0  0
 12  8  1  1  0  0  0
 12 11  1  0  0  0  0
 12 10  1  0  0  0  0
 13 16  2  0  0  0  0
 13 17  1  0  0  0  0
 14  1  1  0  0  0  0
 15 14  2  0  0  0  0
 16 15  1  0  0  0  0
 17 18  2  0  0  0  0
 18 14  1  0  0  0  0
 19  1  1  0  0  0  0
 21 24  2  0  0  0  0
 22 25  1  6  0  0  0
 22 26  1  0  0  0  0
 22 21  1  0  0  0  0
 23 19  1  1  0  0  0
 23 27  1  0  0  0  0
 24 27  1  0  0  0  0
 26 23  1  0  0  0  0
 27 20  1  6  0  0  0
M  END
>  <MODEL>
9

>  <REMARK>
 VINA RESULT:      -6.1      3.619      6.211
  Name = 
  6 active torsions:
  status: ('A' for Active; 'I' for Inactive)
    1  A    between atoms: C_1  and  N_15
    2  A    between atoms: C_1  and  C_18
    3  A    between atoms: C_2  and  N_15
    4  A    between atoms: C_8  and  C_14
    5  A    between atoms: C_8  and  C_16
    6  A    between atoms: C_9  and  N_15
                            x       y       z     vdW  Elec       q    Type
                         _______ _______ _______ _____ _____    ______ ____

>  <TORSDO>
F 6

$$$$
