=
 OpenBabel11052422573D

 28 30  0  0  1  0  0  0  0  0999 V2000
  161.2920  207.5120  150.4650 C   0  0  1  0  0  3  0  0  0  0  0  0
  158.9570  211.5120  152.6790 C   0  0  0  0  0  2  0  0  0  0  0  0
  161.2510  207.2000  156.2870 C   0  0  0  0  0  1  0  0  0  0  0  0
  160.4110  211.8500  154.6230 C   0  0  1  0  0  3  0  0  0  0  0  0
  160.7840  209.8100  153.3360 C   0  0  2  0  0  3  0  0  0  0  0  0
  158.2500  213.1100  154.4820 C   0  0  0  0  0  0  0  0  0  0  0  0
  159.7060  210.7800  153.7860 C   0  0  2  0  0  3  0  0  0  0  0  0
  161.3520  210.0590  155.7900 C   0  0  0  0  0  2  0  0  0  0  0  0
  159.3890  212.6840  155.3870 C   0  0  0  0  0  2  0  0  0  0  0  0
  160.6130  206.6760  153.9540 C   0  0  0  0  0  2  0  0  0  0  0  0
  160.4210  208.9550  152.1270 C   0  0  0  0  0  2  0  0  0  0  0  0
  161.5100  211.4110  155.4150 O   0  0  0  0  0  0  0  0  0  0  0  0
  161.8870  205.5610  152.0840 C   0  0  0  0  0  2  0  0  0  0  0  0
  160.6550  207.7790  155.0100 C   0  0  2  0  0  3  0  0  0  0  0  0
  161.9910  206.3650  153.3790 C   0  0  0  0  0  2  0  0  0  0  0  0
  157.3660  214.0780  154.9370 O   0  0  0  0  0  1  0  0  0  0  0  0
  158.0350  212.5450  153.2800 C   0  0  0  0  0  3  0  0  0  0  0  0
  161.3780  209.0850  154.5800 C   0  0  1  0  0  3  0  0  0  0  0  0
  160.8940  206.1580  151.0830 C   0  0  0  0  0  2  0  0  0  0  0  0
  161.6400  208.5260  151.4570 N   0  0  0  0  0  2  0  0  0  0  0  0
  162.3120  207.4360  149.3140 C   0  0  2  0  0  3  0  0  0  0  0  0
  162.3210  208.5960  148.5370 O   0  0  0  0  0  1  0  0  0  0  0  0
  162.2980  206.1670  148.4520 C   0  0  0  0  0  2  0  0  0  0  0  0
  161.4890  205.7040  146.0720 N   0  0  0  0  0  0  0  0  0  0  0  0
  160.0660  206.5270  147.7310 O   0  0  0  0  0  0  0  0  0  0  0  0
  161.2250  206.1540  147.4080 C   0  0  0  0  0  0  0  0  0  0  0  0
  162.9660  204.8180  145.6720 S   0  0  0  0  0  1  0  0  0  0  0  0
  160.4920  205.8760  145.0280 C   0  0  0  0  0  1  0  0  0  0  0  0
  1 21  1  6  0  0  0
  1 19  1  0  0  0  0
  1 20  1  0  0  0  0
  2 17  1  0  0  0  0
  4  9  1  1  0  0  0
  4 12  1  0  0  0  0
  5 11  1  6  0  0  0
  5  7  1  0  0  0  0
  5 18  1  0  0  0  0
  6 16  1  0  0  0  0
  6  9  1  0  0  0  0
  7  2  1  6  0  0  0
  7  4  1  0  0  0  0
 10 14  1  0  0  0  0
 12  8  1  0  0  0  0
 13 15  1  0  0  0  0
 14  3  1  1  0  0  0
 15 10  1  0  0  0  0
 17  6  2  0  0  0  0
 18 14  1  0  0  0  0
 18  8  1  1  0  0  0
 19 13  1  0  0  0  0
 20 11  1  0  0  0  0
 21 22  1  6  0  0  0
 23 21  1  0  0  0  0
 24 26  1  0  0  0  0
 26 25  2  0  0  0  0
 26 23  1  0  0  0  0
 27 24  1  0  0  0  0
 28 24  1  0  0  0  0
M  END
>  <MODEL>
1

>  <REMARK>
 VINA RESULT:      -7.7      0.000      0.000
  Name = 
  3 active torsions:
  status: ('A' for Active; 'I' for Inactive)
    1  A    between atoms: C_1  and  C_2
    2  A    between atoms: C_2  and  C_3
    3  A    between atoms: C_3  and  C_11
                            x       y       z     vdW  Elec       q    Type
                         _______ _______ _______ _____ _____    ______ ____

>  <TORSDO>
F 3

$$$$
=
 OpenBabel11052422573D

 28 30  0  0  1  0  0  0  0  0999 V2000
  161.1560  210.3180  152.8090 C   0  0  1  0  0  3  0  0  0  0  0  0
  162.2280  207.7490  148.4960 C   0  0  0  0  0  2  0  0  0  0  0  0
  161.1890  204.5340  153.5430 C   0  0  0  0  0  1  0  0  0  0  0  0
  160.7070  205.8410  148.7300 C   0  0  1  0  0  3  0  0  0  0  0  0
  160.9480  207.2790  150.6870 C   0  0  2  0  0  3  0  0  0  0  0  0
  162.4260  205.8140  146.9070 C   0  0  0  0  0  0  0  0  0  0  0  0
  161.7000  206.7230  149.4920 C   0  0  2  0  0  3  0  0  0  0  0  0
  160.2930  204.8370  150.7970 C   0  0  0  0  0  2  0  0  0  0  0  0
  161.4400  204.9840  147.7030 C   0  0  0  0  0  2  0  0  0  0  0  0
  161.9880  206.8730  153.6850 C   0  0  0  0  0  2  0  0  0  0  0  0
  161.5570  208.5300  151.3110 C   0  0  0  0  0  2  0  0  0  0  0  0
  159.7650  205.1230  149.5190 O   0  0  0  0  0  0  0  0  0  0  0  0
  161.1100  208.8620  154.9660 C   0  0  0  0  0  2  0  0  0  0  0  0
  161.6180  205.7460  152.7220 C   0  0  2  0  0  3  0  0  0  0  0  0
  160.7630  207.5190  154.3260 C   0  0  0  0  0  2  0  0  0  0  0  0
  162.9930  205.2610  145.7670 O   0  0  0  0  0  1  0  0  0  0  0  0
  162.8110  207.0430  147.2950 C   0  0  0  0  0  3  0  0  0  0  0  0
  160.5620  206.1100  151.6430 C   0  0  1  0  0  3  0  0  0  0  0  0
  161.9100  209.7810  154.0390 C   0  0  0  0  0  2  0  0  0  0  0  0
  160.5190  209.2730  152.0120 N   0  0  0  0  0  2  0  0  0  0  0  0
  160.2180  211.5090  153.0790 C   0  0  2  0  0  3  0  0  0  0  0  0
  160.4190  212.0650  154.3450 O   0  0  0  0  0  1  0  0  0  0  0  0
  158.7290  211.3090  152.7720 C   0  0  0  0  0  2  0  0  0  0  0  0
  156.9330  212.4810  154.1630 N   0  0  0  0  0  0  0  0  0  0  0  0
  158.0210  213.5420  152.3890 O   0  0  0  0  0  0  0  0  0  0  0  0
  157.8780  212.5000  153.0830 C   0  0  0  0  0  0  0  0  0  0  0  0
  156.9640  211.2110  155.3920 S   0  0  0  0  0  1  0  0  0  0  0  0
  155.9860  213.5710  154.3300 C   0  0  0  0  0  1  0  0  0  0  0  0
  1 21  1  1  0  0  0
  1 19  1  0  0  0  0
  4  9  1  1  0  0  0
  4  7  1  0  0  0  0
  4 12  1  0  0  0  0
  5 11  1  1  0  0  0
  5 18  1  0  0  0  0
  6 17  2  0  0  0  0
  6  9  1  0  0  0  0
  7  2  1  6  0  0  0
  7  5  1  0  0  0  0
 10 15  1  0  0  0  0
 11 20  1  0  0  0  0
 12  8  1  0  0  0  0
 14  3  1  1  0  0  0
 14 10  1  0  0  0  0
 15 13  1  0  0  0  0
 16  6  1  0  0  0  0
 17  2  1  0  0  0  0
 18  8  1  6  0  0  0
 18 14  1  0  0  0  0
 19 13  1  0  0  0  0
 20  1  1  0  0  0  0
 21 22  1  1  0  0  0
 23 21  1  0  0  0  0
 23 26  1  0  0  0  0
 24 28  1  0  0  0  0
 24 27  1  0  0  0  0
 25 26  2  0  0  0  0
 26 24  1  0  0  0  0
M  END
>  <MODEL>
2

>  <REMARK>
 VINA RESULT:      -6.1      3.243      7.813
  Name = 
  3 active torsions:
  status: ('A' for Active; 'I' for Inactive)
    1  A    between atoms: C_1  and  C_2
    2  A    between atoms: C_2  and  C_3
    3  A    between atoms: C_3  and  C_11
                            x       y       z     vdW  Elec       q    Type
                         _______ _______ _______ _____ _____    ______ ____

>  <TORSDO>
F 3

$$$$
=
 OpenBabel11052422573D

 28 30  0  0  1  0  0  0  0  0999 V2000
  161.7810  206.6920  152.2840 C   0  0  1  0  0  3  0  0  0  0  0  0
  160.8110  210.5730  155.5010 C   0  0  0  0  0  2  0  0  0  0  0  0
  161.3000  211.8350  149.5810 C   0  0  0  0  0  1  0  0  0  0  0  0
  159.2430  211.8850  154.1480 C   0  0  1  0  0  3  0  0  0  0  0  0
  160.3870  210.0560  153.0080 C   0  0  2  0  0  3  0  0  0  0  0  0
  160.1380  212.8670  156.2730 C   0  0  0  0  0  0  0  0  0  0  0  0
  160.5570  211.1030  154.0940 C   0  0  2  0  0  3  0  0  0  0  0  0
  159.4960  212.1160  151.8380 C   0  0  0  0  0  2  0  0  0  0  0  0
  159.4170  213.1560  154.9720 C   0  0  0  0  0  2  0  0  0  0  0  0
  162.4040  209.8350  150.5340 C   0  0  0  0  0  2  0  0  0  0  0  0
  161.3490  208.8750  153.0900 C   0  0  0  0  0  2  0  0  0  0  0  0
  158.5740  212.0850  152.9080 O   0  0  0  0  0  0  0  0  0  0  0  0
  162.3450  207.4090  149.8460 C   0  0  0  0  0  2  0  0  0  0  0  0
  161.5530  211.0590  150.8680 C   0  0  2  0  0  3  0  0  0  0  0  0
  161.6050  208.7450  149.8250 C   0  0  0  0  0  2  0  0  0  0  0  0
  160.1600  213.8480  157.2540 O   0  0  0  0  0  1  0  0  0  0  0  0
  160.8030  211.7170  156.4870 C   0  0  0  0  0  3  0  0  0  0  0  0
  160.2310  210.7650  151.6290 C   0  0  1  0  0  3  0  0  0  0  0  0
  162.8590  207.0260  151.2360 C   0  0  0  0  0  2  0  0  0  0  0  0
  160.7570  207.7260  152.4200 N   0  0  0  0  0  2  0  0  0  0  0  0
  161.1820  205.2770  152.1840 C   0  0  2  0  0  3  0  0  0  0  0  0
  160.7960  204.7750  153.4300 O   0  0  0  0  0  1  0  0  0  0  0  0
  161.9660  204.2430  151.3670 C   0  0  0  0  0  2  0  0  0  0  0  0
  160.7060  202.8100  149.6660 N   0  0  0  0  0  0  0  0  0  0  0  0
  160.9370  202.1720  151.9010 O   0  0  0  0  0  0  0  0  0  0  0  0
  161.1730  203.0260  151.0060 C   0  0  0  0  0  0  0  0  0  0  0  0
  161.3260  203.7580  148.3100 S   0  0  0  0  0  1  0  0  0  0  0  0
  159.7810  201.7260  149.3760 C   0  0  0  0  0  1  0  0  0  0  0  0
  1 21  1  6  0  0  0
  1 20  1  0  0  0  0
  2 17  1  0  0  0  0
  4  9  1  6  0  0  0
  5 11  1  6  0  0  0
  5  7  1  0  0  0  0
  6 17  2  0  0  0  0
  6 16  1  0  0  0  0
  7  4  1  0  0  0  0
  7  2  1  1  0  0  0
  8 12  1  0  0  0  0
  9  6  1  0  0  0  0
 10 14  1  0  0  0  0
 12  4  1  0  0  0  0
 13 19  1  0  0  0  0
 14  3  1  6  0  0  0
 14 18  1  0  0  0  0
 15 13  1  0  0  0  0
 15 10  1  0  0  0  0
 18  8  1  1  0  0  0
 18  5  1  0  0  0  0
 19  1  1  0  0  0  0
 20 11  1  0  0  0  0
 21 22  1  1  0  0  0
 23 21  1  0  0  0  0
 24 26  1  0  0  0  0
 26 23  1  0  0  0  0
 26 25  2  0  0  0  0
 27 24  1  0  0  0  0
 28 24  1  0  0  0  0
M  END
>  <MODEL>
3

>  <REMARK>
 VINA RESULT:      -5.6      2.767      4.064
  Name = 
  3 active torsions:
  status: ('A' for Active; 'I' for Inactive)
    1  A    between atoms: C_1  and  C_2
    2  A    between atoms: C_2  and  C_3
    3  A    between atoms: C_3  and  C_11
                            x       y       z     vdW  Elec       q    Type
                         _______ _______ _______ _____ _____    ______ ____

>  <TORSDO>
F 3

$$$$
=
 OpenBabel11052422573D

 28 30  0  0  1  0  0  0  0  0999 V2000
  161.1200  208.7520  152.0930 C   0  0  1  0  0  3  0  0  0  0  0  0
  162.2060  206.5900  147.5670 C   0  0  0  0  0  2  0  0  0  0  0  0
  161.5820  202.9480  152.3860 C   0  0  0  0  0  1  0  0  0  0  0  0
  160.8310  204.5650  147.7040 C   0  0  1  0  0  3  0  0  0  0  0  0
  161.0440  205.8690  149.7560 C   0  0  2  0  0  3  0  0  0  0  0  0
  162.4780  204.7950  145.8300 C   0  0  0  0  0  0  0  0  0  0  0  0
  161.7880  205.4580  148.4980 C   0  0  2  0  0  3  0  0  0  0  0  0
  160.5650  203.3850  149.7010 C   0  0  0  0  0  2  0  0  0  0  0  0
  161.5830  203.8400  146.5920 C   0  0  0  0  0  2  0  0  0  0  0  0
  162.2210  205.3210  152.6790 C   0  0  0  0  0  2  0  0  0  0  0  0
  161.5880  207.1120  150.4520 C   0  0  0  0  0  2  0  0  0  0  0  0
  159.9720  203.7250  148.4660 O   0  0  0  0  0  0  0  0  0  0  0  0
  161.2560  207.1420  154.1340 C   0  0  0  0  0  2  0  0  0  0  0  0
  161.8950  204.2440  151.6460 C   0  0  2  0  0  3  0  0  0  0  0  0
  160.9790  205.8280  153.4060 C   0  0  0  0  0  2  0  0  0  0  0  0
  163.0400  204.3690  144.6340 O   0  0  0  0  0  1  0  0  0  0  0  0
  162.7920  206.0180  146.2970 C   0  0  0  0  0  3  0  0  0  0  0  0
  160.7770  204.6090  150.6320 C   0  0  1  0  0  3  0  0  0  0  0  0
  161.9550  208.1820  153.2550 C   0  0  0  0  0  2  0  0  0  0  0  0
  160.5280  207.7250  151.2400 N   0  0  0  0  0  2  0  0  0  0  0  0
  160.1120  209.8490  152.4830 C   0  0  2  0  0  3  0  0  0  0  0  0
  160.4720  211.1020  151.9810 O   0  0  0  0  0  1  0  0  0  0  0  0
  159.6930  209.9210  153.9570 C   0  0  0  0  0  2  0  0  0  0  0  0
  158.9800  212.2210  154.8130 N   0  0  0  0  0  0  0  0  0  0  0  0
  161.1740  211.4470  155.0110 O   0  0  0  0  0  0  0  0  0  0  0  0
  159.9980  211.2310  154.6130 C   0  0  0  0  0  0  0  0  0  0  0  0
  157.2650  211.8290  154.6330 S   0  0  0  0  0  1  0  0  0  0  0  0
  159.3310  213.5540  155.2750 C   0  0  0  0  0  1  0  0  0  0  0  0
  1 21  1  1  0  0  0
  1 19  1  0  0  0  0
  4  9  1  6  0  0  0
  4 12  1  0  0  0  0
  4  7  1  0  0  0  0
  5 11  1  1  0  0  0
  5 18  1  0  0  0  0
  6 17  2  0  0  0  0
  6  9  1  0  0  0  0
  7  2  1  6  0  0  0
  7  5  1  0  0  0  0
 10 15  1  0  0  0  0
 11 20  1  0  0  0  0
 12  8  1  0  0  0  0
 14  3  1  1  0  0  0
 14 10  1  0  0  0  0
 15 13  1  0  0  0  0
 16  6  1  0  0  0  0
 17  2  1  0  0  0  0
 18  8  1  6  0  0  0
 18 14  1  0  0  0  0
 19 13  1  0  0  0  0
 20  1  1  0  0  0  0
 21 22  1  1  0  0  0
 21 23  1  0  0  0  0
 23 26  1  0  0  0  0
 24 28  1  0  0  0  0
 26 24  1  0  0  0  0
 26 25  2  0  0  0  0
 27 24  1  0  0  0  0
M  END
>  <MODEL>
4

>  <REMARK>
 VINA RESULT:      -5.3      3.235      8.342
  Name = 
  3 active torsions:
  status: ('A' for Active; 'I' for Inactive)
    1  A    between atoms: C_1  and  C_2
    2  A    between atoms: C_2  and  C_3
    3  A    between atoms: C_3  and  C_11
                            x       y       z     vdW  Elec       q    Type
                         _______ _______ _______ _____ _____    ______ ____

>  <TORSDO>
F 3

$$$$
=
 OpenBabel11052422573D

 28 30  0  0  1  0  0  0  0  0999 V2000
  161.4230  207.0730  149.7490 C   0  0  1  0  0  3  0  0  0  0  0  0
  159.3730  211.2200  151.9730 C   0  0  0  0  0  2  0  0  0  0  0  0
  161.1740  206.6620  155.5590 C   0  0  0  0  0  1  0  0  0  0  0  0
  160.7890  211.3960  153.9670 C   0  0  1  0  0  3  0  0  0  0  0  0
  161.0250  209.3550  152.6490 C   0  0  2  0  0  3  0  0  0  0  0  0
  158.7500  212.8410  153.7880 C   0  0  0  0  0  0  0  0  0  0  0  0
  160.0210  210.4060  153.0870 C   0  0  2  0  0  3  0  0  0  0  0  0
  161.5350  209.5100  155.1230 C   0  0  0  0  0  2  0  0  0  0  0  0
  159.8190  212.3020  154.7160 C   0  0  0  0  0  2  0  0  0  0  0  0
  160.5660  206.2370  153.1970 C   0  0  0  0  0  2  0  0  0  0  0  0
  160.6270  208.5560  151.4130 C   0  0  0  0  0  2  0  0  0  0  0  0
  161.8200  210.8500  154.7810 O   0  0  0  0  0  0  0  0  0  0  0  0
  161.7980  205.0500  151.3440 C   0  0  0  0  0  2  0  0  0  0  0  0
  160.6700  207.3140  154.2770 C   0  0  2  0  0  3  0  0  0  0  0  0
  161.9300  205.8180  152.6570 C   0  0  0  0  0  2  0  0  0  0  0  0
  157.9380  213.8740  154.2360 O   0  0  0  0  0  1  0  0  0  0  0  0
  158.5240  212.3180  152.5690 C   0  0  0  0  0  3  0  0  0  0  0  0
  161.5150  208.5600  153.8960 C   0  0  1  0  0  3  0  0  0  0  0  0
  160.8910  205.7480  150.3260 C   0  0  0  0  0  2  0  0  0  0  0  0
  161.8260  208.0360  150.7700 N   0  0  0  0  0  2  0  0  0  0  0  0
  162.4680  206.9290  148.6270 C   0  0  2  0  0  3  0  0  0  0  0  0
  162.1700  207.7280  147.5200 O   0  0  0  0  0  1  0  0  0  0  0  0
  162.8610  205.5050  148.2160 C   0  0  0  0  0  2  0  0  0  0  0  0
  161.5660  203.8630  146.7460 N   0  0  0  0  0  0  0  0  0  0  0  0
  162.4960  205.8280  145.8930 O   0  0  0  0  0  0  0  0  0  0  0  0
  162.3110  205.0810  146.8900 C   0  0  0  0  0  0  0  0  0  0  0  0
  160.9520  202.9860  148.1530 S   0  0  0  0  0  1  0  0  0  0  0  0
  161.2070  203.3740  145.4250 C   0  0  0  0  0  1  0  0  0  0  0  0
  1 21  1  6  0  0  0
  1 19  1  0  0  0  0
  1 20  1  0  0  0  0
  2 17  1  0  0  0  0
  4  9  1  1  0  0  0
  4 12  1  0  0  0  0
  5 11  1  6  0  0  0
  5  7  1  0  0  0  0
  5 18  1  0  0  0  0
  6 16  1  0  0  0  0
  6  9  1  0  0  0  0
  7  2  1  6  0  0  0
  7  4  1  0  0  0  0
 10 14  1  0  0  0  0
 12  8  1  0  0  0  0
 13 15  1  0  0  0  0
 14  3  1  1  0  0  0
 15 10  1  0  0  0  0
 17  6  2  0  0  0  0
 18 14  1  0  0  0  0
 18  8  1  1  0  0  0
 19 13  1  0  0  0  0
 20 11  1  0  0  0  0
 21 22  1  6  0  0  0
 23 21  1  0  0  0  0
 24 26  1  0  0  0  0
 24 27  1  0  0  0  0
 25 26  2  0  0  0  0
 26 23  1  0  0  0  0
 28 24  1  0  0  0  0
M  END
>  <MODEL>
5

>  <REMARK>
 VINA RESULT:      -5.3      1.393      1.409
  Name = 
  3 active torsions:
  status: ('A' for Active; 'I' for Inactive)
    1  A    between atoms: C_1  and  C_2
    2  A    between atoms: C_2  and  C_3
    3  A    between atoms: C_3  and  C_11
                            x       y       z     vdW  Elec       q    Type
                         _______ _______ _______ _____ _____    ______ ____

>  <TORSDO>
F 3

$$$$
=
 OpenBabel11052422573D

 28 30  0  0  1  0  0  0  0  0999 V2000
  160.8570  208.6350  151.5040 C   0  0  1  0  0  3  0  0  0  0  0  0
  157.6330  211.4730  154.3140 C   0  0  0  0  0  2  0  0  0  0  0  0
  160.8120  207.1370  157.1380 C   0  0  0  0  0  1  0  0  0  0  0  0
  158.9430  211.7220  156.3710 C   0  0  1  0  0  3  0  0  0  0  0  0
  159.7930  210.1250  154.7330 C   0  0  2  0  0  3  0  0  0  0  0  0
  156.5520  212.4700  156.3510 C   0  0  0  0  0  0  0  0  0  0  0  0
  158.5150  210.7160  155.3000 C   0  0  2  0  0  3  0  0  0  0  0  0
  160.2560  209.9860  157.2180 C   0  0  0  0  0  2  0  0  0  0  0  0
  157.7460  212.1330  157.2210 C   0  0  0  0  0  2  0  0  0  0  0  0
  160.3420  206.9730  154.7130 C   0  0  0  0  0  2  0  0  0  0  0  0
  159.6540  209.4760  153.3600 C   0  0  0  0  0  2  0  0  0  0  0  0
  160.1030  211.3870  157.1250 O   0  0  0  0  0  0  0  0  0  0  0  0
  161.8650  206.5780  152.7410 C   0  0  0  0  0  2  0  0  0  0  0  0
  160.1150  207.8180  155.9660 C   0  0  2  0  0  3  0  0  0  0  0  0
  161.7630  207.1020  154.1720 C   0  0  0  0  0  2  0  0  0  0  0  0
  155.4620  213.1010  156.9330 O   0  0  0  0  0  1  0  0  0  0  0  0
  156.4890  212.1290  155.0510 C   0  0  0  0  0  3  0  0  0  0  0  0
  160.5220  209.3120  155.8450 C   0  0  1  0  0  3  0  0  0  0  0  0
  160.7740  207.1290  151.8190 C   0  0  0  0  0  2  0  0  0  0  0  0
  160.9480  209.4770  152.6940 N   0  0  0  0  0  2  0  0  0  0  0  0
  161.8820  209.0260  150.4230 C   0  0  2  0  0  3  0  0  0  0  0  0
  162.8840  208.0640  150.2710 O   0  0  0  0  0  1  0  0  0  0  0  0
  162.4560  210.4470  150.4860 C   0  0  0  0  0  2  0  0  0  0  0  0
  160.9480  212.2570  149.4940 N   0  0  0  0  0  0  0  0  0  0  0  0
  162.6550  211.2480  148.2610 O   0  0  0  0  0  0  0  0  0  0  0  0
  162.0290  211.3250  149.3510 C   0  0  0  0  0  0  0  0  0  0  0  0
  160.3000  212.6800  151.0840 S   0  0  0  0  0  1  0  0  0  0  0  0
  160.4260  212.9610  148.3340 C   0  0  0  0  0  1  0  0  0  0  0  0
  1 21  1  6  0  0  0
  1 19  1  0  0  0  0
  1 20  1  0  0  0  0
  2 17  1  0  0  0  0
  4 12  1  0  0  0  0
  4  9  1  1  0  0  0
  5 11  1  6  0  0  0
  5  7  1  0  0  0  0
  5 18  1  0  0  0  0
  6 16  1  0  0  0  0
  6  9  1  0  0  0  0
  7  2  1  6  0  0  0
  7  4  1  0  0  0  0
 10 14  1  0  0  0  0
 12  8  1  0  0  0  0
 13 15  1  0  0  0  0
 14  3  1  1  0  0  0
 15 10  1  0  0  0  0
 17  6  2  0  0  0  0
 18 14  1  0  0  0  0
 18  8  1  1  0  0  0
 19 13  1  0  0  0  0
 20 11  1  0  0  0  0
 21 22  1  1  0  0  0
 21 23  1  0  0  0  0
 24 27  1  0  0  0  0
 25 26  2  0  0  0  0
 26 24  1  0  0  0  0
 26 23  1  0  0  0  0
 28 24  1  0  0  0  0
M  END
>  <MODEL>
6

>  <REMARK>
 VINA RESULT:      -5.1      3.248      3.655
  Name = 
  3 active torsions:
  status: ('A' for Active; 'I' for Inactive)
    1  A    between atoms: C_1  and  C_2
    2  A    between atoms: C_2  and  C_3
    3  A    between atoms: C_3  and  C_11
                            x       y       z     vdW  Elec       q    Type
                         _______ _______ _______ _____ _____    ______ ____

>  <TORSDO>
F 3

$$$$
=
 OpenBabel11052422573D

 28 30  0  0  1  0  0  0  0  0999 V2000
  160.8840  210.7330  152.7560 C   0  0  1  0  0  3  0  0  0  0  0  0
  162.0860  207.9190  148.6350 C   0  0  0  0  0  2  0  0  0  0  0  0
  161.2700  205.0320  153.9140 C   0  0  0  0  0  1  0  0  0  0  0  0
  160.6840  205.9460  149.0240 C   0  0  1  0  0  3  0  0  0  0  0  0
  160.8480  207.5380  150.8670 C   0  0  2  0  0  3  0  0  0  0  0  0
  162.3910  205.8870  147.1900 C   0  0  0  0  0  0  0  0  0  0  0  0
  161.6260  206.9410  149.7080 C   0  0  2  0  0  3  0  0  0  0  0  0
  160.3420  205.0760  151.1630 C   0  0  0  0  0  2  0  0  0  0  0  0
  161.4610  205.0610  148.0560 C   0  0  0  0  0  2  0  0  0  0  0  0
  161.9270  207.4190  153.8760 C   0  0  0  0  0  2  0  0  0  0  0  0
  161.3840  208.8660  151.3910 C   0  0  0  0  0  2  0  0  0  0  0  0
  159.7910  205.2340  149.8730 O   0  0  0  0  0  0  0  0  0  0  0  0
  160.9380  209.4410  155.0150 C   0  0  0  0  0  2  0  0  0  0  0  0
  161.6200  206.2030  153.0030 C   0  0  2  0  0  3  0  0  0  0  0  0
  160.6680  208.0360  154.4790 C   0  0  0  0  0  2  0  0  0  0  0  0
  162.9850  205.2850  146.0890 O   0  0  0  0  0  1  0  0  0  0  0  0
  162.7040  207.1630  147.4830 C   0  0  0  0  0  3  0  0  0  0  0  0
  160.5390  206.4230  151.9100 C   0  0  1  0  0  3  0  0  0  0  0  0
  161.6760  210.3350  154.0160 C   0  0  0  0  0  2  0  0  0  0  0  0
  160.3070  209.5950  152.0450 N   0  0  0  0  0  2  0  0  0  0  0  0
  159.8770  211.8830  152.9470 C   0  0  2  0  0  3  0  0  0  0  0  0
  159.2020  211.7980  154.1680 O   0  0  0  0  0  1  0  0  0  0  0  0
  158.9230  212.1760  151.7830 C   0  0  0  0  0  2  0  0  0  0  0  0
  158.6650  213.6070  149.6810 N   0  0  0  0  0  0  0  0  0  0  0  0
  160.5700  213.7100  151.0280 O   0  0  0  0  0  0  0  0  0  0  0  0
  159.4390  213.1960  150.8160 C   0  0  0  0  0  0  0  0  0  0  0  0
  156.9450  213.2180  149.5480 S   0  0  0  0  0  1  0  0  0  0  0  0
  159.2560  214.4490  148.6540 C   0  0  0  0  0  1  0  0  0  0  0  0
  1 21  1  1  0  0  0
  1 19  1  0  0  0  0
  4  9  1  1  0  0  0
  4  7  1  0  0  0  0
  4 12  1  0  0  0  0
  5 11  1  1  0  0  0
  5 18  1  0  0  0  0
  6 17  2  0  0  0  0
  6  9  1  0  0  0  0
  7  2  1  6  0  0  0
  7  5  1  0  0  0  0
 10 15  1  0  0  0  0
 11 20  1  0  0  0  0
 12  8  1  0  0  0  0
 14 10  1  0  0  0  0
 14  3  1  1  0  0  0
 15 13  1  0  0  0  0
 16  6  1  0  0  0  0
 17  2  1  0  0  0  0
 18  8  1  6  0  0  0
 18 14  1  0  0  0  0
 19 13  1  0  0  0  0
 20  1  1  0  0  0  0
 21 22  1  1  0  0  0
 23 21  1  0  0  0  0
 24 26  1  0  0  0  0
 26 25  2  0  0  0  0
 26 23  1  0  0  0  0
 27 24  1  0  0  0  0
 28 24  1  0  0  0  0
M  END
>  <MODEL>
7

>  <REMARK>
 VINA RESULT:      -5.1      3.106      7.229
  Name = 
  3 active torsions:
  status: ('A' for Active; 'I' for Inactive)
    1  A    between atoms: C_1  and  C_2
    2  A    between atoms: C_2  and  C_3
    3  A    between atoms: C_3  and  C_11
                            x       y       z     vdW  Elec       q    Type
                         _______ _______ _______ _____ _____    ______ ____

>  <TORSDO>
F 3

$$$$
=
 OpenBabel11052422573D

 28 30  0  0  1  0  0  0  0  0999 V2000
  161.7350  206.6460  150.3190 C   0  0  1  0  0  3  0  0  0  0  0  0
  161.3840  209.4730  154.5890 C   0  0  0  0  0  2  0  0  0  0  0  0
  161.5830  212.3780  149.2600 C   0  0  0  0  0  1  0  0  0  0  0  0
  159.8640  211.2380  153.8250 C   0  0  1  0  0  3  0  0  0  0  0  0
  160.7380  209.7440  152.1050 C   0  0  2  0  0  3  0  0  0  0  0  0
  160.9990  211.4820  156.0460 C   0  0  0  0  0  0  0  0  0  0  0  0
  161.0870  210.4100  153.4240 C   0  0  2  0  0  3  0  0  0  0  0  0
  159.9780  212.1180  151.6650 C   0  0  0  0  0  2  0  0  0  0  0  0
  160.2210  212.1940  154.9580 C   0  0  0  0  0  2  0  0  0  0  0  0
  162.5450  210.1080  149.4900 C   0  0  0  0  0  2  0  0  0  0  0  0
  161.5810  208.5230  151.7530 C   0  0  0  0  0  2  0  0  0  0  0  0
  159.1340  211.8430  152.7640 O   0  0  0  0  0  0  0  0  0  0  0  0
  162.1970  208.0030  148.1450 C   0  0  0  0  0  2  0  0  0  0  0  0
  161.8460  211.2410  150.2410 C   0  0  2  0  0  3  0  0  0  0  0  0
  161.5950  209.3380  148.5790 C   0  0  0  0  0  2  0  0  0  0  0  0
  161.1860  212.1270  157.2610 O   0  0  0  0  0  1  0  0  0  0  0  0
  161.5590  210.2740  155.8580 C   0  0  0  0  0  3  0  0  0  0  0  0
  160.5580  210.8360  151.0080 C   0  0  1  0  0  3  0  0  0  0  0  0
  162.7660  207.1920  149.3120 C   0  0  0  0  0  2  0  0  0  0  0  0
  160.8320  207.6680  150.8420 N   0  0  0  0  0  2  0  0  0  0  0  0
  160.9930  205.3720  149.8760 C   0  0  2  0  0  3  0  0  0  0  0  0
  160.1460  204.8790  150.8710 O   0  0  0  0  0  1  0  0  0  0  0  0
  161.8340  204.2610  149.2360 C   0  0  0  0  0  2  0  0  0  0  0  0
  161.0900  202.5520  147.4860 N   0  0  0  0  0  0  0  0  0  0  0  0
  161.3220  204.8220  146.9870 O   0  0  0  0  0  0  0  0  0  0  0  0
  161.4120  203.9030  147.8450 C   0  0  0  0  0  0  0  0  0  0  0  0
  160.8250  201.3100  148.7170 S   0  0  0  0  0  1  0  0  0  0  0  0
  160.8690  202.1940  146.0950 C   0  0  0  0  0  1  0  0  0  0  0  0
  1 21  1  6  0  0  0
  1 20  1  0  0  0  0
  2 17  1  0  0  0  0
  4  9  1  1  0  0  0
  5 11  1  6  0  0  0
  5  7  1  0  0  0  0
  6 16  1  0  0  0  0
  7  4  1  0  0  0  0
  7  2  1  1  0  0  0
  8 12  1  0  0  0  0
  9  6  1  0  0  0  0
 10 14  1  0  0  0  0
 12  4  1  0  0  0  0
 13 15  1  0  0  0  0
 13 19  1  0  0  0  0
 14  3  1  6  0  0  0
 14 18  1  0  0  0  0
 15 10  1  0  0  0  0
 17  6  2  0  0  0  0
 18  8  1  1  0  0  0
 18  5  1  0  0  0  0
 19  1  1  0  0  0  0
 20 11  1  0  0  0  0
 21 22  1  1  0  0  0
 23 21  1  0  0  0  0
 24 26  1  0  0  0  0
 24 27  1  0  0  0  0
 25 26  2  0  0  0  0
 26 23  1  0  0  0  0
 28 24  1  0  0  0  0
M  END
>  <MODEL>
8

>  <REMARK>
 VINA RESULT:      -5.0      2.385      3.986
  Name = 
  3 active torsions:
  status: ('A' for Active; 'I' for Inactive)
    1  A    between atoms: C_1  and  C_2
    2  A    between atoms: C_2  and  C_3
    3  A    between atoms: C_3  and  C_11
                            x       y       z     vdW  Elec       q    Type
                         _______ _______ _______ _____ _____    ______ ____

>  <TORSDO>
F 3

$$$$
