=
 OpenBabel11052422403D

 31 35  0  0  1  0  0  0  0  0999 V2000
  160.1790  213.5590  149.9210 C   0  0  2  0  0  3  0  0  0  0  0  0
  159.9040  210.8500  152.6870 C   0  0  1  0  0  3  0  0  0  0  0  0
  159.3640  211.7180  153.8370 C   0  0  1  0  0  3  0  0  0  0  0  0
  157.2810  213.0350  154.3680 C   0  0  0  0  0  2  0  0  0  0  0  0
  160.5800  211.7380  151.6340 C   0  0  2  0  0  3  0  0  0  0  0  0
  160.8620  212.6990  148.8590 C   0  0  0  0  0  2  0  0  0  0  0  0
  157.8430  211.7130  153.8470 C   0  0  0  0  0  2  0  0  0  0  0  0
  161.6050  209.0370  152.0540 C   0  0  1  0  0  3  0  0  0  0  0  0
  161.0910  214.4490  150.4890 O   0  0  0  0  0  1  0  0  0  0  0  0
  160.9740  210.4880  155.4520 N   0  0  0  0  0  2  0  0  0  0  0  0
  157.6950  213.3290  155.8070 C   0  0  0  0  0  2  0  0  0  0  0  0
  162.2210  209.9730  151.1060 N   0  0  0  0  0  2  0  0  0  0  0  0
  160.8210  209.7270  153.1770 C   0  0  1  0  0  3  0  0  0  0  0  0
  159.5480  212.6800  151.0020 C   0  0  0  0  0  2  0  0  0  0  0  0
  159.1280  213.8530  155.8430 C   0  0  0  0  0  2  0  0  0  0  0  0
  161.2220  210.8750  150.5390 C   0  0  2  0  0  3  0  0  0  0  0  0
  161.8870  211.7590  149.4900 C   0  0  0  0  0  2  0  0  0  0  0  0
  161.7490  210.2720  154.2380 C   0  0  0  0  0  2  0  0  0  0  0  0
  159.8860  211.4610  155.2740 C   0  0  1  0  0  3  0  0  0  0  0  0
  160.1700  212.7470  156.0500 C   0  0  0  0  0  2  0  0  0  0  0  0
  160.8800  207.8580  151.3850 C   0  0  0  0  0  2  0  0  0  0  0  0
  162.3960  206.3870  152.4670 O   0  0  0  0  0  0  0  0  0  0  0  0
  161.5950  206.5460  151.5060 C   0  0  0  0  0  0  0  0  0  0  0  0
  161.0300  203.4550  148.5760 C   0  0  0  0  0  0  0  0  0  0  0  0
  161.5310  205.7450  149.1570 C   0  0  0  0  0  3  0  0  0  0  0  0
  160.8900  203.7250  152.3310 C   0  0  0  0  0  1  0  0  0  0  0  0
  160.8290  202.2060  147.3670 Cl  0  0  0  0  0  0  0  0  0  0  0  0
  161.3620  204.7520  148.1910 C   0  0  0  0  0  3  0  0  0  0  0  0
  161.0330  204.1360  150.9050 C   0  0  0  0  0  0  0  0  0  0  0  0
  161.3700  205.4580  150.5230 C   0  0  0  0  0  0  0  0  0  0  0  0
  160.8690  203.1480  149.9280 C   0  0  0  0  0  3  0  0  0  0  0  0
  1  9  1  1  0  0  0
  1 14  1  0  0  0  0
  2 13  1  0  0  0  0
  2  3  1  0  0  0  0
  3  7  1  0  0  0  0
  3 19  1  0  0  0  0
  4 11  1  0  0  0  0
  5  2  1  0  0  0  0
  6 17  1  0  0  0  0
  6  1  1  0  0  0  0
  7  4  1  0  0  0  0
  8 13  1  0  0  0  0
 11 15  1  0  0  0  0
 12  8  1  0  0  0  0
 13 18  1  0  0  0  0
 14  5  1  0  0  0  0
 15 20  1  0  0  0  0
 16 12  1  0  0  0  0
 16  5  1  0  0  0  0
 17 16  1  0  0  0  0
 18 10  1  0  0  0  0
 19 10  1  0  0  0  0
 19 20  1  0  0  0  0
 21 23  1  0  0  0  0
 21  8  1  0  0  0  0
 23 22  2  0  0  0  0
 24 31  1  0  0  0  0
 25 30  2  0  0  0  0
 27 24  1  0  0  0  0
 28 24  2  0  0  0  0
 28 25  1  0  0  0  0
 29 26  1  0  0  0  0
 30 29  1  0  0  0  0
 30 23  1  0  0  0  0
 31 29  2  0  0  0  0
M  END
>  <MODEL>
1

>  <REMARK>
 VINA RESULT:      -8.1      0.000      0.000
  Name = 
  3 active torsions:
  status: ('A' for Active; 'I' for Inactive)
    1  A    between atoms: C_9  and  C_22
    2  A    between atoms: C_9  and  C_23
    3  A    between atoms: C_15  and  C_23
                            x       y       z     vdW  Elec       q    Type
                         _______ _______ _______ _____ _____    ______ ____

>  <TORSDO>
F 3

$$$$
=
 OpenBabel11052422403D

 31 35  0  0  1  0  0  0  0  0999 V2000
  161.8830  210.2970  150.5040 C   0  0  2  0  0  3  0  0  0  0  0  0
  160.5280  208.1340  153.4280 C   0  0  1  0  0  3  0  0  0  0  0  0
  160.3540  209.2300  154.4930 C   0  0  1  0  0  3  0  0  0  0  0  0
  158.9470  211.2910  154.8440 C   0  0  0  0  0  2  0  0  0  0  0  0
  161.5140  208.6020  152.3490 C   0  0  2  0  0  3  0  0  0  0  0  0
  162.1910  209.1590  149.5320 C   0  0  0  0  0  2  0  0  0  0  0  0
  158.9530  209.8180  154.4370 C   0  0  0  0  0  2  0  0  0  0  0  0
  161.3920  205.7570  152.9900 C   0  0  1  0  0  3  0  0  0  0  0  0
  163.0640  210.8020  151.0530 O   0  0  0  0  0  1  0  0  0  0  0  0
  161.3300  207.5980  156.2540 N   0  0  0  0  0  2  0  0  0  0  0  0
  159.4220  211.5100  156.2780 C   0  0  0  0  0  2  0  0  0  0  0  0
  162.3400  206.3030  152.0110 N   0  0  0  0  0  2  0  0  0  0  0  0
  160.9240  206.7830  154.0300 C   0  0  1  0  0  3  0  0  0  0  0  0
  160.9430  209.8200  151.6120 C   0  0  0  0  0  2  0  0  0  0  0  0
  160.9450  211.4360  156.3430 C   0  0  0  0  0  2  0  0  0  0  0  0
  161.7820  207.4760  151.3420 C   0  0  2  0  0  3  0  0  0  0  0  0
  162.7560  207.9470  150.2680 C   0  0  0  0  0  2  0  0  0  0  0  0
  161.9760  207.0040  155.0920 C   0  0  0  0  0  2  0  0  0  0  0  0
  160.7130  208.9020  155.9660 C   0  0  1  0  0  3  0  0  0  0  0  0
  161.4660  210.0310  156.6670 C   0  0  0  0  0  2  0  0  0  0  0  0
  160.2730  204.9060  152.3690 C   0  0  0  0  0  2  0  0  0  0  0  0
  161.0380  202.6600  152.3540 O   0  0  0  0  0  0  0  0  0  0  0  0
  160.7550  203.6750  151.6620 C   0  0  0  0  0  0  0  0  0  0  0  0
  161.2330  203.7070  147.3920 C   0  0  0  0  0  0  0  0  0  0  0  0
  161.0130  204.8670  149.4990 C   0  0  0  0  0  3  0  0  0  0  0  0
  160.8860  201.0980  150.0870 C   0  0  0  0  0  1  0  0  0  0  0  0
  161.4530  203.7440  145.6570 Cl  0  0  0  0  0  0  0  0  0  0  0  0
  161.1790  204.8980  148.1140 C   0  0  0  0  0  3  0  0  0  0  0  0
  160.9510  202.4410  149.4430 C   0  0  0  0  0  0  0  0  0  0  0  0
  160.8960  203.6470  150.1850 C   0  0  0  0  0  0  0  0  0  0  0  0
  161.1210  202.4840  148.0550 C   0  0  0  0  0  3  0  0  0  0  0  0
  1  9  1  1  0  0  0
  1 14  1  0  0  0  0
  2 13  1  0  0  0  0
  2  3  1  0  0  0  0
  3 19  1  0  0  0  0
  4 11  1  0  0  0  0
  5  2  1  0  0  0  0
  6 17  1  0  0  0  0
  6  1  1  0  0  0  0
  7  3  1  0  0  0  0
  7  4  1  0  0  0  0
  8 13  1  0  0  0  0
 11 15  1  0  0  0  0
 12  8  1  0  0  0  0
 13 18  1  0  0  0  0
 14  5  1  0  0  0  0
 15 20  1  0  0  0  0
 16 12  1  0  0  0  0
 16  5  1  0  0  0  0
 17 16  1  0  0  0  0
 18 10  1  0  0  0  0
 19 10  1  0  0  0  0
 19 20  1  0  0  0  0
 21  8  1  0  0  0  0
 23 22  2  0  0  0  0
 23 21  1  0  0  0  0
 24 31  2  0  0  0  0
 24 28  1  0  0  0  0
 25 30  1  0  0  0  0
 27 24  1  0  0  0  0
 28 25  2  0  0  0  0
 29 26  1  0  0  0  0
 29 30  2  0  0  0  0
 30 23  1  0  0  0  0
 31 29  1  0  0  0  0
M  END
>  <MODEL>
2

>  <REMARK>
 VINA RESULT:      -6.9      2.167      3.006
  Name = 
  3 active torsions:
  status: ('A' for Active; 'I' for Inactive)
    1  A    between atoms: C_9  and  C_22
    2  A    between atoms: C_9  and  C_23
    3  A    between atoms: C_15  and  C_23
                            x       y       z     vdW  Elec       q    Type
                         _______ _______ _______ _____ _____    ______ ____

>  <TORSDO>
F 3

$$$$
=
 OpenBabel11052422403D

 31 35  0  0  1  0  0  0  0  0999 V2000
  161.9410  210.6210  149.6770 C   0  0  2  0  0  3  0  0  0  0  0  0
  160.6200  208.3570  152.5390 C   0  0  1  0  0  3  0  0  0  0  0  0
  160.4420  209.4190  153.6390 C   0  0  1  0  0  3  0  0  0  0  0  0
  159.0190  211.4550  154.0600 C   0  0  0  0  0  2  0  0  0  0  0  0
  161.5960  208.8680  151.4700 C   0  0  2  0  0  3  0  0  0  0  0  0
  162.2530  209.5160  148.6680 C   0  0  0  0  0  2  0  0  0  0  0  0
  159.0360  209.9960  153.6070 C   0  0  0  0  0  2  0  0  0  0  0  0
  161.5020  206.0030  152.0240 C   0  0  1  0  0  3  0  0  0  0  0  0
  163.1190  211.1200  150.2340 O   0  0  0  0  0  1  0  0  0  0  0  0
  161.4420  207.7420  155.3440 N   0  0  0  0  0  2  0  0  0  0  0  0
  159.4990  211.6350  155.4970 C   0  0  0  0  0  2  0  0  0  0  0  0
  162.4400  206.5870  151.0570 N   0  0  0  0  0  2  0  0  0  0  0  0
  161.0310  206.9920  153.0980 C   0  0  1  0  0  3  0  0  0  0  0  0
  161.0110  210.1020  150.7740 C   0  0  0  0  0  2  0  0  0  0  0  0
  161.0240  211.5720  155.5520 C   0  0  0  0  0  2  0  0  0  0  0  0
  161.8680  207.7750  150.4280 C   0  0  2  0  0  3  0  0  0  0  0  0
  162.8330  208.2870  149.3630 C   0  0  0  0  0  2  0  0  0  0  0  0
  162.0860  207.1900  154.1610 C   0  0  0  0  0  2  0  0  0  0  0  0
  160.8110  209.0480  155.0980 C   0  0  1  0  0  3  0  0  0  0  0  0
  161.5590  210.1620  155.8300 C   0  0  0  0  0  2  0  0  0  0  0  0
  160.3870  205.1620  151.3830 C   0  0  0  0  0  2  0  0  0  0  0  0
  160.6820  203.1130  152.5430 O   0  0  0  0  0  0  0  0  0  0  0  0
  160.6320  203.6830  151.4200 C   0  0  0  0  0  0  0  0  0  0  0  0
  161.0790  201.3310  147.8530 C   0  0  0  0  0  0  0  0  0  0  0  0
  160.8400  201.5030  150.2500 C   0  0  0  0  0  3  0  0  0  0  0  0
  160.8470  204.9930  148.7040 C   0  0  0  0  0  1  0  0  0  0  0  0
  161.2350  200.3510  146.4110 Cl  0  0  0  0  0  0  0  0  0  0  0  0
  160.9740  200.7210  149.1020 C   0  0  0  0  0  3  0  0  0  0  0  0
  160.9180  203.5160  148.8950 C   0  0  0  0  0  0  0  0  0  0  0  0
  160.8100  202.9050  150.1690 C   0  0  0  0  0  0  0  0  0  0  0  0
  161.0490  202.7210  147.7510 C   0  0  0  0  0  3  0  0  0  0  0  0
  1  9  1  1  0  0  0
  1 14  1  0  0  0  0
  2 13  1  0  0  0  0
  2  3  1  0  0  0  0
  3 19  1  0  0  0  0
  4 11  1  0  0  0  0
  5  2  1  0  0  0  0
  6 17  1  0  0  0  0
  6  1  1  0  0  0  0
  7  3  1  0  0  0  0
  7  4  1  0  0  0  0
  8 13  1  0  0  0  0
 11 15  1  0  0  0  0
 12  8  1  0  0  0  0
 13 18  1  0  0  0  0
 14  5  1  0  0  0  0
 15 20  1  0  0  0  0
 16 12  1  0  0  0  0
 16  5  1  0  0  0  0
 17 16  1  0  0  0  0
 18 10  1  0  0  0  0
 19 10  1  0  0  0  0
 19 20  1  0  0  0  0
 21 23  1  0  0  0  0
 21  8  1  0  0  0  0
 23 22  2  0  0  0  0
 24 28  1  0  0  0  0
 26 29  1  0  0  0  0
 27 24  1  0  0  0  0
 28 25  2  0  0  0  0
 29 30  2  0  0  0  0
 30 25  1  0  0  0  0
 30 23  1  0  0  0  0
 31 24  2  0  0  0  0
 31 29  1  0  0  0  0
M  END
>  <MODEL>
3

>  <REMARK>
 VINA RESULT:      -5.7      1.962      3.046
  Name = 
  3 active torsions:
  status: ('A' for Active; 'I' for Inactive)
    1  A    between atoms: C_9  and  C_22
    2  A    between atoms: C_9  and  C_23
    3  A    between atoms: C_15  and  C_23
                            x       y       z     vdW  Elec       q    Type
                         _______ _______ _______ _____ _____    ______ ____

>  <TORSDO>
F 3

$$$$
=
 OpenBabel11052422403D

 31 35  0  0  1  0  0  0  0  0999 V2000
  160.4490  201.6340  149.2880 C   0  0  2  0  0  3  0  0  0  0  0  0
  160.8920  205.4850  149.1000 C   0  0  1  0  0  3  0  0  0  0  0  0
  161.0770  205.6430  147.5800 C   0  0  1  0  0  3  0  0  0  0  0  0
  159.7190  205.3010  145.4850 C   0  0  0  0  0  2  0  0  0  0  0  0
  161.2000  204.0400  149.5180 C   0  0  2  0  0  3  0  0  0  0  0  0
  160.4300  201.5030  150.8110 C   0  0  0  0  0  2  0  0  0  0  0  0
  159.7400  205.8830  146.8970 C   0  0  0  0  0  2  0  0  0  0  0  0
  161.7760  206.1940  151.4020 C   0  0  1  0  0  3  0  0  0  0  0  0
  161.6670  201.1850  148.7750 O   0  0  0  0  0  1  0  0  0  0  0  0
  162.9640  207.3590  148.0430 N   0  0  0  0  0  2  0  0  0  0  0  0
  160.7630  205.9340  144.5680 C   0  0  0  0  0  2  0  0  0  0  0  0
  162.0860  204.7900  151.6940 N   0  0  0  0  0  2  0  0  0  0  0  0
  161.7010  206.5080  149.9020 C   0  0  1  0  0  3  0  0  0  0  0  0
  160.1950  203.0820  148.8680 C   0  0  0  0  0  2  0  0  0  0  0  0
  162.1400  205.3440  144.8570 C   0  0  0  0  0  2  0  0  0  0  0  0
  161.1290  203.8980  151.0440 C   0  0  2  0  0  3  0  0  0  0  0  0
  161.4290  202.4600  151.4560 C   0  0  0  0  0  2  0  0  0  0  0  0
  163.0800  206.6310  149.2990 C   0  0  0  0  0  2  0  0  0  0  0  0
  162.1110  206.6750  147.0590 C   0  0  1  0  0  3  0  0  0  0  0  0
  162.9390  206.1540  145.8850 C   0  0  0  0  0  2  0  0  0  0  0  0
  160.6250  206.7690  152.2430 C   0  0  0  0  0  2  0  0  0  0  0  0
  161.6760  206.5610  154.3600 O   0  0  0  0  0  0  0  0  0  0  0  0
  161.0480  207.3180  153.5720 C   0  0  0  0  0  0  0  0  0  0  0  0
  160.1450  211.3330  154.8100 C   0  0  0  0  0  0  0  0  0  0  0  0
  159.9890  208.9430  155.1230 C   0  0  0  0  0  3  0  0  0  0  0  0
  162.0320  209.6970  151.9890 C   0  0  0  0  0  1  0  0  0  0  0  0
  159.7870  212.9590  155.3470 Cl  0  0  0  0  0  0  0  0  0  0  0  0
  159.6940  210.2390  155.5470 C   0  0  0  0  0  3  0  0  0  0  0  0
  161.1910  209.8350  153.2120 C   0  0  0  0  0  0  0  0  0  0  0  0
  160.7370  208.7180  153.9550 C   0  0  0  0  0  0  0  0  0  0  0  0
  160.8920  211.1310  153.6490 C   0  0  0  0  0  3  0  0  0  0  0  0
  1  9  1  1  0  0  0
  1  6  1  0  0  0  0
  2  5  1  0  0  0  0
  2 13  1  0  0  0  0
  3  2  1  0  0  0  0
  4  7  1  0  0  0  0
  5 16  1  0  0  0  0
  6 17  1  0  0  0  0
  7  3  1  0  0  0  0
  8 12  1  0  0  0  0
  8 21  1  0  0  0  0
 10 18  1  0  0  0  0
 11 15  1  0  0  0  0
 11  4  1  0  0  0  0
 13  8  1  0  0  0  0
 14  1  1  0  0  0  0
 14  5  1  0  0  0  0
 15 20  1  0  0  0  0
 16 17  1  0  0  0  0
 16 12  1  0  0  0  0
 18 13  1  0  0  0  0
 19  3  1  0  0  0  0
 19 10  1  0  0  0  0
 20 19  1  0  0  0  0
 21 23  1  0  0  0  0
 23 30  1  0  0  0  0
 23 22  2  0  0  0  0
 24 27  1  0  0  0  0
 24 28  1  0  0  0  0
 25 28  2  0  0  0  0
 26 29  1  0  0  0  0
 29 31  1  0  0  0  0
 29 30  2  0  0  0  0
 30 25  1  0  0  0  0
 31 24  2  0  0  0  0
M  END
>  <MODEL>
4

>  <REMARK>
 VINA RESULT:      -5.6      3.826      9.009
  Name = 
  3 active torsions:
  status: ('A' for Active; 'I' for Inactive)
    1  A    between atoms: C_9  and  C_22
    2  A    between atoms: C_9  and  C_23
    3  A    between atoms: C_15  and  C_23
                            x       y       z     vdW  Elec       q    Type
                         _______ _______ _______ _____ _____    ______ ____

>  <TORSDO>
F 3

$$$$
=
 OpenBabel11052422403D

 31 35  0  0  1  0  0  0  0  0999 V2000
  160.4720  202.4710  150.4460 C   0  0  2  0  0  3  0  0  0  0  0  0
  160.9390  206.1520  149.3090 C   0  0  1  0  0  3  0  0  0  0  0  0
  161.1630  205.9250  147.8030 C   0  0  1  0  0  3  0  0  0  0  0  0
  159.8550  205.0660  145.8280 C   0  0  0  0  0  2  0  0  0  0  0  0
  161.2300  204.8590  150.0830 C   0  0  2  0  0  3  0  0  0  0  0  0
  160.4140  202.7270  151.9520 C   0  0  0  0  0  2  0  0  0  0  0  0
  159.8440  205.9840  147.0490 C   0  0  0  0  0  2  0  0  0  0  0  0
  161.7700  207.4180  151.3810 C   0  0  1  0  0  3  0  0  0  0  0  0
  161.7000  201.9100  150.0930 O   0  0  0  0  0  1  0  0  0  0  0  0
  163.0470  207.7040  147.8680 N   0  0  0  0  0  2  0  0  0  0  0  0
  160.9250  205.4500  144.8080 C   0  0  0  0  0  2  0  0  0  0  0  0
  162.0650  206.1320  152.0240 N   0  0  0  0  0  2  0  0  0  0  0  0
  161.7340  207.3450  149.8490 C   0  0  1  0  0  3  0  0  0  0  0  0
  160.2360  203.7670  149.6700 C   0  0  0  0  0  2  0  0  0  0  0  0
  162.2920  204.9530  145.2700 C   0  0  0  0  0  2  0  0  0  0  0  0
  161.1200  205.1050  151.5940 C   0  0  2  0  0  3  0  0  0  0  0  0
  161.4020  203.8170  152.3610 C   0  0  0  0  0  2  0  0  0  0  0  0
  163.1280  207.3150  149.2690 C   0  0  0  0  0  2  0  0  0  0  0  0
  162.2150  206.7930  147.0660 C   0  0  1  0  0  3  0  0  0  0  0  0
  163.0690  205.9960  146.0820 C   0  0  0  0  0  2  0  0  0  0  0  0
  160.6020  208.1840  152.0220 C   0  0  0  0  0  2  0  0  0  0  0  0
  162.1100  209.9950  152.2930 O   0  0  0  0  0  0  0  0  0  0  0  0
  160.9740  209.5280  152.5720 C   0  0  0  0  0  0  0  0  0  0  0  0
  158.1540  211.7440  154.9390 C   0  0  0  0  0  0  0  0  0  0  0  0
  159.1180  211.1620  152.8020 C   0  0  0  0  0  3  0  0  0  0  0  0
  160.8810  209.2250  155.5780 C   0  0  0  0  0  1  0  0  0  0  0  0
  156.9800  212.6370  155.8800 Cl  0  0  0  0  0  0  0  0  0  0  0  0
  158.1880  211.8830  153.5520 C   0  0  0  0  0  3  0  0  0  0  0  0
  159.9880  210.1590  154.8340 C   0  0  0  0  0  0  0  0  0  0  0  0
  160.0300  210.2930  153.4240 C   0  0  0  0  0  0  0  0  0  0  0  0
  159.0490  210.8840  155.5760 C   0  0  0  0  0  3  0  0  0  0  0  0
  1  9  1  1  0  0  0
  1  6  1  0  0  0  0
  2 13  1  0  0  0  0
  2  5  1  0  0  0  0
  3  2  1  0  0  0  0
  4  7  1  0  0  0  0
  5 16  1  0  0  0  0
  6 17  1  0  0  0  0
  7  3  1  0  0  0  0
  8 21  1  0  0  0  0
  8 12  1  0  0  0  0
 10 18  1  0  0  0  0
 11 15  1  0  0  0  0
 11  4  1  0  0  0  0
 13  8  1  0  0  0  0
 14  5  1  0  0  0  0
 14  1  1  0  0  0  0
 15 20  1  0  0  0  0
 16 12  1  0  0  0  0
 16 17  1  0  0  0  0
 18 13  1  0  0  0  0
 19  3  1  0  0  0  0
 19 10  1  0  0  0  0
 20 19  1  0  0  0  0
 21 23  1  0  0  0  0
 22 23  2  0  0  0  0
 23 30  1  0  0  0  0
 24 31  1  0  0  0  0
 24 27  1  0  0  0  0
 25 30  2  0  0  0  0
 25 28  1  0  0  0  0
 28 24  2  0  0  0  0
 29 31  2  0  0  0  0
 29 26  1  0  0  0  0
 30 29  1  0  0  0  0
M  END
>  <MODEL>
5

>  <REMARK>
 VINA RESULT:      -5.5      3.510      8.878
  Name = 
  3 active torsions:
  status: ('A' for Active; 'I' for Inactive)
    1  A    between atoms: C_9  and  C_22
    2  A    between atoms: C_9  and  C_23
    3  A    between atoms: C_15  and  C_23
                            x       y       z     vdW  Elec       q    Type
                         _______ _______ _______ _____ _____    ______ ____

>  <TORSDO>
F 3

$$$$
=
 OpenBabel11052422403D

 31 35  0  0  1  0  0  0  0  0999 V2000
  160.7120  207.7080  156.9520 C   0  0  2  0  0  3  0  0  0  0  0  0
  160.5870  210.5820  154.3480 C   0  0  1  0  0  3  0  0  0  0  0  0
  159.9460  211.6800  155.2150 C   0  0  1  0  0  3  0  0  0  0  0  0
  160.5340  213.0290  157.2610 C   0  0  0  0  0  2  0  0  0  0  0  0
  160.2960  209.2010  154.9510 C   0  0  2  0  0  3  0  0  0  0  0  0
  161.2010  206.6030  156.0160 C   0  0  0  0  0  2  0  0  0  0  0  0
  161.0150  212.5130  155.9050 C   0  0  0  0  0  2  0  0  0  0  0  0
  160.5460  209.4360  152.0520 C   0  0  1  0  0  3  0  0  0  0  0  0
  159.3590  207.5360  157.2460 O   0  0  0  0  0  1  0  0  0  0  0  0
  158.4690  212.3410  153.1910 N   0  0  0  0  0  2  0  0  0  0  0  0
  159.3170  213.9430  157.1480 C   0  0  0  0  0  2  0  0  0  0  0  0
  160.2170  208.1680  152.7120 N   0  0  0  0  0  2  0  0  0  0  0  0
  160.1710  210.6740  152.8770 C   0  0  1  0  0  3  0  0  0  0  0  0
  160.9520  209.0840  156.3320 C   0  0  0  0  0  2  0  0  0  0  0  0
  158.0530  213.1100  156.9480 C   0  0  0  0  0  2  0  0  0  0  0  0
  160.8330  208.0930  154.0350 C   0  0  2  0  0  3  0  0  0  0  0  0
  160.5490  206.7220  154.6400 C   0  0  0  0  0  2  0  0  0  0  0  0
  158.6890  210.9560  152.7990 C   0  0  0  0  0  2  0  0  0  0  0  0
  158.9000  212.6240  154.5680 C   0  0  1  0  0  3  0  0  0  0  0  0
  157.6990  212.8980  155.4720 C   0  0  0  0  0  2  0  0  0  0  0  0
  161.9520  209.4720  151.4310 C   0  0  0  0  0  2  0  0  0  0  0  0
  162.5210  208.9070  149.1980 O   0  0  0  0  0  0  0  0  0  0  0  0
  162.1640  208.4780  150.3280 C   0  0  0  0  0  0  0  0  0  0  0  0
  161.5840  204.2950  151.1210 C   0  0  0  0  0  0  0  0  0  0  0  0
  162.5490  206.4370  151.6880 C   0  0  0  0  0  3  0  0  0  0  0  0
  160.4630  206.7660  148.5080 C   0  0  0  0  0  1  0  0  0  0  0  0
  161.3420  202.6000  151.4790 Cl  0  0  0  0  0  0  0  0  0  0  0  0
  162.3640  205.0820  151.9680 C   0  0  0  0  0  3  0  0  0  0  0  0
  161.1690  206.2190  149.7020 C   0  0  0  0  0  0  0  0  0  0  0  0
  161.9600  207.0260  150.5570 C   0  0  0  0  0  0  0  0  0  0  0  0
  160.9880  204.8630  149.9950 C   0  0  0  0  0  3  0  0  0  0  0  0
  1  9  1  6  0  0  0
  2  5  1  0  0  0  0
  2  3  1  0  0  0  0
  3  7  1  0  0  0  0
  5 14  1  0  0  0  0
  6  1  1  0  0  0  0
  7  4  1  0  0  0  0
  8 12  1  0  0  0  0
  8 13  1  0  0  0  0
 10 19  1  0  0  0  0
 11  4  1  0  0  0  0
 12 16  1  0  0  0  0
 13  2  1  0  0  0  0
 14  1  1  0  0  0  0
 15 11  1  0  0  0  0
 16 17  1  0  0  0  0
 16  5  1  0  0  0  0
 17  6  1  0  0  0  0
 18 13  1  0  0  0  0
 18 10  1  0  0  0  0
 19  3  1  0  0  0  0
 19 20  1  0  0  0  0
 20 15  1  0  0  0  0
 21  8  1  0  0  0  0
 22 23  2  0  0  0  0
 23 30  1  0  0  0  0
 23 21  1  0  0  0  0
 24 27  1  0  0  0  0
 24 28  1  0  0  0  0
 25 28  2  0  0  0  0
 26 29  1  0  0  0  0
 29 31  1  0  0  0  0
 29 30  2  0  0  0  0
 30 25  1  0  0  0  0
 31 24  2  0  0  0  0
M  END
>  <MODEL>
6

>  <REMARK>
 VINA RESULT:      -5.5      2.406      4.433
  Name = 
  3 active torsions:
  status: ('A' for Active; 'I' for Inactive)
    1  A    between atoms: C_9  and  C_22
    2  A    between atoms: C_9  and  C_23
    3  A    between atoms: C_15  and  C_23
                            x       y       z     vdW  Elec       q    Type
                         _______ _______ _______ _____ _____    ______ ____

>  <TORSDO>
F 3

$$$$
=
 OpenBabel11052422403D

 31 35  0  0  1  0  0  0  0  0999 V2000
  158.7050  213.1600  151.0760 C   0  0  2  0  0  3  0  0  0  0  0  0
  158.7220  211.0080  154.3050 C   0  0  1  0  0  3  0  0  0  0  0  0
  157.9800  211.9690  155.2520 C   0  0  1  0  0  3  0  0  0  0  0  0
  155.6810  212.9800  155.4650 C   0  0  0  0  0  2  0  0  0  0  0  0
  159.3020  211.7880  153.1180 C   0  0  2  0  0  3  0  0  0  0  0  0
  159.5820  212.2490  150.2170 C   0  0  0  0  0  2  0  0  0  0  0  0
  156.4830  211.7020  155.2250 C   0  0  0  0  0  2  0  0  0  0  0  0
  160.7330  209.4320  154.0780 C   0  0  1  0  0  3  0  0  0  0  0  0
  159.4240  214.2850  151.4840 O   0  0  0  0  0  1  0  0  0  0  0  0
  159.6760  211.3580  157.1140 N   0  0  0  0  0  2  0  0  0  0  0  0
  155.9580  213.6030  156.8310 C   0  0  0  0  0  2  0  0  0  0  0  0
  161.2400  210.2670  152.9830 N   0  0  0  0  0  2  0  0  0  0  0  0
  159.7820  210.1720  155.0270 C   0  0  1  0  0  3  0  0  0  0  0  0
  158.1670  212.4030  152.2900 C   0  0  0  0  0  2  0  0  0  0  0  0
  157.2800  214.3650  156.8010 C   0  0  0  0  0  2  0  0  0  0  0  0
  160.1400  210.8600  152.2270 C   0  0  2  0  0  3  0  0  0  0  0  0
  160.7100  211.6360  151.0430 C   0  0  0  0  0  2  0  0  0  0  0  0
  160.5440  211.0580  155.9850 C   0  0  0  0  0  2  0  0  0  0  0  0
  158.4540  212.0780  156.7240 C   0  0  1  0  0  3  0  0  0  0  0  0
  158.4760  213.5140  157.2440 C   0  0  0  0  0  2  0  0  0  0  0  0
  160.2530  208.0410  153.6320 C   0  0  0  0  0  2  0  0  0  0  0  0
  162.3630  207.0980  154.1660 O   0  0  0  0  0  0  0  0  0  0  0  0
  161.3550  207.0500  153.4110 C   0  0  0  0  0  0  0  0  0  0  0  0
  160.9990  204.0500  150.3550 C   0  0  0  0  0  0  0  0  0  0  0  0
  160.8370  204.7390  152.6650 C   0  0  0  0  0  3  0  0  0  0  0  0
  161.9770  207.6840  150.5220 C   0  0  0  0  0  1  0  0  0  0  0  0
  160.8230  202.8190  149.1250 Cl  0  0  0  0  0  0  0  0  0  0  0  0
  160.7050  203.7530  151.6850 C   0  0  0  0  0  3  0  0  0  0  0  0
  161.5630  206.3260  150.9780 C   0  0  0  0  0  0  0  0  0  0  0  0
  161.2660  206.0340  152.3320 C   0  0  0  0  0  0  0  0  0  0  0  0
  161.4240  205.3310  150.0040 C   0  0  0  0  0  3  0  0  0  0  0  0
  1  9  1  1  0  0  0
  1 14  1  0  0  0  0
  2 13  1  0  0  0  0
  2  3  1  0  0  0  0
  3 19  1  0  0  0  0
  4 11  1  0  0  0  0
  5  2  1  0  0  0  0
  6 17  1  0  0  0  0
  6  1  1  0  0  0  0
  7  3  1  0  0  0  0
  7  4  1  0  0  0  0
  8 13  1  0  0  0  0
 12  8  1  0  0  0  0
 13 18  1  0  0  0  0
 14  5  1  0  0  0  0
 15 11  1  0  0  0  0
 15 20  1  0  0  0  0
 16 12  1  0  0  0  0
 16  5  1  0  0  0  0
 17 16  1  0  0  0  0
 18 10  1  0  0  0  0
 19 10  1  0  0  0  0
 19 20  1  0  0  0  0
 21  8  1  0  0  0  0
 23 21  1  0  0  0  0
 23 22  2  0  0  0  0
 24 28  1  0  0  0  0
 26 29  1  0  0  0  0
 27 24  1  0  0  0  0
 28 25  2  0  0  0  0
 29 30  2  0  0  0  0
 30 25  1  0  0  0  0
 30 23  1  0  0  0  0
 31 24  2  0  0  0  0
 31 29  1  0  0  0  0
M  END
>  <MODEL>
7

>  <REMARK>
 VINA RESULT:      -5.4      1.451      2.313
  Name = 
  3 active torsions:
  status: ('A' for Active; 'I' for Inactive)
    1  A    between atoms: C_9  and  C_22
    2  A    between atoms: C_9  and  C_23
    3  A    between atoms: C_15  and  C_23
                            x       y       z     vdW  Elec       q    Type
                         _______ _______ _______ _____ _____    ______ ____

>  <TORSDO>
F 3

$$$$
