=
 OpenBabel11062408283D

 32 37  0  0  1  0  0  0  0  0999 V2000
  161.6310  210.2320  150.8350 C   0  0  0  0  0  0  0  0  0  0  0  0
  161.6860  207.8210  150.4330 C   0  0  0  0  0  0  0  0  0  0  0  0
  161.6820  211.5860  150.3540 N   0  0  0  0  0  2  0  0  0  0  0  0
  161.7800  209.2170  149.9700 C   0  0  0  0  0  0  0  0  0  0  0  0
  161.7360  206.8110  149.5310 C   0  0  0  0  0  0  0  0  0  0  0  0
  160.7300  204.3440  153.7860 C   0  0  0  0  0  2  0  0  0  0  0  0
  161.5010  207.5680  151.8820 C   0  0  0  0  0  0  0  0  0  0  0  0
  161.9540  203.7840  151.8010 O   0  0  0  0  0  0  0  0  0  0  0  0
  162.0570  205.1420  151.3900 C   0  0  1  0  0  3  0  0  0  0  0  0
  161.9280  206.0570  147.1610 C   0  0  0  0  0  3  0  0  0  0  0  0
  161.9480  209.4930  148.5370 C   0  0  0  0  0  0  0  0  0  0  0  0
  161.5270  205.3730  149.9760 C   0  0  0  0  0  2  0  0  0  0  0  0
  161.9820  208.4820  147.6700 C   0  0  0  0  0  3  0  0  0  0  0  0
  162.0230  210.8470  148.0890 N   0  0  0  0  0  2  0  0  0  0  0  0
  161.3410  208.6020  152.7150 C   0  0  0  0  0  3  0  0  0  0  0  0
  162.0540  206.2980  145.9310 O   0  0  0  0  0  0  0  0  0  0  0  0
  161.3740  209.9600  152.2290 N   0  0  0  0  0  0  0  0  0  0  0  0
  161.4930  206.1730  152.3480 C   0  0  0  0  0  0  0  0  0  0  0  0
  161.8820  207.1170  148.1240 N   0  0  0  0  0  0  0  0  0  0  0  0
  162.2570  211.9220  149.0500 C   0  0  0  0  0  2  0  0  0  0  0  0
  160.7390  203.5570  152.4790 C   0  0  0  0  0  2  0  0  0  0  0  0
  160.8460  205.7950  153.4540 C   0  0  0  0  0  3  0  0  0  0  0  0
  159.9990  210.3950  155.3200 N   0  0  0  0  0  0  0  0  0  0  0  0
  158.5570  212.3610  155.5650 C   0  0  0  0  0  1  0  0  0  0  0  0
  158.6460  211.1260  153.3830 C   0  0  0  0  0  2  0  0  0  0  0  0
  161.1630  211.0770  153.1510 C   0  0  1  0  0  3  0  0  0  0  0  0
  159.8760  211.8380  152.8240 C   0  0  0  0  0  2  0  0  0  0  0  0
  161.2150  210.6220  154.5830 C   0  0  0  0  0  0  0  0  0  0  0  0
  162.3330  210.3790  155.1100 O   0  0  0  0  0  0  0  0  0  0  0  0
  158.7350  211.0030  154.9040 C   0  0  1  0  0  3  0  0  0  0  0  0
  159.9270  208.2800  156.3010 O   0  0  0  0  0  1  0  0  0  0  0  0
  160.0220  209.6460  156.5690 C   0  0  0  0  0  2  0  0  0  0  0  0
  1 17  1  0  0  0  0
  2  7  1  0  0  0  0
  3  1  1  0  0  0  0
  4  2  1  0  0  0  0
  4  1  2  0  0  0  0
  5 12  1  0  0  0  0
  5  2  2  0  0  0  0
  7 18  1  0  0  0  0
  7 15  2  0  0  0  0
  8 21  1  0  0  0  0
  9 12  1  6  0  0  0
  9  8  1  0  0  0  0
  9 18  1  0  0  0  0
 10 19  1  0  0  0  0
 11  4  1  0  0  0  0
 13 19  1  0  0  0  0
 13 11  2  0  0  0  0
 14 11  1  0  0  0  0
 14 20  1  0  0  0  0
 16 10  2  0  0  0  0
 17 15  1  0  0  0  0
 18 22  2  0  0  0  0
 19  5  1  0  0  0  0
 20  3  1  0  0  0  0
 21  6  1  0  0  0  0
 22  6  1  0  0  0  0
 23 32  1  0  0  0  0
 25 30  1  0  0  0  0
 26 17  1  6  0  0  0
 26 28  1  0  0  0  0
 27 26  1  0  0  0  0
 27 25  1  0  0  0  0
 28 29  2  0  0  0  0
 28 23  1  0  0  0  0
 30 23  1  0  0  0  0
 30 24  1  1  0  0  0
 31 32  1  0  0  0  0
M  END
>  <MODEL>
1

>  <REMARK>
 VINA RESULT:      -6.1      0.000      0.000
  Name = 
  2 active torsions:
  status: ('A' for Active; 'I' for Inactive)
    1  A    between atoms: N_3  and  C_19
    2  A    between atoms: C_16  and  N_27
                            x       y       z     vdW  Elec       q    Type
                         _______ _______ _______ _____ _____    ______ ____

>  <TORSDO>
F 2

$$$$
=
 OpenBabel11062408283D

 32 37  0  0  1  0  0  0  0  0999 V2000
  161.4020  208.8030  152.1280 C   0  0  0  0  0  0  0  0  0  0  0  0
  160.7840  211.0810  151.4920 C   0  0  0  0  0  0  0  0  0  0  0  0
  161.4240  207.7290  153.0850 N   0  0  0  0  0  2  0  0  0  0  0  0
  160.8590  209.9810  152.4700 C   0  0  0  0  0  0  0  0  0  0  0  0
  160.1410  212.2280  151.8190 C   0  0  0  0  0  0  0  0  0  0  0  0
  161.2250  213.0040  146.9800 C   0  0  0  0  0  2  0  0  0  0  0  0
  161.3880  210.8780  150.1530 C   0  0  0  0  0  0  0  0  0  0  0  0
  161.0210  214.4520  148.8810 O   0  0  0  0  0  0  0  0  0  0  0  0
  161.1250  213.3770  149.8060 C   0  0  1  0  0  3  0  0  0  0  0  0
  158.8490  213.5630  153.4840 C   0  0  0  0  0  3  0  0  0  0  0  0
  160.2540  210.1530  153.7970 C   0  0  0  0  0  0  0  0  0  0  0  0
  159.9540  213.3270  150.7870 C   0  0  0  0  0  2  0  0  0  0  0  0
  159.6180  211.2870  154.0910 C   0  0  0  0  0  3  0  0  0  0  0  0
  160.3150  209.0810  154.7380 N   0  0  0  0  0  2  0  0  0  0  0  0
  161.9070  209.6870  149.8400 C   0  0  0  0  0  3  0  0  0  0  0  0
  158.3160  213.7010  154.6170 O   0  0  0  0  0  0  0  0  0  0  0  0
  161.9140  208.6040  150.7940 N   0  0  0  0  0  0  0  0  0  0  0  0
  161.3850  212.0080  149.2110 C   0  0  0  0  0  0  0  0  0  0  0  0
  159.5380  212.3580  153.1290 N   0  0  0  0  0  0  0  0  0  0  0  0
  161.2320  207.9660  154.5170 C   0  0  0  0  0  2  0  0  0  0  0  0
  160.3660  214.0370  147.7030 C   0  0  0  0  0  2  0  0  0  0  0  0
  161.4010  211.8310  147.8870 C   0  0  0  0  0  3  0  0  0  0  0  0
  161.2230  206.2080  148.4670 N   0  0  0  0  0  0  0  0  0  0  0  0
  161.2520  203.9000  149.2890 C   0  0  0  0  0  1  0  0  0  0  0  0
  160.4800  205.7620  150.7830 C   0  0  0  0  0  2  0  0  0  0  0  0
  162.4560  207.2960  150.4200 C   0  0  1  0  0  3  0  0  0  0  0  0
  161.8630  206.1780  151.2800 C   0  0  0  0  0  2  0  0  0  0  0  0
  162.2960  207.0380  148.9480 C   0  0  0  0  0  0  0  0  0  0  0  0
  163.0730  207.6080  148.1370 O   0  0  0  0  0  0  0  0  0  0  0  0
  160.5530  205.2490  149.3460 C   0  0  1  0  0  3  0  0  0  0  0  0
  161.6790  205.3460  146.3480 O   0  0  0  0  0  1  0  0  0  0  0  0
  160.8550  206.2200  147.0570 C   0  0  0  0  0  2  0  0  0  0  0  0
  1  4  2  0  0  0  0
  1  3  1  0  0  0  0
  2  5  2  0  0  0  0
  2  4  1  0  0  0  0
  3 20  1  0  0  0  0
  4 11  1  0  0  0  0
  5 19  1  0  0  0  0
  6 21  1  0  0  0  0
  6 22  1  0  0  0  0
  7  2  1  0  0  0  0
  8  9  1  0  0  0  0
  9 12  1  6  0  0  0
 10 16  2  0  0  0  0
 11 13  2  0  0  0  0
 11 14  1  0  0  0  0
 12  5  1  0  0  0  0
 15  7  2  0  0  0  0
 15 17  1  0  0  0  0
 17  1  1  0  0  0  0
 18  9  1  0  0  0  0
 18  7  1  0  0  0  0
 19 10  1  0  0  0  0
 19 13  1  0  0  0  0
 20 14  1  0  0  0  0
 21  8  1  0  0  0  0
 22 18  2  0  0  0  0
 23 28  1  0  0  0  0
 23 30  1  0  0  0  0
 25 27  1  0  0  0  0
 26 17  1  1  0  0  0
 26 27  1  0  0  0  0
 28 26  1  0  0  0  0
 29 28  2  0  0  0  0
 30 24  1  1  0  0  0
 30 25  1  0  0  0  0
 31 32  1  0  0  0  0
 32 23  1  0  0  0  0
M  END
>  <MODEL>
2

>  <REMARK>
 VINA RESULT:      -5.9      2.390      7.700
  Name = 
  2 active torsions:
  status: ('A' for Active; 'I' for Inactive)
    1  A    between atoms: N_3  and  C_19
    2  A    between atoms: C_16  and  N_27
                            x       y       z     vdW  Elec       q    Type
                         _______ _______ _______ _____ _____    ______ ____

>  <TORSDO>
F 2

$$$$
=
 OpenBabel11062408283D

 32 37  0  0  1  0  0  0  0  0999 V2000
  161.6160  209.7410  151.1490 C   0  0  0  0  0  0  0  0  0  0  0  0
  161.3870  207.4520  150.3230 C   0  0  0  0  0  0  0  0  0  0  0  0
  161.6500  210.6880  152.2310 N   0  0  0  0  0  2  0  0  0  0  0  0
  161.3810  208.4470  151.4110 C   0  0  0  0  0  0  0  0  0  0  0  0
  161.2510  206.1360  150.6170 C   0  0  0  0  0  0  0  0  0  0  0  0
  162.1630  206.0000  145.6830 C   0  0  0  0  0  2  0  0  0  0  0  0
  161.5810  207.9270  148.9330 C   0  0  0  0  0  0  0  0  0  0  0  0
  160.8660  204.6280  147.1630 O   0  0  0  0  0  0  0  0  0  0  0  0
  160.8500  205.6150  148.1860 C   0  0  1  0  0  3  0  0  0  0  0  0
  160.9640  204.3360  152.3200 C   0  0  0  0  0  3  0  0  0  0  0  0
  161.2060  207.9980  152.7980 C   0  0  0  0  0  0  0  0  0  0  0  0
  161.3680  205.0880  149.5230 C   0  0  0  0  0  2  0  0  0  0  0  0
  161.0860  206.6980  153.0620 C   0  0  0  0  0  3  0  0  0  0  0  0
  161.2170  208.9620  153.8520 N   0  0  0  0  0  2  0  0  0  0  0  0
  161.8280  209.2220  148.7080 C   0  0  0  0  0  3  0  0  0  0  0  0
  160.8310  203.9530  153.5130 O   0  0  0  0  0  0  0  0  0  0  0  0
  161.8800  210.1680  149.7960 N   0  0  0  0  0  0  0  0  0  0  0  0
  161.5010  206.9410  147.8440 C   0  0  0  0  0  0  0  0  0  0  0  0
  161.1010  205.7250  151.9970 N   0  0  0  0  0  0  0  0  0  0  0  0
  161.0760  210.3830  153.5430 C   0  0  0  0  0  2  0  0  0  0  0  0
  162.0750  204.6770  146.4380 C   0  0  0  0  0  2  0  0  0  0  0  0
  162.1410  207.1080  146.6830 C   0  0  0  0  0  3  0  0  0  0  0  0
  160.3380  212.7900  148.2520 N   0  0  0  0  0  0  0  0  0  0  0  0
  161.7680  214.1460  146.7970 C   0  0  0  0  0  1  0  0  0  0  0  0
  162.1620  211.6770  147.0070 C   0  0  0  0  0  2  0  0  0  0  0  0
  162.1840  211.5760  149.5340 C   0  0  1  0  0  3  0  0  0  0  0  0
  163.0250  211.7390  148.2660 C   0  0  0  0  0  2  0  0  0  0  0  0
  160.9340  212.4110  149.5070 C   0  0  0  0  0  0  0  0  0  0  0  0
  160.3780  212.7180  150.5940 O   0  0  0  0  0  0  0  0  0  0  0  0
  161.1150  212.7900  147.0120 C   0  0  1  0  0  3  0  0  0  0  0  0
  158.2640  212.6500  147.1940 O   0  0  0  0  0  1  0  0  0  0  0  0
  158.9730  213.2970  148.2070 C   0  0  0  0  0  2  0  0  0  0  0  0
  1  4  2  0  0  0  0
  1  3  1  0  0  0  0
  2  5  2  0  0  0  0
  2  4  1  0  0  0  0
  3 20  1  0  0  0  0
  4 11  1  0  0  0  0
  5 19  1  0  0  0  0
  6 21  1  0  0  0  0
  6 22  1  0  0  0  0
  7  2  1  0  0  0  0
  8  9  1  0  0  0  0
  9 12  1  1  0  0  0
 10 16  2  0  0  0  0
 11 13  2  0  0  0  0
 11 14  1  0  0  0  0
 12  5  1  0  0  0  0
 15  7  2  0  0  0  0
 15 17  1  0  0  0  0
 17  1  1  0  0  0  0
 18  9  1  0  0  0  0
 18  7  1  0  0  0  0
 19 10  1  0  0  0  0
 19 13  1  0  0  0  0
 20 14  1  0  0  0  0
 21  8  1  0  0  0  0
 22 18  2  0  0  0  0
 23 28  1  0  0  0  0
 25 30  1  0  0  0  0
 25 27  1  0  0  0  0
 26 27  1  6  0  0  0
 26 17  1  0  0  0  0
 28 26  1  0  0  0  0
 28 29  2  0  0  0  0
 30 24  1  1  0  0  0
 30 23  1  0  0  0  0
 31 32  1  0  0  0  0
 32 23  1  0  0  0  0
M  END
>  <MODEL>
3

>  <REMARK>
 VINA RESULT:      -5.8      2.384      5.724
  Name = 
  2 active torsions:
  status: ('A' for Active; 'I' for Inactive)
    1  A    between atoms: N_3  and  C_19
    2  A    between atoms: C_16  and  N_27
                            x       y       z     vdW  Elec       q    Type
                         _______ _______ _______ _____ _____    ______ ____

>  <TORSDO>
F 2

$$$$
=
 OpenBabel11062408283D

 32 37  0  0  1  0  0  0  0  0999 V2000
  160.7190  211.9710  151.2120 C   0  0  0  0  0  0  0  0  0  0  0  0
  161.2890  209.6000  151.3860 C   0  0  0  0  0  0  0  0  0  0  0  0
  160.6050  213.1810  150.4430 N   0  0  0  0  0  2  0  0  0  0  0  0
  161.2050  210.8630  150.6320 C   0  0  0  0  0  0  0  0  0  0  0  0
  161.6830  208.4670  150.7560 C   0  0  0  0  0  0  0  0  0  0  0  0
  160.4050  206.7310  155.2890 C   0  0  0  0  0  2  0  0  0  0  0  0
  160.8970  209.6040  152.8160 C   0  0  0  0  0  0  0  0  0  0  0  0
  162.0460  206.0710  153.6690 O   0  0  0  0  0  0  0  0  0  0  0  0
  161.9690  207.3100  152.9750 C   0  0  1  0  0  3  0  0  0  0  0  0
  162.4310  207.3200  148.6710 C   0  0  0  0  0  3  0  0  0  0  0  0
  161.5730  210.8800  149.2100 C   0  0  0  0  0  0  0  0  0  0  0  0
  161.6670  207.1350  151.4870 C   0  0  0  0  0  2  0  0  0  0  0  0
  161.9460  209.7500  148.6110 C   0  0  0  0  0  3  0  0  0  0  0  0
  161.4760  212.1010  148.4760 N   0  0  0  0  0  2  0  0  0  0  0  0
  160.4030  210.7210  153.3590 C   0  0  0  0  0  3  0  0  0  0  0  0
  162.7290  207.3350  147.4470 O   0  0  0  0  0  0  0  0  0  0  0  0
  160.2720  211.9300  152.5830 N   0  0  0  0  0  0  0  0  0  0  0  0
  161.0640  208.3620  153.5860 C   0  0  0  0  0  0  0  0  0  0  0  0
  162.0190  208.5130  149.3490 N   0  0  0  0  0  0  0  0  0  0  0  0
  161.3320  213.3700  149.1870 C   0  0  0  0  0  2  0  0  0  0  0  0
  160.7920  205.7230  154.2120 C   0  0  0  0  0  2  0  0  0  0  0  0
  160.3090  208.0780  154.6510 C   0  0  0  0  0  3  0  0  0  0  0  0
  157.8960  212.6350  154.9260 N   0  0  0  0  0  0  0  0  0  0  0  0
  156.3570  214.4530  154.3540 C   0  0  0  0  0  1  0  0  0  0  0  0
  157.2570  212.9490  152.5580 C   0  0  0  0  0  2  0  0  0  0  0  0
  159.6980  213.1350  153.1870 C   0  0  1  0  0  3  0  0  0  0  0  0
  158.5650  213.7040  152.3310 C   0  0  0  0  0  2  0  0  0  0  0  0
  159.2780  212.8870  154.6090 C   0  0  0  0  0  0  0  0  0  0  0  0
  160.1570  212.8370  155.5090 O   0  0  0  0  0  0  0  0  0  0  0  0
  156.8230  213.0450  154.0210 C   0  0  1  0  0  3  0  0  0  0  0  0
  156.4260  211.2260  156.0640 O   0  0  0  0  0  1  0  0  0  0  0  0
  157.5270  212.0700  156.2170 C   0  0  0  0  0  2  0  0  0  0  0  0
  1 17  1  0  0  0  0
  2  7  1  0  0  0  0
  3  1  1  0  0  0  0
  4  1  2  0  0  0  0
  4  2  1  0  0  0  0
  5  2  2  0  0  0  0
  5 12  1  0  0  0  0
  7 15  2  0  0  0  0
  7 18  1  0  0  0  0
  8 21  1  0  0  0  0
  9 12  1  6  0  0  0
  9 18  1  0  0  0  0
  9  8  1  0  0  0  0
 10 19  1  0  0  0  0
 11  4  1  0  0  0  0
 13 11  2  0  0  0  0
 13 19  1  0  0  0  0
 14 20  1  0  0  0  0
 14 11  1  0  0  0  0
 16 10  2  0  0  0  0
 17 26  1  0  0  0  0
 17 15  1  0  0  0  0
 18 22  2  0  0  0  0
 19  5  1  0  0  0  0
 20  3  1  0  0  0  0
 21  6  1  0  0  0  0
 22  6  1  0  0  0  0
 23 32  1  0  0  0  0
 25 30  1  0  0  0  0
 26 27  1  6  0  0  0
 26 28  1  0  0  0  0
 27 25  1  0  0  0  0
 28 23  1  0  0  0  0
 28 29  2  0  0  0  0
 30 24  1  1  0  0  0
 30 23  1  0  0  0  0
 31 32  1  0  0  0  0
M  END
>  <MODEL>
4

>  <REMARK>
 VINA RESULT:      -4.3      1.998      2.548
  Name = 
  2 active torsions:
  status: ('A' for Active; 'I' for Inactive)
    1  A    between atoms: N_3  and  C_19
    2  A    between atoms: C_16  and  N_27
                            x       y       z     vdW  Elec       q    Type
                         _______ _______ _______ _____ _____    ______ ____

>  <TORSDO>
F 2

$$$$
=
 OpenBabel11062408283D

 32 37  0  0  1  0  0  0  0  0999 V2000
  160.8560  205.0230  150.0710 C   0  0  0  0  0  0  0  0  0  0  0  0
  161.3820  207.2010  151.0490 C   0  0  0  0  0  0  0  0  0  0  0  0
  160.5310  203.6300  150.2120 N   0  0  0  0  0  2  0  0  0  0  0  0
  161.0920  205.7610  151.1660 C   0  0  0  0  0  0  0  0  0  0  0  0
  161.5150  207.9530  152.1680 C   0  0  0  0  0  0  0  0  0  0  0  0
  161.7460  211.4350  148.5600 C   0  0  0  0  0  2  0  0  0  0  0  0
  161.4820  207.7930  149.6930 C   0  0  0  0  0  0  0  0  0  0  0  0
  162.7450  211.2360  150.7320 O   0  0  0  0  0  0  0  0  0  0  0  0
  162.4790  209.8410  150.8090 C   0  0  1  0  0  3  0  0  0  0  0  0
  161.5030  208.1150  154.6580 C   0  0  0  0  0  3  0  0  0  0  0  0
  160.9730  205.1550  152.4990 C   0  0  0  0  0  0  0  0  0  0  0  0
  161.7010  209.4570  152.0670 C   0  0  0  0  0  2  0  0  0  0  0  0
  161.0960  205.9180  153.5840 C   0  0  0  0  0  3  0  0  0  0  0  0
  160.6760  203.7630  152.6110 N   0  0  0  0  0  2  0  0  0  0  0  0
  161.2260  207.0330  148.6230 C   0  0  0  0  0  3  0  0  0  0  0  0
  161.3830  207.5960  155.7990 O   0  0  0  0  0  0  0  0  0  0  0  0
  160.8830  205.6390  148.7670 N   0  0  0  0  0  0  0  0  0  0  0  0
  161.8550  209.2120  149.5800 C   0  0  0  0  0  0  0  0  0  0  0  0
  161.3720  207.3290  153.4670 N   0  0  0  0  0  0  0  0  0  0  0  0
  160.8100  202.8920  151.4460 C   0  0  0  0  0  2  0  0  0  0  0  0
  161.7280  211.9000  150.0130 C   0  0  0  0  0  2  0  0  0  0  0  0
  161.4850  209.9650  148.5410 C   0  0  0  0  0  3  0  0  0  0  0  0
  162.4870  204.7350  145.8960 N   0  0  0  0  0  0  0  0  0  0  0  0
  161.1430  204.8650  143.8510 C   0  0  0  0  0  1  0  0  0  0  0  0
  160.7780  206.5130  145.7070 C   0  0  0  0  0  2  0  0  0  0  0  0
  160.5740  204.8320  147.5850 C   0  0  1  0  0  3  0  0  0  0  0  0
  159.8240  205.6490  146.5290 C   0  0  0  0  0  2  0  0  0  0  0  0
  161.8080  204.1730  147.0340 C   0  0  0  0  0  0  0  0  0  0  0  0
  162.2770  203.1620  147.6200 O   0  0  0  0  0  0  0  0  0  0  0  0
  161.8020  205.6450  144.9770 C   0  0  1  0  0  3  0  0  0  0  0  0
  164.6790  204.5200  146.6620 O   0  0  0  0  0  1  0  0  0  0  0  0
  163.8420  204.3170  145.5640 C   0  0  0  0  0  2  0  0  0  0  0  0
  1  3  1  0  0  0  0
  1  4  2  0  0  0  0
  2  4  1  0  0  0  0
  2  5  2  0  0  0  0
  3 20  1  0  0  0  0
  4 11  1  0  0  0  0
  5 19  1  0  0  0  0
  6 21  1  0  0  0  0
  7  2  1  0  0  0  0
  8  9  1  0  0  0  0
  9 12  1  1  0  0  0
 10 16  2  0  0  0  0
 11 14  1  0  0  0  0
 11 13  2  0  0  0  0
 12  5  1  0  0  0  0
 15 17  1  0  0  0  0
 15  7  2  0  0  0  0
 17  1  1  0  0  0  0
 18  7  1  0  0  0  0
 18  9  1  0  0  0  0
 19 13  1  0  0  0  0
 19 10  1  0  0  0  0
 20 14  1  0  0  0  0
 21  8  1  0  0  0  0
 22  6  1  0  0  0  0
 22 18  2  0  0  0  0
 23 28  1  0  0  0  0
 25 27  1  0  0  0  0
 26 27  1  6  0  0  0
 26 17  1  0  0  0  0
 28 26  1  0  0  0  0
 28 29  2  0  0  0  0
 30 24  1  6  0  0  0
 30 25  1  0  0  0  0
 30 23  1  0  0  0  0
 32 23  1  0  0  0  0
 32 31  1  0  0  0  0
M  END
>  <MODEL>
5

>  <REMARK>
 VINA RESULT:      -4.1      2.672      8.125
  Name = 
  2 active torsions:
  status: ('A' for Active; 'I' for Inactive)
    1  A    between atoms: N_3  and  C_19
    2  A    between atoms: C_16  and  N_27
                            x       y       z     vdW  Elec       q    Type
                         _______ _______ _______ _____ _____    ______ ____

>  <TORSDO>
F 2

$$$$
=
 OpenBabel11062408283D

 32 37  0  0  1  0  0  0  0  0999 V2000
  161.3060  206.9440  152.8730 C   0  0  0  0  0  0  0  0  0  0  0  0
  161.5290  207.7610  150.5800 C   0  0  0  0  0  0  0  0  0  0  0  0
  161.2060  205.8630  153.8160 N   0  0  0  0  0  2  0  0  0  0  0  0
  161.3810  206.6720  151.5620 C   0  0  0  0  0  0  0  0  0  0  0  0
  161.7090  207.4640  149.2700 C   0  0  0  0  0  0  0  0  0  0  0  0
  162.2760  212.4510  149.2800 C   0  0  0  0  0  2  0  0  0  0  0  0
  161.5150  209.1600  151.0700 C   0  0  0  0  0  0  0  0  0  0  0  0
  161.4230  210.8880  147.6730 O   0  0  0  0  0  0  0  0  0  0  0  0
  161.2610  209.8620  148.6450 C   0  0  1  0  0  3  0  0  0  0  0  0
  161.9470  205.7520  147.4710 C   0  0  0  0  0  3  0  0  0  0  0  0
  161.4080  205.2770  151.1020 C   0  0  0  0  0  0  0  0  0  0  0  0
  161.9770  208.5680  148.2610 C   0  0  0  0  0  2  0  0  0  0  0  0
  161.5970  205.0110  149.8100 C   0  0  0  0  0  3  0  0  0  0  0  0
  161.2800  204.2230  152.0570 N   0  0  0  0  0  2  0  0  0  0  0  0
  161.4530  209.3960  152.3840 C   0  0  0  0  0  3  0  0  0  0  0  0
  161.9870  204.5550  147.0830 O   0  0  0  0  0  0  0  0  0  0  0  0
  161.3720  208.3110  153.3310 N   0  0  0  0  0  0  0  0  0  0  0  0
  161.5780  210.2440  150.0770 C   0  0  0  0  0  0  0  0  0  0  0  0
  161.7510  206.0780  148.8520 N   0  0  0  0  0  0  0  0  0  0  0  0
  160.8080  204.5150  153.4080 C   0  0  0  0  0  2  0  0  0  0  0  0
  162.5370  211.6970  147.9800 C   0  0  0  0  0  2  0  0  0  0  0  0
  162.0820  211.4470  150.3680 C   0  0  0  0  0  3  0  0  0  0  0  0
  159.5150  210.2480  155.4370 N   0  0  0  0  0  0  0  0  0  0  0  0
  160.7870  211.4890  157.1240 C   0  0  0  0  0  1  0  0  0  0  0  0
  161.7700  211.0780  154.8530 C   0  0  0  0  0  2  0  0  0  0  0  0
  161.3380  208.5890  154.7690 C   0  0  1  0  0  3  0  0  0  0  0  0
  162.3310  209.6890  155.1490 C   0  0  0  0  0  2  0  0  0  0  0  0
  159.9410  208.8870  155.2360 C   0  0  0  0  0  0  0  0  0  0  0  0
  159.1280  207.9370  155.3860 O   0  0  0  0  0  0  0  0  0  0  0  0
  160.4850  211.3230  155.6430 C   0  0  1  0  0  3  0  0  0  0  0  0
  157.7270  211.4490  154.5430 O   0  0  0  0  0  1  0  0  0  0  0  0
  158.0990  210.5680  155.5590 C   0  0  0  0  0  2  0  0  0  0  0  0
  1 17  1  0  0  0  0
  1  3  1  0  0  0  0
  2  7  1  0  0  0  0
  2  4  1  0  0  0  0
  4  1  2  0  0  0  0
  5  2  2  0  0  0  0
  6 22  1  0  0  0  0
  7 15  2  0  0  0  0
  8 21  1  0  0  0  0
  8  9  1  0  0  0  0
  9 12  1  6  0  0  0
  9 18  1  0  0  0  0
 10 19  1  0  0  0  0
 11  4  1  0  0  0  0
 11 14  1  0  0  0  0
 12  5  1  0  0  0  0
 13 11  2  0  0  0  0
 14 20  1  0  0  0  0
 15 17  1  0  0  0  0
 16 10  2  0  0  0  0
 18 22  2  0  0  0  0
 18  7  1  0  0  0  0
 19  5  1  0  0  0  0
 19 13  1  0  0  0  0
 20  3  1  0  0  0  0
 21  6  1  0  0  0  0
 23 32  1  0  0  0  0
 23 30  1  0  0  0  0
 25 27  1  0  0  0  0
 25 30  1  0  0  0  0
 26 17  1  6  0  0  0
 26 27  1  0  0  0  0
 26 28  1  0  0  0  0
 28 29  2  0  0  0  0
 28 23  1  0  0  0  0
 30 24  1  1  0  0  0
 31 32  1  0  0  0  0
M  END
>  <MODEL>
6

>  <REMARK>
 VINA RESULT:      -4.0      2.007      4.709
  Name = 
  2 active torsions:
  status: ('A' for Active; 'I' for Inactive)
    1  A    between atoms: N_3  and  C_19
    2  A    between atoms: C_16  and  N_27
                            x       y       z     vdW  Elec       q    Type
                         _______ _______ _______ _____ _____    ______ ____

>  <TORSDO>
F 2

$$$$
=
 OpenBabel11062408283D

 32 37  0  0  1  0  0  0  0  0999 V2000
  160.8030  209.1030  153.6210 C   0  0  0  0  0  0  0  0  0  0  0  0
  161.2140  209.8180  151.3200 C   0  0  0  0  0  0  0  0  0  0  0  0
  160.8190  208.0910  154.6430 N   0  0  0  0  0  2  0  0  0  0  0  0
  161.1790  208.7880  152.3730 C   0  0  0  0  0  0  0  0  0  0  0  0
  161.6950  209.5080  150.0920 C   0  0  0  0  0  0  0  0  0  0  0  0
  160.9420  214.4530  149.6800 C   0  0  0  0  0  2  0  0  0  0  0  0
  160.7510  211.1860  151.6560 C   0  0  0  0  0  0  0  0  0  0  0  0
  160.8230  212.6280  148.1280 O   0  0  0  0  0  0  0  0  0  0  0  0
  160.7620  211.6540  149.1620 C   0  0  1  0  0  3  0  0  0  0  0  0
  162.6850  207.8270  148.5380 C   0  0  0  0  0  3  0  0  0  0  0  0
  161.6480  207.4290  152.0680 C   0  0  0  0  0  0  0  0  0  0  0  0
  161.8440  210.5840  149.0300 C   0  0  0  0  0  2  0  0  0  0  0  0
  162.1270  207.1520  150.8560 C   0  0  0  0  0  3  0  0  0  0  0  0
  161.6280  206.4360  153.0940 N   0  0  0  0  0  2  0  0  0  0  0  0
  160.3960  211.4710  152.9130 C   0  0  0  0  0  3  0  0  0  0  0  0
  163.1020  206.6650  148.2850 O   0  0  0  0  0  0  0  0  0  0  0  0
  160.4300  210.4600  153.9420 N   0  0  0  0  0  0  0  0  0  0  0  0
  160.7070  212.1890  150.5800 C   0  0  0  0  0  0  0  0  0  0  0  0
  162.1680  208.1640  149.8300 N   0  0  0  0  0  0  0  0  0  0  0  0
  160.8630  206.6640  154.3170 C   0  0  0  0  0  2  0  0  0  0  0  0
  161.6170  213.7260  148.5210 C   0  0  0  0  0  2  0  0  0  0  0  0
  160.8230  213.4980  150.8210 C   0  0  0  0  0  3  0  0  0  0  0  0
  157.7290  211.7970  155.5380 N   0  0  0  0  0  0  0  0  0  0  0  0
  158.2380  213.4910  157.2330 C   0  0  0  0  0  1  0  0  0  0  0  0
  159.6670  213.2910  155.1800 C   0  0  0  0  0  2  0  0  0  0  0  0
  160.0700  210.7990  155.3200 C   0  0  1  0  0  3  0  0  0  0  0  0
  160.5830  212.1880  155.7060 C   0  0  0  0  0  2  0  0  0  0  0  0
  158.5930  210.6450  155.5530 C   0  0  0  0  0  0  0  0  0  0  0  0
  158.1110  209.4900  155.6960 O   0  0  0  0  0  0  0  0  0  0  0  0
  158.2580  213.1440  155.7530 C   0  0  1  0  0  3  0  0  0  0  0  0
  155.7890  212.5040  154.4530 O   0  0  0  0  0  1  0  0  0  0  0  0
  156.2860  211.6360  155.4260 C   0  0  0  0  0  2  0  0  0  0  0  0
  1 17  1  0  0  0  0
  1  3  1  0  0  0  0
  2  7  1  0  0  0  0
  2  4  1  0  0  0  0
  4  1  2  0  0  0  0
  5  2  2  0  0  0  0
  6 22  1  0  0  0  0
  7 15  2  0  0  0  0
  8 21  1  0  0  0  0
  8  9  1  0  0  0  0
  9 12  1  1  0  0  0
  9 18  1  0  0  0  0
 10 19  1  0  0  0  0
 11  4  1  0  0  0  0
 11 14  1  0  0  0  0
 12  5  1  0  0  0  0
 13 11  2  0  0  0  0
 14 20  1  0  0  0  0
 15 17  1  0  0  0  0
 16 10  2  0  0  0  0
 18 22  2  0  0  0  0
 18  7  1  0  0  0  0
 19  5  1  0  0  0  0
 19 13  1  0  0  0  0
 20  3  1  0  0  0  0
 21  6  1  0  0  0  0
 23 28  1  0  0  0  0
 23 30  1  0  0  0  0
 25 27  1  0  0  0  0
 25 30  1  0  0  0  0
 26 17  1  6  0  0  0
 26 28  1  0  0  0  0
 26 27  1  0  0  0  0
 28 29  2  0  0  0  0
 30 24  1  1  0  0  0
 31 32  1  0  0  0  0
 32 23  1  0  0  0  0
M  END
>  <MODEL>
7

>  <REMARK>
 VINA RESULT:      -3.8      2.416      5.228
  Name = 
  2 active torsions:
  status: ('A' for Active; 'I' for Inactive)
    1  A    between atoms: N_3  and  C_19
    2  A    between atoms: C_16  and  N_27
                            x       y       z     vdW  Elec       q    Type
                         _______ _______ _______ _____ _____    ______ ____

>  <TORSDO>
F 2

$$$$
=
 OpenBabel11062408283D

 32 37  0  0  1  0  0  0  0  0999 V2000
  161.8330  210.1290  149.8960 C   0  0  0  0  0  0  0  0  0  0  0  0
  161.1840  209.4250  152.1450 C   0  0  0  0  0  0  0  0  0  0  0  0
  162.2960  209.8230  148.5690 N   0  0  0  0  0  2  0  0  0  0  0  0
  161.6990  209.1410  150.7940 C   0  0  0  0  0  0  0  0  0  0  0  0
  160.9560  208.4020  153.0040 C   0  0  0  0  0  0  0  0  0  0  0  0
  159.1500  212.3210  155.5690 C   0  0  0  0  0  2  0  0  0  0  0  0
  160.8920  210.8320  152.5090 C   0  0  0  0  0  0  0  0  0  0  0  0
  160.2070  210.2670  156.2160 O   0  0  0  0  0  0  0  0  0  0  0  0
  160.7180  210.0310  154.9100 C   0  0  1  0  0  3  0  0  0  0  0  0
  160.9800  205.9530  153.4800 C   0  0  0  0  0  3  0  0  0  0  0  0
  161.9800  207.7530  150.4040 C   0  0  0  0  0  0  0  0  0  0  0  0
  160.3190  208.6630  154.3590 C   0  0  0  0  0  2  0  0  0  0  0  0
  161.7370  206.7650  151.2640 C   0  0  0  0  0  3  0  0  0  0  0  0
  162.4640  207.4790  149.0890 N   0  0  0  0  0  2  0  0  0  0  0  0
  161.0230  211.7900  151.5870 C   0  0  0  0  0  3  0  0  0  0  0  0
  161.2060  204.7620  153.1370 O   0  0  0  0  0  0  0  0  0  0  0  0
  161.4700  211.4800  150.2500 N   0  0  0  0  0  0  0  0  0  0  0  0
  160.4600  211.1180  153.8860 C   0  0  0  0  0  0  0  0  0  0  0  0
  161.2240  207.0430  152.5830 N   0  0  0  0  0  0  0  0  0  0  0  0
  162.9790  208.5660  148.2600 C   0  0  0  0  0  2  0  0  0  0  0  0
  158.9610  210.9250  156.1540 C   0  0  0  0  0  2  0  0  0  0  0  0
  159.6990  212.1740  154.1880 C   0  0  0  0  0  3  0  0  0  0  0  0
  159.3360  213.6420  148.6980 N   0  0  0  0  0  0  0  0  0  0  0  0
  159.6600  213.8900  146.2820 C   0  0  0  0  0  1  0  0  0  0  0  0
  160.0840  211.6800  147.3910 C   0  0  0  0  0  2  0  0  0  0  0  0
  161.5740  212.5390  149.2440 C   0  0  1  0  0  3  0  0  0  0  0  0
  161.5200  211.9700  147.8250 C   0  0  0  0  0  2  0  0  0  0  0  0
  160.5490  213.6150  149.4730 C   0  0  0  0  0  0  0  0  0  0  0  0
  160.7330  214.4520  150.3950 O   0  0  0  0  0  0  0  0  0  0  0  0
  159.2450  212.9570  147.4080 C   0  0  1  0  0  3  0  0  0  0  0  0
  157.1600  213.6250  149.5380 O   0  0  0  0  0  1  0  0  0  0  0  0
  158.2050  214.4530  149.1250 C   0  0  0  0  0  2  0  0  0  0  0  0
  1 17  1  0  0  0  0
  1  4  2  0  0  0  0
  2  7  1  0  0  0  0
  2  5  2  0  0  0  0
  3  1  1  0  0  0  0
  4  2  1  0  0  0  0
  5 12  1  0  0  0  0
  6 21  1  0  0  0  0
  7 18  1  0  0  0  0
  9 12  1  6  0  0  0
  9  8  1  0  0  0  0
 11  4  1  0  0  0  0
 11 13  2  0  0  0  0
 13 19  1  0  0  0  0
 14 11  1  0  0  0  0
 15  7  2  0  0  0  0
 16 10  2  0  0  0  0
 17 15  1  0  0  0  0
 18 22  2  0  0  0  0
 18  9  1  0  0  0  0
 19  5  1  0  0  0  0
 19 10  1  0  0  0  0
 20  3  1  0  0  0  0
 20 14  1  0  0  0  0
 21  8  1  0  0  0  0
 22  6  1  0  0  0  0
 23 32  1  0  0  0  0
 23 28  1  0  0  0  0
 25 30  1  0  0  0  0
 25 27  1  0  0  0  0
 26 27  1  6  0  0  0
 26 28  1  0  0  0  0
 26 17  1  0  0  0  0
 28 29  2  0  0  0  0
 30 24  1  6  0  0  0
 30 23  1  0  0  0  0
 32 31  1  0  0  0  0
M  END
>  <MODEL>
8

>  <REMARK>
 VINA RESULT:      -3.6      2.679      5.852
  Name = 
  2 active torsions:
  status: ('A' for Active; 'I' for Inactive)
    1  A    between atoms: N_3  and  C_19
    2  A    between atoms: C_16  and  N_27
                            x       y       z     vdW  Elec       q    Type
                         _______ _______ _______ _____ _____    ______ ____

>  <TORSDO>
F 2

$$$$
=
 OpenBabel11062408283D

 32 37  0  0  1  0  0  0  0  0999 V2000
  161.8000  208.4990  148.7000 C   0  0  0  0  0  0  0  0  0  0  0  0
  161.4280  208.0690  151.0770 C   0  0  0  0  0  0  0  0  0  0  0  0
  161.9590  208.0300  147.3490 N   0  0  0  0  0  2  0  0  0  0  0  0
  161.6380  207.6110  149.6920 C   0  0  0  0  0  0  0  0  0  0  0  0
  161.1620  207.1640  152.0500 C   0  0  0  0  0  0  0  0  0  0  0  0
  160.6080  211.5060  154.5060 C   0  0  0  0  0  2  0  0  0  0  0  0
  161.4780  209.5240  151.3550 C   0  0  0  0  0  0  0  0  0  0  0  0
  161.3510  209.3210  155.1600 O   0  0  0  0  0  0  0  0  0  0  0  0
  161.5730  208.9120  153.8160 C   0  0  1  0  0  3  0  0  0  0  0  0
  160.8020  204.7920  152.7340 C   0  0  0  0  0  3  0  0  0  0  0  0
  161.5780  206.1750  149.3900 C   0  0  0  0  0  0  0  0  0  0  0  0
  160.8310  207.6250  153.4600 C   0  0  0  0  0  2  0  0  0  0  0  0
  161.3030  205.3060  150.3620 C   0  0  0  0  0  3  0  0  0  0  0  0
  161.7650  205.7350  148.0450 N   0  0  0  0  0  2  0  0  0  0  0  0
  161.6270  210.3820  150.3420 C   0  0  0  0  0  3  0  0  0  0  0  0
  160.7340  203.5620  152.4680 O   0  0  0  0  0  0  0  0  0  0  0  0
  161.7680  209.9130  148.9850 N   0  0  0  0  0  0  0  0  0  0  0  0
  161.3530  209.9690  152.7520 C   0  0  0  0  0  0  0  0  0  0  0  0
  161.0900  205.7570  151.7150 N   0  0  0  0  0  0  0  0  0  0  0  0
  162.3270  206.6460  147.0500 C   0  0  0  0  0  2  0  0  0  0  0  0
  160.2610  210.2130  155.2370 C   0  0  0  0  0  2  0  0  0  0  0  0
  160.8720  211.1730  153.0750 C   0  0  0  0  0  3  0  0  0  0  0  0
  161.3070  213.2640  148.5490 N   0  0  0  0  0  0  0  0  0  0  0  0
  160.1360  213.9100  146.4960 C   0  0  0  0  0  1  0  0  0  0  0  0
  159.5440  211.7710  147.6670 C   0  0  0  0  0  2  0  0  0  0  0  0
  161.8960  210.8700  147.8840 C   0  0  1  0  0  3  0  0  0  0  0  0
  160.6300  210.9090  147.0260 C   0  0  0  0  0  2  0  0  0  0  0  0
  162.2950  212.2300  148.3850 C   0  0  0  0  0  0  0  0  0  0  0  0
  163.4910  212.4340  148.7210 O   0  0  0  0  0  0  0  0  0  0  0  0
  160.0270  213.2100  147.8420 C   0  0  1  0  0  3  0  0  0  0  0  0
  160.8390  214.4530  150.5010 O   0  0  0  0  0  1  0  0  0  0  0  0
  161.6070  214.4530  149.3360 C   0  0  0  0  0  2  0  0  0  0  0  0
  1 17  1  0  0  0  0
  1  4  2  0  0  0  0
  2  7  1  0  0  0  0
  2  5  2  0  0  0  0
  3  1  1  0  0  0  0
  4  2  1  0  0  0  0
  5 12  1  0  0  0  0
  6 21  1  0  0  0  0
  7 18  1  0  0  0  0
  8 21  1  0  0  0  0
  9 12  1  6  0  0  0
  9  8  1  0  0  0  0
 11  4  1  0  0  0  0
 11 13  2  0  0  0  0
 13 19  1  0  0  0  0
 14 11  1  0  0  0  0
 15  7  2  0  0  0  0
 16 10  2  0  0  0  0
 17 15  1  0  0  0  0
 18 22  2  0  0  0  0
 18  9  1  0  0  0  0
 19  5  1  0  0  0  0
 19 10  1  0  0  0  0
 20  3  1  0  0  0  0
 20 14  1  0  0  0  0
 22  6  1  0  0  0  0
 23 32  1  0  0  0  0
 25 30  1  0  0  0  0
 26 27  1  1  0  0  0
 26 28  1  0  0  0  0
 26 17  1  0  0  0  0
 27 25  1  0  0  0  0
 28 23  1  0  0  0  0
 28 29  2  0  0  0  0
 30 24  1  6  0  0  0
 30 23  1  0  0  0  0
 32 31  1  0  0  0  0
M  END
>  <MODEL>
9

>  <REMARK>
 VINA RESULT:      -3.5      2.363      5.634
  Name = 
  2 active torsions:
  status: ('A' for Active; 'I' for Inactive)
    1  A    between atoms: N_3  and  C_19
    2  A    between atoms: C_16  and  N_27
                            x       y       z     vdW  Elec       q    Type
                         _______ _______ _______ _____ _____    ______ ____

>  <TORSDO>
F 2

$$$$
