=
 OpenBabel11062409003D

 55 57  0  0  1  0  0  0  0  0999 V2000
  159.9130  208.1460  149.3540 O   0  0  0  0  0  0  0  0  0  0  0  0
  161.1540  208.9080  153.9160 O   0  0  0  0  0  1  0  0  0  0  0  0
  160.8300  209.1730  152.4630 P   0  0  2  0  0  0  0  0  0  0  0  0
  160.8970  207.6220  151.5040 C   0  0  1  0  0  3  0  0  0  0  0  0
  162.1270  209.0660  149.6790 C   0  0  2  0  0  3  0  0  0  0  0  0
  161.9570  210.2630  151.8080 O   0  0  0  0  0  0  0  0  0  0  0  0
  160.5590  206.9290  149.0610 C   0  0  2  0  0  3  0  0  0  0  0  0
  159.2730  209.8220  152.3470 O   0  0  0  0  0  0  0  0  0  0  0  0
  161.1400  207.9230  150.0180 C   0  0  2  0  0  0  0  0  0  0  0  0
  161.6540  210.3210  150.4360 C   0  0  1  0  0  3  0  0  0  0  0  0
  161.1590  206.9840  147.8000 O   0  0  0  0  0  1  0  0  0  0  0  0
  163.1770  206.4660  151.3230 C   0  0  0  0  0  1  0  0  0  0  0  0
  161.8830  206.6090  152.1160 C   0  0  2  0  0  3  0  0  0  0  0  0
  161.2850  205.2370  152.4720 C   0  0  2  0  0  3  0  0  0  0  0  0
  161.0100  205.7410  154.5470 O   0  0  0  0  0  1  0  0  0  0  0  0
  161.6180  204.8570  153.7800 O   0  0  0  0  0  0  0  0  0  0  0  0
  161.7530  204.1570  151.5050 C   0  0  0  0  0  2  0  0  0  0  0  0
  161.3360  202.7670  151.9410 C   0  0  0  0  0  2  0  0  0  0  0  0
  161.2710  201.8150  150.7510 C   0  0  0  0  0  2  0  0  0  0  0  0
  160.4490  202.3940  149.5920 C   0  0  2  0  0  3  0  0  0  0  0  0
  159.2330  201.7260  149.4350 O   0  0  0  0  0  1  0  0  0  0  0  0
  161.2010  202.4790  148.2540 C   0  0  2  0  0  3  0  0  0  0  0  0
  161.6200  203.8790  147.7760 C   0  0  0  0  0  2  0  0  0  0  0  0
  160.4260  204.6530  145.8580 O   0  0  0  0  0  1  0  0  0  0  0  0
  161.6040  204.0290  146.2540 C   0  0  1  0  0  3  0  0  0  0  0  0
  164.0850  204.5900  146.3500 N   0  0  0  0  0  1  0  0  0  0  0  0
  162.7890  204.8270  145.7950 C   0  0  0  0  0  0  0  0  0  0  0  0
  162.6360  205.7460  144.9500 O   0  0  0  0  0  0  0  0  0  0  0  0
  160.6390  201.6840  147.2070 O   0  0  0  0  0  0  0  0  0  0  0  0
  161.0730  200.3940  146.8850 C   0  0  0  0  0  0  0  0  0  0  0  0
  161.8060  199.7590  147.6870 O   0  0  0  0  0  0  0  0  0  0  0  0
  160.7690  199.8190  145.5450 C   0  0  0  0  0  2  0  0  0  0  0  0
  161.3030  198.4700  145.4630 N   0  0  0  0  0  1  0  0  0  0  0  0
  163.0440  208.4090  147.8530 O   0  0  0  0  0  1  0  0  0  0  0  0
  162.2040  209.3140  148.3040 O   0  0  0  0  0  0  0  0  0  0  0  0
  162.0560  211.6470  149.7750 C   0  0  2  0  0  3  0  0  0  0  0  0
  160.8980  212.4030  149.3130 N   0  0  0  0  0  2  0  0  0  0  0  0
  160.3970  213.0370  151.6790 C   0  0  0  0  0  3  0  0  0  0  0  0
  158.1850  213.8350  152.1490 N   0  0  0  0  0  0  0  0  0  0  0  0
  158.9480  213.7030  149.8260 C   0  0  0  0  0  3  0  0  0  0  0  0
  158.0470  214.4100  150.8040 C   0  0  0  0  0  2  0  0  0  0  0  0
  159.4700  213.3670  152.5840 C   0  0  0  0  0  3  0  0  0  0  0  0
  160.0830  213.1200  150.2370 C   0  0  0  0  0  0  0  0  0  0  0  0
  157.1250  213.9770  153.1400 C   0  0  2  0  0  3  0  0  0  0  0  0
  156.9850  212.7070  153.9670 C   0  0  0  0  0  1  0  0  0  0  0  0
  155.8650  214.2770  152.4780 N   0  0  0  0  0  1  0  0  0  0  0  0
  163.0200  211.4250  148.6080 C   0  0  0  0  0  2  0  0  0  0  0  0
  163.6940  213.6590  148.0860 O   0  0  0  0  0  0  0  0  0  0  0  0
  163.1050  212.6100  147.7010 C   0  0  0  0  0  0  0  0  0  0  0  0
  162.5600  212.5140  146.4190 O   0  0  0  0  0  0  0  0  0  0  0  0
  162.4040  213.6360  145.5560 C   0  0  1  0  0  3  0  0  0  0  0  0
  163.2130  213.4060  144.2950 C   0  0  0  0  0  1  0  0  0  0  0  0
  160.9320  213.8450  145.2020 C   0  0  0  0  0  2  0  0  0  0  0  0
  159.1600  212.4300  146.1570 C   0  0  0  0  0  2  0  0  0  0  0  0
  160.1700  212.5600  145.3000 C   0  0  0  0  0  3  0  0  0  0  0  0
  3  8  2  6  0  0  0
  3  2  1  0  0  0  0
  4 13  1  1  0  0  0
  4  3  1  0  0  0  0
  5 35  1  6  0  0  0
  5  9  1  0  0  0  0
  5 10  1  0  0  0  0
  6  3  1  0  0  0  0
  7 11  1  6  0  0  0
  7  1  1  0  0  0  0
  7  9  1  0  0  0  0
  9  1  1  6  0  0  0
  9  4  1  0  0  0  0
 10 36  1  6  0  0  0
 10  6  1  0  0  0  0
 13 12  1  6  0  0  0
 13 14  1  0  0  0  0
 14 17  1  6  0  0  0
 14 16  1  0  0  0  0
 16 15  1  0  0  0  0
 17 18  1  0  0  0  0
 19 18  1  0  0  0  0
 20 21  1  6  0  0  0
 20 19  1  0  0  0  0
 22 23  1  6  0  0  0
 22 20  1  0  0  0  0
 25 24  1  1  0  0  0
 25 23  1  0  0  0  0
 27 25  1  0  0  0  0
 27 26  1  0  0  0  0
 28 27  2  0  0  0  0
 29 22  1  0  0  0  0
 30 29  1  0  0  0  0
 30 31  2  0  0  0  0
 32 30  1  0  0  0  0
 33 32  1  0  0  0  0
 34 35  1  0  0  0  0
 36 47  1  6  0  0  0
 37 36  1  0  0  0  0
 37 43  1  0  0  0  0
 38 42  2  0  0  0  0
 39 42  1  0  0  0  0
 39 44  1  0  0  0  0
 40 43  2  0  0  0  0
 40 41  1  0  0  0  0
 41 39  1  0  0  0  0
 43 38  1  0  0  0  0
 44 45  1  6  0  0  0
 46 44  1  0  0  0  0
 49 48  2  0  0  0  0
 49 47  1  0  0  0  0
 50 49  1  0  0  0  0
 51 52  1  6  0  0  0
 51 50  1  0  0  0  0
 53 55  1  0  0  0  0
 53 51  1  0  0  0  0
 55 54  2  0  0  0  0
M  END
>  <MODEL>
1

>  <REMARK>
 VINA RESULT:      -2.6      0.000      0.000
  Name = 
  25 active torsions:
  status: ('A' for Active; 'I' for Inactive)
    1  A    between atoms: C_1  and  C_30
    2  A    between atoms: C_1  and  C_53
    3  A    between atoms: O_6  and  C_14
    4  A    between atoms: O_6  and  C_53
    5  A    between atoms: C_7  and  C_8
    6  A    between atoms: C_7  and  C_23
    7  A    between atoms: C_7  and  O_43
    8  A    between atoms: C_8  and  C_20
    9  A    between atoms: C_10  and  N_32
   10  A    between atoms: C_11  and  C_29
   11  A    between atoms: C_11  and  C_38
   12  A    between atoms: C_12  and  C_14
   13  A    between atoms: C_17  and  C_23
   14  A    between atoms: C_19  and  O_40
   15  A    between atoms: C_20  and  C_30
   16  A    between atoms: C_27  and  O_31
   17  A    between atoms: C_27  and  C_55
   18  A    between atoms: C_28  and  C_44
   19  A    between atoms: C_28  and  C_49
   20  A    between atoms: O_31  and  C_44
   21  A    between atoms: N_33  and  C_49
   22  A    between atoms: N_33  and  C_52
   23  A    between atoms: C_38  and  C_53
   24  A    between atoms: C_41  and  C_55
   25  A    between atoms: C_45  and  C_49
                            x       y       z     vdW  Elec       q    Type
                         _______ _______ _______ _____ _____    ______ ____

>  <TORSDO>
F 25

$$$$
=
 OpenBabel11062409003D

 55 57  0  0  1  0  0  0  0  0999 V2000
  162.9580  210.0410  154.9440 O   0  0  0  0  0  0  0  0  0  0  0  0
  160.5920  208.5920  151.0420 O   0  0  0  0  0  0  0  0  0  0  0  0
  161.1130  209.4870  152.1420 P   0  0  2  0  0  0  0  0  0  0  0  0
  161.7660  208.4860  153.5210 C   0  0  1  0  0  3  0  0  0  0  0  0
  160.5490  210.2310  155.0700 C   0  0  2  0  0  3  0  0  0  0  0  0
  159.8570  210.4680  152.7340 O   0  0  0  0  0  0  0  0  0  0  0  0
  162.8270  208.9370  155.8090 C   0  0  2  0  0  3  0  0  0  0  0  0
  162.3570  210.4570  151.5330 O   0  0  0  0  0  1  0  0  0  0  0  0
  161.7610  209.3000  154.8220 C   0  0  2  0  0  0  0  0  0  0  0  0
  160.4100  211.1430  153.8370 C   0  0  1  0  0  3  0  0  0  0  0  0
  162.5250  209.3630  157.1060 O   0  0  0  0  0  1  0  0  0  0  0  0
  160.4840  206.8370  155.0060 C   0  0  0  0  0  1  0  0  0  0  0  0
  161.0610  207.1200  153.6240 C   0  0  2  0  0  3  0  0  0  0  0  0
  161.8650  205.9200  153.0920 C   0  0  2  0  0  3  0  0  0  0  0  0
  163.7210  206.6960  152.3240 O   0  0  0  0  0  1  0  0  0  0  0  0
  162.5510  206.2470  151.9130 O   0  0  0  0  0  0  0  0  0  0  0  0
  160.9670  204.7190  152.8300 C   0  0  0  0  0  2  0  0  0  0  0  0
  161.4330  203.8910  151.6500 C   0  0  0  0  0  2  0  0  0  0  0  0
  160.3430  203.7860  150.5870 C   0  0  0  0  0  2  0  0  0  0  0  0
  160.7260  202.8190  149.4600 C   0  0  2  0  0  3  0  0  0  0  0  0
  161.4860  201.7480  149.9330 O   0  0  0  0  0  1  0  0  0  0  0  0
  161.4090  203.4810  148.2530 C   0  0  2  0  0  3  0  0  0  0  0  0
  161.1870  204.9910  148.0650 C   0  0  0  0  0  2  0  0  0  0  0  0
  163.3560  204.9060  147.0680 O   0  0  0  0  0  1  0  0  0  0  0  0
  162.1680  205.6300  147.0810 C   0  0  1  0  0  3  0  0  0  0  0  0
  160.2800  206.2360  145.4860 N   0  0  0  0  0  1  0  0  0  0  0  0
  161.5740  205.6710  145.7040 C   0  0  0  0  0  0  0  0  0  0  0  0
  162.1980  205.1610  144.7370 O   0  0  0  0  0  0  0  0  0  0  0  0
  161.2890  202.7500  147.0300 O   0  0  0  0  0  0  0  0  0  0  0  0
  160.6940  201.4880  146.9280 C   0  0  0  0  0  0  0  0  0  0  0  0
  159.4480  201.3920  146.7810 O   0  0  0  0  0  0  0  0  0  0  0  0
  161.5150  200.2600  147.1120 C   0  0  0  0  0  2  0  0  0  0  0  0
  161.2610  199.3370  146.0190 N   0  0  0  0  0  1  0  0  0  0  0  0
  160.4350  210.1480  157.2120 O   0  0  0  0  0  1  0  0  0  0  0  0
  160.6900  210.9920  156.2370 O   0  0  0  0  0  0  0  0  0  0  0  0
  159.7440  212.4960  154.1230 C   0  0  2  0  0  3  0  0  0  0  0  0
  159.7990  212.8470  155.5370 N   0  0  0  0  0  2  0  0  0  0  0  0
  157.8180  211.8320  156.6760 C   0  0  0  0  0  3  0  0  0  0  0  0
  155.9390  213.2660  157.0800 N   0  0  0  0  0  0  0  0  0  0  0  0
  158.0980  214.2530  156.4790 C   0  0  0  0  0  3  0  0  0  0  0  0
  156.8010  214.4490  157.2190 C   0  0  0  0  0  2  0  0  0  0  0  0
  156.5380  211.9630  157.0360 C   0  0  0  0  0  3  0  0  0  0  0  0
  158.6010  213.0250  156.2890 C   0  0  0  0  0  0  0  0  0  0  0  0
  154.4950  213.3630  157.2590 C   0  0  2  0  0  3  0  0  0  0  0  0
  153.8140  212.0580  156.8730 C   0  0  0  0  0  1  0  0  0  0  0  0
  153.9680  214.4530  156.4520 N   0  0  0  0  0  1  0  0  0  0  0  0
  158.2900  212.5200  153.6470 C   0  0  0  0  0  2  0  0  0  0  0  0
  156.8810  214.1460  152.6050 O   0  0  0  0  0  0  0  0  0  0  0  0
  158.0260  213.6140  152.6640 C   0  0  0  0  0  0  0  0  0  0  0  0
  159.0730  214.0570  151.8530 O   0  0  0  0  0  0  0  0  0  0  0  0
  159.3040  213.5540  150.5410 C   0  0  1  0  0  3  0  0  0  0  0  0
  158.0320  213.6910  149.7290 C   0  0  0  0  0  1  0  0  0  0  0  0
  160.4420  214.3180  149.8630 C   0  0  0  0  0  2  0  0  0  0  0  0
  161.0080  212.1740  148.7970 C   0  0  0  0  0  2  0  0  0  0  0  0
  161.4050  213.3750  149.2100 C   0  0  0  0  0  3  0  0  0  0  0  0
  1  7  1  0  0  0  0
  3  2  2  6  0  0  0
  3  6  1  0  0  0  0
  3  4  1  0  0  0  0
  4 13  1  1  0  0  0
  4  9  1  0  0  0  0
  5 35  1  1  0  0  0
  6 10  1  0  0  0  0
  7 11  1  1  0  0  0
  8  3  1  0  0  0  0
  9  1  1  6  0  0  0
  9  5  1  0  0  0  0
  9  7  1  0  0  0  0
 10 36  1  1  0  0  0
 10  5  1  0  0  0  0
 13 12  1  1  0  0  0
 14 17  1  6  0  0  0
 14 13  1  0  0  0  0
 16 15  1  0  0  0  0
 16 14  1  0  0  0  0
 18 17  1  0  0  0  0
 19 18  1  0  0  0  0
 20 21  1  1  0  0  0
 20 19  1  0  0  0  0
 22 23  1  6  0  0  0
 22 20  1  0  0  0  0
 25 24  1  6  0  0  0
 25 23  1  0  0  0  0
 26 27  1  0  0  0  0
 27 25  1  0  0  0  0
 28 27  2  0  0  0  0
 29 22  1  0  0  0  0
 30 29  1  0  0  0  0
 30 32  1  0  0  0  0
 31 30  2  0  0  0  0
 33 32  1  0  0  0  0
 35 34  1  0  0  0  0
 36 47  1  1  0  0  0
 36 37  1  0  0  0  0
 37 43  1  0  0  0  0
 38 42  2  0  0  0  0
 39 41  1  0  0  0  0
 39 44  1  0  0  0  0
 40 41  1  0  0  0  0
 42 39  1  0  0  0  0
 43 40  2  0  0  0  0
 43 38  1  0  0  0  0
 44 45  1  6  0  0  0
 46 44  1  0  0  0  0
 48 49  2  0  0  0  0
 49 47  1  0  0  0  0
 50 49  1  0  0  0  0
 51 52  1  6  0  0  0
 51 50  1  0  0  0  0
 53 51  1  0  0  0  0
 54 55  2  0  0  0  0
 55 53  1  0  0  0  0
M  END
>  <MODEL>
2

>  <REMARK>
 VINA RESULT:      -1.7      2.682      4.812
  Name = 
  25 active torsions:
  status: ('A' for Active; 'I' for Inactive)
    1  A    between atoms: C_1  and  C_30
    2  A    between atoms: C_1  and  C_53
    3  A    between atoms: O_6  and  C_14
    4  A    between atoms: O_6  and  C_53
    5  A    between atoms: C_7  and  C_8
    6  A    between atoms: C_7  and  C_23
    7  A    between atoms: C_7  and  O_43
    8  A    between atoms: C_8  and  C_20
    9  A    between atoms: C_10  and  N_32
   10  A    between atoms: C_11  and  C_29
   11  A    between atoms: C_11  and  C_38
   12  A    between atoms: C_12  and  C_14
   13  A    between atoms: C_17  and  C_23
   14  A    between atoms: C_19  and  O_40
   15  A    between atoms: C_20  and  C_30
   16  A    between atoms: C_27  and  O_31
   17  A    between atoms: C_27  and  C_55
   18  A    between atoms: C_28  and  C_44
   19  A    between atoms: C_28  and  C_49
   20  A    between atoms: O_31  and  C_44
   21  A    between atoms: N_33  and  C_49
   22  A    between atoms: N_33  and  C_52
   23  A    between atoms: C_38  and  C_53
   24  A    between atoms: C_41  and  C_55
   25  A    between atoms: C_45  and  C_49
                            x       y       z     vdW  Elec       q    Type
                         _______ _______ _______ _____ _____    ______ ____

>  <TORSDO>
F 25

$$$$
=
 OpenBabel11062409003D

 55 57  0  0  1  0  0  0  0  0999 V2000
  159.6760  207.3500  149.9290 O   0  0  0  0  0  0  0  0  0  0  0  0
  161.6140  207.2000  154.3050 O   0  0  0  0  0  1  0  0  0  0  0  0
  161.0960  207.7440  152.9930 P   0  0  2  0  0  0  0  0  0  0  0  0
  160.9320  206.4010  151.7690 C   0  0  1  0  0  3  0  0  0  0  0  0
  161.9640  208.1240  150.0690 C   0  0  2  0  0  3  0  0  0  0  0  0
  162.1780  208.9030  152.3800 O   0  0  0  0  0  0  0  0  0  0  0  0
  160.1990  206.1910  149.3230 C   0  0  2  0  0  3  0  0  0  0  0  0
  159.5800  208.4500  153.2380 O   0  0  0  0  0  0  0  0  0  0  0  0
  160.9710  206.9680  150.3430 C   0  0  2  0  0  0  0  0  0  0  0  0
  161.6820  209.2280  151.1050 C   0  0  1  0  0  3  0  0  0  0  0  0
  160.6110  206.4650  148.0150 O   0  0  0  0  0  1  0  0  0  0  0  0
  163.2720  205.4580  151.3230 C   0  0  0  0  0  1  0  0  0  0  0  0
  161.9350  205.2600  152.0270 C   0  0  2  0  0  3  0  0  0  0  0  0
  161.3880  203.8380  151.8110 C   0  0  2  0  0  3  0  0  0  0  0  0
  159.5370  203.1250  152.6460 O   0  0  0  0  0  1  0  0  0  0  0  0
  160.7950  203.3360  152.9790 O   0  0  0  0  0  0  0  0  0  0  0  0
  162.4840  202.8820  151.3590 C   0  0  0  0  0  2  0  0  0  0  0  0
  162.0470  201.4320  151.4090 C   0  0  0  0  0  2  0  0  0  0  0  0
  161.5870  200.9500  150.0370 C   0  0  0  0  0  2  0  0  0  0  0  0
  160.8340  202.0390  149.2640 C   0  0  2  0  0  3  0  0  0  0  0  0
  159.4500  201.8880  149.3700 O   0  0  0  0  0  1  0  0  0  0  0  0
  161.2540  202.1870  147.7920 C   0  0  2  0  0  3  0  0  0  0  0  0
  161.4200  203.6170  147.2530 C   0  0  0  0  0  2  0  0  0  0  0  0
  160.4570  203.2580  145.0970 O   0  0  0  0  0  1  0  0  0  0  0  0
  161.6190  203.6740  145.7380 C   0  0  1  0  0  3  0  0  0  0  0  0
  161.0540  205.8480  144.5440 N   0  0  0  0  0  1  0  0  0  0  0  0
  161.9740  205.0670  145.3090 C   0  0  0  0  0  0  0  0  0  0  0  0
  163.1080  205.5380  145.5830 O   0  0  0  0  0  0  0  0  0  0  0  0
  160.5490  201.3340  146.8870 O   0  0  0  0  0  0  0  0  0  0  0  0
  160.9960  200.0670  146.4970 C   0  0  0  0  0  0  0  0  0  0  0  0
  162.0430  199.5870  147.0030 O   0  0  0  0  0  0  0  0  0  0  0  0
  160.3020  199.3390  145.3990 C   0  0  0  0  0  2  0  0  0  0  0  0
  159.9980  200.2630  144.3190 N   0  0  0  0  0  1  0  0  0  0  0  0
  162.8200  208.0300  148.1030 O   0  0  0  0  0  1  0  0  0  0  0  0
  161.8540  208.6250  148.7660 O   0  0  0  0  0  0  0  0  0  0  0  0
  162.0610  210.6410  150.6430 C   0  0  2  0  0  3  0  0  0  0  0  0
  160.9790  211.5970  150.8550 N   0  0  0  0  0  2  0  0  0  0  0  0
  161.2050  211.6120  153.3450 C   0  0  0  0  0  3  0  0  0  0  0  0
  159.2140  211.2180  154.6230 N   0  0  0  0  0  0  0  0  0  0  0  0
  159.0280  211.7580  152.2420 C   0  0  0  0  0  3  0  0  0  0  0  0
  158.3650  211.8310  153.5920 C   0  0  0  0  0  2  0  0  0  0  0  0
  160.6400  211.3510  154.5280 C   0  0  0  0  0  3  0  0  0  0  0  0
  160.3640  211.7240  152.1340 C   0  0  0  0  0  0  0  0  0  0  0  0
  158.6430  210.7190  155.8690 C   0  0  2  0  0  3  0  0  0  0  0  0
  157.8250  211.8010  156.5590 C   0  0  0  0  0  1  0  0  0  0  0  0
  159.7050  210.2640  156.7520 N   0  0  0  0  0  1  0  0  0  0  0  0
  162.4770  210.6600  149.1710 C   0  0  0  0  0  2  0  0  0  0  0  0
  163.3410  212.7500  148.3950 O   0  0  0  0  0  0  0  0  0  0  0  0
  162.3280  212.0110  148.5500 C   0  0  0  0  0  0  0  0  0  0  0  0
  161.0640  212.4150  148.1120 O   0  0  0  0  0  0  0  0  0  0  0  0
  160.8680  213.4530  147.1580 C   0  0  1  0  0  3  0  0  0  0  0  0
  161.2290  212.9330  145.7810 C   0  0  0  0  0  1  0  0  0  0  0  0
  159.4160  213.9330  147.1730 C   0  0  0  0  0  2  0  0  0  0  0  0
  157.4410  212.4680  147.0980 C   0  0  0  0  0  2  0  0  0  0  0  0
  158.5200  212.9490  146.4860 C   0  0  0  0  0  3  0  0  0  0  0  0
  3  8  2  1  0  0  0
  3  2  1  0  0  0  0
  4 13  1  6  0  0  0
  4  3  1  0  0  0  0
  5 35  1  6  0  0  0
  5  9  1  0  0  0  0
  5 10  1  0  0  0  0
  6  3  1  0  0  0  0
  7 11  1  6  0  0  0
  7  1  1  0  0  0  0
  7  9  1  0  0  0  0
  9  1  1  1  0  0  0
  9  4  1  0  0  0  0
 10 36  1  6  0  0  0
 10  6  1  0  0  0  0
 13 12  1  6  0  0  0
 14 17  1  1  0  0  0
 14 13  1  0  0  0  0
 14 16  1  0  0  0  0
 15 16  1  0  0  0  0
 17 18  1  0  0  0  0
 19 18  1  0  0  0  0
 20 21  1  6  0  0  0
 20 19  1  0  0  0  0
 22 23  1  6  0  0  0
 22 20  1  0  0  0  0
 25 24  1  6  0  0  0
 25 23  1  0  0  0  0
 26 27  1  0  0  0  0
 27 28  2  0  0  0  0
 27 25  1  0  0  0  0
 29 22  1  0  0  0  0
 30 29  1  0  0  0  0
 30 31  2  0  0  0  0
 32 30  1  0  0  0  0
 33 32  1  0  0  0  0
 34 35  1  0  0  0  0
 36 47  1  6  0  0  0
 36 37  1  0  0  0  0
 37 43  1  0  0  0  0
 38 42  2  0  0  0  0
 39 44  1  0  0  0  0
 40 41  1  0  0  0  0
 41 39  1  0  0  0  0
 42 39  1  0  0  0  0
 43 40  2  0  0  0  0
 43 38  1  0  0  0  0
 44 45  1  1  0  0  0
 44 46  1  0  0  0  0
 48 49  2  0  0  0  0
 49 47  1  0  0  0  0
 50 49  1  0  0  0  0
 51 52  1  6  0  0  0
 51 53  1  0  0  0  0
 51 50  1  0  0  0  0
 55 54  2  0  0  0  0
 55 53  1  0  0  0  0
M  END
>  <MODEL>
3

>  <REMARK>
 VINA RESULT:      -1.1      1.808      2.133
  Name = 
  25 active torsions:
  status: ('A' for Active; 'I' for Inactive)
    1  A    between atoms: C_1  and  C_30
    2  A    between atoms: C_1  and  C_53
    3  A    between atoms: O_6  and  C_14
    4  A    between atoms: O_6  and  C_53
    5  A    between atoms: C_7  and  C_8
    6  A    between atoms: C_7  and  C_23
    7  A    between atoms: C_7  and  O_43
    8  A    between atoms: C_8  and  C_20
    9  A    between atoms: C_10  and  N_32
   10  A    between atoms: C_11  and  C_29
   11  A    between atoms: C_11  and  C_38
   12  A    between atoms: C_12  and  C_14
   13  A    between atoms: C_17  and  C_23
   14  A    between atoms: C_19  and  O_40
   15  A    between atoms: C_20  and  C_30
   16  A    between atoms: C_27  and  O_31
   17  A    between atoms: C_27  and  C_55
   18  A    between atoms: C_28  and  C_44
   19  A    between atoms: C_28  and  C_49
   20  A    between atoms: O_31  and  C_44
   21  A    between atoms: N_33  and  C_49
   22  A    between atoms: N_33  and  C_52
   23  A    between atoms: C_38  and  C_53
   24  A    between atoms: C_41  and  C_55
   25  A    between atoms: C_45  and  C_49
                            x       y       z     vdW  Elec       q    Type
                         _______ _______ _______ _____ _____    ______ ____

>  <TORSDO>
F 25

$$$$
=
 OpenBabel11062409003D

 55 57  0  0  1  0  0  0  0  0999 V2000
  158.1180  211.9980  147.4950 O   0  0  0  0  0  0  0  0  0  0  0  0
  162.8950  212.2000  147.2380 O   0  0  0  0  0  0  0  0  0  0  0  0
  161.5020  212.0870  147.8140 P   0  0  2  0  0  0  0  0  0  0  0  0
  160.2670  212.6770  146.6080 C   0  0  1  0  0  3  0  0  0  0  0  0
  159.1360  213.8490  148.6750 C   0  0  2  0  0  3  0  0  0  0  0  0
  161.3790  213.0340  149.2200 O   0  0  0  0  0  0  0  0  0  0  0  0
  157.7200  212.9470  146.5320 C   0  0  2  0  0  3  0  0  0  0  0  0
  161.1780  210.4700  148.1830 O   0  0  0  0  0  1  0  0  0  0  0  0
  158.9800  213.1050  147.3260 C   0  0  2  0  0  0  0  0  0  0  0  0
  160.0210  212.9750  149.5820 C   0  0  1  0  0  3  0  0  0  0  0  0
  156.6740  213.7340  147.0230 O   0  0  0  0  0  1  0  0  0  0  0  0
  159.7940  214.4530  144.8210 C   0  0  0  0  0  1  0  0  0  0  0  0
  160.8500  213.7430  145.6610 C   0  0  2  0  0  3  0  0  0  0  0  0
  162.0390  213.2830  144.7990 C   0  0  2  0  0  3  0  0  0  0  0  0
  163.5440  214.0140  143.4440 O   0  0  0  0  0  1  0  0  0  0  0  0
  162.9440  214.3300  144.5750 O   0  0  0  0  0  0  0  0  0  0  0  0
  161.5750  212.7290  143.4580 C   0  0  0  0  0  2  0  0  0  0  0  0
  160.5230  213.6000  142.8020 C   0  0  0  0  0  2  0  0  0  0  0  0
  160.5630  213.4580  141.2840 C   0  0  0  0  0  2  0  0  0  0  0  0
  159.1640  213.5370  140.6600 C   0  0  2  0  0  3  0  0  0  0  0  0
  158.1640  213.5810  141.6330 O   0  0  0  0  0  1  0  0  0  0  0  0
  158.8640  212.4450  139.6200 C   0  0  2  0  0  3  0  0  0  0  0  0
  157.4030  211.9850  139.4910 C   0  0  0  0  0  2  0  0  0  0  0  0
  158.0060  211.7820  137.1890 O   0  0  0  0  0  1  0  0  0  0  0  0
  157.0850  211.3490  138.1370 C   0  0  1  0  0  3  0  0  0  0  0  0
  158.0420  209.0890  137.4640 N   0  0  0  0  0  1  0  0  0  0  0  0
  157.1180  209.8530  138.2420 C   0  0  0  0  0  0  0  0  0  0  0  0
  156.2930  209.2580  138.9830 O   0  0  0  0  0  0  0  0  0  0  0  0
  159.7880  211.3540  139.6240 O   0  0  0  0  0  0  0  0  0  0  0  0
  160.9190  211.2840  138.8040 C   0  0  0  0  0  0  0  0  0  0  0  0
  161.9620  211.9140  139.1180 O   0  0  0  0  0  0  0  0  0  0  0  0
  160.8520  210.5630  137.5020 C   0  0  0  0  0  2  0  0  0  0  0  0
  161.9680  209.6370  137.4020 N   0  0  0  0  0  1  0  0  0  0  0  0
  157.3310  212.9330  149.3900 O   0  0  0  0  0  1  0  0  0  0  0  0
  157.9040  214.1120  149.2860 O   0  0  0  0  0  0  0  0  0  0  0  0
  159.7790  213.1750  151.0840 C   0  0  2  0  0  3  0  0  0  0  0  0
  160.9120  212.7270  151.8860 N   0  0  0  0  0  2  0  0  0  0  0  0
  162.0280  210.5710  151.2900 C   0  0  0  0  0  3  0  0  0  0  0  0
  161.0120  208.5570  152.1030 N   0  0  0  0  0  0  0  0  0  0  0  0
  160.3400  210.7110  153.0530 C   0  0  0  0  0  3  0  0  0  0  0  0
  160.4980  209.2340  153.3010 C   0  0  0  0  0  2  0  0  0  0  0  0
  161.9560  209.2370  151.2630 C   0  0  0  0  0  3  0  0  0  0  0  0
  161.1090  211.3420  152.1550 C   0  0  0  0  0  0  0  0  0  0  0  0
  160.8000  207.1280  151.8970 C   0  0  2  0  0  3  0  0  0  0  0  0
  161.0750  206.3520  153.1760 C   0  0  0  0  0  1  0  0  0  0  0  0
  161.6660  206.6480  150.8310 N   0  0  0  0  0  1  0  0  0  0  0  0
  158.5100  212.4600  151.5510 C   0  0  0  0  0  2  0  0  0  0  0  0
  157.7050  214.3890  152.7130 O   0  0  0  0  0  0  0  0  0  0  0  0
  157.8670  213.1360  152.7190 C   0  0  0  0  0  0  0  0  0  0  0  0
  157.4180  212.3530  153.7840 O   0  0  0  0  0  0  0  0  0  0  0  0
  156.0460  212.2570  154.1540 C   0  0  1  0  0  3  0  0  0  0  0  0
  155.7360  210.8240  154.5370 C   0  0  0  0  0  1  0  0  0  0  0  0
  155.7350  213.1910  155.3240 C   0  0  0  0  0  2  0  0  0  0  0  0
  154.1660  214.4240  153.8850 C   0  0  0  0  0  2  0  0  0  0  0  0
  155.0870  214.4530  154.8450 C   0  0  0  0  0  3  0  0  0  0  0  0
  3  2  2  6  0  0  0
  3  8  1  0  0  0  0
  3  6  1  0  0  0  0
  4 13  1  1  0  0  0
  4  9  1  0  0  0  0
  4  3  1  0  0  0  0
  5 35  1  1  0  0  0
  5 10  1  0  0  0  0
  6 10  1  0  0  0  0
  7 11  1  1  0  0  0
  7  9  1  0  0  0  0
  7  1  1  0  0  0  0
  9  1  1  1  0  0  0
  9  5  1  0  0  0  0
 10 36  1  1  0  0  0
 13 12  1  6  0  0  0
 14 17  1  6  0  0  0
 14 13  1  0  0  0  0
 15 16  1  0  0  0  0
 16 14  1  0  0  0  0
 18 17  1  0  0  0  0
 19 18  1  0  0  0  0
 20 19  1  0  0  0  0
 20 21  1  1  0  0  0
 22 23  1  1  0  0  0
 22 29  1  0  0  0  0
 22 20  1  0  0  0  0
 25 24  1  6  0  0  0
 25 27  1  0  0  0  0
 25 23  1  0  0  0  0
 26 27  1  0  0  0  0
 27 28  2  0  0  0  0
 30 31  2  0  0  0  0
 30 29  1  0  0  0  0
 32 30  1  0  0  0  0
 33 32  1  0  0  0  0
 35 34  1  0  0  0  0
 36 47  1  1  0  0  0
 36 37  1  0  0  0  0
 37 43  1  0  0  0  0
 38 43  1  0  0  0  0
 39 41  1  0  0  0  0
 40 41  1  0  0  0  0
 42 38  2  0  0  0  0
 42 39  1  0  0  0  0
 43 40  2  0  0  0  0
 44 39  1  0  0  0  0
 44 45  1  1  0  0  0
 46 44  1  0  0  0  0
 47 49  1  0  0  0  0
 48 49  2  0  0  0  0
 49 50  1  0  0  0  0
 50 51  1  0  0  0  0
 51 52  1  1  0  0  0
 51 53  1  0  0  0  0
 54 55  2  0  0  0  0
 55 53  1  0  0  0  0
M  END
>  <MODEL>
4

>  <REMARK>
 VINA RESULT:      -1.1      4.809      9.777
  Name = 
  25 active torsions:
  status: ('A' for Active; 'I' for Inactive)
    1  A    between atoms: C_1  and  C_30
    2  A    between atoms: C_1  and  C_53
    3  A    between atoms: O_6  and  C_14
    4  A    between atoms: O_6  and  C_53
    5  A    between atoms: C_7  and  C_8
    6  A    between atoms: C_7  and  C_23
    7  A    between atoms: C_7  and  O_43
    8  A    between atoms: C_8  and  C_20
    9  A    between atoms: C_10  and  N_32
   10  A    between atoms: C_11  and  C_29
   11  A    between atoms: C_11  and  C_38
   12  A    between atoms: C_12  and  C_14
   13  A    between atoms: C_17  and  C_23
   14  A    between atoms: C_19  and  O_40
   15  A    between atoms: C_20  and  C_30
   16  A    between atoms: C_27  and  O_31
   17  A    between atoms: C_27  and  C_55
   18  A    between atoms: C_28  and  C_44
   19  A    between atoms: C_28  and  C_49
   20  A    between atoms: O_31  and  C_44
   21  A    between atoms: N_33  and  C_49
   22  A    between atoms: N_33  and  C_52
   23  A    between atoms: C_38  and  C_53
   24  A    between atoms: C_41  and  C_55
   25  A    between atoms: C_45  and  C_49
                            x       y       z     vdW  Elec       q    Type
                         _______ _______ _______ _____ _____    ______ ____

>  <TORSDO>
F 25

$$$$
=
 OpenBabel11062409003D

 55 57  0  0  1  0  0  0  0  0999 V2000
  162.0400  208.5630  155.1630 O   0  0  0  0  0  0  0  0  0  0  0  0
  162.3140  209.8650  150.5630 O   0  0  0  0  0  0  0  0  0  0  0  0
  162.0130  209.9160  152.0430 P   0  0  2  0  0  0  0  0  0  0  0  0
  162.0770  208.2400  152.7620 C   0  0  1  0  0  3  0  0  0  0  0  0
  159.9150  208.9630  154.0770 C   0  0  2  0  0  3  0  0  0  0  0  0
  160.4580  210.5530  152.2960 O   0  0  0  0  0  0  0  0  0  0  0  0
  161.7250  207.1920  155.0740 C   0  0  2  0  0  3  0  0  0  0  0  0
  163.1610  210.8880  152.8160 O   0  0  0  0  0  1  0  0  0  0  0  0
  161.2500  208.1810  154.0550 C   0  0  2  0  0  0  0  0  0  0  0  0
  160.2270  210.4170  153.6770 C   0  0  1  0  0  3  0  0  0  0  0  0
  160.7330  206.8560  155.9990 O   0  0  0  0  0  1  0  0  0  0  0  0
  160.5350  207.5280  150.8430 C   0  0  0  0  0  1  0  0  0  0  0  0
  161.7190  207.1560  151.7290 C   0  0  2  0  0  3  0  0  0  0  0  0
  161.5760  205.7300  152.2900 C   0  0  2  0  0  3  0  0  0  0  0  0
  163.5830  205.8200  151.5140 O   0  0  0  0  0  1  0  0  0  0  0  0
  162.7770  205.0130  152.1750 O   0  0  0  0  0  0  0  0  0  0  0  0
  160.4680  204.9610  151.5830 C   0  0  0  0  0  2  0  0  0  0  0  0
  160.9650  203.6810  150.9430 C   0  0  0  0  0  2  0  0  0  0  0  0
  159.8030  202.8340  150.4340 C   0  0  0  0  0  2  0  0  0  0  0  0
  160.2600  201.7710  149.4270 C   0  0  2  0  0  3  0  0  0  0  0  0
  160.6970  200.6080  150.0640 O   0  0  0  0  0  1  0  0  0  0  0  0
  161.3040  202.2590  148.4100 C   0  0  2  0  0  3  0  0  0  0  0  0
  161.6330  203.7610  148.4120 C   0  0  0  0  0  2  0  0  0  0  0  0
  160.4180  205.7640  147.9420 O   0  0  0  0  0  1  0  0  0  0  0  0
  160.8290  204.5580  147.3830 C   0  0  1  0  0  3  0  0  0  0  0  0
  163.0810  204.7080  146.2070 N   0  0  0  0  0  1  0  0  0  0  0  0
  161.6570  204.8140  146.1580 C   0  0  0  0  0  0  0  0  0  0  0  0
  161.0990  205.1710  145.0880 O   0  0  0  0  0  0  0  0  0  0  0  0
  161.1380  201.7330  147.0910 O   0  0  0  0  0  0  0  0  0  0  0  0
  161.3820  200.4000  146.7440 C   0  0  0  0  0  0  0  0  0  0  0  0
  161.8930  199.6150  147.5850 O   0  0  0  0  0  0  0  0  0  0  0  0
  161.1500  199.9400  145.3460 C   0  0  0  0  0  2  0  0  0  0  0  0
  160.9620  198.4990  145.3340 N   0  0  0  0  0  1  0  0  0  0  0  0
  160.0230  209.6920  156.0930 O   0  0  0  0  0  1  0  0  0  0  0  0
  159.2890  208.9150  155.3280 O   0  0  0  0  0  0  0  0  0  0  0  0
  159.2430  211.4530  154.2380 C   0  0  2  0  0  3  0  0  0  0  0  0
  158.2570  211.8660  153.2450 N   0  0  0  0  0  2  0  0  0  0  0  0
  157.6470  212.9570  151.0800 C   0  0  0  0  0  3  0  0  0  0  0  0
  159.4520  213.6670  149.6700 N   0  0  0  0  0  0  0  0  0  0  0  0
  159.9050  213.0930  152.0070 C   0  0  0  0  0  3  0  0  0  0  0  0
  160.3250  213.9250  150.8240 C   0  0  0  0  0  2  0  0  0  0  0  0
  158.0590  213.4030  149.8900 C   0  0  0  0  0  3  0  0  0  0  0  0
  158.6320  212.7010  152.1530 C   0  0  0  0  0  0  0  0  0  0  0  0
  159.9030  213.9390  148.3100 C   0  0  2  0  0  3  0  0  0  0  0  0
  158.7450  213.8430  147.3280 C   0  0  0  0  0  1  0  0  0  0  0  0
  160.9470  212.9970  147.9370 N   0  0  0  0  0  1  0  0  0  0  0  0
  159.9700  212.6850  154.7780 C   0  0  0  0  0  2  0  0  0  0  0  0
  160.1810  213.8240  156.8700 O   0  0  0  0  0  0  0  0  0  0  0  0
  159.4590  213.1120  156.1160 C   0  0  0  0  0  0  0  0  0  0  0  0
  158.1640  212.7450  156.4900 O   0  0  0  0  0  0  0  0  0  0  0  0
  157.0060  213.1250  155.7530 C   0  0  1  0  0  3  0  0  0  0  0  0
  156.0280  211.9670  155.7380 C   0  0  0  0  0  1  0  0  0  0  0  0
  156.3500  214.3570  156.3770 C   0  0  0  0  0  2  0  0  0  0  0  0
  153.9470  214.4130  156.9030 C   0  0  0  0  0  2  0  0  0  0  0  0
  154.9080  214.4530  155.9830 C   0  0  0  0  0  3  0  0  0  0  0  0
  3  2  2  6  0  0  0
  3  6  1  0  0  0  0
  3  4  1  0  0  0  0
  3  8  1  0  0  0  0
  4 13  1  6  0  0  0
  4  9  1  0  0  0  0
  5 35  1  1  0  0  0
  6 10  1  0  0  0  0
  7  1  1  0  0  0  0
  7 11  1  1  0  0  0
  9  5  1  0  0  0  0
  9  7  1  0  0  0  0
  9  1  1  1  0  0  0
 10  5  1  0  0  0  0
 10 36  1  6  0  0  0
 13 12  1  1  0  0  0
 13 14  1  0  0  0  0
 14 17  1  6  0  0  0
 15 16  1  0  0  0  0
 16 14  1  0  0  0  0
 18 17  1  0  0  0  0
 19 18  1  0  0  0  0
 20 21  1  1  0  0  0
 20 19  1  0  0  0  0
 22 23  1  6  0  0  0
 22 20  1  0  0  0  0
 25 24  1  1  0  0  0
 25 23  1  0  0  0  0
 27 26  1  0  0  0  0
 27 25  1  0  0  0  0
 28 27  2  0  0  0  0
 29 22  1  0  0  0  0
 30 29  1  0  0  0  0
 30 31  2  0  0  0  0
 32 30  1  0  0  0  0
 33 32  1  0  0  0  0
 35 34  1  0  0  0  0
 36 47  1  6  0  0  0
 37 36  1  0  0  0  0
 38 43  1  0  0  0  0
 39 42  1  0  0  0  0
 39 41  1  0  0  0  0
 40 43  2  0  0  0  0
 41 40  1  0  0  0  0
 42 38  2  0  0  0  0
 43 37  1  0  0  0  0
 44 45  1  6  0  0  0
 44 39  1  0  0  0  0
 46 44  1  0  0  0  0
 47 49  1  0  0  0  0
 49 50  1  0  0  0  0
 49 48  2  0  0  0  0
 51 52  1  1  0  0  0
 51 53  1  0  0  0  0
 51 50  1  0  0  0  0
 55 53  1  0  0  0  0
 55 54  2  0  0  0  0
M  END
>  <MODEL>
5

>  <REMARK>
 VINA RESULT:      -1.1      2.186      5.635
  Name = 
  25 active torsions:
  status: ('A' for Active; 'I' for Inactive)
    1  A    between atoms: C_1  and  C_30
    2  A    between atoms: C_1  and  C_53
    3  A    between atoms: O_6  and  C_14
    4  A    between atoms: O_6  and  C_53
    5  A    between atoms: C_7  and  C_8
    6  A    between atoms: C_7  and  C_23
    7  A    between atoms: C_7  and  O_43
    8  A    between atoms: C_8  and  C_20
    9  A    between atoms: C_10  and  N_32
   10  A    between atoms: C_11  and  C_29
   11  A    between atoms: C_11  and  C_38
   12  A    between atoms: C_12  and  C_14
   13  A    between atoms: C_17  and  C_23
   14  A    between atoms: C_19  and  O_40
   15  A    between atoms: C_20  and  C_30
   16  A    between atoms: C_27  and  O_31
   17  A    between atoms: C_27  and  C_55
   18  A    between atoms: C_28  and  C_44
   19  A    between atoms: C_28  and  C_49
   20  A    between atoms: O_31  and  C_44
   21  A    between atoms: N_33  and  C_49
   22  A    between atoms: N_33  and  C_52
   23  A    between atoms: C_38  and  C_53
   24  A    between atoms: C_41  and  C_55
   25  A    between atoms: C_45  and  C_49
                            x       y       z     vdW  Elec       q    Type
                         _______ _______ _______ _____ _____    ______ ____

>  <TORSDO>
F 25

$$$$
=
 OpenBabel11062409003D

 55 57  0  0  1  0  0  0  0  0999 V2000
  163.3150  208.2210  148.7480 O   0  0  0  0  0  0  0  0  0  0  0  0
  161.3770  211.3400  151.8220 O   0  0  0  0  0  0  0  0  0  0  0  0
  161.9150  210.0480  151.2510 P   0  0  2  0  0  0  0  0  0  0  0  0
  162.0230  210.1520  149.4330 C   0  0  1  0  0  3  0  0  0  0  0  0
  161.0610  207.7030  149.4580 C   0  0  2  0  0  3  0  0  0  0  0  0
  160.8820  208.7610  151.6580 O   0  0  0  0  0  0  0  0  0  0  0  0
  162.7430  208.6080  147.5200 C   0  0  2  0  0  3  0  0  0  0  0  0
  163.4600  209.7600  151.8760 O   0  0  0  0  0  1  0  0  0  0  0  0
  162.0050  208.7470  148.8150 C   0  0  2  0  0  0  0  0  0  0  0  0
  161.3900  207.6510  150.9610 C   0  0  1  0  0  3  0  0  0  0  0  0
  162.3420  207.4850  146.7910 O   0  0  0  0  0  1  0  0  0  0  0  0
  160.5850  210.7920  147.4110 C   0  0  0  0  0  1  0  0  0  0  0  0
  160.9740  211.1170  148.8480 C   0  0  2  0  0  3  0  0  0  0  0  0
  161.2820  212.6140  149.0240 C   0  0  2  0  0  3  0  0  0  0  0  0
  160.1190  214.3880  149.3900 O   0  0  0  0  0  1  0  0  0  0  0  0
  160.3940  213.2160  149.9270 O   0  0  0  0  0  0  0  0  0  0  0  0
  161.2210  213.3560  147.6960 C   0  0  0  0  0  2  0  0  0  0  0  0
  162.5890  213.5460  147.0730 C   0  0  0  0  0  2  0  0  0  0  0  0
  162.4920  214.3200  145.7610 C   0  0  0  0  0  2  0  0  0  0  0  0
  162.8790  213.4590  144.5530 C   0  0  2  0  0  3  0  0  0  0  0  0
  163.8510  214.0780  143.7640 O   0  0  0  0  0  1  0  0  0  0  0  0
  161.6930  212.9950  143.6910 C   0  0  2  0  0  3  0  0  0  0  0  0
  160.4090  212.5850  144.4310 C   0  0  0  0  0  2  0  0  0  0  0  0
  158.6810  213.5540  143.0980 O   0  0  0  0  0  1  0  0  0  0  0  0
  159.2980  213.6320  144.3420 C   0  0  1  0  0  3  0  0  0  0  0  0
  158.0380  214.4380  146.4010 N   0  0  0  0  0  1  0  0  0  0  0  0
  158.2900  213.4180  145.4320 C   0  0  0  0  0  0  0  0  0  0  0  0
  157.6930  212.3150  145.5260 O   0  0  0  0  0  0  0  0  0  0  0  0
  162.0410  212.0840  142.6450 O   0  0  0  0  0  0  0  0  0  0  0  0
  162.0360  212.4150  141.2860 C   0  0  0  0  0  0  0  0  0  0  0  0
  162.7610  211.7750  140.4810 O   0  0  0  0  0  0  0  0  0  0  0  0
  161.2670  213.5990  140.8110 C   0  0  0  0  0  2  0  0  0  0  0  0
  160.7600  213.3430  139.4730 N   0  0  0  0  0  1  0  0  0  0  0  0
  160.3840  206.4670  147.8390 O   0  0  0  0  0  1  0  0  0  0  0  0
  161.1900  206.4360  148.8760 O   0  0  0  0  0  0  0  0  0  0  0  0
  161.0680  206.3080  151.6330 C   0  0  2  0  0  3  0  0  0  0  0  0
  160.1380  205.5080  150.8430 N   0  0  0  0  0  2  0  0  0  0  0  0
  161.1910  204.3580  148.8890 C   0  0  0  0  0  3  0  0  0  0  0  0
  160.7520  202.0140  148.6380 N   0  0  0  0  0  0  0  0  0  0  0  0
  160.2380  203.1130  150.7650 C   0  0  0  0  0  3  0  0  0  0  0  0
  160.6300  201.8250  150.0900 C   0  0  0  0  0  2  0  0  0  0  0  0
  161.2570  203.2590  148.1320 C   0  0  0  0  0  3  0  0  0  0  0  0
  160.5650  204.2960  150.2270 C   0  0  0  0  0  0  0  0  0  0  0  0
  160.6340  200.8870  147.7200 C   0  0  2  0  0  3  0  0  0  0  0  0
  161.6430  199.8010  148.0650 C   0  0  0  0  0  1  0  0  0  0  0  0
  160.8420  201.3370  146.3530 N   0  0  0  0  0  1  0  0  0  0  0  0
  160.5050  206.5040  153.0410 C   0  0  0  0  0  2  0  0  0  0  0  0
  162.5640  205.8700  154.0770 O   0  0  0  0  0  0  0  0  0  0  0  0
  161.5760  206.6570  154.0720 C   0  0  0  0  0  0  0  0  0  0  0  0
  161.4790  207.7030  154.9920 O   0  0  0  0  0  0  0  0  0  0  0  0
  160.2510  208.0900  155.6010 C   0  0  1  0  0  3  0  0  0  0  0  0
  159.8190  207.0080  156.5710 C   0  0  0  0  0  1  0  0  0  0  0  0
  160.4090  209.4200  156.3380 C   0  0  0  0  0  2  0  0  0  0  0  0
  159.3900  210.7790  154.5590 C   0  0  0  0  0  2  0  0  0  0  0  0
  159.4190  210.4280  155.8420 C   0  0  0  0  0  3  0  0  0  0  0  0
  3  6  1  0  0  0  0
  3  2  2  1  0  0  0
  3  8  1  0  0  0  0
  4 13  1  6  0  0  0
  4  3  1  0  0  0  0
  5 35  1  6  0  0  0
  5 10  1  0  0  0  0
  7 11  1  6  0  0  0
  7  1  1  0  0  0  0
  7  9  1  0  0  0  0
  9  1  1  1  0  0  0
  9  4  1  0  0  0  0
  9  5  1  0  0  0  0
 10 36  1  1  0  0  0
 10  6  1  0  0  0  0
 13 12  1  6  0  0  0
 13 14  1  0  0  0  0
 14 17  1  6  0  0  0
 14 16  1  0  0  0  0
 15 16  1  0  0  0  0
 18 17  1  0  0  0  0
 19 18  1  0  0  0  0
 20 21  1  6  0  0  0
 20 19  1  0  0  0  0
 22 23  1  1  0  0  0
 22 20  1  0  0  0  0
 25 24  1  6  0  0  0
 25 23  1  0  0  0  0
 25 27  1  0  0  0  0
 27 28  2  0  0  0  0
 27 26  1  0  0  0  0
 29 22  1  0  0  0  0
 30 29  1  0  0  0  0
 31 30  2  0  0  0  0
 32 30  1  0  0  0  0
 33 32  1  0  0  0  0
 34 35  1  0  0  0  0
 36 47  1  1  0  0  0
 37 36  1  0  0  0  0
 38 43  1  0  0  0  0
 39 41  1  0  0  0  0
 41 40  1  0  0  0  0
 42 39  1  0  0  0  0
 42 38  2  0  0  0  0
 43 40  2  0  0  0  0
 43 37  1  0  0  0  0
 44 45  1  1  0  0  0
 44 39  1  0  0  0  0
 46 44  1  0  0  0  0
 47 49  1  0  0  0  0
 49 48  2  0  0  0  0
 49 50  1  0  0  0  0
 50 51  1  0  0  0  0
 51 53  1  0  0  0  0
 51 52  1  1  0  0  0
 54 55  2  0  0  0  0
 55 53  1  0  0  0  0
M  END
>  <MODEL>
6

>  <REMARK>
 VINA RESULT:      -0.3      3.080      9.881
  Name = 
  25 active torsions:
  status: ('A' for Active; 'I' for Inactive)
    1  A    between atoms: C_1  and  C_30
    2  A    between atoms: C_1  and  C_53
    3  A    between atoms: O_6  and  C_14
    4  A    between atoms: O_6  and  C_53
    5  A    between atoms: C_7  and  C_8
    6  A    between atoms: C_7  and  C_23
    7  A    between atoms: C_7  and  O_43
    8  A    between atoms: C_8  and  C_20
    9  A    between atoms: C_10  and  N_32
   10  A    between atoms: C_11  and  C_29
   11  A    between atoms: C_11  and  C_38
   12  A    between atoms: C_12  and  C_14
   13  A    between atoms: C_17  and  C_23
   14  A    between atoms: C_19  and  O_40
   15  A    between atoms: C_20  and  C_30
   16  A    between atoms: C_27  and  O_31
   17  A    between atoms: C_27  and  C_55
   18  A    between atoms: C_28  and  C_44
   19  A    between atoms: C_28  and  C_49
   20  A    between atoms: O_31  and  C_44
   21  A    between atoms: N_33  and  C_49
   22  A    between atoms: N_33  and  C_52
   23  A    between atoms: C_38  and  C_53
   24  A    between atoms: C_41  and  C_55
   25  A    between atoms: C_45  and  C_49
                            x       y       z     vdW  Elec       q    Type
                         _______ _______ _______ _____ _____    ______ ____

>  <TORSDO>
F 25

$$$$
=
 OpenBabel11062409003D

 55 57  0  0  1  0  0  0  0  0999 V2000
  162.3130  208.0480  154.3250 O   0  0  0  0  0  0  0  0  0  0  0  0
  162.4330  210.1460  150.0230 O   0  0  0  0  0  0  0  0  0  0  0  0
  162.1900  209.9350  151.5000 P   0  0  2  0  0  0  0  0  0  0  0  0
  162.2520  208.1580  151.9060 C   0  0  1  0  0  3  0  0  0  0  0  0
  160.1550  208.6580  153.4160 C   0  0  2  0  0  3  0  0  0  0  0  0
  160.6570  210.5340  151.9250 O   0  0  0  0  0  0  0  0  0  0  0  0
  161.9710  206.7190  154.0070 C   0  0  2  0  0  3  0  0  0  0  0  0
  163.3840  210.7420  152.3840 O   0  0  0  0  0  1  0  0  0  0  0  0
  161.4750  207.8780  153.2000 C   0  0  2  0  0  0  0  0  0  0  0  0
  160.4780  210.1560  153.2680 C   0  0  1  0  0  3  0  0  0  0  0  0
  161.0090  206.2340  154.8980 O   0  0  0  0  0  1  0  0  0  0  0  0
  161.3760  208.0800  149.4990 C   0  0  0  0  0  1  0  0  0  0  0  0
  161.8350  207.2790  150.7120 C   0  0  2  0  0  3  0  0  0  0  0  0
  160.8520  206.1410  151.0410 C   0  0  2  0  0  3  0  0  0  0  0  0
  160.5780  204.2860  152.0980 O   0  0  0  0  0  1  0  0  0  0  0  0
  161.5230  205.0130  151.5350 O   0  0  0  0  0  0  0  0  0  0  0  0
  160.0350  205.7400  149.8200 C   0  0  0  0  0  2  0  0  0  0  0  0
  160.8680  205.0370  148.7680 C   0  0  0  0  0  2  0  0  0  0  0  0
  161.0020  203.5490  149.0760 C   0  0  0  0  0  2  0  0  0  0  0  0
  161.6910  202.7830  147.9400 C   0  0  2  0  0  3  0  0  0  0  0  0
  162.9130  203.3610  147.5930 O   0  0  0  0  0  1  0  0  0  0  0  0
  160.8180  202.5640  146.6940 C   0  0  2  0  0  3  0  0  0  0  0  0
  160.2310  201.1580  146.4900 C   0  0  0  0  0  2  0  0  0  0  0  0
  161.8700  199.6020  147.2640 O   0  0  0  0  0  1  0  0  0  0  0  0
  161.2800  200.1120  146.1120 C   0  0  1  0  0  3  0  0  0  0  0  0
  161.2430  197.7020  145.2960 N   0  0  0  0  0  1  0  0  0  0  0  0
  160.6520  199.0030  145.3210 C   0  0  0  0  0  0  0  0  0  0  0  0
  159.6230  199.2290  144.6330 O   0  0  0  0  0  0  0  0  0  0  0  0
  161.3550  203.1170  145.4900 O   0  0  0  0  0  0  0  0  0  0  0  0
  160.6490  203.9750  144.6390 C   0  0  0  0  0  0  0  0  0  0  0  0
  159.5220  203.6320  144.1970 O   0  0  0  0  0  0  0  0  0  0  0  0
  161.2810  205.2360  144.1630 C   0  0  0  0  0  2  0  0  0  0  0  0
  161.5430  206.1060  145.2980 N   0  0  0  0  0  1  0  0  0  0  0  0
  160.1170  209.2820  155.4700 O   0  0  0  0  0  1  0  0  0  0  0  0
  159.5770  208.3950  154.6640 O   0  0  0  0  0  0  0  0  0  0  0  0
  159.5350  211.0860  154.0440 C   0  0  2  0  0  3  0  0  0  0  0  0
  158.4380  211.5710  153.2140 N   0  0  0  0  0  2  0  0  0  0  0  0
  157.5820  212.8910  151.2700 C   0  0  0  0  0  3  0  0  0  0  0  0
  159.2130  213.9520  149.8700 N   0  0  0  0  0  0  0  0  0  0  0  0
  159.8820  213.1060  152.0670 C   0  0  0  0  0  3  0  0  0  0  0  0
  160.1440  214.1280  150.9930 C   0  0  0  0  0  2  0  0  0  0  0  0
  157.8660  213.5330  150.1330 C   0  0  0  0  0  3  0  0  0  0  0  0
  158.6600  212.5810  152.2330 C   0  0  0  0  0  0  0  0  0  0  0  0
  159.5380  214.4510  148.5380 C   0  0  2  0  0  3  0  0  0  0  0  0
  158.5060  213.9880  147.5210 C   0  0  0  0  0  1  0  0  0  0  0  0
  160.8600  213.9880  148.1460 N   0  0  0  0  0  1  0  0  0  0  0  0
  160.2850  212.2770  154.6440 C   0  0  0  0  0  2  0  0  0  0  0  0
  160.7730  213.0060  156.8680 O   0  0  0  0  0  0  0  0  0  0  0  0
  159.9190  212.5260  156.0710 C   0  0  0  0  0  0  0  0  0  0  0  0
  158.6120  212.2580  156.4860 O   0  0  0  0  0  0  0  0  0  0  0  0
  157.5880  213.2470  156.5140 C   0  0  1  0  0  3  0  0  0  0  0  0
  157.9080  214.3170  155.4890 C   0  0  0  0  0  1  0  0  0  0  0  0
  156.2260  212.6230  156.2110 C   0  0  0  0  0  2  0  0  0  0  0  0
  154.6680  214.4460  156.7600 C   0  0  0  0  0  2  0  0  0  0  0  0
  155.2280  213.6730  155.8330 C   0  0  0  0  0  3  0  0  0  0  0  0
  3  2  2  6  0  0  0
  3  4  1  0  0  0  0
  3  6  1  0  0  0  0
  3  8  1  0  0  0  0
  4 13  1  6  0  0  0
  4  9  1  0  0  0  0
  5 35  1  1  0  0  0
  6 10  1  0  0  0  0
  7  1  1  0  0  0  0
  7 11  1  1  0  0  0
  9  5  1  0  0  0  0
  9  7  1  0  0  0  0
  9  1  1  1  0  0  0
 10  5  1  0  0  0  0
 10 36  1  6  0  0  0
 13 12  1  6  0  0  0
 13 14  1  0  0  0  0
 14 17  1  6  0  0  0
 14 16  1  0  0  0  0
 16 15  1  0  0  0  0
 18 19  1  0  0  0  0
 18 17  1  0  0  0  0
 20 21  1  6  0  0  0
 20 19  1  0  0  0  0
 22 23  1  6  0  0  0
 22 20  1  0  0  0  0
 25 23  1  0  0  0  0
 25 24  1  1  0  0  0
 26 27  1  0  0  0  0
 27 25  1  0  0  0  0
 28 27  2  0  0  0  0
 29 22  1  0  0  0  0
 30 29  1  0  0  0  0
 31 30  2  0  0  0  0
 32 30  1  0  0  0  0
 32 33  1  0  0  0  0
 35 34  1  0  0  0  0
 36 47  1  6  0  0  0
 37 36  1  0  0  0  0
 38 43  1  0  0  0  0
 39 42  1  0  0  0  0
 39 41  1  0  0  0  0
 40 43  2  0  0  0  0
 41 40  1  0  0  0  0
 42 38  2  0  0  0  0
 43 37  1  0  0  0  0
 44 45  1  6  0  0  0
 44 39  1  0  0  0  0
 46 44  1  0  0  0  0
 47 49  1  0  0  0  0
 49 50  1  0  0  0  0
 49 48  2  0  0  0  0
 50 51  1  0  0  0  0
 51 52  1  6  0  0  0
 53 51  1  0  0  0  0
 55 53  1  0  0  0  0
 55 54  2  0  0  0  0
M  END
>  <MODEL>
7

>  <REMARK>
 VINA RESULT:      -0.2      2.504      6.008
  Name = 
  25 active torsions:
  status: ('A' for Active; 'I' for Inactive)
    1  A    between atoms: C_1  and  C_30
    2  A    between atoms: C_1  and  C_53
    3  A    between atoms: O_6  and  C_14
    4  A    between atoms: O_6  and  C_53
    5  A    between atoms: C_7  and  C_8
    6  A    between atoms: C_7  and  C_23
    7  A    between atoms: C_7  and  O_43
    8  A    between atoms: C_8  and  C_20
    9  A    between atoms: C_10  and  N_32
   10  A    between atoms: C_11  and  C_29
   11  A    between atoms: C_11  and  C_38
   12  A    between atoms: C_12  and  C_14
   13  A    between atoms: C_17  and  C_23
   14  A    between atoms: C_19  and  O_40
   15  A    between atoms: C_20  and  C_30
   16  A    between atoms: C_27  and  O_31
   17  A    between atoms: C_27  and  C_55
   18  A    between atoms: C_28  and  C_44
   19  A    between atoms: C_28  and  C_49
   20  A    between atoms: O_31  and  C_44
   21  A    between atoms: N_33  and  C_49
   22  A    between atoms: N_33  and  C_52
   23  A    between atoms: C_38  and  C_53
   24  A    between atoms: C_41  and  C_55
   25  A    between atoms: C_45  and  C_49
                            x       y       z     vdW  Elec       q    Type
                         _______ _______ _______ _____ _____    ______ ____

>  <TORSDO>
F 25

$$$$
=
 OpenBabel11062409003D

 55 57  0  0  1  0  0  0  0  0999 V2000
  163.0520  207.8790  149.8060 O   0  0  0  0  0  0  0  0  0  0  0  0
  161.4940  205.4900  153.6530 O   0  0  0  0  0  1  0  0  0  0  0  0
  161.9280  205.7800  152.2350 P   0  0  2  0  0  0  0  0  0  0  0  0
  161.9030  207.5770  151.9170 C   0  0  1  0  0  3  0  0  0  0  0  0
  160.8360  206.9280  149.6010 C   0  0  2  0  0  3  0  0  0  0  0  0
  160.8720  205.0240  151.1390 O   0  0  0  0  0  0  0  0  0  0  0  0
  162.4070  209.1250  149.9390 C   0  0  2  0  0  3  0  0  0  0  0  0
  163.5010  205.2050  152.0020 O   0  0  0  0  0  0  0  0  0  0  0  0
  161.7760  207.8530  150.4130 C   0  0  2  0  0  0  0  0  0  0  0  0
  161.2750  205.4770  149.8710 C   0  0  1  0  0  3  0  0  0  0  0  0
  161.9020  209.5480  148.7060 O   0  0  0  0  0  1  0  0  0  0  0  0
  159.6820  208.8540  151.9880 C   0  0  0  0  0  1  0  0  0  0  0  0
  160.8570  208.3010  152.7870 C   0  0  2  0  0  3  0  0  0  0  0  0
  161.4200  209.3500  153.7620 C   0  0  2  0  0  3  0  0  0  0  0  0
  162.6300  210.6910  152.5900 O   0  0  0  0  0  1  0  0  0  0  0  0
  162.7430  209.6890  153.4400 O   0  0  0  0  0  0  0  0  0  0  0  0
  161.3690  208.8570  155.2020 C   0  0  0  0  0  2  0  0  0  0  0  0
  160.1170  208.0570  155.4980 C   0  0  0  0  0  2  0  0  0  0  0  0
  159.0730  208.9140  156.2080 C   0  0  0  0  0  2  0  0  0  0  0  0
  159.3030  210.4130  155.9780 C   0  0  2  0  0  3  0  0  0  0  0  0
  159.7630  211.0500  157.1330 O   0  0  0  0  0  1  0  0  0  0  0  0
  158.0990  211.1630  155.3860 C   0  0  2  0  0  3  0  0  0  0  0  0
  158.1000  211.3970  153.8660 C   0  0  0  0  0  2  0  0  0  0  0  0
  160.0320  212.5720  153.0990 O   0  0  0  0  0  1  0  0  0  0  0  0
  158.7000  212.7430  153.4610 C   0  0  1  0  0  3  0  0  0  0  0  0
  156.6480  213.9340  152.5390 N   0  0  0  0  0  1  0  0  0  0  0  0
  157.9280  213.3370  152.3200 C   0  0  0  0  0  0  0  0  0  0  0  0
  158.3870  213.2690  151.1500 O   0  0  0  0  0  0  0  0  0  0  0  0
  157.7020  212.3230  156.1220 O   0  0  0  0  0  0  0  0  0  0  0  0
  156.4640  212.4590  156.7600 C   0  0  0  0  0  0  0  0  0  0  0  0
  155.9020  211.4510  157.2610 O   0  0  0  0  0  0  0  0  0  0  0  0
  155.7580  213.7700  156.7410 C   0  0  0  0  0  2  0  0  0  0  0  0
  155.3330  214.0730  155.3850 N   0  0  0  0  0  1  0  0  0  0  0  0
  159.7290  206.7290  147.7730 O   0  0  0  0  0  1  0  0  0  0  0  0
  160.8640  207.2090  148.2300 O   0  0  0  0  0  0  0  0  0  0  0  0
  160.9450  204.4950  148.7380 C   0  0  2  0  0  3  0  0  0  0  0  0
  160.4830  203.2080  149.2450 N   0  0  0  0  0  2  0  0  0  0  0  0
  161.2060  200.8570  148.7950 C   0  0  0  0  0  3  0  0  0  0  0  0
  161.0600  200.0860  146.5290 N   0  0  0  0  0  0  0  0  0  0  0  0
  159.8960  202.1400  147.1780 C   0  0  0  0  0  3  0  0  0  0  0  0
  159.9080  200.9540  146.2490 C   0  0  0  0  0  2  0  0  0  0  0  0
  161.5070  199.9270  147.8830 C   0  0  0  0  0  3  0  0  0  0  0  0
  160.4480  202.0630  148.3970 C   0  0  0  0  0  0  0  0  0  0  0  0
  161.5820  199.1790  145.5130 C   0  0  2  0  0  3  0  0  0  0  0  0
  160.4620  198.3520  144.9000 C   0  0  0  0  0  1  0  0  0  0  0  0
  162.5810  198.3000  146.1010 N   0  0  0  0  0  1  0  0  0  0  0  0
  162.1450  204.2780  147.8130 C   0  0  0  0  0  2  0  0  0  0  0  0
  163.4490  206.1840  147.1940 O   0  0  0  0  0  0  0  0  0  0  0  0
  162.4340  205.4700  146.9590 C   0  0  0  0  0  0  0  0  0  0  0  0
  161.5880  205.7460  145.8820 O   0  0  0  0  0  0  0  0  0  0  0  0
  161.7000  205.0960  144.6200 C   0  0  1  0  0  3  0  0  0  0  0  0
  160.3350  204.5860  144.2040 C   0  0  0  0  0  1  0  0  0  0  0  0
  162.2430  206.0590  143.5640 C   0  0  0  0  0  2  0  0  0  0  0  0
  161.9530  206.5210  141.1650 C   0  0  0  0  0  2  0  0  0  0  0  0
  161.5850  205.8270  142.2390 C   0  0  0  0  0  3  0  0  0  0  0  0
  1  7  1  0  0  0  0
  3  8  2  6  0  0  0
  3  2  1  0  0  0  0
  4  3  1  0  0  0  0
  4 13  1  1  0  0  0
  5 35  1  6  0  0  0
  5 10  1  0  0  0  0
  5  9  1  0  0  0  0
  6  3  1  0  0  0  0
  7 11  1  6  0  0  0
  7  9  1  0  0  0  0
  9  1  1  6  0  0  0
  9  4  1  0  0  0  0
 10 36  1  6  0  0  0
 10  6  1  0  0  0  0
 13 12  1  6  0  0  0
 13 14  1  0  0  0  0
 14 17  1  1  0  0  0
 15 16  1  0  0  0  0
 16 14  1  0  0  0  0
 17 18  1  0  0  0  0
 18 19  1  0  0  0  0
 20 19  1  0  0  0  0
 20 21  1  1  0  0  0
 22 23  1  6  0  0  0
 22 20  1  0  0  0  0
 22 29  1  0  0  0  0
 25 24  1  6  0  0  0
 25 23  1  0  0  0  0
 27 26  1  0  0  0  0
 27 25  1  0  0  0  0
 28 27  2  0  0  0  0
 29 30  1  0  0  0  0
 30 31  2  0  0  0  0
 32 30  1  0  0  0  0
 33 32  1  0  0  0  0
 34 35  1  0  0  0  0
 36 47  1  1  0  0  0
 36 37  1  0  0  0  0
 39 42  1  0  0  0  0
 40 43  2  0  0  0  0
 41 39  1  0  0  0  0
 41 40  1  0  0  0  0
 42 38  2  0  0  0  0
 43 38  1  0  0  0  0
 43 37  1  0  0  0  0
 44 45  1  1  0  0  0
 44 46  1  0  0  0  0
 44 39  1  0  0  0  0
 49 48  2  0  0  0  0
 49 47  1  0  0  0  0
 50 49  1  0  0  0  0
 51 52  1  6  0  0  0
 51 50  1  0  0  0  0
 53 51  1  0  0  0  0
 54 55  2  0  0  0  0
 55 53  1  0  0  0  0
M  END
>  <MODEL>
8

>  <REMARK>
 VINA RESULT:      -0.2      3.103     10.236
  Name = 
  25 active torsions:
  status: ('A' for Active; 'I' for Inactive)
    1  A    between atoms: C_1  and  C_30
    2  A    between atoms: C_1  and  C_53
    3  A    between atoms: O_6  and  C_14
    4  A    between atoms: O_6  and  C_53
    5  A    between atoms: C_7  and  C_8
    6  A    between atoms: C_7  and  C_23
    7  A    between atoms: C_7  and  O_43
    8  A    between atoms: C_8  and  C_20
    9  A    between atoms: C_10  and  N_32
   10  A    between atoms: C_11  and  C_29
   11  A    between atoms: C_11  and  C_38
   12  A    between atoms: C_12  and  C_14
   13  A    between atoms: C_17  and  C_23
   14  A    between atoms: C_19  and  O_40
   15  A    between atoms: C_20  and  C_30
   16  A    between atoms: C_27  and  O_31
   17  A    between atoms: C_27  and  C_55
   18  A    between atoms: C_28  and  C_44
   19  A    between atoms: C_28  and  C_49
   20  A    between atoms: O_31  and  C_44
   21  A    between atoms: N_33  and  C_49
   22  A    between atoms: N_33  and  C_52
   23  A    between atoms: C_38  and  C_53
   24  A    between atoms: C_41  and  C_55
   25  A    between atoms: C_45  and  C_49
                            x       y       z     vdW  Elec       q    Type
                         _______ _______ _______ _____ _____    ______ ____

>  <TORSDO>
F 25

$$$$
