=
 OpenBabel11062408103D

 34 38  0  0  1  0  0  0  0  0999 V2000
  161.3530  204.1290  151.2070 C   0  0  0  0  0  0  0  0  0  0  0  0
  160.8070  205.0360  149.0230 C   0  0  0  0  0  0  0  0  0  0  0  0
  161.2220  206.5580  150.9990 C   0  0  0  0  0  0  0  0  0  0  0  0
  161.4170  208.9970  150.9590 C   0  0  0  0  0  0  0  0  0  0  0  0
  161.4590  202.8520  150.6520 C   0  0  0  0  0  3  0  0  0  0  0  0
  160.9090  203.7480  148.4860 C   0  0  0  0  0  3  0  0  0  0  0  0
  162.2810  207.7110  148.9890 C   0  0  0  0  0  2  0  0  0  0  0  0
  161.1530  205.2670  150.3860 C   0  0  0  0  0  0  0  0  0  0  0  0
  162.1210  208.9860  148.1710 C   0  0  0  0  0  2  0  0  0  0  0  0
  161.5670  210.3010  150.2280 C   0  0  0  0  0  2  0  0  0  0  0  0
  161.2730  202.6680  149.2860 C   0  0  0  0  0  3  0  0  0  0  0  0
  161.1160  206.6260  152.4190 C   0  0  0  0  0  0  0  0  0  0  0  0
  161.3790  204.2660  152.5880 C   0  0  0  0  0  3  0  0  0  0  0  0
  159.9180  206.1930  148.0350 Cl  0  0  0  0  0  0  0  0  0  0  0  0
  161.1200  209.0430  152.3150 C   0  0  0  0  0  3  0  0  0  0  0  0
  160.9920  207.8740  153.0710 C   0  0  0  0  0  0  0  0  0  0  0  0
  162.5090  210.1830  149.0300 C   0  0  2  0  0  3  0  0  0  0  0  0
  161.5170  207.7570  150.2920 C   0  0  0  0  0  0  0  0  0  0  0  0
  161.2200  205.4860  153.1540 N   0  0  0  0  0  0  0  0  0  0  0  0
  160.7560  209.3430  156.5590 C   0  0  0  0  0  0  0  0  0  0  0  0
  160.2220  208.2630  157.2610 C   0  0  0  0  0  3  0  0  0  0  0  0
  160.7430  208.0040  154.5320 C   0  0  0  0  0  0  0  0  0  0  0  0
  159.9540  207.0980  156.6120 N   0  0  0  0  0  0  0  0  0  0  0  0
  161.0110  209.2130  155.1950 C   0  0  0  0  0  3  0  0  0  0  0  0
  160.1970  206.9510  155.2820 C   0  0  0  0  0  3  0  0  0  0  0  0
  161.0480  210.6220  157.2580 C   0  0  0  0  0  1  0  0  0  0  0  0
  162.5130  211.4130  148.2450 N   0  0  0  0  0  0  0  0  0  0  0  0
  160.6270  214.4140  147.7060 O   0  0  0  0  0  1  0  0  0  0  0  0
  161.5620  212.2920  148.3160 C   0  0  0  0  0  3  0  0  0  0  0  0
  161.5950  213.4860  147.5290 N   0  0  0  0  0  0  0  0  0  0  0  0
  162.6850  213.7660  146.6020 C   0  0  0  0  0  2  0  0  0  0  0  0
  161.4170  214.2070  144.6190 F   0  0  0  0  0  0  0  0  0  0  0  0
  162.3280  213.3340  145.1840 C   0  0  1  0  0  3  0  0  0  0  0  0
  163.4770  213.2730  144.3940 O   0  0  0  0  0  1  0  0  0  0  0  0
  1 13  1  0  0  0  0
  2  8  1  0  0  0  0
  3 12  1  0  0  0  0
  4 15  2  0  0  0  0
  5  1  1  0  0  0  0
  6  2  2  0  0  0  0
  6 11  1  0  0  0  0
  7 18  1  0  0  0  0
  8  3  1  0  0  0  0
  8  1  2  0  0  0  0
  9  7  1  0  0  0  0
  9 17  1  0  0  0  0
 10  4  1  0  0  0  0
 11  5  2  0  0  0  0
 12 16  2  0  0  0  0
 12 19  1  0  0  0  0
 13 19  2  0  0  0  0
 14  2  1  0  0  0  0
 15 16  1  0  0  0  0
 16 22  1  0  0  0  0
 17 27  1  6  0  0  0
 17 10  1  0  0  0  0
 18  4  1  0  0  0  0
 18  3  2  0  0  0  0
 20 26  1  0  0  0  0
 20 21  1  0  0  0  0
 22 24  1  0  0  0  0
 22 25  2  0  0  0  0
 23 21  2  0  0  0  0
 24 20  2  0  0  0  0
 25 23  1  0  0  0  0
 27 29  2  0  0  0  0
 30 28  1  0  0  0  0
 30 29  1  0  0  0  0
 31 30  1  0  0  0  0
 32 33  1  0  0  0  0
 33 34  1  6  0  0  0
 33 31  1  0  0  0  0
M  END
>  <MODEL>
1

>  <REMARK>
 VINA RESULT:      -9.3      0.000      0.000
  Name = 
  4 active torsions:
  status: ('A' for Active; 'I' for Inactive)
    1  A    between atoms: N_3  and  C_29
    2  A    between atoms: C_12  and  C_28
    3  A    between atoms: C_20  and  C_22
    4  A    between atoms: C_22  and  N_33
                            x       y       z     vdW  Elec       q    Type
                         _______ _______ _______ _____ _____    ______ ____

>  <TORSDO>
F 4

$$$$
=
 OpenBabel11062408103D

 34 38  0  0  1  0  0  0  0  0999 V2000
  160.7540  207.9430  154.9330 C   0  0  0  0  0  0  0  0  0  0  0  0
  162.0270  209.9360  154.3840 C   0  0  0  0  0  0  0  0  0  0  0  0
  161.4090  208.2530  152.6010 C   0  0  0  0  0  0  0  0  0  0  0  0
  161.7140  208.4950  150.1850 C   0  0  0  0  0  0  0  0  0  0  0  0
  160.5510  208.4270  156.2270 C   0  0  0  0  0  3  0  0  0  0  0  0
  161.8200  210.4010  155.6880 C   0  0  0  0  0  3  0  0  0  0  0  0
  161.1680  210.5460  151.5170 C   0  0  0  0  0  2  0  0  0  0  0  0
  161.3840  208.7420  153.9450 C   0  0  0  0  0  0  0  0  0  0  0  0
  161.7860  211.3620  150.3880 C   0  0  0  0  0  2  0  0  0  0  0  0
  162.0220  209.3160  148.9650 C   0  0  0  0  0  2  0  0  0  0  0  0
  161.0520  209.6720  156.5930 C   0  0  0  0  0  3  0  0  0  0  0  0
  161.1470  206.8680  152.3930 C   0  0  0  0  0  0  0  0  0  0  0  0
  160.3910  206.6360  154.6390 C   0  0  0  0  0  3  0  0  0  0  0  0
  163.3540  210.7030  153.5160 Cl  0  0  0  0  0  0  0  0  0  0  0  0
  161.6440  207.1150  150.0390 C   0  0  0  0  0  3  0  0  0  0  0  0
  161.3360  206.2840  151.1200 C   0  0  0  0  0  0  0  0  0  0  0  0
  161.4270  210.7210  149.0540 C   0  0  2  0  0  3  0  0  0  0  0  0
  161.5530  209.0860  151.4560 C   0  0  0  0  0  0  0  0  0  0  0  0
  160.6300  206.1240  153.4090 N   0  0  0  0  0  0  0  0  0  0  0  0
  160.9850  202.9610  149.3250 C   0  0  0  0  0  0  0  0  0  0  0  0
  161.0290  202.0780  150.4030 C   0  0  0  0  0  3  0  0  0  0  0  0
  161.2090  204.8220  150.8700 C   0  0  0  0  0  0  0  0  0  0  0  0
  161.1640  202.5570  151.6680 N   0  0  0  0  0  0  0  0  0  0  0  0
  161.0800  204.3320  149.5610 C   0  0  0  0  0  3  0  0  0  0  0  0
  161.2580  203.8910  151.9190 C   0  0  0  0  0  3  0  0  0  0  0  0
  160.8430  202.4470  147.9370 C   0  0  0  0  0  1  0  0  0  0  0  0
  161.8720  211.5480  147.9380 N   0  0  0  0  0  0  0  0  0  0  0  0
  160.8390  214.3010  145.8870 O   0  0  0  0  0  1  0  0  0  0  0  0
  161.1380  212.4860  147.4250 C   0  0  0  0  0  3  0  0  0  0  0  0
  161.6040  213.2750  146.3270 N   0  0  0  0  0  0  0  0  0  0  0  0
  162.9140  213.0570  145.7230 C   0  0  0  0  0  2  0  0  0  0  0  0
  164.2170  213.8590  143.8810 F   0  0  0  0  0  0  0  0  0  0  0  0
  162.9350  213.5180  144.2700 C   0  0  1  0  0  3  0  0  0  0  0  0
  162.4390  212.5140  143.4370 O   0  0  0  0  0  1  0  0  0  0  0  0
  1  5  2  0  0  0  0
  2  6  1  0  0  0  0
  3  8  1  0  0  0  0
  4 18  1  0  0  0  0
  5 11  1  0  0  0  0
  6 11  2  0  0  0  0
  8  2  2  0  0  0  0
  8  1  1  0  0  0  0
  9  7  1  0  0  0  0
 10 17  1  0  0  0  0
 10  4  1  0  0  0  0
 12  3  1  0  0  0  0
 12 19  1  0  0  0  0
 13  1  1  0  0  0  0
 14  2  1  0  0  0  0
 15  4  2  0  0  0  0
 15 16  1  0  0  0  0
 16 12  2  0  0  0  0
 17 27  1  6  0  0  0
 17  9  1  0  0  0  0
 18  7  1  0  0  0  0
 18  3  2  0  0  0  0
 19 13  2  0  0  0  0
 20 24  2  0  0  0  0
 20 21  1  0  0  0  0
 21 23  2  0  0  0  0
 22 16  1  0  0  0  0
 22 25  2  0  0  0  0
 23 25  1  0  0  0  0
 24 22  1  0  0  0  0
 26 20  1  0  0  0  0
 28 30  1  0  0  0  0
 29 27  2  0  0  0  0
 30 29  1  0  0  0  0
 31 30  1  0  0  0  0
 32 33  1  0  0  0  0
 33 34  1  6  0  0  0
 33 31  1  0  0  0  0
M  END
>  <MODEL>
2

>  <REMARK>
 VINA RESULT:      -8.0      1.824      5.424
  Name = 
  4 active torsions:
  status: ('A' for Active; 'I' for Inactive)
    1  A    between atoms: N_3  and  C_29
    2  A    between atoms: C_12  and  C_28
    3  A    between atoms: C_20  and  C_22
    4  A    between atoms: C_22  and  N_33
                            x       y       z     vdW  Elec       q    Type
                         _______ _______ _______ _____ _____    ______ ____

>  <TORSDO>
F 4

$$$$
=
 OpenBabel11062408103D

 34 38  0  0  1  0  0  0  0  0999 V2000
  161.1280  211.3660  150.5740 C   0  0  0  0  0  0  0  0  0  0  0  0
  162.2720  210.2270  148.7610 C   0  0  0  0  0  0  0  0  0  0  0  0
  161.3820  208.9440  150.7490 C   0  0  0  0  0  0  0  0  0  0  0  0
  161.2780  206.5120  151.0000 C   0  0  0  0  0  0  0  0  0  0  0  0
  161.1380  212.5520  149.8380 C   0  0  0  0  0  3  0  0  0  0  0  0
  162.2820  211.4270  148.0420 C   0  0  0  0  0  3  0  0  0  0  0  0
  160.9420  207.4780  148.7120 C   0  0  0  0  0  2  0  0  0  0  0  0
  161.5770  210.1480  150.0020 C   0  0  0  0  0  0  0  0  0  0  0  0
  161.3550  206.1230  148.1530 C   0  0  0  0  0  2  0  0  0  0  0  0
  161.3700  205.1190  150.4460 C   0  0  0  0  0  2  0  0  0  0  0  0
  161.6820  212.5740  148.5570 C   0  0  0  0  0  3  0  0  0  0  0  0
  161.1020  209.0640  152.1410 C   0  0  0  0  0  0  0  0  0  0  0  0
  160.7330  211.4040  151.9040 C   0  0  0  0  0  3  0  0  0  0  0  0
  163.4290  209.0160  148.2140 Cl  0  0  0  0  0  0  0  0  0  0  0  0
  161.1980  206.6580  152.3790 C   0  0  0  0  0  3  0  0  0  0  0  0
  161.0820  207.9190  152.9710 C   0  0  0  0  0  0  0  0  0  0  0  0
  160.7850  205.0220  149.0370 C   0  0  2  0  0  3  0  0  0  0  0  0
  161.3260  207.6480  150.1650 C   0  0  0  0  0  0  0  0  0  0  0  0
  160.7690  210.2780  152.6560 N   0  0  0  0  0  0  0  0  0  0  0  0
  161.1050  209.2420  156.5260 C   0  0  0  0  0  0  0  0  0  0  0  0
  160.5870  208.1450  157.2140 C   0  0  0  0  0  3  0  0  0  0  0  0
  160.9290  207.9920  154.4500 C   0  0  0  0  0  0  0  0  0  0  0  0
  160.2490  207.0160  156.5370 N   0  0  0  0  0  0  0  0  0  0  0  0
  161.2700  209.1640  155.1430 C   0  0  0  0  0  3  0  0  0  0  0  0
  160.4030  206.9210  155.1890 C   0  0  0  0  0  3  0  0  0  0  0  0
  161.4730  210.4830  157.2570 C   0  0  0  0  0  1  0  0  0  0  0  0
  161.0300  203.7040  148.4590 N   0  0  0  0  0  0  0  0  0  0  0  0
  160.7660  200.2090  149.2090 O   0  0  0  0  0  1  0  0  0  0  0  0
  160.8260  202.6040  149.1140 C   0  0  0  0  0  3  0  0  0  0  0  0
  161.0810  201.3290  148.5180 N   0  0  0  0  0  0  0  0  0  0  0  0
  161.5950  201.2030  147.1600 C   0  0  0  0  0  2  0  0  0  0  0  0
  160.6490  202.5270  145.4030 F   0  0  0  0  0  0  0  0  0  0  0  0
  160.4810  201.3640  146.1310 C   0  0  1  0  0  3  0  0  0  0  0  0
  160.4560  200.2660  145.2700 O   0  0  0  0  0  1  0  0  0  0  0  0
  1 13  1  0  0  0  0
  2  8  1  0  0  0  0
  3 12  1  0  0  0  0
  4 15  2  0  0  0  0
  5  1  1  0  0  0  0
  6 11  1  0  0  0  0
  6  2  2  0  0  0  0
  7 18  1  0  0  0  0
  8  1  2  0  0  0  0
  8  3  1  0  0  0  0
  9  7  1  0  0  0  0
  9 17  1  0  0  0  0
 10  4  1  0  0  0  0
 11  5  2  0  0  0  0
 12 19  1  0  0  0  0
 12 16  2  0  0  0  0
 13 19  2  0  0  0  0
 14  2  1  0  0  0  0
 15 16  1  0  0  0  0
 16 22  1  0  0  0  0
 17 27  1  6  0  0  0
 17 10  1  0  0  0  0
 18  3  2  0  0  0  0
 18  4  1  0  0  0  0
 20 21  1  0  0  0  0
 20 26  1  0  0  0  0
 22 24  1  0  0  0  0
 22 25  2  0  0  0  0
 23 21  2  0  0  0  0
 24 20  2  0  0  0  0
 25 23  1  0  0  0  0
 27 29  2  0  0  0  0
 30 29  1  0  0  0  0
 30 28  1  0  0  0  0
 31 30  1  0  0  0  0
 32 33  1  0  0  0  0
 33 34  1  6  0  0  0
 33 31  1  0  0  0  0
M  END
>  <MODEL>
3

>  <REMARK>
 VINA RESULT:      -6.4      4.405      7.033
  Name = 
  4 active torsions:
  status: ('A' for Active; 'I' for Inactive)
    1  A    between atoms: N_3  and  C_29
    2  A    between atoms: C_12  and  C_28
    3  A    between atoms: C_20  and  C_22
    4  A    between atoms: C_22  and  N_33
                            x       y       z     vdW  Elec       q    Type
                         _______ _______ _______ _____ _____    ______ ____

>  <TORSDO>
F 4

$$$$
