=
 OpenBabel11052423023D

 28 31  0  0  1  0  0  0  0  0999 V2000
  161.5750  207.8040  152.0790 C   0  0  2  0  0  3  0  0  0  0  0  0
  158.7990  213.2820  153.3810 C   0  0  1  0  0  3  0  0  0  0  0  0
  162.7950  210.8660  154.9750 O   0  0  0  0  0  1  0  0  0  0  0  0
  157.5620  211.3730  154.3290 C   0  0  2  0  0  3  0  0  0  0  0  0
  160.0440  211.0420  153.5680 C   0  0  2  0  0  3  0  0  0  0  0  0
  157.4840  213.7370  153.7950 N   0  0  0  0  0  2  0  0  0  0  0  0
  158.7030  211.7560  153.3660 C   0  0  2  0  0  3  0  0  0  0  0  0
  159.2390  210.2040  155.8120 C   0  0  0  0  0  2  0  0  0  0  0  0
  156.7810  212.6300  154.3270 C   0  0  0  0  0  0  0  0  0  0  0  0
  161.7750  208.7770  154.3820 C   0  0  1  0  0  3  0  0  0  0  0  0
  160.0450  209.7210  152.8060 C   0  0  0  0  0  2  0  0  0  0  0  0
  158.0470  211.1420  155.7630 C   0  0  0  0  0  2  0  0  0  0  0  0
  160.6030  206.5450  153.9970 C   0  0  0  0  0  3  0  0  0  0  0  0
  161.6990  210.0450  155.2470 C   0  0  2  0  0  3  0  0  0  0  0  0
  160.8920  207.6640  154.9670 C   0  0  0  0  0  2  0  0  0  0  0  0
  155.6050  212.7240  154.7660 O   0  0  0  0  0  0  0  0  0  0  0  0
  159.1110  213.8020  151.9920 C   0  0  0  0  0  1  0  0  0  0  0  0
  160.3960  210.8410  155.0540 C   0  0  1  0  0  3  0  0  0  0  0  0
  160.8650  206.6250  152.6850 C   0  0  0  0  0  3  0  0  0  0  0  0
  161.4300  209.0810  152.9160 C   0  0  2  0  0  3  0  0  0  0  0  0
  161.1830  207.9850  150.6080 C   0  0  0  0  0  2  0  0  0  0  0  0
  161.7930  206.9980  149.6990 N   0  0  0  0  0  0  0  0  0  0  0  0
  162.5570  207.6860  148.6460 C   0  0  0  0  0  2  0  0  0  0  0  0
  162.2940  209.0600  148.6330 O   0  0  0  0  0  1  0  0  0  0  0  0
  161.1050  204.6230  149.6710 C   0  0  0  0  0  1  0  0  0  0  0  0
  160.8120  206.0310  149.1670 C   0  0  2  0  0  3  0  0  0  0  0  0
  160.8030  206.0090  147.6360 C   0  0  0  0  0  2  0  0  0  0  0  0
  161.2550  204.7780  147.1550 O   0  0  0  0  0  1  0  0  0  0  0  0
  1 21  1  6  0  0  0
  1 19  1  0  0  0  0
  1 20  1  0  0  0  0
  2 17  1  6  0  0  0
  2  6  1  0  0  0  0
  3 14  1  0  0  0  0
  4 12  1  1  0  0  0
  5 11  1  6  0  0  0
  5 18  1  0  0  0  0
  6  9  1  0  0  0  0
  7  2  1  0  0  0  0
  7  5  1  0  0  0  0
  7  4  1  0  0  0  0
  9  4  1  0  0  0  0
  9 16  2  0  0  0  0
 10 15  1  0  0  0  0
 10 14  1  0  0  0  0
 11 20  1  0  0  0  0
 12  8  1  0  0  0  0
 13 15  1  0  0  0  0
 18 14  1  0  0  0  0
 18  8  1  0  0  0  0
 19 13  2  0  0  0  0
 20 10  1  0  0  0  0
 22 21  1  0  0  0  0
 23 22  1  0  0  0  0
 24 23  1  0  0  0  0
 26 25  1  0  0  0  0
 26 22  1  0  0  0  0
 27 26  1  0  0  0  0
 28 27  1  0  0  0  0
M  END
>  <MODEL>
1

>  <REMARK>
 VINA RESULT:      -7.0      0.000      0.000
  Name = 
  5 active torsions:
  status: ('A' for Active; 'I' for Inactive)
    1  A    between atoms: C_1  and  C_2
    2  A    between atoms: C_2  and  N_3
    3  A    between atoms: N_3  and  C_7
    4  A    between atoms: N_3  and  C_11
    5  A    between atoms: C_6  and  C_11
                            x       y       z     vdW  Elec       q    Type
                         _______ _______ _______ _____ _____    ______ ____

>  <TORSDO>
F 5

$$$$
=
 OpenBabel11052423023D

 28 31  0  0  1  0  0  0  0  0999 V2000
  161.1670  207.3300  154.0090 C   0  0  2  0  0  3  0  0  0  0  0  0
  159.3530  213.2090  152.7600 C   0  0  1  0  0  3  0  0  0  0  0  0
  162.8040  211.0870  155.5760 O   0  0  0  0  0  1  0  0  0  0  0  0
  157.7670  212.0520  154.2500 C   0  0  2  0  0  3  0  0  0  0  0  0
  160.1780  211.0800  153.9390 C   0  0  2  0  0  3  0  0  0  0  0  0
  158.1250  213.9800  152.8240 N   0  0  0  0  0  2  0  0  0  0  0  0
  158.9910  211.8400  153.3360 C   0  0  2  0  0  3  0  0  0  0  0  0
  159.1610  211.3510  156.2360 C   0  0  0  0  0  2  0  0  0  0  0  0
  157.2200  213.2990  153.6740 C   0  0  0  0  0  0  0  0  0  0  0  0
  161.4550  209.1110  155.7510 C   0  0  1  0  0  3  0  0  0  0  0  0
  159.9740  209.5790  153.7630 C   0  0  0  0  0  2  0  0  0  0  0  0
  158.1540  212.3520  155.7010 C   0  0  0  0  0  2  0  0  0  0  0  0
  159.9230  207.1130  156.1570 C   0  0  0  0  0  3  0  0  0  0  0  0
  161.5720  210.6170  156.0350 C   0  0  2  0  0  3  0  0  0  0  0  0
  160.3700  208.4740  156.6330 C   0  0  0  0  0  2  0  0  0  0  0  0
  156.0640  213.7350  153.9180 O   0  0  0  0  0  0  0  0  0  0  0  0
  159.7990  213.0690  151.3180 C   0  0  0  0  0  1  0  0  0  0  0  0
  160.4380  211.4490  155.4120 C   0  0  1  0  0  3  0  0  0  0  0  0
  160.2410  206.6160  154.9540 C   0  0  0  0  0  3  0  0  0  0  0  0
  161.2200  208.8430  154.2570 C   0  0  2  0  0  3  0  0  0  0  0  0
  160.8640  206.9550  152.5540 C   0  0  0  0  0  2  0  0  0  0  0  0
  162.0130  206.3800  151.8300 N   0  0  0  0  0  0  0  0  0  0  0  0
  162.5150  207.3420  150.8360 C   0  0  0  0  0  2  0  0  0  0  0  0
  161.6970  208.4740  150.7540 O   0  0  0  0  0  1  0  0  0  0  0  0
  160.7880  205.1690  150.0570 C   0  0  0  0  0  1  0  0  0  0  0  0
  161.7190  205.0520  151.2580 C   0  0  2  0  0  3  0  0  0  0  0  0
  161.0770  204.1150  152.2840 C   0  0  0  0  0  2  0  0  0  0  0  0
  161.1140  202.7910  151.8390 O   0  0  0  0  0  1  0  0  0  0  0  0
  1 21  1  6  0  0  0
  1 20  1  0  0  0  0
  1 19  1  0  0  0  0
  2 17  1  6  0  0  0
  2  6  1  0  0  0  0
  2  7  1  0  0  0  0
  3 14  1  0  0  0  0
  4 12  1  1  0  0  0
  5 11  1  1  0  0  0
  5 18  1  0  0  0  0
  6  9  1  0  0  0  0
  7  5  1  0  0  0  0
  7  4  1  0  0  0  0
  9 16  2  0  0  0  0
  9  4  1  0  0  0  0
 10 14  1  0  0  0  0
 10 15  1  0  0  0  0
 11 20  1  0  0  0  0
 12  8  1  0  0  0  0
 13 15  1  0  0  0  0
 18 14  1  0  0  0  0
 18  8  1  0  0  0  0
 19 13  2  0  0  0  0
 20 10  1  0  0  0  0
 22 21  1  0  0  0  0
 23 22  1  0  0  0  0
 24 23  1  0  0  0  0
 25 26  1  0  0  0  0
 26 22  1  0  0  0  0
 26 27  1  0  0  0  0
 28 27  1  0  0  0  0
M  END
>  <MODEL>
2

>  <REMARK>
 VINA RESULT:      -6.8      1.599      2.016
  Name = 
  5 active torsions:
  status: ('A' for Active; 'I' for Inactive)
    1  A    between atoms: C_1  and  C_2
    2  A    between atoms: C_2  and  N_3
    3  A    between atoms: N_3  and  C_7
    4  A    between atoms: N_3  and  C_11
    5  A    between atoms: C_6  and  C_11
                            x       y       z     vdW  Elec       q    Type
                         _______ _______ _______ _____ _____    ______ ____

>  <TORSDO>
F 5

$$$$
=
 OpenBabel11052423023D

 28 31  0  0  1  0  0  0  0  0999 V2000
  161.1830  207.8780  153.6450 C   0  0  2  0  0  3  0  0  0  0  0  0
  158.8030  213.6270  154.4800 C   0  0  1  0  0  3  0  0  0  0  0  0
  162.7900  211.1780  156.0470 O   0  0  0  0  0  1  0  0  0  0  0  0
  157.5530  211.9200  155.7440 C   0  0  2  0  0  3  0  0  0  0  0  0
  159.9450  211.3540  154.8420 C   0  0  2  0  0  3  0  0  0  0  0  0
  157.5520  214.2050  154.9340 N   0  0  0  0  0  2  0  0  0  0  0  0
  158.6290  212.1180  154.6570 C   0  0  2  0  0  3  0  0  0  0  0  0
  159.2860  210.8330  157.2260 C   0  0  0  0  0  2  0  0  0  0  0  0
  156.8390  213.2110  155.6490 C   0  0  0  0  0  0  0  0  0  0  0  0
  161.6210  209.0990  155.7910 C   0  0  1  0  0  3  0  0  0  0  0  0
  159.8170  209.9550  154.2480 C   0  0  0  0  0  2  0  0  0  0  0  0
  158.1430  211.8280  157.1550 C   0  0  0  0  0  2  0  0  0  0  0  0
  160.3100  206.9120  155.7690 C   0  0  0  0  0  3  0  0  0  0  0  0
  161.6800  210.4620  156.4990 C   0  0  2  0  0  3  0  0  0  0  0  0
  160.7340  208.1170  156.5720 C   0  0  0  0  0  2  0  0  0  0  0  0
  155.7100  213.4270  156.1610 O   0  0  0  0  0  0  0  0  0  0  0  0
  159.0250  213.9610  153.0180 C   0  0  0  0  0  1  0  0  0  0  0  0
  160.4080  211.3070  156.3110 C   0  0  1  0  0  3  0  0  0  0  0  0
  160.4660  206.8220  154.4410 C   0  0  0  0  0  3  0  0  0  0  0  0
  161.1710  209.2510  154.3300 C   0  0  2  0  0  3  0  0  0  0  0  0
  160.6800  207.9080  152.1970 C   0  0  0  0  0  2  0  0  0  0  0  0
  161.5450  207.1880  151.2460 N   0  0  0  0  0  0  0  0  0  0  0  0
  162.4710  206.3060  151.9750 C   0  0  0  0  0  2  0  0  0  0  0  0
  162.1260  204.9580  151.8240 O   0  0  0  0  0  1  0  0  0  0  0  0
  162.0510  209.5480  150.7090 C   0  0  0  0  0  1  0  0  0  0  0  0
  162.2270  208.0910  150.2980 C   0  0  2  0  0  3  0  0  0  0  0  0
  161.7060  207.9200  148.8690 C   0  0  0  0  0  2  0  0  0  0  0  0
  162.6900  207.3690  148.0440 O   0  0  0  0  0  1  0  0  0  0  0  0
  1 21  1  6  0  0  0
  1 20  1  0  0  0  0
  1 19  1  0  0  0  0
  2 17  1  6  0  0  0
  2  7  1  0  0  0  0
  2  6  1  0  0  0  0
  3 14  1  0  0  0  0
  4 12  1  1  0  0  0
  5 11  1  1  0  0  0
  5 18  1  0  0  0  0
  6  9  1  0  0  0  0
  7  5  1  0  0  0  0
  7  4  1  0  0  0  0
  9  4  1  0  0  0  0
  9 16  2  0  0  0  0
 10 14  1  0  0  0  0
 10 15  1  0  0  0  0
 11 20  1  0  0  0  0
 12  8  1  0  0  0  0
 13 15  1  0  0  0  0
 18 14  1  0  0  0  0
 18  8  1  0  0  0  0
 19 13  2  0  0  0  0
 20 10  1  0  0  0  0
 22 23  1  0  0  0  0
 22 21  1  0  0  0  0
 24 23  1  0  0  0  0
 26 25  1  0  0  0  0
 26 22  1  0  0  0  0
 27 26  1  0  0  0  0
 28 27  1  0  0  0  0
M  END
>  <MODEL>
3

>  <REMARK>
 VINA RESULT:      -6.0      1.561      2.212
  Name = 
  5 active torsions:
  status: ('A' for Active; 'I' for Inactive)
    1  A    between atoms: C_1  and  C_2
    2  A    between atoms: C_2  and  N_3
    3  A    between atoms: N_3  and  C_7
    4  A    between atoms: N_3  and  C_11
    5  A    between atoms: C_6  and  C_11
                            x       y       z     vdW  Elec       q    Type
                         _______ _______ _______ _____ _____    ______ ____

>  <TORSDO>
F 5

$$$$
=
 OpenBabel11052423023D

 28 31  0  0  1  0  0  0  0  0999 V2000
  161.2200  204.0670  149.2810 C   0  0  2  0  0  3  0  0  0  0  0  0
  162.0000  209.9280  151.3900 C   0  0  1  0  0  3  0  0  0  0  0  0
  164.2380  205.5850  152.0780 O   0  0  0  0  0  1  0  0  0  0  0  0
  160.0610  208.8230  152.4350 C   0  0  2  0  0  3  0  0  0  0  0  0
  161.8620  207.3680  151.2130 C   0  0  2  0  0  3  0  0  0  0  0  0
  161.1970  210.9320  152.0630 N   0  0  0  0  0  2  0  0  0  0  0  0
  161.1000  208.6950  151.3030 C   0  0  2  0  0  3  0  0  0  0  0  0
  161.0190  206.7490  153.5140 C   0  0  0  0  0  2  0  0  0  0  0  0
  160.0820  210.2860  152.6500 C   0  0  0  0  0  0  0  0  0  0  0  0
  162.1940  204.4420  151.5610 C   0  0  1  0  0  3  0  0  0  0  0  0
  161.0600  206.3670  150.3880 C   0  0  0  0  0  2  0  0  0  0  0  0
  160.5200  208.1650  153.7400 C   0  0  0  0  0  2  0  0  0  0  0  0
  159.9710  203.2280  151.2680 C   0  0  0  0  0  3  0  0  0  0  0  0
  162.9170  205.4220  152.4990 C   0  0  2  0  0  3  0  0  0  0  0  0
  160.9320  203.8770  152.2320 C   0  0  0  0  0  2  0  0  0  0  0  0
  159.2050  210.9110  153.3020 O   0  0  0  0  0  0  0  0  0  0  0  0
  162.3660  210.4090  150.0000 C   0  0  0  0  0  1  0  0  0  0  0  0
  162.2330  206.7970  152.5950 C   0  0  1  0  0  3  0  0  0  0  0  0
  160.0700  203.3530  149.9370 C   0  0  0  0  0  3  0  0  0  0  0  0
  161.8870  205.0940  150.2040 C   0  0  2  0  0  3  0  0  0  0  0  0
  160.8060  204.6390  147.9200 C   0  0  0  0  0  2  0  0  0  0  0  0
  161.8920  204.6620  146.9240 N   0  0  0  0  0  0  0  0  0  0  0  0
  162.1720  206.0480  146.5150 C   0  0  0  0  0  2  0  0  0  0  0  0
  161.2650  206.9480  147.0880 O   0  0  0  0  0  1  0  0  0  0  0  0
  160.7880  204.4470  144.7220 C   0  0  0  0  0  1  0  0  0  0  0  0
  161.6390  203.7600  145.7830 C   0  0  2  0  0  3  0  0  0  0  0  0
  160.9330  202.4730  146.2170 C   0  0  0  0  0  2  0  0  0  0  0  0
  160.3910  201.8090  145.1140 O   0  0  0  0  0  1  0  0  0  0  0  0
  1 21  1  6  0  0  0
  1 19  1  0  0  0  0
  1 20  1  0  0  0  0
  2 17  1  6  0  0  0
  2  6  1  0  0  0  0
  3 14  1  0  0  0  0
  4  9  1  0  0  0  0
  4 12  1  1  0  0  0
  5 11  1  1  0  0  0
  5  7  1  0  0  0  0
  5 18  1  0  0  0  0
  6  9  1  0  0  0  0
  7  2  1  0  0  0  0
  7  4  1  0  0  0  0
  8 12  1  0  0  0  0
  9 16  2  0  0  0  0
 10 15  1  0  0  0  0
 10 14  1  0  0  0  0
 13 15  1  0  0  0  0
 14 18  1  0  0  0  0
 18  8  1  0  0  0  0
 19 13  2  0  0  0  0
 20 11  1  0  0  0  0
 20 10  1  0  0  0  0
 22 21  1  0  0  0  0
 23 22  1  0  0  0  0
 23 24  1  0  0  0  0
 25 26  1  0  0  0  0
 26 27  1  0  0  0  0
 26 22  1  0  0  0  0
 28 27  1  0  0  0  0
M  END
>  <MODEL>
4

>  <REMARK>
 VINA RESULT:      -5.2      2.700      4.524
  Name = 
  5 active torsions:
  status: ('A' for Active; 'I' for Inactive)
    1  A    between atoms: C_1  and  C_2
    2  A    between atoms: C_2  and  N_3
    3  A    between atoms: N_3  and  C_7
    4  A    between atoms: N_3  and  C_11
    5  A    between atoms: C_6  and  C_11
                            x       y       z     vdW  Elec       q    Type
                         _______ _______ _______ _____ _____    ______ ____

>  <TORSDO>
F 5

$$$$
=
 OpenBabel11052423023D

 28 31  0  0  1  0  0  0  0  0999 V2000
  161.8750  207.2920  153.4620 C   0  0  2  0  0  3  0  0  0  0  0  0
  160.0770  213.0880  151.8520 C   0  0  1  0  0  3  0  0  0  0  0  0
  162.6660  211.0740  155.5390 O   0  0  0  0  0  1  0  0  0  0  0  0
  158.2090  211.7610  152.7600 C   0  0  2  0  0  3  0  0  0  0  0  0
  160.6680  210.9670  153.1790 C   0  0  2  0  0  3  0  0  0  0  0  0
  158.8320  213.7710  151.5560 N   0  0  0  0  0  2  0  0  0  0  0  0
  159.6640  211.6730  152.2590 C   0  0  2  0  0  3  0  0  0  0  0  0
  158.9850  211.0660  155.0610 C   0  0  0  0  0  2  0  0  0  0  0  0
  157.7670  212.9940  152.0730 C   0  0  0  0  0  0  0  0  0  0  0  0
  161.4830  209.0080  155.2490 C   0  0  1  0  0  3  0  0  0  0  0  0
  160.6430  209.4650  152.9140 C   0  0  0  0  0  2  0  0  0  0  0  0
  158.1130  212.0210  154.2670 C   0  0  0  0  0  2  0  0  0  0  0  0
  160.0590  206.8960  155.1220 C   0  0  0  0  0  3  0  0  0  0  0  0
  161.3930  210.5040  155.5890 C   0  0  2  0  0  3  0  0  0  0  0  0
  160.2350  208.2600  155.7420 C   0  0  0  0  0  2  0  0  0  0  0  0
  156.5620  213.3410  151.9620 O   0  0  0  0  0  0  0  0  0  0  0  0
  160.9480  213.0430  150.6130 C   0  0  0  0  0  1  0  0  0  0  0  0
  160.4400  211.2850  154.6680 C   0  0  1  0  0  3  0  0  0  0  0  0
  160.7640  206.4750  154.0620 C   0  0  0  0  0  3  0  0  0  0  0  0
  161.7330  208.7930  153.7480 C   0  0  2  0  0  3  0  0  0  0  0  0
  162.0570  206.9640  151.9750 C   0  0  0  0  0  2  0  0  0  0  0  0
  160.8450  206.4330  151.3250 N   0  0  0  0  0  0  0  0  0  0  0  0
  160.8360  204.9630  151.3980 C   0  0  0  0  0  2  0  0  0  0  0  0
  162.1200  204.4490  151.6130 O   0  0  0  0  0  1  0  0  0  0  0  0
  160.4570  205.8060  148.9650 C   0  0  0  0  0  1  0  0  0  0  0  0
  160.6620  206.9480  149.9540 C   0  0  2  0  0  3  0  0  0  0  0  0
  161.8570  207.7850  149.4920 C   0  0  0  0  0  2  0  0  0  0  0  0
  161.5850  208.4050  148.2700 O   0  0  0  0  0  1  0  0  0  0  0  0
  1 21  1  6  0  0  0
  1 20  1  0  0  0  0
  1 19  1  0  0  0  0
  2 17  1  6  0  0  0
  2  7  1  0  0  0  0
  3 14  1  0  0  0  0
  4 12  1  1  0  0  0
  5 11  1  1  0  0  0
  5 18  1  0  0  0  0
  6  2  1  0  0  0  0
  6  9  1  0  0  0  0
  7  4  1  0  0  0  0
  7  5  1  0  0  0  0
  9  4  1  0  0  0  0
 10 14  1  0  0  0  0
 10 15  1  0  0  0  0
 11 20  1  0  0  0  0
 12  8  1  0  0  0  0
 13 15  1  0  0  0  0
 16  9  2  0  0  0  0
 18  8  1  0  0  0  0
 18 14  1  0  0  0  0
 19 13  2  0  0  0  0
 20 10  1  0  0  0  0
 22 23  1  0  0  0  0
 22 21  1  0  0  0  0
 23 24  1  0  0  0  0
 25 26  1  0  0  0  0
 26 22  1  0  0  0  0
 27 26  1  0  0  0  0
 28 27  1  0  0  0  0
M  END
>  <MODEL>
5

>  <REMARK>
 VINA RESULT:      -4.8      1.599      2.191
  Name = 
  5 active torsions:
  status: ('A' for Active; 'I' for Inactive)
    1  A    between atoms: C_1  and  C_2
    2  A    between atoms: C_2  and  N_3
    3  A    between atoms: N_3  and  C_7
    4  A    between atoms: N_3  and  C_11
    5  A    between atoms: C_6  and  C_11
                            x       y       z     vdW  Elec       q    Type
                         _______ _______ _______ _____ _____    ______ ____

>  <TORSDO>
F 5

$$$$
=
 OpenBabel11052423023D

 28 31  0  0  1  0  0  0  0  0999 V2000
  161.1900  204.1070  149.2730 C   0  0  2  0  0  3  0  0  0  0  0  0
  162.0020  209.9490  151.4220 C   0  0  1  0  0  3  0  0  0  0  0  0
  164.2340  205.5950  152.0590 O   0  0  0  0  0  1  0  0  0  0  0  0
  160.0680  208.8400  152.4740 C   0  0  2  0  0  3  0  0  0  0  0  0
  161.8560  207.3910  151.2270 C   0  0  2  0  0  3  0  0  0  0  0  0
  161.2070  210.9490  152.1110 N   0  0  0  0  0  2  0  0  0  0  0  0
  161.0980  208.7190  151.3330 C   0  0  2  0  0  3  0  0  0  0  0  0
  161.0290  206.7560  153.5280 C   0  0  0  0  0  2  0  0  0  0  0  0
  160.0950  210.3010  152.7010 C   0  0  0  0  0  0  0  0  0  0  0  0
  162.1830  204.4610  151.5480 C   0  0  1  0  0  3  0  0  0  0  0  0
  161.0450  206.3980  150.4000 C   0  0  0  0  0  2  0  0  0  0  0  0
  160.5360  208.1700  153.7700 C   0  0  0  0  0  2  0  0  0  0  0  0
  159.9540  203.2550  151.2630 C   0  0  0  0  0  3  0  0  0  0  0  0
  162.9160  205.4320  152.4880 C   0  0  2  0  0  3  0  0  0  0  0  0
  160.9250  203.8940  152.2250 C   0  0  0  0  0  2  0  0  0  0  0  0
  159.2250  210.9230  153.3650 O   0  0  0  0  0  0  0  0  0  0  0  0
  162.3580  210.4400  150.0330 C   0  0  0  0  0  1  0  0  0  0  0  0
  162.2360  206.8070  152.6010 C   0  0  1  0  0  3  0  0  0  0  0  0
  160.0430  203.3900  149.9320 C   0  0  0  0  0  3  0  0  0  0  0  0
  161.8670  205.1250  150.1990 C   0  0  2  0  0  3  0  0  0  0  0  0
  160.7670  204.6910  147.9200 C   0  0  0  0  0  2  0  0  0  0  0  0
  160.9290  203.7610  146.7880 N   0  0  0  0  0  0  0  0  0  0  0  0
  161.4910  202.4850  147.2590 C   0  0  0  0  0  2  0  0  0  0  0  0
  160.7170  201.3960  146.8420 O   0  0  0  0  0  1  0  0  0  0  0  0
  162.9850  204.9840  146.1630 C   0  0  0  0  0  1  0  0  0  0  0  0
  161.6900  204.3520  145.6690 C   0  0  2  0  0  3  0  0  0  0  0  0
  160.8800  205.4170  144.9250 C   0  0  0  0  0  2  0  0  0  0  0  0
  161.4530  205.6990  143.6830 O   0  0  0  0  0  1  0  0  0  0  0  0
  1 21  1  6  0  0  0
  1 19  1  0  0  0  0
  1 20  1  0  0  0  0
  2 17  1  6  0  0  0
  2  6  1  0  0  0  0
  3 14  1  0  0  0  0
  4  9  1  0  0  0  0
  4 12  1  1  0  0  0
  5 11  1  1  0  0  0
  5  7  1  0  0  0  0
  5 18  1  0  0  0  0
  6  9  1  0  0  0  0
  7  2  1  0  0  0  0
  7  4  1  0  0  0  0
  8 12  1  0  0  0  0
  9 16  2  0  0  0  0
 10 15  1  0  0  0  0
 10 14  1  0  0  0  0
 13 15  1  0  0  0  0
 14 18  1  0  0  0  0
 18  8  1  0  0  0  0
 19 13  2  0  0  0  0
 20 11  1  0  0  0  0
 20 10  1  0  0  0  0
 22 23  1  0  0  0  0
 22 21  1  0  0  0  0
 24 23  1  0  0  0  0
 26 25  1  0  0  0  0
 26 22  1  0  0  0  0
 27 26  1  0  0  0  0
 28 27  1  0  0  0  0
M  END
>  <MODEL>
6

>  <REMARK>
 VINA RESULT:      -4.6      2.897      4.771
  Name = 
  5 active torsions:
  status: ('A' for Active; 'I' for Inactive)
    1  A    between atoms: C_1  and  C_2
    2  A    between atoms: C_2  and  N_3
    3  A    between atoms: N_3  and  C_7
    4  A    between atoms: N_3  and  C_11
    5  A    between atoms: C_6  and  C_11
                            x       y       z     vdW  Elec       q    Type
                         _______ _______ _______ _____ _____    ______ ____

>  <TORSDO>
F 5

$$$$
