=
 OpenBabel11062408373D

 55 61  0  0  1  0  0  0  0  0999 V2000
  159.9220  210.8330  151.9010 C   0  0  0  0  0  3  0  0  0  0  0  0
  161.8550  210.9230  147.6660 C   0  0  0  0  0  2  0  0  0  0  0  0
  161.0700  207.8410  147.6130 C   0  0  0  0  0  1  0  0  0  0  0  0
  161.5050  212.9930  145.4560 C   0  0  0  0  0  2  0  0  0  0  0  0
  163.7240  213.8450  145.9800 C   0  0  0  0  0  2  0  0  0  0  0  0
  160.3750  205.2460  150.4690 C   0  0  0  0  0  3  0  0  0  0  0  0
  160.5740  203.9190  150.8680 C   0  0  0  0  0  3  0  0  0  0  0  0
  161.7620  206.0050  152.3140 C   0  0  0  0  0  0  0  0  0  0  0  0
  161.9690  204.6760  152.7020 C   0  0  0  0  0  3  0  0  0  0  0  0
  161.9240  207.9580  149.8410 O   0  0  0  0  0  0  0  0  0  0  0  0
  162.2250  213.4910  144.2580 C   0  0  0  0  0  0  0  0  0  0  0  0
  163.4210  213.9550  144.5320 C   0  0  0  0  0  3  0  0  0  0  0  0
  161.3720  203.6330  151.9810 C   0  0  0  0  0  3  0  0  0  0  0  0
  158.6980  214.3980  151.4220 C   0  0  0  0  0  2  0  0  0  0  0  0
  160.9590  206.2900  151.1950 C   0  0  0  0  0  0  0  0  0  0  0  0
  160.3970  213.9950  149.6390 C   0  0  1  0  0  3  0  0  0  0  0  0
  160.8590  210.0420  151.4830 N   0  0  0  0  0  0  0  0  0  0  0  0
  160.8300  212.7280  150.4110 C   0  0  0  0  0  2  0  0  0  0  0  0
  162.0620  208.3330  152.8620 C   0  0  0  0  0  0  0  0  0  0  0  0
  162.9780  211.8050  147.1440 C   0  0  0  0  0  2  0  0  0  0  0  0
  162.3710  207.0780  153.0500 N   0  0  0  0  0  0  0  0  0  0  0  0
  162.4700  209.7410  148.3860 C   0  0  0  0  0  2  0  0  0  0  0  0
  161.4080  208.7350  148.7990 C   0  0  1  0  0  3  0  0  0  0  0  0
  158.8530  212.9880  151.8930 C   0  0  0  0  0  3  0  0  0  0  0  0
  162.5110  213.1580  146.6020 C   0  0  2  0  0  0  0  0  0  0  0  0
  159.8410  212.2170  151.4360 C   0  0  0  0  0  0  0  0  0  0  0  0
  160.8530  207.7050  150.7160 C   0  0  1  0  0  3  0  0  0  0  0  0
  160.8990  208.6570  151.9250 C   0  0  2  0  0  3  0  0  0  0  0  0
  161.9900  214.0610  147.7250 C   0  0  0  0  0  2  0  0  0  0  0  0
  160.5600  213.7470  148.1530 C   0  0  0  0  0  2  0  0  0  0  0  0
  158.9620  214.4410  149.9260 C   0  0  0  0  0  2  0  0  0  0  0  0
  163.5640  210.3140  153.1220 C   0  0  0  0  0  3  0  0  0  0  0  0
  163.9810  211.3370  155.2330 C   0  0  0  0  0  0  0  0  0  0  0  0
  162.5200  209.4200  155.0930 C   0  0  0  0  0  3  0  0  0  0  0  0
  163.1430  210.4030  155.8590 C   0  0  0  0  0  3  0  0  0  0  0  0
  164.1650  211.2660  153.8860 N   0  0  0  0  0  0  0  0  0  0  0  0
  162.7300  209.3520  153.7100 C   0  0  0  0  0  0  0  0  0  0  0  0
  164.6490  212.3420  155.9510 O   0  0  0  0  0  0  0  0  0  0  0  0
  166.4500  213.8220  156.1210 O   0  0  0  0  0  0  0  0  0  0  0  0
  166.0090  212.6710  155.8420 C   0  0  0  0  0  3  0  0  0  0  0  0
  161.7140  213.5100  142.9520 O   0  0  0  0  0  0  0  0  0  0  0  0
  162.1670  212.6810  141.8770 C   0  0  1  0  0  3  0  0  0  0  0  0
  158.5580  211.7330  141.1110 O   0  0  0  0  0  1  0  0  0  0  0  0
  160.2200  213.2520  140.2470 C   0  0  0  0  0  2  0  0  0  0  0  0
  161.0160  212.1770  140.9860 C   0  0  2  0  0  0  0  0  0  0  0  0
  159.6190  212.5750  141.4630 C   0  0  2  0  0  0  0  0  0  0  0  0
  161.0910  210.8010  140.3120 C   0  0  0  0  0  2  0  0  0  0  0  0
  161.4250  210.9050  138.8330 C   0  0  0  0  0  1  0  0  0  0  0  0
  159.4110  213.5420  142.6330 C   0  0  1  0  0  3  0  0  0  0  0  0
  158.3660  214.4300  142.3560 O   0  0  0  0  0  1  0  0  0  0  0  0
  159.1470  212.8020  143.9400 C   0  0  0  0  0  2  0  0  0  0  0  0
  159.5600  211.4700  143.8560 O   0  0  0  0  0  1  0  0  0  0  0  0
  163.3560  213.2690  141.1090 C   0  0  0  0  0  3  0  0  0  0  0  0
  162.9640  213.6060  139.8130 O   0  0  0  0  0  1  0  0  0  0  0  0
  163.8210  214.4170  141.7570 O   0  0  0  0  0  1  0  0  0  0  0  0
  2 22  1  0  0  0  0
  5 25  1  0  0  0  0
  6  7  2  0  0  0  0
  6 15  1  0  0  0  0
  7 13  1  0  0  0  0
  8  9  1  0  0  0  0
  8 21  1  0  0  0  0
 11 12  2  0  0  0  0
 11  4  1  0  0  0  0
 12  5  1  0  0  0  0
 13  9  2  0  0  0  0
 14 24  1  0  0  0  0
 15  8  2  0  0  0  0
 16 30  1  6  0  0  0
 16 31  1  0  0  0  0
 16 18  1  0  0  0  0
 17  1  2  0  0  0  0
 18 26  1  0  0  0  0
 19 21  2  0  0  0  0
 19 37  1  0  0  0  0
 20  2  1  0  0  0  0
 22 23  1  0  0  0  0
 23  3  1  6  0  0  0
 23 10  1  0  0  0  0
 25  4  1  6  0  0  0
 25 20  1  0  0  0  0
 25 29  1  0  0  0  0
 26 24  2  0  0  0  0
 26  1  1  0  0  0  0
 27 10  1  6  0  0  0
 27 15  1  0  0  0  0
 27 28  1  0  0  0  0
 28 17  1  6  0  0  0
 28 19  1  0  0  0  0
 29 30  1  0  0  0  0
 31 14  1  0  0  0  0
 32 37  2  0  0  0  0
 32 36  1  0  0  0  0
 33 35  1  0  0  0  0
 33 38  1  0  0  0  0
 34 35  2  0  0  0  0
 36 33  2  0  0  0  0
 37 34  1  0  0  0  0
 40 38  1  0  0  0  0
 40 39  2  0  0  0  0
 41 11  1  0  0  0  0
 42 53  1  6  0  0  0
 42 41  1  0  0  0  0
 44 45  1  0  0  0  0
 44 46  1  0  0  0  0
 45 47  1  6  0  0  0
 45 46  1  0  0  0  0
 45 42  1  0  0  0  0
 46 43  1  6  0  0  0
 46 49  1  0  0  0  0
 48 47  1  0  0  0  0
 49 50  1  6  0  0  0
 49 51  1  0  0  0  0
 52 51  1  0  0  0  0
 53 55  1  0  0  0  0
 54 53  1  0  0  0  0
M  END
>  <MODEL>
1

>  <REMARK>
 VINA RESULT:       3.9      0.000      0.000
  Name = 
  10 active torsions:
  status: ('A' for Active; 'I' for Inactive)
    1  A    between atoms: C_1  and  C_53
    2  A    between atoms: C_6  and  C_14
    3  A    between atoms: O_10  and  C_32
    4  A    between atoms: O_10  and  C_47
    5  A    between atoms: C_11  and  C_29
    6  A    between atoms: C_14  and  C_53
    7  A    between atoms: C_20  and  O_42
    8  A    between atoms: C_29  and  C_38
    9  A    between atoms: C_33  and  C_52
   10  A    between atoms: O_42  and  C_53
                            x       y       z     vdW  Elec       q    Type
                         _______ _______ _______ _____ _____    ______ ____

>  <TORSDO>
F 10

$$$$
