=
 OpenBabel11062410083D

 43 49  0  0  1  0  0  0  0  0999 V2000
  159.1450  210.3920  156.1520 C   0  0  0  0  0  0  0  0  0  0  0  0
  161.5530  207.3830  152.8330 C   0  0  0  0  0  0  0  0  0  0  0  0
  161.5040  208.6880  150.2490 C   0  0  2  0  0  3  0  0  0  0  0  0
  160.4380  208.6180  155.0860 C   0  0  0  0  0  0  0  0  0  0  0  0
  158.7970  210.9390  154.7930 C   0  0  0  0  0  2  0  0  0  0  0  0
  158.6340  210.9800  157.2600 F   0  0  0  0  0  0  0  0  0  0  0  0
  160.4300  209.2900  153.8470 C   0  0  0  0  0  0  0  0  0  0  0  0
  159.8590  209.2680  156.2720 C   0  0  0  0  0  3  0  0  0  0  0  0
  159.9230  210.7060  153.7820 C   0  0  0  0  0  2  0  0  0  0  0  0
  161.0260  209.3510  151.4590 N   0  0  0  0  0  2  0  0  0  0  0  0
  160.9840  208.6670  152.7170 C   0  0  0  0  0  0  0  0  0  0  0  0
  161.5500  206.7260  154.0680 C   0  0  0  0  0  3  0  0  0  0  0  0
  162.1370  206.6910  151.6320 C   0  0  2  0  0  3  0  0  0  0  0  0
  162.6220  207.7050  150.5900 C   0  0  0  0  0  2  0  0  0  0  0  0
  160.9980  207.3430  155.1920 C   0  0  0  0  0  3  0  0  0  0  0  0
  161.9720  209.6890  149.2470 C   0  0  0  0  0  0  0  0  0  0  0  0
  161.7090  211.0830  149.4410 N   0  0  0  0  0  2  0  0  0  0  0  0
  162.6370  209.2980  148.2510 O   0  0  0  0  0  0  0  0  0  0  0  0
  162.1530  212.1120  148.5090 C   0  0  1  0  0  3  0  0  0  0  0  0
  163.5750  211.8240  148.0580 C   0  0  0  0  0  1  0  0  0  0  0  0
  161.2400  212.1180  147.2980 C   0  0  2  0  0  3  0  0  0  0  0  0
  161.2080  213.4760  146.7140 N   0  0  2  0  0  0  0  0  0  0  0  0
  159.4740  212.6820  145.2310 N   0  0  0  0  0  2  0  0  0  0  0  0
  160.0900  212.9850  147.5320 C   0  0  1  0  0  3  0  0  0  0  0  0
  160.7120  213.4440  145.3330 C   0  0  2  0  0  3  0  0  0  0  0  0
  158.9650  212.6080  146.5890 C   0  0  0  0  0  2  0  0  0  0  0  0
  161.7760  212.9850  144.3310 C   0  0  0  0  0  2  0  0  0  0  0  0
  161.4220  213.3340  142.8920 C   0  0  0  0  0  2  0  0  0  0  0  0
  161.5660  212.1590  142.0490 N   0  0  0  0  0  0  0  0  0  0  0  0
  160.3780  210.8680  140.2940 C   0  0  0  0  0  2  0  0  0  0  0  0
  162.6850  211.3830  139.9750 C   0  0  0  0  0  2  0  0  0  0  0  0
  161.7270  210.3020  140.2200 N   0  0  0  0  0  2  0  0  0  0  0  0
  162.5890  212.4760  141.0520 C   0  0  0  0  0  2  0  0  0  0  0  0
  160.2860  211.9670  141.3640 C   0  0  0  0  0  2  0  0  0  0  0  0
  161.1430  205.8030  151.0450 N   0  0  0  0  0  2  0  0  0  0  0  0
  160.3630  203.3210  149.2890 N   0  0  0  0  0  0  0  0  0  0  0  0
  161.1430  203.4420  151.5600 C   0  0  0  0  0  2  0  0  0  0  0  0
  161.5470  204.1630  149.3160 C   0  0  0  0  0  2  0  0  0  0  0  0
  161.8010  204.5380  150.7580 C   0  0  1  0  0  3  0  0  0  0  0  0
  160.3690  202.6080  150.5590 C   0  0  0  0  0  2  0  0  0  0  0  0
  160.5630  202.3380  148.2360 C   0  0  0  0  0  2  0  0  0  0  0  0
  161.4650  200.1710  147.8030 O   0  0  0  0  0  1  0  0  0  0  0  0
  161.0800  201.0370  148.8270 C   0  0  0  0  0  2  0  0  0  0  0  0
  1  8  2  0  0  0  0
  1  6  1  0  0  0  0
  2 12  1  0  0  0  0
  3 16  1  6  0  0  0
  3 14  1  0  0  0  0
  3 10  1  0  0  0  0
  4 15  1  0  0  0  0
  4  8  1  0  0  0  0
  5  1  1  0  0  0  0
  7  4  2  0  0  0  0
  9  7  1  0  0  0  0
  9  5  1  0  0  0  0
 10 11  1  0  0  0  0
 11  2  2  0  0  0  0
 11  7  1  0  0  0  0
 12 15  2  0  0  0  0
 13 35  1  6  0  0  0
 13  2  1  0  0  0  0
 14 13  1  0  0  0  0
 16 17  1  0  0  0  0
 18 16  2  0  0  0  0
 19 20  1  6  0  0  0
 19 17  1  0  0  0  0
 21 24  1  0  0  0  0
 21 19  1  1  0  0  0
 22 21  1  0  0  0  0
 22 24  1  0  0  0  0
 23 25  1  0  0  0  0
 23 26  1  0  0  0  0
 25 22  1  0  0  0  0
 26 24  1  0  0  0  0
 27 25  1  0  0  0  0
 28 27  1  0  0  0  0
 29 28  1  0  0  0  0
 30 34  1  0  0  0  0
 31 32  1  0  0  0  0
 31 33  1  0  0  0  0
 32 30  1  0  0  0  0
 33 29  1  0  0  0  0
 34 29  1  0  0  0  0
 36 38  1  0  0  0  0
 36 40  1  0  0  0  0
 38 39  1  0  0  0  0
 39 35  1  0  0  0  0
 39 37  1  0  0  0  0
 40 37  1  0  0  0  0
 41 43  1  0  0  0  0
 41 36  1  0  0  0  0
 42 43  1  0  0  0  0
M  END
>  <MODEL>
1

>  <REMARK>
 VINA RESULT:      -7.8      0.000      0.000
  Name = 
  10 active torsions:
  status: ('A' for Active; 'I' for Inactive)
    1  A    between atoms: N_1  and  C_34
    2  A    between atoms: N_1  and  C_35
    3  A    between atoms: C_2  and  C_13
    4  A    between atoms: C_3  and  C_12
    5  A    between atoms: N_6  and  C_12
    6  A    between atoms: C_9  and  N_19
    7  A    between atoms: C_9  and  C_37
    8  A    between atoms: N_11  and  C_14
    9  A    between atoms: C_14  and  C_41
   10  A    between atoms: C_22  and  C_41
                            x       y       z     vdW  Elec       q    Type
                         _______ _______ _______ _____ _____    ______ ____

>  <TORSDO>
F 10

$$$$
=
 OpenBabel11062410083D

 43 49  0  0  1  0  0  0  0  0999 V2000
  161.9600  203.8770  146.7200 C   0  0  0  0  0  0  0  0  0  0  0  0
  160.8850  206.3450  151.0350 C   0  0  0  0  0  0  0  0  0  0  0  0
  161.8660  209.0570  150.7770 C   0  0  2  0  0  3  0  0  0  0  0  0
  161.1250  204.5260  148.9190 C   0  0  0  0  0  0  0  0  0  0  0  0
  162.7760  205.1410  146.6690 C   0  0  0  0  0  2  0  0  0  0  0  0
  162.0430  202.9870  145.7020 F   0  0  0  0  0  0  0  0  0  0  0  0
  161.5810  205.8490  148.7560 C   0  0  0  0  0  0  0  0  0  0  0  0
  161.2440  203.5700  147.8060 C   0  0  0  0  0  3  0  0  0  0  0  0
  162.0860  206.2920  147.4080 C   0  0  0  0  0  2  0  0  0  0  0  0
  161.8820  208.1200  149.6580 N   0  0  0  0  0  2  0  0  0  0  0  0
  161.4650  206.7590  149.8190 C   0  0  0  0  0  0  0  0  0  0  0  0
  160.4410  205.0270  151.1840 C   0  0  0  0  0  3  0  0  0  0  0  0
  160.7670  207.2980  152.1920 C   0  0  2  0  0  3  0  0  0  0  0  0
  160.6940  208.7510  151.7080 C   0  0  0  0  0  2  0  0  0  0  0  0
  160.5570  204.1210  150.1290 C   0  0  0  0  0  3  0  0  0  0  0  0
  161.7940  210.4640  150.2890 C   0  0  0  0  0  0  0  0  0  0  0  0
  162.0580  210.7670  148.9140 N   0  0  0  0  0  2  0  0  0  0  0  0
  161.4580  211.3770  151.0890 O   0  0  0  0  0  0  0  0  0  0  0  0
  161.9890  212.1170  148.3690 C   0  0  1  0  0  3  0  0  0  0  0  0
  163.3830  212.6020  148.0120 C   0  0  0  0  0  1  0  0  0  0  0  0
  161.1310  212.1090  147.1180 C   0  0  2  0  0  3  0  0  0  0  0  0
  161.0310  213.4820  146.5820 N   0  0  2  0  0  0  0  0  0  0  0  0
  159.4210  212.6330  144.9950 N   0  0  0  0  0  2  0  0  0  0  0  0
  159.9150  212.8880  147.3310 C   0  0  1  0  0  3  0  0  0  0  0  0
  160.5990  213.4710  145.1800 C   0  0  2  0  0  3  0  0  0  0  0  0
  158.8600  212.4730  146.3250 C   0  0  0  0  0  2  0  0  0  0  0  0
  161.7330  213.1230  144.2120 C   0  0  0  0  0  2  0  0  0  0  0  0
  161.3530  213.3370  142.7540 C   0  0  0  0  0  2  0  0  0  0  0  0
  161.9760  212.3190  141.9250 N   0  0  0  0  0  0  0  0  0  0  0  0
  161.4190  210.3850  140.4740 C   0  0  0  0  0  2  0  0  0  0  0  0
  162.9950  211.9920  139.6870 C   0  0  0  0  0  2  0  0  0  0  0  0
  162.8270  210.6110  140.1430 N   0  0  0  0  0  2  0  0  0  0  0  0
  162.4920  212.9970  140.7360 C   0  0  0  0  0  2  0  0  0  0  0  0
  160.9150  211.3960  141.5160 C   0  0  0  0  0  2  0  0  0  0  0  0
  161.9000  207.1230  153.0900 N   0  0  0  0  0  2  0  0  0  0  0  0
  160.4430  208.9950  155.1470 N   0  0  0  0  0  0  0  0  0  0  0  0
  162.3160  207.5160  155.4380 C   0  0  0  0  0  2  0  0  0  0  0  0
  160.0900  207.7030  154.5840 C   0  0  0  0  0  2  0  0  0  0  0  0
  161.3700  206.9130  154.4280 C   0  0  1  0  0  3  0  0  0  0  0  0
  161.6140  208.7470  155.9760 C   0  0  0  0  0  2  0  0  0  0  0  0
  159.3570  209.3870  156.0310 C   0  0  0  0  0  2  0  0  0  0  0  0
  159.1050  211.0890  154.3770 O   0  0  0  0  0  1  0  0  0  0  0  0
  158.9300  210.8140  155.7330 C   0  0  0  0  0  2  0  0  0  0  0  0
  1  8  2  0  0  0  0
  2 12  1  0  0  0  0
  2 13  1  0  0  0  0
  3 16  1  6  0  0  0
  3 14  1  0  0  0  0
  4 15  1  0  0  0  0
  5  1  1  0  0  0  0
  5  9  1  0  0  0  0
  6  1  1  0  0  0  0
  7  4  2  0  0  0  0
  7 11  1  0  0  0  0
  8  4  1  0  0  0  0
  9  7  1  0  0  0  0
 10 11  1  0  0  0  0
 10  3  1  0  0  0  0
 11  2  2  0  0  0  0
 13 35  1  1  0  0  0
 14 13  1  0  0  0  0
 15 12  2  0  0  0  0
 16 18  2  0  0  0  0
 17 16  1  0  0  0  0
 19 20  1  6  0  0  0
 19 17  1  0  0  0  0
 21 24  1  0  0  0  0
 21 19  1  1  0  0  0
 22 21  1  0  0  0  0
 22 24  1  0  0  0  0
 23 25  1  0  0  0  0
 23 26  1  0  0  0  0
 25 22  1  0  0  0  0
 26 24  1  0  0  0  0
 27 25  1  0  0  0  0
 28 27  1  0  0  0  0
 29 28  1  0  0  0  0
 30 34  1  0  0  0  0
 31 32  1  0  0  0  0
 31 33  1  0  0  0  0
 32 30  1  0  0  0  0
 33 29  1  0  0  0  0
 34 29  1  0  0  0  0
 35 39  1  0  0  0  0
 36 40  1  0  0  0  0
 36 41  1  0  0  0  0
 37 40  1  0  0  0  0
 38 36  1  0  0  0  0
 39 38  1  0  0  0  0
 39 37  1  0  0  0  0
 42 43  1  0  0  0  0
 43 41  1  0  0  0  0
M  END
>  <MODEL>
2

>  <REMARK>
 VINA RESULT:      -7.6      3.204      5.897
  Name = 
  10 active torsions:
  status: ('A' for Active; 'I' for Inactive)
    1  A    between atoms: N_1  and  C_34
    2  A    between atoms: N_1  and  C_35
    3  A    between atoms: C_2  and  C_13
    4  A    between atoms: C_3  and  C_12
    5  A    between atoms: N_6  and  C_12
    6  A    between atoms: C_9  and  N_19
    7  A    between atoms: C_9  and  C_37
    8  A    between atoms: N_11  and  C_14
    9  A    between atoms: C_14  and  C_41
   10  A    between atoms: C_22  and  C_41
                            x       y       z     vdW  Elec       q    Type
                         _______ _______ _______ _____ _____    ______ ____

>  <TORSDO>
F 10

$$$$
=
 OpenBabel11062410083D

 43 49  0  0  1  0  0  0  0  0999 V2000
  161.7580  204.6300  148.0730 C   0  0  0  0  0  0  0  0  0  0  0  0
  161.1100  208.4430  151.3760 C   0  0  0  0  0  0  0  0  0  0  0  0
  161.8950  210.9010  150.0630 C   0  0  2  0  0  3  0  0  0  0  0  0
  161.1780  206.0010  150.0070 C   0  0  0  0  0  0  0  0  0  0  0  0
  162.4880  205.8030  147.4750 C   0  0  0  0  0  2  0  0  0  0  0  0
  161.7600  203.4410  147.4240 F   0  0  0  0  0  0  0  0  0  0  0  0
  161.5330  207.1870  149.3350 C   0  0  0  0  0  0  0  0  0  0  0  0
  161.2060  204.7170  149.2880 C   0  0  0  0  0  3  0  0  0  0  0  0
  161.8360  207.1340  147.8600 C   0  0  0  0  0  2  0  0  0  0  0  0
  161.8200  209.6320  149.3450 N   0  0  0  0  0  2  0  0  0  0  0  0
  161.5050  208.4100  150.0230 C   0  0  0  0  0  0  0  0  0  0  0  0
  160.7640  207.2570  152.0320 C   0  0  0  0  0  3  0  0  0  0  0  0
  161.0880  209.7390  152.1370 C   0  0  2  0  0  3  0  0  0  0  0  0
  160.8710  210.9310  151.1970 C   0  0  0  0  0  2  0  0  0  0  0  0
  160.7940  206.0400  151.3490 C   0  0  0  0  0  3  0  0  0  0  0  0
  161.6820  212.0480  149.1340 C   0  0  0  0  0  0  0  0  0  0  0  0
  162.2020  212.0050  147.8000 N   0  0  0  0  0  2  0  0  0  0  0  0
  161.0030  213.0360  149.5220 O   0  0  0  0  0  0  0  0  0  0  0  0
  162.0150  213.0830  146.8390 C   0  0  1  0  0  3  0  0  0  0  0  0
  163.2730  213.2560  146.0050 C   0  0  0  0  0  1  0  0  0  0  0  0
  160.8560  212.7410  145.9210 C   0  0  2  0  0  3  0  0  0  0  0  0
  160.3990  213.9650  145.2290 N   0  0  2  0  0  0  0  0  0  0  0  0
  158.5650  212.6580  144.3550 N   0  0  0  0  0  2  0  0  0  0  0  0
  159.6410  213.4180  146.3630 C   0  0  1  0  0  3  0  0  0  0  0  0
  159.6030  213.6330  144.0430 C   0  0  2  0  0  3  0  0  0  0  0  0
  158.4270  212.7070  145.8000 C   0  0  0  0  0  2  0  0  0  0  0  0
  160.4650  213.2190  142.8460 C   0  0  0  0  0  2  0  0  0  0  0  0
  160.3660  211.7320  142.5340 C   0  0  0  0  0  2  0  0  0  0  0  0
  161.2870  211.3900  141.4640 N   0  0  0  0  0  0  0  0  0  0  0  0
  161.3470  210.9080  139.0300 C   0  0  0  0  0  2  0  0  0  0  0  0
  162.9610  212.4090  139.9410 C   0  0  0  0  0  2  0  0  0  0  0  0
  162.7680  211.0900  139.3330 N   0  0  0  0  0  2  0  0  0  0  0  0
  162.0880  212.5850  141.1950 C   0  0  0  0  0  2  0  0  0  0  0  0
  160.4750  211.0940  140.2810 C   0  0  0  0  0  2  0  0  0  0  0  0
  162.3350  209.8990  152.8720 N   0  0  0  0  0  2  0  0  0  0  0  0
  160.9580  208.9580  155.5320 N   0  0  0  0  0  0  0  0  0  0  0  0
  160.5480  210.8910  154.1620 C   0  0  0  0  0  2  0  0  0  0  0  0
  162.2330  209.6050  155.2690 C   0  0  0  0  0  2  0  0  0  0  0  0
  162.0230  210.5690  154.1240 C   0  0  1  0  0  3  0  0  0  0  0  0
  159.9460  209.9450  155.1830 C   0  0  0  0  0  2  0  0  0  0  0  0
  160.8780  208.7400  156.9670 C   0  0  0  0  0  2  0  0  0  0  0  0
  159.4650  206.8770  156.4890 O   0  0  0  0  0  1  0  0  0  0  0  0
  160.5560  207.2840  157.2570 C   0  0  0  0  0  2  0  0  0  0  0  0
  1  8  2  0  0  0  0
  2 12  1  0  0  0  0
  2 13  1  0  0  0  0
  3 16  1  6  0  0  0
  3 14  1  0  0  0  0
  4 15  1  0  0  0  0
  5  9  1  0  0  0  0
  5  1  1  0  0  0  0
  6  1  1  0  0  0  0
  7  4  2  0  0  0  0
  7 11  1  0  0  0  0
  8  4  1  0  0  0  0
  9  7  1  0  0  0  0
 10 11  1  0  0  0  0
 10  3  1  0  0  0  0
 11  2  2  0  0  0  0
 13 35  1  6  0  0  0
 14 13  1  0  0  0  0
 15 12  2  0  0  0  0
 16 18  2  0  0  0  0
 17 16  1  0  0  0  0
 19 20  1  6  0  0  0
 19 17  1  0  0  0  0
 21 24  1  0  0  0  0
 21 19  1  1  0  0  0
 22 21  1  0  0  0  0
 22 24  1  0  0  0  0
 23 26  1  0  0  0  0
 25 23  1  0  0  0  0
 25 22  1  0  0  0  0
 26 24  1  0  0  0  0
 27 25  1  0  0  0  0
 28 27  1  0  0  0  0
 29 28  1  0  0  0  0
 30 32  1  0  0  0  0
 30 34  1  0  0  0  0
 31 33  1  0  0  0  0
 32 31  1  0  0  0  0
 33 29  1  0  0  0  0
 34 29  1  0  0  0  0
 35 39  1  0  0  0  0
 36 41  1  0  0  0  0
 37 40  1  0  0  0  0
 38 36  1  0  0  0  0
 39 37  1  0  0  0  0
 39 38  1  0  0  0  0
 40 36  1  0  0  0  0
 41 43  1  0  0  0  0
 42 43  1  0  0  0  0
M  END
>  <MODEL>
3

>  <REMARK>
 VINA RESULT:      -7.3      3.289      5.655
  Name = 
  10 active torsions:
  status: ('A' for Active; 'I' for Inactive)
    1  A    between atoms: N_1  and  C_34
    2  A    between atoms: N_1  and  C_35
    3  A    between atoms: C_2  and  C_13
    4  A    between atoms: C_3  and  C_12
    5  A    between atoms: N_6  and  C_12
    6  A    between atoms: C_9  and  N_19
    7  A    between atoms: C_9  and  C_37
    8  A    between atoms: N_11  and  C_14
    9  A    between atoms: C_14  and  C_41
   10  A    between atoms: C_22  and  C_41
                            x       y       z     vdW  Elec       q    Type
                         _______ _______ _______ _____ _____    ______ ____

>  <TORSDO>
F 10

$$$$
=
 OpenBabel11062410083D

 43 49  0  0  1  0  0  0  0  0999 V2000
  161.7210  204.5380  148.0790 C   0  0  0  0  0  0  0  0  0  0  0  0
  160.9700  207.9160  151.8060 C   0  0  0  0  0  0  0  0  0  0  0  0
  161.6090  210.5430  150.7700 C   0  0  2  0  0  3  0  0  0  0  0  0
  161.1210  205.6510  150.1660 C   0  0  0  0  0  0  0  0  0  0  0  0
  162.3820  205.8060  147.6060 C   0  0  0  0  0  2  0  0  0  0  0  0
  161.7630  203.4320  147.2980 F   0  0  0  0  0  0  0  0  0  0  0  0
  161.4050  206.9210  149.6280 C   0  0  0  0  0  0  0  0  0  0  0  0
  161.1930  204.4600  149.3040 C   0  0  0  0  0  3  0  0  0  0  0  0
  161.6760  207.0510  148.1520 C   0  0  0  0  0  2  0  0  0  0  0  0
  161.5770  209.3610  149.9130 N   0  0  0  0  0  2  0  0  0  0  0  0
  161.3350  208.0560  150.4520 C   0  0  0  0  0  0  0  0  0  0  0  0
  160.6950  206.6480  152.3280 C   0  0  0  0  0  3  0  0  0  0  0  0
  160.9040  209.1150  152.7110 C   0  0  2  0  0  3  0  0  0  0  0  0
  160.6110  210.3930  151.9170 C   0  0  0  0  0  2  0  0  0  0  0  0
  160.7660  205.5190  151.5100 C   0  0  0  0  0  3  0  0  0  0  0  0
  161.3220  211.7760  149.9810 C   0  0  0  0  0  0  0  0  0  0  0  0
  161.8050  211.9050  148.6390 N   0  0  0  0  0  2  0  0  0  0  0  0
  160.6150  212.6830  150.4940 O   0  0  0  0  0  0  0  0  0  0  0  0
  161.5460  213.0750  147.8100 C   0  0  1  0  0  3  0  0  0  0  0  0
  162.7810  213.4130  146.9930 C   0  0  0  0  0  1  0  0  0  0  0  0
  160.3950  212.7760  146.8680 C   0  0  2  0  0  3  0  0  0  0  0  0
  159.9450  214.0300  146.2280 N   0  0  2  0  0  0  0  0  0  0  0  0
  158.1180  212.7680  145.2800 N   0  0  0  0  0  2  0  0  0  0  0  0
  159.1760  213.4340  147.3290 C   0  0  1  0  0  3  0  0  0  0  0  0
  159.1590  213.7540  145.0200 C   0  0  2  0  0  3  0  0  0  0  0  0
  157.9660  212.7520  146.7240 C   0  0  0  0  0  2  0  0  0  0  0  0
  160.0310  213.3920  143.8140 C   0  0  0  0  0  2  0  0  0  0  0  0
  160.0210  211.9020  143.5030 C   0  0  0  0  0  2  0  0  0  0  0  0
  160.5610  211.6700  142.1750 N   0  0  0  0  0  0  0  0  0  0  0  0
  160.2640  212.3540  139.8080 C   0  0  0  0  0  2  0  0  0  0  0  0
  162.4680  212.2990  140.7170 C   0  0  0  0  0  2  0  0  0  0  0  0
  161.5570  211.6680  139.7600 N   0  0  0  0  0  2  0  0  0  0  0  0
  161.8810  212.3010  142.1380 C   0  0  0  0  0  2  0  0  0  0  0  0
  159.6830  212.3640  141.2300 C   0  0  0  0  0  2  0  0  0  0  0  0
  162.1590  209.2520  153.4380 N   0  0  0  0  0  2  0  0  0  0  0  0
  160.1400  210.7600  155.3090 N   0  0  0  0  0  0  0  0  0  0  0  0
  162.4890  210.3240  155.5780 C   0  0  0  0  0  2  0  0  0  0  0  0
  160.3690  209.3470  155.0590 C   0  0  0  0  0  2  0  0  0  0  0  0
  161.8550  209.1590  154.8570 C   0  0  1  0  0  3  0  0  0  0  0  0
  161.3430  211.2320  155.9790 C   0  0  0  0  0  2  0  0  0  0  0  0
  159.0460  210.8530  156.2620 C   0  0  0  0  0  2  0  0  0  0  0  0
  156.8610  210.8310  155.3010 O   0  0  0  0  0  1  0  0  0  0  0  0
  157.9090  211.6730  155.6740 C   0  0  0  0  0  2  0  0  0  0  0  0
  1  8  2  0  0  0  0
  2 12  1  0  0  0  0
  2 13  1  0  0  0  0
  3 16  1  6  0  0  0
  3 14  1  0  0  0  0
  4 15  1  0  0  0  0
  5  1  1  0  0  0  0
  5  9  1  0  0  0  0
  6  1  1  0  0  0  0
  7  4  2  0  0  0  0
  7 11  1  0  0  0  0
  8  4  1  0  0  0  0
  9  7  1  0  0  0  0
 10 11  1  0  0  0  0
 10  3  1  0  0  0  0
 11  2  2  0  0  0  0
 13 35  1  6  0  0  0
 14 13  1  0  0  0  0
 15 12  2  0  0  0  0
 16 18  2  0  0  0  0
 17 16  1  0  0  0  0
 19 20  1  6  0  0  0
 19 17  1  0  0  0  0
 21 24  1  0  0  0  0
 21 19  1  1  0  0  0
 22 21  1  0  0  0  0
 22 24  1  0  0  0  0
 23 26  1  0  0  0  0
 25 23  1  0  0  0  0
 25 22  1  0  0  0  0
 26 24  1  0  0  0  0
 27 25  1  0  0  0  0
 28 27  1  0  0  0  0
 29 28  1  0  0  0  0
 30 34  1  0  0  0  0
 31 33  1  0  0  0  0
 32 30  1  0  0  0  0
 32 31  1  0  0  0  0
 33 29  1  0  0  0  0
 34 29  1  0  0  0  0
 35 39  1  0  0  0  0
 36 40  1  0  0  0  0
 36 41  1  0  0  0  0
 37 40  1  0  0  0  0
 38 36  1  0  0  0  0
 39 38  1  0  0  0  0
 39 37  1  0  0  0  0
 42 43  1  0  0  0  0
 43 41  1  0  0  0  0
M  END
>  <MODEL>
4

>  <REMARK>
 VINA RESULT:      -7.1      3.390      5.983
  Name = 
  10 active torsions:
  status: ('A' for Active; 'I' for Inactive)
    1  A    between atoms: N_1  and  C_34
    2  A    between atoms: N_1  and  C_35
    3  A    between atoms: C_2  and  C_13
    4  A    between atoms: C_3  and  C_12
    5  A    between atoms: N_6  and  C_12
    6  A    between atoms: C_9  and  N_19
    7  A    between atoms: C_9  and  C_37
    8  A    between atoms: N_11  and  C_14
    9  A    between atoms: C_14  and  C_41
   10  A    between atoms: C_22  and  C_41
                            x       y       z     vdW  Elec       q    Type
                         _______ _______ _______ _____ _____    ______ ____

>  <TORSDO>
F 10

$$$$
=
 OpenBabel11062410083D

 43 49  0  0  1  0  0  0  0  0999 V2000
  160.8560  202.6550  148.3310 C   0  0  0  0  0  0  0  0  0  0  0  0
  162.1590  207.5340  148.9330 C   0  0  0  0  0  0  0  0  0  0  0  0
  161.1070  208.4280  151.4780 C   0  0  2  0  0  3  0  0  0  0  0  0
  161.8180  204.8840  148.0930 C   0  0  0  0  0  0  0  0  0  0  0  0
  160.0120  203.1540  149.4730 C   0  0  0  0  0  2  0  0  0  0  0  0
  160.7240  201.3720  147.9140 F   0  0  0  0  0  0  0  0  0  0  0  0
  161.3260  205.2850  149.3500 C   0  0  0  0  0  0  0  0  0  0  0  0
  161.6480  203.4910  147.6510 C   0  0  0  0  0  3  0  0  0  0  0  0
  160.7240  204.2530  150.2670 C   0  0  0  0  0  2  0  0  0  0  0  0
  161.0370  207.0310  151.0620 N   0  0  0  0  0  2  0  0  0  0  0  0
  161.4920  206.6150  149.7690 C   0  0  0  0  0  0  0  0  0  0  0  0
  162.6390  207.1230  147.6850 C   0  0  0  0  0  3  0  0  0  0  0  0
  162.3330  208.9670  149.3550 C   0  0  2  0  0  3  0  0  0  0  0  0
  162.3440  209.0980  150.8820 C   0  0  0  0  0  2  0  0  0  0  0  0
  162.4730  205.8020  147.2680 C   0  0  0  0  0  3  0  0  0  0  0  0
  161.1180  208.5380  152.9660 C   0  0  0  0  0  0  0  0  0  0  0  0
  160.9830  209.8160  153.5980 N   0  0  0  0  0  2  0  0  0  0  0  0
  161.2040  207.4890  153.6590 O   0  0  0  0  0  0  0  0  0  0  0  0
  160.9690  209.9890  155.0450 C   0  0  1  0  0  3  0  0  0  0  0  0
  162.2610  210.6460  155.4990 C   0  0  0  0  0  1  0  0  0  0  0  0
  159.8000  210.8760  155.4310 C   0  0  2  0  0  3  0  0  0  0  0  0
  160.0890  212.2710  155.0360 N   0  0  2  0  0  0  0  0  0  0  0  0
  158.0700  212.9070  156.1970 N   0  0  0  0  0  2  0  0  0  0  0  0
  160.2120  211.8490  156.4380 C   0  0  1  0  0  3  0  0  0  0  0  0
  158.8600  213.0690  154.9830 C   0  0  2  0  0  3  0  0  0  0  0  0
  158.9940  212.3660  157.1780 C   0  0  0  0  0  2  0  0  0  0  0  0
  158.0460  212.8240  153.7090 C   0  0  0  0  0  2  0  0  0  0  0  0
  157.8710  214.0810  152.8680 C   0  0  0  0  0  2  0  0  0  0  0  0
  157.4260  213.7240  151.5320 N   0  0  0  0  0  0  0  0  0  0  0  0
  155.5860  214.1410  149.9210 C   0  0  0  0  0  2  0  0  0  0  0  0
  157.8380  214.2490  149.1420 C   0  0  0  0  0  2  0  0  0  0  0  0
  156.5860  213.4920  149.0700 N   0  0  0  0  0  2  0  0  0  0  0  0
  158.3310  214.3870  150.5920 C   0  0  0  0  0  2  0  0  0  0  0  0
  156.0830  214.2860  151.3670 C   0  0  0  0  0  2  0  0  0  0  0  0
  161.2650  209.7790  148.7880 N   0  0  0  0  0  2  0  0  0  0  0  0
  161.2280  212.3820  147.0330 N   0  0  0  0  0  0  0  0  0  0  0  0
  162.9340  211.4990  148.4790 C   0  0  0  0  0  2  0  0  0  0  0  0
  160.6140  212.0570  148.3100 C   0  0  0  0  0  2  0  0  0  0  0  0
  161.5800  211.1710  149.0630 C   0  0  1  0  0  3  0  0  0  0  0  0
  162.6610  212.3950  147.2870 C   0  0  0  0  0  2  0  0  0  0  0  0
  160.8310  213.7410  146.7020 C   0  0  0  0  0  2  0  0  0  0  0  0
  161.5220  213.9910  144.4320 O   0  0  0  0  0  1  0  0  0  0  0  0
  160.4030  213.8200  145.2470 C   0  0  0  0  0  2  0  0  0  0  0  0
  1  5  1  0  0  0  0
  2 13  1  0  0  0  0
  2 11  1  0  0  0  0
  3 16  1  1  0  0  0
  4  7  1  0  0  0  0
  5  9  1  0  0  0  0
  6  1  1  0  0  0  0
  7 11  2  0  0  0  0
  7  9  1  0  0  0  0
  8  4  1  0  0  0  0
  8  1  2  0  0  0  0
 10  3  1  0  0  0  0
 11 10  1  0  0  0  0
 12  2  2  0  0  0  0
 13 35  1  6  0  0  0
 13 14  1  0  0  0  0
 14  3  1  0  0  0  0
 15 12  1  0  0  0  0
 15  4  2  0  0  0  0
 16 17  1  0  0  0  0
 16 18  2  0  0  0  0
 17 19  1  0  0  0  0
 19 20  1  6  0  0  0
 21 19  1  6  0  0  0
 21 24  1  0  0  0  0
 22 21  1  0  0  0  0
 22 24  1  0  0  0  0
 23 26  1  0  0  0  0
 24 26  1  0  0  0  0
 25 22  1  0  0  0  0
 25 23  1  0  0  0  0
 27 25  1  0  0  0  0
 28 27  1  0  0  0  0
 29 28  1  0  0  0  0
 30 34  1  0  0  0  0
 31 33  1  0  0  0  0
 32 31  1  0  0  0  0
 32 30  1  0  0  0  0
 33 29  1  0  0  0  0
 34 29  1  0  0  0  0
 35 39  1  0  0  0  0
 36 40  1  0  0  0  0
 36 38  1  0  0  0  0
 37 39  1  0  0  0  0
 38 39  1  0  0  0  0
 40 37  1  0  0  0  0
 41 36  1  0  0  0  0
 42 43  1  0  0  0  0
 43 41  1  0  0  0  0
M  END
>  <MODEL>
5

>  <REMARK>
 VINA RESULT:      -7.0      3.718      8.882
  Name = 
  10 active torsions:
  status: ('A' for Active; 'I' for Inactive)
    1  A    between atoms: N_1  and  C_34
    2  A    between atoms: N_1  and  C_35
    3  A    between atoms: C_2  and  C_13
    4  A    between atoms: C_3  and  C_12
    5  A    between atoms: N_6  and  C_12
    6  A    between atoms: C_9  and  N_19
    7  A    between atoms: C_9  and  C_37
    8  A    between atoms: N_11  and  C_14
    9  A    between atoms: C_14  and  C_41
   10  A    between atoms: C_22  and  C_41
                            x       y       z     vdW  Elec       q    Type
                         _______ _______ _______ _____ _____    ______ ____

>  <TORSDO>
F 10

$$$$
=
 OpenBabel11062410083D

 43 49  0  0  1  0  0  0  0  0999 V2000
  155.2220  214.0200  155.2510 C   0  0  0  0  0  0  0  0  0  0  0  0
  158.5380  212.9610  151.5430 C   0  0  0  0  0  0  0  0  0  0  0  0
  160.7470  211.5010  152.7150 C   0  0  2  0  0  3  0  0  0  0  0  0
  156.3510  213.7490  153.1050 C   0  0  0  0  0  0  0  0  0  0  0  0
  156.4780  213.5800  155.9540 C   0  0  0  0  0  2  0  0  0  0  0  0
  154.1420  214.3900  155.9810 F   0  0  0  0  0  0  0  0  0  0  0  0
  157.3970  213.0100  153.6930 C   0  0  0  0  0  0  0  0  0  0  0  0
  155.1970  214.1570  153.9220 C   0  0  0  0  0  3  0  0  0  0  0  0
  157.2660  212.5620  155.1250 C   0  0  0  0  0  2  0  0  0  0  0  0
  159.5480  211.8320  153.4790 N   0  0  0  0  0  2  0  0  0  0  0  0
  158.4960  212.6210  152.9110 C   0  0  0  0  0  0  0  0  0  0  0  0
  157.4940  213.6980  150.9740 C   0  0  0  0  0  3  0  0  0  0  0  0
  159.7130  212.5680  150.6910 C   0  0  2  0  0  3  0  0  0  0  0  0
  160.4000  211.3120  151.2390 C   0  0  0  0  0  2  0  0  0  0  0  0
  156.4020  214.0870  151.7510 C   0  0  0  0  0  3  0  0  0  0  0  0
  161.4020  210.2780  153.2610 C   0  0  0  0  0  0  0  0  0  0  0  0
  161.1280  208.9940  152.6880 N   0  0  0  0  0  2  0  0  0  0  0  0
  162.2300  210.3910  154.2030 O   0  0  0  0  0  0  0  0  0  0  0  0
  161.7460  207.7630  153.1640 C   0  0  1  0  0  3  0  0  0  0  0  0
  160.8860  207.1380  154.2490 C   0  0  0  0  0  1  0  0  0  0  0  0
  161.8720  206.7870  152.0090 C   0  0  2  0  0  3  0  0  0  0  0  0
  160.5360  206.5410  151.4250 N   0  0  2  0  0  0  0  0  0  0  0  0
  161.5660  204.8430  150.0510 N   0  0  0  0  0  2  0  0  0  0  0  0
  161.1610  205.5480  152.3100 C   0  0  1  0  0  3  0  0  0  0  0  0
  160.6460  205.9740  150.0770 C   0  0  2  0  0  3  0  0  0  0  0  0
  161.6920  204.4300  151.4360 C   0  0  0  0  0  2  0  0  0  0  0  0
  160.9720  207.0280  149.0140 C   0  0  0  0  0  2  0  0  0  0  0  0
  162.0880  206.5940  148.0730 C   0  0  0  0  0  2  0  0  0  0  0  0
  161.5600  205.6950  147.0610 N   0  0  0  0  0  0  0  0  0  0  0  0
  160.3980  205.7050  144.8690 C   0  0  0  0  0  2  0  0  0  0  0  0
  162.2800  204.2700  145.1620 C   0  0  0  0  0  2  0  0  0  0  0  0
  160.8290  204.3090  144.9720 N   0  0  0  0  0  2  0  0  0  0  0  0
  162.7100  205.0870  146.3910 C   0  0  0  0  0  2  0  0  0  0  0  0
  160.8360  206.5230  146.0930 C   0  0  0  0  0  2  0  0  0  0  0  0
  160.6620  213.6710  150.6230 N   0  0  0  0  0  2  0  0  0  0  0  0
  161.0080  212.4860  147.7370 N   0  0  0  0  0  0  0  0  0  0  0  0
  161.9590  214.4530  148.7400 C   0  0  0  0  0  2  0  0  0  0  0  0
  159.9330  213.2410  148.3590 C   0  0  0  0  0  2  0  0  0  0  0  0
  160.5690  214.2470  149.2910 C   0  0  1  0  0  3  0  0  0  0  0  0
  162.1290  213.4110  147.6530 C   0  0  0  0  0  2  0  0  0  0  0  0
  160.5880  212.1850  146.3780 C   0  0  0  0  0  2  0  0  0  0  0  0
  159.2940  213.5070  144.8700 O   0  0  0  0  0  1  0  0  0  0  0  0
  160.5040  213.4640  145.5620 C   0  0  0  0  0  2  0  0  0  0  0  0
  1  5  1  0  0  0  0
  1  6  1  0  0  0  0
  2 11  1  0  0  0  0
  3 16  1  1  0  0  0
  3 10  1  0  0  0  0
  4  7  1  0  0  0  0
  4  8  1  0  0  0  0
  7  9  1  0  0  0  0
  8  1  2  0  0  0  0
  9  5  1  0  0  0  0
 11 10  1  0  0  0  0
 11  7  2  0  0  0  0
 12  2  2  0  0  0  0
 12 15  1  0  0  0  0
 13 35  1  1  0  0  0
 13 14  1  0  0  0  0
 13  2  1  0  0  0  0
 14  3  1  0  0  0  0
 15  4  2  0  0  0  0
 16 18  2  0  0  0  0
 17 19  1  0  0  0  0
 17 16  1  0  0  0  0
 19 20  1  1  0  0  0
 21 24  1  0  0  0  0
 21 19  1  1  0  0  0
 22 21  1  0  0  0  0
 22 24  1  0  0  0  0
 23 25  1  0  0  0  0
 23 26  1  0  0  0  0
 25 22  1  0  0  0  0
 26 24  1  0  0  0  0
 27 25  1  0  0  0  0
 28 27  1  0  0  0  0
 29 28  1  0  0  0  0
 30 32  1  0  0  0  0
 30 34  1  0  0  0  0
 31 33  1  0  0  0  0
 32 31  1  0  0  0  0
 33 29  1  0  0  0  0
 34 29  1  0  0  0  0
 36 38  1  0  0  0  0
 37 39  1  0  0  0  0
 38 39  1  0  0  0  0
 39 35  1  0  0  0  0
 40 36  1  0  0  0  0
 40 37  1  0  0  0  0
 41 36  1  0  0  0  0
 42 43  1  0  0  0  0
 43 41  1  0  0  0  0
M  END
>  <MODEL>
6

>  <REMARK>
 VINA RESULT:      -6.3      3.652      7.957
  Name = 
  10 active torsions:
  status: ('A' for Active; 'I' for Inactive)
    1  A    between atoms: N_1  and  C_34
    2  A    between atoms: N_1  and  C_35
    3  A    between atoms: C_2  and  C_13
    4  A    between atoms: C_3  and  C_12
    5  A    between atoms: N_6  and  C_12
    6  A    between atoms: C_9  and  N_19
    7  A    between atoms: C_9  and  C_37
    8  A    between atoms: N_11  and  C_14
    9  A    between atoms: C_14  and  C_41
   10  A    between atoms: C_22  and  C_41
                            x       y       z     vdW  Elec       q    Type
                         _______ _______ _______ _____ _____    ______ ____

>  <TORSDO>
F 10

$$$$
=
 OpenBabel11062410083D

 43 49  0  0  1  0  0  0  0  0999 V2000
  159.5190  212.5270  154.6680 C   0  0  0  0  0  0  0  0  0  0  0  0
  160.5640  212.7250  149.6950 C   0  0  0  0  0  0  0  0  0  0  0  0
  162.0340  210.3290  148.9980 C   0  0  2  0  0  3  0  0  0  0  0  0
  159.6420  213.1320  152.3080 C   0  0  0  0  0  0  0  0  0  0  0  0
  160.5540  211.4580  154.4370 C   0  0  0  0  0  2  0  0  0  0  0  0
  159.0420  212.7340  155.9190 F   0  0  0  0  0  0  0  0  0  0  0  0
  160.3250  211.9430  151.9880 C   0  0  0  0  0  0  0  0  0  0  0  0
  159.1500  213.3460  153.6780 C   0  0  0  0  0  3  0  0  0  0  0  0
  160.4490  210.8620  153.0300 C   0  0  0  0  0  2  0  0  0  0  0  0
  161.4510  210.5200  150.3230 N   0  0  0  0  0  2  0  0  0  0  0  0
  160.7930  211.7420  150.6790 C   0  0  0  0  0  0  0  0  0  0  0  0
  159.8880  213.9030  150.0290 C   0  0  0  0  0  3  0  0  0  0  0  0
  161.0700  212.5370  148.2910 C   0  0  2  0  0  3  0  0  0  0  0  0
  161.1980  211.0500  147.9420 C   0  0  0  0  0  2  0  0  0  0  0  0
  159.4250  214.1040  151.3290 C   0  0  0  0  0  3  0  0  0  0  0  0
  162.1500  208.8780  148.6740 C   0  0  0  0  0  0  0  0  0  0  0  0
  160.9880  208.0400  148.6860 N   0  0  0  0  0  2  0  0  0  0  0  0
  163.2720  208.4070  148.3510 O   0  0  0  0  0  0  0  0  0  0  0  0
  161.0300  206.6190  148.3640 C   0  0  1  0  0  3  0  0  0  0  0  0
  161.9120  206.3910  147.1480 C   0  0  0  0  0  1  0  0  0  0  0  0
  161.6030  205.8550  149.5420 C   0  0  2  0  0  3  0  0  0  0  0  0
  160.5070  205.1840  150.2730 N   0  0  2  0  0  0  0  0  0  0  0  0
  162.1390  204.5720  151.9450 N   0  0  0  0  0  2  0  0  0  0  0  0
  161.1140  206.4160  150.7980 C   0  0  1  0  0  3  0  0  0  0  0  0
  161.0240  204.1100  151.1280 C   0  0  2  0  0  3  0  0  0  0  0  0
  162.0410  206.0210  151.9290 C   0  0  0  0  0  2  0  0  0  0  0  0
  161.3500  202.8340  150.3460 C   0  0  0  0  0  2  0  0  0  0  0  0
  160.1050  202.0830  149.8940 C   0  0  0  0  0  2  0  0  0  0  0  0
  160.2440  201.6890  148.5030 N   0  0  0  0  0  0  0  0  0  0  0  0
  161.2060  202.4620  146.3500 C   0  0  0  0  0  2  0  0  0  0  0  0
  161.5780  200.2060  147.0270 C   0  0  0  0  0  2  0  0  0  0  0  0
  160.8970  201.0610  146.0530 N   0  0  0  0  0  2  0  0  0  0  0  0
  161.1940  200.5760  148.4690 C   0  0  0  0  0  2  0  0  0  0  0  0
  160.8310  202.8290  147.7940 C   0  0  0  0  0  2  0  0  0  0  0  0
  162.3580  213.2010  148.1410 N   0  0  0  0  0  2  0  0  0  0  0  0
  161.2820  213.4670  145.2030 N   0  0  0  0  0  0  0  0  0  0  0  0
  163.2720  214.3520  146.2220 C   0  0  0  0  0  2  0  0  0  0  0  0
  160.9020  214.1210  146.4440 C   0  0  0  0  0  2  0  0  0  0  0  0
  162.1650  214.3330  147.2480 C   0  0  1  0  0  3  0  0  0  0  0  0
  162.6260  213.9450  144.9120 C   0  0  0  0  0  2  0  0  0  0  0  0
  160.4030  213.9780  144.1650 C   0  0  0  0  0  2  0  0  0  0  0  0
  159.9840  211.8040  143.2750 O   0  0  0  0  0  1  0  0  0  0  0  0
  159.3600  212.9350  143.8020 C   0  0  0  0  0  2  0  0  0  0  0  0
  1  6  1  0  0  0  0
  2 12  2  0  0  0  0
  2 11  1  0  0  0  0
  3 16  1  6  0  0  0
  3 10  1  0  0  0  0
  4  8  1  0  0  0  0
  5  1  1  0  0  0  0
  7  4  1  0  0  0  0
  7  9  1  0  0  0  0
  8  1  2  0  0  0  0
  9  5  1  0  0  0  0
 10 11  1  0  0  0  0
 11  7  2  0  0  0  0
 12 15  1  0  0  0  0
 13 35  1  1  0  0  0
 13  2  1  0  0  0  0
 14 13  1  0  0  0  0
 14  3  1  0  0  0  0
 15  4  2  0  0  0  0
 16 17  1  0  0  0  0
 18 16  2  0  0  0  0
 19 20  1  6  0  0  0
 19 17  1  0  0  0  0
 21 19  1  6  0  0  0
 21 22  1  0  0  0  0
 21 24  1  0  0  0  0
 22 24  1  0  0  0  0
 22 25  1  0  0  0  0
 24 26  1  0  0  0  0
 25 23  1  0  0  0  0
 26 23  1  0  0  0  0
 27 25  1  0  0  0  0
 28 27  1  0  0  0  0
 29 28  1  0  0  0  0
 30 34  1  0  0  0  0
 31 33  1  0  0  0  0
 32 30  1  0  0  0  0
 32 31  1  0  0  0  0
 33 29  1  0  0  0  0
 34 29  1  0  0  0  0
 36 38  1  0  0  0  0
 37 39  1  0  0  0  0
 38 39  1  0  0  0  0
 39 35  1  0  0  0  0
 40 36  1  0  0  0  0
 40 37  1  0  0  0  0
 41 36  1  0  0  0  0
 42 43  1  0  0  0  0
 43 41  1  0  0  0  0
M  END
>  <MODEL>
7

>  <REMARK>
 VINA RESULT:      -5.7      2.656      8.780
  Name = 
  10 active torsions:
  status: ('A' for Active; 'I' for Inactive)
    1  A    between atoms: N_1  and  C_34
    2  A    between atoms: N_1  and  C_35
    3  A    between atoms: C_2  and  C_13
    4  A    between atoms: C_3  and  C_12
    5  A    between atoms: N_6  and  C_12
    6  A    between atoms: C_9  and  N_19
    7  A    between atoms: C_9  and  C_37
    8  A    between atoms: N_11  and  C_14
    9  A    between atoms: C_14  and  C_41
   10  A    between atoms: C_22  and  C_41
                            x       y       z     vdW  Elec       q    Type
                         _______ _______ _______ _____ _____    ______ ____

>  <TORSDO>
F 10

$$$$
=
 OpenBabel11062410083D

 43 49  0  0  1  0  0  0  0  0999 V2000
  158.6130  213.5840  155.6310 C   0  0  0  0  0  0  0  0  0  0  0  0
  160.1890  212.2200  150.9920 C   0  0  0  0  0  0  0  0  0  0  0  0
  161.9930  209.9750  151.2900 C   0  0  2  0  0  3  0  0  0  0  0  0
  158.9340  213.3560  153.2230 C   0  0  0  0  0  0  0  0  0  0  0  0
  159.7830  212.6660  155.8630 C   0  0  0  0  0  2  0  0  0  0  0  0
  157.9760  214.1350  156.6930 F   0  0  0  0  0  0  0  0  0  0  0  0
  159.7810  212.2430  153.3920 C   0  0  0  0  0  0  0  0  0  0  0  0
  158.2670  213.9510  154.3930 C   0  0  0  0  0  3  0  0  0  0  0  0
  159.9080  211.6160  154.7550 C   0  0  0  0  0  2  0  0  0  0  0  0
  161.2440  210.5190  152.4190 N   0  0  0  0  0  2  0  0  0  0  0  0
  160.4150  211.6780  152.2740 C   0  0  0  0  0  0  0  0  0  0  0  0
  159.3480  213.3280  150.8410 C   0  0  0  0  0  3  0  0  0  0  0  0
  160.8700  211.6400  149.7840 C   0  0  2  0  0  3  0  0  0  0  0  0
  161.2050  210.1590  149.9930 C   0  0  0  0  0  2  0  0  0  0  0  0
  158.7200  213.8920  151.9520 C   0  0  0  0  0  3  0  0  0  0  0  0
  162.3100  208.5340  151.5100 C   0  0  0  0  0  0  0  0  0  0  0  0
  161.7020  207.8170  152.5910 N   0  0  0  0  0  2  0  0  0  0  0  0
  163.0850  207.9450  150.7110 O   0  0  0  0  0  0  0  0  0  0  0  0
  161.9560  206.4060  152.8510 C   0  0  1  0  0  3  0  0  0  0  0  0
  160.9350  205.8710  153.8400 C   0  0  0  0  0  1  0  0  0  0  0  0
  161.8440  205.6290  151.5530 C   0  0  2  0  0  3  0  0  0  0  0  0
  160.4560  205.7100  151.0510 N   0  0  2  0  0  0  0  0  0  0  0  0
  161.0910  204.1160  149.3510 N   0  0  0  0  0  2  0  0  0  0  0  0
  160.9420  204.4930  151.7170 C   0  0  1  0  0  3  0  0  0  0  0  0
  160.3900  205.3640  149.6270 C   0  0  2  0  0  3  0  0  0  0  0  0
  161.2170  203.4630  150.6410 C   0  0  0  0  0  2  0  0  0  0  0  0
  160.8390  206.5110  148.7160 C   0  0  0  0  0  2  0  0  0  0  0  0
  162.2080  206.2690  148.0930 C   0  0  0  0  0  2  0  0  0  0  0  0
  162.0730  206.0890  146.6580 N   0  0  0  0  0  0  0  0  0  0  0  0
  162.2300  204.3510  144.8940 C   0  0  0  0  0  2  0  0  0  0  0  0
  160.3570  205.8270  144.8860 C   0  0  0  0  0  2  0  0  0  0  0  0
  161.5800  205.4490  144.1750 N   0  0  0  0  0  2  0  0  0  0  0  0
  160.6480  206.2030  146.3480 C   0  0  0  0  0  2  0  0  0  0  0  0
  162.5120  204.7240  146.3580 C   0  0  0  0  0  2  0  0  0  0  0  0
  162.0810  212.3940  149.4930 N   0  0  0  0  0  2  0  0  0  0  0  0
  161.3680  212.5850  146.4420 N   0  0  0  0  0  0  0  0  0  0  0  0
  162.8980  213.8800  147.7710 C   0  0  0  0  0  2  0  0  0  0  0  0
  160.6680  213.0260  147.6370 C   0  0  0  0  0  2  0  0  0  0  0  0
  161.7110  213.4990  148.6230 C   0  0  1  0  0  3  0  0  0  0  0  0
  162.5620  213.4160  146.3670 C   0  0  0  0  0  2  0  0  0  0  0  0
  160.5280  212.9260  145.3050 C   0  0  0  0  0  2  0  0  0  0  0  0
  158.2220  213.3130  144.8300 O   0  0  0  0  0  1  0  0  0  0  0  0
  159.0900  212.5170  145.5770 C   0  0  0  0  0  2  0  0  0  0  0  0
  1  5  1  0  0  0  0
  1  6  1  0  0  0  0
  2 11  1  0  0  0  0
  3 16  1  1  0  0  0
  3 10  1  0  0  0  0
  4  7  1  0  0  0  0
  4  8  1  0  0  0  0
  7  9  1  0  0  0  0
  8  1  2  0  0  0  0
  9  5  1  0  0  0  0
 11 10  1  0  0  0  0
 11  7  2  0  0  0  0
 12  2  2  0  0  0  0
 12 15  1  0  0  0  0
 13 35  1  1  0  0  0
 13 14  1  0  0  0  0
 13  2  1  0  0  0  0
 14  3  1  0  0  0  0
 15  4  2  0  0  0  0
 16 17  1  0  0  0  0
 17 19  1  0  0  0  0
 18 16  2  0  0  0  0
 19 20  1  1  0  0  0
 21 24  1  0  0  0  0
 21 19  1  1  0  0  0
 22 21  1  0  0  0  0
 22 24  1  0  0  0  0
 23 25  1  0  0  0  0
 23 26  1  0  0  0  0
 25 22  1  0  0  0  0
 26 24  1  0  0  0  0
 27 25  1  0  0  0  0
 28 27  1  0  0  0  0
 29 28  1  0  0  0  0
 30 34  1  0  0  0  0
 31 33  1  0  0  0  0
 32 31  1  0  0  0  0
 32 30  1  0  0  0  0
 33 29  1  0  0  0  0
 34 29  1  0  0  0  0
 36 38  1  0  0  0  0
 37 39  1  0  0  0  0
 38 39  1  0  0  0  0
 39 35  1  0  0  0  0
 40 36  1  0  0  0  0
 40 37  1  0  0  0  0
 41 43  1  0  0  0  0
 41 36  1  0  0  0  0
 42 43  1  0  0  0  0
M  END
>  <MODEL>
8

>  <REMARK>
 VINA RESULT:      -5.5      2.869      7.654
  Name = 
  10 active torsions:
  status: ('A' for Active; 'I' for Inactive)
    1  A    between atoms: N_1  and  C_34
    2  A    between atoms: N_1  and  C_35
    3  A    between atoms: C_2  and  C_13
    4  A    between atoms: C_3  and  C_12
    5  A    between atoms: N_6  and  C_12
    6  A    between atoms: C_9  and  N_19
    7  A    between atoms: C_9  and  C_37
    8  A    between atoms: N_11  and  C_14
    9  A    between atoms: C_14  and  C_41
   10  A    between atoms: C_22  and  C_41
                            x       y       z     vdW  Elec       q    Type
                         _______ _______ _______ _____ _____    ______ ____

>  <TORSDO>
F 10

$$$$
=
 OpenBabel11062410083D

 43 49  0  0  1  0  0  0  0  0999 V2000
  158.7880  213.5970  154.8190 C   0  0  0  0  0  0  0  0  0  0  0  0
  160.3260  212.6480  150.0650 C   0  0  0  0  0  0  0  0  0  0  0  0
  161.9440  210.2470  150.1150 C   0  0  2  0  0  3  0  0  0  0  0  0
  159.1290  213.6200  152.4030 C   0  0  0  0  0  0  0  0  0  0  0  0
  159.8790  212.5680  154.9520 C   0  0  0  0  0  2  0  0  0  0  0  0
  158.1790  214.0720  155.9320 F   0  0  0  0  0  0  0  0  0  0  0  0
  159.8830  212.4310  152.4490 C   0  0  0  0  0  0  0  0  0  0  0  0
  158.4920  214.1290  153.6280 C   0  0  0  0  0  3  0  0  0  0  0  0
  159.9390  211.6440  153.7320 C   0  0  0  0  0  2  0  0  0  0  0  0
  161.2230  210.7170  151.2940 N   0  0  0  0  0  2  0  0  0  0  0  0
  160.4880  211.9480  151.2780 C   0  0  0  0  0  0  0  0  0  0  0  0
  159.5780  213.8290  150.0360 C   0  0  0  0  0  3  0  0  0  0  0  0
  160.9790  212.1570  148.8020 C   0  0  2  0  0  3  0  0  0  0  0  0
  161.1940  210.6400  148.8430 C   0  0  0  0  0  2  0  0  0  0  0  0
  158.9770  214.3110  151.2000 C   0  0  0  0  0  3  0  0  0  0  0  0
  162.1440  208.7700  150.1710 C   0  0  0  0  0  0  0  0  0  0  0  0
  161.7440  207.9440  149.0720 N   0  0  0  0  0  2  0  0  0  0  0  0
  162.7070  208.2630  151.1780 O   0  0  0  0  0  0  0  0  0  0  0  0
  161.9260  206.4980  149.0570 C   0  0  1  0  0  3  0  0  0  0  0  0
  161.2080  205.8740  150.2410 C   0  0  0  0  0  1  0  0  0  0  0  0
  161.3470  205.9340  147.7730 C   0  0  2  0  0  3  0  0  0  0  0  0
  162.4220  205.8000  146.7660 N   0  0  2  0  0  0  0  0  0  0  0  0
  160.7080  205.2130  145.1700 N   0  0  0  0  0  2  0  0  0  0  0  0
  161.4600  206.9090  146.6930 C   0  0  1  0  0  3  0  0  0  0  0  0
  162.0270  204.8820  145.6930 C   0  0  2  0  0  3  0  0  0  0  0  0
  160.4650  206.5780  145.5990 C   0  0  0  0  0  2  0  0  0  0  0  0
  162.1520  203.4090  146.0960 C   0  0  0  0  0  2  0  0  0  0  0  0
  160.8280  202.6610  146.0220 C   0  0  0  0  0  2  0  0  0  0  0  0
  160.5860  201.9600  147.2710 N   0  0  0  0  0  0  0  0  0  0  0  0
  161.5500  200.2020  148.7330 C   0  0  0  0  0  2  0  0  0  0  0  0
  160.8020  202.2370  149.7270 C   0  0  0  0  0  2  0  0  0  0  0  0
  160.5420  200.8010  149.6110 N   0  0  0  0  0  2  0  0  0  0  0  0
  160.8290  202.9190  148.3500 C   0  0  0  0  0  2  0  0  0  0  0  0
  161.5830  200.8910  147.3600 C   0  0  0  0  0  2  0  0  0  0  0  0
  162.2500  212.8410  148.6090 N   0  0  0  0  0  2  0  0  0  0  0  0
  161.3800  213.2200  145.6170 N   0  0  0  0  0  0  0  0  0  0  0  0
  163.1700  214.2340  146.8610 C   0  0  0  0  0  2  0  0  0  0  0  0
  160.8320  213.7270  146.8640 C   0  0  0  0  0  2  0  0  0  0  0  0
  161.9960  214.0120  147.7850 C   0  0  1  0  0  3  0  0  0  0  0  0
  162.6780  213.8640  145.4760 C   0  0  0  0  0  2  0  0  0  0  0  0
  160.5300  213.7130  144.5450 C   0  0  0  0  0  2  0  0  0  0  0  0
  160.0800  211.5830  143.5670 O   0  0  0  0  0  1  0  0  0  0  0  0
  159.4780  212.6750  144.1930 C   0  0  0  0  0  2  0  0  0  0  0  0
  1  5  1  0  0  0  0
  1  6  1  0  0  0  0
  2 11  1  0  0  0  0
  3 16  1  1  0  0  0
  3 10  1  0  0  0  0
  4  7  1  0  0  0  0
  4  8  1  0  0  0  0
  7  9  1  0  0  0  0
  8  1  2  0  0  0  0
  9  5  1  0  0  0  0
 11 10  1  0  0  0  0
 11  7  2  0  0  0  0
 12  2  2  0  0  0  0
 12 15  1  0  0  0  0
 13 35  1  1  0  0  0
 13 14  1  0  0  0  0
 13  2  1  0  0  0  0
 14  3  1  0  0  0  0
 15  4  2  0  0  0  0
 16 18  2  0  0  0  0
 17 16  1  0  0  0  0
 19 17  1  0  0  0  0
 19 20  1  1  0  0  0
 21 19  1  1  0  0  0
 22 21  1  0  0  0  0
 23 26  1  0  0  0  0
 23 25  1  0  0  0  0
 24 22  1  0  0  0  0
 24 21  1  0  0  0  0
 25 27  1  0  0  0  0
 25 22  1  0  0  0  0
 26 24  1  0  0  0  0
 28 27  1  0  0  0  0
 28 29  1  0  0  0  0
 29 34  1  0  0  0  0
 29 33  1  0  0  0  0
 30 32  1  0  0  0  0
 32 31  1  0  0  0  0
 33 31  1  0  0  0  0
 34 30  1  0  0  0  0
 36 38  1  0  0  0  0
 37 39  1  0  0  0  0
 38 39  1  0  0  0  0
 39 35  1  0  0  0  0
 40 36  1  0  0  0  0
 40 37  1  0  0  0  0
 41 36  1  0  0  0  0
 42 43  1  0  0  0  0
 43 41  1  0  0  0  0
M  END
>  <MODEL>
9

>  <REMARK>
 VINA RESULT:      -5.3      3.013      8.477
  Name = 
  10 active torsions:
  status: ('A' for Active; 'I' for Inactive)
    1  A    between atoms: N_1  and  C_34
    2  A    between atoms: N_1  and  C_35
    3  A    between atoms: C_2  and  C_13
    4  A    between atoms: C_3  and  C_12
    5  A    between atoms: N_6  and  C_12
    6  A    between atoms: C_9  and  N_19
    7  A    between atoms: C_9  and  C_37
    8  A    between atoms: N_11  and  C_14
    9  A    between atoms: C_14  and  C_41
   10  A    between atoms: C_22  and  C_41
                            x       y       z     vdW  Elec       q    Type
                         _______ _______ _______ _____ _____    ______ ____

>  <TORSDO>
F 10

$$$$
