=
 OpenBabel11062409383D

 34 39  0  0  1  0  0  0  0  0999 V2000
  160.8030  209.1900  153.0520 C   0  0  0  0  0  0  0  0  0  0  0  0
  160.4990  212.5790  151.6700 C   0  0  0  0  0  3  0  0  0  0  0  0
  160.5280  211.8130  153.7900 O   0  0  0  0  0  0  0  0  0  0  0  0
  160.8420  206.8620  153.5880 C   0  0  0  0  0  0  0  0  0  0  0  0
  160.9410  207.8800  152.6960 N   0  0  0  0  0  0  0  0  0  0  0  0
  160.4600  208.4660  155.3500 C   0  0  0  0  0  0  0  0  0  0  0  0
  160.1990  208.6880  156.8030 C   0  0  0  0  0  1  0  0  0  0  0  0
  160.5970  207.1450  154.9280 C   0  0  0  0  0  3  0  0  0  0  0  0
  160.9840  205.4940  153.1810 N   0  0  0  0  0  2  0  0  0  0  0  0
  160.4810  210.8890  154.7410 C   0  0  0  0  0  0  0  0  0  0  0  0
  160.5670  209.5200  154.4060 C   0  0  0  0  0  0  0  0  0  0  0  0
  160.3410  211.2650  155.9340 O   0  0  0  0  0  0  0  0  0  0  0  0
  160.3190  212.4960  150.1920 C   0  0  0  0  0  2  0  0  0  0  0  0
  161.5000  211.9250  149.4940 C   0  0  0  0  0  0  0  0  0  0  0  0
  161.9490  210.7080  149.7900 C   0  0  0  0  0  3  0  0  0  0  0  0
  160.6820  211.5440  152.4980 C   0  0  0  0  0  0  0  0  0  0  0  0
  161.4840  209.8550  150.8980 C   0  0  0  0  0  3  0  0  0  0  0  0
  160.9460  210.2070  152.0860 C   0  0  0  0  0  0  0  0  0  0  0  0
  161.2420  203.1290  150.2640 C   0  0  0  0  0  3  0  0  0  0  0  0
  161.5460  205.9060  150.9040 C   0  0  0  0  0  3  0  0  0  0  0  0
  161.2380  204.7510  146.8710 N   0  0  0  0  0  0  0  0  0  0  0  0
  161.0810  204.3630  145.4980 C   0  0  0  0  0  0  0  0  0  0  0  0
  161.1630  203.7610  147.9110 C   0  0  0  0  0  3  0  0  0  0  0  0
  161.0760  205.2340  144.5880 O   0  0  0  0  0  0  0  0  0  0  0  0
  161.4040  204.1020  149.1780 C   0  0  0  0  0  0  0  0  0  0  0  0
  160.9330  202.9900  145.1480 N   0  0  0  0  0  1  0  0  0  0  0  0
  161.5820  206.5140  148.4780 C   0  0  0  0  0  3  0  0  0  0  0  0
  161.9240  205.4790  149.5130 C   0  0  1  0  0  3  0  0  0  0  0  0
  161.3110  206.1440  147.2230 C   0  0  0  0  0  3  0  0  0  0  0  0
  161.2640  205.0100  151.8610 C   0  0  0  0  0  0  0  0  0  0  0  0
  161.1910  203.5630  151.5280 C   0  0  0  0  0  3  0  0  0  0  0  0
  162.1530  212.7040  148.3910 C   0  0  2  0  0  3  0  0  0  0  0  0
  161.3360  213.8560  148.0060 C   0  0  0  0  0  2  0  0  0  0  0  0
  161.3210  212.6480  147.1730 N   0  0  0  0  0  2  0  0  0  0  0  0
  1 11  2  0  0  0  0
  2 16  2  0  0  0  0
  3 10  1  0  0  0  0
  4  8  1  0  0  0  0
  5  1  1  0  0  0  0
  5  4  2  0  0  0  0
  6  7  1  0  0  0  0
  8  6  2  0  0  0  0
  9  4  1  0  0  0  0
 10 12  2  0  0  0  0
 11 10  1  0  0  0  0
 11  6  1  0  0  0  0
 13  2  1  0  0  0  0
 14 15  2  0  0  0  0
 14 13  1  0  0  0  0
 15 17  1  0  0  0  0
 16  3  1  0  0  0  0
 17 18  2  0  0  0  0
 18 16  1  0  0  0  0
 18  1  1  0  0  0  0
 19 31  2  0  0  0  0
 20 30  2  0  0  0  0
 21 29  1  0  0  0  0
 21 23  1  0  0  0  0
 22 21  1  0  0  0  0
 23 25  2  0  0  0  0
 24 22  2  0  0  0  0
 25 28  1  0  0  0  0
 25 19  1  0  0  0  0
 26 22  1  0  0  0  0
 28 27  1  6  0  0  0
 28 20  1  0  0  0  0
 29 27  2  0  0  0  0
 30  9  1  0  0  0  0
 31 30  1  0  0  0  0
 32 14  1  1  0  0  0
 33 32  1  0  0  0  0
 34 33  1  0  0  0  0
 34 32  1  0  0  0  0
M  END
>  <MODEL>
1

>  <REMARK>
 VINA RESULT:      -9.8      0.000      0.000
  Name = 
  2 active torsions:
  status: ('A' for Active; 'I' for Inactive)
    1  A    between atoms: C_3  and  C_25
    2  A    between atoms: N_18  and  C_30
                            x       y       z     vdW  Elec       q    Type
                         _______ _______ _______ _____ _____    ______ ____

>  <TORSDO>
F 2

$$$$
=
 OpenBabel11062409383D

 34 39  0  0  1  0  0  0  0  0999 V2000
  161.2860  207.2910  150.5980 C   0  0  0  0  0  0  0  0  0  0  0  0
  161.4490  204.1360  148.7250 C   0  0  0  0  0  3  0  0  0  0  0  0
  161.0900  204.5770  150.9060 O   0  0  0  0  0  0  0  0  0  0  0  0
  161.4210  209.4940  151.5130 C   0  0  0  0  0  0  0  0  0  0  0  0
  161.3800  208.6450  150.4550 N   0  0  0  0  0  0  0  0  0  0  0  0
  161.2490  207.6090  153.0090 C   0  0  0  0  0  0  0  0  0  0  0  0
  161.1870  207.1380  154.4250 C   0  0  0  0  0  1  0  0  0  0  0  0
  161.3590  208.9830  152.8060 C   0  0  0  0  0  3  0  0  0  0  0  0
  161.5290  210.9120  151.3300 N   0  0  0  0  0  2  0  0  0  0  0  0
  161.0580  205.3340  151.9960 C   0  0  0  0  0  0  0  0  0  0  0  0
  161.2060  206.7330  151.8940 C   0  0  0  0  0  0  0  0  0  0  0  0
  160.9110  204.7690  153.1110 O   0  0  0  0  0  0  0  0  0  0  0  0
  161.9280  204.4070  147.3390 C   0  0  0  0  0  2  0  0  0  0  0  0
  160.9870  205.2470  146.5520 C   0  0  0  0  0  0  0  0  0  0  0  0
  160.6390  206.4610  146.9700 C   0  0  0  0  0  3  0  0  0  0  0  0
  161.2310  205.0540  149.6740 C   0  0  0  0  0  0  0  0  0  0  0  0
  160.9730  207.0610  148.2740 C   0  0  0  0  0  3  0  0  0  0  0  0
  161.2170  206.4610  149.4600 C   0  0  0  0  0  0  0  0  0  0  0  0
  162.6600  211.9450  147.8920 C   0  0  0  0  0  3  0  0  0  0  0  0
  160.5420  212.4120  149.7650 C   0  0  0  0  0  3  0  0  0  0  0  0
  160.0340  213.5890  145.7590 N   0  0  0  0  0  0  0  0  0  0  0  0
  159.8390  213.9440  144.3820 C   0  0  0  0  0  0  0  0  0  0  0  0
  161.2480  212.9360  146.1700 C   0  0  0  0  0  3  0  0  0  0  0  0
  158.7510  214.4520  144.0040 O   0  0  0  0  0  0  0  0  0  0  0  0
  161.4730  212.6930  147.4610 C   0  0  0  0  0  0  0  0  0  0  0  0
  160.8750  213.7280  143.4280 N   0  0  0  0  0  1  0  0  0  0  0  0
  159.1630  213.5310  148.0060 C   0  0  0  0  0  3  0  0  0  0  0  0
  160.5470  213.2480  148.5160 C   0  0  1  0  0  3  0  0  0  0  0  0
  158.9570  213.7380  146.7020 C   0  0  0  0  0  3  0  0  0  0  0  0
  161.5780  211.6220  150.0850 C   0  0  0  0  0  0  0  0  0  0  0  0
  162.7090  211.4550  149.1350 C   0  0  0  0  0  3  0  0  0  0  0  0
  160.4790  204.7470  145.2330 C   0  0  2  0  0  3  0  0  0  0  0  0
  161.0920  203.4640  144.8860 C   0  0  0  0  0  2  0  0  0  0  0  0
  161.5810  204.6950  144.2540 N   0  0  0  0  0  2  0  0  0  0  0  0
  1 11  2  0  0  0  0
  2 16  2  0  0  0  0
  3 10  1  0  0  0  0
  4  8  1  0  0  0  0
  5  1  1  0  0  0  0
  5  4  2  0  0  0  0
  6  7  1  0  0  0  0
  8  6  2  0  0  0  0
  9  4  1  0  0  0  0
 10 12  2  0  0  0  0
 11 10  1  0  0  0  0
 11  6  1  0  0  0  0
 13  2  1  0  0  0  0
 14 15  2  0  0  0  0
 14 13  1  0  0  0  0
 15 17  1  0  0  0  0
 16  3  1  0  0  0  0
 17 18  2  0  0  0  0
 18 16  1  0  0  0  0
 18  1  1  0  0  0  0
 19 31  2  0  0  0  0
 20 30  2  0  0  0  0
 21 23  1  0  0  0  0
 21 29  1  0  0  0  0
 22 21  1  0  0  0  0
 23 25  2  0  0  0  0
 24 22  2  0  0  0  0
 25 19  1  0  0  0  0
 25 28  1  0  0  0  0
 26 22  1  0  0  0  0
 28 27  1  6  0  0  0
 28 20  1  0  0  0  0
 29 27  2  0  0  0  0
 30  9  1  0  0  0  0
 31 30  1  0  0  0  0
 32 14  1  1  0  0  0
 33 32  1  0  0  0  0
 34 33  1  0  0  0  0
 34 32  1  0  0  0  0
M  END
>  <MODEL>
2

>  <REMARK>
 VINA RESULT:      -9.4      2.842      7.311
  Name = 
  2 active torsions:
  status: ('A' for Active; 'I' for Inactive)
    1  A    between atoms: C_3  and  C_25
    2  A    between atoms: N_18  and  C_30
                            x       y       z     vdW  Elec       q    Type
                         _______ _______ _______ _____ _____    ______ ____

>  <TORSDO>
F 2

$$$$
=
 OpenBabel11062409383D

 34 39  0  0  1  0  0  0  0  0999 V2000
  160.5000  210.0350  153.8440 C   0  0  0  0  0  0  0  0  0  0  0  0
  158.9580  213.3610  153.6150 C   0  0  0  0  0  3  0  0  0  0  0  0
  160.0840  212.3330  155.2750 O   0  0  0  0  0  0  0  0  0  0  0  0
  161.2260  207.7630  153.7040 C   0  0  0  0  0  0  0  0  0  0  0  0
  160.7150  208.8870  153.1390 N   0  0  0  0  0  0  0  0  0  0  0  0
  161.3730  208.9150  155.8190 C   0  0  0  0  0  0  0  0  0  0  0  0
  161.7550  208.8370  157.2610 C   0  0  0  0  0  1  0  0  0  0  0  0
  161.5590  207.7640  155.0550 C   0  0  0  0  0  3  0  0  0  0  0  0
  161.4320  206.5690  152.9380 N   0  0  0  0  0  2  0  0  0  0  0  0
  160.6490  211.3040  155.8950 C   0  0  0  0  0  0  0  0  0  0  0  0
  160.8380  210.0820  155.2150 C   0  0  0  0  0  0  0  0  0  0  0  0
  160.9900  211.4450  157.0990 O   0  0  0  0  0  0  0  0  0  0  0  0
  158.1540  213.4480  152.3630 C   0  0  0  0  0  2  0  0  0  0  0  0
  158.9810  213.3470  151.1320 C   0  0  0  0  0  0  0  0  0  0  0  0
  159.7410  212.2800  150.9030 C   0  0  0  0  0  3  0  0  0  0  0  0
  159.6900  212.3110  154.0070 C   0  0  0  0  0  0  0  0  0  0  0  0
  159.9980  211.1760  151.8450 C   0  0  0  0  0  3  0  0  0  0  0  0
  159.9940  211.1820  153.1960 C   0  0  0  0  0  0  0  0  0  0  0  0
  161.2340  207.3100  149.2530 C   0  0  0  0  0  3  0  0  0  0  0  0
  160.9100  205.1450  151.1020 C   0  0  0  0  0  3  0  0  0  0  0  0
  161.2940  204.2990  146.9990 N   0  0  0  0  0  0  0  0  0  0  0  0
  161.4770  204.0060  145.6060 C   0  0  0  0  0  0  0  0  0  0  0  0
  161.3530  205.6590  147.4630 C   0  0  0  0  0  3  0  0  0  0  0  0
  161.4960  202.8130  145.2040 O   0  0  0  0  0  0  0  0  0  0  0  0
  161.0880  205.9430  148.7380 C   0  0  0  0  0  0  0  0  0  0  0  0
  161.6350  205.0610  144.6620 N   0  0  0  0  0  1  0  0  0  0  0  0
  160.9160  203.4810  149.2350 C   0  0  0  0  0  3  0  0  0  0  0  0
  160.5580  204.8760  149.6650 C   0  0  1  0  0  3  0  0  0  0  0  0
  161.2110  203.2280  147.9560 C   0  0  0  0  0  3  0  0  0  0  0  0
  161.1770  206.3840  151.5390 C   0  0  0  0  0  0  0  0  0  0  0  0
  161.2610  207.5120  150.5740 C   0  0  0  0  0  3  0  0  0  0  0  0
  158.9040  214.4330  150.1010 C   0  0  2  0  0  3  0  0  0  0  0  0
  157.5900  214.4530  149.4550 C   0  0  0  0  0  2  0  0  0  0  0  0
  158.7300  213.8440  148.7600 N   0  0  0  0  0  2  0  0  0  0  0  0
  1 11  2  0  0  0  0
  2 16  2  0  0  0  0
  3 10  1  0  0  0  0
  4  8  1  0  0  0  0
  5  4  2  0  0  0  0
  5  1  1  0  0  0  0
  6  7  1  0  0  0  0
  8  6  2  0  0  0  0
  9  4  1  0  0  0  0
 10 12  2  0  0  0  0
 11  6  1  0  0  0  0
 11 10  1  0  0  0  0
 13  2  1  0  0  0  0
 14 13  1  0  0  0  0
 15 14  2  0  0  0  0
 15 17  1  0  0  0  0
 16  3  1  0  0  0  0
 17 18  2  0  0  0  0
 18  1  1  0  0  0  0
 18 16  1  0  0  0  0
 19 31  2  0  0  0  0
 20 30  2  0  0  0  0
 21 23  1  0  0  0  0
 21 29  1  0  0  0  0
 22 21  1  0  0  0  0
 23 25  2  0  0  0  0
 24 22  2  0  0  0  0
 25 19  1  0  0  0  0
 25 28  1  0  0  0  0
 26 22  1  0  0  0  0
 28 27  1  6  0  0  0
 28 20  1  0  0  0  0
 29 27  2  0  0  0  0
 30  9  1  0  0  0  0
 31 30  1  0  0  0  0
 32 14  1  1  0  0  0
 33 32  1  0  0  0  0
 34 33  1  0  0  0  0
 34 32  1  0  0  0  0
M  END
>  <MODEL>
3

>  <REMARK>
 VINA RESULT:      -9.2      1.661      2.355
  Name = 
  2 active torsions:
  status: ('A' for Active; 'I' for Inactive)
    1  A    between atoms: C_3  and  C_25
    2  A    between atoms: N_18  and  C_30
                            x       y       z     vdW  Elec       q    Type
                         _______ _______ _______ _____ _____    ______ ____

>  <TORSDO>
F 2

$$$$
=
 OpenBabel11062409383D

 34 39  0  0  1  0  0  0  0  0999 V2000
  160.4880  209.8540  153.3260 C   0  0  0  0  0  0  0  0  0  0  0  0
  161.8100  206.4410  153.6290 C   0  0  0  0  0  3  0  0  0  0  0  0
  160.8560  207.8270  155.1290 O   0  0  0  0  0  0  0  0  0  0  0  0
  159.8910  212.1100  152.8100 C   0  0  0  0  0  0  0  0  0  0  0  0
  160.2980  210.8700  152.4350 N   0  0  0  0  0  0  0  0  0  0  0  0
  159.8110  211.3690  155.1050 C   0  0  0  0  0  0  0  0  0  0  0  0
  159.5280  211.7310  156.5260 C   0  0  0  0  0  1  0  0  0  0  0  0
  159.6460  212.3740  154.1540 C   0  0  0  0  0  3  0  0  0  0  0  0
  159.7090  213.1590  151.8500 N   0  0  0  0  0  2  0  0  0  0  0  0
  160.3940  208.9870  155.5790 C   0  0  0  0  0  0  0  0  0  0  0  0
  160.2360  210.0780  154.6980 C   0  0  0  0  0  0  0  0  0  0  0  0
  160.1230  209.0880  156.8040 O   0  0  0  0  0  0  0  0  0  0  0  0
  162.5260  206.0750  152.3740 C   0  0  0  0  0  2  0  0  0  0  0  0
  161.6290  206.0120  151.1900 C   0  0  0  0  0  0  0  0  0  0  0  0
  160.9210  207.0720  150.8090 C   0  0  0  0  0  3  0  0  0  0  0  0
  161.1690  207.5930  153.8590 C   0  0  0  0  0  0  0  0  0  0  0  0
  160.7920  208.3420  151.5460 C   0  0  0  0  0  3  0  0  0  0  0  0
  160.8810  208.5780  152.8730 C   0  0  0  0  0  0  0  0  0  0  0  0
  159.0970  213.6870  148.1740 C   0  0  0  0  0  3  0  0  0  0  0  0
  161.0390  212.5740  149.9630 C   0  0  0  0  0  3  0  0  0  0  0  0
  162.1220  213.3270  145.9690 N   0  0  0  0  0  0  0  0  0  0  0  0
  162.5090  213.6320  144.6210 C   0  0  0  0  0  0  0  0  0  0  0  0
  160.8000  213.6520  146.4300 C   0  0  0  0  0  3  0  0  0  0  0  0
  163.6860  213.4140  144.2320 O   0  0  0  0  0  0  0  0  0  0  0  0
  160.4070  213.2840  147.6500 C   0  0  0  0  0  0  0  0  0  0  0  0
  161.5640  214.1820  143.7070 N   0  0  0  0  0  1  0  0  0  0  0  0
  162.7300  212.4390  148.1260 C   0  0  0  0  0  3  0  0  0  0  0  0
  161.2740  212.3780  148.4910 C   0  0  1  0  0  3  0  0  0  0  0  0
  163.1010  212.8450  146.9080 C   0  0  0  0  0  3  0  0  0  0  0  0
  159.8840  213.0720  150.4300 C   0  0  0  0  0  0  0  0  0  0  0  0
  158.8520  213.5710  149.4830 C   0  0  0  0  0  3  0  0  0  0  0  0
  161.5750  204.7560  150.3720 C   0  0  2  0  0  3  0  0  0  0  0  0
  160.4140  204.7590  149.4800 C   0  0  0  0  0  2  0  0  0  0  0  0
  160.3720  203.9770  150.7220 N   0  0  0  0  0  2  0  0  0  0  0  0
  1 11  2  0  0  0  0
  2 16  2  0  0  0  0
  3 10  1  0  0  0  0
  4  8  1  0  0  0  0
  5  4  2  0  0  0  0
  5  1  1  0  0  0  0
  6  7  1  0  0  0  0
  8  6  2  0  0  0  0
  9  4  1  0  0  0  0
 10 12  2  0  0  0  0
 11  6  1  0  0  0  0
 11 10  1  0  0  0  0
 13  2  1  0  0  0  0
 14 13  1  0  0  0  0
 15 14  2  0  0  0  0
 15 17  1  0  0  0  0
 16  3  1  0  0  0  0
 17 18  2  0  0  0  0
 18  1  1  0  0  0  0
 18 16  1  0  0  0  0
 19 31  2  0  0  0  0
 20 30  2  0  0  0  0
 21 23  1  0  0  0  0
 21 29  1  0  0  0  0
 22 21  1  0  0  0  0
 23 25  2  0  0  0  0
 24 22  2  0  0  0  0
 25 19  1  0  0  0  0
 25 28  1  0  0  0  0
 26 22  1  0  0  0  0
 28 27  1  1  0  0  0
 28 20  1  0  0  0  0
 29 27  2  0  0  0  0
 30  9  1  0  0  0  0
 31 30  1  0  0  0  0
 32 34  1  0  0  0  0
 32 14  1  1  0  0  0
 33 32  1  0  0  0  0
 33 34  1  0  0  0  0
M  END
>  <MODEL>
4

>  <REMARK>
 VINA RESULT:      -8.9      2.606      6.907
  Name = 
  2 active torsions:
  status: ('A' for Active; 'I' for Inactive)
    1  A    between atoms: C_3  and  C_25
    2  A    between atoms: N_18  and  C_30
                            x       y       z     vdW  Elec       q    Type
                         _______ _______ _______ _____ _____    ______ ____

>  <TORSDO>
F 2

$$$$
=
 OpenBabel11062409383D

 34 39  0  0  1  0  0  0  0  0999 V2000
  160.8940  208.4140  152.4830 C   0  0  0  0  0  0  0  0  0  0  0  0
  161.4340  204.8230  151.9280 C   0  0  0  0  0  3  0  0  0  0  0  0
  160.8310  205.9910  153.7590 O   0  0  0  0  0  0  0  0  0  0  0  0
  160.8030  210.8010  152.5250 C   0  0  0  0  0  0  0  0  0  0  0  0
  160.9200  209.6250  151.8560 N   0  0  0  0  0  0  0  0  0  0  0  0
  160.5940  209.5800  154.5960 C   0  0  0  0  0  0  0  0  0  0  0  0
  160.4170  209.6530  156.0770 C   0  0  0  0  0  1  0  0  0  0  0  0
  160.6410  210.7910  153.9070 C   0  0  0  0  0  3  0  0  0  0  0  0
  160.8430  212.0590  151.8390 N   0  0  0  0  0  2  0  0  0  0  0  0
  160.6430  207.0850  154.4860 C   0  0  0  0  0  0  0  0  0  0  0  0
  160.7170  208.3600  153.8840 C   0  0  0  0  0  0  0  0  0  0  0  0
  160.4190  206.9540  155.7180 O   0  0  0  0  0  0  0  0  0  0  0  0
  162.0340  204.6160  150.5780 C   0  0  0  0  0  2  0  0  0  0  0  0
  161.1280  205.0210  149.4710 C   0  0  0  0  0  0  0  0  0  0  0  0
  160.6670  206.2660  149.3840 C   0  0  0  0  0  3  0  0  0  0  0  0
  161.0660  205.9980  152.4510 C   0  0  0  0  0  0  0  0  0  0  0  0
  160.8310  207.3270  150.3940 C   0  0  0  0  0  3  0  0  0  0  0  0
  160.9890  207.2240  151.7310 C   0  0  0  0  0  0  0  0  0  0  0  0
  161.8730  211.4990  148.2620 C   0  0  0  0  0  3  0  0  0  0  0  0
  160.1950  213.1950  149.8490 C   0  0  0  0  0  3  0  0  0  0  0  0
  159.6560  213.0970  145.6780 N   0  0  0  0  0  0  0  0  0  0  0  0
  159.4360  213.0250  144.2620 C   0  0  0  0  0  0  0  0  0  0  0  0
  160.6540  212.2660  146.2950 C   0  0  0  0  0  3  0  0  0  0  0  0
  158.5170  213.6980  143.7250 O   0  0  0  0  0  0  0  0  0  0  0  0
  160.9270  212.3990  147.5940 C   0  0  0  0  0  0  0  0  0  0  0  0
  160.2570  212.1940  143.4460 N   0  0  0  0  0  1  0  0  0  0  0  0
  159.0410  214.0540  147.8030 C   0  0  0  0  0  3  0  0  0  0  0  0
  160.3230  213.5320  148.3890 C   0  0  1  0  0  3  0  0  0  0  0  0
  158.7750  213.8780  146.5060 C   0  0  0  0  0  3  0  0  0  0  0  0
  160.9740  212.2700  150.4260 C   0  0  0  0  0  0  0  0  0  0  0  0
  161.9000  211.4530  149.5970 C   0  0  0  0  0  3  0  0  0  0  0  0
  160.7870  204.0310  148.3980 C   0  0  2  0  0  3  0  0  0  0  0  0
  161.5810  202.8100  148.5370 C   0  0  0  0  0  2  0  0  0  0  0  0
  161.9560  203.8070  147.5280 N   0  0  0  0  0  2  0  0  0  0  0  0
  1 11  2  0  0  0  0
  2 16  2  0  0  0  0
  3 10  1  0  0  0  0
  4  8  1  0  0  0  0
  5  1  1  0  0  0  0
  5  4  2  0  0  0  0
  6  7  1  0  0  0  0
  8  6  2  0  0  0  0
  9  4  1  0  0  0  0
 10 12  2  0  0  0  0
 11 10  1  0  0  0  0
 11  6  1  0  0  0  0
 13  2  1  0  0  0  0
 14 13  1  0  0  0  0
 15 14  2  0  0  0  0
 15 17  1  0  0  0  0
 16  3  1  0  0  0  0
 17 18  2  0  0  0  0
 18 16  1  0  0  0  0
 18  1  1  0  0  0  0
 19 31  2  0  0  0  0
 20 30  2  0  0  0  0
 21 23  1  0  0  0  0
 21 29  1  0  0  0  0
 22 21  1  0  0  0  0
 23 25  2  0  0  0  0
 24 22  2  0  0  0  0
 25 19  1  0  0  0  0
 25 28  1  0  0  0  0
 26 22  1  0  0  0  0
 28 27  1  6  0  0  0
 28 20  1  0  0  0  0
 29 27  2  0  0  0  0
 30  9  1  0  0  0  0
 31 30  1  0  0  0  0
 32 33  1  0  0  0  0
 32 14  1  1  0  0  0
 34 32  1  0  0  0  0
 34 33  1  0  0  0  0
M  END
>  <MODEL>
5

>  <REMARK>
 VINA RESULT:      -8.8      2.648      6.841
  Name = 
  2 active torsions:
  status: ('A' for Active; 'I' for Inactive)
    1  A    between atoms: C_3  and  C_25
    2  A    between atoms: N_18  and  C_30
                            x       y       z     vdW  Elec       q    Type
                         _______ _______ _______ _____ _____    ______ ____

>  <TORSDO>
F 2

$$$$
=
 OpenBabel11062409383D

 34 39  0  0  1  0  0  0  0  0999 V2000
  160.8720  209.3820  153.7440 C   0  0  0  0  0  0  0  0  0  0  0  0
  159.8690  212.8910  153.3290 C   0  0  0  0  0  3  0  0  0  0  0  0
  160.7400  211.7690  155.0800 O   0  0  0  0  0  0  0  0  0  0  0  0
  161.2490  207.0230  153.7130 C   0  0  0  0  0  0  0  0  0  0  0  0
  160.9440  208.1880  153.0880 N   0  0  0  0  0  0  0  0  0  0  0  0
  161.4640  208.2200  155.7980 C   0  0  0  0  0  0  0  0  0  0  0  0
  161.7570  208.1410  157.2600 C   0  0  0  0  0  1  0  0  0  0  0  0
  161.5100  207.0260  155.0800 C   0  0  0  0  0  3  0  0  0  0  0  0
  161.3080  205.7820  152.9970 N   0  0  0  0  0  2  0  0  0  0  0  0
  161.1100  210.6920  155.7610 C   0  0  0  0  0  0  0  0  0  0  0  0
  161.1440  209.4300  155.1300 C   0  0  0  0  0  0  0  0  0  0  0  0
  161.4080  210.8260  156.9770 O   0  0  0  0  0  0  0  0  0  0  0  0
  159.1510  213.0500  152.0320 C   0  0  0  0  0  2  0  0  0  0  0  0
  160.0130  212.7780  150.8530 C   0  0  0  0  0  0  0  0  0  0  0  0
  160.6120  211.6000  150.6980 C   0  0  0  0  0  3  0  0  0  0  0  0
  160.4110  211.7590  153.7920 C   0  0  0  0  0  0  0  0  0  0  0  0
  160.6500  210.5070  151.6870 C   0  0  0  0  0  3  0  0  0  0  0  0
  160.5800  210.5660  153.0350 C   0  0  0  0  0  0  0  0  0  0  0  0
  161.4160  206.3990  149.2850 C   0  0  0  0  0  3  0  0  0  0  0  0
  160.6620  204.3850  151.1800 C   0  0  0  0  0  3  0  0  0  0  0  0
  161.1140  203.3290  147.1330 N   0  0  0  0  0  0  0  0  0  0  0  0
  161.3190  202.9560  145.7630 C   0  0  0  0  0  0  0  0  0  0  0  0
  161.3630  204.6810  147.5570 C   0  0  0  0  0  3  0  0  0  0  0  0
  161.1700  201.7600  145.3990 O   0  0  0  0  0  0  0  0  0  0  0  0
  161.0830  205.0520  148.8060 C   0  0  0  0  0  0  0  0  0  0  0  0
  161.6900  203.9360  144.7960 N   0  0  0  0  0  1  0  0  0  0  0  0
  160.5000  202.6690  149.3690 C   0  0  0  0  0  3  0  0  0  0  0  0
  160.3450  204.1180  149.7350 C   0  0  1  0  0  3  0  0  0  0  0  0
  160.8160  202.3220  148.1170 C   0  0  0  0  0  3  0  0  0  0  0  0
  161.0980  205.5840  151.5920 C   0  0  0  0  0  0  0  0  0  0  0  0
  161.4070  206.6460  150.5990 C   0  0  0  0  0  3  0  0  0  0  0  0
  160.1540  213.8230  149.7860 C   0  0  2  0  0  3  0  0  0  0  0  0
  159.0520  213.7460  148.8260 C   0  0  0  0  0  2  0  0  0  0  0  0
  160.3600  213.1800  148.4740 N   0  0  0  0  0  2  0  0  0  0  0  0
  1 11  2  0  0  0  0
  2 16  2  0  0  0  0
  3 10  1  0  0  0  0
  4  8  1  0  0  0  0
  5  4  2  0  0  0  0
  5  1  1  0  0  0  0
  6  7  1  0  0  0  0
  8  6  2  0  0  0  0
  9  4  1  0  0  0  0
 10 12  2  0  0  0  0
 11 10  1  0  0  0  0
 11  6  1  0  0  0  0
 13  2  1  0  0  0  0
 14 13  1  0  0  0  0
 15 14  2  0  0  0  0
 15 17  1  0  0  0  0
 16  3  1  0  0  0  0
 17 18  2  0  0  0  0
 18  1  1  0  0  0  0
 18 16  1  0  0  0  0
 19 31  2  0  0  0  0
 20 30  2  0  0  0  0
 21 23  1  0  0  0  0
 21 29  1  0  0  0  0
 22 21  1  0  0  0  0
 23 25  2  0  0  0  0
 24 22  2  0  0  0  0
 25 19  1  0  0  0  0
 25 28  1  0  0  0  0
 26 22  1  0  0  0  0
 28 27  1  6  0  0  0
 28 20  1  0  0  0  0
 29 27  2  0  0  0  0
 30  9  1  0  0  0  0
 31 30  1  0  0  0  0
 32 14  1  1  0  0  0
 33 32  1  0  0  0  0
 34 33  1  0  0  0  0
 34 32  1  0  0  0  0
M  END
>  <MODEL>
6

>  <REMARK>
 VINA RESULT:      -8.3      1.381      1.979
  Name = 
  2 active torsions:
  status: ('A' for Active; 'I' for Inactive)
    1  A    between atoms: C_3  and  C_25
    2  A    between atoms: N_18  and  C_30
                            x       y       z     vdW  Elec       q    Type
                         _______ _______ _______ _____ _____    ______ ____

>  <TORSDO>
F 2

$$$$
=
 OpenBabel11062409383D

 34 39  0  0  1  0  0  0  0  0999 V2000
  160.5630  209.2860  153.4060 C   0  0  0  0  0  0  0  0  0  0  0  0
  162.2930  206.2290  152.3330 C   0  0  0  0  0  3  0  0  0  0  0  0
  161.3780  206.8310  154.3030 O   0  0  0  0  0  0  0  0  0  0  0  0
  159.6550  211.4600  153.8030 C   0  0  0  0  0  0  0  0  0  0  0  0
  160.1510  210.5110  152.9690 N   0  0  0  0  0  0  0  0  0  0  0  0
  159.9410  209.9490  155.6630 C   0  0  0  0  0  0  0  0  0  0  0  0
  159.7940  209.7340  157.1330 C   0  0  0  0  0  1  0  0  0  0  0  0
  159.5470  211.1890  155.1640 C   0  0  0  0  0  3  0  0  0  0  0  0
  159.2380  212.7420  153.3140 N   0  0  0  0  0  2  0  0  0  0  0  0
  160.8450  207.6710  155.1810 C   0  0  0  0  0  0  0  0  0  0  0  0
  160.4570  208.9660  154.7790 C   0  0  0  0  0  0  0  0  0  0  0  0
  160.7160  207.2880  156.3730 O   0  0  0  0  0  0  0  0  0  0  0  0
  162.8880  206.4450  150.9830 C   0  0  0  0  0  2  0  0  0  0  0  0
  161.8660  206.6730  149.9270 C   0  0  0  0  0  0  0  0  0  0  0  0
  161.0010  207.6800  150.0160 C   0  0  0  0  0  3  0  0  0  0  0  0
  161.5580  207.1130  153.0170 C   0  0  0  0  0  0  0  0  0  0  0  0
  160.8180  208.5690  151.1770 C   0  0  0  0  0  3  0  0  0  0  0  0
  161.0420  208.3290  152.4870 C   0  0  0  0  0  0  0  0  0  0  0  0
  160.4360  213.3360  149.7960 C   0  0  0  0  0  3  0  0  0  0  0  0
  158.0990  213.6410  151.4260 C   0  0  0  0  0  3  0  0  0  0  0  0
  157.7280  213.8800  147.2430 N   0  0  0  0  0  0  0  0  0  0  0  0
  157.5910  213.9100  145.8150 C   0  0  0  0  0  0  0  0  0  0  0  0
  159.0110  213.6210  147.8390 C   0  0  0  0  0  3  0  0  0  0  0  0
  156.4590  214.0670  145.2870 O   0  0  0  0  0  0  0  0  0  0  0  0
  159.1600  213.6880  149.1620 C   0  0  0  0  0  0  0  0  0  0  0  0
  158.7350  213.7660  144.9770 N   0  0  0  0  0  1  0  0  0  0  0  0
  156.6800  214.0490  149.4070 C   0  0  0  0  0  3  0  0  0  0  0  0
  158.0380  214.2020  150.0320 C   0  0  1  0  0  3  0  0  0  0  0  0
  156.5590  213.9490  148.0810 C   0  0  0  0  0  3  0  0  0  0  0  0
  159.2480  213.1930  151.9530 C   0  0  0  0  0  0  0  0  0  0  0  0
  160.4730  213.1180  151.1140 C   0  0  0  0  0  3  0  0  0  0  0  0
  161.8570  205.7970  148.7100 C   0  0  2  0  0  3  0  0  0  0  0  0
  160.5790  205.8950  148.0020 C   0  0  0  0  0  2  0  0  0  0  0  0
  160.8440  204.7350  148.8600 N   0  0  0  0  0  2  0  0  0  0  0  0
  1 11  2  0  0  0  0
  2 16  2  0  0  0  0
  3 10  1  0  0  0  0
  4  8  1  0  0  0  0
  5  1  1  0  0  0  0
  5  4  2  0  0  0  0
  6  7  1  0  0  0  0
  8  6  2  0  0  0  0
  9  4  1  0  0  0  0
 10 12  2  0  0  0  0
 11 10  1  0  0  0  0
 11  6  1  0  0  0  0
 13  2  1  0  0  0  0
 14 15  2  0  0  0  0
 14 13  1  0  0  0  0
 15 17  1  0  0  0  0
 16  3  1  0  0  0  0
 17 18  2  0  0  0  0
 18 16  1  0  0  0  0
 18  1  1  0  0  0  0
 19 31  2  0  0  0  0
 20 30  2  0  0  0  0
 21 23  1  0  0  0  0
 21 29  1  0  0  0  0
 22 21  1  0  0  0  0
 23 25  2  0  0  0  0
 24 22  2  0  0  0  0
 25 19  1  0  0  0  0
 25 28  1  0  0  0  0
 26 22  1  0  0  0  0
 28 27  1  6  0  0  0
 28 20  1  0  0  0  0
 29 27  2  0  0  0  0
 30  9  1  0  0  0  0
 31 30  1  0  0  0  0
 32 34  1  0  0  0  0
 32 14  1  1  0  0  0
 33 32  1  0  0  0  0
 33 34  1  0  0  0  0
M  END
>  <MODEL>
7

>  <REMARK>
 VINA RESULT:      -7.7      3.005      7.085
  Name = 
  2 active torsions:
  status: ('A' for Active; 'I' for Inactive)
    1  A    between atoms: C_3  and  C_25
    2  A    between atoms: N_18  and  C_30
                            x       y       z     vdW  Elec       q    Type
                         _______ _______ _______ _____ _____    ______ ____

>  <TORSDO>
F 2

$$$$
=
 OpenBabel11062409383D

 34 39  0  0  1  0  0  0  0  0999 V2000
  159.3880  211.8920  152.7900 C   0  0  0  0  0  0  0  0  0  0  0  0
  156.9210  214.3720  151.6690 C   0  0  0  0  0  3  0  0  0  0  0  0
  158.2470  214.2810  153.4900 O   0  0  0  0  0  0  0  0  0  0  0  0
  160.7720  210.0100  153.2920 C   0  0  0  0  0  0  0  0  0  0  0  0
  159.9640  210.7030  152.4490 N   0  0  0  0  0  0  0  0  0  0  0  0
  160.4900  211.7380  154.9530 C   0  0  0  0  0  0  0  0  0  0  0  0
  160.8270  212.2180  156.3260 C   0  0  0  0  0  1  0  0  0  0  0  0
  161.0410  210.5200  154.5580 C   0  0  0  0  0  3  0  0  0  0  0  0
  161.3560  208.7580  152.9080 N   0  0  0  0  0  2  0  0  0  0  0  0
  159.0750  213.7070  154.3540 C   0  0  0  0  0  0  0  0  0  0  0  0
  159.6480  212.4510  154.0610 C   0  0  0  0  0  0  0  0  0  0  0  0
  159.3150  214.3010  155.4380 O   0  0  0  0  0  0  0  0  0  0  0  0
  156.1720  213.8310  150.4990 C   0  0  0  0  0  2  0  0  0  0  0  0
  157.0340  213.6130  149.3070 C   0  0  0  0  0  0  0  0  0  0  0  0
  158.0880  212.8040  149.3630 C   0  0  0  0  0  3  0  0  0  0  0  0
  157.9220  213.7590  152.3120 C   0  0  0  0  0  0  0  0  0  0  0  0
  158.6340  212.1680  150.5750 C   0  0  0  0  0  3  0  0  0  0  0  0
  158.5820  212.5820  151.8600 C   0  0  0  0  0  0  0  0  0  0  0  0
  161.6710  208.0670  149.2210 C   0  0  0  0  0  3  0  0  0  0  0  0
  160.7840  206.8220  151.6450 C   0  0  0  0  0  3  0  0  0  0  0  0
  161.4330  204.4450  148.2360 N   0  0  0  0  0  0  0  0  0  0  0  0
  161.7040  203.6260  147.0890 C   0  0  0  0  0  0  0  0  0  0  0  0
  161.6820  205.8600  148.1850 C   0  0  0  0  0  3  0  0  0  0  0  0
  161.5540  202.3770  147.1490 O   0  0  0  0  0  0  0  0  0  0  0  0
  161.3410  206.6370  149.2140 C   0  0  0  0  0  0  0  0  0  0  0  0
  162.1420  204.2160  145.8680 N   0  0  0  0  0  1  0  0  0  0  0  0
  160.6890  204.5880  150.5240 C   0  0  0  0  0  3  0  0  0  0  0  0
  160.5390  206.0750  150.3630 C   0  0  1  0  0  3  0  0  0  0  0  0
  161.0650  203.8350  149.4870 C   0  0  0  0  0  3  0  0  0  0  0  0
  161.2180  208.0910  151.6460 C   0  0  0  0  0  0  0  0  0  0  0  0
  161.5970  208.7490  150.3680 C   0  0  0  0  0  3  0  0  0  0  0  0
  156.6680  214.2600  148.0050 C   0  0  2  0  0  3  0  0  0  0  0  0
  156.9380  213.3650  146.8790 C   0  0  0  0  0  2  0  0  0  0  0  0
  157.8750  214.4530  147.1800 N   0  0  0  0  0  2  0  0  0  0  0  0
  1 11  2  0  0  0  0
  2 16  2  0  0  0  0
  3 10  1  0  0  0  0
  4  8  1  0  0  0  0
  5  1  1  0  0  0  0
  5  4  2  0  0  0  0
  6  7  1  0  0  0  0
  8  6  2  0  0  0  0
  9  4  1  0  0  0  0
 10 12  2  0  0  0  0
 11 10  1  0  0  0  0
 11  6  1  0  0  0  0
 13  2  1  0  0  0  0
 14 15  2  0  0  0  0
 14 13  1  0  0  0  0
 15 17  1  0  0  0  0
 16  3  1  0  0  0  0
 17 18  2  0  0  0  0
 18 16  1  0  0  0  0
 18  1  1  0  0  0  0
 19 31  2  0  0  0  0
 20 30  2  0  0  0  0
 21 29  1  0  0  0  0
 22 24  2  0  0  0  0
 22 21  1  0  0  0  0
 23 21  1  0  0  0  0
 23 25  2  0  0  0  0
 25 19  1  0  0  0  0
 25 28  1  0  0  0  0
 26 22  1  0  0  0  0
 28 27  1  1  0  0  0
 28 20  1  0  0  0  0
 29 27  2  0  0  0  0
 30  9  1  0  0  0  0
 31 30  1  0  0  0  0
 32 14  1  1  0  0  0
 33 34  1  0  0  0  0
 33 32  1  0  0  0  0
 34 32  1  0  0  0  0
M  END
>  <MODEL>
8

>  <REMARK>
 VINA RESULT:      -6.9      2.513      3.526
  Name = 
  2 active torsions:
  status: ('A' for Active; 'I' for Inactive)
    1  A    between atoms: C_3  and  C_25
    2  A    between atoms: N_18  and  C_30
                            x       y       z     vdW  Elec       q    Type
                         _______ _______ _______ _____ _____    ______ ____

>  <TORSDO>
F 2

$$$$
