=
 OpenBabel11052423133D

 27 31  0  0  1  0  0  0  0  0999 V2000
  160.1270  212.2010  154.6490 N   0  0  0  0  0  2  0  0  0  0  0  0
  160.1500  209.7210  154.9020 C   0  0  0  0  0  0  0  0  0  0  0  0
  160.2660  210.2810  152.3580 N   0  0  0  0  0  2  0  0  0  0  0  0
  161.2020  205.8260  153.9570 C   0  0  0  0  0  3  0  0  0  0  0  0
  161.6170  204.0520  152.3350 F   0  0  0  0  0  0  0  0  0  0  0  0
  160.3580  208.8040  155.8570 C   0  0  0  0  0  3  0  0  0  0  0  0
  160.9300  207.6650  151.7110 C   0  0  0  0  0  2  0  0  0  0  0  0
  159.7100  213.6930  150.9430 C   0  0  0  0  0  0  0  0  0  0  0  0
  161.2090  206.1950  151.5390 C   0  0  0  0  0  3  0  0  0  0  0  0
  159.8460  214.2490  149.8230 O   0  0  0  0  0  0  0  0  0  0  0  0
  160.6850  208.0760  153.1460 C   0  0  0  0  0  0  0  0  0  0  0  0
  159.6510  211.0470  155.4050 C   0  0  2  0  0  3  0  0  0  0  0  0
  161.3510  205.3580  152.5700 C   0  0  0  0  0  0  0  0  0  0  0  0
  160.8880  207.0900  154.2300 C   0  0  0  0  0  0  0  0  0  0  0  0
  159.3000  212.3780  153.4700 C   0  0  1  0  0  3  0  0  0  0  0  0
  160.3430  209.3470  153.4530 C   0  0  0  0  0  0  0  0  0  0  0  0
  160.0710  212.2830  151.1170 C   0  0  0  0  0  3  0  0  0  0  0  0
  160.7440  207.4980  155.5530 O   0  0  0  0  0  0  0  0  0  0  0  0
  159.2050  214.4530  152.0880 C   0  0  0  0  0  3  0  0  0  0  0  0
  159.0290  213.8500  153.2620 C   0  0  0  0  0  3  0  0  0  0  0  0
  159.9170  211.6660  152.2930 C   0  0  0  0  0  0  0  0  0  0  0  0
  155.4730  211.2380  156.4470 C   0  0  0  0  0  3  0  0  0  0  0  0
  158.1860  211.0880  155.7640 C   0  0  0  0  0  0  0  0  0  0  0  0
  157.2180  210.4860  154.9470 C   0  0  0  0  0  3  0  0  0  0  0  0
  155.8640  210.5600  155.2890 C   0  0  0  0  0  3  0  0  0  0  0  0
  156.4340  211.8460  157.2600 C   0  0  0  0  0  3  0  0  0  0  0  0
  157.7870  211.7730  156.9170 C   0  0  0  0  0  3  0  0  0  0  0  0
  1 12  1  0  0  0  0
  2 12  1  0  0  0  0
  2  6  2  0  0  0  0
  3 16  1  0  0  0  0
  4 14  2  0  0  0  0
  5 13  1  0  0  0  0
  7 11  1  0  0  0  0
  8 17  1  0  0  0  0
  8 19  1  0  0  0  0
  9  7  1  0  0  0  0
  9 13  2  0  0  0  0
 10  8  2  0  0  0  0
 11 16  2  0  0  0  0
 11 14  1  0  0  0  0
 12 23  1  6  0  0  0
 13  4  1  0  0  0  0
 14 18  1  0  0  0  0
 15 20  1  6  0  0  0
 15  1  1  0  0  0  0
 16  2  1  0  0  0  0
 17 21  2  0  0  0  0
 18  6  1  0  0  0  0
 19 20  2  0  0  0  0
 21  3  1  0  0  0  0
 21 15  1  0  0  0  0
 22 26  1  0  0  0  0
 23 27  1  0  0  0  0
 24 25  1  0  0  0  0
 24 23  2  0  0  0  0
 25 22  2  0  0  0  0
 27 26  2  0  0  0  0
M  END
>  <MODEL>
1

>  <REMARK>
 VINA RESULT:      -6.4      0.000      0.000
  Name = 
  1 active torsions:
  status: ('A' for Active; 'I' for Inactive)
    1  A    between atoms: C_9  and  C_15
                            x       y       z     vdW  Elec       q    Type
                         _______ _______ _______ _____ _____    ______ ____

>  <TORSDO>
F 1

$$$$
=
 OpenBabel11052423133D

 27 31  0  0  1  0  0  0  0  0999 V2000
  162.4420  210.0100  152.0210 N   0  0  0  0  0  2  0  0  0  0  0  0
  161.6260  207.7210  152.5780 C   0  0  0  0  0  0  0  0  0  0  0  0
  161.4560  208.0420  149.9950 N   0  0  0  0  0  2  0  0  0  0  0  0
  161.0240  203.6650  151.9800 C   0  0  0  0  0  3  0  0  0  0  0  0
  160.4680  201.7690  150.5490 F   0  0  0  0  0  0  0  0  0  0  0  0
  161.6690  206.8530  153.5980 C   0  0  0  0  0  3  0  0  0  0  0  0
  161.0090  205.3330  149.5890 C   0  0  0  0  0  2  0  0  0  0  0  0
  161.8970  211.3220  148.2650 C   0  0  0  0  0  0  0  0  0  0  0  0
  160.7090  203.8570  149.5630 C   0  0  0  0  0  3  0  0  0  0  0  0
  162.0100  211.7180  147.0760 O   0  0  0  0  0  0  0  0  0  0  0  0
  161.2010  205.8920  150.9810 C   0  0  0  0  0  0  0  0  0  0  0  0
  161.7370  209.1650  152.9800 C   0  0  2  0  0  3  0  0  0  0  0  0
  160.7340  203.0920  150.6560 C   0  0  0  0  0  0  0  0  0  0  0  0
  161.2390  204.9700  152.1370 C   0  0  0  0  0  0  0  0  0  0  0  0
  161.5260  210.4110  150.9690 C   0  0  1  0  0  3  0  0  0  0  0  0
  161.3990  207.2150  151.1750 C   0  0  0  0  0  0  0  0  0  0  0  0
  161.7580  209.8920  148.5570 C   0  0  0  0  0  3  0  0  0  0  0  0
  161.5000  205.4810  153.4050 O   0  0  0  0  0  0  0  0  0  0  0  0
  161.9210  212.2840  149.3680 C   0  0  0  0  0  3  0  0  0  0  0  0
  161.7640  211.8620  150.6220 C   0  0  0  0  0  3  0  0  0  0  0  0
  161.6170  209.4500  149.8110 C   0  0  0  0  0  0  0  0  0  0  0  0
  158.1800  210.9250  154.6630 C   0  0  0  0  0  3  0  0  0  0  0  0
  160.4780  209.7720  153.5490 C   0  0  0  0  0  0  0  0  0  0  0  0
  159.5750  210.4750  152.7370 C   0  0  0  0  0  3  0  0  0  0  0  0
  158.4270  211.0480  153.2940 C   0  0  0  0  0  3  0  0  0  0  0  0
  159.0810  210.2320  155.4780 C   0  0  0  0  0  3  0  0  0  0  0  0
  160.2280  209.6590  154.9210 C   0  0  0  0  0  3  0  0  0  0  0  0
  1 12  1  0  0  0  0
  2 12  1  0  0  0  0
  2  6  2  0  0  0  0
  3 16  1  0  0  0  0
  4 14  2  0  0  0  0
  5 13  1  0  0  0  0
  7 11  1  0  0  0  0
  8 17  1  0  0  0  0
  8 19  1  0  0  0  0
  9  7  1  0  0  0  0
  9 13  2  0  0  0  0
 10  8  2  0  0  0  0
 11 16  2  0  0  0  0
 11 14  1  0  0  0  0
 12 23  1  6  0  0  0
 13  4  1  0  0  0  0
 14 18  1  0  0  0  0
 15 20  1  6  0  0  0
 15  1  1  0  0  0  0
 16  2  1  0  0  0  0
 17 21  2  0  0  0  0
 18  6  1  0  0  0  0
 19 20  2  0  0  0  0
 21  3  1  0  0  0  0
 21 15  1  0  0  0  0
 22 26  1  0  0  0  0
 23 27  1  0  0  0  0
 24 25  1  0  0  0  0
 24 23  2  0  0  0  0
 25 22  2  0  0  0  0
 27 26  2  0  0  0  0
M  END
>  <MODEL>
2

>  <REMARK>
 VINA RESULT:      -5.9      2.310      3.549
  Name = 
  1 active torsions:
  status: ('A' for Active; 'I' for Inactive)
    1  A    between atoms: C_9  and  C_15
                            x       y       z     vdW  Elec       q    Type
                         _______ _______ _______ _____ _____    ______ ____

>  <TORSDO>
F 1

$$$$
=
 OpenBabel11052423133D

 27 31  0  0  1  0  0  0  0  0999 V2000
  159.7650  208.9740  153.4700 N   0  0  0  0  0  2  0  0  0  0  0  0
  160.2800  211.1930  152.4590 C   0  0  0  0  0  0  0  0  0  0  0  0
  161.5200  209.3610  151.0790 N   0  0  0  0  0  0  0  0  0  0  0  0
  161.0950  213.8620  149.3950 C   0  0  0  0  0  3  0  0  0  0  0  0
  162.2100  214.4530  147.3080 F   0  0  0  0  0  0  0  0  0  0  0  0
  159.8150  212.4490  152.4880 C   0  0  0  0  0  3  0  0  0  0  0  0
  162.1080  211.1510  149.0420 C   0  0  0  0  0  2  0  0  0  0  0  0
  161.8350  205.7960  152.1490 C   0  0  0  0  0  0  0  0  0  0  0  0
  162.3980  212.2690  148.0750 C   0  0  0  0  0  3  0  0  0  0  0  0
  162.2310  204.7200  151.6310 O   0  0  0  0  0  0  0  0  0  0  0  0
  161.3450  211.5910  150.2720 C   0  0  0  0  0  0  0  0  0  0  0  0
  160.0040  210.3940  153.7020 C   0  0  2  0  0  3  0  0  0  0  0  0
  161.9180  213.5050  148.2300 C   0  0  0  0  0  0  0  0  0  0  0  0
  160.8290  212.9750  150.3520 C   0  0  0  0  0  0  0  0  0  0  0  0
  161.0360  208.2840  153.3530 C   0  0  1  0  0  3  0  0  0  0  0  0
  161.0790  210.7200  151.2690 C   0  0  0  0  0  0  0  0  0  0  0  0
  161.8440  207.0380  151.3700 C   0  0  0  0  0  2  0  0  0  0  0  0
  160.0560  213.3480  151.4470 O   0  0  0  0  0  0  0  0  0  0  0  0
  161.3440  205.8140  153.5280 C   0  0  0  0  0  3  0  0  0  0  0  0
  160.9600  206.9630  154.0820 C   0  0  0  0  0  3  0  0  0  0  0  0
  161.4450  208.1960  151.9050 C   0  0  0  0  0  0  0  0  0  0  0  0
  162.5270  211.2280  157.0950 C   0  0  0  0  0  3  0  0  0  0  0  0
  160.9040  210.7000  154.8740 C   0  0  0  0  0  0  0  0  0  0  0  0
  162.2970  210.5700  154.7770 C   0  0  0  0  0  3  0  0  0  0  0  0
  163.1070  210.8370  155.8850 C   0  0  0  0  0  3  0  0  0  0  0  0
  161.1390  211.3510  157.1990 C   0  0  0  0  0  3  0  0  0  0  0  0
  160.3290  211.0850  156.0910 C   0  0  0  0  0  3  0  0  0  0  0  0
  1 12  1  0  0  0  0
  2  6  2  0  0  0  0
  2 12  1  0  0  0  0
  3 16  1  0  0  0  0
  3 21  2  0  0  0  0
  4 14  2  0  0  0  0
  5 13  1  0  0  0  0
  7 11  1  0  0  0  0
  8 19  1  0  0  0  0
  9 13  2  0  0  0  0
  9  7  1  0  0  0  0
 10  8  2  0  0  0  0
 11 14  1  0  0  0  0
 11 16  2  0  0  0  0
 12 23  1  1  0  0  0
 13  4  1  0  0  0  0
 14 18  1  0  0  0  0
 15  1  1  0  0  0  0
 15 20  1  6  0  0  0
 16  2  1  0  0  0  0
 17 21  1  0  0  0  0
 17  8  1  0  0  0  0
 18  6  1  0  0  0  0
 19 20  2  0  0  0  0
 21 15  1  0  0  0  0
 22 26  1  0  0  0  0
 23 27  1  0  0  0  0
 24 23  2  0  0  0  0
 24 25  1  0  0  0  0
 25 22  2  0  0  0  0
 27 26  2  0  0  0  0
M  END
>  <MODEL>
3

>  <REMARK>
 VINA RESULT:      -5.7      3.244      6.357
  Name = 
  1 active torsions:
  status: ('A' for Active; 'I' for Inactive)
    1  A    between atoms: C_9  and  C_15
                            x       y       z     vdW  Elec       q    Type
                         _______ _______ _______ _____ _____    ______ ____

>  <TORSDO>
F 1

$$$$
=
 OpenBabel11052423133D

 27 31  0  0  1  0  0  0  0  0999 V2000
  161.0790  213.4410  138.8720 N   0  0  0  0  0  2  0  0  0  0  0  0
  160.4300  212.7280  141.1710 C   0  0  0  0  0  0  0  0  0  0  0  0
  162.9580  213.3660  141.1990 N   0  0  0  0  0  2  0  0  0  0  0  0
  160.5110  212.7670  145.3130 C   0  0  0  0  0  3  0  0  0  0  0  0
  161.7130  212.8980  147.4320 F   0  0  0  0  0  0  0  0  0  0  0  0
  159.3180  212.5290  141.8910 C   0  0  0  0  0  3  0  0  0  0  0  0
  163.0330  213.3530  143.9730 C   0  0  0  0  0  2  0  0  0  0  0  0
  164.9850  214.0040  138.1260 C   0  0  0  0  0  0  0  0  0  0  0  0
  162.9080  213.2290  145.4690 C   0  0  0  0  0  3  0  0  0  0  0  0
  166.1310  214.4530  137.8670 O   0  0  0  0  0  0  0  0  0  0  0  0
  161.7590  213.0290  143.2250 C   0  0  0  0  0  0  0  0  0  0  0  0
  160.2550  212.5550  139.6880 C   0  0  2  0  0  3  0  0  0  0  0  0
  161.7490  212.9780  146.0810 C   0  0  0  0  0  0  0  0  0  0  0  0
  160.5120  212.7850  143.9820 C   0  0  0  0  0  0  0  0  0  0  0  0
  162.4100  212.8780  138.7430 C   0  0  1  0  0  3  0  0  0  0  0  0
  161.7340  213.0170  141.8740 C   0  0  0  0  0  0  0  0  0  0  0  0
  164.5190  213.9250  139.5140 C   0  0  0  0  0  3  0  0  0  0  0  0
  159.3260  212.5710  143.2860 O   0  0  0  0  0  0  0  0  0  0  0  0
  164.0990  213.5730  137.0440 C   0  0  0  0  0  3  0  0  0  0  0  0
  162.9010  213.0660  137.3270 C   0  0  0  0  0  3  0  0  0  0  0  0
  163.3130  213.4340  139.8150 C   0  0  0  0  0  0  0  0  0  0  0  0
  160.0970  208.4950  138.2510 C   0  0  0  0  0  3  0  0  0  0  0  0
  160.2020  211.1250  139.2090 C   0  0  0  0  0  0  0  0  0  0  0  0
  161.0860  210.1560  139.7070 C   0  0  0  0  0  3  0  0  0  0  0  0
  161.0310  208.8430  139.2290 C   0  0  0  0  0  3  0  0  0  0  0  0
  159.2190  209.4590  137.7460 C   0  0  0  0  0  3  0  0  0  0  0  0
  159.2740  210.7720  138.2240 C   0  0  0  0  0  3  0  0  0  0  0  0
  1 12  1  0  0  0  0
  2 16  1  0  0  0  0
  2  6  2  0  0  0  0
  3 16  1  0  0  0  0
  4 13  1  0  0  0  0
  6 18  1  0  0  0  0
  7  9  1  0  0  0  0
  8 17  1  0  0  0  0
  9 13  2  0  0  0  0
 10  8  2  0  0  0  0
 11  7  1  0  0  0  0
 11 14  1  0  0  0  0
 12 23  1  6  0  0  0
 12  2  1  0  0  0  0
 13  5  1  0  0  0  0
 14  4  2  0  0  0  0
 15 20  1  6  0  0  0
 15  1  1  0  0  0  0
 15 21  1  0  0  0  0
 16 11  2  0  0  0  0
 17 21  2  0  0  0  0
 18 14  1  0  0  0  0
 19 20  2  0  0  0  0
 19  8  1  0  0  0  0
 21  3  1  0  0  0  0
 22 25  1  0  0  0  0
 23 24  1  0  0  0  0
 25 24  2  0  0  0  0
 26 27  1  0  0  0  0
 26 22  2  0  0  0  0
 27 23  2  0  0  0  0
M  END
>  <MODEL>
4

>  <REMARK>
 VINA RESULT:      -5.2     11.145     14.299
  Name = 
  1 active torsions:
  status: ('A' for Active; 'I' for Inactive)
    1  A    between atoms: C_9  and  C_15
                            x       y       z     vdW  Elec       q    Type
                         _______ _______ _______ _____ _____    ______ ____

>  <TORSDO>
F 1

$$$$
=
 OpenBabel11052423133D

 27 31  0  0  1  0  0  0  0  0999 V2000
  160.7970  214.0420  150.5730 N   0  0  0  0  0  2  0  0  0  0  0  0
  160.1190  212.2210  152.1350 C   0  0  0  0  0  0  0  0  0  0  0  0
  161.3890  211.1430  150.1290 N   0  0  0  0  0  2  0  0  0  0  0  0
  160.4960  208.6140  154.1400 C   0  0  0  0  0  3  0  0  0  0  0  0
  161.0940  206.2500  154.2050 F   0  0  0  0  0  0  0  0  0  0  0  0
  159.6940  212.0790  153.3980 C   0  0  0  0  0  3  0  0  0  0  0  0
  161.6080  208.7100  151.4480 C   0  0  0  0  0  2  0  0  0  0  0  0
  162.2910  212.9740  147.0010 C   0  0  0  0  0  0  0  0  0  0  0  0
  161.5720  207.4530  152.2770 C   0  0  0  0  0  3  0  0  0  0  0  0
  163.0000  212.7510  145.9860 O   0  0  0  0  0  0  0  0  0  0  0  0
  160.9090  209.8870  152.0920 C   0  0  0  0  0  0  0  0  0  0  0  0
  159.7930  213.5490  151.5110 C   0  0  2  0  0  3  0  0  0  0  0  0
  161.0770  207.4160  153.5160 C   0  0  0  0  0  0  0  0  0  0  0  0
  160.4110  209.7670  153.4790 C   0  0  0  0  0  0  0  0  0  0  0  0
  160.5880  213.4230  149.2770 C   0  0  1  0  0  3  0  0  0  0  0  0
  160.7880  211.0630  151.4370 C   0  0  0  0  0  0  0  0  0  0  0  0
  162.2010  211.9780  148.0730 C   0  0  0  0  0  3  0  0  0  0  0  0
  159.8450  210.8790  154.0950 O   0  0  0  0  0  0  0  0  0  0  0  0
  161.5640  214.2380  147.1300 C   0  0  0  0  0  3  0  0  0  0  0  0
  160.7870  214.4530  148.1900 C   0  0  0  0  0  3  0  0  0  0  0  0
  161.4390  212.1850  149.1520 C   0  0  0  0  0  0  0  0  0  0  0  0
  155.7160  213.9380  150.1690 C   0  0  0  0  0  3  0  0  0  0  0  0
  158.3650  213.7100  151.0500 C   0  0  0  0  0  0  0  0  0  0  0  0
  157.3990  214.3150  151.8670 C   0  0  0  0  0  3  0  0  0  0  0  0
  156.0770  214.4300  151.4260 C   0  0  0  0  0  3  0  0  0  0  0  0
  156.6740  213.3280  149.3540 C   0  0  0  0  0  3  0  0  0  0  0  0
  157.9960  213.2130  149.7960 C   0  0  0  0  0  3  0  0  0  0  0  0
  1 12  1  0  0  0  0
  2  6  2  0  0  0  0
  3 16  1  0  0  0  0
  6 18  1  0  0  0  0
  7 11  1  0  0  0  0
  7  9  1  0  0  0  0
  8 19  1  0  0  0  0
  8 17  1  0  0  0  0
  9 13  2  0  0  0  0
 10  8  2  0  0  0  0
 11 14  1  0  0  0  0
 12 23  1  6  0  0  0
 12  2  1  0  0  0  0
 13  4  1  0  0  0  0
 13  5  1  0  0  0  0
 14 18  1  0  0  0  0
 14  4  2  0  0  0  0
 15 20  1  6  0  0  0
 15  1  1  0  0  0  0
 16 11  2  0  0  0  0
 16  2  1  0  0  0  0
 17 21  2  0  0  0  0
 19 20  2  0  0  0  0
 21 15  1  0  0  0  0
 21  3  1  0  0  0  0
 22 25  1  0  0  0  0
 23 24  1  0  0  0  0
 25 24  2  0  0  0  0
 26 27  1  0  0  0  0
 26 22  2  0  0  0  0
 27 23  2  0  0  0  0
M  END
>  <MODEL>
5

>  <REMARK>
 VINA RESULT:      -5.2      2.830      4.485
  Name = 
  1 active torsions:
  status: ('A' for Active; 'I' for Inactive)
    1  A    between atoms: C_9  and  C_15
                            x       y       z     vdW  Elec       q    Type
                         _______ _______ _______ _____ _____    ______ ____

>  <TORSDO>
F 1

$$$$
=
 OpenBabel11052423133D

 27 31  0  0  1  0  0  0  0  0999 V2000
  162.1500  210.0170  152.9300 N   0  0  0  0  0  2  0  0  0  0  0  0
  161.9660  210.5160  150.4940 C   0  0  0  0  0  0  0  0  0  0  0  0
  160.0640  211.7980  151.7350 N   0  0  0  0  0  0  0  0  0  0  0  0
  161.1630  212.8310  147.1530 C   0  0  0  0  0  3  0  0  0  0  0  0
  159.7970  214.4530  145.9470 F   0  0  0  0  0  0  0  0  0  0  0  0
  162.7080  210.4150  149.3830 C   0  0  0  0  0  3  0  0  0  0  0  0
  159.4900  213.3230  149.4890 C   0  0  0  0  0  3  0  0  0  0  0  0
  159.1580  211.2360  155.3160 C   0  0  0  0  0  0  0  0  0  0  0  0
  159.2710  214.0040  148.1640 C   0  0  0  0  0  3  0  0  0  0  0  0
  158.4190  211.7940  156.1670 O   0  0  0  0  0  0  0  0  0  0  0  0
  160.5800  212.2750  149.4630 C   0  0  0  0  0  0  0  0  0  0  0  0
  162.3060  209.5190  151.5670 C   0  0  2  0  0  3  0  0  0  0  0  0
  160.0490  213.7900  147.1000 C   0  0  0  0  0  0  0  0  0  0  0  0
  161.4120  212.1190  148.2500 C   0  0  1  0  0  3  0  0  0  0  0  0
  160.7580  209.9110  153.3240 C   0  0  1  0  0  3  0  0  0  0  0  0
  160.8420  211.5210  150.5540 C   0  0  0  0  0  0  0  0  0  0  0  0
  159.2750  211.7900  153.9630 C   0  0  0  0  0  2  0  0  0  0  0  0
  162.4680  211.2120  148.2630 O   0  0  0  0  0  0  0  0  0  0  0  0
  159.9230  210.0400  155.6720 C   0  0  0  0  0  3  0  0  0  0  0  0
  160.6760  209.4340  154.7550 C   0  0  0  0  0  3  0  0  0  0  0  0
  160.0390  211.2040  153.0350 C   0  0  0  0  0  0  0  0  0  0  0  0
  160.8240  205.5360  150.8500 C   0  0  0  0  0  3  0  0  0  0  0  0
  161.7770  208.1250  151.3400 C   0  0  0  0  0  0  0  0  0  0  0  0
  161.8820  207.1350  152.3280 C   0  0  0  0  0  3  0  0  0  0  0  0
  161.4050  205.8440  152.0840 C   0  0  0  0  0  3  0  0  0  0  0  0
  160.7240  206.5170  149.8600 C   0  0  0  0  0  3  0  0  0  0  0  0
  161.2020  207.8080  150.1040 C   0  0  0  0  0  3  0  0  0  0  0  0
  1 15  1  0  0  0  0
  2 16  1  0  0  0  0
  2 12  1  0  0  0  0
  3 21  2  0  0  0  0
  5 13  1  0  0  0  0
  6  2  2  0  0  0  0
  8 19  1  0  0  0  0
  8 10  2  0  0  0  0
  9  7  2  0  0  0  0
 11  7  1  0  0  0  0
 11 16  2  0  0  0  0
 12 23  1  1  0  0  0
 12  1  1  0  0  0  0
 13  4  2  0  0  0  0
 13  9  1  0  0  0  0
 14  4  1  6  0  0  0
 14 18  1  0  0  0  0
 14 11  1  0  0  0  0
 15 20  1  1  0  0  0
 16  3  1  0  0  0  0
 17  8  1  0  0  0  0
 18  6  1  0  0  0  0
 20 19  2  0  0  0  0
 21 15  1  0  0  0  0
 21 17  1  0  0  0  0
 22 25  1  0  0  0  0
 23 24  1  0  0  0  0
 25 24  2  0  0  0  0
 26 27  1  0  0  0  0
 26 22  2  0  0  0  0
 27 23  2  0  0  0  0
M  END
>  <MODEL>
6

>  <REMARK>
 VINA RESULT:      -5.1      3.322      6.978
  Name = 
  1 active torsions:
  status: ('A' for Active; 'I' for Inactive)
    1  A    between atoms: C_9  and  C_15
                            x       y       z     vdW  Elec       q    Type
                         _______ _______ _______ _____ _____    ______ ____

>  <TORSDO>
F 1

$$$$
=
 OpenBabel11052423133D

 27 31  0  0  1  0  0  0  0  0999 V2000
  159.3770  211.0070  137.5530 N   0  0  0  0  0  2  0  0  0  0  0  0
  158.6840  212.3640  139.5260 C   0  0  0  0  0  0  0  0  0  0  0  0
  160.4040  210.5750  140.3300 N   0  0  0  0  0  2  0  0  0  0  0  0
  159.1770  214.2800  143.1670 C   0  0  0  0  0  3  0  0  0  0  0  0
  160.0560  214.3680  145.4410 F   0  0  0  0  0  0  0  0  0  0  0  0
  158.0740  213.5270  139.7880 C   0  0  0  0  0  3  0  0  0  0  0  0
  160.7080  211.8280  142.7870 C   0  0  0  0  0  3  0  0  0  0  0  0
  161.5790  207.7170  138.2320 C   0  0  0  0  0  0  0  0  0  0  0  0
  160.6940  212.5950  144.0840 C   0  0  0  0  0  3  0  0  0  0  0  0
  162.4720  206.8350  138.3110 O   0  0  0  0  0  0  0  0  0  0  0  0
  159.7650  212.3790  141.7420 C   0  0  0  0  0  0  0  0  0  0  0  0
  158.3010  211.7370  138.2140 C   0  0  2  0  0  3  0  0  0  0  0  0
  160.0060  213.7270  144.2500 C   0  0  0  0  0  0  0  0  0  0  0  0
  159.0580  213.6540  141.9980 C   0  0  1  0  0  3  0  0  0  0  0  0
  159.4720  209.6740  138.1190 C   0  0  1  0  0  3  0  0  0  0  0  0
  159.6050  211.7540  140.5540 C   0  0  0  0  0  0  0  0  0  0  0  0
  161.4380  208.7220  139.2900 C   0  0  0  0  0  3  0  0  0  0  0  0
  158.2580  214.1990  140.9980 O   0  0  0  0  0  0  0  0  0  0  0  0
  160.6840  207.7600  137.0740 C   0  0  0  0  0  3  0  0  0  0  0  0
  159.7180  208.6740  137.0130 C   0  0  0  0  0  3  0  0  0  0  0  0
  160.4840  209.6580  139.2360 C   0  0  0  0  0  0  0  0  0  0  0  0
  154.4940  209.7190  138.1100 C   0  0  0  0  0  3  0  0  0  0  0  0
  156.9630  211.0390  138.2020 C   0  0  0  0  0  0  0  0  0  0  0  0
  156.5250  210.2830  139.3000 C   0  0  0  0  0  3  0  0  0  0  0  0
  155.2920  209.6260  139.2540 C   0  0  0  0  0  3  0  0  0  0  0  0
  154.9300  210.4650  137.0110 C   0  0  0  0  0  3  0  0  0  0  0  0
  156.1640  211.1210  137.0570 C   0  0  0  0  0  3  0  0  0  0  0  0
  1 15  1  0  0  0  0
  1 12  1  0  0  0  0
  2  6  2  0  0  0  0
  2 16  1  0  0  0  0
  3 16  1  0  0  0  0
  4 13  2  0  0  0  0
  6 18  1  0  0  0  0
  7  9  2  0  0  0  0
  8 10  2  0  0  0  0
  8 17  1  0  0  0  0
  9 13  1  0  0  0  0
 11 14  1  0  0  0  0
 11  7  1  0  0  0  0
 12 23  1  1  0  0  0
 12  2  1  0  0  0  0
 13  5  1  0  0  0  0
 14  4  1  1  0  0  0
 15 20  1  6  0  0  0
 15 21  1  0  0  0  0
 16 11  2  0  0  0  0
 18 14  1  0  0  0  0
 19  8  1  0  0  0  0
 20 19  2  0  0  0  0
 21 17  2  0  0  0  0
 21  3  1  0  0  0  0
 22 25  1  0  0  0  0
 23 24  1  0  0  0  0
 25 24  2  0  0  0  0
 26 27  1  0  0  0  0
 26 22  2  0  0  0  0
 27 23  2  0  0  0  0
M  END
>  <MODEL>
7

>  <REMARK>
 VINA RESULT:      -4.8     12.112     15.188
  Name = 
  1 active torsions:
  status: ('A' for Active; 'I' for Inactive)
    1  A    between atoms: C_9  and  C_15
                            x       y       z     vdW  Elec       q    Type
                         _______ _______ _______ _____ _____    ______ ____

>  <TORSDO>
F 1

$$$$
=
 OpenBabel11052423133D

 27 31  0  0  1  0  0  0  0  0999 V2000
  162.7060  204.1270  148.0940 N   0  0  0  0  0  2  0  0  0  0  0  0
  162.3650  206.5470  148.5820 C   0  0  0  0  0  0  0  0  0  0  0  0
  161.0540  205.1640  150.3620 N   0  0  0  0  0  0  0  0  0  0  0  0
  161.8160  209.8890  150.9710 C   0  0  0  0  0  3  0  0  0  0  0  0
  160.8060  211.0110  152.8870 F   0  0  0  0  0  0  0  0  0  0  0  0
  162.9070  207.7300  148.2610 C   0  0  0  0  0  3  0  0  0  0  0  0
  160.6440  207.4040  151.9480 C   0  0  0  0  0  3  0  0  0  0  0  0
  160.4810  201.4790  150.1360 C   0  0  0  0  0  0  0  0  0  0  0  0
  160.4560  208.7290  152.6400 C   0  0  0  0  0  3  0  0  0  0  0  0
  160.0330  200.5780  150.8910 O   0  0  0  0  0  0  0  0  0  0  0  0
  161.3950  207.5010  150.6380 C   0  0  0  0  0  0  0  0  0  0  0  0
  162.5500  205.4710  147.5490 C   0  0  2  0  0  3  0  0  0  0  0  0
  161.0080  209.8620  152.2000 C   0  0  0  0  0  0  0  0  0  0  0  0
  161.9950  208.7930  150.2370 C   0  0  1  0  0  3  0  0  0  0  0  0
  161.3980  203.5710  148.3850 C   0  0  1  0  0  3  0  0  0  0  0  0
  161.5740  206.4110  149.8610 C   0  0  0  0  0  0  0  0  0  0  0  0
  160.5750  202.8630  150.6120 C   0  0  0  0  0  2  0  0  0  0  0  0
  162.7560  208.8540  149.0730 O   0  0  0  0  0  0  0  0  0  0  0  0
  160.9280  201.1520  148.7810 C   0  0  0  0  0  3  0  0  0  0  0  0
  161.3670  202.1170  147.9740 C   0  0  0  0  0  3  0  0  0  0  0  0
  161.0290  203.8410  149.8210 C   0  0  0  0  0  0  0  0  0  0  0  0
  159.9550  205.6690  144.1140 C   0  0  0  0  0  3  0  0  0  0  0  0
  161.6360  205.5650  146.3520 C   0  0  0  0  0  0  0  0  0  0  0  0
  160.3640  206.1500  146.4500 C   0  0  0  0  0  3  0  0  0  0  0  0
  159.5270  206.2030  145.3320 C   0  0  0  0  0  3  0  0  0  0  0  0
  161.2180  205.0780  144.0140 C   0  0  0  0  0  3  0  0  0  0  0  0
  162.0550  205.0250  145.1320 C   0  0  0  0  0  3  0  0  0  0  0  0
  1 15  1  0  0  0  0
  2 16  1  0  0  0  0
  4 13  2  0  0  0  0
  6  2  2  0  0  0  0
  6 18  1  0  0  0  0
  7  9  2  0  0  0  0
  8 17  1  0  0  0  0
  8 10  2  0  0  0  0
 11  7  1  0  0  0  0
 12 23  1  6  0  0  0
 12  1  1  0  0  0  0
 12  2  1  0  0  0  0
 13  9  1  0  0  0  0
 13  5  1  0  0  0  0
 14 11  1  0  0  0  0
 14  4  1  6  0  0  0
 15 20  1  1  0  0  0
 15 21  1  0  0  0  0
 16  3  1  0  0  0  0
 16 11  2  0  0  0  0
 18 14  1  0  0  0  0
 19  8  1  0  0  0  0
 20 19  2  0  0  0  0
 21  3  2  0  0  0  0
 21 17  1  0  0  0  0
 22 25  1  0  0  0  0
 23 24  1  0  0  0  0
 25 24  2  0  0  0  0
 26 22  2  0  0  0  0
 26 27  1  0  0  0  0
 27 23  2  0  0  0  0
M  END
>  <MODEL>
8

>  <REMARK>
 VINA RESULT:      -4.8      5.041      9.716
  Name = 
  1 active torsions:
  status: ('A' for Active; 'I' for Inactive)
    1  A    between atoms: C_9  and  C_15
                            x       y       z     vdW  Elec       q    Type
                         _______ _______ _______ _____ _____    ______ ____

>  <TORSDO>
F 1

$$$$
=
 OpenBabel11052423133D

 27 31  0  0  1  0  0  0  0  0999 V2000
  162.1970  209.2260  153.4000 N   0  0  0  0  0  2  0  0  0  0  0  0
  161.9870  210.0000  151.0390 C   0  0  0  0  0  0  0  0  0  0  0  0
  160.1200  211.1570  152.4460 N   0  0  0  0  0  0  0  0  0  0  0  0
  161.1720  212.6880  147.9930 C   0  0  0  0  0  3  0  0  0  0  0  0
  159.8130  214.4530  146.9980 F   0  0  0  0  0  0  0  0  0  0  0  0
  162.7120  210.0160  149.9130 C   0  0  0  0  0  3  0  0  0  0  0  0
  159.5380  212.9340  150.3950 C   0  0  0  0  0  3  0  0  0  0  0  0
  159.2560  210.2060  155.9530 C   0  0  0  0  0  0  0  0  0  0  0  0
  159.3100  213.7630  149.1580 C   0  0  0  0  0  3  0  0  0  0  0  0
  158.5360  210.6730  156.8730 O   0  0  0  0  0  0  0  0  0  0  0  0
  160.6130  211.8810  150.2340 C   0  0  0  0  0  0  0  0  0  0  0  0
  162.3280  208.8840  151.9870 C   0  0  2  0  0  3  0  0  0  0  0  0
  160.0710  213.6610  148.0660 C   0  0  0  0  0  0  0  0  0  0  0  0
  161.4260  211.8530  148.9980 C   0  0  1  0  0  3  0  0  0  0  0  0
  160.8090  209.0940  153.8010 C   0  0  1  0  0  3  0  0  0  0  0  0
  160.8780  211.0060  151.2290 C   0  0  0  0  0  0  0  0  0  0  0  0
  159.3610  210.9070  154.6690 C   0  0  0  0  0  2  0  0  0  0  0  0
  162.4680  210.9380  148.8930 O   0  0  0  0  0  0  0  0  0  0  0  0
  160.0080  208.9680  156.1600 C   0  0  0  0  0  3  0  0  0  0  0  0
  160.7400  208.4590  155.1700 C   0  0  0  0  0  3  0  0  0  0  0  0
  160.1050  210.4200  153.6710 C   0  0  0  0  0  0  0  0  0  0  0  0
  160.7270  205.0100  150.9860 C   0  0  0  0  0  3  0  0  0  0  0  0
  161.7750  207.5310  151.6120 C   0  0  0  0  0  0  0  0  0  0  0  0
  161.0170  207.3510  150.4450 C   0  0  0  0  0  3  0  0  0  0  0  0
  160.4960  206.0920  150.1330 C   0  0  0  0  0  3  0  0  0  0  0  0
  161.4750  205.1860  152.1530 C   0  0  0  0  0  3  0  0  0  0  0  0
  161.9960  206.4450  152.4660 C   0  0  0  0  0  3  0  0  0  0  0  0
  1 15  1  0  0  0  0
  2 16  1  0  0  0  0
  2 12  1  0  0  0  0
  3 21  2  0  0  0  0
  4 13  2  0  0  0  0
  5 13  1  0  0  0  0
  6  2  2  0  0  0  0
  8 19  1  0  0  0  0
  8 10  2  0  0  0  0
  9  7  2  0  0  0  0
 11  7  1  0  0  0  0
 11 16  2  0  0  0  0
 12 23  1  6  0  0  0
 12  1  1  0  0  0  0
 13  9  1  0  0  0  0
 14  4  1  6  0  0  0
 14 11  1  0  0  0  0
 15 20  1  1  0  0  0
 16  3  1  0  0  0  0
 17  8  1  0  0  0  0
 18 14  1  0  0  0  0
 18  6  1  0  0  0  0
 20 19  2  0  0  0  0
 21 15  1  0  0  0  0
 21 17  1  0  0  0  0
 22 26  1  0  0  0  0
 23 27  1  0  0  0  0
 24 23  2  0  0  0  0
 25 24  1  0  0  0  0
 25 22  2  0  0  0  0
 26 27  2  0  0  0  0
M  END
>  <MODEL>
9

>  <REMARK>
 VINA RESULT:      -4.5      3.165      6.888
  Name = 
  1 active torsions:
  status: ('A' for Active; 'I' for Inactive)
    1  A    between atoms: C_9  and  C_15
                            x       y       z     vdW  Elec       q    Type
                         _______ _______ _______ _____ _____    ______ ____

>  <TORSDO>
F 1

$$$$
