=
 OpenBabel11062410523D

 32 37  0  0  1  0  0  0  0  0999 V2000
  161.0030  211.4920  152.9430 C   0  0  2  0  0  3  0  0  0  0  0  0
  161.4960  210.1330  156.6000 C   0  0  0  0  0  2  0  0  0  0  0  0
  160.6410  211.2260  157.2600 C   0  0  0  0  0  2  0  0  0  0  0  0
  159.2440  212.7430  151.4380 C   0  0  1  0  0  3  0  0  0  0  0  0
  157.8670  213.3280  151.6370 C   0  0  0  0  0  0  0  0  0  0  0  0
  155.9810  214.0270  152.5940 C   0  0  0  0  0  0  0  0  0  0  0  0
  162.0640  210.6260  155.2600 C   0  0  0  0  0  2  0  0  0  0  0  0
  160.9830  211.2580  154.4340 C   0  0  0  0  0  0  0  0  0  0  0  0
  159.0760  212.3480  153.9620 C   0  0  0  0  0  0  0  0  0  0  0  0
  155.8820  214.2770  151.2340 O   0  0  0  0  0  0  0  0  0  0  0  0
  157.0350  213.8590  150.6030 N   0  0  0  0  0  0  0  0  0  0  0  0
  159.6280  211.6900  156.3600 O   0  0  0  0  0  0  0  0  0  0  0  0
  159.8930  211.7670  154.9920 C   0  0  0  0  0  0  0  0  0  0  0  0
  157.8790  212.9230  154.0750 C   0  0  0  0  0  3  0  0  0  0  0  0
  160.1880  213.8210  150.9390 C   0  0  0  0  0  1  0  0  0  0  0  0
  155.0490  214.3090  153.4920 C   0  0  0  0  0  1  0  0  0  0  0  0
  159.7400  212.1960  152.7110 N   0  0  0  0  0  0  0  0  0  0  0  0
  157.2740  213.4120  152.8260 C   0  0  0  0  0  0  0  0  0  0  0  0
  162.9720  206.6450  150.9340 C   0  0  0  0  0  2  0  0  0  0  0  0
  160.4560  208.0580  151.6370 C   0  0  1  0  0  3  0  0  0  0  0  0
  161.8410  209.9030  151.2830 N   0  0  0  0  0  0  0  0  0  0  0  0
  162.4610  207.7950  150.0650 C   0  0  0  0  0  2  0  0  0  0  0  0
  161.0020  210.1860  152.2180 C   0  0  0  0  0  0  0  0  0  0  0  0
  161.8180  205.9140  151.6350 C   0  0  1  0  0  3  0  0  0  0  0  0
  161.5420  208.6120  150.8420 N   0  0  0  0  0  0  0  0  0  0  0  0
  160.9810  206.8870  152.4740 C   0  0  0  0  0  2  0  0  0  0  0  0
  160.1250  209.1420  152.4960 O   0  0  0  0  0  0  0  0  0  0  0  0
  160.9450  205.1530  150.6450 C   0  0  0  0  0  2  0  0  0  0  0  0
  160.9030  202.7620  149.8550 C   0  0  0  0  0  0  0  0  0  0  0  0
  161.0350  203.7240  150.9000 N   0  0  0  0  0  2  0  0  0  0  0  0
  160.9650  201.3130  150.1780 C   0  0  0  0  0  1  0  0  0  0  0  0
  160.7430  203.1280  148.6590 O   0  0  0  0  0  0  0  0  0  0  0  0
  1 23  1  6  0  0  0
  1  8  1  0  0  0  0
  2  3  1  0  0  0  0
  4 15  1  1  0  0  0
  4  5  1  0  0  0  0
  4 17  1  0  0  0  0
  5 18  1  0  0  0  0
  6 18  2  0  0  0  0
  6 16  1  0  0  0  0
  7  2  1  0  0  0  0
  8 13  2  0  0  0  0
  8  7  1  0  0  0  0
  9 14  2  0  0  0  0
  9 13  1  0  0  0  0
 10  6  1  0  0  0  0
 11 10  1  0  0  0  0
 11  5  2  0  0  0  0
 12  3  1  0  0  0  0
 13 12  1  0  0  0  0
 17  1  1  0  0  0  0
 17  9  1  0  0  0  0
 18 14  1  0  0  0  0
 19 24  1  0  0  0  0
 20 26  1  1  0  0  0
 20 27  1  0  0  0  0
 21 23  2  0  0  0  0
 22 25  1  0  0  0  0
 22 19  1  0  0  0  0
 23 27  1  0  0  0  0
 24 28  1  6  0  0  0
 24 26  1  0  0  0  0
 25 21  1  0  0  0  0
 25 20  1  0  0  0  0
 28 30  1  0  0  0  0
 29 31  1  0  0  0  0
 29 30  1  0  0  0  0
 32 29  2  0  0  0  0
M  END
>  <MODEL>
1

>  <REMARK>
 VINA RESULT:      -7.0      0.000      0.000
  Name = 
  3 active torsions:
  status: ('A' for Active; 'I' for Inactive)
    1  A    between atoms: C_3  and  C_14
    2  A    between atoms: N_10  and  C_24
    3  A    between atoms: C_19  and  C_24
                            x       y       z     vdW  Elec       q    Type
                         _______ _______ _______ _____ _____    ______ ____

>  <TORSDO>
F 3

$$$$
=
 OpenBabel11062410523D

 32 37  0  0  1  0  0  0  0  0999 V2000
  161.9620  211.2120  150.5180 C   0  0  2  0  0  3  0  0  0  0  0  0
  159.3490  211.1380  153.4570 C   0  0  0  0  0  2  0  0  0  0  0  0
  158.6550  212.4460  153.0450 C   0  0  0  0  0  2  0  0  0  0  0  0
  162.2180  211.9990  148.0200 C   0  0  1  0  0  3  0  0  0  0  0  0
  161.3500  212.7110  147.0120 C   0  0  0  0  0  0  0  0  0  0  0  0
  159.6560  213.8210  146.0850 C   0  0  0  0  0  0  0  0  0  0  0  0
  160.7970  211.1080  152.9420 C   0  0  0  0  0  2  0  0  0  0  0  0
  160.8470  211.4980  151.4950 C   0  0  0  0  0  0  0  0  0  0  0  0
  160.2440  212.4930  149.5720 C   0  0  0  0  0  0  0  0  0  0  0  0
  160.6070  213.6020  145.1010 O   0  0  0  0  0  0  0  0  0  0  0  0
  161.6770  212.9170  145.6360 N   0  0  0  0  0  0  0  0  0  0  0  0
  158.7510  212.6470  151.6310 O   0  0  0  0  0  0  0  0  0  0  0  0
  159.8950  212.2390  150.9440 C   0  0  0  0  0  0  0  0  0  0  0  0
  159.5500  213.1530  148.6460 C   0  0  0  0  0  3  0  0  0  0  0  0
  163.5060  212.7780  148.2220 C   0  0  0  0  0  1  0  0  0  0  0  0
  158.5050  214.4530  145.9090 C   0  0  0  0  0  1  0  0  0  0  0  0
  161.5020  211.8820  149.3000 N   0  0  0  0  0  0  0  0  0  0  0  0
  160.1620  213.2320  147.3110 C   0  0  0  0  0  0  0  0  0  0  0  0
  160.8240  205.7490  151.0380 C   0  0  0  0  0  2  0  0  0  0  0  0
  162.0710  207.7360  149.2150 C   0  0  1  0  0  3  0  0  0  0  0  0
  162.2710  208.8930  151.2310 N   0  0  0  0  0  0  0  0  0  0  0  0
  162.1670  206.3880  151.3910 C   0  0  0  0  0  2  0  0  0  0  0  0
  162.0740  209.7410  150.2820 C   0  0  0  0  0  0  0  0  0  0  0  0
  160.6210  205.6730  149.5170 C   0  0  1  0  0  3  0  0  0  0  0  0
  162.3210  207.6270  150.6440 N   0  0  0  0  0  0  0  0  0  0  0  0
  160.7380  207.0600  148.8770 C   0  0  0  0  0  2  0  0  0  0  0  0
  161.9490  209.1400  149.0340 O   0  0  0  0  0  0  0  0  0  0  0  0
  161.5820  204.6850  148.8670 C   0  0  0  0  0  2  0  0  0  0  0  0
  161.8470  204.5310  146.3680 C   0  0  0  0  0  0  0  0  0  0  0  0
  161.0880  204.3020  147.5540 N   0  0  0  0  0  2  0  0  0  0  0  0
  161.2780  204.1550  145.0470 C   0  0  0  0  0  1  0  0  0  0  0  0
  162.9990  205.0400  146.4280 O   0  0  0  0  0  0  0  0  0  0  0  0
  1 23  1  6  0  0  0
  1  8  1  0  0  0  0
  3  2  1  0  0  0  0
  4 15  1  1  0  0  0
  4 17  1  0  0  0  0
  5 18  1  0  0  0  0
  5  4  1  0  0  0  0
  6 18  2  0  0  0  0
  7  2  1  0  0  0  0
  8  7  1  0  0  0  0
  9 13  1  0  0  0  0
 10 11  1  0  0  0  0
 10  6  1  0  0  0  0
 11  5  2  0  0  0  0
 12  3  1  0  0  0  0
 13  8  2  0  0  0  0
 13 12  1  0  0  0  0
 14  9  2  0  0  0  0
 16  6  1  0  0  0  0
 17  9  1  0  0  0  0
 17  1  1  0  0  0  0
 18 14  1  0  0  0  0
 19 22  1  0  0  0  0
 20 26  1  1  0  0  0
 20 25  1  0  0  0  0
 23 21  2  0  0  0  0
 24 28  1  6  0  0  0
 24 19  1  0  0  0  0
 25 21  1  0  0  0  0
 25 22  1  0  0  0  0
 26 24  1  0  0  0  0
 27 20  1  0  0  0  0
 27 23  1  0  0  0  0
 29 32  2  0  0  0  0
 29 30  1  0  0  0  0
 30 28  1  0  0  0  0
 31 29  1  0  0  0  0
M  END
>  <MODEL>
2

>  <REMARK>
 VINA RESULT:      -6.8      3.358      4.527
  Name = 
  3 active torsions:
  status: ('A' for Active; 'I' for Inactive)
    1  A    between atoms: C_3  and  C_14
    2  A    between atoms: N_10  and  C_24
    3  A    between atoms: C_19  and  C_24
                            x       y       z     vdW  Elec       q    Type
                         _______ _______ _______ _____ _____    ______ ____

>  <TORSDO>
F 3

$$$$
=
 OpenBabel11062410523D

 32 37  0  0  1  0  0  0  0  0999 V2000
  161.8630  211.5800  150.3750 C   0  0  2  0  0  3  0  0  0  0  0  0
  158.9670  211.6130  153.0350 C   0  0  0  0  0  2  0  0  0  0  0  0
  158.2910  212.8750  152.4740 C   0  0  0  0  0  2  0  0  0  0  0  0
  162.3570  212.2210  147.8710 C   0  0  1  0  0  3  0  0  0  0  0  0
  161.5820  212.8460  146.7380 C   0  0  0  0  0  0  0  0  0  0  0  0
  159.9680  213.8520  145.5770 C   0  0  0  0  0  0  0  0  0  0  0  0
  160.4590  211.5920  152.6720 C   0  0  0  0  0  2  0  0  0  0  0  0
  160.6490  211.8940  151.2150 C   0  0  0  0  0  0  0  0  0  0  0  0
  160.2250  212.7550  149.1830 C   0  0  0  0  0  0  0  0  0  0  0  0
  161.0190  213.6000  144.7090 O   0  0  0  0  0  0  0  0  0  0  0  0
  162.0430  212.9780  145.3920 N   0  0  0  0  0  0  0  0  0  0  0  0
  158.5260  212.9930  151.0670 O   0  0  0  0  0  0  0  0  0  0  0  0
  159.7430  212.5740  150.5250 C   0  0  0  0  0  0  0  0  0  0  0  0
  159.6150  213.3380  148.1520 C   0  0  0  0  0  3  0  0  0  0  0  0
  163.6010  213.0450  148.1520 C   0  0  0  0  0  1  0  0  0  0  0  0
  158.8290  214.4410  145.2470 C   0  0  0  0  0  1  0  0  0  0  0  0
  161.5160  212.1620  149.0770 N   0  0  0  0  0  0  0  0  0  0  0  0
  160.3590  213.3520  146.8820 C   0  0  0  0  0  0  0  0  0  0  0  0
  160.9130  206.1300  151.2730 C   0  0  0  0  0  2  0  0  0  0  0  0
  162.1070  208.0270  149.3230 C   0  0  1  0  0  3  0  0  0  0  0  0
  162.2470  209.3290  151.2540 N   0  0  0  0  0  0  0  0  0  0  0  0
  162.2290  206.8400  151.5900 C   0  0  0  0  0  2  0  0  0  0  0  0
  162.0290  210.1010  150.2450 C   0  0  0  0  0  0  0  0  0  0  0  0
  160.7280  205.9390  149.7600 C   0  0  1  0  0  3  0  0  0  0  0  0
  162.3470  208.0280  150.7580 N   0  0  0  0  0  0  0  0  0  0  0  0
  160.8020  207.2820  149.0240 C   0  0  0  0  0  2  0  0  0  0  0  0
  161.9380  209.4090  149.0420 O   0  0  0  0  0  0  0  0  0  0  0  0
  161.7290  204.9430  149.1880 C   0  0  0  0  0  2  0  0  0  0  0  0
  160.7750  202.6500  149.6000 C   0  0  0  0  0  0  0  0  0  0  0  0
  161.0360  203.7500  148.7300 N   0  0  0  0  0  2  0  0  0  0  0  0
  160.0960  201.4380  149.0700 C   0  0  0  0  0  1  0  0  0  0  0  0
  161.1050  202.6970  150.8160 O   0  0  0  0  0  0  0  0  0  0  0  0
  1 23  1  6  0  0  0
  1  8  1  0  0  0  0
  3  2  1  0  0  0  0
  4 15  1  1  0  0  0
  4 17  1  0  0  0  0
  5 18  1  0  0  0  0
  5  4  1  0  0  0  0
  6 18  2  0  0  0  0
  7  2  1  0  0  0  0
  8  7  1  0  0  0  0
  9 13  1  0  0  0  0
 10 11  1  0  0  0  0
 10  6  1  0  0  0  0
 11  5  2  0  0  0  0
 12  3  1  0  0  0  0
 13 12  1  0  0  0  0
 13  8  2  0  0  0  0
 14  9  2  0  0  0  0
 16  6  1  0  0  0  0
 17  9  1  0  0  0  0
 17  1  1  0  0  0  0
 18 14  1  0  0  0  0
 19 22  1  0  0  0  0
 20 26  1  1  0  0  0
 20 25  1  0  0  0  0
 23 21  2  0  0  0  0
 24 28  1  6  0  0  0
 24 19  1  0  0  0  0
 25 21  1  0  0  0  0
 25 22  1  0  0  0  0
 26 24  1  0  0  0  0
 27 20  1  0  0  0  0
 27 23  1  0  0  0  0
 29 32  2  0  0  0  0
 30 28  1  0  0  0  0
 30 29  1  0  0  0  0
 31 29  1  0  0  0  0
M  END
>  <MODEL>
3

>  <REMARK>
 VINA RESULT:      -6.7      3.258      4.596
  Name = 
  3 active torsions:
  status: ('A' for Active; 'I' for Inactive)
    1  A    between atoms: C_3  and  C_14
    2  A    between atoms: N_10  and  C_24
    3  A    between atoms: C_19  and  C_24
                            x       y       z     vdW  Elec       q    Type
                         _______ _______ _______ _____ _____    ______ ____

>  <TORSDO>
F 3

$$$$
=
 OpenBabel11062410523D

 32 37  0  0  1  0  0  0  0  0999 V2000
  161.0210  211.5520  152.2550 C   0  0  2  0  0  3  0  0  0  0  0  0
  159.9930  209.8870  155.6660 C   0  0  0  0  0  2  0  0  0  0  0  0
  158.8600  210.8830  155.9590 C   0  0  0  0  0  2  0  0  0  0  0  0
  159.9930  212.8680  150.2220 C   0  0  1  0  0  3  0  0  0  0  0  0
  158.6260  213.3810  149.8410 C   0  0  0  0  0  0  0  0  0  0  0  0
  156.4660  213.9200  149.9270 C   0  0  0  0  0  0  0  0  0  0  0  0
  161.0440  210.5190  154.7410 C   0  0  0  0  0  2  0  0  0  0  0  0
  160.3800  211.1840  153.5710 C   0  0  0  0  0  0  0  0  0  0  0  0
  158.7870  212.2410  152.3900 C   0  0  0  0  0  0  0  0  0  0  0  0
  156.9440  214.2880  148.6800 O   0  0  0  0  0  0  0  0  0  0  0  0
  158.2830  213.9720  148.5860 N   0  0  0  0  0  0  0  0  0  0  0  0
  158.3010  211.3890  154.7420 O   0  0  0  0  0  0  0  0  0  0  0  0
  159.1220  211.5990  153.6320 C   0  0  0  0  0  0  0  0  0  0  0  0
  157.6190  212.7570  152.0100 C   0  0  0  0  0  3  0  0  0  0  0  0
  160.9790  214.0220  150.2540 C   0  0  0  0  0  1  0  0  0  0  0  0
  155.2210  214.0850  150.3480 C   0  0  0  0  0  1  0  0  0  0  0  0
  159.9330  212.2270  151.5450 N   0  0  0  0  0  0  0  0  0  0  0  0
  157.5760  213.3350  150.6570 C   0  0  0  0  0  0  0  0  0  0  0  0
  160.4560  206.7000  149.5100 C   0  0  0  0  0  2  0  0  0  0  0  0
  162.3230  208.9730  149.9210 C   0  0  1  0  0  3  0  0  0  0  0  0
  161.0880  209.1340  151.8950 N   0  0  0  0  0  0  0  0  0  0  0  0
  161.2020  206.8590  150.8350 C   0  0  0  0  0  2  0  0  0  0  0  0
  161.4270  210.3180  151.5180 C   0  0  0  0  0  0  0  0  0  0  0  0
  161.2540  207.2970  148.3410 C   0  0  1  0  0  3  0  0  0  0  0  0
  161.6400  208.2390  150.9770 N   0  0  0  0  0  0  0  0  0  0  0  0
  161.5800  208.7720  148.5970 C   0  0  0  0  0  2  0  0  0  0  0  0
  162.1770  210.3210  150.3460 O   0  0  0  0  0  0  0  0  0  0  0  0
  162.5180  206.4960  148.0510 C   0  0  0  0  0  2  0  0  0  0  0  0
  161.8820  204.3530  146.8930 C   0  0  0  0  0  0  0  0  0  0  0  0
  162.3380  205.7040  146.8450 N   0  0  0  0  0  2  0  0  0  0  0  0
  161.7530  203.5770  145.6320 C   0  0  0  0  0  1  0  0  0  0  0  0
  161.5800  203.8130  147.9920 O   0  0  0  0  0  0  0  0  0  0  0  0
  1 23  1  6  0  0  0
  1  8  1  0  0  0  0
  2  3  1  0  0  0  0
  4 15  1  1  0  0  0
  4 17  1  0  0  0  0
  5  4  1  0  0  0  0
  5 18  1  0  0  0  0
  6 16  1  0  0  0  0
  6 18  2  0  0  0  0
  7  2  1  0  0  0  0
  8 13  2  0  0  0  0
  8  7  1  0  0  0  0
  9 13  1  0  0  0  0
 10  6  1  0  0  0  0
 11 10  1  0  0  0  0
 11  5  2  0  0  0  0
 12  3  1  0  0  0  0
 13 12  1  0  0  0  0
 14  9  2  0  0  0  0
 17  1  1  0  0  0  0
 17  9  1  0  0  0  0
 18 14  1  0  0  0  0
 19 22  1  0  0  0  0
 20 26  1  6  0  0  0
 20 27  1  0  0  0  0
 20 25  1  0  0  0  0
 22 25  1  0  0  0  0
 23 21  2  0  0  0  0
 24 28  1  1  0  0  0
 24 26  1  0  0  0  0
 24 19  1  0  0  0  0
 25 21  1  0  0  0  0
 27 23  1  0  0  0  0
 29 32  2  0  0  0  0
 30 29  1  0  0  0  0
 30 28  1  0  0  0  0
 31 29  1  0  0  0  0
M  END
>  <MODEL>
4

>  <REMARK>
 VINA RESULT:      -6.3      2.077      2.534
  Name = 
  3 active torsions:
  status: ('A' for Active; 'I' for Inactive)
    1  A    between atoms: C_3  and  C_14
    2  A    between atoms: N_10  and  C_24
    3  A    between atoms: C_19  and  C_24
                            x       y       z     vdW  Elec       q    Type
                         _______ _______ _______ _____ _____    ______ ____

>  <TORSDO>
F 3

$$$$
=
 OpenBabel11062410523D

 32 37  0  0  1  0  0  0  0  0999 V2000
  162.0300  208.6920  152.1350 C   0  0  2  0  0  3  0  0  0  0  0  0
  161.9060  211.4910  149.3750 C   0  0  0  0  0  2  0  0  0  0  0  0
  162.3310  210.5600  148.2280 C   0  0  0  0  0  2  0  0  0  0  0  0
  161.6540  206.1070  152.4540 C   0  0  1  0  0  3  0  0  0  0  0  0
  161.2890  204.9450  151.5640 C   0  0  0  0  0  0  0  0  0  0  0  0
  160.8260  203.7240  149.7590 C   0  0  0  0  0  0  0  0  0  0  0  0
  162.4090  210.9530  150.7240 C   0  0  0  0  0  2  0  0  0  0  0  0
  162.0900  209.4930  150.8570 C   0  0  0  0  0  0  0  0  0  0  0  0
  161.6730  207.3750  150.2310 C   0  0  0  0  0  0  0  0  0  0  0  0
  160.7280  202.8960  150.8650 O   0  0  0  0  0  0  0  0  0  0  0  0
  161.0110  203.6160  152.0070 N   0  0  0  0  0  0  0  0  0  0  0  0
  161.9120  209.2150  148.4850 O   0  0  0  0  0  0  0  0  0  0  0  0
  161.9030  208.7250  149.7920 C   0  0  0  0  0  0  0  0  0  0  0  0
  161.3960  206.2980  149.4980 C   0  0  0  0  0  3  0  0  0  0  0  0
  162.9810  205.8280  153.1360 C   0  0  0  0  0  1  0  0  0  0  0  0
  160.6210  203.3510  148.5040 C   0  0  0  0  0  1  0  0  0  0  0  0
  161.7550  207.3370  151.6530 N   0  0  0  0  0  0  0  0  0  0  0  0
  161.1890  205.0440  150.2400 C   0  0  0  0  0  0  0  0  0  0  0  0
  159.4400  211.3040  156.3620 C   0  0  0  0  0  2  0  0  0  0  0  0
  159.0000  210.2360  153.6260 C   0  0  1  0  0  3  0  0  0  0  0  0
  160.8290  208.9310  154.2530 N   0  0  0  0  0  0  0  0  0  0  0  0
  159.3870  209.7960  156.1190 C   0  0  0  0  0  2  0  0  0  0  0  0
  160.9030  209.1710  152.9890 C   0  0  0  0  0  0  0  0  0  0  0  0
  158.5910  212.0690  155.3360 C   0  0  1  0  0  3  0  0  0  0  0  0
  159.6540  209.5260  154.7140 N   0  0  0  0  0  0  0  0  0  0  0  0
  159.0330  211.7420  153.9050 C   0  0  0  0  0  2  0  0  0  0  0  0
  159.8430  209.9420  152.5200 O   0  0  0  0  0  0  0  0  0  0  0  0
  157.1020  211.8050  155.5240 C   0  0  0  0  0  2  0  0  0  0  0  0
  155.6090  213.5730  154.5320 C   0  0  0  0  0  0  0  0  0  0  0  0
  156.3530  212.3620  154.4090 N   0  0  0  0  0  2  0  0  0  0  0  0
  154.8310  214.0780  153.3710 C   0  0  0  0  0  1  0  0  0  0  0  0
  155.6110  214.2250  155.6120 O   0  0  0  0  0  0  0  0  0  0  0  0
  1 23  1  1  0  0  0
  2  7  1  0  0  0  0
  3 12  1  0  0  0  0
  3  2  1  0  0  0  0
  4 15  1  6  0  0  0
  5 11  2  0  0  0  0
  5  4  1  0  0  0  0
  6 18  2  0  0  0  0
  6 10  1  0  0  0  0
  7  8  1  0  0  0  0
  8  1  1  0  0  0  0
  9 17  1  0  0  0  0
 10 11  1  0  0  0  0
 12 13  1  0  0  0  0
 13  9  1  0  0  0  0
 13  8  2  0  0  0  0
 14  9  2  0  0  0  0
 14 18  1  0  0  0  0
 16  6  1  0  0  0  0
 17  1  1  0  0  0  0
 17  4  1  0  0  0  0
 18  5  1  0  0  0  0
 20 26  1  1  0  0  0
 20 25  1  0  0  0  0
 21 25  1  0  0  0  0
 22 19  1  0  0  0  0
 23 21  2  0  0  0  0
 24 28  1  6  0  0  0
 24 19  1  0  0  0  0
 25 22  1  0  0  0  0
 26 24  1  0  0  0  0
 27 23  1  0  0  0  0
 27 20  1  0  0  0  0
 29 32  2  0  0  0  0
 30 29  1  0  0  0  0
 30 28  1  0  0  0  0
 31 29  1  0  0  0  0
M  END
>  <MODEL>
5

>  <REMARK>
 VINA RESULT:      -5.9      2.258      8.585
  Name = 
  3 active torsions:
  status: ('A' for Active; 'I' for Inactive)
    1  A    between atoms: C_3  and  C_14
    2  A    between atoms: N_10  and  C_24
    3  A    between atoms: C_19  and  C_24
                            x       y       z     vdW  Elec       q    Type
                         _______ _______ _______ _____ _____    ______ ____

>  <TORSDO>
F 3

$$$$
=
 OpenBabel11062410523D

 32 37  0  0  1  0  0  0  0  0999 V2000
  161.6530  208.3620  152.9010 C   0  0  2  0  0  3  0  0  0  0  0  0
  160.0510  207.0700  156.2520 C   0  0  0  0  0  2  0  0  0  0  0  0
  159.7840  208.4740  156.8180 C   0  0  0  0  0  2  0  0  0  0  0  0
  161.5090  210.3600  151.1950 C   0  0  1  0  0  3  0  0  0  0  0  0
  160.7180  211.6410  151.0870 C   0  0  0  0  0  0  0  0  0  0  0  0
  159.3490  213.3310  151.5680 C   0  0  0  0  0  0  0  0  0  0  0  0
  161.2050  207.1050  155.2390 C   0  0  0  0  0  2  0  0  0  0  0  0
  161.0090  208.2240  154.2600 C   0  0  0  0  0  0  0  0  0  0  0  0
  160.3180  210.2060  153.4550 C   0  0  0  0  0  0  0  0  0  0  0  0
  159.8670  213.5540  150.3020 O   0  0  0  0  0  0  0  0  0  0  0  0
  160.7250  212.5280  149.9670 N   0  0  0  0  0  0  0  0  0  0  0  0
  159.5720  209.4150  155.7590 O   0  0  0  0  0  0  0  0  0  0  0  0
  160.2740  209.2860  154.5600 C   0  0  0  0  0  0  0  0  0  0  0  0
  159.6870  211.3710  153.3170 C   0  0  0  0  0  3  0  0  0  0  0  0
  162.9930  210.6770  151.1830 C   0  0  0  0  0  1  0  0  0  0  0  0
  158.4950  214.1260  152.1950 C   0  0  0  0  0  1  0  0  0  0  0  0
  161.1590  209.6620  152.4420 N   0  0  0  0  0  0  0  0  0  0  0  0
  159.9150  212.0860  152.0520 C   0  0  0  0  0  0  0  0  0  0  0  0
  161.4980  205.0080  148.4140 C   0  0  0  0  0  2  0  0  0  0  0  0
  160.5890  205.2180  151.2340 C   0  0  1  0  0  3  0  0  0  0  0  0
  160.8700  207.4850  150.7560 N   0  0  0  0  0  0  0  0  0  0  0  0
  160.3880  205.9860  148.7980 C   0  0  0  0  0  2  0  0  0  0  0  0
  161.1700  207.2800  151.9920 C   0  0  0  0  0  0  0  0  0  0  0  0
  161.5260  203.7930  149.3530 C   0  0  1  0  0  3  0  0  0  0  0  0
  160.4610  206.2600  150.2250 N   0  0  0  0  0  0  0  0  0  0  0  0
  161.6820  204.2310  150.8140 C   0  0  0  0  0  2  0  0  0  0  0  0
  161.0240  205.9500  152.3720 O   0  0  0  0  0  0  0  0  0  0  0  0
  160.2980  202.9090  149.1720 C   0  0  0  0  0  2  0  0  0  0  0  0
  160.9880  201.3070  147.3560 C   0  0  0  0  0  0  0  0  0  0  0  0
  160.7000  201.5850  148.7250 N   0  0  0  0  0  2  0  0  0  0  0  0
  161.3570  199.9270  146.9480 C   0  0  0  0  0  1  0  0  0  0  0  0
  160.9400  202.2220  146.4890 O   0  0  0  0  0  0  0  0  0  0  0  0
  1 23  1  6  0  0  0
  1  8  1  0  0  0  0
  2  3  1  0  0  0  0
  4 15  1  1  0  0  0
  4 17  1  0  0  0  0
  5  4  1  0  0  0  0
  5 18  1  0  0  0  0
  6 18  2  0  0  0  0
  6 16  1  0  0  0  0
  7  2  1  0  0  0  0
  8 13  2  0  0  0  0
  8  7  1  0  0  0  0
  9 13  1  0  0  0  0
 10  6  1  0  0  0  0
 11 10  1  0  0  0  0
 11  5  2  0  0  0  0
 12  3  1  0  0  0  0
 13 12  1  0  0  0  0
 14  9  2  0  0  0  0
 17  1  1  0  0  0  0
 17  9  1  0  0  0  0
 18 14  1  0  0  0  0
 19 22  1  0  0  0  0
 19 24  1  0  0  0  0
 20 26  1  6  0  0  0
 20 27  1  0  0  0  0
 21 23  2  0  0  0  0
 22 25  1  0  0  0  0
 23 27  1  0  0  0  0
 24 28  1  1  0  0  0
 24 26  1  0  0  0  0
 25 21  1  0  0  0  0
 25 20  1  0  0  0  0
 29 30  1  0  0  0  0
 30 28  1  0  0  0  0
 31 29  1  0  0  0  0
 32 29  2  0  0  0  0
M  END
>  <MODEL>
6

>  <REMARK>
 VINA RESULT:      -5.9      2.217      3.165
  Name = 
  3 active torsions:
  status: ('A' for Active; 'I' for Inactive)
    1  A    between atoms: C_3  and  C_14
    2  A    between atoms: N_10  and  C_24
    3  A    between atoms: C_19  and  C_24
                            x       y       z     vdW  Elec       q    Type
                         _______ _______ _______ _____ _____    ______ ____

>  <TORSDO>
F 3

$$$$
=
 OpenBabel11062410523D

 32 37  0  0  1  0  0  0  0  0999 V2000
  161.5980  212.5130  149.0550 C   0  0  2  0  0  3  0  0  0  0  0  0
  158.7140  212.8300  151.7110 C   0  0  0  0  0  2  0  0  0  0  0  0
  157.9430  213.9110  150.9360 C   0  0  0  0  0  2  0  0  0  0  0  0
  162.0350  212.7090  146.4680 C   0  0  1  0  0  3  0  0  0  0  0  0
  161.2120  213.0510  145.2510 C   0  0  0  0  0  0  0  0  0  0  0  0
  159.5230  213.7000  143.9510 C   0  0  0  0  0  0  0  0  0  0  0  0
  160.2030  212.8510  151.3330 C   0  0  0  0  0  2  0  0  0  0  0  0
  160.3650  212.8880  149.8420 C   0  0  0  0  0  0  0  0  0  0  0  0
  159.8720  213.3190  147.6930 C   0  0  0  0  0  0  0  0  0  0  0  0
  160.5880  213.3680  143.1270 O   0  0  0  0  0  0  0  0  0  0  0  0
  161.6570  212.9630  143.8970 N   0  0  0  0  0  0  0  0  0  0  0  0
  158.1650  213.7800  149.5270 O   0  0  0  0  0  0  0  0  0  0  0  0
  159.4090  213.3590  149.0530 C   0  0  0  0  0  0  0  0  0  0  0  0
  159.2170  213.6530  146.5810 C   0  0  0  0  0  3  0  0  0  0  0  0
  163.2130  213.6600  146.5700 C   0  0  0  0  0  1  0  0  0  0  0  0
  158.3410  214.1310  143.5350 C   0  0  0  0  0  1  0  0  0  0  0  0
  161.2040  212.8150  147.6780 N   0  0  0  0  0  0  0  0  0  0  0  0
  159.9540  213.4840  145.3190 C   0  0  0  0  0  0  0  0  0  0  0  0
  160.7850  207.1810  150.5750 C   0  0  0  0  0  2  0  0  0  0  0  0
  162.2840  208.8850  148.6590 C   0  0  1  0  0  3  0  0  0  0  0  0
  161.8990  210.4540  150.3420 N   0  0  0  0  0  0  0  0  0  0  0  0
  161.9490  208.0460  151.0560 C   0  0  0  0  0  2  0  0  0  0  0  0
  161.8750  211.0530  149.2010 C   0  0  0  0  0  0  0  0  0  0  0  0
  160.9640  206.7620  149.1080 C   0  0  1  0  0  3  0  0  0  0  0  0
  162.1860  209.1110  150.0930 N   0  0  0  0  0  0  0  0  0  0  0  0
  161.1280  207.9880  148.2030 C   0  0  0  0  0  2  0  0  0  0  0  0
  162.1040  210.1920  148.1320 O   0  0  0  0  0  0  0  0  0  0  0  0
  162.1270  205.7920  148.9350 C   0  0  0  0  0  2  0  0  0  0  0  0
  161.2020  203.4770  149.2920 C   0  0  0  0  0  0  0  0  0  0  0  0
  161.6410  204.5200  148.4240 N   0  0  0  0  0  2  0  0  0  0  0  0
  160.7500  202.1830  148.7180 C   0  0  0  0  0  1  0  0  0  0  0  0
  161.1840  203.6440  150.5420 O   0  0  0  0  0  0  0  0  0  0  0  0
  1 23  1  6  0  0  0
  1  8  1  0  0  0  0
  3  2  1  0  0  0  0
  4 15  1  1  0  0  0
  4 17  1  0  0  0  0
  5 18  1  0  0  0  0
  5  4  1  0  0  0  0
  6 18  2  0  0  0  0
  7  2  1  0  0  0  0
  8  7  1  0  0  0  0
  9 13  1  0  0  0  0
 10 11  1  0  0  0  0
 10  6  1  0  0  0  0
 11  5  2  0  0  0  0
 12  3  1  0  0  0  0
 13 12  1  0  0  0  0
 13  8  2  0  0  0  0
 14  9  2  0  0  0  0
 16  6  1  0  0  0  0
 17  9  1  0  0  0  0
 17  1  1  0  0  0  0
 18 14  1  0  0  0  0
 19 22  1  0  0  0  0
 20 26  1  6  0  0  0
 20 25  1  0  0  0  0
 23 21  2  0  0  0  0
 24 28  1  1  0  0  0
 24 19  1  0  0  0  0
 25 21  1  0  0  0  0
 25 22  1  0  0  0  0
 26 24  1  0  0  0  0
 27 20  1  0  0  0  0
 27 23  1  0  0  0  0
 29 32  2  0  0  0  0
 30 28  1  0  0  0  0
 30 29  1  0  0  0  0
 31 29  1  0  0  0  0
M  END
>  <MODEL>
7

>  <REMARK>
 VINA RESULT:      -5.7      4.060      5.616
  Name = 
  3 active torsions:
  status: ('A' for Active; 'I' for Inactive)
    1  A    between atoms: C_3  and  C_14
    2  A    between atoms: N_10  and  C_24
    3  A    between atoms: C_19  and  C_24
                            x       y       z     vdW  Elec       q    Type
                         _______ _______ _______ _____ _____    ______ ____

>  <TORSDO>
F 3

$$$$
=
 OpenBabel11062410523D

 32 37  0  0  1  0  0  0  0  0999 V2000
  162.3410  208.3060  150.9100 C   0  0  2  0  0  3  0  0  0  0  0  0
  161.2240  205.8400  153.7630 C   0  0  0  0  0  2  0  0  0  0  0  0
  160.8260  206.9530  154.7470 C   0  0  0  0  0  2  0  0  0  0  0  0
  161.7870  210.6770  149.9150 C   0  0  1  0  0  3  0  0  0  0  0  0
  160.8290  211.7950  150.2430 C   0  0  0  0  0  0  0  0  0  0  0  0
  159.2960  213.0350  151.2820 C   0  0  0  0  0  0  0  0  0  0  0  0
  162.2700  206.3520  152.7610 C   0  0  0  0  0  2  0  0  0  0  0  0
  161.8430  207.6700  152.1860 C   0  0  0  0  0  0  0  0  0  0  0  0
  160.8300  209.6730  152.0660 C   0  0  0  0  0  0  0  0  0  0  0  0
  159.6680  213.7030  150.1260 O   0  0  0  0  0  0  0  0  0  0  0  0
  160.6200  212.9680  149.4530 N   0  0  0  0  0  0  0  0  0  0  0  0
  160.3990  208.1240  154.0420 O   0  0  0  0  0  0  0  0  0  0  0  0
  161.0040  208.4690  152.8320 C   0  0  0  0  0  0  0  0  0  0  0  0
  160.0420  210.7160  152.3220 C   0  0  0  0  0  3  0  0  0  0  0  0
  163.2100  211.2040  149.9370 C   0  0  0  0  0  1  0  0  0  0  0  0
  158.4040  213.4660  152.1610 C   0  0  0  0  0  1  0  0  0  0  0  0
  161.6420  209.5930  150.8980 N   0  0  0  0  0  0  0  0  0  0  0  0
  160.0620  211.8030  151.3320 C   0  0  0  0  0  0  0  0  0  0  0  0
  162.8730  205.0520  146.3790 C   0  0  0  0  0  2  0  0  0  0  0  0
  160.9520  205.8440  148.5010 C   0  0  1  0  0  3  0  0  0  0  0  0
  162.3490  207.7130  148.5370 N   0  0  0  0  0  0  0  0  0  0  0  0
  162.2420  206.4450  146.3710 C   0  0  0  0  0  2  0  0  0  0  0  0
  161.9270  207.4860  149.7330 C   0  0  0  0  0  0  0  0  0  0  0  0
  161.9490  204.0200  147.0420 C   0  0  1  0  0  3  0  0  0  0  0  0
  161.7570  206.7600  147.7060 N   0  0  0  0  0  0  0  0  0  0  0  0
  161.5820  204.4480  148.4670 C   0  0  0  0  0  2  0  0  0  0  0  0
  161.0750  206.3880  149.8090 O   0  0  0  0  0  0  0  0  0  0  0  0
  160.7000  203.7600  146.2080 C   0  0  0  0  0  2  0  0  0  0  0  0
  160.7010  201.2440  146.3290 C   0  0  0  0  0  0  0  0  0  0  0  0
  160.7900  202.4530  145.5760 N   0  0  0  0  0  2  0  0  0  0  0  0
  160.8370  199.9360  145.6370 C   0  0  0  0  0  1  0  0  0  0  0  0
  160.5000  201.2740  147.5730 O   0  0  0  0  0  0  0  0  0  0  0  0
  1 23  1  6  0  0  0
  1  8  1  0  0  0  0
  2  3  1  0  0  0  0
  4 15  1  1  0  0  0
  4  5  1  0  0  0  0
  4 17  1  0  0  0  0
  5 18  1  0  0  0  0
  6 18  2  0  0  0  0
  6 16  1  0  0  0  0
  7  2  1  0  0  0  0
  8  7  1  0  0  0  0
  8 13  2  0  0  0  0
  9 14  2  0  0  0  0
  9 13  1  0  0  0  0
 10  6  1  0  0  0  0
 11 10  1  0  0  0  0
 11  5  2  0  0  0  0
 12  3  1  0  0  0  0
 13 12  1  0  0  0  0
 17  1  1  0  0  0  0
 17  9  1  0  0  0  0
 18 14  1  0  0  0  0
 19 24  1  0  0  0  0
 20 26  1  1  0  0  0
 20 27  1  0  0  0  0
 21 23  2  0  0  0  0
 22 19  1  0  0  0  0
 22 25  1  0  0  0  0
 23 27  1  0  0  0  0
 24 28  1  6  0  0  0
 24 26  1  0  0  0  0
 25 20  1  0  0  0  0
 25 21  1  0  0  0  0
 29 32  2  0  0  0  0
 30 28  1  0  0  0  0
 30 29  1  0  0  0  0
 31 29  1  0  0  0  0
M  END
>  <MODEL>
8

>  <REMARK>
 VINA RESULT:      -5.6      2.785      4.148
  Name = 
  3 active torsions:
  status: ('A' for Active; 'I' for Inactive)
    1  A    between atoms: C_3  and  C_14
    2  A    between atoms: N_10  and  C_24
    3  A    between atoms: C_19  and  C_24
                            x       y       z     vdW  Elec       q    Type
                         _______ _______ _______ _____ _____    ______ ____

>  <TORSDO>
F 3

$$$$
=
 OpenBabel11062410523D

 32 37  0  0  1  0  0  0  0  0999 V2000
  159.7280  213.1940  152.3640 C   0  0  2  0  0  3  0  0  0  0  0  0
  156.6300  213.0070  154.7790 C   0  0  0  0  0  2  0  0  0  0  0  0
  155.6770  213.7430  153.8230 C   0  0  0  0  0  2  0  0  0  0  0  0
  160.3360  213.2110  149.8040 C   0  0  1  0  0  3  0  0  0  0  0  0
  159.5680  213.1760  148.5060 C   0  0  0  0  0  0  0  0  0  0  0  0
  157.8960  213.1890  147.0330 C   0  0  0  0  0  0  0  0  0  0  0  0
  158.0890  213.3920  154.4900 C   0  0  0  0  0  2  0  0  0  0  0  0
  158.3730  213.3040  153.0200 C   0  0  0  0  0  0  0  0  0  0  0  0
  157.9850  213.3400  150.8070 C   0  0  0  0  0  0  0  0  0  0  0  0
  159.0810  213.0700  146.3250 O   0  0  0  0  0  0  0  0  0  0  0  0
  160.1450  213.0610  147.2040 N   0  0  0  0  0  0  0  0  0  0  0  0
  156.0550  213.5200  152.4600 O   0  0  0  0  0  0  0  0  0  0  0  0
  157.4040  213.4040  152.1200 C   0  0  0  0  0  0  0  0  0  0  0  0
  157.3710  213.3550  149.6240 C   0  0  0  0  0  3  0  0  0  0  0  0
  161.2070  214.4530  149.8470 C   0  0  0  0  0  1  0  0  0  0  0  0
  156.6860  213.2310  146.4950 C   0  0  0  0  0  1  0  0  0  0  0  0
  159.3980  213.2200  150.9370 N   0  0  0  0  0  0  0  0  0  0  0  0
  158.2400  213.2540  148.4410 C   0  0  0  0  0  0  0  0  0  0  0  0
  160.4920  208.3170  155.0160 C   0  0  0  0  0  2  0  0  0  0  0  0
  161.1740  209.7770  152.5210 C   0  0  1  0  0  3  0  0  0  0  0  0
  160.7350  211.5950  153.9160 N   0  0  0  0  0  0  0  0  0  0  0  0
  161.4840  209.4800  155.0460 C   0  0  0  0  0  2  0  0  0  0  0  0
  160.3660  211.8910  152.7190 C   0  0  0  0  0  0  0  0  0  0  0  0
  160.5000  207.6070  153.6540 C   0  0  1  0  0  3  0  0  0  0  0  0
  161.2850  210.3120  153.8700 N   0  0  0  0  0  0  0  0  0  0  0  0
  160.2030  208.5930  152.5190 C   0  0  0  0  0  2  0  0  0  0  0  0
  160.5970  210.8640  151.8090 O   0  0  0  0  0  0  0  0  0  0  0  0
  161.8090  206.8660  153.4100 C   0  0  0  0  0  2  0  0  0  0  0  0
  161.3820  204.9810  151.7960 C   0  0  0  0  0  0  0  0  0  0  0  0
  161.5420  205.4650  153.1280 N   0  0  0  0  0  2  0  0  0  0  0  0
  161.0720  203.5460  151.5670 C   0  0  0  0  0  1  0  0  0  0  0  0
  161.5100  205.7570  150.8090 O   0  0  0  0  0  0  0  0  0  0  0  0
  1 23  1  1  0  0  0
  1  8  1  0  0  0  0
  3  2  1  0  0  0  0
  4 15  1  6  0  0  0
  4 17  1  0  0  0  0
  5  4  1  0  0  0  0
  6 18  2  0  0  0  0
  7  2  1  0  0  0  0
  8  7  1  0  0  0  0
  9 17  1  0  0  0  0
  9 13  1  0  0  0  0
 10  6  1  0  0  0  0
 10 11  1  0  0  0  0
 11  5  2  0  0  0  0
 12  3  1  0  0  0  0
 13 12  1  0  0  0  0
 13  8  2  0  0  0  0
 14  9  2  0  0  0  0
 16  6  1  0  0  0  0
 17  1  1  0  0  0  0
 18  5  1  0  0  0  0
 18 14  1  0  0  0  0
 19 22  1  0  0  0  0
 20 26  1  1  0  0  0
 20 25  1  0  0  0  0
 23 21  2  0  0  0  0
 24 28  1  6  0  0  0
 24 19  1  0  0  0  0
 25 21  1  0  0  0  0
 25 22  1  0  0  0  0
 26 24  1  0  0  0  0
 27 20  1  0  0  0  0
 27 23  1  0  0  0  0
 29 30  1  0  0  0  0
 30 28  1  0  0  0  0
 31 29  1  0  0  0  0
 32 29  2  0  0  0  0
M  END
>  <MODEL>
9

>  <REMARK>
 VINA RESULT:      -5.6      2.489      4.104
  Name = 
  3 active torsions:
  status: ('A' for Active; 'I' for Inactive)
    1  A    between atoms: C_3  and  C_14
    2  A    between atoms: N_10  and  C_24
    3  A    between atoms: C_19  and  C_24
                            x       y       z     vdW  Elec       q    Type
                         _______ _______ _______ _____ _____    ______ ____

>  <TORSDO>
F 3

$$$$
