=
 OpenBabel11062410463D

 32 36  0  0  1  0  0  0  0  0999 V2000
  161.1520  204.5770  149.4690 C   0  0  1  0  0  3  0  0  0  0  0  0
  161.7690  209.2890  150.9920 C   0  0  0  0  0  3  0  0  0  0  0  0
  161.9570  209.7010  149.6710 C   0  0  0  0  0  3  0  0  0  0  0  0
  162.0000  203.9530  147.1120 C   0  0  1  0  0  3  0  0  0  0  0  0
  161.1060  204.2940  146.0000 N   0  0  0  0  0  0  0  0  0  0  0  0
  160.6830  201.8000  145.6360 C   0  0  0  0  0  1  0  0  0  0  0  0
  161.5370  207.9410  151.2780 C   0  0  0  0  0  3  0  0  0  0  0  0
  161.2170  205.5910  150.5420 N   0  0  0  0  0  0  0  0  0  0  0  0
  161.7000  207.4090  148.9160 C   0  0  0  0  0  0  0  0  0  0  0  0
  161.6540  206.4050  147.8470 C   0  0  0  0  0  0  0  0  0  0  0  0
  159.6710  203.4850  144.3200 O   0  0  0  0  0  0  0  0  0  0  0  0
  160.4560  203.2300  145.2730 C   0  0  0  0  0  0  0  0  0  0  0  0
  161.9190  208.7650  148.6360 C   0  0  0  0  0  3  0  0  0  0  0  0
  161.4980  206.9850  150.2480 C   0  0  0  0  0  0  0  0  0  0  0  0
  161.2120  206.7180  146.6260 C   0  0  0  0  0  3  0  0  0  0  0  0
  163.4210  203.7940  146.6020 C   0  0  0  0  0  1  0  0  0  0  0  0
  160.5930  206.0230  144.4380 N   0  0  0  0  0  2  0  0  0  0  0  0
  161.9780  204.9930  148.2470 C   0  0  1  0  0  3  0  0  0  0  0  0
  160.9780  205.6800  145.6220 C   0  0  0  0  0  0  0  0  0  0  0  0
  160.8630  202.0380  149.7800 C   0  0  0  0  0  0  0  0  0  0  0  0
  161.3480  200.9700  150.2320 O   0  0  0  0  0  0  0  0  0  0  0  0
  159.5580  201.9950  149.0600 C   0  0  0  0  0  1  0  0  0  0  0  0
  161.5810  203.2670  149.9630 N   0  0  0  0  0  2  0  0  0  0  0  0
  160.6750  205.2250  151.8490 C   0  0  0  0  0  2  0  0  0  0  0  0
  161.4540  205.9180  152.9520 C   0  0  0  0  0  2  0  0  0  0  0  0
  160.5560  206.2570  154.0410 N   0  0  0  0  0  2  0  0  0  0  0  0
  160.9850  209.5150  154.6860 C   0  0  1  0  0  3  0  0  0  0  0  0
  161.2060  207.3050  154.8070 C   0  0  2  0  0  3  0  0  0  0  0  0
  160.7950  207.1200  156.5410 S   0  0  0  0  0  0  0  0  0  0  0  0
  160.0810  210.3280  153.7800 C   0  0  0  0  0  1  0  0  0  0  0  0
  160.4730  209.5690  156.0540 C   0  0  0  0  0  2  0  0  0  0  0  0
  160.1960  208.3050  155.2250 C   0  0  1  0  0  0  0  0  0  0  0  0
  1 23  1  1  0  0  0
  1  8  1  0  0  0  0
  2  7  1  0  0  0  0
  3  2  2  0  0  0  0
  4 16  1  6  0  0  0
  4 18  1  0  0  0  0
  5  4  1  0  0  0  0
  8 24  1  0  0  0  0
  9 14  1  0  0  0  0
 10  9  1  0  0  0  0
 11 12  2  0  0  0  0
 12  6  1  0  0  0  0
 12  5  1  0  0  0  0
 13  9  2  0  0  0  0
 13  3  1  0  0  0  0
 14  8  1  0  0  0  0
 14  7  2  0  0  0  0
 15 10  2  0  0  0  0
 17 19  2  0  0  0  0
 18 10  1  6  0  0  0
 18  1  1  0  0  0  0
 19  5  1  0  0  0  0
 19 15  1  0  0  0  0
 20 23  1  0  0  0  0
 20 21  2  0  0  0  0
 22 20  1  0  0  0  0
 24 25  1  0  0  0  0
 25 26  1  0  0  0  0
 27 30  1  6  0  0  0
 27 32  1  0  0  0  0
 27 31  1  0  0  0  0
 28 26  1  6  0  0  0
 28 32  1  0  0  0  0
 28 29  1  0  0  0  0
 32 31  1  6  0  0  0
 32 29  1  0  0  0  0
M  END
>  <MODEL>
1

>  <REMARK>
 VINA RESULT:      -7.3      0.000      0.000
  Name = 
  5 active torsions:
  status: ('A' for Active; 'I' for Inactive)
    1  A    between atoms: C_2  and  N_12
    2  A    between atoms: C_3  and  N_28
    3  A    between atoms: C_9  and  N_14
    4  A    between atoms: C_9  and  C_21
    5  A    between atoms: N_12  and  C_21
                            x       y       z     vdW  Elec       q    Type
                         _______ _______ _______ _____ _____    ______ ____

>  <TORSDO>
F 5

$$$$
=
 OpenBabel11062410463D

 32 36  0  0  1  0  0  0  0  0999 V2000
  159.7780  211.5130  153.1380 C   0  0  1  0  0  3  0  0  0  0  0  0
  161.6680  208.0880  156.2370 C   0  0  0  0  0  3  0  0  0  0  0  0
  160.6620  208.3620  157.1660 C   0  0  0  0  0  3  0  0  0  0  0  0
  158.1730  213.2760  154.1260 C   0  0  1  0  0  3  0  0  0  0  0  0
  156.7800  212.8480  154.2960 N   0  0  0  0  0  0  0  0  0  0  0  0
  156.1070  214.4510  152.4240 C   0  0  0  0  0  1  0  0  0  0  0  0
  161.7140  208.7910  155.0300 C   0  0  0  0  0  3  0  0  0  0  0  0
  160.7850  210.4830  153.4680 N   0  0  0  0  0  0  0  0  0  0  0  0
  159.7540  210.0600  155.6890 C   0  0  0  0  0  0  0  0  0  0  0  0
  158.7600  211.0940  155.3760 C   0  0  0  0  0  0  0  0  0  0  0  0
  154.5560  213.0750  153.5630 O   0  0  0  0  0  0  0  0  0  0  0  0
  155.7610  213.4290  153.4550 C   0  0  0  0  0  0  0  0  0  0  0  0
  159.7060  209.3410  156.8930 C   0  0  0  0  0  3  0  0  0  0  0  0
  160.7610  209.7820  154.7390 C   0  0  0  0  0  0  0  0  0  0  0  0
  157.5080  211.0060  155.8310 C   0  0  0  0  0  3  0  0  0  0  0  0
  158.4660  214.4530  155.0390 C   0  0  0  0  0  1  0  0  0  0  0  0
  155.2800  211.8390  155.8540 N   0  0  0  0  0  2  0  0  0  0  0  0
  159.1890  212.1520  154.4000 C   0  0  1  0  0  3  0  0  0  0  0  0
  156.4710  211.9230  155.3590 C   0  0  0  0  0  0  0  0  0  0  0  0
  159.6990  213.0840  151.1000 C   0  0  0  0  0  0  0  0  0  0  0  0
  160.2820  213.9770  150.4340 O   0  0  0  0  0  0  0  0  0  0  0  0
  158.3460  212.6270  150.6710 C   0  0  0  0  0  1  0  0  0  0  0  0
  160.3470  212.5350  152.2560 N   0  0  0  0  0  2  0  0  0  0  0  0
  161.5980  209.9590  152.3710 C   0  0  0  0  0  2  0  0  0  0  0  0
  160.8860  208.8000  151.6980 C   0  0  0  0  0  2  0  0  0  0  0  0
  161.7670  207.6470  151.6580 N   0  0  0  0  0  2  0  0  0  0  0  0
  160.6160  204.8010  150.3200 C   0  0  1  0  0  3  0  0  0  0  0  0
  160.9200  206.4710  151.7570 C   0  0  2  0  0  3  0  0  0  0  0  0
  161.4290  205.4850  153.1630 S   0  0  0  0  0  0  0  0  0  0  0  0
  161.2700  204.5820  148.9700 C   0  0  0  0  0  1  0  0  0  0  0  0
  161.1530  203.8380  151.2790 C   0  0  0  0  0  2  0  0  0  0  0  0
  161.6840  205.2800  151.3230 C   0  0  1  0  0  0  0  0  0  0  0  0
  1 23  1  6  0  0  0
  1  8  1  0  0  0  0
  1 18  1  0  0  0  0
  2  3  1  0  0  0  0
  4  5  1  0  0  0  0
  4 18  1  0  0  0  0
  4 16  1  1  0  0  0
  5 19  1  0  0  0  0
  6 12  1  0  0  0  0
  7  2  2  0  0  0  0
  8 14  1  0  0  0  0
  9 13  1  0  0  0  0
 10  9  1  0  0  0  0
 10 15  2  0  0  0  0
 12 11  2  0  0  0  0
 12  5  1  0  0  0  0
 13  3  2  0  0  0  0
 14  7  1  0  0  0  0
 14  9  2  0  0  0  0
 18 10  1  6  0  0  0
 19 15  1  0  0  0  0
 19 17  2  0  0  0  0
 20 23  1  0  0  0  0
 21 20  2  0  0  0  0
 22 20  1  0  0  0  0
 24  8  1  0  0  0  0
 25 24  1  0  0  0  0
 26 25  1  0  0  0  0
 27 30  1  6  0  0  0
 27 31  1  0  0  0  0
 27 32  1  0  0  0  0
 28 26  1  1  0  0  0
 28 29  1  0  0  0  0
 32 31  1  6  0  0  0
 32 28  1  0  0  0  0
 32 29  1  0  0  0  0
M  END
>  <MODEL>
2

>  <REMARK>
 VINA RESULT:      -6.7      4.815      9.527
  Name = 
  5 active torsions:
  status: ('A' for Active; 'I' for Inactive)
    1  A    between atoms: C_2  and  N_12
    2  A    between atoms: C_3  and  N_28
    3  A    between atoms: C_9  and  N_14
    4  A    between atoms: C_9  and  C_21
    5  A    between atoms: N_12  and  C_21
                            x       y       z     vdW  Elec       q    Type
                         _______ _______ _______ _____ _____    ______ ____

>  <TORSDO>
F 5

$$$$
=
 OpenBabel11062410463D

 32 36  0  0  1  0  0  0  0  0999 V2000
  160.8400  210.0130  152.8420 C   0  0  1  0  0  3  0  0  0  0  0  0
  161.6500  212.1860  148.4240 C   0  0  0  0  0  3  0  0  0  0  0  0
  160.8740  213.2810  148.8090 C   0  0  0  0  0  3  0  0  0  0  0  0
  158.8500  210.8590  154.2520 C   0  0  1  0  0  3  0  0  0  0  0  0
  159.0940  212.0730  155.0390 N   0  0  0  0  0  0  0  0  0  0  0  0
  158.9710  210.6630  157.1670 C   0  0  0  0  0  1  0  0  0  0  0  0
  161.8300  211.1130  149.3000 C   0  0  0  0  0  3  0  0  0  0  0  0
  161.4480  210.0170  151.4950 N   0  0  0  0  0  0  0  0  0  0  0  0
  160.4350  212.2200  150.9470 C   0  0  0  0  0  0  0  0  0  0  0  0
  159.8130  212.2150  152.2770 C   0  0  0  0  0  0  0  0  0  0  0  0
  159.3760  212.9940  157.1860 O   0  0  0  0  0  0  0  0  0  0  0  0
  159.1540  211.9750  156.4780 C   0  0  0  0  0  0  0  0  0  0  0  0
  160.2700  213.3000  150.0680 C   0  0  0  0  0  3  0  0  0  0  0  0
  161.2280  211.1140  150.5700 C   0  0  0  0  0  0  0  0  0  0  0  0
  159.6130  213.3520  152.9480 C   0  0  0  0  0  3  0  0  0  0  0  0
  157.3580  210.6750  154.0350 C   0  0  0  0  0  1  0  0  0  0  0  0
  158.9540  214.4530  154.9510 N   0  0  0  0  0  2  0  0  0  0  0  0
  159.5670  210.8650  152.8900 C   0  0  1  0  0  3  0  0  0  0  0  0
  159.1810  213.3340  154.3450 C   0  0  0  0  0  0  0  0  0  0  0  0
  160.9360  208.0960  154.5570 C   0  0  0  0  0  0  0  0  0  0  0  0
  160.6200  206.9110  154.8320 O   0  0  0  0  0  0  0  0  0  0  0  0
  161.6820  208.9010  155.5670 C   0  0  0  0  0  1  0  0  0  0  0  0
  160.5640  208.6440  153.2850 N   0  0  0  0  0  2  0  0  0  0  0  0
  162.5260  209.0640  151.2400 C   0  0  0  0  0  2  0  0  0  0  0  0
  161.9910  207.8520  150.5000 C   0  0  0  0  0  2  0  0  0  0  0  0
  162.2300  206.6570  151.2890 N   0  0  0  0  0  2  0  0  0  0  0  0
  160.6710  204.4960  149.2610 C   0  0  1  0  0  3  0  0  0  0  0  0
  161.1170  205.7600  151.0360 C   0  0  2  0  0  3  0  0  0  0  0  0
  161.1100  204.4560  152.2640 S   0  0  0  0  0  0  0  0  0  0  0  0
  161.4790  204.3290  147.9890 C   0  0  0  0  0  1  0  0  0  0  0  0
  160.7750  203.2790  150.0630 C   0  0  0  0  0  2  0  0  0  0  0  0
  161.6290  204.4920  150.4690 C   0  0  1  0  0  0  0  0  0  0  0  0
  1 18  1  0  0  0  0
  1 23  1  6  0  0  0
  2  3  2  0  0  0  0
  2  7  1  0  0  0  0
  3 13  1  0  0  0  0
  4 16  1  6  0  0  0
  4  5  1  0  0  0  0
  5 12  1  0  0  0  0
  7 14  2  0  0  0  0
  8  1  1  0  0  0  0
  9 10  1  0  0  0  0
 10 15  2  0  0  0  0
 12  6  1  0  0  0  0
 12 11  2  0  0  0  0
 13  9  2  0  0  0  0
 14  9  1  0  0  0  0
 14  8  1  0  0  0  0
 15 19  1  0  0  0  0
 18 10  1  1  0  0  0
 18  4  1  0  0  0  0
 19 17  2  0  0  0  0
 19  5  1  0  0  0  0
 20 21  2  0  0  0  0
 20 22  1  0  0  0  0
 23 20  1  0  0  0  0
 24  8  1  0  0  0  0
 25 24  1  0  0  0  0
 25 26  1  0  0  0  0
 27 30  1  6  0  0  0
 27 31  1  0  0  0  0
 27 32  1  0  0  0  0
 28 26  1  1  0  0  0
 28 29  1  0  0  0  0
 32 31  1  6  0  0  0
 32 28  1  0  0  0  0
 32 29  1  0  0  0  0
M  END
>  <MODEL>
3

>  <REMARK>
 VINA RESULT:      -6.5      4.072      8.564
  Name = 
  5 active torsions:
  status: ('A' for Active; 'I' for Inactive)
    1  A    between atoms: C_2  and  N_12
    2  A    between atoms: C_3  and  N_28
    3  A    between atoms: C_9  and  N_14
    4  A    between atoms: C_9  and  C_21
    5  A    between atoms: N_12  and  C_21
                            x       y       z     vdW  Elec       q    Type
                         _______ _______ _______ _____ _____    ______ ____

>  <TORSDO>
F 5

$$$$
=
 OpenBabel11062410463D

 32 36  0  0  1  0  0  0  0  0999 V2000
  160.9260  209.1310  151.8820 C   0  0  1  0  0  3  0  0  0  0  0  0
  161.5240  204.2130  151.2840 C   0  0  0  0  0  3  0  0  0  0  0  0
  161.4560  204.0270  152.6660 C   0  0  0  0  0  3  0  0  0  0  0  0
  161.3890  210.1240  154.2190 C   0  0  1  0  0  3  0  0  0  0  0  0
  160.2980  210.0030  155.1930 N   0  0  0  0  0  0  0  0  0  0  0  0
  159.9630  212.5330  155.0630 C   0  0  0  0  0  1  0  0  0  0  0  0
  161.4230  205.4980  150.7450 C   0  0  0  0  0  3  0  0  0  0  0  0
  161.1170  207.9470  151.0180 N   0  0  0  0  0  0  0  0  0  0  0  0
  161.2060  206.4210  152.9780 C   0  0  0  0  0  0  0  0  0  0  0  0
  161.0340  207.5940  153.8440 C   0  0  0  0  0  0  0  0  0  0  0  0
  158.6430  211.1260  156.4320 O   0  0  0  0  0  0  0  0  0  0  0  0
  159.5950  211.1930  155.6080 C   0  0  0  0  0  0  0  0  0  0  0  0
  161.2940  205.1270  153.5110 C   0  0  0  0  0  3  0  0  0  0  0  0
  161.2620  206.6170  151.5810 C   0  0  0  0  0  0  0  0  0  0  0  0
  160.3710  207.5060  154.9990 C   0  0  0  0  0  3  0  0  0  0  0  0
  162.7070  210.3280  154.9430 C   0  0  0  0  0  1  0  0  0  0  0  0
  159.4240  208.5810  156.8970 N   0  0  0  0  0  2  0  0  0  0  0  0
  161.5040  208.9070  153.2830 C   0  0  1  0  0  3  0  0  0  0  0  0
  160.0270  208.7060  155.7620 C   0  0  0  0  0  0  0  0  0  0  0  0
  160.8550  211.5960  151.1440 C   0  0  0  0  0  0  0  0  0  0  0  0
  161.4700  212.5560  150.6150 O   0  0  0  0  0  0  0  0  0  0  0  0
  159.4640  211.8090  151.6370 C   0  0  0  0  0  1  0  0  0  0  0  0
  161.5090  210.3250  151.2660 N   0  0  0  0  0  2  0  0  0  0  0  0
  160.8310  208.1000  149.5930 C   0  0  0  0  0  2  0  0  0  0  0  0
  161.8940  207.3990  148.7670 C   0  0  0  0  0  2  0  0  0  0  0  0
  161.3170  206.9530  147.5110 N   0  0  0  0  0  2  0  0  0  0  0  0
  161.8990  203.6560  147.4440 C   0  0  1  0  0  3  0  0  0  0  0  0
  162.1230  205.8340  147.0560 C   0  0  2  0  0  3  0  0  0  0  0  0
  162.0870  205.7610  145.2660 S   0  0  0  0  0  0  0  0  0  0  0  0
  160.8310  202.9420  148.2490 C   0  0  0  0  0  1  0  0  0  0  0  0
  161.6890  203.3930  146.0220 C   0  0  0  0  0  2  0  0  0  0  0  0
  161.2330  204.7490  146.5850 C   0  0  1  0  0  0  0  0  0  0  0  0
  1 23  1  6  0  0  0
  1 18  1  0  0  0  0
  2  3  1  0  0  0  0
  3 13  2  0  0  0  0
  4 16  1  1  0  0  0
  4  5  1  0  0  0  0
  5 12  1  0  0  0  0
  5 19  1  0  0  0  0
  6 12  1  0  0  0  0
  7  2  2  0  0  0  0
  7 14  1  0  0  0  0
  8 14  1  0  0  0  0
  8  1  1  0  0  0  0
  9 13  1  0  0  0  0
  9 10  1  0  0  0  0
 10 15  2  0  0  0  0
 12 11  2  0  0  0  0
 14  9  2  0  0  0  0
 15 19  1  0  0  0  0
 18 10  1  1  0  0  0
 18  4  1  0  0  0  0
 19 17  2  0  0  0  0
 20 23  1  0  0  0  0
 20 22  1  0  0  0  0
 21 20  2  0  0  0  0
 24  8  1  0  0  0  0
 25 24  1  0  0  0  0
 26 25  1  0  0  0  0
 27 30  1  1  0  0  0
 28 26  1  6  0  0  0
 29 32  1  0  0  0  0
 29 28  1  0  0  0  0
 31 27  1  0  0  0  0
 32 31  1  1  0  0  0
 32 28  1  0  0  0  0
 32 27  1  0  0  0  0
M  END
>  <MODEL>
4

>  <REMARK>
 VINA RESULT:      -6.3      4.057      8.918
  Name = 
  5 active torsions:
  status: ('A' for Active; 'I' for Inactive)
    1  A    between atoms: C_2  and  N_12
    2  A    between atoms: C_3  and  N_28
    3  A    between atoms: C_9  and  N_14
    4  A    between atoms: C_9  and  C_21
    5  A    between atoms: N_12  and  C_21
                            x       y       z     vdW  Elec       q    Type
                         _______ _______ _______ _____ _____    ______ ____

>  <TORSDO>
F 5

$$$$
=
 OpenBabel11062410463D

 32 36  0  0  1  0  0  0  0  0999 V2000
  161.1850  210.7760  150.5440 C   0  0  1  0  0  3  0  0  0  0  0  0
  160.8890  208.2530  154.8390 C   0  0  0  0  0  3  0  0  0  0  0  0
  159.9240  209.1460  155.3070 C   0  0  0  0  0  3  0  0  0  0  0  0
  160.2780  213.1930  150.5020 C   0  0  1  0  0  3  0  0  0  0  0  0
  158.8270  213.3280  150.3330 N   0  0  0  0  0  0  0  0  0  0  0  0
  159.2350  214.2920  148.0020 C   0  0  0  0  0  1  0  0  0  0  0  0
  161.4470  208.4280  153.5690 C   0  0  0  0  0  3  0  0  0  0  0  0
  161.6030  209.6630  151.4210 N   0  0  0  0  0  0  0  0  0  0  0  0
  160.0850  210.4090  153.2420 C   0  0  0  0  0  0  0  0  0  0  0  0
  159.6770  211.5280  152.3830 C   0  0  0  0  0  0  0  0  0  0  0  0
  157.0730  213.9890  148.9110 O   0  0  0  0  0  0  0  0  0  0  0  0
  158.3140  213.8700  149.0970 C   0  0  0  0  0  0  0  0  0  0  0  0
  159.5200  210.2190  154.5110 C   0  0  0  0  0  3  0  0  0  0  0  0
  161.0530  209.5040  152.7550 C   0  0  0  0  0  0  0  0  0  0  0  0
  158.4350  212.0170  152.4320 C   0  0  0  0  0  3  0  0  0  0  0  0
  160.8450  214.4530  151.1310 C   0  0  0  0  0  1  0  0  0  0  0  0
  156.7790  213.4770  151.5480 N   0  0  0  0  0  2  0  0  0  0  0  0
  160.6770  211.9740  151.3540 C   0  0  1  0  0  3  0  0  0  0  0  0
  157.9720  212.9920  151.4440 C   0  0  0  0  0  0  0  0  0  0  0  0
  162.1380  211.4900  148.2610 C   0  0  0  0  0  0  0  0  0  0  0  0
  163.1500  211.8470  147.6060 O   0  0  0  0  0  0  0  0  0  0  0  0
  160.8190  211.4070  147.5700 C   0  0  0  0  0  1  0  0  0  0  0  0
  162.2780  211.1780  149.6540 N   0  0  0  0  0  2  0  0  0  0  0  0
  162.3260  208.5530  150.8020 C   0  0  0  0  0  2  0  0  0  0  0  0
  161.3490  207.5710  150.1830 C   0  0  0  0  0  2  0  0  0  0  0  0
  161.4590  207.6230  148.7370 N   0  0  0  0  0  2  0  0  0  0  0  0
  161.4730  205.0590  146.5830 C   0  0  1  0  0  3  0  0  0  0  0  0
  160.8360  206.4150  148.2270 C   0  0  2  0  0  3  0  0  0  0  0  0
  160.7560  205.1880  149.5290 S   0  0  0  0  0  0  0  0  0  0  0  0
  162.7060  205.1470  145.7060 C   0  0  0  0  0  1  0  0  0  0  0  0
  161.6240  203.9460  147.5180 C   0  0  0  0  0  2  0  0  0  0  0  0
  161.8690  205.3710  148.0390 C   0  0  1  0  0  0  0  0  0  0  0  0
  1 23  1  1  0  0  0
  1 18  1  0  0  0  0
  1  8  1  0  0  0  0
  2  3  1  0  0  0  0
  4 16  1  1  0  0  0
  4 18  1  0  0  0  0
  5  4  1  0  0  0  0
  5 19  1  0  0  0  0
  6 12  1  0  0  0  0
  7  2  2  0  0  0  0
  8 14  1  0  0  0  0
  9 13  1  0  0  0  0
 10 15  2  0  0  0  0
 10  9  1  0  0  0  0
 11 12  2  0  0  0  0
 12  5  1  0  0  0  0
 13  3  2  0  0  0  0
 14  9  2  0  0  0  0
 14  7  1  0  0  0  0
 18 10  1  6  0  0  0
 19 17  2  0  0  0  0
 19 15  1  0  0  0  0
 20 23  1  0  0  0  0
 21 20  2  0  0  0  0
 22 20  1  0  0  0  0
 24  8  1  0  0  0  0
 25 24  1  0  0  0  0
 26 25  1  0  0  0  0
 27 30  1  6  0  0  0
 27 31  1  0  0  0  0
 27 32  1  0  0  0  0
 28 26  1  1  0  0  0
 28 29  1  0  0  0  0
 32 31  1  1  0  0  0
 32 28  1  0  0  0  0
 32 29  1  0  0  0  0
M  END
>  <MODEL>
5

>  <REMARK>
 VINA RESULT:      -6.0      4.509      8.409
  Name = 
  5 active torsions:
  status: ('A' for Active; 'I' for Inactive)
    1  A    between atoms: C_2  and  N_12
    2  A    between atoms: C_3  and  N_28
    3  A    between atoms: C_9  and  N_14
    4  A    between atoms: C_9  and  C_21
    5  A    between atoms: N_12  and  C_21
                            x       y       z     vdW  Elec       q    Type
                         _______ _______ _______ _____ _____    ______ ____

>  <TORSDO>
F 5

$$$$
=
 OpenBabel11062410463D

 32 36  0  0  1  0  0  0  0  0999 V2000
  159.9480  211.0050  152.6400 C   0  0  1  0  0  3  0  0  0  0  0  0
  161.6830  206.6550  154.3640 C   0  0  0  0  0  3  0  0  0  0  0  0
  160.8780  206.7730  155.4990 C   0  0  0  0  0  3  0  0  0  0  0  0
  158.8070  212.5970  154.3210 C   0  0  1  0  0  3  0  0  0  0  0  0
  157.4020  212.3040  154.6260 N   0  0  0  0  0  0  0  0  0  0  0  0
  156.7360  214.4330  153.3790 C   0  0  0  0  0  1  0  0  0  0  0  0
  161.6690  207.6560  153.3900 C   0  0  0  0  0  3  0  0  0  0  0  0
  160.8130  209.8130  152.5080 N   0  0  0  0  0  0  0  0  0  0  0  0
  160.0540  208.9100  154.6960 C   0  0  0  0  0  0  0  0  0  0  0  0
  159.2060  210.0990  154.8430 C   0  0  0  0  0  0  0  0  0  0  0  0
  155.1620  212.9860  154.3900 O   0  0  0  0  0  0  0  0  0  0  0  0
  156.3800  213.2110  154.1590 C   0  0  0  0  0  0  0  0  0  0  0  0
  160.0630  207.8950  155.6630 C   0  0  0  0  0  3  0  0  0  0  0  0
  160.8570  208.7940  153.5400 C   0  0  0  0  0  0  0  0  0  0  0  0
  158.0340  210.0350  155.4800 C   0  0  0  0  0  3  0  0  0  0  0  0
  159.4140  213.4300  155.4360 C   0  0  0  0  0  1  0  0  0  0  0  0
  155.9970  211.0820  156.1180 N   0  0  0  0  0  2  0  0  0  0  0  0
  159.6570  211.3310  154.1090 C   0  0  1  0  0  3  0  0  0  0  0  0
  157.1020  211.1620  155.4540 C   0  0  0  0  0  0  0  0  0  0  0  0
  159.8410  213.0620  151.0970 C   0  0  0  0  0  0  0  0  0  0  0  0
  160.4590  214.0330  150.5900 O   0  0  0  0  0  0  0  0  0  0  0  0
  158.3940  212.8830  150.7890 C   0  0  0  0  0  1  0  0  0  0  0  0
  160.5440  212.1590  151.9620 N   0  0  0  0  0  2  0  0  0  0  0  0
  161.3650  209.5250  151.1850 C   0  0  0  0  0  2  0  0  0  0  0  0
  161.0810  208.0850  150.8010 C   0  0  0  0  0  2  0  0  0  0  0  0
  161.4330  207.8760  149.4080 N   0  0  0  0  0  2  0  0  0  0  0  0
  161.2060  205.2690  147.3190 C   0  0  1  0  0  3  0  0  0  0  0  0
  160.7400  206.6750  148.9780 C   0  0  2  0  0  3  0  0  0  0  0  0
  160.7380  205.4770  150.3100 S   0  0  0  0  0  0  0  0  0  0  0  0
  162.3650  205.3080  146.3420 C   0  0  0  0  0  1  0  0  0  0  0  0
  161.4060  204.1720  148.2630 C   0  0  0  0  0  2  0  0  0  0  0  0
  161.7290  205.6010  148.7310 C   0  0  1  0  0  0  0  0  0  0  0  0
  1 23  1  1  0  0  0
  1 18  1  0  0  0  0
  2  3  1  0  0  0  0
  3 13  2  0  0  0  0
  4  5  1  0  0  0  0
  4 16  1  1  0  0  0
  5 19  1  0  0  0  0
  6 12  1  0  0  0  0
  7 14  1  0  0  0  0
  7  2  2  0  0  0  0
  8  1  1  0  0  0  0
  8 14  1  0  0  0  0
  9 10  1  0  0  0  0
  9 13  1  0  0  0  0
 10 15  2  0  0  0  0
 12 11  2  0  0  0  0
 12  5  1  0  0  0  0
 14  9  2  0  0  0  0
 18  4  1  0  0  0  0
 18 10  1  6  0  0  0
 19 15  1  0  0  0  0
 19 17  2  0  0  0  0
 20 23  1  0  0  0  0
 21 20  2  0  0  0  0
 22 20  1  0  0  0  0
 24  8  1  0  0  0  0
 25 24  1  0  0  0  0
 26 25  1  0  0  0  0
 27 30  1  6  0  0  0
 27 31  1  0  0  0  0
 27 32  1  0  0  0  0
 28 26  1  1  0  0  0
 28 29  1  0  0  0  0
 32 31  1  1  0  0  0
 32 28  1  0  0  0  0
 32 29  1  0  0  0  0
M  END
>  <MODEL>
6

>  <REMARK>
 VINA RESULT:      -5.8      4.646      9.474
  Name = 
  5 active torsions:
  status: ('A' for Active; 'I' for Inactive)
    1  A    between atoms: C_2  and  N_12
    2  A    between atoms: C_3  and  N_28
    3  A    between atoms: C_9  and  N_14
    4  A    between atoms: C_9  and  C_21
    5  A    between atoms: N_12  and  C_21
                            x       y       z     vdW  Elec       q    Type
                         _______ _______ _______ _____ _____    ______ ____

>  <TORSDO>
F 5

$$$$
=
 OpenBabel11062410463D

 32 36  0  0  1  0  0  0  0  0999 V2000
  161.3280  209.2840  149.9900 C   0  0  1  0  0  3  0  0  0  0  0  0
  160.9850  209.3980  154.9670 C   0  0  0  0  0  3  0  0  0  0  0  0
  160.7910  210.7800  154.9310 C   0  0  0  0  0  3  0  0  0  0  0  0
  161.8230  211.5030  148.7670 C   0  0  1  0  0  3  0  0  0  0  0  0
  160.6680  212.3790  148.5380 N   0  0  0  0  0  0  0  0  0  0  0  0
  160.8470  211.8860  146.0380 C   0  0  0  0  0  1  0  0  0  0  0  0
  161.1750  208.6870  153.7790 C   0  0  0  0  0  3  0  0  0  0  0  0
  161.3390  208.6060  151.3030 N   0  0  0  0  0  0  0  0  0  0  0  0
  160.9970  210.7490  152.5130 C   0  0  0  0  0  0  0  0  0  0  0  0
  161.0020  211.4330  151.2150 C   0  0  0  0  0  0  0  0  0  0  0  0
  159.1890  213.3000  146.9580 O   0  0  0  0  0  0  0  0  0  0  0  0
  160.1870  212.5660  147.1910 C   0  0  0  0  0  0  0  0  0  0  0  0
  160.7930  211.4540  153.7090 C   0  0  0  0  0  3  0  0  0  0  0  0
  161.1820  209.3490  152.5390 C   0  0  0  0  0  0  0  0  0  0  0  0
  160.2600  212.5240  151.0070 C   0  0  0  0  0  3  0  0  0  0  0  0
  163.1050  212.3130  148.7060 C   0  0  0  0  0  1  0  0  0  0  0  0
  159.4210  214.1670  149.5070 N   0  0  0  0  0  2  0  0  0  0  0  0
  161.7570  210.7510  150.1080 C   0  0  1  0  0  3  0  0  0  0  0  0
  160.1100  213.0860  149.6650 C   0  0  0  0  0  0  0  0  0  0  0  0
  161.7550  207.4640  148.2200 C   0  0  0  0  0  0  0  0  0  0  0  0
  162.5690  206.9510  147.4110 O   0  0  0  0  0  0  0  0  0  0  0  0
  160.3740  206.9090  148.3100 C   0  0  0  0  0  1  0  0  0  0  0  0
  162.1740  208.5730  149.0280 N   0  0  0  0  0  2  0  0  0  0  0  0
  161.1830  207.1520  151.3110 C   0  0  0  0  0  2  0  0  0  0  0  0
  162.3570  206.5030  152.0190 C   0  0  0  0  0  2  0  0  0  0  0  0
  162.5990  205.1880  151.4540 N   0  0  0  0  0  2  0  0  0  0  0  0
  160.6930  203.6790  149.1520 C   0  0  1  0  0  3  0  0  0  0  0  0
  161.3080  204.6630  151.0490 C   0  0  2  0  0  3  0  0  0  0  0  0
  160.8190  203.3510  152.1660 S   0  0  0  0  0  0  0  0  0  0  0  0
  161.5380  203.3560  147.9340 C   0  0  0  0  0  1  0  0  0  0  0  0
  160.3750  202.4410  149.8610 C   0  0  0  0  0  2  0  0  0  0  0  0
  161.4940  203.3340  150.4230 C   0  0  1  0  0  0  0  0  0  0  0  0
  1 23  1  6  0  0  0
  1 18  1  0  0  0  0
  1  8  1  0  0  0  0
  3  2  1  0  0  0  0
  4 16  1  1  0  0  0
  4 18  1  0  0  0  0
  5  4  1  0  0  0  0
  5 19  1  0  0  0  0
  6 12  1  0  0  0  0
  7  2  2  0  0  0  0
  8 24  1  0  0  0  0
  8 14  1  0  0  0  0
  9 14  2  0  0  0  0
  9 13  1  0  0  0  0
 10  9  1  0  0  0  0
 11 12  2  0  0  0  0
 12  5  1  0  0  0  0
 13  3  2  0  0  0  0
 14  7  1  0  0  0  0
 15 10  2  0  0  0  0
 17 19  2  0  0  0  0
 18 10  1  1  0  0  0
 19 15  1  0  0  0  0
 20 22  1  0  0  0  0
 20 23  1  0  0  0  0
 21 20  2  0  0  0  0
 24 25  1  0  0  0  0
 26 25  1  0  0  0  0
 27 30  1  6  0  0  0
 27 31  1  0  0  0  0
 27 32  1  0  0  0  0
 28 26  1  1  0  0  0
 28 29  1  0  0  0  0
 32 31  1  6  0  0  0
 32 28  1  0  0  0  0
 32 29  1  0  0  0  0
M  END
>  <MODEL>
7

>  <REMARK>
 VINA RESULT:      -5.6      3.645      6.725
  Name = 
  5 active torsions:
  status: ('A' for Active; 'I' for Inactive)
    1  A    between atoms: C_2  and  N_12
    2  A    between atoms: C_3  and  N_28
    3  A    between atoms: C_9  and  N_14
    4  A    between atoms: C_9  and  C_21
    5  A    between atoms: N_12  and  C_21
                            x       y       z     vdW  Elec       q    Type
                         _______ _______ _______ _____ _____    ______ ____

>  <TORSDO>
F 5

$$$$
=
 OpenBabel11062410463D

 32 36  0  0  1  0  0  0  0  0999 V2000
  161.4250  207.3900  152.1490 C   0  0  1  0  0  3  0  0  0  0  0  0
  162.0580  210.5700  148.3560 C   0  0  0  0  0  3  0  0  0  0  0  0
  162.0210  211.6480  149.2420 C   0  0  0  0  0  3  0  0  0  0  0  0
  160.5000  208.3320  154.3670 C   0  0  1  0  0  3  0  0  0  0  0  0
  161.4800  208.9820  155.2450 N   0  0  0  0  0  0  0  0  0  0  0  0
  161.2270  207.0420  156.8890 C   0  0  0  0  0  1  0  0  0  0  0  0
  161.9110  209.2650  148.8350 C   0  0  0  0  0  3  0  0  0  0  0  0
  161.6070  207.6650  150.7090 N   0  0  0  0  0  0  0  0  0  0  0  0
  161.6710  210.1190  151.0930 C   0  0  0  0  0  0  0  0  0  0  0  0
  161.4730  209.8560  152.5240 C   0  0  0  0  0  0  0  0  0  0  0  0
  162.6870  208.8650  157.2610 O   0  0  0  0  0  0  0  0  0  0  0  0
  161.8380  208.3440  156.4880 C   0  0  0  0  0  0  0  0  0  0  0  0
  161.8320  211.4240  150.6060 C   0  0  0  0  0  3  0  0  0  0  0  0
  161.7180  209.0220  150.2060 C   0  0  0  0  0  0  0  0  0  0  0  0
  162.0130  210.6500  153.4520 C   0  0  0  0  0  3  0  0  0  0  0  0
  159.1010  208.8140  154.7090 C   0  0  0  0  0  1  0  0  0  0  0  0
  162.4780  211.0910  155.7420 N   0  0  0  0  0  2  0  0  0  0  0  0
  160.7710  208.5730  152.8710 C   0  0  1  0  0  3  0  0  0  0  0  0
  161.9850  210.2790  154.8670 C   0  0  0  0  0  0  0  0  0  0  0  0
  161.1900  204.8390  152.3940 C   0  0  0  0  0  0  0  0  0  0  0  0
  160.4210  203.8650  152.6000 O   0  0  0  0  0  0  0  0  0  0  0  0
  162.6470  204.5840  152.2070 C   0  0  0  0  0  1  0  0  0  0  0  0
  160.6470  206.1650  152.3520 N   0  0  0  0  0  2  0  0  0  0  0  0
  161.9980  206.5450  149.8540 C   0  0  0  0  0  2  0  0  0  0  0  0
  160.8040  206.0530  149.0560 C   0  0  0  0  0  2  0  0  0  0  0  0
  161.1790  205.9060  147.6620 N   0  0  0  0  0  2  0  0  0  0  0  0
  161.4120  202.6780  148.5190 C   0  0  1  0  0  3  0  0  0  0  0  0
  161.8550  204.6270  147.5430 C   0  0  2  0  0  3  0  0  0  0  0  0
  161.7770  204.0640  145.8450 S   0  0  0  0  0  0  0  0  0  0  0  0
  160.2910  202.3330  149.4800 C   0  0  0  0  0  1  0  0  0  0  0  0
  161.1490  202.0540  147.2250 C   0  0  0  0  0  2  0  0  0  0  0  0
  160.8470  203.5540  147.3830 C   0  0  1  0  0  0  0  0  0  0  0  0
  1 23  1  6  0  0  0
  1 18  1  0  0  0  0
  2  7  2  0  0  0  0
  2  3  1  0  0  0  0
  3 13  2  0  0  0  0
  4 16  1  1  0  0  0
  4  5  1  0  0  0  0
  5 12  1  0  0  0  0
  7 14  1  0  0  0  0
  8  1  1  0  0  0  0
  9 10  1  0  0  0  0
 10 15  2  0  0  0  0
 12  6  1  0  0  0  0
 12 11  2  0  0  0  0
 13  9  1  0  0  0  0
 14  8  1  0  0  0  0
 14  9  2  0  0  0  0
 15 19  1  0  0  0  0
 18 10  1  1  0  0  0
 18  4  1  0  0  0  0
 19  5  1  0  0  0  0
 19 17  2  0  0  0  0
 20 21  2  0  0  0  0
 22 20  1  0  0  0  0
 23 20  1  0  0  0  0
 24  8  1  0  0  0  0
 25 24  1  0  0  0  0
 26 25  1  0  0  0  0
 27 30  1  1  0  0  0
 28 26  1  6  0  0  0
 29 32  1  0  0  0  0
 29 28  1  0  0  0  0
 31 27  1  0  0  0  0
 32 31  1  1  0  0  0
 32 28  1  0  0  0  0
 32 27  1  0  0  0  0
M  END
>  <MODEL>
8

>  <REMARK>
 VINA RESULT:      -5.4      3.336      7.858
  Name = 
  5 active torsions:
  status: ('A' for Active; 'I' for Inactive)
    1  A    between atoms: C_2  and  N_12
    2  A    between atoms: C_3  and  N_28
    3  A    between atoms: C_9  and  N_14
    4  A    between atoms: C_9  and  C_21
    5  A    between atoms: N_12  and  C_21
                            x       y       z     vdW  Elec       q    Type
                         _______ _______ _______ _____ _____    ______ ____

>  <TORSDO>
F 5

$$$$
=
 OpenBabel11062410463D

 32 36  0  0  1  0  0  0  0  0999 V2000
  161.3140  208.8220  152.4340 C   0  0  1  0  0  3  0  0  0  0  0  0
  161.6190  212.5420  149.1230 C   0  0  0  0  0  3  0  0  0  0  0  0
  161.8030  211.6200  148.0910 C   0  0  0  0  0  3  0  0  0  0  0  0
  162.2390  206.5140  151.7410 C   0  0  1  0  0  3  0  0  0  0  0  0
  161.3450  205.6870  150.9230 N   0  0  0  0  0  0  0  0  0  0  0  0
  161.0800  204.0950  152.9040 C   0  0  0  0  0  1  0  0  0  0  0  0
  161.4650  212.0970  150.4390 C   0  0  0  0  0  3  0  0  0  0  0  0
  161.3000  210.2620  152.1020 N   0  0  0  0  0  0  0  0  0  0  0  0
  161.6990  209.8010  149.6930 C   0  0  0  0  0  0  0  0  0  0  0  0
  161.7320  208.3700  150.0170 C   0  0  0  0  0  0  0  0  0  0  0  0
  159.9900  203.7660  150.8300 O   0  0  0  0  0  0  0  0  0  0  0  0
  160.7730  204.4930  151.4980 C   0  0  0  0  0  0  0  0  0  0  0  0
  161.8400  210.2540  148.3730 C   0  0  0  0  0  3  0  0  0  0  0  0
  161.5010  210.7250  150.7420 C   0  0  0  0  0  0  0  0  0  0  0  0
  161.2930  207.4560  149.1480 C   0  0  0  0  0  3  0  0  0  0  0  0
  163.6760  206.0590  151.5570 C   0  0  0  0  0  1  0  0  0  0  0  0
  160.7550  205.1900  148.6650 N   0  0  0  0  0  2  0  0  0  0  0  0
  162.1350  208.0160  151.4210 C   0  0  1  0  0  3  0  0  0  0  0  0
  161.1400  206.0560  149.5440 C   0  0  0  0  0  0  0  0  0  0  0  0
  161.1350  207.8630  154.8170 C   0  0  0  0  0  0  0  0  0  0  0  0
  161.6780  207.7270  155.9420 O   0  0  0  0  0  0  0  0  0  0  0  0
  159.8010  207.2420  154.5760 C   0  0  0  0  0  1  0  0  0  0  0  0
  161.8140  208.6060  153.7950 N   0  0  0  0  0  2  0  0  0  0  0  0
  160.7590  211.1790  153.1040 C   0  0  0  0  0  2  0  0  0  0  0  0
  159.2770  210.9220  153.3040 C   0  0  0  0  0  2  0  0  0  0  0  0
  158.5110  211.9600  152.6380 N   0  0  0  0  0  2  0  0  0  0  0  0
  156.0240  211.6900  154.8640 C   0  0  1  0  0  3  0  0  0  0  0  0
  157.6660  212.5700  153.6500 C   0  0  2  0  0  3  0  0  0  0  0  0
  158.6820  213.1470  155.0070 S   0  0  0  0  0  0  0  0  0  0  0  0
  155.5040  210.2650  154.8640 C   0  0  0  0  0  1  0  0  0  0  0  0
  156.7650  211.9340  156.0990 C   0  0  0  0  0  2  0  0  0  0  0  0
  157.5640  211.6620  154.8150 C   0  0  1  0  0  0  0  0  0  0  0  0
  1 23  1  1  0  0  0
  2  7  1  0  0  0  0
  3 13  1  0  0  0  0
  3  2  2  0  0  0  0
  4 16  1  6  0  0  0
  5 12  1  0  0  0  0
  5  4  1  0  0  0  0
  7 14  2  0  0  0  0
  8  1  1  0  0  0  0
  8 24  1  0  0  0  0
  9 10  1  0  0  0  0
  9 14  1  0  0  0  0
 11 12  2  0  0  0  0
 12  6  1  0  0  0  0
 13  9  2  0  0  0  0
 14  8  1  0  0  0  0
 15 19  1  0  0  0  0
 15 10  2  0  0  0  0
 17 19  2  0  0  0  0
 18 10  1  6  0  0  0
 18  4  1  0  0  0  0
 18  1  1  0  0  0  0
 19  5  1  0  0  0  0
 20 21  2  0  0  0  0
 22 20  1  0  0  0  0
 23 20  1  0  0  0  0
 24 25  1  0  0  0  0
 26 25  1  0  0  0  0
 27 30  1  1  0  0  0
 27 31  1  0  0  0  0
 28 26  1  6  0  0  0
 28 32  1  0  0  0  0
 28 29  1  0  0  0  0
 32 27  1  0  0  0  0
 32 29  1  0  0  0  0
 32 31  1  6  0  0  0
M  END
>  <MODEL>
9

>  <REMARK>
 VINA RESULT:      -5.3      3.218      5.376
  Name = 
  5 active torsions:
  status: ('A' for Active; 'I' for Inactive)
    1  A    between atoms: C_2  and  N_12
    2  A    between atoms: C_3  and  N_28
    3  A    between atoms: C_9  and  N_14
    4  A    between atoms: C_9  and  C_21
    5  A    between atoms: N_12  and  C_21
                            x       y       z     vdW  Elec       q    Type
                         _______ _______ _______ _____ _____    ______ ____

>  <TORSDO>
F 5

$$$$
