=
 OpenBabel11052422353D

 31 35  0  0  0  0  0  0  0  0999 V2000
  161.1510  204.4550  149.2560 C   0  0  0  0  0  0  0  0  0  0  0  0
  161.1180  203.0430  149.2530 C   0  0  0  0  0  0  0  0  0  0  0  0
  161.2020  209.4510  150.9670 O   0  0  0  0  0  0  0  0  0  0  0  0
  161.1410  208.6880  151.9680 C   0  0  0  0  0  0  0  0  0  0  0  0
  161.1160  200.8950  148.1100 C   0  0  0  0  0  0  0  0  0  0  0  0
  161.2200  205.2460  148.1000 C   0  0  0  0  0  0  0  0  0  0  0  0
  161.3260  205.9950  146.1010 N   0  0  0  0  0  0  0  0  0  0  0  0
  161.1500  202.2910  148.0680 C   0  0  0  0  0  3  0  0  0  0  0  0
  161.1500  206.5730  150.5220 C   0  0  0  0  0  0  0  0  0  0  0  0
  161.0140  203.0600  151.6580 N   0  0  0  0  0  0  0  0  0  0  0  0
  161.1480  200.1820  146.9590 F   0  0  0  0  0  0  0  0  0  0  0  0
  161.2190  207.2770  149.3490 N   0  0  0  0  0  0  0  0  0  0  0  0
  161.1150  205.1520  150.4970 C   0  0  0  0  0  0  0  0  0  0  0  0
  161.1130  207.2650  151.7800 N   0  0  0  0  0  2  0  0  0  0  0  0
  161.2720  204.8720  146.8100 N   0  0  0  0  0  0  0  0  0  0  0  0
  161.0460  200.2330  149.3370 C   0  0  0  0  0  3  0  0  0  0  0  0
  161.2510  206.6050  148.1750 C   0  0  0  0  0  0  0  0  0  0  0  0
  161.3250  207.0950  146.8930 C   0  0  0  0  0  3  0  0  0  0  0  0
  161.0460  204.4170  151.6850 C   0  0  0  0  0  3  0  0  0  0  0  0
  161.0480  202.3620  150.4940 C   0  0  0  0  0  0  0  0  0  0  0  0
  161.0120  200.9650  150.5270 C   0  0  0  0  0  3  0  0  0  0  0  0
  161.0350  210.4350  155.8970 C   0  0  0  0  0  0  0  0  0  0  0  0
  161.2420  210.6290  153.4980 C   0  0  0  0  0  3  0  0  0  0  0  0
  160.7230  206.6970  154.4750 Cl  0  0  0  0  0  0  0  0  0  0  0  0
  161.0030  211.0640  157.2420 C   0  0  0  0  0  1  0  0  0  0  0  0
  161.2110  211.2230  154.7620 C   0  0  0  0  0  3  0  0  0  0  0  0
  160.9170  208.4450  154.5090 C   0  0  0  0  0  0  0  0  0  0  0  0
  161.0960  209.2400  153.3460 C   0  0  0  0  0  0  0  0  0  0  0  0
  160.8890  209.0530  155.7680 C   0  0  0  0  0  3  0  0  0  0  0  0
  161.4340  206.0220  144.6530 C   0  0  0  0  0  2  0  0  0  0  0  0
  161.2350  204.7390  144.1450 O   0  0  0  0  0  1  0  0  0  0  0  0
  1 13  1  0  0  0  0
  2  1  2  0  0  0  0
  2 20  1  0  0  0  0
  3  4  2  0  0  0  0
  4 28  1  0  0  0  0
  5 16  1  0  0  0  0
  6 17  1  0  0  0  0
  6  1  1  0  0  0  0
  7 15  1  0  0  0  0
  7 18  1  0  0  0  0
  8  5  2  0  0  0  0
  8  2  1  0  0  0  0
  9 14  1  0  0  0  0
 10 19  1  0  0  0  0
 11  5  1  0  0  0  0
 12  9  2  0  0  0  0
 13  9  1  0  0  0  0
 13 19  2  0  0  0  0
 14  4  1  0  0  0  0
 15  6  2  0  0  0  0
 16 21  2  0  0  0  0
 17 12  1  0  0  0  0
 18 17  2  0  0  0  0
 20 21  1  0  0  0  0
 20 10  2  0  0  0  0
 22 25  1  0  0  0  0
 23 26  1  0  0  0  0
 24 27  1  0  0  0  0
 26 22  2  0  0  0  0
 27 29  2  0  0  0  0
 28 23  2  0  0  0  0
 28 27  1  0  0  0  0
 29 22  1  0  0  0  0
 30  7  1  0  0  0  0
 31 30  1  0  0  0  0
M  END
>  <MODEL>
1

>  <REMARK>
 VINA RESULT:     -10.4      0.000      0.000
  Name = 
  2 active torsions:
  status: ('A' for Active; 'I' for Inactive)
    1  A    between atoms: C_2  and  N_13
    2  A    between atoms: C_9  and  C_22
                            x       y       z     vdW  Elec       q    Type
                         _______ _______ _______ _____ _____    ______ ____

>  <TORSDO>
F 2

$$$$
=
 OpenBabel11052422353D

 31 35  0  0  0  0  0  0  0  0999 V2000
  161.4900  208.5160  151.2550 C   0  0  0  0  0  0  0  0  0  0  0  0
  161.3760  208.7330  152.6460 C   0  0  0  0  0  0  0  0  0  0  0  0
  161.6610  206.0760  146.5740 O   0  0  0  0  0  0  0  0  0  0  0  0
  161.4670  205.2100  147.4670 C   0  0  0  0  0  0  0  0  0  0  0  0
  161.3550  210.1820  154.6000 C   0  0  0  0  0  0  0  0  0  0  0  0
  161.7070  209.5310  150.3120 C   0  0  0  0  0  0  0  0  0  0  0  0
  162.0310  211.3800  149.2900 N   0  0  0  0  0  0  0  0  0  0  0  0
  161.4740  210.0110  153.2190 C   0  0  0  0  0  3  0  0  0  0  0  0
  161.4910  206.9510  149.3460 C   0  0  0  0  0  0  0  0  0  0  0  0
  161.0590  206.3690  152.9700 N   0  0  0  0  0  0  0  0  0  0  0  0
  161.4510  211.4210  155.1390 F   0  0  0  0  0  0  0  0  0  0  0  0
  161.7010  207.9960  148.4870 N   0  0  0  0  0  0  0  0  0  0  0  0
  161.3820  207.1910  150.7440 C   0  0  0  0  0  0  0  0  0  0  0  0
  161.3790  205.6100  148.8430 N   0  0  0  0  0  2  0  0  0  0  0  0
  161.8430  210.8550  150.4970 N   0  0  0  0  0  0  0  0  0  0  0  0
  161.1400  209.0780  155.4270 C   0  0  0  0  0  3  0  0  0  0  0  0
  161.8060  209.2500  148.9830 C   0  0  0  0  0  0  0  0  0  0  0  0
  162.0090  210.4350  148.3180 C   0  0  0  0  0  3  0  0  0  0  0  0
  161.1640  206.1360  151.6360 C   0  0  0  0  0  3  0  0  0  0  0  0
  161.1570  207.6180  153.4930 C   0  0  0  0  0  0  0  0  0  0  0  0
  161.0410  207.7980  154.8740 C   0  0  0  0  0  3  0  0  0  0  0  0
  161.0890  201.0120  146.6140 C   0  0  0  0  0  0  0  0  0  0  0  0
  161.4720  202.8330  148.1520 C   0  0  0  0  0  3  0  0  0  0  0  0
  160.8510  204.3580  144.4150 Cl  0  0  0  0  0  0  0  0  0  0  0  0
  160.9630  199.5560  146.3460 C   0  0  0  0  0  1  0  0  0  0  0  0
  161.3540  201.4640  147.9040 C   0  0  0  0  0  3  0  0  0  0  0  0
  161.0560  203.3020  145.8070 C   0  0  0  0  0  0  0  0  0  0  0  0
  161.3270  203.7730  147.1190 C   0  0  0  0  0  0  0  0  0  0  0  0
  160.9410  201.9280  145.5720 C   0  0  0  0  0  3  0  0  0  0  0  0
  162.1820  212.8040  149.0520 C   0  0  0  0  0  2  0  0  0  0  0  0
  163.0350  213.0100  147.9680 O   0  0  0  0  0  1  0  0  0  0  0  0
  1  2  1  0  0  0  0
  2  8  2  0  0  0  0
  2 20  1  0  0  0  0
  3  4  2  0  0  0  0
  4 14  1  0  0  0  0
  5 11  1  0  0  0  0
  5 16  2  0  0  0  0
  6 15  2  0  0  0  0
  6  1  1  0  0  0  0
  7 15  1  0  0  0  0
  8  5  1  0  0  0  0
  9 13  1  0  0  0  0
 10 20  1  0  0  0  0
 12 17  1  0  0  0  0
 12  9  2  0  0  0  0
 13  1  2  0  0  0  0
 13 19  1  0  0  0  0
 14  9  1  0  0  0  0
 17  6  1  0  0  0  0
 18 17  2  0  0  0  0
 18  7  1  0  0  0  0
 19 10  2  0  0  0  0
 20 21  2  0  0  0  0
 21 16  1  0  0  0  0
 22 26  1  0  0  0  0
 24 27  1  0  0  0  0
 25 22  1  0  0  0  0
 26 23  2  0  0  0  0
 27 28  2  0  0  0  0
 28  4  1  0  0  0  0
 28 23  1  0  0  0  0
 29 27  1  0  0  0  0
 29 22  2  0  0  0  0
 30  7  1  0  0  0  0
 31 30  1  0  0  0  0
M  END
>  <MODEL>
2

>  <REMARK>
 VINA RESULT:      -9.8      3.833      8.357
  Name = 
  2 active torsions:
  status: ('A' for Active; 'I' for Inactive)
    1  A    between atoms: C_2  and  N_13
    2  A    between atoms: C_9  and  C_22
                            x       y       z     vdW  Elec       q    Type
                         _______ _______ _______ _____ _____    ______ ____

>  <TORSDO>
F 2

$$$$
=
 OpenBabel11052422353D

 31 35  0  0  0  0  0  0  0  0999 V2000
  161.4960  208.4790  151.3000 C   0  0  0  0  0  0  0  0  0  0  0  0
  161.4080  208.7200  152.6880 C   0  0  0  0  0  0  0  0  0  0  0  0
  161.5770  205.9600  146.6580 O   0  0  0  0  0  0  0  0  0  0  0  0
  161.4010  205.1090  147.5700 C   0  0  0  0  0  0  0  0  0  0  0  0
  161.4240  210.2020  154.6180 C   0  0  0  0  0  0  0  0  0  0  0  0
  161.6940  209.4770  150.3350 C   0  0  0  0  0  0  0  0  0  0  0  0
  161.9970  211.3090  149.2760 N   0  0  0  0  0  0  0  0  0  0  0  0
  161.5170  210.0080  153.2380 C   0  0  0  0  0  3  0  0  0  0  0  0
  161.4600  206.8810  149.4180 C   0  0  0  0  0  0  0  0  0  0  0  0
  161.0990  206.3620  153.0590 N   0  0  0  0  0  0  0  0  0  0  0  0
  161.5300  211.4500  155.1340 F   0  0  0  0  0  0  0  0  0  0  0  0
  161.6540  207.9110  148.5370 N   0  0  0  0  0  0  0  0  0  0  0  0
  161.3780  207.1460  150.8130 C   0  0  0  0  0  0  0  0  0  0  0  0
  161.3390  205.5330  148.9410 N   0  0  0  0  0  2  0  0  0  0  0  0
  161.8330  210.8050  150.4950 N   0  0  0  0  0  0  0  0  0  0  0  0
  161.2260  209.1120  155.4670 C   0  0  0  0  0  3  0  0  0  0  0  0
  161.7670  209.1740  149.0100 C   0  0  0  0  0  0  0  0  0  0  0  0
  161.9560  210.3480  148.3200 C   0  0  0  0  0  3  0  0  0  0  0  0
  161.1780  206.1060  151.7280 C   0  0  0  0  0  3  0  0  0  0  0  0
  161.2060  207.6200  153.5580 C   0  0  0  0  0  0  0  0  0  0  0  0
  161.1170  207.8230  154.9380 C   0  0  0  0  0  3  0  0  0  0  0  0
  160.9790  200.9690  146.4820 C   0  0  0  0  0  0  0  0  0  0  0  0
  161.2060  203.3000  145.8940 C   0  0  0  0  0  3  0  0  0  0  0  0
  161.2060  202.9490  149.9630 Cl  0  0  0  0  0  0  0  0  0  0  0  0
  160.8340  199.5470  146.0780 C   0  0  0  0  0  1  0  0  0  0  0  0
  161.0700  201.9640  145.5110 C   0  0  0  0  0  3  0  0  0  0  0  0
  161.1610  202.6440  148.2310 C   0  0  0  0  0  0  0  0  0  0  0  0
  161.2550  203.6660  147.2490 C   0  0  0  0  0  0  0  0  0  0  0  0
  161.0250  201.3100  147.8340 C   0  0  0  0  0  3  0  0  0  0  0  0
  162.1430  212.7290  149.0110 C   0  0  0  0  0  2  0  0  0  0  0  0
  162.9950  212.9170  147.9230 O   0  0  0  0  0  1  0  0  0  0  0  0
  1  2  1  0  0  0  0
  2  8  2  0  0  0  0
  2 20  1  0  0  0  0
  3  4  2  0  0  0  0
  4 14  1  0  0  0  0
  5 11  1  0  0  0  0
  5 16  2  0  0  0  0
  6 15  2  0  0  0  0
  6  1  1  0  0  0  0
  7 15  1  0  0  0  0
  8  5  1  0  0  0  0
  9 13  1  0  0  0  0
 10 20  1  0  0  0  0
 12 17  1  0  0  0  0
 12  9  2  0  0  0  0
 13  1  2  0  0  0  0
 13 19  1  0  0  0  0
 14  9  1  0  0  0  0
 17  6  1  0  0  0  0
 18 17  2  0  0  0  0
 18  7  1  0  0  0  0
 19 10  2  0  0  0  0
 20 21  2  0  0  0  0
 21 16  1  0  0  0  0
 22 29  1  0  0  0  0
 23 28  2  0  0  0  0
 25 22  1  0  0  0  0
 26 23  1  0  0  0  0
 26 22  2  0  0  0  0
 27 24  1  0  0  0  0
 28  4  1  0  0  0  0
 28 27  1  0  0  0  0
 29 27  2  0  0  0  0
 30  7  1  0  0  0  0
 31 30  1  0  0  0  0
M  END
>  <MODEL>
3

>  <REMARK>
 VINA RESULT:      -9.7      3.509      8.208
  Name = 
  2 active torsions:
  status: ('A' for Active; 'I' for Inactive)
    1  A    between atoms: C_2  and  N_13
    2  A    between atoms: C_9  and  C_22
                            x       y       z     vdW  Elec       q    Type
                         _______ _______ _______ _____ _____    ______ ____

>  <TORSDO>
F 2

$$$$
=
 OpenBabel11052422353D

 31 35  0  0  0  0  0  0  0  0999 V2000
  161.3780  207.1660  150.9160 C   0  0  0  0  0  0  0  0  0  0  0  0
  161.2430  207.3460  152.3100 C   0  0  0  0  0  0  0  0  0  0  0  0
  161.5930  204.8610  146.1690 O   0  0  0  0  0  0  0  0  0  0  0  0
  161.3690  203.9720  147.0330 C   0  0  0  0  0  0  0  0  0  0  0  0
  161.2100  208.7380  154.3050 C   0  0  0  0  0  0  0  0  0  0  0  0
  161.6280  208.2040  150.0060 C   0  0  0  0  0  0  0  0  0  0  0  0
  161.9990  210.0770  149.0440 N   0  0  0  0  0  0  0  0  0  0  0  0
  161.3510  208.6050  152.9220 C   0  0  0  0  0  3  0  0  0  0  0  0
  161.3880  205.6570  148.9620 C   0  0  0  0  0  0  0  0  0  0  0  0
  160.8820  204.9780  152.5590 N   0  0  0  0  0  0  0  0  0  0  0  0
  161.3160  209.9590  154.8820 F   0  0  0  0  0  0  0  0  0  0  0  0
  161.6300  206.7230  148.1380 N   0  0  0  0  0  0  0  0  0  0  0  0
  161.2570  205.8590  150.3640 C   0  0  0  0  0  0  0  0  0  0  0  0
  161.2630  204.3340  148.4180 N   0  0  0  0  0  2  0  0  0  0  0  0
  161.7810  209.5210  150.2320 N   0  0  0  0  0  0  0  0  0  0  0  0
  160.9620  207.6130  155.0950 C   0  0  0  0  0  3  0  0  0  0  0  0
  161.7450  207.9610  148.6720 C   0  0  0  0  0  0  0  0  0  0  0  0
  161.9790  209.1610  148.0450 C   0  0  0  0  0  3  0  0  0  0  0  0
  161.0070  204.7820  151.2210 C   0  0  0  0  0  3  0  0  0  0  0  0
  160.9910  206.2100  153.1200 C   0  0  0  0  0  0  0  0  0  0  0  0
  160.8530  206.3520  154.5030 C   0  0  0  0  0  3  0  0  0  0  0  0
  161.0030  199.8070  146.0250 C   0  0  0  0  0  0  0  0  0  0  0  0
  161.8140  201.5760  147.4560 C   0  0  0  0  0  3  0  0  0  0  0  0
  159.6880  203.2210  144.3810 Cl  0  0  0  0  0  0  0  0  0  0  0  0
  160.8930  198.3610  145.7000 C   0  0  0  0  0  1  0  0  0  0  0  0
  161.7110  200.2170  147.1530 C   0  0  0  0  0  3  0  0  0  0  0  0
  160.4920  202.1210  145.4930 C   0  0  0  0  0  0  0  0  0  0  0  0
  161.2120  202.5480  146.6400 C   0  0  0  0  0  0  0  0  0  0  0  0
  160.3980  200.7570  145.2020 C   0  0  0  0  0  3  0  0  0  0  0  0
  162.1770  211.5050  148.8510 C   0  0  0  0  0  2  0  0  0  0  0  0
  161.2860  211.9600  147.8790 O   0  0  0  0  0  1  0  0  0  0  0  0
  1  2  1  0  0  0  0
  2  8  2  0  0  0  0
  2 20  1  0  0  0  0
  3  4  2  0  0  0  0
  4 14  1  0  0  0  0
  5 11  1  0  0  0  0
  5 16  2  0  0  0  0
  6 15  2  0  0  0  0
  6  1  1  0  0  0  0
  7 15  1  0  0  0  0
  8  5  1  0  0  0  0
  9 13  1  0  0  0  0
 10 20  1  0  0  0  0
 12 17  1  0  0  0  0
 12  9  2  0  0  0  0
 13  1  2  0  0  0  0
 13 19  1  0  0  0  0
 14  9  1  0  0  0  0
 17  6  1  0  0  0  0
 18 17  2  0  0  0  0
 18  7  1  0  0  0  0
 19 10  2  0  0  0  0
 20 21  2  0  0  0  0
 21 16  1  0  0  0  0
 22 26  1  0  0  0  0
 24 27  1  0  0  0  0
 25 22  1  0  0  0  0
 26 23  2  0  0  0  0
 27 28  2  0  0  0  0
 28  4  1  0  0  0  0
 28 23  1  0  0  0  0
 29 27  1  0  0  0  0
 29 22  2  0  0  0  0
 30  7  1  0  0  0  0
 31 30  1  0  0  0  0
M  END
>  <MODEL>
4

>  <REMARK>
 VINA RESULT:      -9.3      3.617      8.309
  Name = 
  2 active torsions:
  status: ('A' for Active; 'I' for Inactive)
    1  A    between atoms: C_2  and  N_13
    2  A    between atoms: C_9  and  C_22
                            x       y       z     vdW  Elec       q    Type
                         _______ _______ _______ _____ _____    ______ ____

>  <TORSDO>
F 2

$$$$
=
 OpenBabel11052422353D

 31 35  0  0  0  0  0  0  0  0999 V2000
  161.3230  205.3500  149.6490 C   0  0  0  0  0  0  0  0  0  0  0  0
  161.5270  205.4800  148.2580 C   0  0  0  0  0  0  0  0  0  0  0  0
  160.6740  206.5810  154.7440 O   0  0  0  0  0  0  0  0  0  0  0  0
  160.8330  207.6480  154.0940 C   0  0  0  0  0  0  0  0  0  0  0  0
  161.7840  204.5450  146.0270 C   0  0  0  0  0  0  0  0  0  0  0  0
  161.1530  204.1250  150.3120 C   0  0  0  0  0  0  0  0  0  0  0  0
  160.9480  202.0660  150.8480 N   0  0  0  0  0  0  0  0  0  0  0  0
  161.5810  204.3720  147.3970 C   0  0  0  0  0  3  0  0  0  0  0  0
  161.0740  206.4090  151.8650 C   0  0  0  0  0  0  0  0  0  0  0  0
  161.6390  207.8700  148.5190 N   0  0  0  0  0  0  0  0  0  0  0  0
  161.8340  203.4670  145.2080 F   0  0  0  0  0  0  0  0  0  0  0  0
  160.9140  205.1760  152.4390 N   0  0  0  0  0  0  0  0  0  0  0  0
  161.2800  206.5180  150.4620 C   0  0  0  0  0  0  0  0  0  0  0  0
  161.0320  207.5950  152.6730 N   0  0  0  0  0  2  0  0  0  0  0  0
  161.1410  202.8770  149.8120 N   0  0  0  0  0  0  0  0  0  0  0  0
  161.9400  205.8280  145.4990 C   0  0  0  0  0  3  0  0  0  0  0  0
  160.9580  204.0720  151.6580 C   0  0  0  0  0  0  0  0  0  0  0  0
  160.8200  202.7510  152.0110 C   0  0  0  0  0  3  0  0  0  0  0  0
  161.4430  207.7690  149.8580 C   0  0  0  0  0  3  0  0  0  0  0  0
  161.6850  206.7780  147.7130 C   0  0  0  0  0  0  0  0  0  0  0  0
  161.8900  206.9430  146.3400 C   0  0  0  0  0  3  0  0  0  0  0  0
  160.8260  211.3920  156.2100 C   0  0  0  0  0  0  0  0  0  0  0  0
  161.1330  208.9980  156.1450 C   0  0  0  0  0  3  0  0  0  0  0  0
  160.0810  210.3050  152.4210 Cl  0  0  0  0  0  0  0  0  0  0  0  0
  160.8310  212.6720  156.9650 C   0  0  0  0  0  1  0  0  0  0  0  0
  161.1390  210.1990  156.8570 C   0  0  0  0  0  3  0  0  0  0  0  0
  160.4980  210.1880  154.1260 C   0  0  0  0  0  0  0  0  0  0  0  0
  160.8160  208.9670  154.7770 C   0  0  0  0  0  0  0  0  0  0  0  0
  160.5080  211.3840  154.8510 C   0  0  0  0  0  3  0  0  0  0  0  0
  160.8320  200.6240  150.7230 C   0  0  0  0  0  2  0  0  0  0  0  0
  161.2030  200.2340  149.4360 O   0  0  0  0  0  1  0  0  0  0  0  0
  1  6  1  0  0  0  0
  1 13  1  0  0  0  0
  2  1  2  0  0  0  0
  4  3  2  0  0  0  0
  4 28  1  0  0  0  0
  5  8  2  0  0  0  0
  6 17  1  0  0  0  0
  7 18  1  0  0  0  0
  8  2  1  0  0  0  0
  9 12  2  0  0  0  0
  9 14  1  0  0  0  0
 10 19  1  0  0  0  0
 11  5  1  0  0  0  0
 13  9  1  0  0  0  0
 14  4  1  0  0  0  0
 15  6  2  0  0  0  0
 15  7  1  0  0  0  0
 16  5  1  0  0  0  0
 16 21  2  0  0  0  0
 17 18  2  0  0  0  0
 17 12  1  0  0  0  0
 19 13  2  0  0  0  0
 20  2  1  0  0  0  0
 20 10  2  0  0  0  0
 21 20  1  0  0  0  0
 22 26  1  0  0  0  0
 22 25  1  0  0  0  0
 23 26  2  0  0  0  0
 24 27  1  0  0  0  0
 27 28  2  0  0  0  0
 27 29  1  0  0  0  0
 28 23  1  0  0  0  0
 29 22  2  0  0  0  0
 30  7  1  0  0  0  0
 31 30  1  0  0  0  0
M  END
>  <MODEL>
5

>  <REMARK>
 VINA RESULT:      -8.9      2.292      4.226
  Name = 
  2 active torsions:
  status: ('A' for Active; 'I' for Inactive)
    1  A    between atoms: C_2  and  N_13
    2  A    between atoms: C_9  and  C_22
                            x       y       z     vdW  Elec       q    Type
                         _______ _______ _______ _____ _____    ______ ____

>  <TORSDO>
F 2

$$$$
=
 OpenBabel11052422353D

 31 35  0  0  0  0  0  0  0  0999 V2000
  161.3490  208.3800  151.3830 C   0  0  0  0  0  0  0  0  0  0  0  0
  161.3640  206.9770  151.5410 C   0  0  0  0  0  0  0  0  0  0  0  0
  161.5150  213.1630  149.1490 O   0  0  0  0  0  0  0  0  0  0  0  0
  161.6580  212.2960  148.2460 C   0  0  0  0  0  0  0  0  0  0  0  0
  161.2360  204.9650  152.9030 C   0  0  0  0  0  0  0  0  0  0  0  0
  161.1840  209.2910  152.4370 C   0  0  0  0  0  0  0  0  0  0  0  0
  160.9040  210.2520  154.3260 N   0  0  0  0  0  0  0  0  0  0  0  0
  161.2150  206.3570  152.7920 C   0  0  0  0  0  3  0  0  0  0  0  0
  161.4920  210.3500  149.9030 C   0  0  0  0  0  0  0  0  0  0  0  0
  161.6880  206.7340  149.1680 N   0  0  0  0  0  0  0  0  0  0  0  0
  161.0900  204.3810  154.1160 F   0  0  0  0  0  0  0  0  0  0  0  0
  161.3240  211.1760  150.9820 N   0  0  0  0  0  0  0  0  0  0  0  0
  161.5070  208.9400  150.0840 C   0  0  0  0  0  0  0  0  0  0  0  0
  161.6520  210.9020  148.5870 N   0  0  0  0  0  2  0  0  0  0  0  0
  161.0090  209.0590  153.7490 N   0  0  0  0  0  0  0  0  0  0  0  0
  161.4100  204.1740  151.7650 C   0  0  0  0  0  3  0  0  0  0  0  0
  161.1770  210.6350  152.2140 C   0  0  0  0  0  0  0  0  0  0  0  0
  160.9920  211.2600  153.4230 C   0  0  0  0  0  3  0  0  0  0  0  0
  161.6750  208.0810  148.9920 C   0  0  0  0  0  3  0  0  0  0  0  0
  161.5390  206.1660  150.3920 C   0  0  0  0  0  0  0  0  0  0  0  0
  161.5610  204.7740  150.5120 C   0  0  0  0  0  3  0  0  0  0  0  0
  162.3310  213.4630  144.1610 C   0  0  0  0  0  0  0  0  0  0  0  0
  163.1430  212.9400  146.3750 C   0  0  0  0  0  3  0  0  0  0  0  0
  159.0750  212.5740  146.3290 Cl  0  0  0  0  0  0  0  0  0  0  0  0
  162.5920  213.8670  142.7550 C   0  0  0  0  0  1  0  0  0  0  0  0
  163.3900  213.3200  145.0540 C   0  0  0  0  0  3  0  0  0  0  0  0
  160.7620  212.8440  145.9090 C   0  0  0  0  0  0  0  0  0  0  0  0
  161.8350  212.6960  146.8260 C   0  0  0  0  0  0  0  0  0  0  0  0
  161.0240  213.2250  144.5890 C   0  0  0  0  0  3  0  0  0  0  0  0
  160.6650  210.4360  155.7460 C   0  0  0  0  0  2  0  0  0  0  0  0
  161.8560  210.2520  156.4480 O   0  0  0  0  0  1  0  0  0  0  0  0
  1  2  1  0  0  0  0
  1  6  1  0  0  0  0
  2  8  1  0  0  0  0
  4 14  1  0  0  0  0
  4  3  2  0  0  0  0
  5 11  1  0  0  0  0
  6 15  2  0  0  0  0
  7 30  1  0  0  0  0
  8  5  2  0  0  0  0
  9 13  1  0  0  0  0
  9 12  2  0  0  0  0
 10 20  1  0  0  0  0
 12 17  1  0  0  0  0
 13  1  2  0  0  0  0
 14  9  1  0  0  0  0
 15  7  1  0  0  0  0
 16  5  1  0  0  0  0
 17  6  1  0  0  0  0
 17 18  2  0  0  0  0
 18  7  1  0  0  0  0
 19 10  2  0  0  0  0
 19 13  1  0  0  0  0
 20 21  1  0  0  0  0
 20  2  2  0  0  0  0
 21 16  2  0  0  0  0
 22 29  2  0  0  0  0
 22 26  1  0  0  0  0
 23 28  1  0  0  0  0
 25 22  1  0  0  0  0
 26 23  2  0  0  0  0
 27 24  1  0  0  0  0
 27 28  2  0  0  0  0
 28  4  1  0  0  0  0
 29 27  1  0  0  0  0
 30 31  1  0  0  0  0
M  END
>  <MODEL>
6

>  <REMARK>
 VINA RESULT:      -7.5      4.522      7.884
  Name = 
  2 active torsions:
  status: ('A' for Active; 'I' for Inactive)
    1  A    between atoms: C_2  and  N_13
    2  A    between atoms: C_9  and  C_22
                            x       y       z     vdW  Elec       q    Type
                         _______ _______ _______ _____ _____    ______ ____

>  <TORSDO>
F 2

$$$$
