=
 OpenBabel11052423203D

 27 31  0  0  0  0  0  0  0  0999 V2000
  162.4530  208.9370  148.9880 N   0  0  0  0  0  0  0  0  0  0  0  0
  161.8370  209.5970  151.2780 C   0  0  0  0  0  0  0  0  0  0  0  0
  160.8030  207.3690  150.8790 N   0  0  0  0  0  0  0  0  0  0  0  0
  161.4930  209.0840  155.3890 C   0  0  0  0  0  3  0  0  0  0  0  0
  160.8040  207.7760  157.2600 F   0  0  0  0  0  0  0  0  0  0  0  0
  162.2710  210.5310  152.1720 N   0  0  0  0  0  0  0  0  0  0  0  0
  160.4470  206.9250  155.0620 C   0  0  0  0  0  3  0  0  0  0  0  0
  160.6350  203.9770  147.6890 F   0  0  0  0  0  0  0  0  0  0  0  0
  160.5590  207.0760  153.6780 C   0  0  0  0  0  3  0  0  0  0  0  0
  161.1280  205.1770  148.0780 C   0  0  0  0  0  0  0  0  0  0  0  0
  161.1370  208.2350  153.1370 C   0  0  0  0  0  0  0  0  0  0  0  0
  161.9130  209.8780  149.8780 N   0  0  0  0  0  0  0  0  0  0  0  0
  160.9130  207.9270  155.9170 C   0  0  0  0  0  0  0  0  0  0  0  0
  161.6050  209.2400  154.0060 C   0  0  0  0  0  0  0  0  0  0  0  0
  162.1210  207.6860  148.8710 C   0  0  0  0  0  0  0  0  0  0  0  0
  161.2730  208.4070  151.7490 C   0  0  0  0  0  0  0  0  0  0  0  0
  160.6460  205.7880  149.2340 C   0  0  0  0  0  3  0  0  0  0  0  0
  162.1650  210.3590  153.4890 N   0  0  0  0  0  0  0  0  0  0  0  0
  162.1560  205.7760  147.3570 C   0  0  0  0  0  3  0  0  0  0  0  0
  162.6370  207.0240  147.7490 C   0  0  0  0  0  3  0  0  0  0  0  0
  161.1520  207.0190  149.6750 C   0  0  0  0  0  0  0  0  0  0  0  0
  161.2720  213.7790  148.4020 N   0  0  0  0  0  0  0  0  0  0  0  0
  161.7070  211.2220  149.3910 C   0  0  0  0  0  0  0  0  0  0  0  0
  160.7610  212.0700  149.9900 C   0  0  0  0  0  3  0  0  0  0  0  0
  160.5600  213.3540  149.4800 C   0  0  0  0  0  3  0  0  0  0  0  0
  162.1860  212.9760  147.7940 C   0  0  0  0  0  3  0  0  0  0  0  0
  162.4150  211.6860  148.2740 C   0  0  0  0  0  3  0  0  0  0  0  0
  1 12  1  0  0  0  0
  2 16  2  0  0  0  0
  2  6  1  0  0  0  0
  3 16  1  0  0  0  0
  4 13  1  0  0  0  0
  6 18  2  0  0  0  0
  7 13  2  0  0  0  0
  8 10  1  0  0  0  0
  9  7  1  0  0  0  0
 10 17  2  0  0  0  0
 11  9  2  0  0  0  0
 11 14  1  0  0  0  0
 12  2  1  0  0  0  0
 13  5  1  0  0  0  0
 14  4  2  0  0  0  0
 15  1  2  0  0  0  0
 15 21  1  0  0  0  0
 16 11  1  0  0  0  0
 17 21  1  0  0  0  0
 18 14  1  0  0  0  0
 19 20  2  0  0  0  0
 19 10  1  0  0  0  0
 20 15  1  0  0  0  0
 21  3  2  0  0  0  0
 22 25  1  0  0  0  0
 23 12  1  0  0  0  0
 23 24  1  0  0  0  0
 25 24  2  0  0  0  0
 26 27  1  0  0  0  0
 26 22  2  0  0  0  0
 27 23  2  0  0  0  0
M  END
>  <MODEL>
1

>  <REMARK>
 VINA RESULT:      -7.7      0.000      0.000
  Name = 
  1 active torsions:
  status: ('A' for Active; 'I' for Inactive)
    1  A    between atoms: C_9  and  N_15
                            x       y       z     vdW  Elec       q    Type
                         _______ _______ _______ _____ _____    ______ ____

>  <TORSDO>
F 1

$$$$
=
 OpenBabel11052423203D

 27 31  0  0  0  0  0  0  0  0999 V2000
  160.5050  208.9520  152.0990 N   0  0  0  0  0  0  0  0  0  0  0  0
  160.9780  207.1360  150.5050 C   0  0  0  0  0  0  0  0  0  0  0  0
  161.5600  206.2680  152.7640 N   0  0  0  0  0  0  0  0  0  0  0  0
  160.7310  203.2630  149.0160 C   0  0  0  0  0  3  0  0  0  0  0  0
  160.9090  200.9080  149.3400 F   0  0  0  0  0  0  0  0  0  0  0  0
  160.6510  206.8690  149.2090 N   0  0  0  0  0  0  0  0  0  0  0  0
  161.3300  202.3600  151.1830 C   0  0  0  0  0  3  0  0  0  0  0  0
  161.3770  207.4740  157.2610 F   0  0  0  0  0  0  0  0  0  0  0  0
  161.4120  203.6550  151.7030 C   0  0  0  0  0  3  0  0  0  0  0  0
  161.1050  207.7770  155.9690 C   0  0  0  0  0  0  0  0  0  0  0  0
  161.1570  204.7650  150.8830 C   0  0  0  0  0  0  0  0  0  0  0  0
  161.1250  208.4960  150.9250 N   0  0  0  0  0  0  0  0  0  0  0  0
  160.9900  202.1640  149.8410 C   0  0  0  0  0  0  0  0  0  0  0  0
  160.8150  204.5580  149.5330 C   0  0  0  0  0  0  0  0  0  0  0  0
  160.5770  208.4220  153.2830 C   0  0  0  0  0  0  0  0  0  0  0  0
  161.2210  206.0760  151.3840 C   0  0  0  0  0  0  0  0  0  0  0  0
  161.5690  206.9520  154.9460 C   0  0  0  0  0  3  0  0  0  0  0  0
  160.5660  205.6250  148.7380 N   0  0  0  0  0  0  0  0  0  0  0  0
  160.3170  208.8810  155.6620 C   0  0  0  0  0  3  0  0  0  0  0  0
  160.0670  209.2010  154.3290 C   0  0  0  0  0  3  0  0  0  0  0  0
  161.2860  207.2260  153.6010 C   0  0  0  0  0  0  0  0  0  0  0  0
  162.6420  211.3780  148.2430 N   0  0  0  0  0  0  0  0  0  0  0  0
  161.6640  209.4840  150.0220 C   0  0  0  0  0  0  0  0  0  0  0  0
  161.5940  210.8540  150.3240 C   0  0  0  0  0  3  0  0  0  0  0  0
  162.0960  211.7900  149.4180 C   0  0  0  0  0  3  0  0  0  0  0  0
  162.7130  210.0600  147.9170 C   0  0  0  0  0  3  0  0  0  0  0  0
  162.2220  209.0930  148.7960 C   0  0  0  0  0  3  0  0  0  0  0  0
  1 15  2  0  0  0  0
  2 12  1  0  0  0  0
  2 16  1  0  0  0  0
  3 21  2  0  0  0  0
  4 14  1  0  0  0  0
  4 13  2  0  0  0  0
  5 13  1  0  0  0  0
  6  2  2  0  0  0  0
  7  9  2  0  0  0  0
 10  8  1  0  0  0  0
 11 16  2  0  0  0  0
 11  9  1  0  0  0  0
 12  1  1  0  0  0  0
 13  7  1  0  0  0  0
 14 11  1  0  0  0  0
 15 21  1  0  0  0  0
 15 20  1  0  0  0  0
 16  3  1  0  0  0  0
 17 10  2  0  0  0  0
 18  6  1  0  0  0  0
 18 14  2  0  0  0  0
 19 10  1  0  0  0  0
 20 19  2  0  0  0  0
 21 17  1  0  0  0  0
 22 25  1  0  0  0  0
 23 24  1  0  0  0  0
 23 12  1  0  0  0  0
 25 24  2  0  0  0  0
 26 22  2  0  0  0  0
 26 27  1  0  0  0  0
 27 23  2  0  0  0  0
M  END
>  <MODEL>
2

>  <REMARK>
 VINA RESULT:      -6.9      2.000      5.749
  Name = 
  1 active torsions:
  status: ('A' for Active; 'I' for Inactive)
    1  A    between atoms: C_9  and  N_15
                            x       y       z     vdW  Elec       q    Type
                         _______ _______ _______ _____ _____    ______ ____

>  <TORSDO>
F 1

$$$$
=
 OpenBabel11052423203D

 27 31  0  0  0  0  0  0  0  0999 V2000
  162.0780  208.8430  152.3730 N   0  0  0  0  0  0  0  0  0  0  0  0
  161.3080  206.5050  152.3620 C   0  0  0  0  0  0  0  0  0  0  0  0
  161.0030  207.3640  150.0460 N   0  0  0  0  0  0  0  0  0  0  0  0
  161.1710  202.5840  150.9880 C   0  0  0  0  0  3  0  0  0  0  0  0
  160.9310  201.0270  149.1990 F   0  0  0  0  0  0  0  0  0  0  0  0
  161.4420  205.4330  153.1930 N   0  0  0  0  0  0  0  0  0  0  0  0
  160.8340  203.3600  148.7190 C   0  0  0  0  0  3  0  0  0  0  0  0
  161.8560  211.1330  147.4440 F   0  0  0  0  0  0  0  0  0  0  0  0
  160.8830  204.6850  149.1610 C   0  0  0  0  0  3  0  0  0  0  0  0
  161.9620  210.5030  148.6380 C   0  0  0  0  0  0  0  0  0  0  0  0
  161.0740  204.9710  150.5220 C   0  0  0  0  0  0  0  0  0  0  0  0
  161.2820  207.8240  152.9170 N   0  0  0  0  0  0  0  0  0  0  0  0
  160.9780  202.3110  149.6310 C   0  0  0  0  0  0  0  0  0  0  0  0
  161.2180  203.9080  151.4330 C   0  0  0  0  0  0  0  0  0  0  0  0
  162.1450  209.2080  151.1280 C   0  0  0  0  0  0  0  0  0  0  0  0
  161.1400  206.2940  150.9910 C   0  0  0  0  0  0  0  0  0  0  0  0
  161.3240  209.2800  148.8400 C   0  0  0  0  0  3  0  0  0  0  0  0
  161.4050  204.1780  152.7470 N   0  0  0  0  0  0  0  0  0  0  0  0
  162.7500  211.0460  149.6470 C   0  0  0  0  0  3  0  0  0  0  0  0
  162.8290  210.4050  150.8810 C   0  0  0  0  0  3  0  0  0  0  0  0
  161.4320  208.5930  150.0570 C   0  0  0  0  0  0  0  0  0  0  0  0
  159.5580  208.5100  156.7060 N   0  0  0  0  0  0  0  0  0  0  0  0
  160.6710  208.0620  154.2030 C   0  0  0  0  0  0  0  0  0  0  0  0
  160.3730  209.3660  154.6310 C   0  0  0  0  0  3  0  0  0  0  0  0
  159.8090  209.5700  155.8920 C   0  0  0  0  0  3  0  0  0  0  0  0
  159.8460  207.2370  156.3250 C   0  0  0  0  0  3  0  0  0  0  0  0
  160.4100  206.9920  155.0710 C   0  0  0  0  0  3  0  0  0  0  0  0
  1 12  1  0  0  0  0
  2 12  1  0  0  0  0
  2  6  1  0  0  0  0
  3 21  2  0  0  0  0
  3 16  1  0  0  0  0
  4 14  1  0  0  0  0
  5 13  1  0  0  0  0
  7  9  2  0  0  0  0
  7 13  1  0  0  0  0
  8 10  1  0  0  0  0
  9 11  1  0  0  0  0
 10 17  2  0  0  0  0
 10 19  1  0  0  0  0
 11 16  1  0  0  0  0
 11 14  2  0  0  0  0
 12 23  1  0  0  0  0
 13  4  2  0  0  0  0
 14 18  1  0  0  0  0
 15  1  2  0  0  0  0
 16  2  2  0  0  0  0
 17 21  1  0  0  0  0
 18  6  2  0  0  0  0
 19 20  2  0  0  0  0
 20 15  1  0  0  0  0
 21 15  1  0  0  0  0
 23 24  2  0  0  0  0
 23 27  1  0  0  0  0
 24 25  1  0  0  0  0
 25 22  2  0  0  0  0
 26 22  1  0  0  0  0
 27 26  2  0  0  0  0
M  END
>  <MODEL>
3

>  <REMARK>
 VINA RESULT:      -6.8      2.968      6.226
  Name = 
  1 active torsions:
  status: ('A' for Active; 'I' for Inactive)
    1  A    between atoms: C_9  and  N_15
                            x       y       z     vdW  Elec       q    Type
                         _______ _______ _______ _____ _____    ______ ____

>  <TORSDO>
F 1

$$$$
=
 OpenBabel11052423203D

 27 31  0  0  0  0  0  0  0  0999 V2000
  161.6450  207.4630  153.5840 N   0  0  0  0  0  0  0  0  0  0  0  0
  161.6000  208.4260  151.3190 C   0  0  0  0  0  0  0  0  0  0  0  0
  160.3460  209.9990  152.7850 N   0  0  0  0  0  0  0  0  0  0  0  0
  162.1390  211.4130  148.4780 C   0  0  0  0  0  3  0  0  0  0  0  0
  161.7890  213.6530  147.7410 F   0  0  0  0  0  0  0  0  0  0  0  0
  162.2860  208.2190  150.1600 N   0  0  0  0  0  0  0  0  0  0  0  0
  160.8940  212.9780  149.8450 C   0  0  0  0  0  3  0  0  0  0  0  0
  159.2350  210.6660  157.2610 F   0  0  0  0  0  0  0  0  0  0  0  0
  160.7080  211.9890  150.8140 C   0  0  0  0  0  3  0  0  0  0  0  0
  159.8860  209.9340  156.3260 C   0  0  0  0  0  0  0  0  0  0  0  0
  161.2330  210.7020  150.6220 C   0  0  0  0  0  0  0  0  0  0  0  0
  161.3840  207.3290  152.2120 N   0  0  0  0  0  0  0  0  0  0  0  0
  161.6090  212.6910  148.6780 C   0  0  0  0  0  0  0  0  0  0  0  0
  161.9520  210.4220  149.4450 C   0  0  0  0  0  0  0  0  0  0  0  0
  161.2070  208.3910  154.3810 C   0  0  0  0  0  0  0  0  0  0  0  0
  161.0710  209.6920  151.5860 C   0  0  0  0  0  0  0  0  0  0  0  0
  159.7160  210.2180  154.9730 C   0  0  0  0  0  3  0  0  0  0  0  0
  162.4630  209.1820  149.2550 N   0  0  0  0  0  0  0  0  0  0  0  0
  160.7690  208.9320  156.7160 C   0  0  0  0  0  3  0  0  0  0  0  0
  161.4130  208.1640  155.7480 C   0  0  0  0  0  3  0  0  0  0  0  0
  160.3940  209.4930  153.9830 C   0  0  0  0  0  0  0  0  0  0  0  0
  160.8310  203.4400  150.6740 N   0  0  0  0  0  0  0  0  0  0  0  0
  161.1720  205.9990  151.6940 C   0  0  0  0  0  0  0  0  0  0  0  0
  161.2060  204.8800  152.5410 C   0  0  0  0  0  3  0  0  0  0  0  0
  161.0290  203.6010  152.0090 C   0  0  0  0  0  3  0  0  0  0  0  0
  160.8050  204.5030  149.8260 C   0  0  0  0  0  3  0  0  0  0  0  0
  160.9780  205.7970  150.3200 C   0  0  0  0  0  3  0  0  0  0  0  0
  1 15  2  0  0  0  0
  2 16  1  0  0  0  0
  2 12  1  0  0  0  0
  3 21  2  0  0  0  0
  4 13  2  0  0  0  0
  4 14  1  0  0  0  0
  5 13  1  0  0  0  0
  6  2  2  0  0  0  0
  7  9  2  0  0  0  0
 10 19  1  0  0  0  0
 10  8  1  0  0  0  0
 11  9  1  0  0  0  0
 11 16  2  0  0  0  0
 12  1  1  0  0  0  0
 13  7  1  0  0  0  0
 14 11  1  0  0  0  0
 15 20  1  0  0  0  0
 16  3  1  0  0  0  0
 17 10  2  0  0  0  0
 18 14  2  0  0  0  0
 18  6  1  0  0  0  0
 20 19  2  0  0  0  0
 21 15  1  0  0  0  0
 21 17  1  0  0  0  0
 22 25  1  0  0  0  0
 23 12  1  0  0  0  0
 23 24  1  0  0  0  0
 25 24  2  0  0  0  0
 26 27  1  0  0  0  0
 26 22  2  0  0  0  0
 27 23  2  0  0  0  0
M  END
>  <MODEL>
4

>  <REMARK>
 VINA RESULT:      -6.6      2.642      7.192
  Name = 
  1 active torsions:
  status: ('A' for Active; 'I' for Inactive)
    1  A    between atoms: C_9  and  N_15
                            x       y       z     vdW  Elec       q    Type
                         _______ _______ _______ _____ _____    ______ ____

>  <TORSDO>
F 1

$$$$
=
 OpenBabel11052423203D

 27 31  0  0  0  0  0  0  0  0999 V2000
  162.1850  209.0660  151.9860 N   0  0  0  0  0  0  0  0  0  0  0  0
  161.4280  206.7260  151.8950 C   0  0  0  0  0  0  0  0  0  0  0  0
  161.0480  207.6850  149.6290 N   0  0  0  0  0  0  0  0  0  0  0  0
  161.2700  202.8690  150.3520 C   0  0  0  0  0  3  0  0  0  0  0  0
  160.9840  201.3920  148.5030 F   0  0  0  0  0  0  0  0  0  0  0  0
  161.5930  205.6190  152.6720 N   0  0  0  0  0  0  0  0  0  0  0  0
  160.8600  203.7430  148.1300 C   0  0  0  0  0  3  0  0  0  0  0  0
  161.8010  211.5720  147.1730 F   0  0  0  0  0  0  0  0  0  0  0  0
  160.9150  205.0470  148.6290 C   0  0  0  0  0  3  0  0  0  0  0  0
  161.9460  210.8890  148.3340 C   0  0  0  0  0  0  0  0  0  0  0  0
  161.1460  205.2730  149.9950 C   0  0  0  0  0  0  0  0  0  0  0  0
  161.4120  208.0180  152.5090 N   0  0  0  0  0  0  0  0  0  0  0  0
  161.0370  202.6550  148.9900 C   0  0  0  0  0  0  0  0  0  0  0  0
  161.3240  204.1720  150.8540 C   0  0  0  0  0  0  0  0  0  0  0  0
  162.2120  209.4860  150.7570 C   0  0  0  0  0  0  0  0  0  0  0  0
  161.2190  206.5740  150.5210 C   0  0  0  0  0  0  0  0  0  0  0  0
  161.3220  209.6550  148.5010 C   0  0  0  0  0  3  0  0  0  0  0  0
  161.5490  204.3840  152.1720 N   0  0  0  0  0  0  0  0  0  0  0  0
  162.7620  211.3930  149.3420 C   0  0  0  0  0  3  0  0  0  0  0  0
  162.8820  210.6980  150.5440 C   0  0  0  0  0  3  0  0  0  0  0  0
  161.4710  208.9150  149.6820 C   0  0  0  0  0  0  0  0  0  0  0  0
  159.6720  208.5430  156.3160 N   0  0  0  0  0  0  0  0  0  0  0  0
  160.8390  208.1950  153.8210 C   0  0  0  0  0  0  0  0  0  0  0  0
  160.5960  207.0940  154.6580 C   0  0  0  0  0  3  0  0  0  0  0  0
  160.0120  207.2910  155.9110 C   0  0  0  0  0  3  0  0  0  0  0  0
  159.8840  209.6280  155.5240 C   0  0  0  0  0  3  0  0  0  0  0  0
  160.4660  209.4720  154.2640 C   0  0  0  0  0  3  0  0  0  0  0  0
  1 12  1  0  0  0  0
  2 12  1  0  0  0  0
  2  6  1  0  0  0  0
  3 21  2  0  0  0  0
  3 16  1  0  0  0  0
  4 14  1  0  0  0  0
  5 13  1  0  0  0  0
  7  9  2  0  0  0  0
  7 13  1  0  0  0  0
  8 10  1  0  0  0  0
  9 11  1  0  0  0  0
 10 17  2  0  0  0  0
 10 19  1  0  0  0  0
 11 16  1  0  0  0  0
 11 14  2  0  0  0  0
 12 23  1  0  0  0  0
 13  4  2  0  0  0  0
 14 18  1  0  0  0  0
 15  1  2  0  0  0  0
 16  2  2  0  0  0  0
 17 21  1  0  0  0  0
 18  6  2  0  0  0  0
 19 20  2  0  0  0  0
 20 15  1  0  0  0  0
 21 15  1  0  0  0  0
 23 27  2  0  0  0  0
 23 24  1  0  0  0  0
 24 25  2  0  0  0  0
 25 22  1  0  0  0  0
 26 22  2  0  0  0  0
 27 26  1  0  0  0  0
M  END
>  <MODEL>
5

>  <REMARK>
 VINA RESULT:      -6.4      2.881      6.212
  Name = 
  1 active torsions:
  status: ('A' for Active; 'I' for Inactive)
    1  A    between atoms: C_9  and  N_15
                            x       y       z     vdW  Elec       q    Type
                         _______ _______ _______ _____ _____    ______ ____

>  <TORSDO>
F 1

$$$$
=
 OpenBabel11052423203D

 27 31  0  0  0  0  0  0  0  0999 V2000
  161.6480  209.6840  153.7100 N   0  0  0  0  0  0  0  0  0  0  0  0
  161.5240  210.1240  151.2920 C   0  0  0  0  0  0  0  0  0  0  0  0
  160.1290  211.8610  152.4020 N   0  0  0  0  0  0  0  0  0  0  0  0
  161.8000  212.4580  147.8620 C   0  0  0  0  0  3  0  0  0  0  0  0
  161.2520  214.4440  146.6630 F   0  0  0  0  0  0  0  0  0  0  0  0
  162.2290  209.7320  150.1930 N   0  0  0  0  0  0  0  0  0  0  0  0
  160.4160  214.1660  148.8780 C   0  0  0  0  0  3  0  0  0  0  0  0
  158.9470  213.3830  156.6440 F   0  0  0  0  0  0  0  0  0  0  0  0
  160.3160  213.3990  150.0410 C   0  0  0  0  0  3  0  0  0  0  0  0
  159.6650  212.5260  155.8800 C   0  0  0  0  0  0  0  0  0  0  0  0
  160.9560  212.1520  150.1240 C   0  0  0  0  0  0  0  0  0  0  0  0
  161.4040  209.2320  152.4040 N   0  0  0  0  0  0  0  0  0  0  0  0
  161.1570  213.6970  147.7890 C   0  0  0  0  0  0  0  0  0  0  0  0
  161.7010  211.6870  149.0230 C   0  0  0  0  0  0  0  0  0  0  0  0
  161.1260  210.7200  154.2940 C   0  0  0  0  0  0  0  0  0  0  0  0
  160.8820  211.3660  151.2860 C   0  0  0  0  0  0  0  0  0  0  0  0
  159.4750  212.4930  154.5000 C   0  0  0  0  0  3  0  0  0  0  0  0
  162.3210  210.4870  149.0990 N   0  0  0  0  0  0  0  0  0  0  0  0
  160.6330  211.7140  156.4640 C   0  0  0  0  0  3  0  0  0  0  0  0
  161.3470  210.8150  155.6740 C   0  0  0  0  0  3  0  0  0  0  0  0
  160.2180  211.6330  153.6810 C   0  0  0  0  0  0  0  0  0  0  0  0
  161.0770  205.0690  151.8070 N   0  0  0  0  0  0  0  0  0  0  0  0
  161.3150  207.8080  152.1900 C   0  0  0  0  0  0  0  0  0  0  0  0
  161.0400  207.2840  150.9170 C   0  0  0  0  0  3  0  0  0  0  0  0
  160.9280  205.9030  150.7440 C   0  0  0  0  0  3  0  0  0  0  0  0
  161.3320  205.5460  153.0550 C   0  0  0  0  0  3  0  0  0  0  0  0
  161.4510  206.9210  153.2680 C   0  0  0  0  0  3  0  0  0  0  0  0
  1 15  2  0  0  0  0
  2 12  1  0  0  0  0
  3 21  2  0  0  0  0
  4 14  1  0  0  0  0
  5 13  1  0  0  0  0
  6  2  2  0  0  0  0
  7  9  2  0  0  0  0
  9 11  1  0  0  0  0
 10 19  1  0  0  0  0
 10  8  1  0  0  0  0
 11 16  2  0  0  0  0
 12  1  1  0  0  0  0
 13  4  2  0  0  0  0
 13  7  1  0  0  0  0
 14 18  2  0  0  0  0
 14 11  1  0  0  0  0
 15 20  1  0  0  0  0
 16  2  1  0  0  0  0
 16  3  1  0  0  0  0
 17 10  2  0  0  0  0
 18  6  1  0  0  0  0
 20 19  2  0  0  0  0
 21 15  1  0  0  0  0
 21 17  1  0  0  0  0
 22 26  1  0  0  0  0
 23 12  1  0  0  0  0
 23 27  1  0  0  0  0
 24 23  2  0  0  0  0
 25 24  1  0  0  0  0
 25 22  2  0  0  0  0
 26 27  2  0  0  0  0
M  END
>  <MODEL>
6

>  <REMARK>
 VINA RESULT:      -6.1      2.961      7.627
  Name = 
  1 active torsions:
  status: ('A' for Active; 'I' for Inactive)
    1  A    between atoms: C_9  and  N_15
                            x       y       z     vdW  Elec       q    Type
                         _______ _______ _______ _____ _____    ______ ____

>  <TORSDO>
F 1

$$$$
=
 OpenBabel11052423203D

 27 31  0  0  0  0  0  0  0  0999 V2000
  160.4300  208.9430  153.6530 N   0  0  0  0  0  0  0  0  0  0  0  0
  160.7230  211.0310  152.3840 C   0  0  0  0  0  0  0  0  0  0  0  0
  162.0020  209.2760  151.1680 N   0  0  0  0  0  0  0  0  0  0  0  0
  160.6560  213.4200  148.9820 C   0  0  0  0  0  3  0  0  0  0  0  0
  161.2540  213.7920  146.7040 F   0  0  0  0  0  0  0  0  0  0  0  0
  160.1060  212.2460  152.3540 N   0  0  0  0  0  0  0  0  0  0  0  0
  161.9320  211.7650  147.7580 C   0  0  0  0  0  3  0  0  0  0  0  0
  162.8450  204.6940  151.2620 F   0  0  0  0  0  0  0  0  0  0  0  0
  161.9610  210.9450  148.8900 C   0  0  0  0  0  3  0  0  0  0  0  0
  162.1990  205.7640  151.7850 C   0  0  0  0  0  0  0  0  0  0  0  0
  161.3390  211.3570  150.0790 C   0  0  0  0  0  0  0  0  0  0  0  0
  160.7770  210.3020  153.6130 N   0  0  0  0  0  0  0  0  0  0  0  0
  161.2810  213.0010  147.8040 C   0  0  0  0  0  0  0  0  0  0  0  0
  160.6840  212.6040  150.1150 C   0  0  0  0  0  0  0  0  0  0  0  0
  160.8900  207.9920  152.8960 C   0  0  0  0  0  0  0  0  0  0  0  0
  161.3420  210.5480  151.2270 C   0  0  0  0  0  0  0  0  0  0  0  0
  162.4910  207.0480  151.3280 C   0  0  0  0  0  3  0  0  0  0  0  0
  160.0810  213.0050  151.2580 N   0  0  0  0  0  0  0  0  0  0  0  0
  161.2060  205.5800  152.7420 C   0  0  0  0  0  3  0  0  0  0  0  0
  160.5680  206.6880  153.2950 C   0  0  0  0  0  3  0  0  0  0  0  0
  161.8240  208.1720  151.8340 C   0  0  0  0  0  0  0  0  0  0  0  0
  161.2090  212.3810  157.2590 N   0  0  0  0  0  0  0  0  0  0  0  0
  160.9070  211.0000  154.8700 C   0  0  0  0  0  0  0  0  0  0  0  0
  160.0030  212.0110  155.2320 C   0  0  0  0  0  3  0  0  0  0  0  0
  160.1700  212.6910  156.4400 C   0  0  0  0  0  3  0  0  0  0  0  0
  162.1080  211.4150  156.9300 C   0  0  0  0  0  3  0  0  0  0  0  0
  161.9760  210.7120  155.7310 C   0  0  0  0  0  3  0  0  0  0  0  0
  2 12  1  0  0  0  0
  3 16  1  0  0  0  0
  3 21  2  0  0  0  0
  4 14  1  0  0  0  0
  5 13  1  0  0  0  0
  6  2  1  0  0  0  0
  7 13  1  0  0  0  0
  7  9  2  0  0  0  0
  8 10  1  0  0  0  0
  9 11  1  0  0  0  0
 10 19  1  0  0  0  0
 11 14  2  0  0  0  0
 11 16  1  0  0  0  0
 12  1  1  0  0  0  0
 12 23  1  0  0  0  0
 13  4  2  0  0  0  0
 14 18  1  0  0  0  0
 15 20  1  0  0  0  0
 15  1  2  0  0  0  0
 16  2  2  0  0  0  0
 17 10  2  0  0  0  0
 17 21  1  0  0  0  0
 18  6  2  0  0  0  0
 19 20  2  0  0  0  0
 21 15  1  0  0  0  0
 23 24  2  0  0  0  0
 23 27  1  0  0  0  0
 24 25  1  0  0  0  0
 25 22  2  0  0  0  0
 26 22  1  0  0  0  0
 27 26  2  0  0  0  0
M  END
>  <MODEL>
7

>  <REMARK>
 VINA RESULT:      -5.8      2.904      6.110
  Name = 
  1 active torsions:
  status: ('A' for Active; 'I' for Inactive)
    1  A    between atoms: C_9  and  N_15
                            x       y       z     vdW  Elec       q    Type
                         _______ _______ _______ _____ _____    ______ ____

>  <TORSDO>
F 1

$$$$
=
 OpenBabel11052423203D

 27 31  0  0  0  0  0  0  0  0999 V2000
  160.5610  211.3670  151.5610 N   0  0  0  0  0  0  0  0  0  0  0  0
  161.2520  209.2520  150.5100 C   0  0  0  0  0  0  0  0  0  0  0  0
  161.6850  209.0070  152.9490 N   0  0  0  0  0  0  0  0  0  0  0  0
  161.3170  205.1230  150.0270 C   0  0  0  0  0  3  0  0  0  0  0  0
  161.5810  202.9380  150.9420 F   0  0  0  0  0  0  0  0  0  0  0  0
  161.0470  208.6520  149.3030 N   0  0  0  0  0  0  0  0  0  0  0  0
  161.7760  204.8250  152.3860 C   0  0  0  0  0  3  0  0  0  0  0  0
  161.0700  211.2680  156.9760 F   0  0  0  0  0  0  0  0  0  0  0  0
  161.7520  206.2100  152.5690 C   0  0  0  0  0  3  0  0  0  0  0  0
  160.8930  211.2250  155.6340 C   0  0  0  0  0  0  0  0  0  0  0  0
  161.5130  207.0640  151.4820 C   0  0  0  0  0  0  0  0  0  0  0  0
  161.2980  210.6800  150.5850 N   0  0  0  0  0  0  0  0  0  0  0  0
  161.5590  204.2820  151.1160 C   0  0  0  0  0  0  0  0  0  0  0  0
  161.2940  206.5080  150.2060 C   0  0  0  0  0  0  0  0  0  0  0  0
  160.5600  211.1510  152.8420 C   0  0  0  0  0  0  0  0  0  0  0  0
  161.4720  208.4590  151.6410 C   0  0  0  0  0  0  0  0  0  0  0  0
  161.4800  210.2070  154.8850 C   0  0  0  0  0  3  0  0  0  0  0  0
  161.0610  207.3280  149.1540 N   0  0  0  0  0  0  0  0  0  0  0  0
  160.0810  212.1640  155.0070 C   0  0  0  0  0  3  0  0  0  0  0  0
  159.9270  212.1280  153.6220 C   0  0  0  0  0  3  0  0  0  0  0  0
  161.2970  210.1220  153.4980 C   0  0  0  0  0  0  0  0  0  0  0  0
  162.9680  212.9770  147.4650 N   0  0  0  0  0  0  0  0  0  0  0  0
  161.8610  211.4490  149.5020 C   0  0  0  0  0  0  0  0  0  0  0  0
  163.0810  211.0810  148.9120 C   0  0  0  0  0  3  0  0  0  0  0  0
  163.6190  211.8610  147.8860 C   0  0  0  0  0  3  0  0  0  0  0  0
  161.7910  213.3670  148.0250 C   0  0  0  0  0  3  0  0  0  0  0  0
  161.2210  212.6130  149.0530 C   0  0  0  0  0  3  0  0  0  0  0  0
  1 15  2  0  0  0  0
  2 12  1  0  0  0  0
  2 16  1  0  0  0  0
  3 21  2  0  0  0  0
  4 14  1  0  0  0  0
  4 13  2  0  0  0  0
  5 13  1  0  0  0  0
  6  2  2  0  0  0  0
  7  9  2  0  0  0  0
 10  8  1  0  0  0  0
 11 16  2  0  0  0  0
 11  9  1  0  0  0  0
 12  1  1  0  0  0  0
 13  7  1  0  0  0  0
 14 11  1  0  0  0  0
 15 21  1  0  0  0  0
 15 20  1  0  0  0  0
 16  3  1  0  0  0  0
 17 10  2  0  0  0  0
 18  6  1  0  0  0  0
 18 14  2  0  0  0  0
 19 10  1  0  0  0  0
 20 19  2  0  0  0  0
 21 17  1  0  0  0  0
 22 25  2  0  0  0  0
 22 26  1  0  0  0  0
 23 12  1  0  0  0  0
 24 23  2  0  0  0  0
 25 24  1  0  0  0  0
 26 27  2  0  0  0  0
 27 23  1  0  0  0  0
M  END
>  <MODEL>
8

>  <REMARK>
 VINA RESULT:      -5.4      1.990      5.436
  Name = 
  1 active torsions:
  status: ('A' for Active; 'I' for Inactive)
    1  A    between atoms: C_9  and  N_15
                            x       y       z     vdW  Elec       q    Type
                         _______ _______ _______ _____ _____    ______ ____

>  <TORSDO>
F 1

$$$$
=
 OpenBabel11052423203D

 27 31  0  0  0  0  0  0  0  0999 V2000
  161.9560  203.6320  147.8730 N   0  0  0  0  0  0  0  0  0  0  0  0
  161.8670  205.9650  148.6510 C   0  0  0  0  0  0  0  0  0  0  0  0
  160.5540  204.6220  150.2840 N   0  0  0  0  0  0  0  0  0  0  0  0
  162.2780  209.0370  151.4230 C   0  0  0  0  0  3  0  0  0  0  0  0
  161.8360  209.9470  153.5810 F   0  0  0  0  0  0  0  0  0  0  0  0
  162.5580  207.1090  148.3810 N   0  0  0  0  0  0  0  0  0  0  0  0
  160.9750  207.7920  153.0400 C   0  0  0  0  0  3  0  0  0  0  0  0
  159.4270  200.2070  151.2590 F   0  0  0  0  0  0  0  0  0  0  0  0
  160.8310  206.7460  152.1240 C   0  0  0  0  0  3  0  0  0  0  0  0
  160.1060  201.0840  150.4820 C   0  0  0  0  0  0  0  0  0  0  0  0
  161.4070  206.8380  150.8480 C   0  0  0  0  0  0  0  0  0  0  0  0
  161.6970  204.9880  147.6210 N   0  0  0  0  0  0  0  0  0  0  0  0
  161.6980  208.9360  152.6900 C   0  0  0  0  0  0  0  0  0  0  0  0
  162.1340  207.9940  150.5040 C   0  0  0  0  0  0  0  0  0  0  0  0
  161.4830  202.9090  148.8440 C   0  0  0  0  0  0  0  0  0  0  0  0
  161.2880  205.7970  149.9130 C   0  0  0  0  0  0  0  0  0  0  0  0
  159.9210  202.4550  150.6510 C   0  0  0  0  0  3  0  0  0  0  0  0
  162.6940  208.0880  149.2750 N   0  0  0  0  0  0  0  0  0  0  0  0
  161.0290  200.6210  149.5500 C   0  0  0  0  0  3  0  0  0  0  0  0
  161.7010  201.5290  148.7340 C   0  0  0  0  0  3  0  0  0  0  0  0
  160.6250  203.3880  149.8770 C   0  0  0  0  0  0  0  0  0  0  0  0
  161.2060  206.1210  143.5870 N   0  0  0  0  0  0  0  0  0  0  0  0
  161.5380  205.3980  146.2460 C   0  0  0  0  0  0  0  0  0  0  0  0
  160.4580  206.2030  145.8530 C   0  0  0  0  0  3  0  0  0  0  0  0
  160.3110  206.5600  144.5110 C   0  0  0  0  0  3  0  0  0  0  0  0
  162.2560  205.3300  143.9350 C   0  0  0  0  0  3  0  0  0  0  0  0
  162.4370  204.9520  145.2670 C   0  0  0  0  0  3  0  0  0  0  0  0
  1 15  2  0  0  0  0
  2 16  1  0  0  0  0
  4 13  2  0  0  0  0
  6  2  2  0  0  0  0
  6 18  1  0  0  0  0
  9  7  2  0  0  0  0
 10 17  2  0  0  0  0
 10  8  1  0  0  0  0
 11  9  1  0  0  0  0
 12  1  1  0  0  0  0
 12  2  1  0  0  0  0
 13  7  1  0  0  0  0
 13  5  1  0  0  0  0
 14 11  1  0  0  0  0
 14  4  1  0  0  0  0
 15 21  1  0  0  0  0
 16  3  1  0  0  0  0
 16 11  2  0  0  0  0
 18 14  2  0  0  0  0
 19 10  1  0  0  0  0
 20 15  1  0  0  0  0
 20 19  2  0  0  0  0
 21  3  2  0  0  0  0
 21 17  1  0  0  0  0
 22 26  2  0  0  0  0
 22 25  1  0  0  0  0
 23 12  1  0  0  0  0
 24 23  1  0  0  0  0
 25 24  2  0  0  0  0
 26 27  1  0  0  0  0
 27 23  2  0  0  0  0
M  END
>  <MODEL>
9

>  <REMARK>
 VINA RESULT:      -5.2      3.183      5.327
  Name = 
  1 active torsions:
  status: ('A' for Active; 'I' for Inactive)
    1  A    between atoms: C_9  and  N_15
                            x       y       z     vdW  Elec       q    Type
                         _______ _______ _______ _____ _____    ______ ____

>  <TORSDO>
F 1

$$$$
