=
 OpenBabel11062408303D

 32 36  0  0  1  0  0  0  0  0999 V2000
  161.5910  208.8690  150.8000 C   0  0  2  0  0  3  0  0  0  0  0  0
  162.1670  210.2670  152.8290 O   0  0  0  0  0  0  0  0  0  0  0  0
  162.0610  208.7330  149.3410 C   0  0  0  0  0  2  0  0  0  0  0  0
  162.1330  210.1640  151.4080 C   0  0  2  0  0  3  0  0  0  0  0  0
  159.8000  209.6800  153.1590 C   0  0  0  0  0  2  0  0  0  0  0  0
  161.2800  209.3790  153.5000 C   0  0  1  0  0  0  0  0  0  0  0  0
  161.5380  211.3990  150.7020 C   0  0  2  0  0  3  0  0  0  0  0  0
  159.3620  211.1370  153.3540 C   0  0  0  0  0  2  0  0  0  0  0  0
  160.1460  211.6250  151.0890 N   0  0  0  0  0  2  0  0  0  0  0  0
  161.5810  211.2320  149.1700 C   0  0  0  0  0  2  0  0  0  0  0  0
  161.5870  207.9110  153.1340 C   0  0  0  0  0  2  0  0  0  0  0  0
  161.9980  207.6880  151.6730 C   0  0  1  0  0  3  0  0  0  0  0  0
  160.1150  212.1180  152.4610 C   0  0  1  0  0  3  0  0  0  0  0  0
  162.4710  210.0720  148.7020 C   0  0  0  0  0  2  0  0  0  0  0  0
  161.0350  204.0340  151.9230 C   0  0  0  0  0  0  0  0  0  0  0  0
  160.2980  202.8890  148.7060 F   0  0  0  0  0  0  0  0  0  0  0  0
  160.5910  203.1810  152.8800 F   0  0  0  0  0  0  0  0  0  0  0  0
  160.7660  205.1240  149.0920 C   0  0  0  0  0  3  0  0  0  0  0  0
  161.4590  206.3790  151.1720 C   0  0  0  0  0  0  0  0  0  0  0  0
  161.6310  203.4520  150.6850 C   0  0  0  0  0  2  0  0  0  0  0  0
  161.3010  206.2780  149.8430 C   0  0  0  0  0  3  0  0  0  0  0  0
  160.9960  205.3520  152.1500 C   0  0  0  0  0  0  0  0  0  0  0  0
  160.5510  205.7740  153.3600 F   0  0  0  0  0  0  0  0  0  0  0  0
  160.8490  203.8530  149.4810 C   0  0  0  0  0  0  0  0  0  0  0  0
  159.0700  211.1470  156.9750 C   0  0  0  0  0  1  0  0  0  0  0  0
  161.2160  211.4620  155.9860 O   0  0  0  0  0  0  0  0  0  0  0  0
  162.1400  210.7370  155.3600 O   0  0  0  0  0  0  0  0  0  0  0  0
  161.5400  209.5110  155.0160 C   0  0  1  0  0  3  0  0  0  0  0  0
  160.4430  210.5600  156.7250 C   0  0  2  0  0  3  0  0  0  0  0  0
  160.3220  209.3450  155.8770 C   0  0  0  0  0  2  0  0  0  0  0  0
  159.4320  213.4720  152.5160 C   0  0  0  0  0  2  0  0  0  0  0  0
  158.6160  213.5990  153.7870 C   0  0  0  0  0  1  0  0  0  0  0  0
  1  3  1  6  0  0  0
  1  4  1  0  0  0  0
  1 12  1  0  0  0  0
  2  6  1  0  0  0  0
  4  2  1  1  0  0  0
  5  8  1  0  0  0  0
  5  6  1  0  0  0  0
  6 11  1  6  0  0  0
  6 28  1  0  0  0  0
  7 10  1  6  0  0  0
  7  9  1  0  0  0  0
  7  4  1  0  0  0  0
  9 13  1  0  0  0  0
 12 19  1  6  0  0  0
 12 11  1  0  0  0  0
 13 31  1  6  0  0  0
 13  8  1  0  0  0  0
 14 10  1  0  0  0  0
 14  3  1  0  0  0  0
 15 22  2  0  0  0  0
 15 17  1  0  0  0  0
 16 24  1  0  0  0  0
 18 24  2  0  0  0  0
 18 21  1  0  0  0  0
 19 22  1  0  0  0  0
 20 15  1  0  0  0  0
 21 19  2  0  0  0  0
 22 23  1  0  0  0  0
 24 20  1  0  0  0  0
 26 29  1  0  0  0  0
 27 26  1  0  0  0  0
 28 27  1  0  0  0  0
 28 30  1  1  0  0  0
 29 25  1  6  0  0  0
 30 29  1  0  0  0  0
 31 32  1  0  0  0  0
M  END
>  <MODEL>
1

>  <REMARK>
 VINA RESULT:      -7.6      0.000      0.000
  Name = 
  3 active torsions:
  status: ('A' for Active; 'I' for Inactive)
    1  A    between atoms: C_10  and  C_28
    2  A    between atoms: C_13  and  C_29
    3  A    between atoms: C_16  and  C_27
                            x       y       z     vdW  Elec       q    Type
                         _______ _______ _______ _____ _____    ______ ____

>  <TORSDO>
F 3

$$$$
=
 OpenBabel11062408303D

 32 36  0  0  1  0  0  0  0  0999 V2000
  161.7170  209.3980  149.9060 C   0  0  2  0  0  3  0  0  0  0  0  0
  162.3660  209.9720  152.2840 O   0  0  0  0  0  0  0  0  0  0  0  0
  162.0770  209.8630  148.4840 C   0  0  0  0  0  2  0  0  0  0  0  0
  162.2250  210.4100  150.9350 C   0  0  2  0  0  3  0  0  0  0  0  0
  160.0730  209.1010  152.4820 C   0  0  0  0  0  2  0  0  0  0  0  0
  161.5910  208.8230  152.6080 C   0  0  1  0  0  0  0  0  0  0  0  0
  161.5010  211.7630  150.7850 C   0  0  2  0  0  3  0  0  0  0  0  0
  159.5630  210.3320  153.2410 C   0  0  0  0  0  2  0  0  0  0  0  0
  160.1340  211.7050  151.2990 N   0  0  0  0  0  2  0  0  0  0  0  0
  161.4330  212.1910  149.3050 C   0  0  0  0  0  2  0  0  0  0  0  0
  161.9580  207.6350  151.6940 C   0  0  0  0  0  2  0  0  0  0  0  0
  162.2640  208.0160  150.2400 C   0  0  1  0  0  3  0  0  0  0  0  0
  160.1820  211.6400  152.7540 C   0  0  1  0  0  3  0  0  0  0  0  0
  162.3530  211.3750  148.3860 C   0  0  0  0  0  2  0  0  0  0  0  0
  161.0040  204.5710  149.2950 C   0  0  0  0  0  0  0  0  0  0  0  0
  160.9860  204.3480  145.8080 F   0  0  0  0  0  0  0  0  0  0  0  0
  160.2800  203.5800  149.8710 F   0  0  0  0  0  0  0  0  0  0  0  0
  161.5090  206.3400  146.8670 C   0  0  0  0  0  3  0  0  0  0  0  0
  161.7680  206.9510  149.3040 C   0  0  0  0  0  0  0  0  0  0  0  0
  161.8370  204.2320  148.1040 C   0  0  0  0  0  2  0  0  0  0  0  0
  161.9290  207.1960  147.9940 C   0  0  0  0  0  3  0  0  0  0  0  0
  161.0080  205.7890  149.8500 C   0  0  0  0  0  0  0  0  0  0  0  0
  160.3140  205.9610  151.0040 F   0  0  0  0  0  0  0  0  0  0  0  0
  161.4020  205.0130  146.9120 C   0  0  0  0  0  0  0  0  0  0  0  0
  159.3470  207.2220  156.1420 C   0  0  0  0  0  1  0  0  0  0  0  0
  160.7300  209.1180  155.7220 O   0  0  0  0  0  0  0  0  0  0  0  0
  161.7910  209.4320  154.9810 O   0  0  0  0  0  0  0  0  0  0  0  0
  161.9620  208.3960  154.0440 C   0  0  1  0  0  3  0  0  0  0  0  0
  160.7470  207.7260  155.8610 C   0  0  2  0  0  3  0  0  0  0  0  0
  161.2160  207.1970  154.5530 C   0  0  0  0  0  2  0  0  0  0  0  0
  159.4240  212.8080  153.3570 C   0  0  0  0  0  2  0  0  0  0  0  0
  158.2950  213.2340  152.4390 C   0  0  0  0  0  1  0  0  0  0  0  0
  1  3  1  6  0  0  0
  1 12  1  0  0  0  0
  1  4  1  0  0  0  0
  2  6  1  0  0  0  0
  4  2  1  1  0  0  0
  5  6  1  0  0  0  0
  5  8  1  0  0  0  0
  6 11  1  6  0  0  0
  6 28  1  0  0  0  0
  7 10  1  6  0  0  0
  7  4  1  0  0  0  0
  7  9  1  0  0  0  0
  9 13  1  0  0  0  0
 12 19  1  6  0  0  0
 12 11  1  0  0  0  0
 13  8  1  0  0  0  0
 13 31  1  1  0  0  0
 14  3  1  0  0  0  0
 14 10  1  0  0  0  0
 15 22  2  0  0  0  0
 15 17  1  0  0  0  0
 16 24  1  0  0  0  0
 18 24  2  0  0  0  0
 18 21  1  0  0  0  0
 19 22  1  0  0  0  0
 20 15  1  0  0  0  0
 21 19  2  0  0  0  0
 22 23  1  0  0  0  0
 24 20  1  0  0  0  0
 26 29  1  0  0  0  0
 27 26  1  0  0  0  0
 28 30  1  1  0  0  0
 28 27  1  0  0  0  0
 29 25  1  6  0  0  0
 30 29  1  0  0  0  0
 32 31  1  0  0  0  0
M  END
>  <MODEL>
2

>  <REMARK>
 VINA RESULT:      -7.3      1.613      2.013
  Name = 
  3 active torsions:
  status: ('A' for Active; 'I' for Inactive)
    1  A    between atoms: C_10  and  C_28
    2  A    between atoms: C_13  and  C_29
    3  A    between atoms: C_16  and  C_27
                            x       y       z     vdW  Elec       q    Type
                         _______ _______ _______ _____ _____    ______ ____

>  <TORSDO>
F 3

$$$$
=
 OpenBabel11062408303D

 32 36  0  0  1  0  0  0  0  0999 V2000
  160.2600  210.0850  154.8100 C   0  0  2  0  0  3  0  0  0  0  0  0
  162.2650  209.2480  153.5140 O   0  0  0  0  0  0  0  0  0  0  0  0
  159.8680  210.3090  156.2810 C   0  0  0  0  0  2  0  0  0  0  0  0
  161.5180  209.2180  154.7270 C   0  0  2  0  0  3  0  0  0  0  0  0
  160.3520  208.7330  152.0550 C   0  0  0  0  0  2  0  0  0  0  0  0
  161.5240  209.6910  152.3830 C   0  0  1  0  0  0  0  0  0  0  0  0
  161.2510  207.8000  155.2690 C   0  0  2  0  0  3  0  0  0  0  0  0
  160.7300  207.2540  151.9120 C   0  0  0  0  0  2  0  0  0  0  0  0
  160.4630  207.0030  154.3300 N   0  0  0  0  0  2  0  0  0  0  0  0
  160.4830  207.8550  156.6040 C   0  0  0  0  0  2  0  0  0  0  0  0
  160.9600  211.1090  152.6140 C   0  0  0  0  0  2  0  0  0  0  0  0
  160.4850  211.3830  154.0460 C   0  0  1  0  0  3  0  0  0  0  0  0
  161.3020  206.6510  153.1920 C   0  0  1  0  0  3  0  0  0  0  0  0
  160.4500  209.2530  157.2380 C   0  0  0  0  0  2  0  0  0  0  0  0
  157.8210  213.6010  155.5730 C   0  0  0  0  0  0  0  0  0  0  0  0
  155.3970  214.2140  153.1320 F   0  0  0  0  0  0  0  0  0  0  0  0
  157.7120  214.4530  156.6220 F   0  0  0  0  0  0  0  0  0  0  0  0
  157.3310  213.0480  152.6170 C   0  0  0  0  0  3  0  0  0  0  0  0
  159.2730  212.2700  154.0340 C   0  0  0  0  0  0  0  0  0  0  0  0
  156.5650  213.0750  154.9620 C   0  0  0  0  0  2  0  0  0  0  0  0
  158.5440  212.2570  152.9070 C   0  0  0  0  0  3  0  0  0  0  0  0
  159.0350  213.2050  155.1720 C   0  0  0  0  0  0  0  0  0  0  0  0
  160.1090  213.6450  155.8760 F   0  0  0  0  0  0  0  0  0  0  0  0
  156.4620  213.4780  153.5310 C   0  0  0  0  0  0  0  0  0  0  0  0
  161.2830  211.2440  148.1860 C   0  0  0  0  0  1  0  0  0  0  0  0
  161.8300  209.1560  149.1980 O   0  0  0  0  0  0  0  0  0  0  0  0
  162.4100  208.7110  150.3100 O   0  0  0  0  0  0  0  0  0  0  0  0
  162.5030  209.8020  151.1940 C   0  0  1  0  0  3  0  0  0  0  0  0
  162.2810  210.4680  149.0190 C   0  0  2  0  0  3  0  0  0  0  0  0
  162.3600  211.0560  150.3820 C   0  0  0  0  0  2  0  0  0  0  0  0
  161.3820  205.1430  153.0440 C   0  0  0  0  0  2  0  0  0  0  0  0
  161.2070  204.7460  151.5920 C   0  0  0  0  0  1  0  0  0  0  0  0
  1  3  1  1  0  0  0
  3 14  1  0  0  0  0
  4  2  1  6  0  0  0
  4  1  1  0  0  0  0
  4  7  1  0  0  0  0
  6  5  1  6  0  0  0
  6 11  1  0  0  0  0
  6  2  1  0  0  0  0
  7 10  1  1  0  0  0
  8  5  1  0  0  0  0
  8 13  1  0  0  0  0
  9  7  1  0  0  0  0
 10 14  1  0  0  0  0
 11 12  1  0  0  0  0
 12 19  1  6  0  0  0
 12  1  1  0  0  0  0
 13 31  1  6  0  0  0
 13  9  1  0  0  0  0
 15 17  1  0  0  0  0
 16 24  1  0  0  0  0
 18 21  1  0  0  0  0
 18 24  2  0  0  0  0
 19 22  1  0  0  0  0
 20 15  1  0  0  0  0
 21 19  2  0  0  0  0
 22 15  2  0  0  0  0
 22 23  1  0  0  0  0
 24 20  1  0  0  0  0
 26 27  1  0  0  0  0
 27 28  1  0  0  0  0
 28 30  1  6  0  0  0
 28  6  1  0  0  0  0
 29 25  1  6  0  0  0
 29 26  1  0  0  0  0
 29 30  1  0  0  0  0
 32 31  1  0  0  0  0
M  END
>  <MODEL>
3

>  <REMARK>
 VINA RESULT:      -7.2      3.774      7.627
  Name = 
  3 active torsions:
  status: ('A' for Active; 'I' for Inactive)
    1  A    between atoms: C_10  and  C_28
    2  A    between atoms: C_13  and  C_29
    3  A    between atoms: C_16  and  C_27
                            x       y       z     vdW  Elec       q    Type
                         _______ _______ _______ _____ _____    ______ ____

>  <TORSDO>
F 3

$$$$
=
 OpenBabel11062408303D

 32 36  0  0  1  0  0  0  0  0999 V2000
  161.5760  209.8850  150.2850 C   0  0  2  0  0  3  0  0  0  0  0  0
  161.9250  210.9430  152.5560 O   0  0  0  0  0  0  0  0  0  0  0  0
  162.0170  210.1360  148.8320 C   0  0  0  0  0  2  0  0  0  0  0  0
  161.8670  211.1180  151.1430 C   0  0  2  0  0  3  0  0  0  0  0  0
  159.7340  209.8380  152.7410 C   0  0  0  0  0  2  0  0  0  0  0  0
  161.2540  209.7810  153.0280 C   0  0  1  0  0  0  0  0  0  0  0  0
  161.0160  212.3220  150.6910 C   0  0  2  0  0  3  0  0  0  0  0  0
  159.0210  211.1090  153.2180 C   0  0  0  0  0  2  0  0  0  0  0  0
  159.6200  212.1820  151.1040 N   0  0  0  0  0  2  0  0  0  0  0  0
  161.0430  212.4710  149.1570 C   0  0  0  0  0  2  0  0  0  0  0  0
  161.8360  208.5060  152.3810 C   0  0  0  0  0  2  0  0  0  0  0  0
  162.2370  208.6630  150.9080 C   0  0  1  0  0  3  0  0  0  0  0  0
  159.5350  212.3790  152.5460 C   0  0  1  0  0  3  0  0  0  0  0  0
  162.1320  211.6300  148.4760 C   0  0  0  0  0  2  0  0  0  0  0  0
  161.7910  206.5220  147.8160 C   0  0  0  0  0  0  0  0  0  0  0  0
  160.4440  203.4560  148.8120 F   0  0  0  0  0  0  0  0  0  0  0  0
  162.2860  206.4730  146.5560 F   0  0  0  0  0  0  0  0  0  0  0  0
  161.0690  205.0420  150.3790 C   0  0  0  0  0  3  0  0  0  0  0  0
  161.9540  207.3970  150.1520 C   0  0  0  0  0  0  0  0  0  0  0  0
  160.5150  205.8000  148.0980 C   0  0  0  0  0  2  0  0  0  0  0  0
  161.4160  206.3930  150.8620 C   0  0  0  0  0  3  0  0  0  0  0  0
  162.4110  207.2680  148.7370 C   0  0  0  0  0  0  0  0  0  0  0  0
  163.4950  207.9860  148.3460 F   0  0  0  0  0  0  0  0  0  0  0  0
  160.7210  204.7430  149.1290 C   0  0  0  0  0  0  0  0  0  0  0  0
  159.0980  210.9780  156.7710 C   0  0  0  0  0  1  0  0  0  0  0  0
  161.2370  211.4310  155.8220 O   0  0  0  0  0  0  0  0  0  0  0  0
  162.1470  210.8090  155.0750 O   0  0  0  0  0  0  0  0  0  0  0  0
  161.5310  209.6610  154.5430 C   0  0  1  0  0  3  0  0  0  0  0  0
  160.4620  210.4280  156.4130 C   0  0  2  0  0  3  0  0  0  0  0  0
  160.3190  209.3690  155.3790 C   0  0  0  0  0  2  0  0  0  0  0  0
  158.5980  213.5300  152.8630 C   0  0  0  0  0  2  0  0  0  0  0  0
  157.4300  213.0430  153.6980 C   0  0  0  0  0  1  0  0  0  0  0  0
  1  3  1  6  0  0  0
  1 12  1  0  0  0  0
  1  4  1  0  0  0  0
  2  6  1  0  0  0  0
  4  2  1  1  0  0  0
  5  6  1  0  0  0  0
  5  8  1  0  0  0  0
  6 11  1  6  0  0  0
  6 28  1  0  0  0  0
  7 10  1  6  0  0  0
  7  9  1  0  0  0  0
  7  4  1  0  0  0  0
  9 13  1  0  0  0  0
 12 19  1  6  0  0  0
 12 11  1  0  0  0  0
 13 31  1  6  0  0  0
 13  8  1  0  0  0  0
 14  3  1  0  0  0  0
 14 10  1  0  0  0  0
 15 20  1  0  0  0  0
 15 22  2  0  0  0  0
 16 24  1  0  0  0  0
 17 15  1  0  0  0  0
 18 21  1  0  0  0  0
 19 21  2  0  0  0  0
 20 24  1  0  0  0  0
 22 19  1  0  0  0  0
 23 22  1  0  0  0  0
 24 18  2  0  0  0  0
 26 29  1  0  0  0  0
 27 26  1  0  0  0  0
 28 27  1  0  0  0  0
 28 30  1  1  0  0  0
 29 25  1  6  0  0  0
 30 29  1  0  0  0  0
 31 32  1  0  0  0  0
M  END
>  <MODEL>
4

>  <REMARK>
 VINA RESULT:      -7.1      1.614      2.316
  Name = 
  3 active torsions:
  status: ('A' for Active; 'I' for Inactive)
    1  A    between atoms: C_10  and  C_28
    2  A    between atoms: C_13  and  C_29
    3  A    between atoms: C_16  and  C_27
                            x       y       z     vdW  Elec       q    Type
                         _______ _______ _______ _____ _____    ______ ____

>  <TORSDO>
F 3

$$$$
=
 OpenBabel11062408303D

 32 36  0  0  1  0  0  0  0  0999 V2000
  161.0810  208.3090  152.6730 C   0  0  2  0  0  3  0  0  0  0  0  0
  162.6110  207.1060  151.0550 O   0  0  0  0  0  0  0  0  0  0  0  0
  161.0280  208.6080  154.1810 C   0  0  0  0  0  2  0  0  0  0  0  0
  162.1200  207.2220  152.3880 C   0  0  2  0  0  3  0  0  0  0  0  0
  160.3910  206.9550  150.0050 C   0  0  0  0  0  2  0  0  0  0  0  0
  161.7590  207.6760  150.0680 C   0  0  1  0  0  0  0  0  0  0  0  0
  161.7060  205.8810  153.0260 C   0  0  2  0  0  3  0  0  0  0  0  0
  160.4560  205.4300  149.8520 C   0  0  0  0  0  2  0  0  0  0  0  0
  160.6190  205.2420  152.2860 N   0  0  0  0  0  2  0  0  0  0  0  0
  161.2340  206.0830  154.4790 C   0  0  0  0  0  2  0  0  0  0  0  0
  161.5190  209.1760  150.3450 C   0  0  0  0  0  2  0  0  0  0  0  0
  161.3880  209.5400  151.8290 C   0  0  1  0  0  3  0  0  0  0  0  0
  161.1450  204.7350  151.0240 C   0  0  1  0  0  3  0  0  0  0  0  0
  161.5810  207.4650  155.0520 C   0  0  0  0  0  2  0  0  0  0  0  0
  160.0870  213.0920  151.6360 C   0  0  0  0  0  0  0  0  0  0  0  0
  157.1040  213.2480  153.4470 F   0  0  0  0  0  0  0  0  0  0  0  0
  160.2530  214.1740  150.8360 F   0  0  0  0  0  0  0  0  0  0  0  0
  158.1880  211.2280  153.1200 C   0  0  0  0  0  3  0  0  0  0  0  0
  160.3800  210.6380  152.0110 C   0  0  0  0  0  0  0  0  0  0  0  0
  159.5130  213.3050  152.9970 C   0  0  0  0  0  2  0  0  0  0  0  0
  159.3310  210.3500  152.7970 C   0  0  0  0  0  3  0  0  0  0  0  0
  160.5090  211.8930  151.2150 C   0  0  0  0  0  0  0  0  0  0  0  0
  161.1320  211.8280  150.0110 F   0  0  0  0  0  0  0  0  0  0  0  0
  158.2330  212.5590  153.1550 C   0  0  0  0  0  0  0  0  0  0  0  0
  160.8310  205.9660  146.0300 C   0  0  0  0  0  1  0  0  0  0  0  0
  162.5580  205.6710  147.6460 O   0  0  0  0  0  0  0  0  0  0  0  0
  163.2110  206.3980  148.5510 O   0  0  0  0  0  0  0  0  0  0  0  0
  162.4930  207.5980  148.7120 C   0  0  1  0  0  3  0  0  0  0  0  0
  162.0330  206.5770  146.7190 C   0  0  2  0  0  3  0  0  0  0  0  0
  161.6080  207.7610  147.5110 C   0  0  0  0  0  2  0  0  0  0  0  0
  160.9160  203.2380  150.9240 C   0  0  0  0  0  2  0  0  0  0  0  0
  160.8310  202.8140  149.4710 C   0  0  0  0  0  1  0  0  0  0  0  0
  1  3  1  1  0  0  0
  3 14  1  0  0  0  0
  4  2  1  6  0  0  0
  4  1  1  0  0  0  0
  4  7  1  0  0  0  0
  6  5  1  6  0  0  0
  6 11  1  0  0  0  0
  6  2  1  0  0  0  0
  7 10  1  1  0  0  0
  8  5  1  0  0  0  0
  8 13  1  0  0  0  0
  9  7  1  0  0  0  0
 10 14  1  0  0  0  0
 11 12  1  0  0  0  0
 12 19  1  6  0  0  0
 12  1  1  0  0  0  0
 13 31  1  6  0  0  0
 13  9  1  0  0  0  0
 15 20  1  0  0  0  0
 17 15  1  0  0  0  0
 18 24  2  0  0  0  0
 19 21  2  0  0  0  0
 20 24  1  0  0  0  0
 21 18  1  0  0  0  0
 22 15  2  0  0  0  0
 22 19  1  0  0  0  0
 23 22  1  0  0  0  0
 24 16  1  0  0  0  0
 26 27  1  0  0  0  0
 27 28  1  0  0  0  0
 28 30  1  6  0  0  0
 28  6  1  0  0  0  0
 29 25  1  1  0  0  0
 29 30  1  0  0  0  0
 29 26  1  0  0  0  0
 32 31  1  0  0  0  0
M  END
>  <MODEL>
5

>  <REMARK>
 VINA RESULT:      -6.8      3.580      7.790
  Name = 
  3 active torsions:
  status: ('A' for Active; 'I' for Inactive)
    1  A    between atoms: C_10  and  C_28
    2  A    between atoms: C_13  and  C_29
    3  A    between atoms: C_16  and  C_27
                            x       y       z     vdW  Elec       q    Type
                         _______ _______ _______ _____ _____    ______ ____

>  <TORSDO>
F 3

$$$$
=
 OpenBabel11062408303D

 32 36  0  0  1  0  0  0  0  0999 V2000
  161.2060  208.1000  152.9610 C   0  0  2  0  0  3  0  0  0  0  0  0
  162.6000  206.9870  151.1660 O   0  0  0  0  0  0  0  0  0  0  0  0
  161.1890  208.1890  154.4970 C   0  0  0  0  0  2  0  0  0  0  0  0
  162.1280  206.9650  152.5100 C   0  0  2  0  0  3  0  0  0  0  0  0
  160.3730  207.2080  150.1440 C   0  0  0  0  0  2  0  0  0  0  0  0
  161.8080  207.7730  150.2820 C   0  0  1  0  0  0  0  0  0  0  0  0
  161.5820  205.5960  152.9630 C   0  0  2  0  0  3  0  0  0  0  0  0
  160.2820  205.7210  149.7800 C   0  0  0  0  0  2  0  0  0  0  0  0
  160.4330  205.1790  152.1600 N   0  0  0  0  0  2  0  0  0  0  0  0
  161.1380  205.6400  154.4380 C   0  0  0  0  0  2  0  0  0  0  0  0
  161.7230  209.2350  150.7680 C   0  0  0  0  0  2  0  0  0  0  0  0
  161.6350  209.3990  152.2900 C   0  0  1  0  0  3  0  0  0  0  0  0
  160.9000  204.8040  150.8310 C   0  0  1  0  0  3  0  0  0  0  0  0
  161.6250  206.8860  155.1910 C   0  0  0  0  0  2  0  0  0  0  0  0
  159.8060  211.7600  154.6200 C   0  0  0  0  0  0  0  0  0  0  0  0
  157.6050  213.6790  152.7030 F   0  0  0  0  0  0  0  0  0  0  0  0
  159.9900  212.2830  155.8580 F   0  0  0  0  0  0  0  0  0  0  0  0
  159.0830  212.2090  151.6950 C   0  0  0  0  0  3  0  0  0  0  0  0
  160.7450  210.5570  152.6410 C   0  0  0  0  0  0  0  0  0  0  0  0
  158.4330  211.7970  154.0390 C   0  0  0  0  0  2  0  0  0  0  0  0
  160.0110  211.0620  151.6360 C   0  0  0  0  0  3  0  0  0  0  0  0
  160.8330  211.1670  154.0000 C   0  0  0  0  0  0  0  0  0  0  0  0
  162.0110  211.0760  154.6680 F   0  0  0  0  0  0  0  0  0  0  0  0
  158.4110  212.5940  152.7790 C   0  0  0  0  0  0  0  0  0  0  0  0
  160.9380  206.2030  146.1750 C   0  0  0  0  0  1  0  0  0  0  0  0
  162.7050  205.9470  147.7550 O   0  0  0  0  0  0  0  0  0  0  0  0
  163.3200  206.6720  148.6870 O   0  0  0  0  0  0  0  0  0  0  0  0
  162.5260  207.8110  148.9160 C   0  0  1  0  0  3  0  0  0  0  0  0
  162.1060  206.8600  146.8800 C   0  0  2  0  0  3  0  0  0  0  0  0
  161.6140  207.9730  147.7340 C   0  0  0  0  0  2  0  0  0  0  0  0
  160.5190  203.3660  150.5290 C   0  0  0  0  0  2  0  0  0  0  0  0
  160.8320  203.0310  149.0840 C   0  0  0  0  0  1  0  0  0  0  0  0
  1  3  1  1  0  0  0
  3 14  1  0  0  0  0
  4  2  1  6  0  0  0
  4  1  1  0  0  0  0
  4  7  1  0  0  0  0
  6  5  1  6  0  0  0
  6 11  1  0  0  0  0
  6  2  1  0  0  0  0
  7 10  1  1  0  0  0
  8  5  1  0  0  0  0
  8 13  1  0  0  0  0
  9  7  1  0  0  0  0
 10 14  1  0  0  0  0
 11 12  1  0  0  0  0
 12 19  1  6  0  0  0
 12  1  1  0  0  0  0
 13 31  1  6  0  0  0
 13  9  1  0  0  0  0
 15 17  1  0  0  0  0
 16 24  1  0  0  0  0
 18 24  2  0  0  0  0
 19 22  1  0  0  0  0
 20 15  1  0  0  0  0
 21 18  1  0  0  0  0
 21 19  2  0  0  0  0
 22 15  2  0  0  0  0
 22 23  1  0  0  0  0
 24 20  1  0  0  0  0
 26 27  1  0  0  0  0
 27 28  1  0  0  0  0
 28 30  1  6  0  0  0
 28  6  1  0  0  0  0
 29 25  1  1  0  0  0
 29 30  1  0  0  0  0
 29 26  1  0  0  0  0
 32 31  1  0  0  0  0
M  END
>  <MODEL>
6

>  <REMARK>
 VINA RESULT:      -6.6      3.525      7.563
  Name = 
  3 active torsions:
  status: ('A' for Active; 'I' for Inactive)
    1  A    between atoms: C_10  and  C_28
    2  A    between atoms: C_13  and  C_29
    3  A    between atoms: C_16  and  C_27
                            x       y       z     vdW  Elec       q    Type
                         _______ _______ _______ _____ _____    ______ ____

>  <TORSDO>
F 3

$$$$
=
 OpenBabel11062408303D

 32 36  0  0  1  0  0  0  0  0999 V2000
  161.0640  207.9490  152.9180 C   0  0  2  0  0  3  0  0  0  0  0  0
  162.6750  207.8860  150.9670 O   0  0  0  0  0  0  0  0  0  0  0  0
  160.9810  207.3790  154.3450 C   0  0  0  0  0  2  0  0  0  0  0  0
  162.1670  207.2380  152.1310 C   0  0  2  0  0  3  0  0  0  0  0  0
  160.4760  208.2270  149.9170 C   0  0  0  0  0  2  0  0  0  0  0  0
  161.7990  208.8610  150.4130 C   0  0  1  0  0  0  0  0  0  0  0  0
  161.8290  205.7480  151.9250 C   0  0  2  0  0  3  0  0  0  0  0  0
  160.6340  207.0340  148.9670 C   0  0  0  0  0  2  0  0  0  0  0  0
  160.7880  205.5640  150.9160 N   0  0  0  0  0  2  0  0  0  0  0  0
  161.3340  205.1090  153.2380 C   0  0  0  0  0  2  0  0  0  0  0  0
  161.4690  209.9580  151.4470 C   0  0  0  0  0  2  0  0  0  0  0  0
  161.3050  209.4530  152.8860 C   0  0  1  0  0  3  0  0  0  0  0  0
  161.3530  205.8470  149.6020 C   0  0  1  0  0  3  0  0  0  0  0  0
  161.5940  205.9730  154.4800 C   0  0  0  0  0  2  0  0  0  0  0  0
  159.2410  210.5520  155.8660 C   0  0  0  0  0  0  0  0  0  0  0  0
  156.5420  212.4250  154.6780 F   0  0  0  0  0  0  0  0  0  0  0  0
  159.4200  210.7100  157.2010 F   0  0  0  0  0  0  0  0  0  0  0  0
  158.1960  211.6820  153.2370 C   0  0  0  0  0  3  0  0  0  0  0  0
  160.2320  210.2300  153.5940 C   0  0  0  0  0  0  0  0  0  0  0  0
  157.8440  210.4600  155.3500 C   0  0  0  0  0  2  0  0  0  0  0  0
  159.3280  210.8370  152.8090 C   0  0  0  0  0  3  0  0  0  0  0  0
  160.3100  210.4110  155.0730 C   0  0  0  0  0  0  0  0  0  0  0  0
  161.5340  210.3840  155.6580 F   0  0  0  0  0  0  0  0  0  0  0  0
  157.5550  211.5700  154.4000 C   0  0  0  0  0  0  0  0  0  0  0  0
  161.6920  212.9390  148.5570 C   0  0  0  0  0  1  0  0  0  0  0  0
  161.3850  210.7070  147.7780 O   0  0  0  0  0  0  0  0  0  0  0  0
  161.8550  209.4880  148.0370 O   0  0  0  0  0  0  0  0  0  0  0  0
  162.5470  209.5640  149.2600 C   0  0  1  0  0  3  0  0  0  0  0  0
  162.3450  211.6060  148.2540 C   0  0  2  0  0  3  0  0  0  0  0  0
  162.8680  211.0080  149.5110 C   0  0  0  0  0  2  0  0  0  0  0  0
  161.2140  204.6350  148.6990 C   0  0  0  0  0  2  0  0  0  0  0  0
  160.8870  203.4030  149.5190 C   0  0  0  0  0  1  0  0  0  0  0  0
  1  3  1  1  0  0  0
  3 14  1  0  0  0  0
  4  2  1  6  0  0  0
  4  1  1  0  0  0  0
  6  5  1  6  0  0  0
  6  2  1  0  0  0  0
  6 11  1  0  0  0  0
  7  4  1  0  0  0  0
  7 10  1  1  0  0  0
  8 13  1  0  0  0  0
  8  5  1  0  0  0  0
  9  7  1  0  0  0  0
 10 14  1  0  0  0  0
 11 12  1  0  0  0  0
 12  1  1  0  0  0  0
 12 19  1  6  0  0  0
 13 31  1  6  0  0  0
 13  9  1  0  0  0  0
 15 17  1  0  0  0  0
 18 24  2  0  0  0  0
 19 22  1  0  0  0  0
 20 15  1  0  0  0  0
 21 18  1  0  0  0  0
 21 19  2  0  0  0  0
 22 23  1  0  0  0  0
 22 15  2  0  0  0  0
 24 16  1  0  0  0  0
 24 20  1  0  0  0  0
 26 27  1  0  0  0  0
 26 29  1  0  0  0  0
 27 28  1  0  0  0  0
 28 30  1  1  0  0  0
 28  6  1  0  0  0  0
 29 25  1  1  0  0  0
 29 30  1  0  0  0  0
 31 32  1  0  0  0  0
M  END
>  <MODEL>
7

>  <REMARK>
 VINA RESULT:      -6.6      3.282      7.028
  Name = 
  3 active torsions:
  status: ('A' for Active; 'I' for Inactive)
    1  A    between atoms: C_10  and  C_28
    2  A    between atoms: C_13  and  C_29
    3  A    between atoms: C_16  and  C_27
                            x       y       z     vdW  Elec       q    Type
                         _______ _______ _______ _____ _____    ______ ____

>  <TORSDO>
F 3

$$$$
=
 OpenBabel11062408303D

 32 36  0  0  1  0  0  0  0  0999 V2000
  160.0130  209.7320  154.3800 C   0  0  2  0  0  3  0  0  0  0  0  0
  162.1640  209.1550  153.1780 O   0  0  0  0  0  0  0  0  0  0  0  0
  159.5320  209.9100  155.8310 C   0  0  0  0  0  2  0  0  0  0  0  0
  161.3750  209.0350  154.3590 C   0  0  2  0  0  3  0  0  0  0  0  0
  160.3980  208.3930  151.6440 C   0  0  0  0  0  2  0  0  0  0  0  0
  161.4210  209.4940  152.0130 C   0  0  1  0  0  0  0  0  0  0  0  0
  161.2690  207.5960  154.9020 C   0  0  2  0  0  3  0  0  0  0  0  0
  160.9690  206.9740  151.5320 C   0  0  0  0  0  2  0  0  0  0  0  0
  160.6310  206.7000  153.9390 N   0  0  0  0  0  2  0  0  0  0  0  0
  160.4440  207.5570  156.2030 C   0  0  0  0  0  2  0  0  0  0  0  0
  160.6700  210.8290  152.2050 C   0  0  0  0  0  2  0  0  0  0  0  0
  160.1020  211.0460  153.6130 C   0  0  1  0  0  3  0  0  0  0  0  0
  161.5580  206.4550  152.8400 C   0  0  1  0  0  3  0  0  0  0  0  0
  160.2040  208.9420  156.8210 C   0  0  0  0  0  2  0  0  0  0  0  0
  157.7000  213.7210  152.4220 C   0  0  0  0  0  0  0  0  0  0  0  0
  154.8330  213.5610  154.4130 F   0  0  0  0  0  0  0  0  0  0  0  0
  157.4980  214.4530  151.3000 F   0  0  0  0  0  0  0  0  0  0  0  0
  156.5250  211.9960  154.6410 C   0  0  0  0  0  3  0  0  0  0  0  0
  158.7880  211.7690  153.5420 C   0  0  0  0  0  0  0  0  0  0  0  0
  157.0870  214.2030  153.6950 C   0  0  0  0  0  2  0  0  0  0  0  0
  157.8930  211.4610  154.4940 C   0  0  0  0  0  3  0  0  0  0  0  0
  158.4940  212.6450  152.3700 C   0  0  0  0  0  0  0  0  0  0  0  0
  159.1030  212.3630  151.1900 F   0  0  0  0  0  0  0  0  0  0  0  0
  156.1260  213.2000  154.2350 C   0  0  0  0  0  0  0  0  0  0  0  0
  161.3070  211.5580  148.0350 C   0  0  0  0  0  1  0  0  0  0  0  0
  161.7850  209.3480  148.7920 O   0  0  0  0  0  0  0  0  0  0  0  0
  162.3300  208.7540  149.8510 O   0  0  0  0  0  0  0  0  0  0  0  0
  162.4280  209.7260  150.8650 C   0  0  1  0  0  3  0  0  0  0  0  0
  162.2690  210.6600  148.7840 C   0  0  2  0  0  3  0  0  0  0  0  0
  162.3320  211.0740  150.2110 C   0  0  0  0  0  2  0  0  0  0  0  0
  161.8370  204.9690  152.7110 C   0  0  0  0  0  2  0  0  0  0  0  0
  161.2050  204.4230  151.4460 C   0  0  0  0  0  1  0  0  0  0  0  0
  1  3  1  1  0  0  0
  3 14  1  0  0  0  0
  4  2  1  6  0  0  0
  4  1  1  0  0  0  0
  4  7  1  0  0  0  0
  6  5  1  6  0  0  0
  6 11  1  0  0  0  0
  6  2  1  0  0  0  0
  7 10  1  1  0  0  0
  8  5  1  0  0  0  0
  8 13  1  0  0  0  0
  9  7  1  0  0  0  0
 10 14  1  0  0  0  0
 11 12  1  0  0  0  0
 12 19  1  6  0  0  0
 12  1  1  0  0  0  0
 13 31  1  6  0  0  0
 13  9  1  0  0  0  0
 15 20  1  0  0  0  0
 17 15  1  0  0  0  0
 19 21  2  0  0  0  0
 20 24  1  0  0  0  0
 21 18  1  0  0  0  0
 22 15  2  0  0  0  0
 22 19  1  0  0  0  0
 23 22  1  0  0  0  0
 24 16  1  0  0  0  0
 24 18  2  0  0  0  0
 26 27  1  0  0  0  0
 27 28  1  0  0  0  0
 28 30  1  6  0  0  0
 28  6  1  0  0  0  0
 29 25  1  6  0  0  0
 29 26  1  0  0  0  0
 29 30  1  0  0  0  0
 32 31  1  0  0  0  0
M  END
>  <MODEL>
8

>  <REMARK>
 VINA RESULT:      -6.6      3.291      7.608
  Name = 
  3 active torsions:
  status: ('A' for Active; 'I' for Inactive)
    1  A    between atoms: C_10  and  C_28
    2  A    between atoms: C_13  and  C_29
    3  A    between atoms: C_16  and  C_27
                            x       y       z     vdW  Elec       q    Type
                         _______ _______ _______ _____ _____    ______ ____

>  <TORSDO>
F 3

$$$$
=
 OpenBabel11062408303D

 32 36  0  0  1  0  0  0  0  0999 V2000
  160.9450  207.6680  153.6160 C   0  0  2  0  0  3  0  0  0  0  0  0
  160.1220  209.9680  154.2750 O   0  0  0  0  0  0  0  0  0  0  0  0
  160.6660  206.2050  154.0030 C   0  0  0  0  0  2  0  0  0  0  0  0
  160.3380  208.6120  154.6560 C   0  0  2  0  0  3  0  0  0  0  0  0
  162.4220  210.3570  153.4950 C   0  0  0  0  0  2  0  0  0  0  0  0
  160.9090  210.3960  153.1700 C   0  0  1  0  0  0  0  0  0  0  0  0
  161.0270  208.4440  156.0250 C   0  0  2  0  0  3  0  0  0  0  0  0
  162.8410  211.0870  154.7770 C   0  0  0  0  0  2  0  0  0  0  0  0
  162.3580  209.0480  156.0380 N   0  0  0  0  0  2  0  0  0  0  0  0
  161.1800  206.9530  156.3860 C   0  0  0  0  0  2  0  0  0  0  0  0
  160.6420  209.5190  151.9290 C   0  0  0  0  0  2  0  0  0  0  0  0
  160.4210  208.0310  152.2320 C   0  0  1  0  0  3  0  0  0  0  0  0
  162.2150  210.4990  156.0380 C   0  0  1  0  0  3  0  0  0  0  0  0
  160.3500  206.0160  155.4970 C   0  0  0  0  0  2  0  0  0  0  0  0
  162.1270  207.3740  148.9150 C   0  0  0  0  0  0  0  0  0  0  0  0
  161.9550  203.9440  148.2740 F   0  0  0  0  0  0  0  0  0  0  0  0
  163.0280  207.9950  148.1150 F   0  0  0  0  0  0  0  0  0  0  0  0
  161.2040  204.8140  150.2840 C   0  0  0  0  0  3  0  0  0  0  0  0
  161.0120  207.1820  151.1430 C   0  0  0  0  0  0  0  0  0  0  0  0
  161.2800  206.3010  148.3170 C   0  0  0  0  0  2  0  0  0  0  0  0
  160.7320  205.8710  151.2010 C   0  0  0  0  0  3  0  0  0  0  0  0
  161.9740  207.7890  150.1780 C   0  0  0  0  0  0  0  0  0  0  0  0
  162.7050  208.8570  150.5870 F   0  0  0  0  0  0  0  0  0  0  0  0
  161.5140  204.9980  149.0010 C   0  0  0  0  0  0  0  0  0  0  0  0
  157.2740  212.9000  153.9520 C   0  0  0  0  0  1  0  0  0  0  0  0
  158.4200  212.1240  152.0100 O   0  0  0  0  0  0  0  0  0  0  0  0
  159.6680  211.8570  151.6310 O   0  0  0  0  0  0  0  0  0  0  0  0
  160.4570  211.8240  152.7960 C   0  0  1  0  0  3  0  0  0  0  0  0
  158.5200  213.0010  153.0960 C   0  0  2  0  0  3  0  0  0  0  0  0
  159.7010  212.5440  153.8750 C   0  0  0  0  0  2  0  0  0  0  0  0
  162.8930  211.0930  157.2590 C   0  0  0  0  0  2  0  0  0  0  0  0
  164.3310  211.4530  156.9390 C   0  0  0  0  0  1  0  0  0  0  0  0
  1  3  1  1  0  0  0
  1  4  1  0  0  0  0
  3 14  1  0  0  0  0
  4  2  1  6  0  0  0
  4  7  1  0  0  0  0
  5  8  1  0  0  0  0
  6 11  1  6  0  0  0
  6  5  1  0  0  0  0
  6  2  1  0  0  0  0
  7  9  1  0  0  0  0
  7 10  1  6  0  0  0
  8 13  1  0  0  0  0
 11 12  1  0  0  0  0
 12 19  1  6  0  0  0
 12  1  1  0  0  0  0
 13  9  1  0  0  0  0
 13 31  1  1  0  0  0
 14 10  1  0  0  0  0
 15 22  2  0  0  0  0
 16 24  1  0  0  0  0
 17 15  1  0  0  0  0
 18 21  1  0  0  0  0
 19 21  2  0  0  0  0
 20 15  1  0  0  0  0
 20 24  1  0  0  0  0
 22 23  1  0  0  0  0
 22 19  1  0  0  0  0
 24 18  2  0  0  0  0
 26 29  1  0  0  0  0
 27 26  1  0  0  0  0
 27 28  1  0  0  0  0
 28  6  1  0  0  0  0
 28 30  1  1  0  0  0
 29 30  1  0  0  0  0
 29 25  1  1  0  0  0
 32 31  1  0  0  0  0
M  END
>  <MODEL>
9

>  <REMARK>
 VINA RESULT:      -6.0      2.549      4.512
  Name = 
  3 active torsions:
  status: ('A' for Active; 'I' for Inactive)
    1  A    between atoms: C_10  and  C_28
    2  A    between atoms: C_13  and  C_29
    3  A    between atoms: C_16  and  C_27
                            x       y       z     vdW  Elec       q    Type
                         _______ _______ _______ _____ _____    ______ ____

>  <TORSDO>
F 3

$$$$
