=
 OpenBabel11062407543D

 34 39  0  0  1  0  0  0  0  0999 V2000
  160.6480  212.5280  150.2980 C   0  0  0  0  0  0  0  0  0  0  0  0
  161.9320  210.4460  150.3930 C   0  0  0  0  0  0  0  0  0  0  0  0
  160.3960  211.2110  152.3410 C   0  0  0  0  0  0  0  0  0  0  0  0
  159.9000  210.0060  154.3840 C   0  0  0  0  0  0  0  0  0  0  0  0
  161.6190  211.4570  148.2600 C   0  0  0  0  0  3  0  0  0  0  0  0
  162.0030  210.4340  148.9630 N   0  0  0  0  0  0  0  0  0  0  0  0
  161.0420  208.8590  152.7600 N   0  0  0  0  0  0  0  0  0  0  0  0
  160.9840  211.3840  151.0510 C   0  0  0  0  0  0  0  0  0  0  0  0
  161.4920  206.6240  153.6540 N   0  0  0  0  0  2  0  0  0  0  0  0
  160.1050  208.5020  155.0980 S   0  0  0  0  0  0  0  0  0  0  0  0
  161.2060  212.7450  148.9180 C   0  0  0  0  0  2  0  0  0  0  0  0
  159.3820  213.3920  152.1200 N   0  0  0  0  0  0  0  0  0  0  0  0
  159.8630  213.5280  150.8620 C   0  0  0  0  0  3  0  0  0  0  0  0
  162.7340  209.7350  151.0510 O   0  0  0  0  0  0  0  0  0  0  0  0
  159.2200  211.0490  154.9030 N   0  0  0  0  0  0  0  0  0  0  0  0
  159.0560  212.1900  154.1700 C   0  0  0  0  0  0  0  0  0  0  0  0
  160.9280  207.9320  153.7410 C   0  0  0  0  0  0  0  0  0  0  0  0
  160.4790  210.0380  153.1280 C   0  0  0  0  0  0  0  0  0  0  0  0
  159.6130  212.2830  152.8720 C   0  0  0  0  0  0  0  0  0  0  0  0
  157.8350  213.0160  157.2550 N   0  0  0  0  0  0  0  0  0  0  0  0
  156.6100  212.6650  157.0050 C   0  0  0  0  0  3  0  0  0  0  0  0
  158.3120  213.3480  154.7750 C   0  0  2  0  0  3  0  0  0  0  0  0
  156.0480  212.7910  155.6490 C   0  0  0  0  0  3  0  0  0  0  0  0
  158.7040  213.4920  156.2220 C   0  0  0  0  0  0  0  0  0  0  0  0
  156.8240  213.1450  154.6230 C   0  0  0  0  0  3  0  0  0  0  0  0
  159.8180  213.9940  156.5250 O   0  0  0  0  0  0  0  0  0  0  0  0
  162.2570  206.2360  152.5460 N   0  0  0  0  0  2  0  0  0  0  0  0
  161.6390  204.1780  151.3810 C   0  0  0  0  0  2  0  0  0  0  0  0
  161.3360  205.6670  151.5750 C   0  0  2  0  0  3  0  0  0  0  0  0
  160.6760  203.5680  150.3680 C   0  0  0  0  0  2  0  0  0  0  0  0
  162.0100  204.0830  148.4390 O   0  0  0  0  0  1  0  0  0  0  0  0
  160.5130  205.8040  149.2130 C   0  0  0  0  0  2  0  0  0  0  0  0
  161.4710  206.4060  150.2460 C   0  0  0  0  0  2  0  0  0  0  0  0
  160.7630  204.3010  149.0280 C   0  0  2  0  0  3  0  0  0  0  0  0
  1 13  2  0  0  0  0
  1  8  1  0  0  0  0
  2 14  2  0  0  0  0
  2  8  1  0  0  0  0
  3 19  1  0  0  0  0
  3 18  1  0  0  0  0
  4 15  1  0  0  0  0
  4 10  1  0  0  0  0
  5 11  1  0  0  0  0
  5  6  2  0  0  0  0
  6  2  1  0  0  0  0
  7 18  1  0  0  0  0
  7 17  2  0  0  0  0
  8  3  2  0  0  0  0
  9 17  1  0  0  0  0
 11  1  1  0  0  0  0
 12 19  2  0  0  0  0
 13 12  1  0  0  0  0
 16 15  2  0  0  0  0
 17 10  1  0  0  0  0
 18  4  2  0  0  0  0
 19 16  1  0  0  0  0
 21 20  2  0  0  0  0
 22 16  1  1  0  0  0
 22 24  1  0  0  0  0
 23 21  1  0  0  0  0
 24 26  2  0  0  0  0
 24 20  1  0  0  0  0
 25 22  1  0  0  0  0
 25 23  2  0  0  0  0
 27  9  1  0  0  0  0
 28 29  1  0  0  0  0
 29 27  1  1  0  0  0
 30 28  1  0  0  0  0
 32 33  1  0  0  0  0
 33 29  1  0  0  0  0
 34 31  1  1  0  0  0
 34 32  1  0  0  0  0
 34 30  1  0  0  0  0
M  END
>  <MODEL>
1

>  <REMARK>
 VINA RESULT:      -7.7      0.000      0.000
  Name = 
  3 active torsions:
  status: ('A' for Active; 'I' for Inactive)
    1  A    between atoms: N_3  and  C_13
    2  A    between atoms: N_3  and  N_17
    3  A    between atoms: C_12  and  C_28
                            x       y       z     vdW  Elec       q    Type
                         _______ _______ _______ _____ _____    ______ ____

>  <TORSDO>
F 3

$$$$
=
 OpenBabel11062407543D

 34 39  0  0  1  0  0  0  0  0999 V2000
  160.3330  212.6110  151.3490 C   0  0  0  0  0  0  0  0  0  0  0  0
  161.3750  211.4910  149.4380 C   0  0  0  0  0  0  0  0  0  0  0  0
  160.9150  210.2600  151.6780 C   0  0  0  0  0  0  0  0  0  0  0  0
  161.2860  207.9180  152.1730 C   0  0  0  0  0  0  0  0  0  0  0  0
  160.2260  213.5350  149.0300 C   0  0  0  0  0  3  0  0  0  0  0  0
  160.8060  212.4710  148.5640 N   0  0  0  0  0  0  0  0  0  0  0  0
  161.5100  208.5580  149.9830 N   0  0  0  0  0  0  0  0  0  0  0  0
  160.8840  211.4170  150.8400 C   0  0  0  0  0  0  0  0  0  0  0  0
  162.1470  206.5580  148.7220 N   0  0  0  0  0  2  0  0  0  0  0  0
  161.6770  206.4690  151.4250 S   0  0  0  0  0  0  0  0  0  0  0  0
  160.2390  213.8500  150.5000 C   0  0  0  0  0  2  0  0  0  0  0  0
  160.0660  211.6100  153.4920 N   0  0  0  0  0  0  0  0  0  0  0  0
  159.9510  212.6890  152.6840 C   0  0  0  0  0  3  0  0  0  0  0  0
  162.3310  210.7860  149.0270 O   0  0  0  0  0  0  0  0  0  0  0  0
  160.9820  208.0860  153.4770 N   0  0  0  0  0  0  0  0  0  0  0  0
  160.5930  209.3120  153.9350 C   0  0  0  0  0  0  0  0  0  0  0  0
  161.7740  207.2310  149.9240 C   0  0  0  0  0  0  0  0  0  0  0  0
  161.2520  208.9530  151.2560 C   0  0  0  0  0  0  0  0  0  0  0  0
  160.5250  210.4110  153.0460 C   0  0  0  0  0  0  0  0  0  0  0  0
  162.1570  208.6590  156.9040 N   0  0  0  0  0  0  0  0  0  0  0  0
  161.5260  207.5490  157.1390 C   0  0  0  0  0  3  0  0  0  0  0  0
  160.2770  209.4820  155.3960 C   0  0  2  0  0  3  0  0  0  0  0  0
  160.1380  207.3570  156.6850 C   0  0  0  0  0  3  0  0  0  0  0  0
  161.5540  209.7210  156.1570 C   0  0  0  0  0  0  0  0  0  0  0  0
  159.5450  208.2680  155.9120 C   0  0  0  0  0  3  0  0  0  0  0  0
  162.1170  210.8460  156.1050 O   0  0  0  0  0  0  0  0  0  0  0  0
  162.3140  207.2590  147.5200 N   0  0  0  0  0  2  0  0  0  0  0  0
  160.7530  205.8530  146.2710 C   0  0  0  0  0  2  0  0  0  0  0  0
  162.2120  206.2850  146.4450 C   0  0  2  0  0  3  0  0  0  0  0  0
  160.6320  204.8330  145.1430 C   0  0  0  0  0  2  0  0  0  0  0  0
  161.0270  202.9110  146.5250 O   0  0  0  0  0  1  0  0  0  0  0  0
  162.9700  204.0330  145.6500 C   0  0  0  0  0  2  0  0  0  0  0  0
  163.0810  205.0710  146.7710 C   0  0  0  0  0  2  0  0  0  0  0  0
  161.5120  203.6130  145.4200 C   0  0  2  0  0  3  0  0  0  0  0  0
  1 13  1  0  0  0  0
  2  8  1  0  0  0  0
  3 19  1  0  0  0  0
  4 15  2  0  0  0  0
  5 11  1  0  0  0  0
  6  5  2  0  0  0  0
  6  2  1  0  0  0  0
  7 18  1  0  0  0  0
  8  1  2  0  0  0  0
  8  3  1  0  0  0  0
  9 17  1  0  0  0  0
 10  4  1  0  0  0  0
 11  1  1  0  0  0  0
 13 12  2  0  0  0  0
 14  2  2  0  0  0  0
 15 16  1  0  0  0  0
 17  7  2  0  0  0  0
 17 10  1  0  0  0  0
 18  3  2  0  0  0  0
 18  4  1  0  0  0  0
 19 12  1  0  0  0  0
 19 16  2  0  0  0  0
 20 21  2  0  0  0  0
 22 16  1  6  0  0  0
 22 25  1  0  0  0  0
 22 24  1  0  0  0  0
 23 21  1  0  0  0  0
 24 20  1  0  0  0  0
 25 23  2  0  0  0  0
 26 24  2  0  0  0  0
 27  9  1  0  0  0  0
 28 29  1  0  0  0  0
 29 33  1  0  0  0  0
 29 27  1  1  0  0  0
 30 34  1  0  0  0  0
 30 28  1  0  0  0  0
 32 33  1  0  0  0  0
 34 32  1  0  0  0  0
 34 31  1  1  0  0  0
M  END
>  <MODEL>
2

>  <REMARK>
 VINA RESULT:      -7.2      2.649      4.013
  Name = 
  3 active torsions:
  status: ('A' for Active; 'I' for Inactive)
    1  A    between atoms: N_3  and  C_13
    2  A    between atoms: N_3  and  N_17
    3  A    between atoms: C_12  and  C_28
                            x       y       z     vdW  Elec       q    Type
                         _______ _______ _______ _____ _____    ______ ____

>  <TORSDO>
F 3

$$$$
=
 OpenBabel11062407543D

 34 39  0  0  1  0  0  0  0  0999 V2000
  161.1890  203.6690  150.2910 C   0  0  0  0  0  0  0  0  0  0  0  0
  161.5220  205.2100  152.1640 C   0  0  0  0  0  0  0  0  0  0  0  0
  161.6710  205.9890  149.6920 C   0  0  0  0  0  0  0  0  0  0  0  0
  162.0030  208.2470  148.8780 C   0  0  0  0  0  0  0  0  0  0  0  0
  160.4550  203.1310  152.6170 C   0  0  0  0  0  3  0  0  0  0  0  0
  160.7880  204.3220  153.0140 N   0  0  0  0  0  0  0  0  0  0  0  0
  161.6010  208.0070  151.1220 N   0  0  0  0  0  0  0  0  0  0  0  0
  161.4730  204.9910  150.6930 C   0  0  0  0  0  0  0  0  0  0  0  0
  161.6810  210.2510  152.1000 N   0  0  0  0  0  2  0  0  0  0  0  0
  162.0440  209.8370  149.4100 S   0  0  0  0  0  0  0  0  0  0  0  0
  160.9330  202.5840  151.3010 C   0  0  0  0  0  2  0  0  0  0  0  0
  161.5100  204.2650  148.0080 N   0  0  0  0  0  0  0  0  0  0  0  0
  161.2350  203.3270  148.9440 C   0  0  0  0  0  3  0  0  0  0  0  0
  162.2550  206.0880  152.6840 O   0  0  0  0  0  0  0  0  0  0  0  0
  162.1200  207.8310  147.6000 N   0  0  0  0  0  0  0  0  0  0  0  0
  161.9770  206.5070  147.2970 C   0  0  0  0  0  0  0  0  0  0  0  0
  161.7380  209.3490  150.9960 C   0  0  0  0  0  0  0  0  0  0  0  0
  161.7690  207.3800  149.9300 C   0  0  0  0  0  0  0  0  0  0  0  0
  161.7240  205.5690  148.3250 C   0  0  0  0  0  0  0  0  0  0  0  0
  160.4540  204.2580  145.2200 N   0  0  0  0  0  0  0  0  0  0  0  0
  161.3520  203.3300  145.3580 C   0  0  0  0  0  3  0  0  0  0  0  0
  162.1310  206.0620  145.8680 C   0  0  2  0  0  3  0  0  0  0  0  0
  162.7660  203.6720  145.5820 C   0  0  0  0  0  3  0  0  0  0  0  0
  160.7880  205.6460  145.3280 C   0  0  0  0  0  0  0  0  0  0  0  0
  163.1350  204.9390  145.7800 C   0  0  0  0  0  3  0  0  0  0  0  0
  159.9390  206.5200  145.0100 O   0  0  0  0  0  0  0  0  0  0  0  0
  161.5280  209.7820  153.4120 N   0  0  0  0  0  2  0  0  0  0  0  0
  159.8590  210.1640  155.1570 C   0  0  0  0  0  2  0  0  0  0  0  0
  160.8110  210.8120  154.1470 C   0  0  2  0  0  3  0  0  0  0  0  0
  159.1030  211.2350  155.9370 C   0  0  0  0  0  2  0  0  0  0  0  0
  157.2950  211.4320  154.3700 O   0  0  0  0  0  1  0  0  0  0  0  0
  159.2550  212.7650  153.9370 C   0  0  0  0  0  2  0  0  0  0  0  0
  160.0240  211.6840  153.1710 C   0  0  0  0  0  2  0  0  0  0  0  0
  158.3230  212.1470  154.9890 C   0  0  2  0  0  3  0  0  0  0  0  0
  1  8  1  0  0  0  0
  1 11  1  0  0  0  0
  2 14  2  0  0  0  0
  2  6  1  0  0  0  0
  3 18  1  0  0  0  0
  3  8  2  0  0  0  0
  4 10  1  0  0  0  0
  4 18  2  0  0  0  0
  5  6  2  0  0  0  0
  8  2  1  0  0  0  0
  9 27  1  0  0  0  0
 10 17  1  0  0  0  0
 11  5  1  0  0  0  0
 12 19  2  0  0  0  0
 12 13  1  0  0  0  0
 13  1  2  0  0  0  0
 15  4  1  0  0  0  0
 16 15  2  0  0  0  0
 16 19  1  0  0  0  0
 17  7  2  0  0  0  0
 17  9  1  0  0  0  0
 18  7  1  0  0  0  0
 19  3  1  0  0  0  0
 20 24  1  0  0  0  0
 20 21  2  0  0  0  0
 21 23  1  0  0  0  0
 22 16  1  1  0  0  0
 23 25  2  0  0  0  0
 24 22  1  0  0  0  0
 25 22  1  0  0  0  0
 26 24  2  0  0  0  0
 28 30  1  0  0  0  0
 29 27  1  6  0  0  0
 29 28  1  0  0  0  0
 32 34  1  0  0  0  0
 33 32  1  0  0  0  0
 33 29  1  0  0  0  0
 34 31  1  6  0  0  0
 34 30  1  0  0  0  0
M  END
>  <MODEL>
3

>  <REMARK>
 VINA RESULT:      -7.1      3.008      9.319
  Name = 
  3 active torsions:
  status: ('A' for Active; 'I' for Inactive)
    1  A    between atoms: N_3  and  C_13
    2  A    between atoms: N_3  and  N_17
    3  A    between atoms: C_12  and  C_28
                            x       y       z     vdW  Elec       q    Type
                         _______ _______ _______ _____ _____    ______ ____

>  <TORSDO>
F 3

$$$$
=
 OpenBabel11062407543D

 34 39  0  0  1  0  0  0  0  0999 V2000
  160.5670  212.5740  150.6540 C   0  0  0  0  0  0  0  0  0  0  0  0
  161.6080  211.1190  148.9820 C   0  0  0  0  0  0  0  0  0  0  0  0
  161.1510  210.3250  151.4120 C   0  0  0  0  0  0  0  0  0  0  0  0
  161.5250  208.1150  152.3330 C   0  0  0  0  0  0  0  0  0  0  0  0
  160.4560  213.0520  148.2040 C   0  0  0  0  0  3  0  0  0  0  0  0
  161.0370  211.9200  147.9420 N   0  0  0  0  0  0  0  0  0  0  0  0
  161.7450  208.3380  150.0620 N   0  0  0  0  0  0  0  0  0  0  0  0
  161.1190  211.3060  150.3750 C   0  0  0  0  0  0  0  0  0  0  0  0
  162.3820  206.1400  149.1920 N   0  0  0  0  0  2  0  0  0  0  0  0
  161.9170  206.5530  151.8660 S   0  0  0  0  0  0  0  0  0  0  0  0
  160.4710  213.6340  149.5900 C   0  0  0  0  0  2  0  0  0  0  0  0
  160.3040  211.9870  152.9460 N   0  0  0  0  0  0  0  0  0  0  0  0
  160.1880  212.8970  151.9520 C   0  0  0  0  0  3  0  0  0  0  0  0
  162.5640  210.3500  148.7080 O   0  0  0  0  0  0  0  0  0  0  0  0
  161.2230  208.5220  153.5830 N   0  0  0  0  0  0  0  0  0  0  0  0
  160.8340  209.8120  153.8060 C   0  0  0  0  0  0  0  0  0  0  0  0
  162.0110  207.0230  150.2490 C   0  0  0  0  0  0  0  0  0  0  0  0
  161.4890  208.9620  151.2390 C   0  0  0  0  0  0  0  0  0  0  0  0
  160.7640  210.7260  152.7290 C   0  0  0  0  0  0  0  0  0  0  0  0
  161.9880  209.0970  156.9450 N   0  0  0  0  0  0  0  0  0  0  0  0
  161.0370  208.2650  157.2430 C   0  0  0  0  0  3  0  0  0  0  0  0
  160.5200  210.2490  155.2110 C   0  0  2  0  0  3  0  0  0  0  0  0
  159.6790  208.4420  156.7020 C   0  0  0  0  0  3  0  0  0  0  0  0
  161.7730  210.1890  156.0440 C   0  0  0  0  0  0  0  0  0  0  0  0
  159.4280  209.3840  155.7920 C   0  0  0  0  0  3  0  0  0  0  0  0
  162.6550  211.0790  155.9180 O   0  0  0  0  0  0  0  0  0  0  0  0
  162.5470  206.6060  147.8810 N   0  0  0  0  0  2  0  0  0  0  0  0
  162.6710  204.9110  146.1230 C   0  0  0  0  0  2  0  0  0  0  0  0
  161.7510  205.7430  147.0230 C   0  0  2  0  0  3  0  0  0  0  0  0
  161.8470  203.9990  145.2200 C   0  0  0  0  0  2  0  0  0  0  0  0
  161.5790  205.6010  143.4520 O   0  0  0  0  0  1  0  0  0  0  0  0
  159.9800  205.6940  145.2510 C   0  0  0  0  0  2  0  0  0  0  0  0
  160.8140  206.5940  146.1680 C   0  0  0  0  0  2  0  0  0  0  0  0
  160.8750  204.8150  144.3660 C   0  0  2  0  0  3  0  0  0  0  0  0
  1 13  1  0  0  0  0
  2  8  1  0  0  0  0
  3 19  1  0  0  0  0
  4 15  2  0  0  0  0
  5 11  1  0  0  0  0
  6  5  2  0  0  0  0
  6  2  1  0  0  0  0
  7 17  2  0  0  0  0
  7 18  1  0  0  0  0
  8  1  2  0  0  0  0
  8  3  1  0  0  0  0
  9 17  1  0  0  0  0
 10  4  1  0  0  0  0
 11  1  1  0  0  0  0
 13 12  2  0  0  0  0
 14  2  2  0  0  0  0
 15 16  1  0  0  0  0
 17 10  1  0  0  0  0
 18  3  2  0  0  0  0
 18  4  1  0  0  0  0
 19 12  1  0  0  0  0
 19 16  2  0  0  0  0
 20 21  2  0  0  0  0
 22 16  1  6  0  0  0
 22 25  1  0  0  0  0
 22 24  1  0  0  0  0
 23 21  1  0  0  0  0
 24 20  1  0  0  0  0
 25 23  2  0  0  0  0
 26 24  2  0  0  0  0
 27  9  1  0  0  0  0
 28 29  1  0  0  0  0
 29 27  1  1  0  0  0
 30 28  1  0  0  0  0
 32 33  1  0  0  0  0
 33 29  1  0  0  0  0
 34 31  1  6  0  0  0
 34 30  1  0  0  0  0
 34 32  1  0  0  0  0
M  END
>  <MODEL>
4

>  <REMARK>
 VINA RESULT:      -6.9      2.793      3.796
  Name = 
  3 active torsions:
  status: ('A' for Active; 'I' for Inactive)
    1  A    between atoms: N_3  and  C_13
    2  A    between atoms: N_3  and  N_17
    3  A    between atoms: C_12  and  C_28
                            x       y       z     vdW  Elec       q    Type
                         _______ _______ _______ _____ _____    ______ ____

>  <TORSDO>
F 3

$$$$
=
 OpenBabel11062407543D

 34 39  0  0  1  0  0  0  0  0999 V2000
  160.5440  213.3790  149.6080 C   0  0  0  0  0  0  0  0  0  0  0  0
  161.6680  211.6600  148.2750 C   0  0  0  0  0  0  0  0  0  0  0  0
  161.0230  211.2780  150.7610 C   0  0  0  0  0  0  0  0  0  0  0  0
  161.2830  209.2450  152.0530 C   0  0  0  0  0  0  0  0  0  0  0  0
  160.6180  213.4510  147.1110 C   0  0  0  0  0  3  0  0  0  0  0  0
  161.1900  212.2860  147.0800 N   0  0  0  0  0  0  0  0  0  0  0  0
  161.6680  209.0920  149.7980 N   0  0  0  0  0  0  0  0  0  0  0  0
  161.0860  212.0770  149.5790 C   0  0  0  0  0  0  0  0  0  0  0  0
  162.3170  206.7750  149.3460 N   0  0  0  0  0  2  0  0  0  0  0  0
  161.6720  207.6230  151.8760 S   0  0  0  0  0  0  0  0  0  0  0  0
  160.5460  214.2520  148.3820 C   0  0  0  0  0  2  0  0  0  0  0  0
  160.1060  213.1770  151.9390 N   0  0  0  0  0  0  0  0  0  0  0  0
  160.0800  213.9140  150.8040 C   0  0  0  0  0  3  0  0  0  0  0  0
  162.6250  210.8480  148.2000 O   0  0  0  0  0  0  0  0  0  0  0  0
  160.9010  209.8540  153.1950 N   0  0  0  0  0  0  0  0  0  0  0  0
  160.5250  211.1660  153.1770 C   0  0  0  0  0  0  0  0  0  0  0  0
  161.8910  207.8220  150.2150 C   0  0  0  0  0  0  0  0  0  0  0  0
  161.3430  209.9020  150.8370 C   0  0  0  0  0  0  0  0  0  0  0  0
  160.5520  211.8930  151.9630 C   0  0  0  0  0  0  0  0  0  0  0  0
  160.0390  210.2000  156.4210 N   0  0  0  0  0  0  0  0  0  0  0  0
  158.7460  210.1140  156.3350 C   0  0  0  0  0  3  0  0  0  0  0  0
  160.1220  211.8300  154.4650 C   0  0  2  0  0  3  0  0  0  0  0  0
  157.9860  211.0030  155.4400 C   0  0  0  0  0  3  0  0  0  0  0  0
  160.7830  211.1240  155.6190 C   0  0  0  0  0  0  0  0  0  0  0  0
  158.6190  211.8260  154.6020 C   0  0  0  0  0  3  0  0  0  0  0  0
  162.0060  211.3120  155.8550 O   0  0  0  0  0  0  0  0  0  0  0  0
  162.5850  207.0190  147.9920 N   0  0  0  0  0  2  0  0  0  0  0  0
  162.7860  205.2060  146.3640 C   0  0  0  0  0  2  0  0  0  0  0  0
  161.8320  206.0360  147.2290 C   0  0  2  0  0  3  0  0  0  0  0  0
  162.0070  204.1690  145.5610 C   0  0  0  0  0  2  0  0  0  0  0  0
  161.5720  205.6040  143.6880 O   0  0  0  0  0  1  0  0  0  0  0  0
  160.0210  205.7220  145.5260 C   0  0  0  0  0  2  0  0  0  0  0  0
  160.8110  206.7490  146.3440 C   0  0  0  0  0  2  0  0  0  0  0  0
  160.9530  204.8440  144.6810 C   0  0  2  0  0  3  0  0  0  0  0  0
  1 13  1  0  0  0  0
  2  8  1  0  0  0  0
  3 18  2  0  0  0  0
  3 19  1  0  0  0  0
  4 15  2  0  0  0  0
  5 11  1  0  0  0  0
  6  5  2  0  0  0  0
  6  2  1  0  0  0  0
  7 17  2  0  0  0  0
  7 18  1  0  0  0  0
  8  1  2  0  0  0  0
  8  3  1  0  0  0  0
  9 17  1  0  0  0  0
 10  4  1  0  0  0  0
 11  1  1  0  0  0  0
 12 19  1  0  0  0  0
 13 12  2  0  0  0  0
 14  2  2  0  0  0  0
 16 15  1  0  0  0  0
 17 10  1  0  0  0  0
 18  4  1  0  0  0  0
 19 16  2  0  0  0  0
 21 20  2  0  0  0  0
 22 16  1  6  0  0  0
 22 25  1  0  0  0  0
 22 24  1  0  0  0  0
 23 21  1  0  0  0  0
 24 26  2  0  0  0  0
 24 20  1  0  0  0  0
 25 23  2  0  0  0  0
 27  9  1  0  0  0  0
 28 29  1  0  0  0  0
 29 27  1  6  0  0  0
 30 28  1  0  0  0  0
 32 33  1  0  0  0  0
 33 29  1  0  0  0  0
 34 31  1  6  0  0  0
 34 32  1  0  0  0  0
 34 30  1  0  0  0  0
M  END
>  <MODEL>
5

>  <REMARK>
 VINA RESULT:      -6.6      2.452      3.233
  Name = 
  3 active torsions:
  status: ('A' for Active; 'I' for Inactive)
    1  A    between atoms: N_3  and  C_13
    2  A    between atoms: N_3  and  N_17
    3  A    between atoms: C_12  and  C_28
                            x       y       z     vdW  Elec       q    Type
                         _______ _______ _______ _____ _____    ______ ____

>  <TORSDO>
F 3

$$$$
=
 OpenBabel11062407543D

 34 39  0  0  1  0  0  0  0  0999 V2000
  161.1430  203.2520  150.3040 C   0  0  0  0  0  0  0  0  0  0  0  0
  161.5200  205.0400  151.9340 C   0  0  0  0  0  0  0  0  0  0  0  0
  161.6430  205.4560  149.3740 C   0  0  0  0  0  0  0  0  0  0  0  0
  161.9910  207.5690  148.2410 C   0  0  0  0  0  0  0  0  0  0  0  0
  160.4350  203.0620  152.6930 C   0  0  0  0  0  3  0  0  0  0  0  0
  160.7870  204.2920  152.9110 N   0  0  0  0  0  0  0  0  0  0  0  0
  161.6180  207.6580  150.5010 N   0  0  0  0  0  0  0  0  0  0  0  0
  161.4480  204.6130  150.5100 C   0  0  0  0  0  0  0  0  0  0  0  0
  161.7370  210.0170  151.1470 N   0  0  0  0  0  2  0  0  0  0  0  0
  162.0580  209.2180  148.5400 S   0  0  0  0  0  0  0  0  0  0  0  0
  160.8890  202.3260  151.4630 C   0  0  0  0  0  2  0  0  0  0  0  0
  161.4390  203.5100  147.9560 N   0  0  0  0  0  0  0  0  0  0  0  0
  161.1660  202.7200  149.0200 C   0  0  0  0  0  3  0  0  0  0  0  0
  162.2710  205.9730  152.3140 O   0  0  0  0  0  0  0  0  0  0  0  0
  162.0850  206.9730  147.0350 N   0  0  0  0  0  0  0  0  0  0  0  0
  161.9230  205.6220  146.9260 C   0  0  0  0  0  0  0  0  0  0  0  0
  161.7680  208.9660  150.1830 C   0  0  0  0  0  0  0  0  0  0  0  0
  161.7610  206.8650  149.4090 C   0  0  0  0  0  0  0  0  0  0  0  0
  161.6730  204.8440  148.0810 C   0  0  0  0  0  0  0  0  0  0  0  0
  159.7910  204.4930  144.5020 N   0  0  0  0  0  0  0  0  0  0  0  0
  159.8600  203.2430  144.8440 C   0  0  0  0  0  3  0  0  0  0  0  0
  162.0510  204.9750  145.5740 C   0  0  2  0  0  3  0  0  0  0  0  0
  161.0940  202.6820  145.4190 C   0  0  0  0  0  3  0  0  0  0  0  0
  160.8890  205.3890  144.7110 C   0  0  0  0  0  0  0  0  0  0  0  0
  162.1240  203.4750  145.7210 C   0  0  0  0  0  3  0  0  0  0  0  0
  160.8610  206.5420  144.2040 O   0  0  0  0  0  0  0  0  0  0  0  0
  161.5970  209.7430  152.5140 N   0  0  0  0  0  2  0  0  0  0  0  0
  160.1140  211.6820  152.3690 C   0  0  0  0  0  2  0  0  0  0  0  0
  160.3010  210.2640  152.9190 C   0  0  2  0  0  3  0  0  0  0  0  0
  158.7560  212.2370  152.7830 C   0  0  0  0  0  2  0  0  0  0  0  0
  159.5060  213.1540  154.8710 O   0  0  0  0  0  1  0  0  0  0  0  0
  158.8490  210.8370  154.8790 C   0  0  0  0  0  2  0  0  0  0  0  0
  160.2070  210.2780  154.4430 C   0  0  0  0  0  2  0  0  0  0  0  0
  158.6130  212.2420  154.3060 C   0  0  2  0  0  3  0  0  0  0  0  0
  1  8  1  0  0  0  0
  1 11  1  0  0  0  0
  2 14  2  0  0  0  0
  2  6  1  0  0  0  0
  3 18  1  0  0  0  0
  3  8  2  0  0  0  0
  4 10  1  0  0  0  0
  4 18  2  0  0  0  0
  5  6  2  0  0  0  0
  8  2  1  0  0  0  0
  9 27  1  0  0  0  0
 10 17  1  0  0  0  0
 11  5  1  0  0  0  0
 12 19  2  0  0  0  0
 12 13  1  0  0  0  0
 13  1  2  0  0  0  0
 15  4  1  0  0  0  0
 16 15  2  0  0  0  0
 16 19  1  0  0  0  0
 17  7  2  0  0  0  0
 17  9  1  0  0  0  0
 18  7  1  0  0  0  0
 19  3  1  0  0  0  0
 20 24  1  0  0  0  0
 20 21  2  0  0  0  0
 21 23  1  0  0  0  0
 22 25  1  0  0  0  0
 22 16  1  1  0  0  0
 23 25  2  0  0  0  0
 24 22  1  0  0  0  0
 26 24  2  0  0  0  0
 28 30  1  0  0  0  0
 28 29  1  0  0  0  0
 29 27  1  1  0  0  0
 29 33  1  0  0  0  0
 30 34  1  0  0  0  0
 33 32  1  0  0  0  0
 34 31  1  1  0  0  0
 34 32  1  0  0  0  0
M  END
>  <MODEL>
6

>  <REMARK>
 VINA RESULT:      -6.2      3.129      9.641
  Name = 
  3 active torsions:
  status: ('A' for Active; 'I' for Inactive)
    1  A    between atoms: N_3  and  C_13
    2  A    between atoms: N_3  and  N_17
    3  A    between atoms: C_12  and  C_28
                            x       y       z     vdW  Elec       q    Type
                         _______ _______ _______ _____ _____    ______ ____

>  <TORSDO>
F 3

$$$$
=
 OpenBabel11062407543D

 34 39  0  0  1  0  0  0  0  0999 V2000
  161.5810  211.9600  149.0230 C   0  0  0  0  0  0  0  0  0  0  0  0
  160.4040  213.2350  150.7500 C   0  0  0  0  0  0  0  0  0  0  0  0
  161.2060  210.7960  151.1380 C   0  0  0  0  0  0  0  0  0  0  0  0
  161.0570  209.5070  153.1850 C   0  0  0  0  0  0  0  0  0  0  0  0
  161.3540  214.4470  148.9350 C   0  0  0  0  0  3  0  0  0  0  0  0
  160.7990  214.4530  150.1090 N   0  0  0  0  0  0  0  0  0  0  0  0
  160.5370  211.7350  153.3280 N   0  0  0  0  0  0  0  0  0  0  0  0
  161.0590  211.9660  150.3330 C   0  0  0  0  0  0  0  0  0  0  0  0
  159.8990  212.1640  155.6530 N   0  0  0  0  0  2  0  0  0  0  0  0
  160.6840  209.6720  154.8110 S   0  0  0  0  0  0  0  0  0  0  0  0
  161.4900  213.1770  148.1410 C   0  0  0  0  0  2  0  0  0  0  0  0
  162.1630  209.6620  149.2330 N   0  0  0  0  0  0  0  0  0  0  0  0
  162.1080  210.7900  148.4880 C   0  0  0  0  0  3  0  0  0  0  0  0
  159.4580  213.2580  151.5780 O   0  0  0  0  0  0  0  0  0  0  0  0
  161.4980  208.3850  152.5770 N   0  0  0  0  0  0  0  0  0  0  0  0
  161.8520  208.4160  151.2590 C   0  0  0  0  0  0  0  0  0  0  0  0
  160.3610  211.3150  154.6040 C   0  0  0  0  0  0  0  0  0  0  0  0
  160.9130  210.7110  152.5200 C   0  0  0  0  0  0  0  0  0  0  0  0
  161.7400  209.6200  150.5240 C   0  0  0  0  0  0  0  0  0  0  0  0
  160.4560  205.4370  150.3240 N   0  0  0  0  0  0  0  0  0  0  0  0
  160.8720  204.7720  151.3580 C   0  0  0  0  0  3  0  0  0  0  0  0
  162.3220  207.1490  150.5970 C   0  0  2  0  0  3  0  0  0  0  0  0
  162.1490  205.1080  152.0110 C   0  0  0  0  0  3  0  0  0  0  0  0
  161.1910  206.5510  149.8040 C   0  0  0  0  0  0  0  0  0  0  0  0
  162.8410  206.1840  151.6350 C   0  0  0  0  0  3  0  0  0  0  0  0
  160.8610  207.0560  148.6990 O   0  0  0  0  0  0  0  0  0  0  0  0
  159.5450  213.4980  155.4040 N   0  0  0  0  0  2  0  0  0  0  0  0
  157.7820  212.7370  156.9180 C   0  0  0  0  0  2  0  0  0  0  0  0
  158.1300  213.6240  155.7190 C   0  0  2  0  0  3  0  0  0  0  0  0
  156.3020  212.8640  157.2600 C   0  0  0  0  0  2  0  0  0  0  0  0
  155.5690  211.1280  155.7740 O   0  0  0  0  0  1  0  0  0  0  0  0
  155.8050  213.3320  154.8320 C   0  0  0  0  0  2  0  0  0  0  0  0
  157.2970  213.2140  154.5060 C   0  0  0  0  0  2  0  0  0  0  0  0
  155.4330  212.4880  156.0590 C   0  0  2  0  0  3  0  0  0  0  0  0
  1  8  1  0  0  0  0
  2 14  2  0  0  0  0
  3 18  1  0  0  0  0
  4 10  1  0  0  0  0
  5  6  2  0  0  0  0
  6  2  1  0  0  0  0
  7 17  2  0  0  0  0
  8  2  1  0  0  0  0
  8  3  2  0  0  0  0
 11  5  1  0  0  0  0
 11  1  1  0  0  0  0
 12 19  2  0  0  0  0
 13  1  2  0  0  0  0
 13 12  1  0  0  0  0
 15  4  1  0  0  0  0
 16 15  2  0  0  0  0
 17 10  1  0  0  0  0
 17  9  1  0  0  0  0
 18  4  2  0  0  0  0
 18  7  1  0  0  0  0
 19  3  1  0  0  0  0
 19 16  1  0  0  0  0
 20 21  2  0  0  0  0
 21 23  1  0  0  0  0
 22 16  1  1  0  0  0
 22 25  1  0  0  0  0
 24 20  1  0  0  0  0
 24 22  1  0  0  0  0
 25 23  2  0  0  0  0
 26 24  2  0  0  0  0
 27  9  1  0  0  0  0
 28 30  1  0  0  0  0
 29 27  1  6  0  0  0
 29 28  1  0  0  0  0
 32 34  1  0  0  0  0
 33 32  1  0  0  0  0
 33 29  1  0  0  0  0
 34 31  1  6  0  0  0
 34 30  1  0  0  0  0
M  END
>  <MODEL>
7

>  <REMARK>
 VINA RESULT:      -6.2      1.867      7.407
  Name = 
  3 active torsions:
  status: ('A' for Active; 'I' for Inactive)
    1  A    between atoms: N_3  and  C_13
    2  A    between atoms: N_3  and  N_17
    3  A    between atoms: C_12  and  C_28
                            x       y       z     vdW  Elec       q    Type
                         _______ _______ _______ _____ _____    ______ ____

>  <TORSDO>
F 3

$$$$
=
 OpenBabel11062407543D

 34 39  0  0  1  0  0  0  0  0999 V2000
  161.3790  211.3260  150.1410 C   0  0  0  0  0  0  0  0  0  0  0  0
  162.2660  209.0560  149.9150 C   0  0  0  0  0  0  0  0  0  0  0  0
  161.0430  209.8530  152.0620 C   0  0  0  0  0  0  0  0  0  0  0  0
  160.4880  208.5320  154.0160 C   0  0  0  0  0  0  0  0  0  0  0  0
  161.9850  210.3370  147.9280 C   0  0  0  0  0  3  0  0  0  0  0  0
  162.2260  209.1910  148.4900 N   0  0  0  0  0  0  0  0  0  0  0  0
  161.2790  207.3930  152.1900 N   0  0  0  0  0  0  0  0  0  0  0  0
  161.5550  210.0650  150.7460 C   0  0  0  0  0  0  0  0  0  0  0  0
  161.3780  205.0290  152.8180 N   0  0  0  0  0  2  0  0  0  0  0  0
  160.4680  206.9460  154.5600 S   0  0  0  0  0  0  0  0  0  0  0  0
  161.8630  211.5960  148.7420 C   0  0  0  0  0  2  0  0  0  0  0  0
  160.4300  212.1880  152.1470 N   0  0  0  0  0  0  0  0  0  0  0  0
  160.8330  212.3770  150.8700 C   0  0  0  0  0  3  0  0  0  0  0  0
  162.9700  208.1480  150.4240 O   0  0  0  0  0  0  0  0  0  0  0  0
  160.0510  209.6130  154.6940 N   0  0  0  0  0  0  0  0  0  0  0  0
  160.0430  210.8390  154.0930 C   0  0  0  0  0  0  0  0  0  0  0  0
  161.0700  206.3960  153.0830 C   0  0  0  0  0  0  0  0  0  0  0  0
  160.9680  208.6030  152.7200 C   0  0  0  0  0  0  0  0  0  0  0  0
  160.5100  210.9790  152.7650 C   0  0  0  0  0  0  0  0  0  0  0  0
  158.8300  211.4300  157.2350 N   0  0  0  0  0  0  0  0  0  0  0  0
  157.5800  211.4590  156.8850 C   0  0  0  0  0  3  0  0  0  0  0  0
  159.5690  212.0350  154.8740 C   0  0  2  0  0  3  0  0  0  0  0  0
  157.1770  211.9520  155.5570 C   0  0  0  0  0  3  0  0  0  0  0  0
  159.8700  211.8270  156.3340 C   0  0  0  0  0  0  0  0  0  0  0  0
  158.0950  212.2570  154.6390 C   0  0  0  0  0  3  0  0  0  0  0  0
  161.0480  211.9620  156.7600 O   0  0  0  0  0  0  0  0  0  0  0  0
  161.9760  204.6400  151.6120 N   0  0  0  0  0  2  0  0  0  0  0  0
  161.2210  202.3250  151.3870 C   0  0  0  0  0  2  0  0  0  0  0  0
  161.0260  203.7750  150.9300 C   0  0  2  0  0  3  0  0  0  0  0  0
  160.2270  201.4090  150.6810 C   0  0  0  0  0  2  0  0  0  0  0  0
  161.6170  200.9850  148.7710 O   0  0  0  0  0  1  0  0  0  0  0  0
  160.2420  202.9610  148.6930 C   0  0  0  0  0  2  0  0  0  0  0  0
  161.2310  203.8790  149.4200 C   0  0  0  0  0  2  0  0  0  0  0  0
  160.3830  201.5060  149.1620 C   0  0  2  0  0  3  0  0  0  0  0  0
  1  8  2  0  0  0  0
  1 13  1  0  0  0  0
  2 14  2  0  0  0  0
  2  8  1  0  0  0  0
  3 18  2  0  0  0  0
  3 19  1  0  0  0  0
  4 10  1  0  0  0  0
  4 15  2  0  0  0  0
  5  6  2  0  0  0  0
  5 11  1  0  0  0  0
  6  2  1  0  0  0  0
  7 18  1  0  0  0  0
  7 17  2  0  0  0  0
  8  3  1  0  0  0  0
  9 17  1  0  0  0  0
 11  1  1  0  0  0  0
 12 19  1  0  0  0  0
 13 12  2  0  0  0  0
 16 15  1  0  0  0  0
 17 10  1  0  0  0  0
 18  4  1  0  0  0  0
 19 16  2  0  0  0  0
 21 20  2  0  0  0  0
 22 16  1  6  0  0  0
 22 24  1  0  0  0  0
 23 21  1  0  0  0  0
 24 26  2  0  0  0  0
 24 20  1  0  0  0  0
 25 22  1  0  0  0  0
 25 23  2  0  0  0  0
 27  9  1  0  0  0  0
 29 28  1  0  0  0  0
 29 27  1  1  0  0  0
 30 28  1  0  0  0  0
 32 34  1  0  0  0  0
 32 33  1  0  0  0  0
 33 29  1  0  0  0  0
 34 31  1  1  0  0  0
 34 30  1  0  0  0  0
M  END
>  <MODEL>
8

>  <REMARK>
 VINA RESULT:      -6.1      1.543      1.874
  Name = 
  3 active torsions:
  status: ('A' for Active; 'I' for Inactive)
    1  A    between atoms: N_3  and  C_13
    2  A    between atoms: N_3  and  N_17
    3  A    between atoms: C_12  and  C_28
                            x       y       z     vdW  Elec       q    Type
                         _______ _______ _______ _____ _____    ______ ____

>  <TORSDO>
F 3

$$$$
=
 OpenBabel11062407543D

 34 39  0  0  1  0  0  0  0  0999 V2000
  160.9780  202.8470  149.7450 C   0  0  0  0  0  0  0  0  0  0  0  0
  161.1830  203.9390  151.9270 C   0  0  0  0  0  0  0  0  0  0  0  0
  161.3760  205.2580  149.6990 C   0  0  0  0  0  0  0  0  0  0  0  0
  161.6350  207.6510  149.4230 C   0  0  0  0  0  0  0  0  0  0  0  0
  160.1940  201.7740  151.8610 C   0  0  0  0  0  3  0  0  0  0  0  0
  160.4620  202.8570  152.5260 N   0  0  0  0  0  0  0  0  0  0  0  0
  161.1720  206.8990  151.5390 N   0  0  0  0  0  0  0  0  0  0  0  0
  161.1910  204.0530  150.4430 C   0  0  0  0  0  0  0  0  0  0  0  0
  161.1220  208.8670  152.9950 N   0  0  0  0  0  2  0  0  0  0  0  0
  161.5890  209.0810  150.2980 S   0  0  0  0  0  0  0  0  0  0  0  0
  160.7380  201.5540  150.4760 C   0  0  0  0  0  2  0  0  0  0  0  0
  161.3450  203.9510  147.6680 N   0  0  0  0  0  0  0  0  0  0  0  0
  161.0820  202.8170  148.3590 C   0  0  0  0  0  3  0  0  0  0  0  0
  161.8600  204.7030  152.6590 O   0  0  0  0  0  0  0  0  0  0  0  0
  161.8100  207.5370  148.0900 N   0  0  0  0  0  0  0  0  0  0  0  0
  161.7360  206.3110  147.4940 C   0  0  0  0  0  0  0  0  0  0  0  0
  161.2540  208.2390  151.7210 C   0  0  0  0  0  0  0  0  0  0  0  0
  161.4060  206.5620  150.2450 C   0  0  0  0  0  0  0  0  0  0  0  0
  161.4920  205.1570  148.2760 C   0  0  0  0  0  0  0  0  0  0  0  0
  160.5130  204.3990  144.9360 N   0  0  0  0  0  0  0  0  0  0  0  0
  161.5140  203.5730  144.9050 C   0  0  0  0  0  3  0  0  0  0  0  0
  161.9550  206.2040  146.0100 C   0  0  2  0  0  3  0  0  0  0  0  0
  162.8750  204.0210  145.2460 C   0  0  0  0  0  3  0  0  0  0  0  0
  160.6770  205.7610  145.3480 C   0  0  0  0  0  0  0  0  0  0  0  0
  163.0870  205.2500  145.7200 C   0  0  0  0  0  3  0  0  0  0  0  0
  159.7320  206.5780  145.1930 O   0  0  0  0  0  0  0  0  0  0  0  0
  160.9480  208.1110  154.1620 N   0  0  0  0  0  2  0  0  0  0  0  0
  159.5820  209.5830  155.5570 C   0  0  0  0  0  2  0  0  0  0  0  0
  160.9880  209.0430  155.2780 C   0  0  2  0  0  3  0  0  0  0  0  0
  159.6100  210.5590  156.7280 C   0  0  0  0  0  2  0  0  0  0  0  0
  160.0840  212.5020  155.4010 O   0  0  0  0  0  1  0  0  0  0  0  0
  161.9740  211.1900  156.1140 C   0  0  0  0  0  2  0  0  0  0  0  0
  161.9350  210.1950  154.9490 C   0  0  0  0  0  2  0  0  0  0  0  0
  160.5710  211.7160  156.4470 C   0  0  2  0  0  3  0  0  0  0  0  0
  1  8  1  0  0  0  0
  1 11  1  0  0  0  0
  2  6  1  0  0  0  0
  2 14  2  0  0  0  0
  3 18  1  0  0  0  0
  3  8  2  0  0  0  0
  4 18  2  0  0  0  0
  4 10  1  0  0  0  0
  5  6  2  0  0  0  0
  7 17  2  0  0  0  0
  8  2  1  0  0  0  0
  9 27  1  0  0  0  0
 10 17  1  0  0  0  0
 11  5  1  0  0  0  0
 12 19  2  0  0  0  0
 12 13  1  0  0  0  0
 13  1  2  0  0  0  0
 15  4  1  0  0  0  0
 16 15  2  0  0  0  0
 16 19  1  0  0  0  0
 17  9  1  0  0  0  0
 18  7  1  0  0  0  0
 19  3  1  0  0  0  0
 20 24  1  0  0  0  0
 21 20  2  0  0  0  0
 21 23  1  0  0  0  0
 22 16  1  1  0  0  0
 23 25  2  0  0  0  0
 24 22  1  0  0  0  0
 25 22  1  0  0  0  0
 26 24  2  0  0  0  0
 28 30  1  0  0  0  0
 29 27  1  6  0  0  0
 29 28  1  0  0  0  0
 32 34  1  0  0  0  0
 33 29  1  0  0  0  0
 33 32  1  0  0  0  0
 34 31  1  6  0  0  0
 34 30  1  0  0  0  0
M  END
>  <MODEL>
9

>  <REMARK>
 VINA RESULT:      -5.9      3.426      9.488
  Name = 
  3 active torsions:
  status: ('A' for Active; 'I' for Inactive)
    1  A    between atoms: N_3  and  C_13
    2  A    between atoms: N_3  and  N_17
    3  A    between atoms: C_12  and  C_28
                            x       y       z     vdW  Elec       q    Type
                         _______ _______ _______ _____ _____    ______ ____

>  <TORSDO>
F 3

$$$$
