=
 OpenBabel11052422533D

 28 32  0  0  1  0  0  0  0  0999 V2000
  160.6770  209.7140  153.5490 C   0  0  1  0  0  0  0  0  0  0  0  0
  161.0070  207.6660  156.4870 O   0  0  0  0  0  0  0  0  0  0  0  0
  161.2820  206.5190  151.4980 C   0  0  0  0  0  0  0  0  0  0  0  0
  161.0470  207.4390  154.1030 C   0  0  0  0  0  0  0  0  0  0  0  0
  161.0360  207.8850  151.7400 C   0  0  0  0  0  3  0  0  0  0  0  0
  160.5820  209.6160  155.0800 C   0  0  1  0  0  3  0  0  0  0  0  0
  161.2950  206.0820  153.9020 C   0  0  0  0  0  3  0  0  0  0  0  0
  160.9000  208.1720  155.3390 C   0  0  0  0  0  0  0  0  0  0  0  0
  161.4090  205.6240  152.5790 C   0  0  0  0  0  3  0  0  0  0  0  0
  161.7460  210.3440  154.4180 C   0  0  0  0  0  2  0  0  0  0  0  0
  160.9180  208.3170  153.0600 C   0  0  0  0  0  0  0  0  0  0  0  0
  160.7700  204.6340  150.0100 C   0  0  0  0  0  3  0  0  0  0  0  0
  160.8350  206.4890  147.6250 C   0  0  0  0  0  2  0  0  0  0  0  0
  161.5620  204.1260  147.6960 C   0  0  0  0  0  0  0  0  0  0  0  0
  161.4050  205.9940  150.0990 C   0  0  1  0  0  3  0  0  0  0  0  0
  161.8520  208.5010  149.1010 Cl  0  0  0  0  0  0  0  0  0  0  0  0
  161.9710  205.5180  147.3240 C   0  0  0  0  0  2  0  0  0  0  0  0
  160.8730  207.0090  149.0660 C   0  0  1  0  0  3  0  0  0  0  0  0
  161.7910  203.1940  146.8830 O   0  0  0  0  0  0  0  0  0  0  0  0
  160.8760  203.8110  148.9630 C   0  0  0  0  0  3  0  0  0  0  0  0
  159.6080  210.6240  152.9390 C   0  0  1  0  0  3  0  0  0  0  0  0
  158.8280  211.2990  154.0410 C   0  0  0  0  0  3  0  0  0  0  0  0
  159.5340  212.9240  151.8600 N   0  0  0  0  0  0  0  0  0  0  0  0
  158.2030  212.4680  153.8490 C   0  0  0  0  0  3  0  0  0  0  0  0
  161.1560  211.3620  151.2410 O   0  0  0  0  0  0  0  0  0  0  0  0
  160.1720  211.6450  151.9770 C   0  0  0  0  0  0  0  0  0  0  0  0
  160.0050  213.8410  150.9810 O   0  0  0  0  0  1  0  0  0  0  0  0
  158.2490  213.1580  152.5140 C   0  0  0  0  0  2  0  0  0  0  0  0
  1 10  1  6  0  0  0
  1  6  1  0  0  0  0
  3  5  2  0  0  0  0
  3  9  1  0  0  0  0
  4  8  1  0  0  0  0
  5 11  1  0  0  0  0
  6 10  1  1  0  0  0
  6  8  1  0  0  0  0
  7  4  1  0  0  0  0
  8  2  2  0  0  0  0
  9  7  2  0  0  0  0
 11  1  1  0  0  0  0
 11  4  2  0  0  0  0
 12 15  1  0  0  0  0
 13 18  1  0  0  0  0
 14 20  1  0  0  0  0
 15  3  1  1  0  0  0
 17 13  1  0  0  0  0
 17 14  1  0  0  0  0
 18 16  1  6  0  0  0
 18 15  1  0  0  0  0
 19 14  2  0  0  0  0
 20 12  2  0  0  0  0
 21  1  1  0  0  0  0
 21 22  1  1  0  0  0
 23 26  1  0  0  0  0
 23 28  1  0  0  0  0
 24 22  2  0  0  0  0
 25 26  2  0  0  0  0
 26 21  1  0  0  0  0
 27 23  1  0  0  0  0
 28 24  1  0  0  0  0
M  END
>  <MODEL>
1

>  <REMARK>
 VINA RESULT:     -10.4      0.000      0.000
  Name = 
  2 active torsions:
  status: ('A' for Active; 'I' for Inactive)
    1  A    between atoms: C_1  and  C_2
    2  A    between atoms: C_10  and  C_13
                            x       y       z     vdW  Elec       q    Type
                         _______ _______ _______ _____ _____    ______ ____

>  <TORSDO>
F 2

$$$$
=
 OpenBabel11052422533D

 28 32  0  0  1  0  0  0  0  0999 V2000
  160.9140  203.9830  149.3100 C   0  0  1  0  0  0  0  0  0  0  0  0
  161.6180  201.6750  151.9760 O   0  0  0  0  0  0  0  0  0  0  0  0
  161.0920  206.7740  151.9480 C   0  0  0  0  0  0  0  0  0  0  0  0
  161.3510  204.0300  151.6390 C   0  0  0  0  0  0  0  0  0  0  0  0
  160.9240  206.1920  150.6760 C   0  0  0  0  0  3  0  0  0  0  0  0
  161.2280  202.5370  149.7250 C   0  0  1  0  0  3  0  0  0  0  0  0
  161.5200  204.5710  152.9130 C   0  0  0  0  0  3  0  0  0  0  0  0
  161.4150  202.6530  151.2090 C   0  0  0  0  0  0  0  0  0  0  0  0
  161.3900  205.9610  153.0590 C   0  0  0  0  0  3  0  0  0  0  0  0
  159.8190  202.9360  149.2980 C   0  0  0  0  0  2  0  0  0  0  0  0
  161.0650  204.8110  150.5500 C   0  0  0  0  0  0  0  0  0  0  0  0
  160.8350  208.5660  153.6070 C   0  0  0  0  0  3  0  0  0  0  0  0
  162.1210  210.5260  151.7000 C   0  0  0  0  0  2  0  0  0  0  0  0
  160.3060  210.9900  153.3140 C   0  0  0  0  0  0  0  0  0  0  0  0
  160.9640  208.2550  152.1410 C   0  0  1  0  0  3  0  0  0  0  0  0
  162.0150  208.7600  149.6670 Cl  0  0  0  0  0  0  0  0  0  0  0  0
  160.7230  211.1040  151.8800 C   0  0  0  0  0  2  0  0  0  0  0  0
  162.1020  209.0180  151.4310 C   0  0  1  0  0  3  0  0  0  0  0  0
  159.7840  211.9900  153.8720 O   0  0  0  0  0  0  0  0  0  0  0  0
  160.5110  209.7620  154.1060 C   0  0  0  0  0  3  0  0  0  0  0  0
  161.5560  204.3760  147.9770 C   0  0  1  0  0  3  0  0  0  0  0  0
  161.6680  203.1610  147.0900 C   0  0  0  0  0  3  0  0  0  0  0  0
  160.8160  205.5260  145.8350 N   0  0  0  0  0  0  0  0  0  0  0  0
  161.7150  203.2640  145.7550 C   0  0  0  0  0  3  0  0  0  0  0  0
  160.2760  206.4210  147.9230 O   0  0  0  0  0  0  0  0  0  0  0  0
  160.8240  205.4930  147.2680 C   0  0  0  0  0  0  0  0  0  0  0  0
  160.1920  206.5350  145.1820 O   0  0  0  0  0  1  0  0  0  0  0  0
  161.6640  204.6060  145.0810 C   0  0  0  0  0  2  0  0  0  0  0  0
  1 10  1  6  0  0  0
  1  6  1  0  0  0  0
  1 11  1  0  0  0  0
  3  9  1  0  0  0  0
  4  7  1  0  0  0  0
  5  3  2  0  0  0  0
  6 10  1  1  0  0  0
  6  8  1  0  0  0  0
  7  9  2  0  0  0  0
  8  4  1  0  0  0  0
  8  2  2  0  0  0  0
 11  5  1  0  0  0  0
 11  4  2  0  0  0  0
 12 20  2  0  0  0  0
 13 17  1  0  0  0  0
 14 19  2  0  0  0  0
 14 20  1  0  0  0  0
 15  3  1  1  0  0  0
 15 12  1  0  0  0  0
 17 14  1  0  0  0  0
 18 16  1  6  0  0  0
 18 13  1  0  0  0  0
 18 15  1  0  0  0  0
 21 22  1  6  0  0  0
 21  1  1  0  0  0  0
 23 26  1  0  0  0  0
 24 22  2  0  0  0  0
 26 25  2  0  0  0  0
 26 21  1  0  0  0  0
 27 23  1  0  0  0  0
 28 24  1  0  0  0  0
 28 23  1  0  0  0  0
M  END
>  <MODEL>
2

>  <REMARK>
 VINA RESULT:      -9.5      2.676      7.423
  Name = 
  2 active torsions:
  status: ('A' for Active; 'I' for Inactive)
    1  A    between atoms: C_1  and  C_2
    2  A    between atoms: C_10  and  C_13
                            x       y       z     vdW  Elec       q    Type
                         _______ _______ _______ _____ _____    ______ ____

>  <TORSDO>
F 2

$$$$
=
 OpenBabel11052422533D

 28 32  0  0  1  0  0  0  0  0999 V2000
  161.1000  209.0690  152.7950 C   0  0  1  0  0  0  0  0  0  0  0  0
  161.9640  211.2340  150.0560 O   0  0  0  0  0  0  0  0  0  0  0  0
  161.2120  206.1670  150.2750 C   0  0  0  0  0  0  0  0  0  0  0  0
  161.5860  208.9080  150.4800 C   0  0  0  0  0  0  0  0  0  0  0  0
  161.0420  206.8080  151.5180 C   0  0  0  0  0  3  0  0  0  0  0  0
  161.4860  210.4820  152.3290 C   0  0  1  0  0  3  0  0  0  0  0  0
  161.7590  208.3090  149.2330 C   0  0  0  0  0  3  0  0  0  0  0  0
  161.7010  210.2980  150.8560 C   0  0  0  0  0  0  0  0  0  0  0  0
  161.5710  206.9210  149.1390 C   0  0  0  0  0  3  0  0  0  0  0  0
  160.0520  210.1630  152.7390 C   0  0  0  0  0  2  0  0  0  0  0  0
  161.2420  208.1850  151.5920 C   0  0  0  0  0  0  0  0  0  0  0  0
  161.4580  204.2450  148.7680 C   0  0  0  0  0  3  0  0  0  0  0  0
  161.6750  202.3960  151.1480 C   0  0  0  0  0  2  0  0  0  0  0  0
  160.6160  201.9020  148.9690 C   0  0  0  0  0  0  0  0  0  0  0  0
  161.0230  204.6870  150.1380 C   0  0  1  0  0  3  0  0  0  0  0  0
  160.9480  204.3540  152.8520 Cl  0  0  0  0  0  0  0  0  0  0  0  0
  160.4130  201.8990  150.4530 C   0  0  0  0  0  2  0  0  0  0  0  0
  161.7030  203.9220  151.2930 C   0  0  1  0  0  3  0  0  0  0  0  0
  160.2610  200.8900  148.3100 O   0  0  0  0  0  0  0  0  0  0  0  0
  161.2410  203.0310  148.2540 C   0  0  0  0  0  3  0  0  0  0  0  0
  161.6940  208.7030  154.1570 C   0  0  1  0  0  3  0  0  0  0  0  0
  162.0960  209.9600  154.8880 C   0  0  0  0  0  3  0  0  0  0  0  0
  160.8090  207.9980  156.4320 N   0  0  0  0  0  0  0  0  0  0  0  0
  162.1720  210.0050  156.2250 C   0  0  0  0  0  3  0  0  0  0  0  0
  160.0100  207.0050  154.4750 O   0  0  0  0  0  0  0  0  0  0  0  0
  160.7680  207.8620  155.0050 C   0  0  0  0  0  0  0  0  0  0  0  0
  160.0090  207.2300  157.2110 O   0  0  0  0  0  1  0  0  0  0  0  0
  161.8620  208.7930  157.0580 C   0  0  0  0  0  2  0  0  0  0  0  0
  1 10  1  1  0  0  0
  1 21  1  0  0  0  0
  2  8  2  0  0  0  0
  3  5  1  0  0  0  0
  4  8  1  0  0  0  0
  4 11  1  0  0  0  0
  5 11  2  0  0  0  0
  6 10  1  6  0  0  0
  6  1  1  0  0  0  0
  7  4  2  0  0  0  0
  8  6  1  0  0  0  0
  9  7  1  0  0  0  0
  9  3  2  0  0  0  0
 11  1  1  0  0  0  0
 12 15  1  0  0  0  0
 13 18  1  0  0  0  0
 14 17  1  0  0  0  0
 15  3  1  1  0  0  0
 15 18  1  0  0  0  0
 17 13  1  0  0  0  0
 18 16  1  1  0  0  0
 19 14  2  0  0  0  0
 20 12  2  0  0  0  0
 20 14  1  0  0  0  0
 21 22  1  1  0  0  0
 21 26  1  0  0  0  0
 22 24  2  0  0  0  0
 23 28  1  0  0  0  0
 23 27  1  0  0  0  0
 24 28  1  0  0  0  0
 25 26  2  0  0  0  0
 26 23  1  0  0  0  0
M  END
>  <MODEL>
3

>  <REMARK>
 VINA RESULT:      -9.3      2.367      4.509
  Name = 
  2 active torsions:
  status: ('A' for Active; 'I' for Inactive)
    1  A    between atoms: C_1  and  C_2
    2  A    between atoms: C_10  and  C_13
                            x       y       z     vdW  Elec       q    Type
                         _______ _______ _______ _____ _____    ______ ____

>  <TORSDO>
F 2

$$$$
=
 OpenBabel11052422533D

 28 32  0  0  1  0  0  0  0  0999 V2000
  160.5840  209.9570  153.7810 C   0  0  1  0  0  0  0  0  0  0  0  0
  161.1490  207.8750  156.6580 O   0  0  0  0  0  0  0  0  0  0  0  0
  161.1250  206.8060  151.6440 C   0  0  0  0  0  0  0  0  0  0  0  0
  161.0400  207.6840  154.2740 C   0  0  0  0  0  0  0  0  0  0  0  0
  160.8650  208.1630  151.9240 C   0  0  0  0  0  3  0  0  0  0  0  0
  160.5900  209.8340  155.3130 C   0  0  1  0  0  3  0  0  0  0  0  0
  161.3040  206.3350  154.0350 C   0  0  0  0  0  3  0  0  0  0  0  0
  160.9570  208.3950  155.5280 C   0  0  0  0  0  0  0  0  0  0  0  0
  161.3420  205.9000  152.7020 C   0  0  0  0  0  3  0  0  0  0  0  0
  161.6930  210.5990  154.5890 C   0  0  0  0  0  2  0  0  0  0  0  0
  160.8230  208.5730  153.2550 C   0  0  0  0  0  0  0  0  0  0  0  0
  162.1080  207.1560  149.4220 C   0  0  0  0  0  3  0  0  0  0  0  0
  161.6830  204.2380  148.7660 C   0  0  0  0  0  2  0  0  0  0  0  0
  161.5260  206.1530  147.2100 C   0  0  0  0  0  0  0  0  0  0  0  0
  161.1700  206.3050  150.2330 C   0  0  1  0  0  3  0  0  0  0  0  0
  160.1800  203.8650  150.9720 Cl  0  0  0  0  0  0  0  0  0  0  0  0
  160.8150  204.9420  147.7300 C   0  0  0  0  0  2  0  0  0  0  0  0
  161.4810  204.7950  150.1790 C   0  0  1  0  0  3  0  0  0  0  0  0
  161.5460  206.3520  145.9670 O   0  0  0  0  0  0  0  0  0  0  0  0
  162.2290  207.1040  148.0930 C   0  0  0  0  0  3  0  0  0  0  0  0
  159.4580  210.8500  153.2560 C   0  0  1  0  0  3  0  0  0  0  0  0
  158.7570  211.5170  154.4140 C   0  0  0  0  0  3  0  0  0  0  0  0
  159.2660  213.1470  152.1830 N   0  0  0  0  0  0  0  0  0  0  0  0
  158.1020  212.6770  154.2710 C   0  0  0  0  0  3  0  0  0  0  0  0
  160.8560  211.6060  151.4400 O   0  0  0  0  0  0  0  0  0  0  0  0
  159.9290  211.8770  152.2520 C   0  0  0  0  0  0  0  0  0  0  0  0
  159.6540  214.0680  151.2690 O   0  0  0  0  0  1  0  0  0  0  0  0
  158.0330  213.3650  152.9360 C   0  0  0  0  0  2  0  0  0  0  0  0
  1 10  1  6  0  0  0
  1  6  1  0  0  0  0
  3  5  2  0  0  0  0
  3  9  1  0  0  0  0
  4  8  1  0  0  0  0
  5 11  1  0  0  0  0
  6 10  1  1  0  0  0
  6  8  1  0  0  0  0
  7  4  1  0  0  0  0
  8  2  2  0  0  0  0
  9  7  2  0  0  0  0
 11  1  1  0  0  0  0
 11  4  2  0  0  0  0
 12 15  1  0  0  0  0
 13 18  1  0  0  0  0
 14 17  1  0  0  0  0
 14 20  1  0  0  0  0
 15  3  1  1  0  0  0
 17 13  1  0  0  0  0
 18 15  1  0  0  0  0
 18 16  1  6  0  0  0
 19 14  2  0  0  0  0
 20 12  2  0  0  0  0
 21  1  1  0  0  0  0
 21 22  1  1  0  0  0
 23 26  1  0  0  0  0
 23 28  1  0  0  0  0
 24 22  2  0  0  0  0
 25 26  2  0  0  0  0
 26 21  1  0  0  0  0
 27 23  1  0  0  0  0
 28 24  1  0  0  0  0
M  END
>  <MODEL>
4

>  <REMARK>
 VINA RESULT:      -9.2      1.325      1.726
  Name = 
  2 active torsions:
  status: ('A' for Active; 'I' for Inactive)
    1  A    between atoms: C_1  and  C_2
    2  A    between atoms: C_10  and  C_13
                            x       y       z     vdW  Elec       q    Type
                         _______ _______ _______ _____ _____    ______ ____

>  <TORSDO>
F 2

$$$$
=
 OpenBabel11052422533D

 28 32  0  0  1  0  0  0  0  0999 V2000
  161.1920  209.0600  152.4900 C   0  0  1  0  0  0  0  0  0  0  0  0
  162.0330  211.4110  149.9020 O   0  0  0  0  0  0  0  0  0  0  0  0
  161.5440  206.3090  149.8270 C   0  0  0  0  0  0  0  0  0  0  0  0
  161.7640  209.0500  150.1900 C   0  0  0  0  0  0  0  0  0  0  0  0
  161.2980  206.8710  151.0950 C   0  0  0  0  0  3  0  0  0  0  0  0
  161.5180  210.5140  152.1140 C   0  0  1  0  0  3  0  0  0  0  0  0
  162.0110  208.5290  148.9200 C   0  0  0  0  0  3  0  0  0  0  0  0
  161.7920  210.4210  150.6420 C   0  0  0  0  0  0  0  0  0  0  0  0
  161.9000  207.1410  148.7460 C   0  0  0  0  0  3  0  0  0  0  0  0
  160.0900  210.0990  152.4530 C   0  0  0  0  0  2  0  0  0  0  0  0
  161.4210  208.2510  151.2490 C   0  0  0  0  0  0  0  0  0  0  0  0
  160.5310  204.2260  150.6420 C   0  0  0  0  0  3  0  0  0  0  0  0
  160.7770  203.0180  147.8830 C   0  0  0  0  0  2  0  0  0  0  0  0
  161.0050  201.8460  150.0480 C   0  0  0  0  0  0  0  0  0  0  0  0
  161.4390  204.8300  149.6060 C   0  0  1  0  0  3  0  0  0  0  0  0
  162.3070  205.0630  147.0230 Cl  0  0  0  0  0  0  0  0  0  0  0  0
  161.6590  202.1060  148.7270 C   0  0  0  0  0  2  0  0  0  0  0  0
  161.0420  204.5030  148.1510 C   0  0  1  0  0  3  0  0  0  0  0  0
  160.9670  200.6650  150.4810 O   0  0  0  0  0  0  0  0  0  0  0  0
  160.3770  202.9150  150.8490 C   0  0  0  0  0  3  0  0  0  0  0  0
  161.7580  208.6510  153.8520 C   0  0  1  0  0  3  0  0  0  0  0  0
  161.9910  209.8810  154.6940 C   0  0  0  0  0  3  0  0  0  0  0  0
  160.8490  207.6830  156.0190 N   0  0  0  0  0  0  0  0  0  0  0  0
  162.0000  209.8290  156.0330 C   0  0  0  0  0  3  0  0  0  0  0  0
  160.2510  206.7690  153.9540 O   0  0  0  0  0  0  0  0  0  0  0  0
  160.8890  207.6550  154.5850 C   0  0  0  0  0  0  0  0  0  0  0  0
  160.1000  206.7790  156.6950 O   0  0  0  0  0  1  0  0  0  0  0  0
  161.7820  208.5300  156.7560 C   0  0  0  0  0  2  0  0  0  0  0  0
  1 10  1  1  0  0  0
  1 21  1  0  0  0  0
  2  8  2  0  0  0  0
  3  5  1  0  0  0  0
  4  8  1  0  0  0  0
  4 11  1  0  0  0  0
  5 11  2  0  0  0  0
  6 10  1  6  0  0  0
  6  1  1  0  0  0  0
  7  4  2  0  0  0  0
  8  6  1  0  0  0  0
  9  7  1  0  0  0  0
  9  3  2  0  0  0  0
 11  1  1  0  0  0  0
 12 20  2  0  0  0  0
 13 18  1  0  0  0  0
 13 17  1  0  0  0  0
 14 19  2  0  0  0  0
 14 20  1  0  0  0  0
 15  3  1  6  0  0  0
 15 12  1  0  0  0  0
 17 14  1  0  0  0  0
 18 16  1  6  0  0  0
 18 15  1  0  0  0  0
 21 26  1  0  0  0  0
 21 22  1  1  0  0  0
 22 24  2  0  0  0  0
 23 27  1  0  0  0  0
 23 28  1  0  0  0  0
 24 28  1  0  0  0  0
 25 26  2  0  0  0  0
 26 23  1  0  0  0  0
M  END
>  <MODEL>
5

>  <REMARK>
 VINA RESULT:      -8.1      2.347      4.427
  Name = 
  2 active torsions:
  status: ('A' for Active; 'I' for Inactive)
    1  A    between atoms: C_1  and  C_2
    2  A    between atoms: C_10  and  C_13
                            x       y       z     vdW  Elec       q    Type
                         _______ _______ _______ _____ _____    ______ ____

>  <TORSDO>
F 2

$$$$
=
 OpenBabel11052422533D

 28 32  0  0  1  0  0  0  0  0999 V2000
  160.3230  209.5830  152.9090 C   0  0  1  0  0  0  0  0  0  0  0  0
  162.1840  211.5830  150.5690 O   0  0  0  0  0  0  0  0  0  0  0  0
  161.1940  206.5550  150.7050 C   0  0  0  0  0  0  0  0  0  0  0  0
  161.5840  209.2920  150.9230 C   0  0  0  0  0  0  0  0  0  0  0  0
  160.6250  207.2620  151.7830 C   0  0  0  0  0  3  0  0  0  0  0  0
  160.9060  210.9610  152.5550 C   0  0  1  0  0  3  0  0  0  0  0  0
  162.1600  208.6260  149.8410 C   0  0  0  0  0  3  0  0  0  0  0  0
  161.6180  210.6960  151.2610 C   0  0  0  0  0  0  0  0  0  0  0  0
  161.9600  207.2410  149.7410 C   0  0  0  0  0  3  0  0  0  0  0  0
  159.4080  210.6980  152.4440 C   0  0  0  0  0  2  0  0  0  0  0  0
  160.8420  208.6360  151.8690 C   0  0  0  0  0  0  0  0  0  0  0  0
  161.3340  204.6500  149.1640 C   0  0  0  0  0  3  0  0  0  0  0  0
  161.7460  202.7790  151.5020 C   0  0  0  0  0  2  0  0  0  0  0  0
  160.5250  202.2990  149.4060 C   0  0  0  0  0  0  0  0  0  0  0  0
  161.0040  205.0750  150.5690 C   0  0  1  0  0  3  0  0  0  0  0  0
  161.1400  204.7150  153.2760 Cl  0  0  0  0  0  0  0  0  0  0  0  0
  160.4380  202.2800  150.9010 C   0  0  0  0  0  2  0  0  0  0  0  0
  161.7750  204.3030  151.6600 C   0  0  1  0  0  3  0  0  0  0  0  0
  160.1260  201.2910  148.7660 O   0  0  0  0  0  0  0  0  0  0  0  0
  161.0860  203.4390  148.6570 C   0  0  0  0  0  3  0  0  0  0  0  0
  160.3860  209.2720  154.4060 C   0  0  1  0  0  3  0  0  0  0  0  0
  160.4330  207.7780  154.6120 C   0  0  0  0  0  3  0  0  0  0  0  0
  162.1560  209.2970  156.2290 N   0  0  0  0  0  0  0  0  0  0  0  0
  160.9710  207.2340  155.7120 C   0  0  0  0  0  3  0  0  0  0  0  0
  161.9260  211.0970  154.7570 O   0  0  0  0  0  0  0  0  0  0  0  0
  161.5410  209.9480  155.1090 C   0  0  0  0  0  0  0  0  0  0  0  0
  163.1730  209.9010  156.8910 O   0  0  0  0  0  1  0  0  0  0  0  0
  161.5480  208.0980  156.7980 C   0  0  0  0  0  2  0  0  0  0  0  0
  1 10  1  6  0  0  0
  1 21  1  0  0  0  0
  2  8  2  0  0  0  0
  3  5  1  0  0  0  0
  4  8  1  0  0  0  0
  4 11  1  0  0  0  0
  5 11  2  0  0  0  0
  6 10  1  6  0  0  0
  6  1  1  0  0  0  0
  7  4  2  0  0  0  0
  8  6  1  0  0  0  0
  9  7  1  0  0  0  0
  9  3  2  0  0  0  0
 11  1  1  0  0  0  0
 12 15  1  0  0  0  0
 13 18  1  0  0  0  0
 14 17  1  0  0  0  0
 15  3  1  6  0  0  0
 15 18  1  0  0  0  0
 17 13  1  0  0  0  0
 18 16  1  1  0  0  0
 19 14  2  0  0  0  0
 20 12  2  0  0  0  0
 20 14  1  0  0  0  0
 21 22  1  6  0  0  0
 21 26  1  0  0  0  0
 22 24  2  0  0  0  0
 23 28  1  0  0  0  0
 23 27  1  0  0  0  0
 24 28  1  0  0  0  0
 25 26  2  0  0  0  0
 26 23  1  0  0  0  0
M  END
>  <MODEL>
6

>  <REMARK>
 VINA RESULT:      -7.5      2.315      4.257
  Name = 
  2 active torsions:
  status: ('A' for Active; 'I' for Inactive)
    1  A    between atoms: C_1  and  C_2
    2  A    between atoms: C_10  and  C_13
                            x       y       z     vdW  Elec       q    Type
                         _______ _______ _______ _____ _____    ______ ____

>  <TORSDO>
F 2

$$$$
