=
 OpenBabel11062409493D

 34 37  0  0  1  0  0  0  0  0999 V2000
  160.6450  209.9630  153.8790 C   0  0  1  0  0  3  0  0  0  0  0  0
  157.7190  211.3460  156.0070 C   0  0  0  0  0  2  0  0  0  0  0  0
  159.4530  209.7350  156.4400 O   0  0  0  0  0  0  0  0  0  0  0  0
  160.6760  209.0990  156.2160 C   0  0  0  0  0  0  0  0  0  0  0  0
  161.5270  209.4690  155.0400 C   0  0  2  0  0  3  0  0  0  0  0  0
  161.1140  208.2780  157.0640 O   0  0  0  0  0  0  0  0  0  0  0  0
  156.5410  211.5460  155.0620 C   0  0  0  0  0  2  0  0  0  0  0  0
  156.7310  212.7130  154.0780 C   0  0  2  0  0  3  0  0  0  0  0  0
  158.1520  212.8450  153.5100 C   0  0  0  0  0  2  0  0  0  0  0  0
  158.7020  210.3550  155.3960 C   0  0  2  0  0  3  0  0  0  0  0  0
  158.7800  211.5060  153.1560 C   0  0  0  0  0  2  0  0  0  0  0  0
  159.6090  211.0040  154.3380 C   0  0  2  0  0  3  0  0  0  0  0  0
  156.2810  214.0330  154.7040 C   0  0  2  0  0  3  0  0  0  0  0  0
  157.2250  214.4530  155.7270 N   0  0  0  0  0  1  0  0  0  0  0  0
  155.0180  213.8910  155.2830 O   0  0  0  0  0  1  0  0  0  0  0  0
  162.5510  210.5050  155.4900 C   0  0  0  0  0  2  0  0  0  0  0  0
  162.1670  211.0440  156.7170 O   0  0  0  0  0  1  0  0  0  0  0  0
  161.4440  210.3570  152.6290 C   0  0  0  0  0  2  0  0  0  0  0  0
  162.0830  209.1980  152.0220 N   0  0  0  0  0  2  0  0  0  0  0  0
  161.9470  210.1780  149.8050 C   0  0  0  0  0  1  0  0  0  0  0  0
  161.5070  209.0330  150.6960 C   0  0  1  0  0  3  0  0  0  0  0  0
  162.3060  206.5110  147.9800 N   0  0  0  0  0  2  0  0  0  0  0  0
  161.0610  206.6120  150.5660 N   0  0  0  0  0  2  0  0  0  0  0  0
  160.8770  202.1830  149.0520 C   0  0  2  0  0  3  0  0  0  0  0  0
  160.7930  203.0970  147.8220 C   0  0  1  0  0  3  0  0  0  0  0  0
  161.9080  204.1310  147.7830 C   0  0  0  0  0  2  0  0  0  0  0  0
  159.5540  201.4670  149.2560 C   0  0  0  0  0  1  0  0  0  0  0  0
  161.4490  205.4230  148.4460 C   0  0  1  0  0  3  0  0  0  0  0  0
  160.8430  202.3230  146.6630 O   0  0  0  0  0  1  0  0  0  0  0  0
  160.6230  204.2300  150.5450 C   0  0  0  0  0  2  0  0  0  0  0  0
  161.5050  205.3430  149.9880 C   0  0  2  0  0  3  0  0  0  0  0  0
  161.2960  202.8780  150.3500 C   0  0  0  0  0  2  0  0  0  0  0  0
  161.9140  207.6960  150.0770 C   0  0  1  0  0  3  0  0  0  0  0  0
  161.8380  207.7700  148.5540 C   0  0  0  0  0  2  0  0  0  0  0  0
  1 18  1  6  0  0  0
  1 12  1  0  0  0  0
  1  5  1  0  0  0  0
  4  3  1  0  0  0  0
  4  6  2  0  0  0  0
  5 16  1  1  0  0  0
  5  4  1  0  0  0  0
  7  2  1  0  0  0  0
  8 13  1  1  0  0  0
  8  7  1  0  0  0  0
  9  8  1  0  0  0  0
 10  2  1  1  0  0  0
 10  3  1  0  0  0  0
 11  9  1  0  0  0  0
 12 11  1  6  0  0  0
 12 10  1  0  0  0  0
 13 15  1  1  0  0  0
 13 14  1  0  0  0  0
 16 17  1  0  0  0  0
 19 18  1  0  0  0  0
 21 20  1  6  0  0  0
 21 19  1  0  0  0  0
 22 28  1  0  0  0  0
 22 34  1  0  0  0  0
 24 27  1  1  0  0  0
 24 32  1  0  0  0  0
 25 29  1  6  0  0  0
 25 24  1  0  0  0  0
 26 25  1  0  0  0  0
 28 26  1  6  0  0  0
 28 31  1  0  0  0  0
 31 30  1  1  0  0  0
 31 23  1  0  0  0  0
 32 30  1  0  0  0  0
 33 23  1  0  0  0  0
 33 21  1  1  0  0  0
 34 33  1  0  0  0  0
M  END
>  <MODEL>
1

>  <REMARK>
 VINA RESULT:      -7.8      0.000      0.000
  Name = 
  6 active torsions:
  status: ('A' for Active; 'I' for Inactive)
    1  A    between atoms: C_1  and  C_9
    2  A    between atoms: C_3  and  C_25
    3  A    between atoms: N_8  and  C_9
    4  A    between atoms: N_8  and  C_18
    5  A    between atoms: C_10  and  C_20
    6  A    between atoms: C_18  and  C_30
                            x       y       z     vdW  Elec       q    Type
                         _______ _______ _______ _____ _____    ______ ____

>  <TORSDO>
F 6

$$$$
=
 OpenBabel11062409493D

 34 37  0  0  1  0  0  0  0  0999 V2000
  160.5120  210.2310  152.5870 C   0  0  1  0  0  3  0  0  0  0  0  0
  160.1370  213.6440  150.7950 C   0  0  0  0  0  2  0  0  0  0  0  0
  159.3990  212.8150  152.9300 O   0  0  0  0  0  0  0  0  0  0  0  0
  159.4030  211.9410  154.0210 C   0  0  0  0  0  0  0  0  0  0  0  0
  160.2810  210.7280  154.0260 C   0  0  2  0  0  3  0  0  0  0  0  0
  158.7370  212.2290  155.0480 O   0  0  0  0  0  0  0  0  0  0  0  0
  159.9450  213.3460  149.3140 C   0  0  0  0  0  2  0  0  0  0  0  0
  161.2120  212.8180  148.6210 C   0  0  2  0  0  3  0  0  0  0  0  0
  162.0360  211.8310  149.4620 C   0  0  0  0  0  2  0  0  0  0  0  0
  159.7800  212.4100  151.6150 C   0  0  2  0  0  3  0  0  0  0  0  0
  161.1770  210.8370  150.2270 C   0  0  0  0  0  2  0  0  0  0  0  0
  160.9130  211.3700  151.6350 C   0  0  2  0  0  3  0  0  0  0  0  0
  162.0920  213.9720  148.1380 C   0  0  2  0  0  3  0  0  0  0  0  0
  161.6290  214.4530  146.8470 N   0  0  0  0  0  1  0  0  0  0  0  0
  163.4190  213.5520  148.0160 O   0  0  0  0  0  1  0  0  0  0  0  0
  161.5780  211.0730  154.7500 C   0  0  0  0  0  2  0  0  0  0  0  0
  161.7870  210.1760  155.7960 O   0  0  0  0  0  1  0  0  0  0  0  0
  161.4000  208.9810  152.5080 C   0  0  0  0  0  2  0  0  0  0  0  0
  160.6310  207.7690  152.7480 N   0  0  0  0  0  2  0  0  0  0  0  0
  161.5690  205.6880  153.5770 C   0  0  0  0  0  1  0  0  0  0  0  0
  161.4830  206.6410  152.4010 C   0  0  1  0  0  3  0  0  0  0  0  0
  160.8240  203.7480  150.0410 N   0  0  0  0  0  2  0  0  0  0  0  0
  161.4260  206.5540  149.9380 N   0  0  0  0  0  2  0  0  0  0  0  0
  161.0200  205.0070  145.5360 C   0  0  2  0  0  3  0  0  0  0  0  0
  161.5780  203.8550  146.3820 C   0  0  1  0  0  3  0  0  0  0  0  0
  160.7460  203.5850  147.6260 C   0  0  0  0  0  2  0  0  0  0  0  0
  162.0780  205.4930  144.5610 C   0  0  0  0  0  1  0  0  0  0  0  0
  161.3000  204.3720  148.8080 C   0  0  1  0  0  3  0  0  0  0  0  0
  161.6360  202.6960  145.6080 O   0  0  0  0  0  1  0  0  0  0  0  0
  161.3450  206.5720  147.5180 C   0  0  0  0  0  2  0  0  0  0  0  0
  160.8720  205.8560  148.7780 C   0  0  2  0  0  3  0  0  0  0  0  0
  160.4660  206.1910  146.3340 C   0  0  0  0  0  2  0  0  0  0  0  0
  160.9580  205.9090  151.1660 C   0  0  1  0  0  3  0  0  0  0  0  0
  161.4000  204.4480  151.1860 C   0  0  0  0  0  2  0  0  0  0  0  0
  1 18  1  1  0  0  0
  1  5  1  0  0  0  0
  3  4  1  0  0  0  0
  4  5  1  0  0  0  0
  4  6  2  0  0  0  0
  5 16  1  6  0  0  0
  7  2  1  0  0  0  0
  8 13  1  1  0  0  0
  8  7  1  0  0  0  0
  8  9  1  0  0  0  0
  9 11  1  0  0  0  0
 10  2  1  6  0  0  0
 10 12  1  0  0  0  0
 10  3  1  0  0  0  0
 12 11  1  6  0  0  0
 12  1  1  0  0  0  0
 13 14  1  6  0  0  0
 15 13  1  0  0  0  0
 16 17  1  0  0  0  0
 18 19  1  0  0  0  0
 21 19  1  0  0  0  0
 21 20  1  1  0  0  0
 22 34  1  0  0  0  0
 23 33  1  0  0  0  0
 24 27  1  6  0  0  0
 24 32  1  0  0  0  0
 24 25  1  0  0  0  0
 25 29  1  6  0  0  0
 25 26  1  0  0  0  0
 28 26  1  6  0  0  0
 28 22  1  0  0  0  0
 31 30  1  6  0  0  0
 31 28  1  0  0  0  0
 31 23  1  0  0  0  0
 32 30  1  0  0  0  0
 33 34  1  0  0  0  0
 33 21  1  1  0  0  0
M  END
>  <MODEL>
2

>  <REMARK>
 VINA RESULT:      -7.3      3.012      4.814
  Name = 
  6 active torsions:
  status: ('A' for Active; 'I' for Inactive)
    1  A    between atoms: C_1  and  C_9
    2  A    between atoms: C_3  and  C_25
    3  A    between atoms: N_8  and  C_9
    4  A    between atoms: N_8  and  C_18
    5  A    between atoms: C_10  and  C_20
    6  A    between atoms: C_18  and  C_30
                            x       y       z     vdW  Elec       q    Type
                         _______ _______ _______ _____ _____    ______ ____

>  <TORSDO>
F 6

$$$$
=
 OpenBabel11062409493D

 34 37  0  0  1  0  0  0  0  0999 V2000
  160.6830  209.9920  152.2660 C   0  0  1  0  0  3  0  0  0  0  0  0
  160.3440  213.4720  150.6000 C   0  0  0  0  0  2  0  0  0  0  0  0
  159.6010  212.5740  152.7050 O   0  0  0  0  0  0  0  0  0  0  0  0
  159.5970  211.6620  153.7640 C   0  0  0  0  0  0  0  0  0  0  0  0
  160.4620  210.4390  153.7230 C   0  0  2  0  0  3  0  0  0  0  0  0
  158.9370  211.9200  154.8030 O   0  0  0  0  0  0  0  0  0  0  0  0
  160.1450  213.2300  149.1090 C   0  0  0  0  0  2  0  0  0  0  0  0
  161.4040  212.7120  148.3940 C   0  0  2  0  0  3  0  0  0  0  0  0
  162.2190  211.6860  149.1970 C   0  0  0  0  0  2  0  0  0  0  0  0
  159.9750  212.2130  151.3750 C   0  0  2  0  0  3  0  0  0  0  0  0
  161.3490  210.6750  149.9280 C   0  0  0  0  0  2  0  0  0  0  0  0
  161.0950  211.1600  151.3550 C   0  0  2  0  0  3  0  0  0  0  0  0
  162.2970  213.8730  147.9510 C   0  0  2  0  0  3  0  0  0  0  0  0
  162.1670  214.0910  146.5200 N   0  0  0  0  0  1  0  0  0  0  0  0
  163.6330  213.5970  148.2480 O   0  0  0  0  0  1  0  0  0  0  0  0
  161.7640  210.7430  154.4550 C   0  0  0  0  0  2  0  0  0  0  0  0
  161.9890  209.7780  155.4350 O   0  0  0  0  0  1  0  0  0  0  0  0
  161.5560  208.7360  152.1390 C   0  0  0  0  0  2  0  0  0  0  0  0
  160.7930  207.6090  151.6220 N   0  0  0  0  0  2  0  0  0  0  0  0
  161.0040  205.2770  152.2660 C   0  0  0  0  0  1  0  0  0  0  0  0
  161.6830  206.4580  151.5990 C   0  0  1  0  0  3  0  0  0  0  0  0
  162.2900  206.9370  147.8880 N   0  0  0  0  0  2  0  0  0  0  0  0
  161.3530  204.9180  149.7030 N   0  0  0  0  0  2  0  0  0  0  0  0
  161.2260  203.1320  145.3750 C   0  0  2  0  0  3  0  0  0  0  0  0
  160.9500  204.6380  145.2630 C   0  0  1  0  0  3  0  0  0  0  0  0
  161.9970  205.4800  145.9760 C   0  0  0  0  0  2  0  0  0  0  0  0
  159.9750  202.3500  145.0170 C   0  0  0  0  0  1  0  0  0  0  0  0
  161.5520  205.7720  147.4040 C   0  0  1  0  0  3  0  0  0  0  0  0
  160.9050  205.0040  143.9180 O   0  0  0  0  0  1  0  0  0  0  0  0
  161.0420  203.3240  147.9070 C   0  0  0  0  0  2  0  0  0  0  0  0
  161.7920  204.5750  148.3500 C   0  0  2  0  0  3  0  0  0  0  0  0
  161.7570  202.6690  146.7340 C   0  0  0  0  0  2  0  0  0  0  0  0
  162.0850  206.0970  150.1700 C   0  0  1  0  0  3  0  0  0  0  0  0
  161.8270  207.2730  149.2310 C   0  0  0  0  0  2  0  0  0  0  0  0
  1 18  1  1  0  0  0
  1  5  1  0  0  0  0
  3  4  1  0  0  0  0
  4  6  2  0  0  0  0
  5  4  1  0  0  0  0
  5 16  1  6  0  0  0
  7  2  1  0  0  0  0
  8 13  1  1  0  0  0
  8  7  1  0  0  0  0
  8  9  1  0  0  0  0
  9 11  1  0  0  0  0
 10  2  1  6  0  0  0
 10  3  1  0  0  0  0
 12 11  1  6  0  0  0
 12 10  1  0  0  0  0
 12  1  1  0  0  0  0
 13 14  1  6  0  0  0
 13 15  1  0  0  0  0
 16 17  1  0  0  0  0
 19 18  1  0  0  0  0
 21 19  1  0  0  0  0
 21 20  1  6  0  0  0
 22 34  1  0  0  0  0
 23 33  1  0  0  0  0
 24 27  1  1  0  0  0
 24 32  1  0  0  0  0
 25 29  1  6  0  0  0
 25 24  1  0  0  0  0
 25 26  1  0  0  0  0
 28 26  1  6  0  0  0
 28 22  1  0  0  0  0
 28 31  1  0  0  0  0
 31 30  1  6  0  0  0
 31 23  1  0  0  0  0
 32 30  1  0  0  0  0
 33 21  1  1  0  0  0
 34 33  1  0  0  0  0
M  END
>  <MODEL>
3

>  <REMARK>
 VINA RESULT:      -6.7      2.964      4.724
  Name = 
  6 active torsions:
  status: ('A' for Active; 'I' for Inactive)
    1  A    between atoms: C_1  and  C_9
    2  A    between atoms: C_3  and  C_25
    3  A    between atoms: N_8  and  C_9
    4  A    between atoms: N_8  and  C_18
    5  A    between atoms: C_10  and  C_20
    6  A    between atoms: C_18  and  C_30
                            x       y       z     vdW  Elec       q    Type
                         _______ _______ _______ _____ _____    ______ ____

>  <TORSDO>
F 6

$$$$
=
 OpenBabel11062409493D

 34 37  0  0  1  0  0  0  0  0999 V2000
  160.8940  210.1440  152.7600 C   0  0  1  0  0  3  0  0  0  0  0  0
  161.3330  206.4040  153.6630 C   0  0  0  0  0  2  0  0  0  0  0  0
  161.1780  208.4090  154.9830 O   0  0  0  0  0  0  0  0  0  0  0  0
  160.8600  209.7490  155.2200 C   0  0  0  0  0  0  0  0  0  0  0  0
  160.3430  210.6200  154.1160 C   0  0  2  0  0  3  0  0  0  0  0  0
  160.9160  210.2020  156.3920 O   0  0  0  0  0  0  0  0  0  0  0  0
  162.2300  205.7930  152.5940 C   0  0  0  0  0  2  0  0  0  0  0  0
  161.5510  205.6590  151.2210 C   0  0  2  0  0  3  0  0  0  0  0  0
  160.6560  206.8460  150.8310 C   0  0  0  0  0  2  0  0  0  0  0  0
  161.5240  207.9150  153.6880 C   0  0  2  0  0  3  0  0  0  0  0  0
  161.2600  208.1930  151.1980 C   0  0  0  0  0  2  0  0  0  0  0  0
  160.7440  208.6250  152.5700 C   0  0  2  0  0  3  0  0  0  0  0  0
  160.7690  204.3480  151.1240 C   0  0  2  0  0  3  0  0  0  0  0  0
  161.5190  203.2670  151.7420 N   0  0  0  0  0  1  0  0  0  0  0  0
  160.5270  204.0250  149.7870 O   0  0  0  0  0  1  0  0  0  0  0  0
  158.8190  210.6160  154.1720 C   0  0  0  0  0  2  0  0  0  0  0  0
  158.3770  211.6190  155.0330 O   0  0  0  0  0  1  0  0  0  0  0  0
  160.4140  210.9920  151.5740 C   0  0  0  0  0  2  0  0  0  0  0  0
  160.4540  212.4130  151.8880 N   0  0  0  0  0  2  0  0  0  0  0  0
  158.6780  213.9880  152.3980 C   0  0  0  0  0  1  0  0  0  0  0  0
  159.2230  213.0030  151.3820 C   0  0  1  0  0  3  0  0  0  0  0  0
  158.4670  214.1970  147.8640 N   0  0  0  0  0  2  0  0  0  0  0  0
  160.6850  213.2260  149.4100 N   0  0  0  0  0  2  0  0  0  0  0  0
  162.2300  214.1160  145.0790 C   0  0  2  0  0  3  0  0  0  0  0  0
  160.7670  213.6670  144.9660 C   0  0  1  0  0  3  0  0  0  0  0  0
  159.8420  214.4480  145.8860 C   0  0  0  0  0  2  0  0  0  0  0  0
  163.1420  213.0650  144.4710 C   0  0  0  0  0  1  0  0  0  0  0  0
  159.6870  213.7190  147.2150 C   0  0  1  0  0  3  0  0  0  0  0  0
  160.3360  213.8160  143.6470 O   0  0  0  0  0  1  0  0  0  0  0  0
  162.2040  213.4560  147.5380 C   0  0  0  0  0  2  0  0  0  0  0  0
  160.8950  213.9420  148.1520 C   0  0  2  0  0  3  0  0  0  0  0  0
  162.6980  214.4510  146.4980 C   0  0  0  0  0  2  0  0  0  0  0  0
  159.4510  213.6990  150.0410 C   0  0  1  0  0  3  0  0  0  0  0  0
  158.2670  213.4600  149.1090 C   0  0  0  0  0  2  0  0  0  0  0  0
  1 18  1  6  0  0  0
  1  5  1  0  0  0  0
  3  4  1  0  0  0  0
  4  6  2  0  0  0  0
  5 16  1  6  0  0  0
  5  4  1  0  0  0  0
  7  2  1  0  0  0  0
  8 13  1  1  0  0  0
  8  7  1  0  0  0  0
  9 11  1  0  0  0  0
  9  8  1  0  0  0  0
 10  2  1  1  0  0  0
 10  3  1  0  0  0  0
 12 11  1  6  0  0  0
 12  1  1  0  0  0  0
 12 10  1  0  0  0  0
 13 15  1  6  0  0  0
 13 14  1  0  0  0  0
 16 17  1  0  0  0  0
 18 19  1  0  0  0  0
 21 19  1  0  0  0  0
 21 20  1  1  0  0  0
 22 34  1  0  0  0  0
 23 33  1  0  0  0  0
 24 27  1  1  0  0  0
 24 32  1  0  0  0  0
 25 29  1  6  0  0  0
 25 24  1  0  0  0  0
 25 26  1  0  0  0  0
 28 26  1  6  0  0  0
 28 22  1  0  0  0  0
 28 31  1  0  0  0  0
 31 30  1  6  0  0  0
 31 23  1  0  0  0  0
 32 30  1  0  0  0  0
 33 21  1  1  0  0  0
 34 33  1  0  0  0  0
M  END
>  <MODEL>
4

>  <REMARK>
 VINA RESULT:      -6.5      4.176      7.985
  Name = 
  6 active torsions:
  status: ('A' for Active; 'I' for Inactive)
    1  A    between atoms: C_1  and  C_9
    2  A    between atoms: C_3  and  C_25
    3  A    between atoms: N_8  and  C_9
    4  A    between atoms: N_8  and  C_18
    5  A    between atoms: C_10  and  C_20
    6  A    between atoms: C_18  and  C_30
                            x       y       z     vdW  Elec       q    Type
                         _______ _______ _______ _____ _____    ______ ____

>  <TORSDO>
F 6

$$$$
=
 OpenBabel11062409493D

 34 37  0  0  1  0  0  0  0  0999 V2000
  161.6580  210.6480  152.0610 C   0  0  1  0  0  3  0  0  0  0  0  0
  158.6690  213.1050  151.8930 C   0  0  0  0  0  2  0  0  0  0  0  0
  160.5220  212.6630  150.4240 O   0  0  0  0  0  0  0  0  0  0  0  0
  161.5850  211.9130  149.9160 C   0  0  0  0  0  0  0  0  0  0  0  0
  161.9850  210.6200  150.5570 C   0  0  2  0  0  3  0  0  0  0  0  0
  162.1480  212.2780  148.8510 O   0  0  0  0  0  0  0  0  0  0  0  0
  158.4150  213.5890  153.3150 C   0  0  0  0  0  2  0  0  0  0  0  0
  157.8230  212.5100  154.2390 C   0  0  2  0  0  3  0  0  0  0  0  0
  158.4150  211.1060  154.0410 C   0  0  0  0  0  2  0  0  0  0  0  0
  160.0910  212.5710  151.7820 C   0  0  2  0  0  3  0  0  0  0  0  0
  159.9210  211.1170  153.8340 C   0  0  0  0  0  2  0  0  0  0  0  0
  160.2280  211.1430  152.3370 C   0  0  2  0  0  3  0  0  0  0  0  0
  156.2990  212.4680  154.1230 C   0  0  2  0  0  3  0  0  0  0  0  0
  155.7050  213.5530  154.8870 N   0  0  0  0  0  1  0  0  0  0  0  0
  155.8090  211.2520  154.6050 O   0  0  0  0  0  1  0  0  0  0  0  0
  161.2930  209.4800  149.8200 C   0  0  0  0  0  2  0  0  0  0  0  0
  161.9690  209.2060  148.6330 O   0  0  0  0  0  1  0  0  0  0  0  0
  162.0460  209.3570  152.7950 C   0  0  0  0  0  2  0  0  0  0  0  0
  160.9260  208.4290  152.8640 N   0  0  0  0  0  2  0  0  0  0  0  0
  161.1610  206.5130  154.3370 C   0  0  0  0  0  1  0  0  0  0  0  0
  161.4820  207.0880  152.9700 C   0  0  1  0  0  3  0  0  0  0  0  0
  160.5450  203.8540  151.2290 N   0  0  0  0  0  2  0  0  0  0  0  0
  161.5910  206.4510  150.5910 N   0  0  0  0  0  2  0  0  0  0  0  0
  161.2660  204.0140  146.6050 C   0  0  2  0  0  3  0  0  0  0  0  0
  161.5710  203.0190  147.7330 C   0  0  1  0  0  3  0  0  0  0  0  0
  160.6190  203.1570  148.9110 C   0  0  0  0  0  2  0  0  0  0  0  0
  162.4560  204.1140  145.6680 C   0  0  0  0  0  1  0  0  0  0  0  0
  161.2030  204.1080  149.9490 C   0  0  1  0  0  3  0  0  0  0  0  0
  161.5010  201.7170  147.2360 O   0  0  0  0  0  1  0  0  0  0  0  0
  161.6900  205.9290  148.2290 C   0  0  0  0  0  2  0  0  0  0  0  0
  161.0190  205.5910  149.5560 C   0  0  2  0  0  3  0  0  0  0  0  0
  160.8510  205.4130  147.0680 C   0  0  0  0  0  2  0  0  0  0  0  0
  160.9390  206.1740  151.8730 C   0  0  1  0  0  3  0  0  0  0  0  0
  161.1400  204.7100  152.2520 C   0  0  0  0  0  2  0  0  0  0  0  0
  1 12  1  0  0  0  0
  1 18  1  6  0  0  0
  2  7  1  0  0  0  0
  3 10  1  0  0  0  0
  4  3  1  0  0  0  0
  4  5  1  0  0  0  0
  5 16  1  6  0  0  0
  5  1  1  0  0  0  0
  6  4  2  0  0  0  0
  7  8  1  0  0  0  0
  8 13  1  6  0  0  0
  9  8  1  0  0  0  0
 10  2  1  6  0  0  0
 10 12  1  0  0  0  0
 11  9  1  0  0  0  0
 12 11  1  1  0  0  0
 13 15  1  1  0  0  0
 13 14  1  0  0  0  0
 17 16  1  0  0  0  0
 18 19  1  0  0  0  0
 19 21  1  0  0  0  0
 21 20  1  1  0  0  0
 22 34  1  0  0  0  0
 23 33  1  0  0  0  0
 24 27  1  6  0  0  0
 24 32  1  0  0  0  0
 24 25  1  0  0  0  0
 25 29  1  6  0  0  0
 25 26  1  0  0  0  0
 28 26  1  6  0  0  0
 28 22  1  0  0  0  0
 31 30  1  6  0  0  0
 31 28  1  0  0  0  0
 31 23  1  0  0  0  0
 32 30  1  0  0  0  0
 33 34  1  0  0  0  0
 33 21  1  1  0  0  0
M  END
>  <MODEL>
5

>  <REMARK>
 VINA RESULT:      -6.5      2.674      4.056
  Name = 
  6 active torsions:
  status: ('A' for Active; 'I' for Inactive)
    1  A    between atoms: C_1  and  C_9
    2  A    between atoms: C_3  and  C_25
    3  A    between atoms: N_8  and  C_9
    4  A    between atoms: N_8  and  C_18
    5  A    between atoms: C_10  and  C_20
    6  A    between atoms: C_18  and  C_30
                            x       y       z     vdW  Elec       q    Type
                         _______ _______ _______ _____ _____    ______ ____

>  <TORSDO>
F 6

$$$$
=
 OpenBabel11062409493D

 34 37  0  0  1  0  0  0  0  0999 V2000
  160.9140  205.9750  147.3640 C   0  0  1  0  0  3  0  0  0  0  0  0
  160.8460  202.2220  148.3180 C   0  0  0  0  0  2  0  0  0  0  0  0
  160.9710  203.3850  146.2160 O   0  0  0  0  0  0  0  0  0  0  0  0
  161.2080  204.4860  145.3880 C   0  0  0  0  0  0  0  0  0  0  0  0
  161.5520  205.8220  145.9720 C   0  0  2  0  0  3  0  0  0  0  0  0
  161.2280  204.3310  144.1400 O   0  0  0  0  0  0  0  0  0  0  0  0
  159.9010  202.0850  149.5050 C   0  0  0  0  0  2  0  0  0  0  0  0
  160.4570  202.6820  150.8090 C   0  0  2  0  0  3  0  0  0  0  0  0
  161.2190  204.0050  150.6320 C   0  0  0  0  0  2  0  0  0  0  0  0
  160.5440  203.5160  147.5720 C   0  0  2  0  0  3  0  0  0  0  0  0
  160.5520  204.9500  149.6440 C   0  0  0  0  0  2  0  0  0  0  0  0
  161.1600  204.7470  148.2570 C   0  0  2  0  0  3  0  0  0  0  0  0
  161.3240  201.6630  151.5500 C   0  0  2  0  0  3  0  0  0  0  0  0
  162.6570  202.1990  151.7680 N   0  0  0  0  0  1  0  0  0  0  0  0
  161.4250  200.4830  150.8110 O   0  0  0  0  0  1  0  0  0  0  0  0
  163.0700  205.9620  145.9960 C   0  0  0  0  0  2  0  0  0  0  0  0
  163.6580  204.7030  146.1050 O   0  0  0  0  0  1  0  0  0  0  0  0
  161.2150  207.3260  148.0290 C   0  0  0  0  0  2  0  0  0  0  0  0
  162.3020  207.2120  148.9910 N   0  0  0  0  0  2  0  0  0  0  0  0
  162.2890  209.5920  148.5050 C   0  0  0  0  0  1  0  0  0  0  0  0
  162.5070  208.5320  149.5690 C   0  0  1  0  0  3  0  0  0  0  0  0
  160.7430  210.4380  152.3310 N   0  0  0  0  0  2  0  0  0  0  0  0
  161.8560  207.8360  151.8420 N   0  0  0  0  0  2  0  0  0  0  0  0
  160.1210  207.8640  156.1920 C   0  0  2  0  0  3  0  0  0  0  0  0
  160.6190  209.2820  155.8830 C   0  0  1  0  0  3  0  0  0  0  0  0
  160.0670  209.8250  154.5740 C   0  0  0  0  0  2  0  0  0  0  0  0
  160.9950  207.2300  157.2590 C   0  0  0  0  0  1  0  0  0  0  0  0
  161.0310  209.5220  153.4330 C   0  0  1  0  0  3  0  0  0  0  0  0
  160.2600  210.1390  156.9240 O   0  0  0  0  0  1  0  0  0  0  0  0
  161.2120  207.0500  154.0400 C   0  0  0  0  0  2  0  0  0  0  0  0
  160.9150  208.0630  152.9390 C   0  0  2  0  0  3  0  0  0  0  0  0
  160.0210  206.9330  154.9810 C   0  0  0  0  0  2  0  0  0  0  0  0
  161.5700  208.7710  150.7520 C   0  0  1  0  0  3  0  0  0  0  0  0
  161.7010  210.2070  151.2530 C   0  0  0  0  0  2  0  0  0  0  0  0
  1 18  1  1  0  0  0
  1 12  1  0  0  0  0
  2  7  1  0  0  0  0
  3 10  1  0  0  0  0
  4  5  1  0  0  0  0
  4  3  1  0  0  0  0
  5 16  1  1  0  0  0
  5  1  1  0  0  0  0
  6  4  2  0  0  0  0
  7  8  1  0  0  0  0
  8 13  1  6  0  0  0
  9  8  1  0  0  0  0
 10 12  1  0  0  0  0
 10  2  1  1  0  0  0
 11  9  1  0  0  0  0
 12 11  1  1  0  0  0
 13 15  1  6  0  0  0
 13 14  1  0  0  0  0
 16 17  1  0  0  0  0
 18 19  1  0  0  0  0
 19 21  1  0  0  0  0
 21 20  1  6  0  0  0
 22 28  1  0  0  0  0
 23 31  1  0  0  0  0
 24 27  1  1  0  0  0
 25 24  1  0  0  0  0
 25 29  1  1  0  0  0
 26 25  1  0  0  0  0
 28 26  1  1  0  0  0
 30 32  1  0  0  0  0
 31 28  1  0  0  0  0
 31 30  1  1  0  0  0
 32 24  1  0  0  0  0
 33 21  1  6  0  0  0
 33 34  1  0  0  0  0
 33 23  1  0  0  0  0
 34 22  1  0  0  0  0
M  END
>  <MODEL>
6

>  <REMARK>
 VINA RESULT:      -6.4      2.567      9.430
  Name = 
  6 active torsions:
  status: ('A' for Active; 'I' for Inactive)
    1  A    between atoms: C_1  and  C_9
    2  A    between atoms: C_3  and  C_25
    3  A    between atoms: N_8  and  C_9
    4  A    between atoms: N_8  and  C_18
    5  A    between atoms: C_10  and  C_20
    6  A    between atoms: C_18  and  C_30
                            x       y       z     vdW  Elec       q    Type
                         _______ _______ _______ _____ _____    ______ ____

>  <TORSDO>
F 6

$$$$
=
 OpenBabel11062409493D

 34 37  0  0  1  0  0  0  0  0999 V2000
  158.3180  211.1750  155.0270 C   0  0  1  0  0  3  0  0  0  0  0  0
  157.4120  214.2080  152.7960 C   0  0  0  0  0  2  0  0  0  0  0  0
  156.8240  213.5830  155.0430 O   0  0  0  0  0  0  0  0  0  0  0  0
  156.9690  212.8810  156.2430 C   0  0  0  0  0  0  0  0  0  0  0  0
  158.0240  211.8270  156.3900 C   0  0  2  0  0  3  0  0  0  0  0  0
  156.2730  213.2060  157.2390 O   0  0  0  0  0  0  0  0  0  0  0  0
  157.2580  213.6800  151.3750 C   0  0  0  0  0  2  0  0  0  0  0  0
  158.5880  213.2580  150.7260 C   0  0  2  0  0  3  0  0  0  0  0  0
  159.5590  212.5350  151.6710 C   0  0  0  0  0  2  0  0  0  0  0  0
  157.2540  213.0610  153.7860 C   0  0  2  0  0  3  0  0  0  0  0  0
  158.8670  211.5390  152.5890 C   0  0  0  0  0  2  0  0  0  0  0  0
  158.5330  212.2170  153.9170 C   0  0  2  0  0  3  0  0  0  0  0  0
  159.2770  214.4530  150.0660 C   0  0  2  0  0  3  0  0  0  0  0  0
  159.1120  214.3960  148.6220 N   0  0  0  0  0  1  0  0  0  0  0  0
  160.6410  214.4530  150.3660 O   0  0  0  0  0  1  0  0  0  0  0  0
  159.2560  212.4620  157.0240 C   0  0  0  0  0  2  0  0  0  0  0  0
  159.5140  213.6930  156.4230 O   0  0  0  0  0  1  0  0  0  0  0  0
  159.3870  210.0760  155.0950 C   0  0  0  0  0  2  0  0  0  0  0  0
  160.7160  210.6110  154.8370 N   0  0  0  0  0  2  0  0  0  0  0  0
  161.9500  208.9610  156.1210 C   0  0  0  0  0  1  0  0  0  0  0  0
  161.6260  209.4800  154.7330 C   0  0  1  0  0  3  0  0  0  0  0  0
  160.7220  205.9490  153.6880 N   0  0  0  0  0  2  0  0  0  0  0  0
  161.5110  208.4420  152.5000 N   0  0  0  0  0  2  0  0  0  0  0  0
  160.9080  205.3330  149.0500 C   0  0  2  0  0  3  0  0  0  0  0  0
  161.4050  204.5660  150.2830 C   0  0  1  0  0  3  0  0  0  0  0  0
  160.5830  204.8630  151.5280 C   0  0  0  0  0  2  0  0  0  0  0  0
  161.9760  205.3240  147.9710 C   0  0  0  0  0  1  0  0  0  0  0  0
  161.2140  206.0070  152.3120 C   0  0  1  0  0  3  0  0  0  0  0  0
  161.3680  203.1960  150.0240 O   0  0  0  0  0  1  0  0  0  0  0  0
  161.3800  207.5200  150.2650 C   0  0  0  0  0  2  0  0  0  0  0  0
  160.8860  207.3880  151.7010 C   0  0  2  0  0  3  0  0  0  0  0  0
  160.4530  206.7700  149.3190 C   0  0  0  0  0  2  0  0  0  0  0  0
  161.0260  208.3630  153.8790 C   0  0  1  0  0  3  0  0  0  0  0  0
  161.3690  206.9980  154.4720 C   0  0  0  0  0  2  0  0  0  0  0  0
  1 18  1  1  0  0  0
  1  5  1  0  0  0  0
  3  4  1  0  0  0  0
  4  5  1  0  0  0  0
  4  6  2  0  0  0  0
  5 16  1  6  0  0  0
  7  2  1  0  0  0  0
  8 13  1  1  0  0  0
  8  7  1  0  0  0  0
  8  9  1  0  0  0  0
  9 11  1  0  0  0  0
 10  2  1  6  0  0  0
 10 12  1  0  0  0  0
 10  3  1  0  0  0  0
 12 11  1  6  0  0  0
 12  1  1  0  0  0  0
 13 14  1  6  0  0  0
 13 15  1  0  0  0  0
 17 16  1  0  0  0  0
 19 18  1  0  0  0  0
 21 19  1  0  0  0  0
 21 20  1  1  0  0  0
 22 34  1  0  0  0  0
 23 33  1  0  0  0  0
 24 27  1  6  0  0  0
 24 32  1  0  0  0  0
 24 25  1  0  0  0  0
 25 29  1  6  0  0  0
 25 26  1  0  0  0  0
 28 26  1  6  0  0  0
 28 22  1  0  0  0  0
 31 30  1  6  0  0  0
 31 28  1  0  0  0  0
 31 23  1  0  0  0  0
 32 30  1  0  0  0  0
 33 34  1  0  0  0  0
 33 21  1  1  0  0  0
M  END
>  <MODEL>
7

>  <REMARK>
 VINA RESULT:      -6.4      2.636      4.430
  Name = 
  6 active torsions:
  status: ('A' for Active; 'I' for Inactive)
    1  A    between atoms: C_1  and  C_9
    2  A    between atoms: C_3  and  C_25
    3  A    between atoms: N_8  and  C_9
    4  A    between atoms: N_8  and  C_18
    5  A    between atoms: C_10  and  C_20
    6  A    between atoms: C_18  and  C_30
                            x       y       z     vdW  Elec       q    Type
                         _______ _______ _______ _____ _____    ______ ____

>  <TORSDO>
F 6

$$$$
=
 OpenBabel11062409493D

 34 37  0  0  1  0  0  0  0  0999 V2000
  160.2500  209.7690  154.1850 C   0  0  1  0  0  3  0  0  0  0  0  0
  158.8000  213.1620  153.0100 C   0  0  0  0  0  2  0  0  0  0  0  0
  158.8450  212.0390  155.1370 O   0  0  0  0  0  0  0  0  0  0  0  0
  159.3060  211.1030  156.0660 C   0  0  0  0  0  0  0  0  0  0  0  0
  160.3480  210.0960  155.6860 C   0  0  2  0  0  3  0  0  0  0  0  0
  158.9140  211.1690  157.2600 O   0  0  0  0  0  0  0  0  0  0  0  0
  158.2560  212.9470  151.6040 C   0  0  0  0  0  2  0  0  0  0  0  0
  159.3500  212.7420  150.5430 C   0  0  2  0  0  3  0  0  0  0  0  0
  160.5350  211.8810  151.0060 C   0  0  0  0  0  2  0  0  0  0  0  0
  158.9070  211.8220  153.7270 C   0  0  2  0  0  3  0  0  0  0  0  0
  160.1110  210.6770  151.8320 C   0  0  0  0  0  2  0  0  0  0  0  0
  160.1630  211.0350  153.3170 C   0  0  2  0  0  3  0  0  0  0  0  0
  159.8450  214.0840  150.0020 C   0  0  2  0  0  3  0  0  0  0  0  0
  159.1220  214.4380  148.7920 N   0  0  0  0  0  1  0  0  0  0  0  0
  161.2100  214.0170  149.7120 O   0  0  0  0  0  1  0  0  0  0  0  0
  161.7140  210.6400  156.0870 C   0  0  0  0  0  2  0  0  0  0  0  0
  162.3870  209.6990  156.8640 O   0  0  0  0  0  1  0  0  0  0  0  0
  161.2830  208.7350  153.7160 C   0  0  0  0  0  2  0  0  0  0  0  0
  160.7870  207.9650  152.5850 N   0  0  0  0  0  2  0  0  0  0  0  0
  161.1230  205.5740  152.8440 C   0  0  0  0  0  1  0  0  0  0  0  0
  161.7280  206.8770  152.3580 C   0  0  1  0  0  3  0  0  0  0  0  0
  161.9810  207.8750  148.7090 N   0  0  0  0  0  2  0  0  0  0  0  0
  161.5950  205.5190  150.3050 N   0  0  0  0  0  2  0  0  0  0  0  0
  161.5520  204.2290  145.8020 C   0  0  2  0  0  3  0  0  0  0  0  0
  160.9690  205.6460  145.8840 C   0  0  1  0  0  3  0  0  0  0  0  0
  161.8670  206.6060  146.6490 C   0  0  0  0  0  2  0  0  0  0  0  0
  160.4660  203.2450  145.4050 C   0  0  0  0  0  1  0  0  0  0  0  0
  161.4650  206.6410  148.1190 C   0  0  1  0  0  3  0  0  0  0  0  0
  160.7620  206.1390  144.5960 O   0  0  0  0  0  1  0  0  0  0  0  0
  161.4980  204.1000  148.3450 C   0  0  0  0  0  2  0  0  0  0  0  0
  162.0060  205.4250  148.9040 C   0  0  2  0  0  3  0  0  0  0  0  0
  162.2550  203.7420  147.0730 C   0  0  0  0  0  2  0  0  0  0  0  0
  162.1010  206.7670  150.8800 C   0  0  1  0  0  3  0  0  0  0  0  0
  161.5480  207.9580  150.1010 C   0  0  0  0  0  2  0  0  0  0  0  0
  1 18  1  6  0  0  0
  1  5  1  0  0  0  0
  3  4  1  0  0  0  0
  4  6  2  0  0  0  0
  5  4  1  0  0  0  0
  5 16  1  6  0  0  0
  7  2  1  0  0  0  0
  8 13  1  1  0  0  0
  8  9  1  0  0  0  0
  8  7  1  0  0  0  0
  9 11  1  0  0  0  0
 10  2  1  6  0  0  0
 10  3  1  0  0  0  0
 12 11  1  6  0  0  0
 12 10  1  0  0  0  0
 12  1  1  0  0  0  0
 13 14  1  6  0  0  0
 15 13  1  0  0  0  0
 16 17  1  0  0  0  0
 19 18  1  0  0  0  0
 21 19  1  0  0  0  0
 21 20  1  6  0  0  0
 22 34  1  0  0  0  0
 23 33  1  0  0  0  0
 24 27  1  1  0  0  0
 24 25  1  0  0  0  0
 24 32  1  0  0  0  0
 25 29  1  6  0  0  0
 25 26  1  0  0  0  0
 28 26  1  6  0  0  0
 28 22  1  0  0  0  0
 28 31  1  0  0  0  0
 31 30  1  6  0  0  0
 31 23  1  0  0  0  0
 32 30  1  0  0  0  0
 33 21  1  1  0  0  0
 34 33  1  0  0  0  0
M  END
>  <MODEL>
8

>  <REMARK>
 VINA RESULT:      -6.3      2.602      3.458
  Name = 
  6 active torsions:
  status: ('A' for Active; 'I' for Inactive)
    1  A    between atoms: C_1  and  C_9
    2  A    between atoms: C_3  and  C_25
    3  A    between atoms: N_8  and  C_9
    4  A    between atoms: N_8  and  C_18
    5  A    between atoms: C_10  and  C_20
    6  A    between atoms: C_18  and  C_30
                            x       y       z     vdW  Elec       q    Type
                         _______ _______ _______ _____ _____    ______ ____

>  <TORSDO>
F 6

$$$$
=
 OpenBabel11062409493D

 34 37  0  0  1  0  0  0  0  0999 V2000
  160.3710  210.4800  154.0290 C   0  0  1  0  0  3  0  0  0  0  0  0
  157.1970  211.5130  155.9930 C   0  0  0  0  0  2  0  0  0  0  0  0
  158.9050  209.8610  156.3740 O   0  0  0  0  0  0  0  0  0  0  0  0
  160.1590  209.2710  156.1980 C   0  0  0  0  0  0  0  0  0  0  0  0
  161.1280  209.8190  155.1950 C   0  0  2  0  0  3  0  0  0  0  0  0
  160.5160  208.3330  156.9560 O   0  0  0  0  0  0  0  0  0  0  0  0
  156.1290  211.8500  154.9610 C   0  0  0  0  0  2  0  0  0  0  0  0
  156.4030  213.1530  154.1910 C   0  0  2  0  0  3  0  0  0  0  0  0
  157.8760  213.3750  153.8150 C   0  0  0  0  0  2  0  0  0  0  0  0
  158.2630  210.6300  155.3560 C   0  0  2  0  0  3  0  0  0  0  0  0
  158.5680  212.1080  153.3380 C   0  0  0  0  0  2  0  0  0  0  0  0
  159.2690  211.4350  154.5170 C   0  0  2  0  0  3  0  0  0  0  0  0
  155.8590  214.3620  154.9530 C   0  0  2  0  0  3  0  0  0  0  0  0
  156.1630  214.2440  156.3700 N   0  0  0  0  0  1  0  0  0  0  0  0
  154.4750  214.4530  154.7940 O   0  0  0  0  0  1  0  0  0  0  0  0
  162.0730  210.7770  155.9090 C   0  0  0  0  0  2  0  0  0  0  0  0
  163.0920  210.0590  156.5330 O   0  0  0  0  0  1  0  0  0  0  0  0
  161.2970  211.0610  152.9510 C   0  0  0  0  0  2  0  0  0  0  0  0
  160.7680  210.8280  151.6150 N   0  0  0  0  0  2  0  0  0  0  0  0
  162.9470  209.7700  151.7870 C   0  0  0  0  0  1  0  0  0  0  0  0
  161.7760  210.0830  150.8760 C   0  0  1  0  0  3  0  0  0  0  0  0
  160.7170  206.4450  150.7600 N   0  0  0  0  0  2  0  0  0  0  0  0
  161.8610  208.4400  149.0400 N   0  0  0  0  0  2  0  0  0  0  0  0
  161.4420  204.4810  146.5720 C   0  0  2  0  0  3  0  0  0  0  0  0
  161.7090  204.0910  148.0320 C   0  0  1  0  0  3  0  0  0  0  0  0
  160.7630  204.7770  149.0050 C   0  0  0  0  0  2  0  0  0  0  0  0
  162.6340  204.1080  145.7100 C   0  0  0  0  0  1  0  0  0  0  0  0
  161.3830  206.0730  149.5140 C   0  0  1  0  0  3  0  0  0  0  0  0
  161.5900  202.7080  148.1730 O   0  0  0  0  0  1  0  0  0  0  0  0
  161.9390  206.9060  147.1670 C   0  0  0  0  0  2  0  0  0  0  0  0
  161.2560  207.2250  148.4930 C   0  0  2  0  0  3  0  0  0  0  0  0
  161.0800  205.9520  146.3490 C   0  0  0  0  0  2  0  0  0  0  0  0
  161.1980  208.7920  150.2980 C   0  0  1  0  0  3  0  0  0  0  0  0
  161.3450  207.6490  151.2980 C   0  0  0  0  0  2  0  0  0  0  0  0
  1 18  1  1  0  0  0
  1 12  1  0  0  0  0
  1  5  1  0  0  0  0
  4  3  1  0  0  0  0
  4  6  2  0  0  0  0
  5 16  1  1  0  0  0
  5  4  1  0  0  0  0
  7  2  1  0  0  0  0
  8 13  1  1  0  0  0
  8  7  1  0  0  0  0
  9  8  1  0  0  0  0
 10  2  1  1  0  0  0
 10  3  1  0  0  0  0
 11  9  1  0  0  0  0
 12 11  1  6  0  0  0
 12 10  1  0  0  0  0
 13 15  1  1  0  0  0
 13 14  1  0  0  0  0
 16 17  1  0  0  0  0
 19 18  1  0  0  0  0
 21 19  1  0  0  0  0
 21 20  1  1  0  0  0
 22 34  1  0  0  0  0
 23 33  1  0  0  0  0
 24 27  1  6  0  0  0
 24 25  1  0  0  0  0
 25 29  1  6  0  0  0
 25 26  1  0  0  0  0
 28 26  1  6  0  0  0
 28 22  1  0  0  0  0
 31 30  1  6  0  0  0
 31 23  1  0  0  0  0
 31 28  1  0  0  0  0
 32 24  1  0  0  0  0
 32 30  1  0  0  0  0
 33 21  1  1  0  0  0
 33 34  1  0  0  0  0
M  END
>  <MODEL>
9

>  <REMARK>
 VINA RESULT:      -6.2      1.291      2.092
  Name = 
  6 active torsions:
  status: ('A' for Active; 'I' for Inactive)
    1  A    between atoms: C_1  and  C_9
    2  A    between atoms: C_3  and  C_25
    3  A    between atoms: N_8  and  C_9
    4  A    between atoms: N_8  and  C_18
    5  A    between atoms: C_10  and  C_20
    6  A    between atoms: C_18  and  C_30
                            x       y       z     vdW  Elec       q    Type
                         _______ _______ _______ _____ _____    ______ ____

>  <TORSDO>
F 6

$$$$
