=
 OpenBabel11052422203D

 25 28  0  0  1  0  0  0  0  0999 V2000
  160.0690  210.5790  154.5600 C   0  0  2  0  0  0  0  0  0  0  0  0
  160.1030  209.3180  153.6770 C   0  0  1  0  0  3  0  0  0  0  0  0
  160.6380  208.8470  156.5350 C   0  0  0  0  0  2  0  0  0  0  0  0
  159.0410  211.6480  154.1730 C   0  0  0  0  0  2  0  0  0  0  0  0
  157.3690  212.5240  157.2610 N   0  0  0  0  0  1  0  0  0  0  0  0
  160.3750  207.7380  155.5120 C   0  0  0  0  0  2  0  0  0  0  0  0
  158.4600  212.1280  156.3890 C   0  0  2  0  0  3  0  0  0  0  0  0
  157.9250  211.6790  155.1120 N   0  0  0  0  0  2  0  0  0  0  0  0
  160.8940  207.2030  153.0590 C   0  0  2  0  0  3  0  0  0  0  0  0
  162.0090  206.1700  153.1630 C   0  0  0  0  0  1  0  0  0  0  0  0
  160.5120  209.4880  152.2330 C   0  0  0  0  0  2  0  0  0  0  0  0
  161.2370  211.1310  155.3940 C   0  0  1  0  0  3  0  0  0  0  0  0
  160.1680  210.2490  156.0690 C   0  0  1  0  0  0  0  0  0  0  0  0
  159.2510  211.0020  157.0440 C   0  0  0  0  0  2  0  0  0  0  0  0
  162.5700  210.4540  155.0960 C   0  0  0  0  0  1  0  0  0  0  0  0
  160.9280  208.0810  151.7850 C   0  0  1  0  0  3  0  0  0  0  0  0
  160.9490  208.1930  154.1900 C   0  0  1  0  0  3  0  0  0  0  0  0
  162.3040  208.1510  151.1200 C   0  0  0  0  0  2  0  0  0  0  0  0
  162.2470  207.6640  149.6810 C   0  0  0  0  0  2  0  0  0  0  0  0
  160.9540  206.9090  149.4210 C   0  0  0  0  0  2  0  0  0  0  0  0
  161.1150  205.9730  148.2340 C   0  0  0  0  0  2  0  0  0  0  0  0
  161.1910  204.5160  148.6740 C   0  0  0  0  0  2  0  0  0  0  0  0
  160.8010  204.3540  150.1380 C   0  0  0  0  0  2  0  0  0  0  0  0
  160.8150  202.8930  150.5580 C   0  0  0  0  0  2  0  0  0  0  0  0
  161.2090  202.7830  151.8910 O   0  0  0  0  0  1  0  0  0  0  0  0
  1  4  1  6  0  0  0
  1 12  1  0  0  0  0
  1 13  1  0  0  0  0
  2 11  1  6  0  0  0
  2 17  1  0  0  0  0
  2  1  1  0  0  0  0
  4  8  1  0  0  0  0
  6  3  1  0  0  0  0
  7 14  1  0  0  0  0
  7  5  1  1  0  0  0
  8  7  1  0  0  0  0
  9 10  1  6  0  0  0
  9 17  1  0  0  0  0
 12 15  1  6  0  0  0
 12 13  1  0  0  0  0
 13  3  1  1  0  0  0
 13 14  1  0  0  0  0
 16 18  1  1  0  0  0
 16 11  1  0  0  0  0
 16  9  1  0  0  0  0
 17  6  1  1  0  0  0
 19 18  1  0  0  0  0
 20 19  1  0  0  0  0
 21 22  1  0  0  0  0
 21 20  1  0  0  0  0
 22 23  1  0  0  0  0
 23 24  1  0  0  0  0
 24 25  1  0  0  0  0
M  END
>  <MODEL>
1

>  <REMARK>
 VINA RESULT:      -7.0      0.000      0.000
  Name = 
  7 active torsions:
  status: ('A' for Active; 'I' for Inactive)
    1  A    between atoms: C_2  and  C_7
    2  A    between atoms: C_2  and  C_25
    3  A    between atoms: C_6  and  C_15
    4  A    between atoms: C_6  and  C_21
    5  A    between atoms: C_15  and  C_20
    6  A    between atoms: C_20  and  C_23
    7  A    between atoms: C_21  and  C_25
                            x       y       z     vdW  Elec       q    Type
                         _______ _______ _______ _____ _____    ______ ____

>  <TORSDO>
F 7

$$$$
=
 OpenBabel11052422203D

 25 28  0  0  1  0  0  0  0  0999 V2000
  161.4490  203.6050  147.5730 C   0  0  2  0  0  0  0  0  0  0  0  0
  160.9440  204.6520  148.5810 C   0  0  1  0  0  3  0  0  0  0  0  0
  161.0990  205.5880  145.7930 C   0  0  0  0  0  2  0  0  0  0  0  0
  161.0290  202.1540  147.8360 C   0  0  0  0  0  2  0  0  0  0  0  0
  159.8170  200.9200  144.6580 N   0  0  0  0  0  1  0  0  0  0  0  0
  160.4030  206.3530  146.9230 C   0  0  0  0  0  2  0  0  0  0  0  0
  160.6430  201.6800  145.5770 C   0  0  2  0  0  3  0  0  0  0  0  0
  160.0130  201.7130  146.8880 N   0  0  0  0  0  2  0  0  0  0  0  0
  160.7180  206.8250  149.4240 C   0  0  2  0  0  3  0  0  0  0  0  0
  161.2420  208.2550  149.4380 C   0  0  0  0  0  1  0  0  0  0  0  0
  161.4410  204.5460  150.0040 C   0  0  0  0  0  2  0  0  0  0  0  0
  162.7070  203.7250  146.6980 C   0  0  1  0  0  3  0  0  0  0  0  0
  161.3300  204.0880  146.1070 C   0  0  1  0  0  0  0  0  0  0  0  0
  160.8160  203.1000  145.0500 C   0  0  0  0  0  2  0  0  0  0  0  0
  163.6020  204.9000  147.0770 C   0  0  0  0  0  1  0  0  0  0  0  0
  161.1930  205.9380  150.6000 C   0  0  1  0  0  3  0  0  0  0  0  0
  161.1710  206.0820  148.1970 C   0  0  1  0  0  3  0  0  0  0  0  0
  162.4760  206.4350  151.2680 C   0  0  0  0  0  2  0  0  0  0  0  0
  162.4160  206.2640  152.7770 C   0  0  0  0  0  2  0  0  0  0  0  0
  161.0470  206.6570  153.3070 C   0  0  0  0  0  2  0  0  0  0  0  0
  161.1850  207.4660  154.5870 C   0  0  0  0  0  2  0  0  0  0  0  0
  160.6370  208.8780  154.4220 C   0  0  0  0  0  2  0  0  0  0  0  0
  160.4760  209.2450  152.9520 C   0  0  0  0  0  2  0  0  0  0  0  0
  161.3520  210.4280  152.5750 C   0  0  0  0  0  2  0  0  0  0  0  0
  162.5800  209.9780  152.0900 O   0  0  0  0  0  1  0  0  0  0  0  0
  1  4  1  1  0  0  0
  1  2  1  0  0  0  0
  2 11  1  1  0  0  0
  3 13  1  0  0  0  0
  3  6  1  0  0  0  0
  7  5  1  6  0  0  0
  7  8  1  0  0  0  0
  8  4  1  0  0  0  0
  9 10  1  1  0  0  0
  9 16  1  0  0  0  0
 11 16  1  0  0  0  0
 12 15  1  1  0  0  0
 12  1  1  0  0  0  0
 13 14  1  6  0  0  0
 13 12  1  0  0  0  0
 13  1  1  0  0  0  0
 14  7  1  0  0  0  0
 16 18  1  6  0  0  0
 17  6  1  6  0  0  0
 17  2  1  0  0  0  0
 17  9  1  0  0  0  0
 18 19  1  0  0  0  0
 19 20  1  0  0  0  0
 20 21  1  0  0  0  0
 22 21  1  0  0  0  0
 23 22  1  0  0  0  0
 24 23  1  0  0  0  0
 25 24  1  0  0  0  0
M  END
>  <MODEL>
2

>  <REMARK>
 VINA RESULT:      -6.9      4.645      9.257
  Name = 
  7 active torsions:
  status: ('A' for Active; 'I' for Inactive)
    1  A    between atoms: C_2  and  C_7
    2  A    between atoms: C_2  and  C_25
    3  A    between atoms: C_6  and  C_15
    4  A    between atoms: C_6  and  C_21
    5  A    between atoms: C_15  and  C_20
    6  A    between atoms: C_20  and  C_23
    7  A    between atoms: C_21  and  C_25
                            x       y       z     vdW  Elec       q    Type
                         _______ _______ _______ _____ _____    ______ ____

>  <TORSDO>
F 7

$$$$
=
 OpenBabel11052422203D

 25 28  0  0  1  0  0  0  0  0999 V2000
  161.4180  207.1290  151.6120 C   0  0  2  0  0  0  0  0  0  0  0  0
  160.7960  206.2990  150.4740 C   0  0  1  0  0  3  0  0  0  0  0  0
  161.1050  204.8660  153.0280 C   0  0  0  0  0  2  0  0  0  0  0  0
  161.0460  208.6150  151.6470 C   0  0  0  0  0  2  0  0  0  0  0  0
  160.1170  209.2870  155.0800 N   0  0  0  0  0  1  0  0  0  0  0  0
  160.2980  204.3420  151.8370 C   0  0  0  0  0  2  0  0  0  0  0  0
  160.8420  208.6810  153.9780 C   0  0  2  0  0  3  0  0  0  0  0  0
  160.1200  208.9080  152.7350 N   0  0  0  0  0  2  0  0  0  0  0  0
  160.4150  204.3250  149.2750 C   0  0  2  0  0  3  0  0  0  0  0  0
  160.8710  202.9050  148.9640 C   0  0  0  0  0  1  0  0  0  0  0  0
  161.1960  206.6470  149.0600 C   0  0  0  0  0  2  0  0  0  0  0  0
  162.7280  206.8120  152.3520 C   0  0  1  0  0  3  0  0  0  0  0  0
  161.3810  206.3900  152.9720 C   0  0  1  0  0  0  0  0  0  0  0  0
  160.9870  207.1840  154.2260 C   0  0  0  0  0  2  0  0  0  0  0  0
  163.5400  205.6980  151.6990 C   0  0  0  0  0  1  0  0  0  0  0  0
  160.8450  205.3960  148.2440 C   0  0  1  0  0  3  0  0  0  0  0  0
  160.9860  204.8170  150.5770 C   0  0  1  0  0  3  0  0  0  0  0  0
  162.0550  204.9890  147.4010 C   0  0  0  0  0  2  0  0  0  0  0  0
  162.0970  205.7560  146.0890 C   0  0  0  0  0  2  0  0  0  0  0  0
  161.3060  205.0270  145.0160 C   0  0  0  0  0  2  0  0  0  0  0  0
  161.3480  203.5260  145.2530 C   0  0  0  0  0  2  0  0  0  0  0  0
  160.0520  202.8520  144.8190 C   0  0  0  0  0  2  0  0  0  0  0  0
  160.0910  201.3510  145.0780 C   0  0  0  0  0  2  0  0  0  0  0  0
  160.9160  201.0200  146.3100 C   0  0  0  0  0  2  0  0  0  0  0  0
  161.2810  199.6750  146.2950 O   0  0  0  0  0  1  0  0  0  0  0  0
  1  4  1  1  0  0  0
  1 12  1  0  0  0  0
  1 13  1  0  0  0  0
  2 11  1  6  0  0  0
  2 17  1  0  0  0  0
  2  1  1  0  0  0  0
  4  8  1  0  0  0  0
  6  3  1  0  0  0  0
  7 14  1  0  0  0  0
  7  5  1  1  0  0  0
  8  7  1  0  0  0  0
  9 10  1  6  0  0  0
  9 17  1  0  0  0  0
 12 15  1  6  0  0  0
 12 13  1  0  0  0  0
 13  3  1  6  0  0  0
 13 14  1  0  0  0  0
 16 18  1  1  0  0  0
 16 11  1  0  0  0  0
 16  9  1  0  0  0  0
 17  6  1  1  0  0  0
 19 18  1  0  0  0  0
 20 21  1  0  0  0  0
 20 19  1  0  0  0  0
 22 23  1  0  0  0  0
 22 21  1  0  0  0  0
 23 24  1  0  0  0  0
 25 24  1  0  0  0  0
M  END
>  <MODEL>
3

>  <REMARK>
 VINA RESULT:      -6.7      2.714      4.926
  Name = 
  7 active torsions:
  status: ('A' for Active; 'I' for Inactive)
    1  A    between atoms: C_2  and  C_7
    2  A    between atoms: C_2  and  C_25
    3  A    between atoms: C_6  and  C_15
    4  A    between atoms: C_6  and  C_21
    5  A    between atoms: C_15  and  C_20
    6  A    between atoms: C_20  and  C_23
    7  A    between atoms: C_21  and  C_25
                            x       y       z     vdW  Elec       q    Type
                         _______ _______ _______ _____ _____    ______ ____

>  <TORSDO>
F 7

$$$$
=
 OpenBabel11052422203D

 25 28  0  0  1  0  0  0  0  0999 V2000
  160.0410  210.5880  154.4940 C   0  0  2  0  0  0  0  0  0  0  0  0
  160.0810  209.3130  153.6330 C   0  0  1  0  0  3  0  0  0  0  0  0
  160.4870  208.8750  156.5170 C   0  0  0  0  0  2  0  0  0  0  0  0
  159.0550  211.6740  154.0500 C   0  0  0  0  0  2  0  0  0  0  0  0
  157.2800  212.6370  157.0530 N   0  0  0  0  0  1  0  0  0  0  0  0
  160.2400  207.7560  155.5000 C   0  0  0  0  0  2  0  0  0  0  0  0
  158.3960  212.2030  156.2330 C   0  0  2  0  0  3  0  0  0  0  0  0
  157.9030  211.7460  154.9410 N   0  0  0  0  0  2  0  0  0  0  0  0
  160.8460  207.1710  153.0780 C   0  0  2  0  0  3  0  0  0  0  0  0
  161.9310  206.1140  153.2440 C   0  0  0  0  0  1  0  0  0  0  0  0
  160.5530  209.4510  152.2050 C   0  0  0  0  0  2  0  0  0  0  0  0
  161.1870  211.1260  155.3680 C   0  0  1  0  0  3  0  0  0  0  0  0
  160.0700  210.2800  156.0110 C   0  0  1  0  0  0  0  0  0  0  0  0
  159.1320  211.0680  156.9370 C   0  0  0  0  0  2  0  0  0  0  0  0
  162.5140  210.4130  155.1360 C   0  0  0  0  0  1  0  0  0  0  0  0
  160.9530  208.0280  151.7940 C   0  0  1  0  0  3  0  0  0  0  0  0
  160.8780  208.1770  154.1960 C   0  0  1  0  0  3  0  0  0  0  0  0
  162.3560  208.0550  151.1860 C   0  0  0  0  0  2  0  0  0  0  0  0
  162.3350  207.6250  149.7280 C   0  0  0  0  0  2  0  0  0  0  0  0
  161.0450  206.8900  149.4050 C   0  0  0  0  0  2  0  0  0  0  0  0
  161.2740  205.3870  149.4110 C   0  0  0  0  0  2  0  0  0  0  0  0
  161.0900  204.7840  148.0240 C   0  0  0  0  0  2  0  0  0  0  0  0
  162.1170  205.3280  147.0380 C   0  0  0  0  0  2  0  0  0  0  0  0
  161.4940  205.5980  145.6790 C   0  0  0  0  0  2  0  0  0  0  0  0
  160.2990  206.3010  145.8310 O   0  0  0  0  0  1  0  0  0  0  0  0
  1  4  1  6  0  0  0
  1 12  1  0  0  0  0
  1 13  1  0  0  0  0
  2 11  1  6  0  0  0
  2 17  1  0  0  0  0
  2  1  1  0  0  0  0
  4  8  1  0  0  0  0
  6  3  1  0  0  0  0
  7 14  1  0  0  0  0
  7  5  1  1  0  0  0
  8  7  1  0  0  0  0
  9 10  1  1  0  0  0
  9 17  1  0  0  0  0
 12 15  1  6  0  0  0
 12 13  1  0  0  0  0
 13  3  1  1  0  0  0
 13 14  1  0  0  0  0
 16 18  1  1  0  0  0
 16 11  1  0  0  0  0
 16  9  1  0  0  0  0
 17  6  1  1  0  0  0
 19 18  1  0  0  0  0
 20 21  1  0  0  0  0
 20 19  1  0  0  0  0
 22 21  1  0  0  0  0
 23 22  1  0  0  0  0
 24 25  1  0  0  0  0
 24 23  1  0  0  0  0
M  END
>  <MODEL>
4

>  <REMARK>
 VINA RESULT:      -6.6      1.572      1.963
  Name = 
  7 active torsions:
  status: ('A' for Active; 'I' for Inactive)
    1  A    between atoms: C_2  and  C_7
    2  A    between atoms: C_2  and  C_25
    3  A    between atoms: C_6  and  C_15
    4  A    between atoms: C_6  and  C_21
    5  A    between atoms: C_15  and  C_20
    6  A    between atoms: C_20  and  C_23
    7  A    between atoms: C_21  and  C_25
                            x       y       z     vdW  Elec       q    Type
                         _______ _______ _______ _____ _____    ______ ____

>  <TORSDO>
F 7

$$$$
=
 OpenBabel11052422203D

 25 28  0  0  1  0  0  0  0  0999 V2000
  158.2380  211.3850  155.2420 C   0  0  2  0  0  0  0  0  0  0  0  0
  159.1550  210.5570  156.1600 C   0  0  1  0  0  3  0  0  0  0  0  0
  159.8870  213.3990  155.9110 C   0  0  0  0  0  2  0  0  0  0  0  0
  156.7520  211.0090  155.2550 C   0  0  0  0  0  2  0  0  0  0  0  0
  154.9790  214.1430  155.6180 N   0  0  0  0  0  1  0  0  0  0  0  0
  160.4870  212.4400  156.9440 C   0  0  0  0  0  2  0  0  0  0  0  0
  156.0180  213.2300  155.1790 C   0  0  2  0  0  3  0  0  0  0  0  0
  155.9560  212.0050  155.9620 N   0  0  0  0  0  2  0  0  0  0  0  0
  161.2150  209.9880  157.1180 C   0  0  2  0  0  3  0  0  0  0  0  0
  162.7340  210.0760  157.0390 C   0  0  0  0  0  1  0  0  0  0  0  0
  159.3090  209.0870  155.8500 C   0  0  0  0  0  2  0  0  0  0  0  0
  158.6670  212.1290  153.9670 C   0  0  1  0  0  3  0  0  0  0  0  0
  158.5530  212.8990  155.2980 C   0  0  1  0  0  0  0  0  0  0  0  0
  157.3820  213.8900  155.3570 C   0  0  0  0  0  2  0  0  0  0  0  0
  160.0820  211.7890  153.5120 C   0  0  0  0  0  1  0  0  0  0  0  0
  160.6020  208.6770  156.5680 C   0  0  1  0  0  3  0  0  0  0  0  0
  160.5540  211.0710  156.3080 C   0  0  1  0  0  3  0  0  0  0  0  0
  161.5110  207.9360  155.5860 C   0  0  0  0  0  2  0  0  0  0  0  0
  160.7020  207.2340  154.5070 C   0  0  0  0  0  2  0  0  0  0  0  0
  161.1140  207.7200  153.1280 C   0  0  0  0  0  2  0  0  0  0  0  0
  161.2530  206.5460  152.1710 C   0  0  0  0  0  2  0  0  0  0  0  0
  161.2010  205.2120  152.9060 C   0  0  0  0  0  2  0  0  0  0  0  0
  161.3580  204.0400  151.9450 C   0  0  0  0  0  2  0  0  0  0  0  0
  161.0130  204.4400  150.5200 C   0  0  0  0  0  2  0  0  0  0  0  0
  160.6470  203.3140  149.7830 O   0  0  0  0  0  1  0  0  0  0  0  0
  1  4  1  1  0  0  0
  1 13  1  0  0  0  0
  1  2  1  0  0  0  0
  2 11  1  6  0  0  0
  2 17  1  0  0  0  0
  3  6  1  0  0  0  0
  4  8  1  0  0  0  0
  7 14  1  0  0  0  0
  7  5  1  1  0  0  0
  7  8  1  0  0  0  0
  9 10  1  6  0  0  0
 11 16  1  0  0  0  0
 12 15  1  1  0  0  0
 12  1  1  0  0  0  0
 12 13  1  0  0  0  0
 13 14  1  1  0  0  0
 13  3  1  0  0  0  0
 16 18  1  6  0  0  0
 16  9  1  0  0  0  0
 17  6  1  1  0  0  0
 17  9  1  0  0  0  0
 19 18  1  0  0  0  0
 20 19  1  0  0  0  0
 21 22  1  0  0  0  0
 21 20  1  0  0  0  0
 23 22  1  0  0  0  0
 24 23  1  0  0  0  0
 25 24  1  0  0  0  0
M  END
>  <MODEL>
5

>  <REMARK>
 VINA RESULT:      -5.4      1.724      3.728
  Name = 
  7 active torsions:
  status: ('A' for Active; 'I' for Inactive)
    1  A    between atoms: C_2  and  C_7
    2  A    between atoms: C_2  and  C_25
    3  A    between atoms: C_6  and  C_15
    4  A    between atoms: C_6  and  C_21
    5  A    between atoms: C_15  and  C_20
    6  A    between atoms: C_20  and  C_23
    7  A    between atoms: C_21  and  C_25
                            x       y       z     vdW  Elec       q    Type
                         _______ _______ _______ _____ _____    ______ ____

>  <TORSDO>
F 7

$$$$
=
 OpenBabel11052422203D

 25 28  0  0  1  0  0  0  0  0999 V2000
  161.3940  203.7280  147.0450 C   0  0  2  0  0  0  0  0  0  0  0  0
  160.9630  204.9350  147.8980 C   0  0  1  0  0  3  0  0  0  0  0  0
  161.1800  205.4700  145.0100 C   0  0  0  0  0  2  0  0  0  0  0  0
  160.8750  202.3590  147.5000 C   0  0  0  0  0  2  0  0  0  0  0  0
  159.5770  200.7900  144.5080 N   0  0  0  0  0  1  0  0  0  0  0  0
  160.5400  206.4280  146.0200 C   0  0  0  0  0  2  0  0  0  0  0  0
  160.4550  201.6090  145.3220 C   0  0  2  0  0  3  0  0  0  0  0  0
  159.8290  201.8640  146.6120 N   0  0  0  0  0  2  0  0  0  0  0  0
  160.8890  207.2120  148.4360 C   0  0  2  0  0  3  0  0  0  0  0  0
  161.5100  208.5920  148.2600 C   0  0  0  0  0  1  0  0  0  0  0  0
  161.4530  204.9900  149.3260 C   0  0  0  0  0  2  0  0  0  0  0  0
  162.6570  203.6410  146.1720 C   0  0  1  0  0  3  0  0  0  0  0  0
  161.3080  204.0140  145.5260 C   0  0  1  0  0  0  0  0  0  0  0  0
  160.7250  202.9300  144.6090 C   0  0  0  0  0  2  0  0  0  0  0  0
  163.6300  204.7930  146.3960 C   0  0  0  0  0  1  0  0  0  0  0  0
  161.3030  206.4640  149.7250 C   0  0  1  0  0  3  0  0  0  0  0  0
  161.2880  206.2800  147.3240 C   0  0  1  0  0  3  0  0  0  0  0  0
  162.6180  206.9580  150.3300 C   0  0  0  0  0  2  0  0  0  0  0  0
  162.6960  206.6420  151.8150 C   0  0  0  0  0  2  0  0  0  0  0  0
  161.3090  206.3940  152.3840 C   0  0  0  0  0  2  0  0  0  0  0  0
  161.2740  205.0780  153.1440 C   0  0  0  0  0  2  0  0  0  0  0  0
  160.6290  203.9700  152.3200 C   0  0  0  0  0  2  0  0  0  0  0  0
  161.5830  202.7990  152.1170 C   0  0  0  0  0  2  0  0  0  0  0  0
  161.2040  201.9800  150.8940 C   0  0  0  0  0  2  0  0  0  0  0  0
  159.8840  202.2440  150.5310 O   0  0  0  0  0  1  0  0  0  0  0  0
  1  4  1  1  0  0  0
  1  2  1  0  0  0  0
  2 11  1  1  0  0  0
  3 13  1  0  0  0  0
  3  6  1  0  0  0  0
  7  5  1  6  0  0  0
  7  8  1  0  0  0  0
  8  4  1  0  0  0  0
  9 10  1  6  0  0  0
  9 16  1  0  0  0  0
 11 16  1  0  0  0  0
 12 15  1  1  0  0  0
 12  1  1  0  0  0  0
 13 14  1  6  0  0  0
 13 12  1  0  0  0  0
 13  1  1  0  0  0  0
 14  7  1  0  0  0  0
 16 18  1  6  0  0  0
 17  6  1  6  0  0  0
 17  2  1  0  0  0  0
 17  9  1  0  0  0  0
 18 19  1  0  0  0  0
 19 20  1  0  0  0  0
 20 21  1  0  0  0  0
 22 21  1  0  0  0  0
 23 22  1  0  0  0  0
 24 23  1  0  0  0  0
 25 24  1  0  0  0  0
M  END
>  <MODEL>
6

>  <REMARK>
 VINA RESULT:      -5.3      5.434      9.112
  Name = 
  7 active torsions:
  status: ('A' for Active; 'I' for Inactive)
    1  A    between atoms: C_2  and  C_7
    2  A    between atoms: C_2  and  C_25
    3  A    between atoms: C_6  and  C_15
    4  A    between atoms: C_6  and  C_21
    5  A    between atoms: C_15  and  C_20
    6  A    between atoms: C_20  and  C_23
    7  A    between atoms: C_21  and  C_25
                            x       y       z     vdW  Elec       q    Type
                         _______ _______ _______ _____ _____    ______ ____

>  <TORSDO>
F 7

$$$$
=
 OpenBabel11052422203D

 25 28  0  0  1  0  0  0  0  0999 V2000
  159.9060  210.6390  154.6190 C   0  0  2  0  0  0  0  0  0  0  0  0
  159.9870  209.3960  153.7140 C   0  0  1  0  0  3  0  0  0  0  0  0
  160.4290  208.8760  156.5790 C   0  0  0  0  0  2  0  0  0  0  0  0
  158.8780  211.7020  154.2170 C   0  0  0  0  0  2  0  0  0  0  0  0
  157.0900  212.4980  157.2610 N   0  0  0  0  0  1  0  0  0  0  0  0
  160.2160  207.7840  155.5260 C   0  0  0  0  0  2  0  0  0  0  0  0
  158.2140  212.1330  156.4200 C   0  0  2  0  0  3  0  0  0  0  0  0
  157.7300  211.7010  155.1170 N   0  0  0  0  0  2  0  0  0  0  0  0
  160.8260  207.3040  153.0830 C   0  0  2  0  0  3  0  0  0  0  0  0
  161.9500  206.2830  153.2070 C   0  0  0  0  0  1  0  0  0  0  0  0
  160.4430  209.6000  152.2890 C   0  0  0  0  0  2  0  0  0  0  0  0
  161.0370  211.1900  155.5030 C   0  0  1  0  0  3  0  0  0  0  0  0
  159.9570  210.2810  156.1240 C   0  0  1  0  0  0  0  0  0  0  0  0
  158.9970  211.0030  157.0810 C   0  0  0  0  0  2  0  0  0  0  0  0
  162.3880  210.5350  155.2390 C   0  0  0  0  0  1  0  0  0  0  0  0
  160.8920  208.2070  151.8280 C   0  0  1  0  0  3  0  0  0  0  0  0
  160.8290  208.2720  154.2340 C   0  0  1  0  0  3  0  0  0  0  0  0
  162.2890  208.3060  151.2130 C   0  0  0  0  0  2  0  0  0  0  0  0
  162.3210  207.7110  149.8140 C   0  0  0  0  0  2  0  0  0  0  0  0
  161.9990  208.7700  148.7740 C   0  0  0  0  0  2  0  0  0  0  0  0
  161.9470  210.1470  149.4160 C   0  0  0  0  0  2  0  0  0  0  0  0
  162.6510  211.1940  148.5610 C   0  0  0  0  0  2  0  0  0  0  0  0
  161.8160  212.4610  148.4300 C   0  0  0  0  0  2  0  0  0  0  0  0
  160.6310  212.2510  147.5020 C   0  0  0  0  0  2  0  0  0  0  0  0
  159.6970  213.2710  147.6800 O   0  0  0  0  0  1  0  0  0  0  0  0
  1  4  1  6  0  0  0
  1 12  1  0  0  0  0
  1 13  1  0  0  0  0
  2 11  1  6  0  0  0
  2 17  1  0  0  0  0
  2  1  1  0  0  0  0
  4  8  1  0  0  0  0
  6  3  1  0  0  0  0
  7 14  1  0  0  0  0
  7  5  1  1  0  0  0
  8  7  1  0  0  0  0
  9 10  1  1  0  0  0
  9 17  1  0  0  0  0
 12 15  1  6  0  0  0
 12 13  1  0  0  0  0
 13  3  1  1  0  0  0
 13 14  1  0  0  0  0
 16 18  1  1  0  0  0
 16 11  1  0  0  0  0
 16  9  1  0  0  0  0
 17  6  1  1  0  0  0
 19 18  1  0  0  0  0
 20 21  1  0  0  0  0
 20 19  1  0  0  0  0
 22 21  1  0  0  0  0
 23 22  1  0  0  0  0
 24 25  1  0  0  0  0
 24 23  1  0  0  0  0
M  END
>  <MODEL>
7

>  <REMARK>
 VINA RESULT:      -5.0      2.872      3.840
  Name = 
  7 active torsions:
  status: ('A' for Active; 'I' for Inactive)
    1  A    between atoms: C_2  and  C_7
    2  A    between atoms: C_2  and  C_25
    3  A    between atoms: C_6  and  C_15
    4  A    between atoms: C_6  and  C_21
    5  A    between atoms: C_15  and  C_20
    6  A    between atoms: C_20  and  C_23
    7  A    between atoms: C_21  and  C_25
                            x       y       z     vdW  Elec       q    Type
                         _______ _______ _______ _____ _____    ______ ____

>  <TORSDO>
F 7

$$$$
=
 OpenBabel11052422203D

 25 28  0  0  1  0  0  0  0  0999 V2000
  161.5250  206.6540  151.3150 C   0  0  2  0  0  0  0  0  0  0  0  0
  160.8390  205.4740  150.6040 C   0  0  1  0  0  3  0  0  0  0  0  0
  161.2050  205.1310  153.5060 C   0  0  0  0  0  2  0  0  0  0  0  0
  161.1960  208.0510  150.7780 C   0  0  0  0  0  2  0  0  0  0  0  0
  160.4180  210.0370  153.7010 N   0  0  0  0  0  1  0  0  0  0  0  0
  160.3380  204.2190  152.6310 C   0  0  0  0  0  2  0  0  0  0  0  0
  161.0830  209.0240  152.9040 C   0  0  2  0  0  3  0  0  0  0  0  0
  160.3210  208.7800  151.6880 N   0  0  0  0  0  2  0  0  0  0  0  0
  160.3570  203.2060  150.2760 C   0  0  2  0  0  3  0  0  0  0  0  0
  160.7620  201.7590  150.5300 C   0  0  0  0  0  1  0  0  0  0  0  0
  161.1940  205.2300  149.1560 C   0  0  0  0  0  2  0  0  0  0  0  0
  162.8540  206.5950  152.0870 C   0  0  1  0  0  3  0  0  0  0  0  0
  161.5200  206.5020  152.8550 C   0  0  1  0  0  0  0  0  0  0  0  0
  161.1960  207.7350  153.7110 C   0  0  0  0  0  2  0  0  0  0  0  0
  163.6090  205.2840  151.8990 C   0  0  0  0  0  1  0  0  0  0  0  0
  160.7770  203.7750  148.8990 C   0  0  1  0  0  3  0  0  0  0  0  0
  160.9910  204.1410  151.2700 C   0  0  1  0  0  3  0  0  0  0  0  0
  161.9420  203.0250  148.2510 C   0  0  0  0  0  2  0  0  0  0  0  0
  161.4450  201.9620  147.2850 C   0  0  0  0  0  2  0  0  0  0  0  0
  160.2980  202.4970  146.4440 C   0  0  0  0  0  2  0  0  0  0  0  0
  160.8280  203.1490  145.1760 C   0  0  0  0  0  2  0  0  0  0  0  0
  162.0940  203.9530  145.4440 C   0  0  0  0  0  2  0  0  0  0  0  0
  161.9550  205.3900  144.9550 C   0  0  0  0  0  2  0  0  0  0  0  0
  160.4980  205.8160  144.8870 C   0  0  0  0  0  2  0  0  0  0  0  0
  160.0870  206.3120  146.1240 O   0  0  0  0  0  1  0  0  0  0  0  0
  1  4  1  6  0  0  0
  1 12  1  0  0  0  0
  1 13  1  0  0  0  0
  2 11  1  6  0  0  0
  2 17  1  0  0  0  0
  2  1  1  0  0  0  0
  4  8  1  0  0  0  0
  6  3  1  0  0  0  0
  7  5  1  1  0  0  0
  7 14  1  0  0  0  0
  8  7  1  0  0  0  0
  9 10  1  1  0  0  0
  9 17  1  0  0  0  0
 12 15  1  6  0  0  0
 12 13  1  0  0  0  0
 13  3  1  1  0  0  0
 13 14  1  0  0  0  0
 16 18  1  1  0  0  0
 16 11  1  0  0  0  0
 16  9  1  0  0  0  0
 17  6  1  1  0  0  0
 19 18  1  0  0  0  0
 20 19  1  0  0  0  0
 21 22  1  0  0  0  0
 21 20  1  0  0  0  0
 23 22  1  0  0  0  0
 24 23  1  0  0  0  0
 24 25  1  0  0  0  0
M  END
>  <MODEL>
8

>  <REMARK>
 VINA RESULT:      -5.0      2.964      5.339
  Name = 
  7 active torsions:
  status: ('A' for Active; 'I' for Inactive)
    1  A    between atoms: C_2  and  C_7
    2  A    between atoms: C_2  and  C_25
    3  A    between atoms: C_6  and  C_15
    4  A    between atoms: C_6  and  C_21
    5  A    between atoms: C_15  and  C_20
    6  A    between atoms: C_20  and  C_23
    7  A    between atoms: C_21  and  C_25
                            x       y       z     vdW  Elec       q    Type
                         _______ _______ _______ _____ _____    ______ ____

>  <TORSDO>
F 7

$$$$
=
 OpenBabel11052422203D

 25 28  0  0  1  0  0  0  0  0999 V2000
  160.0350  210.7480  155.1200 C   0  0  2  0  0  0  0  0  0  0  0  0
  160.9440  209.8620  154.2490 C   0  0  1  0  0  3  0  0  0  0  0  0
  159.7780  212.1840  152.8630 C   0  0  0  0  0  2  0  0  0  0  0  0
  160.4470  210.9020  156.5890 C   0  0  0  0  0  2  0  0  0  0  0  0
  160.2760  214.4530  157.2600 N   0  0  0  0  0  1  0  0  0  0  0  0
  160.8940  211.3070  152.2880 C   0  0  0  0  0  2  0  0  0  0  0  0
  159.9080  213.1780  156.6750 C   0  0  2  0  0  3  0  0  0  0  0  0
  160.9950  212.2270  156.8530 N   0  0  0  0  0  2  0  0  0  0  0  0
  161.5910  208.8400  152.2440 C   0  0  2  0  0  3  0  0  0  0  0  0
  161.1890  208.3970  150.8430 C   0  0  0  0  0  1  0  0  0  0  0  0
  161.0280  208.3950  154.5970 C   0  0  0  0  0  2  0  0  0  0  0  0
  158.5450  211.0350  154.8730 C   0  0  1  0  0  3  0  0  0  0  0  0
  159.6060  212.0480  154.3980 C   0  0  1  0  0  0  0  0  0  0  0  0
  159.6210  213.3640  155.1890 C   0  0  0  0  0  2  0  0  0  0  0  0
  157.9290  210.1570  153.7890 C   0  0  0  0  0  1  0  0  0  0  0  0
  161.5590  207.7280  153.3210 C   0  0  1  0  0  3  0  0  0  0  0  0
  160.6620  209.8960  152.7780 C   0  0  1  0  0  3  0  0  0  0  0  0
  160.6590  206.5450  152.9590 C   0  0  0  0  0  2  0  0  0  0  0  0
  161.3850  205.2220  153.1450 C   0  0  0  0  0  2  0  0  0  0  0  0
  160.7030  204.1210  152.3500 C   0  0  0  0  0  2  0  0  0  0  0  0
  161.6130  203.6270  151.2370 C   0  0  0  0  0  2  0  0  0  0  0  0
  160.9090  203.6460  149.8850 C   0  0  0  0  0  2  0  0  0  0  0  0
  160.8010  205.0610  149.3320 C   0  0  0  0  0  2  0  0  0  0  0  0
  161.4580  205.1750  147.9660 C   0  0  0  0  0  2  0  0  0  0  0  0
  161.2860  203.9890  147.2530 O   0  0  0  0  0  1  0  0  0  0  0  0
  1  4  1  1  0  0  0
  2 11  1  1  0  0  0
  2  1  1  0  0  0  0
  4  8  1  0  0  0  0
  6  3  1  0  0  0  0
  7  8  1  0  0  0  0
  7  5  1  6  0  0  0
  9 10  1  6  0  0  0
  9 17  1  0  0  0  0
  9 16  1  0  0  0  0
 12 15  1  6  0  0  0
 12  1  1  0  0  0  0
 13  3  1  6  0  0  0
 13 12  1  0  0  0  0
 13  1  1  0  0  0  0
 13 14  1  0  0  0  0
 14  7  1  0  0  0  0
 16 18  1  6  0  0  0
 16 11  1  0  0  0  0
 17  6  1  6  0  0  0
 17  2  1  0  0  0  0
 18 19  1  0  0  0  0
 20 19  1  0  0  0  0
 21 20  1  0  0  0  0
 22 21  1  0  0  0  0
 23 22  1  0  0  0  0
 24 23  1  0  0  0  0
 25 24  1  0  0  0  0
M  END
>  <MODEL>
9

>  <REMARK>
 VINA RESULT:      -4.7      1.826      3.228
  Name = 
  7 active torsions:
  status: ('A' for Active; 'I' for Inactive)
    1  A    between atoms: C_2  and  C_7
    2  A    between atoms: C_2  and  C_25
    3  A    between atoms: C_6  and  C_15
    4  A    between atoms: C_6  and  C_21
    5  A    between atoms: C_15  and  C_20
    6  A    between atoms: C_20  and  C_23
    7  A    between atoms: C_21  and  C_25
                            x       y       z     vdW  Elec       q    Type
                         _______ _______ _______ _____ _____    ______ ____

>  <TORSDO>
F 7

$$$$
