=
 OpenBabel11062409263D

 37 40  0  0  1  0  0  0  0  0999 V2000
  161.5330  206.6390  151.5170 C   0  0  1  0  0  3  0  0  0  0  0  0
  161.2110  209.1800  157.0360 C   0  0  0  0  0  2  0  0  0  0  0  0
  161.7580  209.3490  155.6140 C   0  0  0  0  0  2  0  0  0  0  0  0
  159.6470  209.6440  154.5450 C   0  0  0  0  0  2  0  0  0  0  0  0
  160.8750  212.1130  151.0190 C   0  0  2  0  0  3  0  0  0  0  0  0
  160.8500  208.8200  154.5840 N   0  0  2  0  0  0  0  0  0  0  0  0
  159.1080  209.7150  153.1200 C   0  0  0  0  0  2  0  0  0  0  0  0
  160.4580  207.4100  154.7960 C   0  0  1  0  0  3  0  0  0  0  0  0
  161.0310  206.5370  153.6920 C   0  0  0  0  0  2  0  0  0  0  0  0
  158.0920  212.0050  153.4360 C   0  0  0  0  0  1  0  0  0  0  0  0
  162.5610  207.7670  151.3480 C   0  0  0  0  0  2  0  0  0  0  0  0
  159.0140  211.1440  152.5900 C   0  0  1  0  0  3  0  0  0  0  0  0
  160.5430  206.9600  152.4530 O   0  0  0  0  0  0  0  0  0  0  0  0
  161.9300  209.1430  151.4940 C   0  0  2  0  0  3  0  0  0  0  0  0
  161.0430  212.0780  153.3690 O   0  0  0  0  0  0  0  0  0  0  0  0
  160.8700  210.8910  150.0900 C   0  0  0  0  0  2  0  0  0  0  0  0
  160.5250  207.8290  157.2610 C   0  0  0  0  0  2  0  0  0  0  0  0
  160.8700  206.8370  156.1580 C   0  0  0  0  0  2  0  0  0  0  0  0
  162.0650  209.9320  150.2050 C   0  0  1  0  0  3  0  0  0  0  0  0
  163.0010  210.2040  151.3760 C   0  0  0  0  0  2  0  0  0  0  0  0
  160.3580  211.7900  152.3980 C   0  0  0  0  0  0  0  0  0  0  0  0
  160.3420  213.3730  148.8420 C   0  0  2  0  0  3  0  0  0  0  0  0
  158.0570  214.1480  148.6310 O   0  0  0  0  0  0  0  0  0  0  0  0
  158.7100  213.3700  150.7940 C   0  0  0  0  0  2  0  0  0  0  0  0
  159.3800  214.4100  148.2290 C   0  0  2  0  0  3  0  0  0  0  0  0
  160.1800  213.3210  150.3730 C   0  0  1  0  0  3  0  0  0  0  0  0
  157.9870  214.4510  149.9990 C   0  0  0  0  0  2  0  0  0  0  0  0
  161.6490  213.6980  148.5230 F   0  0  0  0  0  0  0  0  0  0  0  0
  160.7490  214.2150  146.2580 O   0  0  0  0  0  1  0  0  0  0  0  0
  158.4860  213.4690  146.0460 C   0  0  0  0  0  1  0  0  0  0  0  0
  159.4470  214.4530  146.6990 C   0  0  1  0  0  3  0  0  0  0  0  0
  160.8950  206.2750  150.2140 C   0  0  0  0  0  0  0  0  0  0  0  0
  160.8670  207.1220  149.2860 O   0  0  0  0  0  0  0  0  0  0  0  0
  160.4000  204.9930  150.0090 O   0  0  0  0  0  0  0  0  0  0  0  0
  160.8920  203.8710  150.7280 C   0  0  0  0  0  2  0  0  0  0  0  0
  160.4850  202.5940  150.0190 C   0  0  0  0  0  2  0  0  0  0  0  0
  161.1920  202.4950  148.6780 C   0  0  0  0  0  1  0  0  0  0  0  0
  1 32  1  6  0  0  0
  1 13  1  0  0  0  0
  2 17  1  0  0  0  0
  3  2  1  0  0  0  0
  5 16  1  6  0  0  0
  5 21  1  0  0  0  0
  6  4  1  1  0  0  0
  6  8  1  0  0  0  0
  6  3  1  0  0  0  0
  7  4  1  0  0  0  0
  8  9  1  6  0  0  0
  8 18  1  0  0  0  0
 11  1  1  0  0  0  0
 12  7  1  0  0  0  0
 12 10  1  1  0  0  0
 13  9  1  0  0  0  0
 14 11  1  6  0  0  0
 18 17  1  0  0  0  0
 19 16  1  1  0  0  0
 19 20  1  0  0  0  0
 19 14  1  0  0  0  0
 20 14  1  0  0  0  0
 21 12  1  0  0  0  0
 21 15  2  0  0  0  0
 22 28  1  1  0  0  0
 22 26  1  0  0  0  0
 23 27  1  0  0  0  0
 25 31  1  6  0  0  0
 25 23  1  0  0  0  0
 25 22  1  0  0  0  0
 26 24  1  6  0  0  0
 26  5  1  0  0  0  0
 27 24  1  0  0  0  0
 29 31  1  0  0  0  0
 31 30  1  6  0  0  0
 33 32  2  0  0  0  0
 34 32  1  0  0  0  0
 34 35  1  0  0  0  0
 36 35  1  0  0  0  0
 37 36  1  0  0  0  0
M  END
>  <MODEL>
1

>  <REMARK>
 VINA RESULT:      -3.8      0.000      0.000
  Name = 
  6 active torsions:
  status: ('A' for Active; 'I' for Inactive)
    1  A    between atoms: C_1  and  C_12
    2  A    between atoms: O_5  and  C_12
    3  A    between atoms: O_5  and  C_26
    4  A    between atoms: C_8  and  C_19
    5  A    between atoms: C_10  and  C_14
    6  A    between atoms: C_11  and  C_26
                            x       y       z     vdW  Elec       q    Type
                         _______ _______ _______ _____ _____    ______ ____

>  <TORSDO>
F 6

$$$$
=
 OpenBabel11062409263D

 37 40  0  0  1  0  0  0  0  0999 V2000
  161.5820  207.8470  151.3680 C   0  0  1  0  0  3  0  0  0  0  0  0
  160.7960  211.7570  155.9640 C   0  0  0  0  0  2  0  0  0  0  0  0
  161.4120  211.5740  154.5710 C   0  0  0  0  0  2  0  0  0  0  0  0
  159.3500  211.4120  153.3840 C   0  0  0  0  0  2  0  0  0  0  0  0
  160.6210  212.9170  149.3650 C   0  0  2  0  0  3  0  0  0  0  0  0
  160.5970  210.7200  153.6930 N   0  0  2  0  0  0  0  0  0  0  0  0
  158.8880  211.0540  151.9750 C   0  0  0  0  0  2  0  0  0  0  0  0
  160.2800  209.3960  154.2680 C   0  0  1  0  0  3  0  0  0  0  0  0
  160.9660  208.3010  153.4680 C   0  0  0  0  0  2  0  0  0  0  0  0
  157.7190  213.2630  151.6140 C   0  0  0  0  0  1  0  0  0  0  0  0
  162.5470  208.9600  150.9350 C   0  0  0  0  0  2  0  0  0  0  0  0
  158.7370  212.2750  151.0710 C   0  0  1  0  0  3  0  0  0  0  0  0
  160.5230  208.3350  152.1430 O   0  0  0  0  0  0  0  0  0  0  0  0
  161.8270  210.2730  150.6750 C   0  0  2  0  0  3  0  0  0  0  0  0
  160.6590  213.5320  151.6390 O   0  0  0  0  0  0  0  0  0  0  0  0
  160.7420  211.4930  148.8070 C   0  0  0  0  0  2  0  0  0  0  0  0
  160.1830  210.4700  156.5240 C   0  0  0  0  0  2  0  0  0  0  0  0
  160.6490  209.2450  155.7500 C   0  0  0  0  0  2  0  0  0  0  0  0
  161.9860  210.6910  149.2250 C   0  0  1  0  0  3  0  0  0  0  0  0
  162.8350  211.3390  150.3120 C   0  0  0  0  0  2  0  0  0  0  0  0
  160.0480  212.9430  150.7600 C   0  0  0  0  0  0  0  0  0  0  0  0
  160.4040  213.7400  146.9390 C   0  0  2  0  0  3  0  0  0  0  0  0
  158.1330  213.9610  146.1240 O   0  0  0  0  0  0  0  0  0  0  0  0
  158.3800  213.6300  148.4780 C   0  0  0  0  0  2  0  0  0  0  0  0
  159.4420  214.4530  145.9670 C   0  0  2  0  0  3  0  0  0  0  0  0
  159.8910  213.8510  148.3870 C   0  0  1  0  0  3  0  0  0  0  0  0
  157.6820  214.4150  147.3730 C   0  0  0  0  0  2  0  0  0  0  0  0
  161.6660  214.3000  146.8480 F   0  0  0  0  0  0  0  0  0  0  0  0
  160.6270  213.1580  144.3190 O   0  0  0  0  0  1  0  0  0  0  0  0
  158.6770  214.3100  143.5500 C   0  0  0  0  0  1  0  0  0  0  0  0
  159.8660  214.3130  144.5010 C   0  0  1  0  0  3  0  0  0  0  0  0
  161.0420  207.0980  150.1920 C   0  0  0  0  0  0  0  0  0  0  0  0
  161.2270  207.5540  149.0360 O   0  0  0  0  0  0  0  0  0  0  0  0
  160.4010  205.8770  150.3710 O   0  0  0  0  0  0  0  0  0  0  0  0
  161.0990  204.6430  150.3010 C   0  0  0  0  0  2  0  0  0  0  0  0
  160.7530  203.7920  151.5080 C   0  0  0  0  0  2  0  0  0  0  0  0
  161.0670  204.5500  152.7870 C   0  0  0  0  0  1  0  0  0  0  0  0
  1 32  1  6  0  0  0
  1 13  1  0  0  0  0
  2 17  1  0  0  0  0
  3  2  1  0  0  0  0
  5 16  1  6  0  0  0
  5 21  1  0  0  0  0
  6  4  1  1  0  0  0
  6  8  1  0  0  0  0
  6  3  1  0  0  0  0
  7  4  1  0  0  0  0
  8  9  1  6  0  0  0
  8 18  1  0  0  0  0
 11  1  1  0  0  0  0
 12 10  1  1  0  0  0
 12  7  1  0  0  0  0
 13  9  1  0  0  0  0
 14 20  1  1  0  0  0
 14 11  1  0  0  0  0
 18 17  1  0  0  0  0
 19 16  1  1  0  0  0
 19 20  1  0  0  0  0
 19 14  1  0  0  0  0
 21 12  1  0  0  0  0
 21 15  2  0  0  0  0
 22 28  1  1  0  0  0
 22 26  1  0  0  0  0
 23 27  1  0  0  0  0
 25 31  1  6  0  0  0
 25 23  1  0  0  0  0
 25 22  1  0  0  0  0
 26 24  1  6  0  0  0
 26  5  1  0  0  0  0
 27 24  1  0  0  0  0
 29 31  1  0  0  0  0
 31 30  1  6  0  0  0
 32 34  1  0  0  0  0
 33 32  2  0  0  0  0
 35 34  1  0  0  0  0
 35 36  1  0  0  0  0
 36 37  1  0  0  0  0
M  END
>  <MODEL>
2

>  <REMARK>
 VINA RESULT:      -3.0      1.536      2.091
  Name = 
  6 active torsions:
  status: ('A' for Active; 'I' for Inactive)
    1  A    between atoms: C_1  and  C_12
    2  A    between atoms: O_5  and  C_12
    3  A    between atoms: O_5  and  C_26
    4  A    between atoms: C_8  and  C_19
    5  A    between atoms: C_10  and  C_14
    6  A    between atoms: C_11  and  C_26
                            x       y       z     vdW  Elec       q    Type
                         _______ _______ _______ _____ _____    ______ ____

>  <TORSDO>
F 6

$$$$
=
 OpenBabel11062409263D

 37 40  0  0  1  0  0  0  0  0999 V2000
  160.9700  210.1640  137.9260 C   0  0  1  0  0  3  0  0  0  0  0  0
  165.0480  214.4530  139.3370 C   0  0  0  0  0  2  0  0  0  0  0  0
  163.5510  214.1370  139.2430 C   0  0  0  0  0  2  0  0  0  0  0  0
  163.4960  212.5590  141.0300 C   0  0  0  0  0  2  0  0  0  0  0  0
  159.2430  213.0000  142.3540 C   0  0  2  0  0  3  0  0  0  0  0  0
  163.2350  212.7460  139.6070 N   0  0  2  0  0  0  0  0  0  0  0  0
  162.5070  211.5560  141.6150 C   0  0  0  0  0  2  0  0  0  0  0  0
  164.0000  211.7370  138.8430 C   0  0  1  0  0  3  0  0  0  0  0  0
  163.0650  210.9390  137.9500 C   0  0  0  0  0  2  0  0  0  0  0  0
  162.5570  212.5900  143.9180 C   0  0  0  0  0  1  0  0  0  0  0  0
  160.0420  211.3810  138.0440 C   0  0  0  0  0  2  0  0  0  0  0  0
  161.6830  212.1330  142.7630 C   0  0  1  0  0  3  0  0  0  0  0  0
  162.1080  210.2850  138.7300 O   0  0  0  0  0  0  0  0  0  0  0  0
  160.0440  211.9680  139.4470 C   0  0  2  0  0  3  0  0  0  0  0  0
  161.1700  214.2930  141.9450 O   0  0  0  0  0  0  0  0  0  0  0  0
  158.8150  211.7410  141.5890 C   0  0  0  0  0  2  0  0  0  0  0  0
  165.9370  213.3190  138.8160 C   0  0  0  0  0  2  0  0  0  0  0  0
  165.1390  212.3170  137.9940 C   0  0  0  0  0  2  0  0  0  0  0  0
  158.6610  211.8770  140.0660 C   0  0  1  0  0  3  0  0  0  0  0  0
  159.1600  213.1930  139.4820 C   0  0  0  0  0  2  0  0  0  0  0  0
  160.7350  213.2140  142.3210 C   0  0  0  0  0  0  0  0  0  0  0  0
  159.6960  212.7840  144.8760 C   0  0  2  0  0  3  0  0  0  0  0  0
  158.6190  214.4530  146.2640 O   0  0  0  0  0  0  0  0  0  0  0  0
  157.8870  214.3410  143.9920 C   0  0  0  0  0  2  0  0  0  0  0  0
  159.1150  213.1360  146.2610 C   0  0  2  0  0  3  0  0  0  0  0  0
  158.6510  213.0340  143.7710 C   0  0  1  0  0  3  0  0  0  0  0  0
  157.4730  214.4500  145.4550 C   0  0  0  0  0  2  0  0  0  0  0  0
  160.0890  211.4580  144.8530 F   0  0  0  0  0  0  0  0  0  0  0  0
  161.3930  213.4260  146.9860 O   0  0  0  0  0  1  0  0  0  0  0  0
  159.7110  213.6920  148.6660 C   0  0  0  0  0  1  0  0  0  0  0  0
  160.1360  212.9750  147.3920 C   0  0  1  0  0  3  0  0  0  0  0  0
  160.2550  208.8920  138.2530 C   0  0  0  0  0  0  0  0  0  0  0  0
  160.9230  207.8770  138.5750 O   0  0  0  0  0  0  0  0  0  0  0  0
  158.8660  208.8510  138.2650 O   0  0  0  0  0  0  0  0  0  0  0  0
  158.1020  208.8480  137.0680 C   0  0  0  0  0  2  0  0  0  0  0  0
  156.9730  209.8540  137.1820 C   0  0  0  0  0  2  0  0  0  0  0  0
  156.4110  209.8490  138.5930 C   0  0  0  0  0  1  0  0  0  0  0  0
  1 11  1  0  0  0  0
  1 32  1  1  0  0  0
  1 13  1  0  0  0  0
  3  2  1  0  0  0  0
  4  7  1  0  0  0  0
  5 16  1  1  0  0  0
  5 26  1  0  0  0  0
  6  3  1  6  0  0  0
  6  4  1  0  0  0  0
  7 12  1  0  0  0  0
  8  9  1  6  0  0  0
  8  6  1  0  0  0  0
  9 13  1  0  0  0  0
 12 10  1  1  0  0  0
 14 11  1  6  0  0  0
 14 20  1  0  0  0  0
 14 19  1  0  0  0  0
 15 21  2  0  0  0  0
 17  2  1  0  0  0  0
 18 17  1  0  0  0  0
 18  8  1  0  0  0  0
 19 20  1  1  0  0  0
 19 16  1  0  0  0  0
 21  5  1  0  0  0  0
 21 12  1  0  0  0  0
 22 28  1  1  0  0  0
 22 25  1  0  0  0  0
 24 27  1  0  0  0  0
 25 23  1  0  0  0  0
 25 31  1  1  0  0  0
 26 24  1  1  0  0  0
 26 22  1  0  0  0  0
 27 23  1  0  0  0  0
 29 31  1  0  0  0  0
 31 30  1  1  0  0  0
 32 34  1  0  0  0  0
 32 33  2  0  0  0  0
 35 36  1  0  0  0  0
 35 34  1  0  0  0  0
 36 37  1  0  0  0  0
M  END
>  <MODEL>
3

>  <REMARK>
 VINA RESULT:      -2.7      7.280     12.142
  Name = 
  6 active torsions:
  status: ('A' for Active; 'I' for Inactive)
    1  A    between atoms: C_1  and  C_12
    2  A    between atoms: O_5  and  C_12
    3  A    between atoms: O_5  and  C_26
    4  A    between atoms: C_8  and  C_19
    5  A    between atoms: C_10  and  C_14
    6  A    between atoms: C_11  and  C_26
                            x       y       z     vdW  Elec       q    Type
                         _______ _______ _______ _____ _____    ______ ____

>  <TORSDO>
F 6

$$$$
=
 OpenBabel11062409263D

 37 40  0  0  1  0  0  0  0  0999 V2000
  157.9910  214.0910  148.5240 C   0  0  1  0  0  3  0  0  0  0  0  0
  163.3890  213.6730  145.7490 C   0  0  0  0  0  2  0  0  0  0  0  0
  162.6920  213.8180  147.1070 C   0  0  0  0  0  2  0  0  0  0  0  0
  161.7120  211.6440  147.1390 C   0  0  0  0  0  2  0  0  0  0  0  0
  161.4130  210.9680  151.5540 C   0  0  2  0  0  3  0  0  0  0  0  0
  161.4240  213.0730  147.1810 N   0  0  2  0  0  0  0  0  0  0  0  0
  160.6950  210.8800  147.9820 C   0  0  0  0  0  2  0  0  0  0  0  0
  160.4710  213.4010  146.1000 C   0  0  1  0  0  3  0  0  0  0  0  0
  159.2460  214.0930  146.6750 C   0  0  0  0  0  2  0  0  0  0  0  0
  162.3060  209.0220  148.5520 C   0  0  0  0  0  1  0  0  0  0  0  0
  158.9170  214.4530  149.6930 C   0  0  0  0  0  2  0  0  0  0  0  0
  161.3400  210.0610  149.0960 C   0  0  1  0  0  3  0  0  0  0  0  0
  158.6150  213.2510  147.5940 O   0  0  0  0  0  0  0  0  0  0  0  0
  159.8510  213.3110  150.0600 C   0  0  2  0  0  3  0  0  0  0  0  0
  162.9850  211.5590  149.9020 O   0  0  0  0  0  0  0  0  0  0  0  0
  159.9250  211.3430  151.5680 C   0  0  0  0  0  2  0  0  0  0  0  0
  162.4190  213.7200  144.5650 C   0  0  0  0  0  2  0  0  0  0  0  0
  161.0600  214.2660  144.9780 C   0  0  0  0  0  2  0  0  0  0  0  0
  159.5890  212.8410  151.4780 C   0  0  1  0  0  3  0  0  0  0  0  0
  160.7730  213.7500  151.1740 C   0  0  0  0  0  2  0  0  0  0  0  0
  161.9800  210.9120  150.1580 C   0  0  0  0  0  0  0  0  0  0  0  0
  161.3390  209.8540  153.8700 C   0  0  2  0  0  3  0  0  0  0  0  0
  160.4830  207.5880  153.8980 O   0  0  0  0  0  0  0  0  0  0  0  0
  160.9810  208.5000  151.7460 C   0  0  0  0  0  2  0  0  0  0  0  0
  161.3380  208.4810  154.5710 C   0  0  2  0  0  3  0  0  0  0  0  0
  161.6880  209.7010  152.3780 C   0  0  1  0  0  3  0  0  0  0  0  0
  161.0980  207.2940  152.6710 C   0  0  0  0  0  2  0  0  0  0  0  0
  162.2570  210.6930  154.4790 F   0  0  0  0  0  0  0  0  0  0  0  0
  160.1280  209.6870  156.2680 O   0  0  0  0  0  1  0  0  0  0  0  0
  160.2080  207.3100  156.5210 C   0  0  0  0  0  1  0  0  0  0  0  0
  160.9260  208.5650  156.0450 C   0  0  1  0  0  3  0  0  0  0  0  0
  156.7220  213.4590  149.0010 C   0  0  0  0  0  0  0  0  0  0  0  0
  156.6880  212.2170  149.1910 O   0  0  0  0  0  0  0  0  0  0  0  0
  155.6140  214.2450  149.2940 O   0  0  0  0  0  0  0  0  0  0  0  0
  154.9970  214.2310  150.5730 C   0  0  0  0  0  2  0  0  0  0  0  0
  156.0450  214.4530  151.6470 C   0  0  0  0  0  2  0  0  0  0  0  0
  155.6260  213.7660  152.9350 C   0  0  0  0  0  1  0  0  0  0  0  0
  1 32  1  1  0  0  0
  1 11  1  0  0  0  0
  2  3  1  0  0  0  0
  4  6  1  0  0  0  0
  4  7  1  0  0  0  0
  5 16  1  6  0  0  0
  5 26  1  0  0  0  0
  6  3  1  6  0  0  0
  7 12  1  0  0  0  0
  8 18  1  6  0  0  0
  8  9  1  0  0  0  0
  8  6  1  0  0  0  0
  9 13  1  0  0  0  0
 12 10  1  6  0  0  0
 12 21  1  0  0  0  0
 13  1  1  0  0  0  0
 14 11  1  1  0  0  0
 14 20  1  0  0  0  0
 14 19  1  0  0  0  0
 15 21  2  0  0  0  0
 17 18  1  0  0  0  0
 17  2  1  0  0  0  0
 19 20  1  1  0  0  0
 19 16  1  0  0  0  0
 21  5  1  0  0  0  0
 22 28  1  1  0  0  0
 22 25  1  0  0  0  0
 23 25  1  0  0  0  0
 24 27  1  0  0  0  0
 25 31  1  1  0  0  0
 26 24  1  6  0  0  0
 26 22  1  0  0  0  0
 27 23  1  0  0  0  0
 31 29  1  0  0  0  0
 31 30  1  6  0  0  0
 32 33  2  0  0  0  0
 32 34  1  0  0  0  0
 34 35  1  0  0  0  0
 35 36  1  0  0  0  0
 36 37  1  0  0  0  0
M  END
>  <MODEL>
4

>  <REMARK>
 VINA RESULT:      -1.9      2.977      8.747
  Name = 
  6 active torsions:
  status: ('A' for Active; 'I' for Inactive)
    1  A    between atoms: C_1  and  C_12
    2  A    between atoms: O_5  and  C_12
    3  A    between atoms: O_5  and  C_26
    4  A    between atoms: C_8  and  C_19
    5  A    between atoms: C_10  and  C_14
    6  A    between atoms: C_11  and  C_26
                            x       y       z     vdW  Elec       q    Type
                         _______ _______ _______ _____ _____    ______ ____

>  <TORSDO>
F 6

$$$$
=
 OpenBabel11062409263D

 37 40  0  0  1  0  0  0  0  0999 V2000
  159.9090  208.9760  156.9540 C   0  0  1  0  0  3  0  0  0  0  0  0
  157.5590  214.4510  155.7190 C   0  0  0  0  0  2  0  0  0  0  0  0
  158.8290  213.5950  155.6550 C   0  0  0  0  0  2  0  0  0  0  0  0
  158.0400  212.0670  154.0030 C   0  0  0  0  0  2  0  0  0  0  0  0
  161.9190  210.8300  152.1410 C   0  0  2  0  0  3  0  0  0  0  0  0
  158.5500  212.1790  155.3650 N   0  0  2  0  0  0  0  0  0  0  0  0
  158.4920  210.7490  153.3820 C   0  0  0  0  0  2  0  0  0  0  0  0
  157.5820  211.5550  156.2920 C   0  0  1  0  0  3  0  0  0  0  0  0
  158.2700  210.4870  157.1250 C   0  0  0  0  0  2  0  0  0  0  0  0
  158.5030  211.6640  151.0290 C   0  0  0  0  0  1  0  0  0  0  0  0
  161.1950  209.7480  156.6290 C   0  0  0  0  0  2  0  0  0  0  0  0
  159.3000  210.9410  152.1010 C   0  0  1  0  0  3  0  0  0  0  0  0
  158.7950  209.4990  156.2870 O   0  0  0  0  0  0  0  0  0  0  0  0
  161.2130  210.2550  155.1960 C   0  0  2  0  0  3  0  0  0  0  0  0
  160.6890  212.7660  152.6790 O   0  0  0  0  0  0  0  0  0  0  0  0
  161.9520  209.5230  152.9440 C   0  0  0  0  0  2  0  0  0  0  0  0
  156.3970  213.7530  156.4310 C   0  0  0  0  0  2  0  0  0  0  0  0
  156.8730  212.5450  157.2250 C   0  0  0  0  0  2  0  0  0  0  0  0
  162.3600  209.6320  154.4230 C   0  0  1  0  0  3  0  0  0  0  0  0
  162.4740  211.0530  154.9580 C   0  0  0  0  0  2  0  0  0  0  0  0
  160.6340  211.5940  152.3380 C   0  0  0  0  0  0  0  0  0  0  0  0
  161.9230  209.1850  150.1660 C   0  0  2  0  0  3  0  0  0  0  0  0
  161.2050  210.1150  148.0470 O   0  0  0  0  0  0  0  0  0  0  0  0
  161.6360  211.6860  149.7950 C   0  0  0  0  0  2  0  0  0  0  0  0
  162.0080  209.1160  148.6270 C   0  0  2  0  0  3  0  0  0  0  0  0
  162.2730  210.6000  150.6640 C   0  0  1  0  0  3  0  0  0  0  0  0
  161.8300  211.3410  148.3230 C   0  0  0  0  0  2  0  0  0  0  0  0
  162.7920  208.2660  150.7270 F   0  0  0  0  0  0  0  0  0  0  0  0
  162.7230  207.0340  147.6520 O   0  0  0  0  0  1  0  0  0  0  0  0
  160.8010  206.9260  149.0720 C   0  0  0  0  0  1  0  0  0  0  0  0
  161.6000  207.7480  148.0700 C   0  0  1  0  0  3  0  0  0  0  0  0
  160.0460  207.5210  156.6430 C   0  0  0  0  0  0  0  0  0  0  0  0
  159.3280  206.6910  157.2560 O   0  0  0  0  0  0  0  0  0  0  0  0
  160.9090  207.0960  155.6400 O   0  0  0  0  0  0  0  0  0  0  0  0
  160.4340  206.5840  154.4040 C   0  0  0  0  0  2  0  0  0  0  0  0
  161.6050  206.1170  153.5620 C   0  0  0  0  0  2  0  0  0  0  0  0
  161.1010  205.4300  152.3040 C   0  0  0  0  0  1  0  0  0  0  0  0
  1 32  1  6  0  0  0
  2 17  1  0  0  0  0
  3  2  1  0  0  0  0
  5 21  1  0  0  0  0
  5 16  1  1  0  0  0
  6  4  1  6  0  0  0
  6  3  1  0  0  0  0
  6  8  1  0  0  0  0
  7  4  1  0  0  0  0
  8  9  1  1  0  0  0
  8 18  1  0  0  0  0
 11  1  1  0  0  0  0
 12 10  1  6  0  0  0
 12 21  1  0  0  0  0
 12  7  1  0  0  0  0
 13  1  1  0  0  0  0
 13  9  1  0  0  0  0
 14 20  1  1  0  0  0
 14 11  1  0  0  0  0
 17 18  1  0  0  0  0
 19 16  1  6  0  0  0
 19 20  1  0  0  0  0
 19 14  1  0  0  0  0
 21 15  2  0  0  0  0
 22 26  1  0  0  0  0
 22 28  1  1  0  0  0
 23 27  1  0  0  0  0
 23 25  1  0  0  0  0
 25 31  1  6  0  0  0
 25 22  1  0  0  0  0
 26 24  1  6  0  0  0
 26  5  1  0  0  0  0
 27 24  1  0  0  0  0
 29 31  1  0  0  0  0
 31 30  1  1  0  0  0
 32 33  2  0  0  0  0
 34 32  1  0  0  0  0
 35 34  1  0  0  0  0
 36 35  1  0  0  0  0
 37 36  1  0  0  0  0
M  END
>  <MODEL>
5

>  <REMARK>
 VINA RESULT:      -1.0      2.709      5.146
  Name = 
  6 active torsions:
  status: ('A' for Active; 'I' for Inactive)
    1  A    between atoms: C_1  and  C_12
    2  A    between atoms: O_5  and  C_12
    3  A    between atoms: O_5  and  C_26
    4  A    between atoms: C_8  and  C_19
    5  A    between atoms: C_10  and  C_14
    6  A    between atoms: C_11  and  C_26
                            x       y       z     vdW  Elec       q    Type
                         _______ _______ _______ _____ _____    ______ ____

>  <TORSDO>
F 6

$$$$
