=
 OpenBabel11062409283D

 34 38  0  0  1  0  0  0  0  0999 V2000
  161.8710  208.4390  149.2280 C   0  0  0  0  0  0  0  0  0  0  0  0
  160.9280  206.4740  151.6370 N   0  0  0  0  0  1  0  0  0  0  0  0
  162.2500  211.0780  150.3070 C   0  0  0  0  0  3  0  0  0  0  0  0
  161.9550  209.5240  148.4350 C   0  0  0  0  0  3  0  0  0  0  0  0
  161.9900  209.9410  151.1820 C   0  0  1  0  0  3  0  0  0  0  0  0
  161.1520  209.9920  152.2040 C   0  0  0  0  0  2  0  0  0  0  0  0
  162.2380  210.8770  148.9820 C   0  0  0  0  0  0  0  0  0  0  0  0
  161.1640  207.8810  151.6040 C   0  0  0  0  0  0  0  0  0  0  0  0
  162.1760  208.5410  150.7150 C   0  0  1  0  0  3  0  0  0  0  0  0
  160.6710  208.6830  152.4950 N   0  0  0  0  0  0  0  0  0  0  0  0
  160.3010  205.0520  148.9690 C   0  0  0  0  0  3  0  0  0  0  0  0
  161.4180  204.1180  148.6120 C   0  0  0  0  0  2  0  0  0  0  0  0
  161.9240  204.3460  147.2120 C   0  0  0  0  0  0  0  0  0  0  0  0
  162.4310  205.5210  146.8300 C   0  0  0  0  0  3  0  0  0  0  0  0
  160.4300  206.3780  149.0060 C   0  0  0  0  0  3  0  0  0  0  0  0
  162.4740  206.7600  147.6350 C   0  0  0  0  0  3  0  0  0  0  0  0
  161.6450  207.1280  148.6160 C   0  0  0  0  0  0  0  0  0  0  0  0
  161.9620  203.2960  146.2870 O   0  0  0  0  0  0  0  0  0  0  0  0
  160.3810  201.6430  145.4690 C   0  0  0  0  0  1  0  0  0  0  0  0
  160.9200  203.0580  145.3440 C   0  0  0  0  0  2  0  0  0  0  0  0
  162.5780  211.9460  148.0760 N   0  0  0  0  0  2  0  0  0  0  0  0
  159.4060  212.6180  146.1610 C   0  0  0  0  0  2  0  0  0  0  0  0
  162.1790  213.3500  146.0800 C   0  0  0  0  0  2  0  0  0  0  0  0
  160.1590  212.5470  142.4540 N   0  0  0  0  0  0  0  0  0  0  0  0
  159.5180  212.2350  141.2070 C   0  0  0  0  0  0  0  0  0  0  0  0
  159.3570  212.7770  143.6530 C   0  0  0  0  0  2  0  0  0  0  0  0
  159.9510  211.2880  140.4970 O   0  0  0  0  0  0  0  0  0  0  0  0
  160.1430  212.3110  144.8700 C   0  0  1  0  0  3  0  0  0  0  0  0
  158.3700  213.0560  140.7230 C   0  0  0  0  0  1  0  0  0  0  0  0
  162.2120  212.9660  143.6330 C   0  0  0  0  0  3  0  0  0  0  0  0
  161.4880  212.9050  144.8660 N   0  0  0  0  0  0  0  0  0  0  0  0
  161.5790  212.7700  142.4800 C   0  0  0  0  0  3  0  0  0  0  0  0
  161.5920  212.7910  147.3930 C   0  0  1  0  0  3  0  0  0  0  0  0
  160.2430  212.0710  147.3000 C   0  0  0  0  0  2  0  0  0  0  0  0
  4  7  1  0  0  0  0
  4  1  2  0  0  0  0
  5  3  1  6  0  0  0
  5  6  1  0  0  0  0
  6 10  1  0  0  0  0
  7  3  2  0  0  0  0
  8  2  1  0  0  0  0
  8 10  2  0  0  0  0
  9  1  1  6  0  0  0
  9  5  1  0  0  0  0
  9  8  1  0  0  0  0
 11 15  2  0  0  0  0
 12 11  1  0  0  0  0
 13 12  1  0  0  0  0
 14 13  2  0  0  0  0
 14 16  1  0  0  0  0
 16 17  2  0  0  0  0
 17 15  1  0  0  0  0
 17  1  1  0  0  0  0
 18 13  1  0  0  0  0
 20 19  1  0  0  0  0
 20 18  1  0  0  0  0
 21  7  1  0  0  0  0
 22 34  1  0  0  0  0
 23 33  1  0  0  0  0
 24 32  1  0  0  0  0
 24 26  1  0  0  0  0
 25 24  1  0  0  0  0
 27 25  2  0  0  0  0
 28 26  1  6  0  0  0
 28 22  1  0  0  0  0
 29 25  1  0  0  0  0
 30 31  1  0  0  0  0
 31 28  1  0  0  0  0
 31 23  1  0  0  0  0
 32 30  2  0  0  0  0
 33 21  1  6  0  0  0
 34 33  1  0  0  0  0
M  END
>  <MODEL>
1

>  <REMARK>
 VINA RESULT:      -9.0      0.000      0.000
  Name = 
  5 active torsions:
  status: ('A' for Active; 'I' for Inactive)
    1  A    between atoms: C_1  and  C_34
    2  A    between atoms: O_3  and  C_24
    3  A    between atoms: O_3  and  C_25
    4  A    between atoms: C_17  and  N_18
    5  A    between atoms: N_18  and  C_30
                            x       y       z     vdW  Elec       q    Type
                         _______ _______ _______ _____ _____    ______ ____

>  <TORSDO>
F 5

$$$$
=
 OpenBabel11062409283D

 34 38  0  0  1  0  0  0  0  0999 V2000
  161.2030  204.3730  148.8780 C   0  0  0  0  0  0  0  0  0  0  0  0
  160.8560  201.8320  146.8840 N   0  0  0  0  0  1  0  0  0  0  0  0
  160.9420  203.4420  151.5870 C   0  0  0  0  0  3  0  0  0  0  0  0
  160.9880  205.2210  149.9020 C   0  0  0  0  0  3  0  0  0  0  0  0
  161.0020  202.5020  150.4740 C   0  0  1  0  0  3  0  0  0  0  0  0
  160.2100  201.4480  150.3750 C   0  0  0  0  0  2  0  0  0  0  0  0
  160.9400  204.7540  151.3120 C   0  0  0  0  0  0  0  0  0  0  0  0
  160.7310  201.9440  148.3010 C   0  0  0  0  0  0  0  0  0  0  0  0
  161.5180  202.9090  149.1390 C   0  0  1  0  0  3  0  0  0  0  0  0
  160.0810  201.0730  149.0060 N   0  0  0  0  0  0  0  0  0  0  0  0
  159.9770  206.2960  145.9110 C   0  0  0  0  0  3  0  0  0  0  0  0
  160.2980  205.4440  144.7200 C   0  0  0  0  0  2  0  0  0  0  0  0
  161.7800  205.3640  144.4610 C   0  0  0  0  0  0  0  0  0  0  0  0
  162.6260  204.8750  145.3700 C   0  0  0  0  0  3  0  0  0  0  0  0
  160.3900  206.0230  147.1480 C   0  0  0  0  0  3  0  0  0  0  0  0
  162.2890  204.4610  146.7480 C   0  0  0  0  0  3  0  0  0  0  0  0
  161.2940  204.9100  147.5190 C   0  0  0  0  0  0  0  0  0  0  0  0
  162.3070  205.7190  143.2140 O   0  0  0  0  0  0  0  0  0  0  0  0
  162.3380  206.4650  140.9020 C   0  0  0  0  0  1  0  0  0  0  0  0
  161.4920  206.1210  142.1160 C   0  0  0  0  0  2  0  0  0  0  0  0
  160.9740  205.7250  152.3770 N   0  0  0  0  0  2  0  0  0  0  0  0
  161.6830  209.4220  152.4630 C   0  0  0  0  0  2  0  0  0  0  0  0
  162.5160  207.0920  151.0100 C   0  0  0  0  0  2  0  0  0  0  0  0
  161.9280  210.7180  148.9160 N   0  0  0  0  0  0  0  0  0  0  0  0
  161.6930  211.9190  148.1660 C   0  0  0  0  0  0  0  0  0  0  0  0
  162.0360  210.7720  150.3720 C   0  0  0  0  0  2  0  0  0  0  0  0
  160.8190  211.9330  147.2570 O   0  0  0  0  0  0  0  0  0  0  0  0
  161.5040  209.4710  150.9560 C   0  0  1  0  0  3  0  0  0  0  0  0
  162.5090  213.1420  148.4230 C   0  0  0  0  0  1  0  0  0  0  0  0
  162.3240  208.3470  148.8820 C   0  0  0  0  0  3  0  0  0  0  0  0
  162.1430  208.3200  150.3010 N   0  0  0  0  0  0  0  0  0  0  0  0
  162.1980  209.4910  148.2160 C   0  0  0  0  0  3  0  0  0  0  0  0
  161.8360  206.9120  152.3820 C   0  0  1  0  0  3  0  0  0  0  0  0
  161.0790  208.1190  152.9460 C   0  0  0  0  0  2  0  0  0  0  0  0
  1  9  1  0  0  0  0
  1  4  2  0  0  0  0
  2  8  1  0  0  0  0
  4  7  1  0  0  0  0
  5  6  1  6  0  0  0
  5  3  1  0  0  0  0
  7  3  2  0  0  0  0
  7 21  1  0  0  0  0
  8 10  2  0  0  0  0
  9  8  1  6  0  0  0
  9  5  1  0  0  0  0
 10  6  1  0  0  0  0
 11 15  2  0  0  0  0
 12 11  1  0  0  0  0
 13 12  1  0  0  0  0
 13 14  2  0  0  0  0
 14 16  1  0  0  0  0
 15 17  1  0  0  0  0
 16 17  2  0  0  0  0
 17  1  1  0  0  0  0
 18 13  1  0  0  0  0
 19 20  1  0  0  0  0
 20 18  1  0  0  0  0
 22 34  1  0  0  0  0
 23 33  1  0  0  0  0
 24 26  1  0  0  0  0
 25 29  1  0  0  0  0
 25 24  1  0  0  0  0
 27 25  2  0  0  0  0
 28 26  1  6  0  0  0
 28 22  1  0  0  0  0
 30 31  1  0  0  0  0
 31 28  1  0  0  0  0
 31 23  1  0  0  0  0
 32 30  2  0  0  0  0
 32 24  1  0  0  0  0
 33 21  1  6  0  0  0
 33 34  1  0  0  0  0
M  END
>  <MODEL>
2

>  <REMARK>
 VINA RESULT:      -9.0      3.376      6.354
  Name = 
  5 active torsions:
  status: ('A' for Active; 'I' for Inactive)
    1  A    between atoms: C_1  and  C_34
    2  A    between atoms: O_3  and  C_24
    3  A    between atoms: O_3  and  C_25
    4  A    between atoms: C_17  and  N_18
    5  A    between atoms: N_18  and  C_30
                            x       y       z     vdW  Elec       q    Type
                         _______ _______ _______ _____ _____    ______ ____

>  <TORSDO>
F 5

$$$$
=
 OpenBabel11062409283D

 34 38  0  0  1  0  0  0  0  0999 V2000
  160.1170  210.2610  154.0790 C   0  0  0  0  0  0  0  0  0  0  0  0
  159.7790  212.7970  156.0810 N   0  0  0  0  0  1  0  0  0  0  0  0
  161.5100  208.1750  155.4860 C   0  0  0  0  0  3  0  0  0  0  0  0
  160.6770  209.2210  153.4320 C   0  0  0  0  0  3  0  0  0  0  0  0
  161.0610  209.3770  156.1800 C   0  0  1  0  0  3  0  0  0  0  0  0
  161.8080  210.0260  157.0570 C   0  0  0  0  0  2  0  0  0  0  0  0
  161.3210  208.0970  154.1610 C   0  0  0  0  0  0  0  0  0  0  0  0
  160.4610  211.5540  156.2390 C   0  0  0  0  0  0  0  0  0  0  0  0
  160.0250  210.2700  155.5960 C   0  0  1  0  0  3  0  0  0  0  0  0
  161.3930  211.3870  157.1240 N   0  0  0  0  0  0  0  0  0  0  0  0
  159.9710  213.0520  151.5890 C   0  0  0  0  0  3  0  0  0  0  0  0
  159.1000  214.1010  152.2130 C   0  0  0  0  0  2  0  0  0  0  0  0
  157.6600  213.6680  152.2950 C   0  0  0  0  0  0  0  0  0  0  0  0
  157.2910  212.5810  152.9770 C   0  0  0  0  0  3  0  0  0  0  0  0
  160.1480  211.8350  152.1040 C   0  0  0  0  0  3  0  0  0  0  0  0
  158.1920  211.6090  153.6310 C   0  0  0  0  0  3  0  0  0  0  0  0
  159.4510  211.3060  153.2990 C   0  0  0  0  0  0  0  0  0  0  0  0
  156.6460  214.4510  151.7320 O   0  0  0  0  0  0  0  0  0  0  0  0
  156.7820  213.5560  149.4770 C   0  0  0  0  0  1  0  0  0  0  0  0
  155.8810  214.0320  150.6050 C   0  0  0  0  0  2  0  0  0  0  0  0
  161.6630  206.8960  153.4430 N   0  0  0  0  0  2  0  0  0  0  0  0
  160.6860  204.2000  151.0020 C   0  0  0  0  0  2  0  0  0  0  0  0
  160.7670  207.0640  151.1440 C   0  0  0  0  0  2  0  0  0  0  0  0
  161.9090  205.1510  147.5500 N   0  0  0  0  0  0  0  0  0  0  0  0
  162.3490  204.5340  146.3310 C   0  0  0  0  0  0  0  0  0  0  0  0
  161.1710  204.3720  148.5420 C   0  0  0  0  0  2  0  0  0  0  0  0
  163.5270  204.7170  145.9220 O   0  0  0  0  0  0  0  0  0  0  0  0
  161.5010  204.9010  149.9310 C   0  0  1  0  0  3  0  0  0  0  0  0
  161.4050  203.7130  145.5170 C   0  0  0  0  0  1  0  0  0  0  0  0
  161.7640  207.1500  148.8780 C   0  0  0  0  0  3  0  0  0  0  0  0
  161.3090  206.3580  149.9780 N   0  0  0  0  0  0  0  0  0  0  0  0
  162.0740  206.5690  147.7220 C   0  0  0  0  0  3  0  0  0  0  0  0
  160.7910  206.2510  152.4540 C   0  0  1  0  0  3  0  0  0  0  0  0
  161.1230  204.7590  152.3410 C   0  0  0  0  0  2  0  0  0  0  0  0
  2  8  1  0  0  0  0
  4  1  2  0  0  0  0
  4  7  1  0  0  0  0
  5  3  1  6  0  0  0
  5  6  1  0  0  0  0
  6 10  1  0  0  0  0
  7  3  2  0  0  0  0
  8 10  2  0  0  0  0
  9  1  1  6  0  0  0
  9  5  1  0  0  0  0
  9  8  1  0  0  0  0
 11 15  2  0  0  0  0
 11 12  1  0  0  0  0
 12 13  1  0  0  0  0
 13 14  2  0  0  0  0
 14 16  1  0  0  0  0
 15 17  1  0  0  0  0
 17 16  2  0  0  0  0
 17  1  1  0  0  0  0
 18 13  1  0  0  0  0
 19 20  1  0  0  0  0
 20 18  1  0  0  0  0
 21  7  1  0  0  0  0
 22 34  1  0  0  0  0
 23 33  1  0  0  0  0
 24 32  1  0  0  0  0
 24 26  1  0  0  0  0
 25 24  1  0  0  0  0
 27 25  2  0  0  0  0
 28 26  1  6  0  0  0
 28 31  1  0  0  0  0
 28 22  1  0  0  0  0
 29 25  1  0  0  0  0
 30 31  1  0  0  0  0
 31 23  1  0  0  0  0
 32 30  2  0  0  0  0
 33 21  1  1  0  0  0
 34 33  1  0  0  0  0
M  END
>  <MODEL>
3

>  <REMARK>
 VINA RESULT:      -9.0      4.828      8.717
  Name = 
  5 active torsions:
  status: ('A' for Active; 'I' for Inactive)
    1  A    between atoms: C_1  and  C_34
    2  A    between atoms: O_3  and  C_24
    3  A    between atoms: O_3  and  C_25
    4  A    between atoms: C_17  and  N_18
    5  A    between atoms: N_18  and  C_30
                            x       y       z     vdW  Elec       q    Type
                         _______ _______ _______ _____ _____    ______ ____

>  <TORSDO>
F 5

$$$$
=
 OpenBabel11062409283D

 34 38  0  0  1  0  0  0  0  0999 V2000
  160.9690  205.1640  150.0610 C   0  0  0  0  0  0  0  0  0  0  0  0
  161.4880  205.8780  146.9350 N   0  0  0  0  0  1  0  0  0  0  0  0
  161.2960  207.5680  151.6060 C   0  0  0  0  0  3  0  0  0  0  0  0
  161.1260  205.1320  151.3980 C   0  0  0  0  0  3  0  0  0  0  0  0
  161.2990  207.6080  150.1480 C   0  0  1  0  0  3  0  0  0  0  0  0
  162.1620  208.3240  149.4470 C   0  0  0  0  0  2  0  0  0  0  0  0
  161.2070  206.3750  152.2100 C   0  0  0  0  0  0  0  0  0  0  0  0
  161.6060  206.6700  148.1160 C   0  0  0  0  0  0  0  0  0  0  0  0
  160.7560  206.4850  149.3380 C   0  0  1  0  0  3  0  0  0  0  0  0
  162.3150  207.7540  148.1500 N   0  0  0  0  0  0  0  0  0  0  0  0
  160.2840  201.5000  149.7350 C   0  0  0  0  0  3  0  0  0  0  0  0
  161.3570  200.9700  148.8310 C   0  0  0  0  0  2  0  0  0  0  0  0
  161.1960  201.4540  147.4140 C   0  0  0  0  0  0  0  0  0  0  0  0
  161.2140  202.7540  147.1090 C   0  0  0  0  0  3  0  0  0  0  0  0
  160.0960  202.7970  149.9770 C   0  0  0  0  0  3  0  0  0  0  0  0
  161.2740  203.8780  148.0680 C   0  0  0  0  0  3  0  0  0  0  0  0
  160.8400  203.9020  149.3310 C   0  0  0  0  0  0  0  0  0  0  0  0
  161.1140  200.5440  146.3530 O   0  0  0  0  0  0  0  0  0  0  0  0
  161.2220  198.4040  145.2080 C   0  0  0  0  0  1  0  0  0  0  0  0
  161.5970  199.2070  146.4430 C   0  0  0  0  0  2  0  0  0  0  0  0
  161.1080  206.2860  153.6450 N   0  0  0  0  0  2  0  0  0  0  0  0
  160.1710  208.6340  156.4360 C   0  0  0  0  0  2  0  0  0  0  0  0
  161.2600  208.7510  153.7840 C   0  0  0  0  0  2  0  0  0  0  0  0
  158.4370  211.6640  154.9770 N   0  0  0  0  0  0  0  0  0  0  0  0
  157.4470  212.6410  155.3310 C   0  0  0  0  0  0  0  0  0  0  0  0
  159.0740  210.8560  156.0140 C   0  0  0  0  0  2  0  0  0  0  0  0
  156.3690  212.7100  154.6800 O   0  0  0  0  0  0  0  0  0  0  0  0
  159.4130  209.4890  155.4370 C   0  0  1  0  0  3  0  0  0  0  0  0
  157.7030  213.6080  156.4380 C   0  0  0  0  0  1  0  0  0  0  0  0
  159.7430  210.6320  153.2410 C   0  0  0  0  0  3  0  0  0  0  0  0
  160.1620  209.6380  154.1810 N   0  0  0  0  0  0  0  0  0  0  0  0
  158.8980  211.5890  153.6170 C   0  0  0  0  0  3  0  0  0  0  0  0
  161.3170  207.4170  154.5560 C   0  0  1  0  0  3  0  0  0  0  0  0
  160.4120  207.2870  155.7860 C   0  0  0  0  0  2  0  0  0  0  0  0
  1  4  2  0  0  0  0
  2  8  1  0  0  0  0
  3  7  2  0  0  0  0
  4  7  1  0  0  0  0
  5  6  1  6  0  0  0
  5  3  1  0  0  0  0
  7 21  1  0  0  0  0
  8 10  2  0  0  0  0
  9  8  1  6  0  0  0
  9  1  1  0  0  0  0
  9  5  1  0  0  0  0
 10  6  1  0  0  0  0
 11 15  2  0  0  0  0
 12 11  1  0  0  0  0
 13 12  1  0  0  0  0
 14 13  2  0  0  0  0
 14 16  1  0  0  0  0
 16 17  2  0  0  0  0
 17 15  1  0  0  0  0
 17  1  1  0  0  0  0
 18 20  1  0  0  0  0
 18 13  1  0  0  0  0
 19 20  1  0  0  0  0
 23 31  1  0  0  0  0
 23 33  1  0  0  0  0
 24 25  1  0  0  0  0
 24 26  1  0  0  0  0
 25 29  1  0  0  0  0
 27 25  2  0  0  0  0
 28 26  1  1  0  0  0
 28 22  1  0  0  0  0
 30 32  2  0  0  0  0
 30 31  1  0  0  0  0
 31 28  1  0  0  0  0
 32 24  1  0  0  0  0
 33 21  1  6  0  0  0
 33 34  1  0  0  0  0
 34 22  1  0  0  0  0
M  END
>  <MODEL>
4

>  <REMARK>
 VINA RESULT:      -8.8      5.040      7.990
  Name = 
  5 active torsions:
  status: ('A' for Active; 'I' for Inactive)
    1  A    between atoms: C_1  and  C_34
    2  A    between atoms: O_3  and  C_24
    3  A    between atoms: O_3  and  C_25
    4  A    between atoms: C_17  and  N_18
    5  A    between atoms: N_18  and  C_30
                            x       y       z     vdW  Elec       q    Type
                         _______ _______ _______ _____ _____    ______ ____

>  <TORSDO>
F 5

$$$$
=
 OpenBabel11062409283D

 34 38  0  0  1  0  0  0  0  0999 V2000
  161.5150  204.4320  148.4860 C   0  0  0  0  0  0  0  0  0  0  0  0
  160.6830  201.9240  146.5960 N   0  0  0  0  0  1  0  0  0  0  0  0
  161.4170  203.5710  151.2290 C   0  0  0  0  0  3  0  0  0  0  0  0
  161.5020  205.3120  149.5060 C   0  0  0  0  0  3  0  0  0  0  0  0
  161.2580  202.6170  150.1380 C   0  0  1  0  0  3  0  0  0  0  0  0
  160.3430  201.6620  150.1410 C   0  0  0  0  0  2  0  0  0  0  0  0
  161.5400  204.8710  150.9250 C   0  0  0  0  0  0  0  0  0  0  0  0
  160.7120  202.0680  148.0160 C   0  0  0  0  0  0  0  0  0  0  0  0
  161.6830  202.9440  148.7500 C   0  0  1  0  0  3  0  0  0  0  0  0
  160.0380  201.2870  148.8000 N   0  0  0  0  0  0  0  0  0  0  0  0
  160.0670  206.1520  145.4950 C   0  0  0  0  0  3  0  0  0  0  0  0
  160.4440  205.3010  144.3200 C   0  0  0  0  0  2  0  0  0  0  0  0
  161.9220  205.3500  144.0350 C   0  0  0  0  0  0  0  0  0  0  0  0
  162.8260  204.9660  144.9400 C   0  0  0  0  0  3  0  0  0  0  0  0
  160.5250  205.9520  146.7310 C   0  0  0  0  0  3  0  0  0  0  0  0
  162.5520  204.5600  146.3340 C   0  0  0  0  0  3  0  0  0  0  0  0
  161.5330  204.9370  147.1120 C   0  0  0  0  0  0  0  0  0  0  0  0
  162.3930  205.7170  142.7690 O   0  0  0  0  0  0  0  0  0  0  0  0
  162.2690  206.4600  140.4590 C   0  0  0  0  0  1  0  0  0  0  0  0
  161.5930  206.4170  141.8200 C   0  0  0  0  0  2  0  0  0  0  0  0
  161.7900  205.8440  151.9580 N   0  0  0  0  0  2  0  0  0  0  0  0
  160.3850  209.2750  152.6150 C   0  0  0  0  0  2  0  0  0  0  0  0
  160.7440  206.7840  153.9920 C   0  0  0  0  0  2  0  0  0  0  0  0
  161.4300  210.4000  156.0730 N   0  0  0  0  0  0  0  0  0  0  0  0
  161.7170  211.6060  156.7970 C   0  0  0  0  0  0  0  0  0  0  0  0
  160.6990  210.4600  154.8090 C   0  0  0  0  0  2  0  0  0  0  0  0
  162.8730  211.8020  157.2600 O   0  0  0  0  0  0  0  0  0  0  0  0
  161.1800  209.3320  153.9070 C   0  0  1  0  0  3  0  0  0  0  0  0
  160.6420  212.6100  157.0470 C   0  0  0  0  0  1  0  0  0  0  0  0
  161.5720  208.0010  155.9840 C   0  0  0  0  0  3  0  0  0  0  0  0
  161.1290  208.0500  154.6250 N   0  0  0  0  0  0  0  0  0  0  0  0
  161.7390  209.1290  156.6700 C   0  0  0  0  0  3  0  0  0  0  0  0
  160.7910  206.7980  152.4510 C   0  0  1  0  0  3  0  0  0  0  0  0
  160.9730  208.1600  151.7730 C   0  0  0  0  0  2  0  0  0  0  0  0
  1  9  1  0  0  0  0
  1  4  2  0  0  0  0
  2  8  1  0  0  0  0
  4  7  1  0  0  0  0
  5  6  1  6  0  0  0
  5  3  1  0  0  0  0
  7  3  2  0  0  0  0
  7 21  1  0  0  0  0
  8 10  2  0  0  0  0
  9  8  1  6  0  0  0
  9  5  1  0  0  0  0
 10  6  1  0  0  0  0
 11 15  2  0  0  0  0
 12 11  1  0  0  0  0
 13 12  1  0  0  0  0
 13 14  2  0  0  0  0
 14 16  1  0  0  0  0
 15 17  1  0  0  0  0
 16 17  2  0  0  0  0
 17  1  1  0  0  0  0
 18 13  1  0  0  0  0
 19 20  1  0  0  0  0
 20 18  1  0  0  0  0
 23 31  1  0  0  0  0
 24 32  1  0  0  0  0
 24 25  1  0  0  0  0
 25 29  1  0  0  0  0
 25 27  2  0  0  0  0
 26 24  1  0  0  0  0
 28 22  1  6  0  0  0
 28 31  1  0  0  0  0
 28 26  1  0  0  0  0
 30 32  2  0  0  0  0
 31 30  1  0  0  0  0
 33 21  1  1  0  0  0
 33 23  1  0  0  0  0
 34 33  1  0  0  0  0
 34 22  1  0  0  0  0
M  END
>  <MODEL>
5

>  <REMARK>
 VINA RESULT:      -8.7      5.089      8.865
  Name = 
  5 active torsions:
  status: ('A' for Active; 'I' for Inactive)
    1  A    between atoms: C_1  and  C_34
    2  A    between atoms: O_3  and  C_24
    3  A    between atoms: O_3  and  C_25
    4  A    between atoms: C_17  and  N_18
    5  A    between atoms: N_18  and  C_30
                            x       y       z     vdW  Elec       q    Type
                         _______ _______ _______ _____ _____    ______ ____

>  <TORSDO>
F 5

$$$$
=
 OpenBabel11062409283D

 34 38  0  0  1  0  0  0  0  0999 V2000
  161.9420  208.4090  149.5070 C   0  0  0  0  0  0  0  0  0  0  0  0
  160.9410  206.6090  152.0200 N   0  0  0  0  0  1  0  0  0  0  0  0
  162.0470  211.1580  150.3460 C   0  0  0  0  0  3  0  0  0  0  0  0
  162.0160  209.4190  148.6200 C   0  0  0  0  0  3  0  0  0  0  0  0
  161.7950  210.0900  151.3070 C   0  0  1  0  0  3  0  0  0  0  0  0
  160.8740  210.1720  152.2520 C   0  0  0  0  0  2  0  0  0  0  0  0
  162.1580  210.8340  149.0500 C   0  0  0  0  0  0  0  0  0  0  0  0
  161.0810  208.0210  151.8660 C   0  0  0  0  0  0  0  0  0  0  0  0
  162.1150  208.6720  150.9950 C   0  0  1  0  0  3  0  0  0  0  0  0
  160.4620  208.8620  152.6340 N   0  0  0  0  0  0  0  0  0  0  0  0
  162.4890  205.6710  147.0150 C   0  0  0  0  0  3  0  0  0  0  0  0
  161.2070  204.8940  146.9850 C   0  0  0  0  0  2  0  0  0  0  0  0
  160.9790  204.1260  148.2610 C   0  0  0  0  0  0  0  0  0  0  0  0
  160.8870  204.7390  149.4430 C   0  0  0  0  0  3  0  0  0  0  0  0
  162.7440  206.6420  147.8920 C   0  0  0  0  0  3  0  0  0  0  0  0
  161.0960  206.1790  149.7020 C   0  0  0  0  0  3  0  0  0  0  0  0
  161.8590  207.0330  149.0120 C   0  0  0  0  0  0  0  0  0  0  0  0
  160.7630  202.7430  148.2330 O   0  0  0  0  0  0  0  0  0  0  0  0
  161.0570  201.2650  150.1380 C   0  0  0  0  0  1  0  0  0  0  0  0
  160.0820  202.0460  149.2730 C   0  0  0  0  0  2  0  0  0  0  0  0
  162.4970  211.8370  148.0720 N   0  0  0  0  0  2  0  0  0  0  0  0
  159.3480  212.6000  146.1550 C   0  0  0  0  0  2  0  0  0  0  0  0
  162.1210  213.3360  146.1410 C   0  0  0  0  0  2  0  0  0  0  0  0
  160.1430  212.7070  142.4570 N   0  0  0  0  0  0  0  0  0  0  0  0
  159.5170  212.4550  141.1900 C   0  0  0  0  0  0  0  0  0  0  0  0
  159.3270  212.8790  143.6570 C   0  0  0  0  0  2  0  0  0  0  0  0
  159.9580  211.5430  140.4390 O   0  0  0  0  0  0  0  0  0  0  0  0
  160.1000  212.3550  144.8590 C   0  0  1  0  0  3  0  0  0  0  0  0
  158.3740  213.2990  140.7320 C   0  0  0  0  0  1  0  0  0  0  0  0
  162.1820  213.0690  143.6790 C   0  0  0  0  0  3  0  0  0  0  0  0
  161.4440  212.9490  144.8990 N   0  0  0  0  0  0  0  0  0  0  0  0
  161.5630  212.9290  142.5100 C   0  0  0  0  0  3  0  0  0  0  0  0
  161.5200  212.7140  147.4180 C   0  0  1  0  0  3  0  0  0  0  0  0
  160.1720  211.9990  147.2750 C   0  0  0  0  0  2  0  0  0  0  0  0
  4  7  1  0  0  0  0
  4  1  2  0  0  0  0
  5  3  1  6  0  0  0
  5  6  1  0  0  0  0
  6 10  1  0  0  0  0
  7  3  2  0  0  0  0
  8  2  1  0  0  0  0
  8 10  2  0  0  0  0
  9  1  1  6  0  0  0
  9  5  1  0  0  0  0
  9  8  1  0  0  0  0
 11 15  2  0  0  0  0
 12 11  1  0  0  0  0
 12 13  1  0  0  0  0
 13 14  2  0  0  0  0
 14 16  1  0  0  0  0
 15 17  1  0  0  0  0
 17  1  1  0  0  0  0
 17 16  2  0  0  0  0
 18 13  1  0  0  0  0
 18 20  1  0  0  0  0
 20 19  1  0  0  0  0
 21  7  1  0  0  0  0
 22 34  1  0  0  0  0
 23 33  1  0  0  0  0
 24 32  1  0  0  0  0
 24 26  1  0  0  0  0
 25 24  1  0  0  0  0
 27 25  2  0  0  0  0
 28 26  1  6  0  0  0
 28 31  1  0  0  0  0
 28 22  1  0  0  0  0
 29 25  1  0  0  0  0
 30 31  1  0  0  0  0
 31 23  1  0  0  0  0
 32 30  2  0  0  0  0
 33 21  1  6  0  0  0
 34 33  1  0  0  0  0
M  END
>  <MODEL>
6

>  <REMARK>
 VINA RESULT:      -8.2      0.933      1.570
  Name = 
  5 active torsions:
  status: ('A' for Active; 'I' for Inactive)
    1  A    between atoms: C_1  and  C_34
    2  A    between atoms: O_3  and  C_24
    3  A    between atoms: O_3  and  C_25
    4  A    between atoms: C_17  and  N_18
    5  A    between atoms: N_18  and  C_30
                            x       y       z     vdW  Elec       q    Type
                         _______ _______ _______ _____ _____    ______ ____

>  <TORSDO>
F 5

$$$$
=
 OpenBabel11062409283D

 34 38  0  0  1  0  0  0  0  0999 V2000
  159.5690  211.4830  153.3290 C   0  0  0  0  0  0  0  0  0  0  0  0
  158.5750  214.4510  152.4590 N   0  0  0  0  0  1  0  0  0  0  0  0
  161.2920  210.4630  151.2640 C   0  0  0  0  0  3  0  0  0  0  0  0
  159.8830  210.1760  153.2490 C   0  0  0  0  0  3  0  0  0  0  0  0
  160.8250  211.8440  151.2360 C   0  0  1  0  0  3  0  0  0  0  0  0
  160.3930  212.4390  150.1370 C   0  0  0  0  0  2  0  0  0  0  0  0
  160.8420  209.6590  152.2380 C   0  0  0  0  0  0  0  0  0  0  0  0
  159.3590  213.4780  151.7700 C   0  0  0  0  0  0  0  0  0  0  0  0
  160.2750  212.5040  152.4510 C   0  0  1  0  0  3  0  0  0  0  0  0
  159.5060  213.4990  150.4820 N   0  0  0  0  0  0  0  0  0  0  0  0
  158.7130  212.7020  156.7620 C   0  0  0  0  0  3  0  0  0  0  0  0
  157.4950  211.9280  157.1710 C   0  0  0  0  0  2  0  0  0  0  0  0
  156.2780  212.3240  156.3760 C   0  0  0  0  0  0  0  0  0  0  0  0
  156.2350  212.1990  155.0480 C   0  0  0  0  0  3  0  0  0  0  0  0
  159.2390  212.6600  155.5380 C   0  0  0  0  0  3  0  0  0  0  0  0
  157.3500  211.7860  154.1700 C   0  0  0  0  0  3  0  0  0  0  0  0
  158.6600  211.9320  154.3860 C   0  0  0  0  0  0  0  0  0  0  0  0
  155.1120  212.7510  157.0220 O   0  0  0  0  0  0  0  0  0  0  0  0
  153.3070  214.3750  157.1050 C   0  0  0  0  0  1  0  0  0  0  0  0
  154.8010  214.1260  157.2280 C   0  0  0  0  0  2  0  0  0  0  0  0
  161.3410  208.3130  152.3650 N   0  0  0  0  0  2  0  0  0  0  0  0
  161.4740  206.5330  149.0490 C   0  0  0  0  0  2  0  0  0  0  0  0
  162.3690  206.1500  151.7480 C   0  0  0  0  0  2  0  0  0  0  0  0
  160.8480  202.8420  149.5990 N   0  0  0  0  0  0  0  0  0  0  0  0
  160.2940  201.7070  148.9160 C   0  0  0  0  0  0  0  0  0  0  0  0
  161.2170  204.0410  148.8490 C   0  0  0  0  0  2  0  0  0  0  0  0
  159.2750  201.1280  149.3810 O   0  0  0  0  0  0  0  0  0  0  0  0
  161.0100  205.2610  149.7360 C   0  0  1  0  0  3  0  0  0  0  0  0
  160.9450  201.1760  147.6830 C   0  0  0  0  0  1  0  0  0  0  0  0
  161.5930  203.7990  151.6750 C   0  0  0  0  0  3  0  0  0  0  0  0
  161.6860  205.0710  151.0280 N   0  0  0  0  0  0  0  0  0  0  0  0
  161.1690  202.7360  150.9970 C   0  0  0  0  0  3  0  0  0  0  0  0
  161.9940  207.5710  151.2800 C   0  0  1  0  0  3  0  0  0  0  0  0
  161.1790  207.6850  149.9880 C   0  0  0  0  0  2  0  0  0  0  0  0
  1 17  1  0  0  0  0
  3  7  2  0  0  0  0
  4  1  2  0  0  0  0
  5  6  1  6  0  0  0
  5  3  1  0  0  0  0
  5  9  1  0  0  0  0
  6 10  1  0  0  0  0
  7 21  1  0  0  0  0
  7  4  1  0  0  0  0
  8  2  1  0  0  0  0
  9  8  1  6  0  0  0
  9  1  1  0  0  0  0
 10  8  2  0  0  0  0
 11 12  1  0  0  0  0
 13 18  1  0  0  0  0
 13 12  1  0  0  0  0
 14 13  2  0  0  0  0
 15 11  2  0  0  0  0
 16 17  2  0  0  0  0
 16 14  1  0  0  0  0
 17 15  1  0  0  0  0
 18 20  1  0  0  0  0
 19 20  1  0  0  0  0
 22 28  1  0  0  0  0
 22 34  1  0  0  0  0
 24 32  1  0  0  0  0
 25 27  2  0  0  0  0
 25 24  1  0  0  0  0
 26 24  1  0  0  0  0
 28 26  1  6  0  0  0
 28 31  1  0  0  0  0
 29 25  1  0  0  0  0
 31 30  1  0  0  0  0
 31 23  1  0  0  0  0
 32 30  2  0  0  0  0
 33 23  1  0  0  0  0
 33 21  1  1  0  0  0
 34 33  1  0  0  0  0
M  END
>  <MODEL>
7

>  <REMARK>
 VINA RESULT:      -7.8      4.953     10.184
  Name = 
  5 active torsions:
  status: ('A' for Active; 'I' for Inactive)
    1  A    between atoms: C_1  and  C_34
    2  A    between atoms: O_3  and  C_24
    3  A    between atoms: O_3  and  C_25
    4  A    between atoms: C_17  and  N_18
    5  A    between atoms: N_18  and  C_30
                            x       y       z     vdW  Elec       q    Type
                         _______ _______ _______ _____ _____    ______ ____

>  <TORSDO>
F 5

$$$$
=
 OpenBabel11062409283D

 34 38  0  0  1  0  0  0  0  0999 V2000
  161.1960  207.3150  151.1960 C   0  0  0  0  0  0  0  0  0  0  0  0
  162.0270  204.2080  151.6550 N   0  0  0  0  0  1  0  0  0  0  0  0
  160.8240  208.5430  153.7710 C   0  0  0  0  0  3  0  0  0  0  0  0
  160.5530  208.4900  151.3350 C   0  0  0  0  0  3  0  0  0  0  0  0
  161.3670  207.1950  153.6550 C   0  0  1  0  0  3  0  0  0  0  0  0
  160.9910  206.1950  154.4350 C   0  0  0  0  0  2  0  0  0  0  0  0
  160.4360  209.1710  152.6510 C   0  0  0  0  0  0  0  0  0  0  0  0
  161.6460  205.2290  152.5760 C   0  0  0  0  0  0  0  0  0  0  0  0
  161.9280  206.6890  152.3730 C   0  0  1  0  0  3  0  0  0  0  0  0
  161.2140  204.9560  153.7670 N   0  0  0  0  0  0  0  0  0  0  0  0
  160.7420  204.6390  148.6200 C   0  0  0  0  0  3  0  0  0  0  0  0
  162.0470  204.5640  147.8850 C   0  0  0  0  0  2  0  0  0  0  0  0
  162.2930  205.7860  147.0390 C   0  0  0  0  0  0  0  0  0  0  0  0
  162.3620  207.0080  147.5730 C   0  0  0  0  0  3  0  0  0  0  0  0
  160.4540  205.5790  149.5200 C   0  0  0  0  0  3  0  0  0  0  0  0
  162.1080  207.3630  148.9850 C   0  0  0  0  0  3  0  0  0  0  0  0
  161.3230  206.7290  149.8610 C   0  0  0  0  0  0  0  0  0  0  0  0
  162.5520  205.6660  145.6690 O   0  0  0  0  0  0  0  0  0  0  0  0
  160.2520  206.1910  145.0870 C   0  0  0  0  0  1  0  0  0  0  0  0
  161.5250  205.4540  144.7040 C   0  0  0  0  0  2  0  0  0  0  0  0
  159.9780  210.5370  152.7000 N   0  0  0  0  0  2  0  0  0  0  0  0
  160.3500  213.6540  150.6210 C   0  0  0  0  0  2  0  0  0  0  0  0
  161.7310  211.1820  151.0790 C   0  0  0  0  0  2  0  0  0  0  0  0
  161.4770  212.6940  147.1390 N   0  0  0  0  0  0  0  0  0  0  0  0
  161.3690  213.1530  145.7830 C   0  0  0  0  0  0  0  0  0  0  0  0
  161.1690  213.5970  148.2450 C   0  0  0  0  0  2  0  0  0  0  0  0
  160.7870  212.4400  144.9210 O   0  0  0  0  0  0  0  0  0  0  0  0
  160.5950  212.7870  149.3990 C   0  0  1  0  0  3  0  0  0  0  0  0
  161.9850  214.4490  145.3740 C   0  0  0  0  0  1  0  0  0  0  0  0
  162.0470  210.9030  148.6380 C   0  0  0  0  0  3  0  0  0  0  0  0
  161.4790  211.6550  149.7140 N   0  0  0  0  0  0  0  0  0  0  0  0
  162.0250  211.3900  147.4000 C   0  0  0  0  0  3  0  0  0  0  0  0
  160.7100  211.6710  152.1260 C   0  0  1  0  0  3  0  0  0  0  0  0
  159.7350  212.7690  151.6860 C   0  0  0  0  0  2  0  0  0  0  0  0
  1  4  2  0  0  0  0
  2  8  1  0  0  0  0
  4  7  1  0  0  0  0
  5  3  1  6  0  0  0
  5  6  1  0  0  0  0
  7 21  1  0  0  0  0
  7  3  2  0  0  0  0
  8 10  2  0  0  0  0
  9  1  1  6  0  0  0
  9  8  1  0  0  0  0
  9  5  1  0  0  0  0
 10  6  1  0  0  0  0
 11 15  2  0  0  0  0
 12 11  1  0  0  0  0
 13 14  2  0  0  0  0
 13 12  1  0  0  0  0
 14 16  1  0  0  0  0
 15 17  1  0  0  0  0
 16 17  2  0  0  0  0
 17  1  1  0  0  0  0
 18 13  1  0  0  0  0
 20 19  1  0  0  0  0
 20 18  1  0  0  0  0
 22 34  1  0  0  0  0
 23 33  1  0  0  0  0
 24 32  1  0  0  0  0
 24 26  1  0  0  0  0
 25 24  1  0  0  0  0
 27 25  2  0  0  0  0
 28 26  1  6  0  0  0
 28 31  1  0  0  0  0
 28 22  1  0  0  0  0
 29 25  1  0  0  0  0
 30 31  1  0  0  0  0
 31 23  1  0  0  0  0
 32 30  2  0  0  0  0
 33 21  1  6  0  0  0
 34 33  1  0  0  0  0
M  END
>  <MODEL>
8

>  <REMARK>
 VINA RESULT:      -7.8      2.453      3.958
  Name = 
  5 active torsions:
  status: ('A' for Active; 'I' for Inactive)
    1  A    between atoms: C_1  and  C_34
    2  A    between atoms: O_3  and  C_24
    3  A    between atoms: O_3  and  C_25
    4  A    between atoms: C_17  and  N_18
    5  A    between atoms: N_18  and  C_30
                            x       y       z     vdW  Elec       q    Type
                         _______ _______ _______ _____ _____    ______ ____

>  <TORSDO>
F 5

$$$$
=
 OpenBabel11062409283D

 34 38  0  0  1  0  0  0  0  0999 V2000
  161.6310  206.2900  150.3110 C   0  0  0  0  0  0  0  0  0  0  0  0
  161.6080  203.1070  150.9610 N   0  0  0  0  0  1  0  0  0  0  0  0
  161.4030  207.7240  152.7950 C   0  0  0  0  0  3  0  0  0  0  0  0
  161.3020  207.5950  150.3490 C   0  0  0  0  0  3  0  0  0  0  0  0
  161.5910  206.2780  152.7780 C   0  0  1  0  0  3  0  0  0  0  0  0
  160.9190  205.4530  153.5630 C   0  0  0  0  0  2  0  0  0  0  0  0
  161.2680  208.3610  151.6230 C   0  0  0  0  0  0  0  0  0  0  0  0
  161.4360  204.2450  151.8060 C   0  0  0  0  0  0  0  0  0  0  0  0
  162.0940  205.5720  151.5690 C   0  0  1  0  0  3  0  0  0  0  0  0
  160.8650  204.1610  152.9660 N   0  0  0  0  0  0  0  0  0  0  0  0
  162.1870  206.1050  146.6150 C   0  0  0  0  0  3  0  0  0  0  0  0
  161.0730  205.2530  146.0840 C   0  0  0  0  0  2  0  0  0  0  0  0
  161.2110  203.8120  146.5030 C   0  0  0  0  0  0  0  0  0  0  0  0
  161.2270  203.4530  147.7880 C   0  0  0  0  0  3  0  0  0  0  0  0
  162.4240  206.2860  147.9140 C   0  0  0  0  0  3  0  0  0  0  0  0
  161.2300  204.3630  148.9530 C   0  0  0  0  0  3  0  0  0  0  0  0
  161.6990  205.6120  149.0150 C   0  0  0  0  0  0  0  0  0  0  0  0
  161.2340  202.7900  145.5470 O   0  0  0  0  0  0  0  0  0  0  0  0
  159.7500  201.0490  144.7280 C   0  0  0  0  0  1  0  0  0  0  0  0
  160.7340  201.4810  145.8030 C   0  0  0  0  0  2  0  0  0  0  0  0
  161.1720  209.7980  151.5780 N   0  0  0  0  0  2  0  0  0  0  0  0
  159.2290  210.8320  154.6340 C   0  0  0  0  0  2  0  0  0  0  0  0
  160.3770  212.0280  152.2930 C   0  0  0  0  0  2  0  0  0  0  0  0
  156.5910  213.3520  153.6300 N   0  0  0  0  0  0  0  0  0  0  0  0
  155.2840  213.7930  154.0280 C   0  0  0  0  0  0  0  0  0  0  0  0
  157.4110  212.5650  154.5490 C   0  0  0  0  0  2  0  0  0  0  0  0
  154.3080  213.6600  153.2410 O   0  0  0  0  0  0  0  0  0  0  0  0
  158.2770  211.6090  153.7420 C   0  0  1  0  0  3  0  0  0  0  0  0
  155.0800  214.4520  155.3510 C   0  0  0  0  0  1  0  0  0  0  0  0
  158.3070  213.3440  151.9460 C   0  0  0  0  0  3  0  0  0  0  0  0
  159.0020  212.3410  152.6930 N   0  0  0  0  0  0  0  0  0  0  0  0
  157.1400  213.8110  152.3830 C   0  0  0  0  0  3  0  0  0  0  0  0
  160.8760  210.6400  152.7430 C   0  0  1  0  0  3  0  0  0  0  0  0
  160.0030  209.8790  153.7450 C   0  0  0  0  0  2  0  0  0  0  0  0
  1  4  2  0  0  0  0
  2  8  1  0  0  0  0
  4  7  1  0  0  0  0
  5  3  1  6  0  0  0
  5  6  1  0  0  0  0
  7  3  2  0  0  0  0
  8 10  2  0  0  0  0
  9  1  1  6  0  0  0
  9  8  1  0  0  0  0
  9  5  1  0  0  0  0
 10  6  1  0  0  0  0
 11 15  2  0  0  0  0
 12 13  1  0  0  0  0
 12 11  1  0  0  0  0
 13 14  2  0  0  0  0
 14 16  1  0  0  0  0
 15 17  1  0  0  0  0
 16 17  2  0  0  0  0
 17  1  1  0  0  0  0
 18 20  1  0  0  0  0
 18 13  1  0  0  0  0
 19 20  1  0  0  0  0
 21  7  1  0  0  0  0
 23 31  1  0  0  0  0
 23 33  1  0  0  0  0
 24 25  1  0  0  0  0
 24 26  1  0  0  0  0
 25 29  1  0  0  0  0
 27 25  2  0  0  0  0
 28 26  1  1  0  0  0
 28 22  1  0  0  0  0
 30 32  2  0  0  0  0
 30 31  1  0  0  0  0
 31 28  1  0  0  0  0
 32 24  1  0  0  0  0
 33 21  1  6  0  0  0
 33 34  1  0  0  0  0
 34 22  1  0  0  0  0
M  END
>  <MODEL>
9

>  <REMARK>
 VINA RESULT:      -7.8      4.996      6.928
  Name = 
  5 active torsions:
  status: ('A' for Active; 'I' for Inactive)
    1  A    between atoms: C_1  and  C_34
    2  A    between atoms: O_3  and  C_24
    3  A    between atoms: O_3  and  C_25
    4  A    between atoms: C_17  and  N_18
    5  A    between atoms: N_18  and  C_30
                            x       y       z     vdW  Elec       q    Type
                         _______ _______ _______ _____ _____    ______ ____

>  <TORSDO>
F 5

$$$$
