=
 OpenBabel11052422223D

 25 25  0  0  1  0  0  0  0  0999 V2000
  160.6260  208.0120  153.7830 C   0  0  1  0  0  3  0  0  0  0  0  0
  159.4840  209.5720  155.2200 O   0  0  0  0  0  0  0  0  0  0  0  0
  161.9240  209.2870  155.5500 C   0  0  0  0  0  2  0  0  0  0  0  0
  160.2640  212.5570  155.7250 O   0  0  0  0  0  1  0  0  0  0  0  0
  160.7160  211.3630  156.2860 C   0  0  2  0  0  3  0  0  0  0  0  0
  161.8590  210.8070  155.4360 C   0  0  0  0  0  2  0  0  0  0  0  0
  160.5610  208.6370  155.1970 C   0  0  2  0  0  0  0  0  0  0  0  0
  159.5590  210.3670  156.3850 C   0  0  0  0  0  2  0  0  0  0  0  0
  160.2900  207.5210  156.2130 C   0  0  0  0  0  2  0  0  0  0  0  0
  159.0110  207.0150  156.0570 F   0  0  0  0  0  0  0  0  0  0  0  0
  160.0120  209.9270  152.4950 O   0  0  0  0  0  0  0  0  0  0  0  0
  162.0660  208.9870  151.9220 N   0  0  0  0  0  2  0  0  0  0  0  0
  162.2970  209.9100  150.9590 O   0  0  0  0  0  1  0  0  0  0  0  0
  160.8680  209.0260  152.6990 C   0  0  0  0  0  0  0  0  0  0  0  0
  161.6030  206.8390  153.6820 C   0  0  0  0  0  2  0  0  0  0  0  0
  160.9260  205.6830  153.2940 O   0  0  0  0  0  0  0  0  0  0  0  0
  161.6250  205.2260  152.1780 C   0  0  0  0  0  2  0  0  0  0  0  0
  160.8620  203.5130  150.6030 N   0  0  0  0  0  0  0  0  0  0  0  0
  161.1480  203.8540  151.8130 C   0  0  0  0  0  3  0  0  0  0  0  0
  160.9670  204.4120  149.4770 C   0  0  0  0  0  2  0  0  0  0  0  0
  161.3110  203.6400  148.2160 C   0  0  0  0  0  2  0  0  0  0  0  0
  161.6900  204.6140  147.1190 C   0  0  0  0  0  2  0  0  0  0  0  0
  161.6730  203.9000  145.7830 C   0  0  0  0  0  2  0  0  0  0  0  0
  160.9110  204.7360  144.7760 C   0  0  0  0  0  2  0  0  0  0  0  0
  160.5150  206.0550  145.4080 C   0  0  0  0  0  1  0  0  0  0  0  0
  1 15  1  1  0  0  0
  1  7  1  0  0  0  0
  2  8  1  0  0  0  0
  5  4  1  6  0  0  0
  5  8  1  0  0  0  0
  6  3  1  0  0  0  0
  6  5  1  0  0  0  0
  7  2  1  0  0  0  0
  7  3  1  0  0  0  0
  7  9  1  1  0  0  0
 10  9  1  0  0  0  0
 11 14  2  0  0  0  0
 12 14  1  0  0  0  0
 13 12  1  0  0  0  0
 14  1  1  0  0  0  0
 16 15  1  0  0  0  0
 17 16  1  0  0  0  0
 18 19  2  0  0  0  0
 19 17  1  0  0  0  0
 20 18  1  0  0  0  0
 21 20  1  0  0  0  0
 22 21  1  0  0  0  0
 23 22  1  0  0  0  0
 24 25  1  0  0  0  0
 24 23  1  0  0  0  0
M  END
>  <MODEL>
1

>  <REMARK>
 VINA RESULT:      -6.1      0.000      0.000
  Name = 
  12 active torsions:
  status: ('A' for Active; 'I' for Inactive)
    1  A    between atoms: C_1  and  C_3
    2  A    between atoms: C_1  and  C_18
    3  A    between atoms: C_1  and  C_24
    4  A    between atoms: C_2  and  C_7
    5  A    between atoms: C_2  and  C_25
    6  A    between atoms: C_3  and  O_16
    7  A    between atoms: C_6  and  N_15
    8  A    between atoms: C_6  and  C_21
    9  A    between atoms: O_16  and  C_23
   10  A    between atoms: C_17  and  C_18
   11  A    between atoms: C_20  and  C_23
   12  A    between atoms: C_21  and  C_25
                            x       y       z     vdW  Elec       q    Type
                         _______ _______ _______ _____ _____    ______ ____

>  <TORSDO>
F 12

$$$$
=
 OpenBabel11052422223D

 25 25  0  0  1  0  0  0  0  0999 V2000
  160.5040  208.7710  153.6750 C   0  0  1  0  0  3  0  0  0  0  0  0
  159.4130  209.9690  155.4570 O   0  0  0  0  0  0  0  0  0  0  0  0
  161.7900  209.3460  155.7830 C   0  0  0  0  0  2  0  0  0  0  0  0
  160.4230  212.5880  156.8330 O   0  0  0  0  0  1  0  0  0  0  0  0
  160.7270  211.2430  157.0410 C   0  0  2  0  0  3  0  0  0  0  0  0
  161.8690  210.8340  156.1120 C   0  0  0  0  0  2  0  0  0  0  0  0
  160.4000  208.9710  155.2050 C   0  0  2  0  0  0  0  0  0  0  0  0
  159.4800  210.3880  156.8040 C   0  0  0  0  0  2  0  0  0  0  0  0
  159.9630  207.6480  155.8430 C   0  0  0  0  0  2  0  0  0  0  0  0
  160.8350  207.2780  156.8530 F   0  0  0  0  0  0  0  0  0  0  0  0
  162.0500  210.2260  152.5820 O   0  0  0  0  0  0  0  0  0  0  0  0
  159.8490  210.9900  152.6130 N   0  0  0  0  0  2  0  0  0  0  0  0
  160.1580  212.1170  151.9290 O   0  0  0  0  0  1  0  0  0  0  0  0
  160.8560  210.0310  152.9350 C   0  0  0  0  0  0  0  0  0  0  0  0
  161.4200  207.6120  153.2750 C   0  0  0  0  0  2  0  0  0  0  0  0
  160.8360  206.8720  152.2450 O   0  0  0  0  0  0  0  0  0  0  0  0
  161.8570  206.7130  151.3090 C   0  0  0  0  0  2  0  0  0  0  0  0
  161.0560  207.2870  149.0670 N   0  0  0  0  0  0  0  0  0  0  0  0
  161.6350  207.6480  150.1610 C   0  0  0  0  0  3  0  0  0  0  0  0
  160.5640  205.9480  148.8320 C   0  0  0  0  0  2  0  0  0  0  0  0
  161.5350  205.1760  147.9580 C   0  0  0  0  0  2  0  0  0  0  0  0
  161.2900  203.6910  148.1260 C   0  0  0  0  0  2  0  0  0  0  0  0
  160.9360  203.3980  149.5700 C   0  0  0  0  0  2  0  0  0  0  0  0
  160.5450  201.9410  149.7060 C   0  0  0  0  0  2  0  0  0  0  0  0
  161.2170  201.1320  148.6150 C   0  0  0  0  0  1  0  0  0  0  0  0
  1 15  1  1  0  0  0
  1  7  1  0  0  0  0
  2  8  1  0  0  0  0
  3  6  1  0  0  0  0
  5  4  1  6  0  0  0
  6  5  1  0  0  0  0
  7  2  1  0  0  0  0
  7  3  1  0  0  0  0
  7  9  1  1  0  0  0
  8  5  1  0  0  0  0
  9 10  1  0  0  0  0
 11 14  2  0  0  0  0
 12 14  1  0  0  0  0
 13 12  1  0  0  0  0
 14  1  1  0  0  0  0
 16 15  1  0  0  0  0
 17 16  1  0  0  0  0
 18 19  2  0  0  0  0
 19 17  1  0  0  0  0
 20 18  1  0  0  0  0
 21 22  1  0  0  0  0
 21 20  1  0  0  0  0
 22 23  1  0  0  0  0
 23 24  1  0  0  0  0
 25 24  1  0  0  0  0
M  END
>  <MODEL>
2

>  <REMARK>
 VINA RESULT:      -5.9      1.793      2.554
  Name = 
  12 active torsions:
  status: ('A' for Active; 'I' for Inactive)
    1  A    between atoms: C_1  and  C_3
    2  A    between atoms: C_1  and  C_18
    3  A    between atoms: C_1  and  C_24
    4  A    between atoms: C_2  and  C_7
    5  A    between atoms: C_2  and  C_25
    6  A    between atoms: C_3  and  O_16
    7  A    between atoms: C_6  and  N_15
    8  A    between atoms: C_6  and  C_21
    9  A    between atoms: O_16  and  C_23
   10  A    between atoms: C_17  and  C_18
   11  A    between atoms: C_20  and  C_23
   12  A    between atoms: C_21  and  C_25
                            x       y       z     vdW  Elec       q    Type
                         _______ _______ _______ _____ _____    ______ ____

>  <TORSDO>
F 12

$$$$
=
 OpenBabel11052422223D

 25 25  0  0  1  0  0  0  0  0999 V2000
  160.8140  203.7840  148.6170 C   0  0  1  0  0  3  0  0  0  0  0  0
  160.3480  205.3500  146.8470 O   0  0  0  0  0  0  0  0  0  0  0  0
  162.7170  204.7360  147.2370 C   0  0  0  0  0  2  0  0  0  0  0  0
  161.2970  205.1430  143.8760 O   0  0  0  0  0  1  0  0  0  0  0  0
  161.9200  205.6240  145.0270 C   0  0  2  0  0  3  0  0  0  0  0  0
  162.6290  204.4720  145.7370 C   0  0  0  0  0  2  0  0  0  0  0  0
  161.3170  205.0240  147.8410 C   0  0  2  0  0  0  0  0  0  0  0  0
  160.8840  206.2880  145.9370 C   0  0  0  0  0  2  0  0  0  0  0  0
  161.4560  206.1930  148.8230 C   0  0  0  0  0  2  0  0  0  0  0  0
  160.2120  206.6910  149.1720 F   0  0  0  0  0  0  0  0  0  0  0  0
  161.6860  201.5670  148.4490 O   0  0  0  0  0  0  0  0  0  0  0  0
  160.5260  202.3020  146.5660 N   0  0  0  0  0  2  0  0  0  0  0  0
  160.7140  201.1330  145.9090 O   0  0  0  0  0  1  0  0  0  0  0  0
  161.0450  202.4930  147.8830 C   0  0  0  0  0  0  0  0  0  0  0  0
  161.3360  203.7130  150.0530 C   0  0  0  0  0  2  0  0  0  0  0  0
  160.2700  203.7610  150.9540 O   0  0  0  0  0  0  0  0  0  0  0  0
  160.8720  203.9460  152.1970 C   0  0  0  0  0  2  0  0  0  0  0  0
  162.0890  205.9950  152.7620 N   0  0  0  0  0  0  0  0  0  0  0  0
  162.0080  204.9130  152.0650 C   0  0  0  0  0  3  0  0  0  0  0  0
  161.0970  206.3900  153.7360 C   0  0  0  0  0  2  0  0  0  0  0  0
  160.7730  207.8650  153.5900 C   0  0  0  0  0  2  0  0  0  0  0  0
  161.4760  208.4140  152.3660 C   0  0  0  0  0  2  0  0  0  0  0  0
  160.8450  209.7340  151.9700 C   0  0  0  0  0  2  0  0  0  0  0  0
  160.3420  210.4430  153.2100 C   0  0  0  0  0  2  0  0  0  0  0  0
  159.0450  211.1590  152.8940 C   0  0  0  0  0  1  0  0  0  0  0  0
  1 15  1  1  0  0  0
  2  7  1  0  0  0  0
  3  7  1  0  0  0  0
  5  4  1  6  0  0  0
  5  6  1  0  0  0  0
  5  8  1  0  0  0  0
  6  3  1  0  0  0  0
  7  1  1  0  0  0  0
  7  9  1  1  0  0  0
  8  2  1  0  0  0  0
  9 10  1  0  0  0  0
 12 14  1  0  0  0  0
 13 12  1  0  0  0  0
 14 11  2  0  0  0  0
 14  1  1  0  0  0  0
 15 16  1  0  0  0  0
 16 17  1  0  0  0  0
 18 20  1  0  0  0  0
 19 17  1  0  0  0  0
 19 18  2  0  0  0  0
 21 20  1  0  0  0  0
 22 21  1  0  0  0  0
 23 22  1  0  0  0  0
 23 24  1  0  0  0  0
 25 24  1  0  0  0  0
M  END
>  <MODEL>
3

>  <REMARK>
 VINA RESULT:      -5.8      3.842      8.427
  Name = 
  12 active torsions:
  status: ('A' for Active; 'I' for Inactive)
    1  A    between atoms: C_1  and  C_3
    2  A    between atoms: C_1  and  C_18
    3  A    between atoms: C_1  and  C_24
    4  A    between atoms: C_2  and  C_7
    5  A    between atoms: C_2  and  C_25
    6  A    between atoms: C_3  and  O_16
    7  A    between atoms: C_6  and  N_15
    8  A    between atoms: C_6  and  C_21
    9  A    between atoms: O_16  and  C_23
   10  A    between atoms: C_17  and  C_18
   11  A    between atoms: C_20  and  C_23
   12  A    between atoms: C_21  and  C_25
                            x       y       z     vdW  Elec       q    Type
                         _______ _______ _______ _____ _____    ______ ____

>  <TORSDO>
F 12

$$$$
=
 OpenBabel11052422223D

 25 25  0  0  1  0  0  0  0  0999 V2000
  161.7250  204.6880  147.8810 C   0  0  1  0  0  3  0  0  0  0  0  0
  160.8320  205.1490  145.6920 O   0  0  0  0  0  0  0  0  0  0  0  0
  161.7260  202.8760  146.1080 C   0  0  0  0  0  2  0  0  0  0  0  0
  158.6650  203.4830  144.1750 O   0  0  0  0  0  1  0  0  0  0  0  0
  160.0460  203.3320  144.2980 C   0  0  2  0  0  3  0  0  0  0  0  0
  160.3540  202.5100  145.5480 C   0  0  0  0  0  2  0  0  0  0  0  0
  161.8420  204.4000  146.3660 C   0  0  2  0  0  0  0  0  0  0  0  0
  160.7130  204.7090  144.3560 C   0  0  0  0  0  2  0  0  0  0  0  0
  163.2230  204.8600  145.8850 C   0  0  0  0  0  2  0  0  0  0  0  0
  163.8990  203.8200  145.2690 F   0  0  0  0  0  0  0  0  0  0  0  0
  160.0950  206.2710  148.6140 O   0  0  0  0  0  0  0  0  0  0  0  0
  162.1480  207.1950  148.0130 N   0  0  0  0  0  2  0  0  0  0  0  0
  161.7450  208.4540  148.3050 O   0  0  0  0  0  1  0  0  0  0  0  0
  161.2650  206.0860  148.1850 C   0  0  0  0  0  0  0  0  0  0  0  0
  160.8930  203.6480  148.6340 C   0  0  0  0  0  2  0  0  0  0  0  0
  161.4960  203.3420  149.8550 O   0  0  0  0  0  0  0  0  0  0  0  0
  160.4650  203.4360  150.7870 C   0  0  0  0  0  2  0  0  0  0  0  0
  161.2360  204.7810  152.6840 N   0  0  0  0  0  0  0  0  0  0  0  0
  161.0420  203.6190  152.1570 C   0  0  0  0  0  3  0  0  0  0  0  0
  160.9220  206.0210  152.0120 C   0  0  0  0  0  2  0  0  0  0  0  0
  162.1970  206.7580  151.6450 C   0  0  0  0  0  2  0  0  0  0  0  0
  161.9440  208.2510  151.6860 C   0  0  0  0  0  2  0  0  0  0  0  0
  160.7850  208.5410  152.6180 C   0  0  0  0  0  2  0  0  0  0  0  0
  161.3020  209.2380  153.8600 C   0  0  0  0  0  2  0  0  0  0  0  0
  160.1820  209.3640  154.8740 C   0  0  0  0  0  1  0  0  0  0  0  0
  1 14  1  0  0  0  0
  1 15  1  6  0  0  0
  2  7  1  0  0  0  0
  3  7  1  0  0  0  0
  5  4  1  1  0  0  0
  5  8  1  0  0  0  0
  5  6  1  0  0  0  0
  6  3  1  0  0  0  0
  7  9  1  6  0  0  0
  7  1  1  0  0  0  0
  8  2  1  0  0  0  0
 10  9  1  0  0  0  0
 12 14  1  0  0  0  0
 12 13  1  0  0  0  0
 14 11  2  0  0  0  0
 15 16  1  0  0  0  0
 16 17  1  0  0  0  0
 17 19  1  0  0  0  0
 19 18  2  0  0  0  0
 20 18  1  0  0  0  0
 21 22  1  0  0  0  0
 21 20  1  0  0  0  0
 22 23  1  0  0  0  0
 23 24  1  0  0  0  0
 24 25  1  0  0  0  0
M  END
>  <MODEL>
4

>  <REMARK>
 VINA RESULT:      -5.7      3.993      8.773
  Name = 
  12 active torsions:
  status: ('A' for Active; 'I' for Inactive)
    1  A    between atoms: C_1  and  C_3
    2  A    between atoms: C_1  and  C_18
    3  A    between atoms: C_1  and  C_24
    4  A    between atoms: C_2  and  C_7
    5  A    between atoms: C_2  and  C_25
    6  A    between atoms: C_3  and  O_16
    7  A    between atoms: C_6  and  N_15
    8  A    between atoms: C_6  and  C_21
    9  A    between atoms: O_16  and  C_23
   10  A    between atoms: C_17  and  C_18
   11  A    between atoms: C_20  and  C_23
   12  A    between atoms: C_21  and  C_25
                            x       y       z     vdW  Elec       q    Type
                         _______ _______ _______ _____ _____    ______ ____

>  <TORSDO>
F 12

$$$$
=
 OpenBabel11052422223D

 25 25  0  0  1  0  0  0  0  0999 V2000
  161.2380  209.1970  154.7770 C   0  0  1  0  0  3  0  0  0  0  0  0
  159.4130  210.4070  155.7820 O   0  0  0  0  0  0  0  0  0  0  0  0
  160.4210  211.3550  153.7260 C   0  0  0  0  0  2  0  0  0  0  0  0
  156.8030  211.3690  154.3540 O   0  0  0  0  0  1  0  0  0  0  0  0
  158.0810  211.9210  154.4420 C   0  0  2  0  0  3  0  0  0  0  0  0
  158.9510  211.3650  153.3160 C   0  0  0  0  0  2  0  0  0  0  0  0
  160.6290  210.5910  155.0590 C   0  0  2  0  0  0  0  0  0  0  0  0
  158.6820  211.6150  155.8160 C   0  0  0  0  0  2  0  0  0  0  0  0
  161.6150  211.3920  155.9160 C   0  0  0  0  0  2  0  0  0  0  0  0
  162.9190  211.0040  155.6570 F   0  0  0  0  0  0  0  0  0  0  0  0
  162.0580  208.1880  156.7790 O   0  0  0  0  0  0  0  0  0  0  0  0
  159.9490  207.4550  156.1130 N   0  0  0  0  0  2  0  0  0  0  0  0
  159.8300  206.6180  157.1710 O   0  0  0  0  0  1  0  0  0  0  0  0
  161.1200  208.2540  155.9410 C   0  0  0  0  0  0  0  0  0  0  0  0
  160.7230  208.5610  153.4840 C   0  0  0  0  0  2  0  0  0  0  0  0
  161.7680  208.4210  152.5700 O   0  0  0  0  0  0  0  0  0  0  0  0
  161.3350  207.4260  151.6950 C   0  0  0  0  0  2  0  0  0  0  0  0
  161.7780  206.8690  149.3510 N   0  0  0  0  0  0  0  0  0  0  0  0
  162.1220  207.5000  150.4230 C   0  0  0  0  0  3  0  0  0  0  0  0
  160.6070  206.0280  149.2650 C   0  0  0  0  0  2  0  0  0  0  0  0
  161.0120  204.5680  149.1860 C   0  0  0  0  0  2  0  0  0  0  0  0
  160.8570  203.9290  150.5510 C   0  0  0  0  0  2  0  0  0  0  0  0
  160.8320  202.4220  150.4040 C   0  0  0  0  0  2  0  0  0  0  0  0
  160.4550  202.0610  148.9820 C   0  0  0  0  0  2  0  0  0  0  0  0
  161.2410  200.8420  148.5430 C   0  0  0  0  0  1  0  0  0  0  0  0
  1 15  1  6  0  0  0
  1  7  1  0  0  0  0
  1 14  1  0  0  0  0
  2  8  1  0  0  0  0
  3  7  1  0  0  0  0
  5  4  1  1  0  0  0
  5  8  1  0  0  0  0
  6  3  1  0  0  0  0
  6  5  1  0  0  0  0
  7  2  1  0  0  0  0
  7  9  1  1  0  0  0
 10  9  1  0  0  0  0
 12 13  1  0  0  0  0
 14 12  1  0  0  0  0
 14 11  2  0  0  0  0
 16 15  1  0  0  0  0
 17 16  1  0  0  0  0
 18 19  2  0  0  0  0
 19 17  1  0  0  0  0
 20 18  1  0  0  0  0
 21 20  1  0  0  0  0
 21 22  1  0  0  0  0
 23 22  1  0  0  0  0
 24 23  1  0  0  0  0
 25 24  1  0  0  0  0
M  END
>  <MODEL>
5

>  <REMARK>
 VINA RESULT:      -5.6      2.614      3.879
  Name = 
  12 active torsions:
  status: ('A' for Active; 'I' for Inactive)
    1  A    between atoms: C_1  and  C_3
    2  A    between atoms: C_1  and  C_18
    3  A    between atoms: C_1  and  C_24
    4  A    between atoms: C_2  and  C_7
    5  A    between atoms: C_2  and  C_25
    6  A    between atoms: C_3  and  O_16
    7  A    between atoms: C_6  and  N_15
    8  A    between atoms: C_6  and  C_21
    9  A    between atoms: O_16  and  C_23
   10  A    between atoms: C_17  and  C_18
   11  A    between atoms: C_20  and  C_23
   12  A    between atoms: C_21  and  C_25
                            x       y       z     vdW  Elec       q    Type
                         _______ _______ _______ _____ _____    ______ ____

>  <TORSDO>
F 12

$$$$
=
 OpenBabel11052422223D

 25 25  0  0  1  0  0  0  0  0999 V2000
  160.9110  205.7930  149.5630 C   0  0  1  0  0  3  0  0  0  0  0  0
  160.2360  206.0680  147.2670 O   0  0  0  0  0  0  0  0  0  0  0  0
  162.6400  205.6650  147.7130 C   0  0  0  0  0  2  0  0  0  0  0  0
  160.8570  204.1270  144.8970 O   0  0  0  0  0  1  0  0  0  0  0  0
  161.5960  205.1510  145.4870 C   0  0  2  0  0  3  0  0  0  0  0  0
  162.3920  204.5870  146.6630 C   0  0  0  0  0  2  0  0  0  0  0  0
  161.3120  206.3250  148.1670 C   0  0  2  0  0  0  0  0  0  0  0  0
  160.6580  206.2740  145.9350 C   0  0  0  0  0  2  0  0  0  0  0  0
  161.5440  207.8370  148.2670 C   0  0  0  0  0  2  0  0  0  0  0  0
  162.8850  208.1410  148.1030 F   0  0  0  0  0  0  0  0  0  0  0  0
  161.8250  203.8810  150.6610 O   0  0  0  0  0  0  0  0  0  0  0  0
  160.4960  203.3970  148.8090 N   0  0  0  0  0  2  0  0  0  0  0  0
  160.6620  202.0610  148.9530 O   0  0  0  0  0  1  0  0  0  0  0  0
  161.1160  204.3120  149.7130 C   0  0  0  0  0  0  0  0  0  0  0  0
  161.5530  206.5680  150.7160 C   0  0  0  0  0  2  0  0  0  0  0  0
  160.6700  206.6440  151.7940 O   0  0  0  0  0  0  0  0  0  0  0  0
  161.2100  207.6280  152.6190 C   0  0  0  0  0  2  0  0  0  0  0  0
  160.8610  210.0430  152.4040 N   0  0  0  0  0  0  0  0  0  0  0  0
  161.2550  208.9310  151.8820 C   0  0  0  0  0  3  0  0  0  0  0  0
  160.3350  210.1500  153.7460 C   0  0  0  0  0  2  0  0  0  0  0  0
  161.4400  210.5210  154.7170 C   0  0  0  0  0  2  0  0  0  0  0  0
  161.0800  210.0220  156.1010 C   0  0  0  0  0  2  0  0  0  0  0  0
  161.7790  208.7030  156.3600 C   0  0  0  0  0  2  0  0  0  0  0  0
  160.8280  207.7600  157.0680 C   0  0  0  0  0  2  0  0  0  0  0  0
  159.7780  207.2710  156.0900 C   0  0  0  0  0  1  0  0  0  0  0  0
  1 14  1  0  0  0  0
  1 15  1  1  0  0  0
  2  7  1  0  0  0  0
  3  7  1  0  0  0  0
  5  4  1  1  0  0  0
  5  8  1  0  0  0  0
  5  6  1  0  0  0  0
  6  3  1  0  0  0  0
  7  9  1  1  0  0  0
  7  1  1  0  0  0  0
  8  2  1  0  0  0  0
 10  9  1  0  0  0  0
 12 13  1  0  0  0  0
 12 14  1  0  0  0  0
 14 11  2  0  0  0  0
 15 16  1  0  0  0  0
 16 17  1  0  0  0  0
 18 20  1  0  0  0  0
 19 18  2  0  0  0  0
 19 17  1  0  0  0  0
 20 21  1  0  0  0  0
 21 22  1  0  0  0  0
 22 23  1  0  0  0  0
 23 24  1  0  0  0  0
 25 24  1  0  0  0  0
M  END
>  <MODEL>
6

>  <REMARK>
 VINA RESULT:      -5.6      3.307      8.718
  Name = 
  12 active torsions:
  status: ('A' for Active; 'I' for Inactive)
    1  A    between atoms: C_1  and  C_3
    2  A    between atoms: C_1  and  C_18
    3  A    between atoms: C_1  and  C_24
    4  A    between atoms: C_2  and  C_7
    5  A    between atoms: C_2  and  C_25
    6  A    between atoms: C_3  and  O_16
    7  A    between atoms: C_6  and  N_15
    8  A    between atoms: C_6  and  C_21
    9  A    between atoms: O_16  and  C_23
   10  A    between atoms: C_17  and  C_18
   11  A    between atoms: C_20  and  C_23
   12  A    between atoms: C_21  and  C_25
                            x       y       z     vdW  Elec       q    Type
                         _______ _______ _______ _____ _____    ______ ____

>  <TORSDO>
F 12

$$$$
=
 OpenBabel11052422223D

 25 25  0  0  1  0  0  0  0  0999 V2000
  160.8300  205.6270  151.0750 C   0  0  1  0  0  3  0  0  0  0  0  0
  160.5250  207.7090  152.2470 O   0  0  0  0  0  0  0  0  0  0  0  0
  162.7310  207.3000  151.1950 C   0  0  0  0  0  2  0  0  0  0  0  0
  161.0740  210.5760  151.1270 O   0  0  0  0  0  1  0  0  0  0  0  0
  161.9100  209.6190  151.7030 C   0  0  2  0  0  3  0  0  0  0  0  0
  162.4240  208.6780  150.6150 C   0  0  0  0  0  2  0  0  0  0  0  0
  161.5030  206.7170  151.9410 C   0  0  2  0  0  0  0  0  0  0  0  0
  161.1490  208.8540  152.7890 C   0  0  0  0  0  2  0  0  0  0  0  0
  162.0000  206.0730  153.2400 C   0  0  0  0  0  2  0  0  0  0  0  0
  160.9850  206.0170  154.1800 F   0  0  0  0  0  0  0  0  0  0  0  0
  162.0260  205.0630  149.0870 O   0  0  0  0  0  0  0  0  0  0  0  0
  160.3760  206.6840  148.8040 N   0  0  0  0  0  2  0  0  0  0  0  0
  160.6230  206.8030  147.4770 O   0  0  0  0  0  1  0  0  0  0  0  0
  161.1240  205.7720  149.6080 C   0  0  0  0  0  0  0  0  0  0  0  0
  161.1090  204.2040  151.5650 C   0  0  0  0  0  2  0  0  0  0  0  0
  160.1720  203.3200  151.0280 O   0  0  0  0  0  0  0  0  0  0  0  0
  160.9200  202.2060  150.6500 C   0  0  0  0  0  2  0  0  0  0  0  0
  160.0820  201.1090  148.6270 N   0  0  0  0  0  0  0  0  0  0  0  0
  160.0450  201.2420  149.9090 C   0  0  0  0  0  3  0  0  0  0  0  0
  160.9640  201.8720  147.7730 C   0  0  0  0  0  2  0  0  0  0  0  0
  160.9450  201.3120  146.3630 C   0  0  0  0  0  2  0  0  0  0  0  0
  160.6370  202.4270  145.3850 C   0  0  0  0  0  2  0  0  0  0  0  0
  161.0640  203.7530  145.9790 C   0  0  0  0  0  2  0  0  0  0  0  0
  162.1780  204.3460  145.1400 C   0  0  0  0  0  2  0  0  0  0  0  0
  163.3450  204.7150  146.0330 C   0  0  0  0  0  1  0  0  0  0  0  0
  1 15  1  1  0  0  0
  1  7  1  0  0  0  0
  2  8  1  0  0  0  0
  3  7  1  0  0  0  0
  5  4  1  6  0  0  0
  5  8  1  0  0  0  0
  6  3  1  0  0  0  0
  6  5  1  0  0  0  0
  7  2  1  0  0  0  0
  7  9  1  1  0  0  0
  9 10  1  0  0  0  0
 11 14  2  0  0  0  0
 12 14  1  0  0  0  0
 13 12  1  0  0  0  0
 14  1  1  0  0  0  0
 16 15  1  0  0  0  0
 17 16  1  0  0  0  0
 18 19  2  0  0  0  0
 19 17  1  0  0  0  0
 20 18  1  0  0  0  0
 21 20  1  0  0  0  0
 22 23  1  0  0  0  0
 22 21  1  0  0  0  0
 24 23  1  0  0  0  0
 24 25  1  0  0  0  0
M  END
>  <MODEL>
7

>  <REMARK>
 VINA RESULT:      -5.6      2.709      3.915
  Name = 
  12 active torsions:
  status: ('A' for Active; 'I' for Inactive)
    1  A    between atoms: C_1  and  C_3
    2  A    between atoms: C_1  and  C_18
    3  A    between atoms: C_1  and  C_24
    4  A    between atoms: C_2  and  C_7
    5  A    between atoms: C_2  and  C_25
    6  A    between atoms: C_3  and  O_16
    7  A    between atoms: C_6  and  N_15
    8  A    between atoms: C_6  and  C_21
    9  A    between atoms: O_16  and  C_23
   10  A    between atoms: C_17  and  C_18
   11  A    between atoms: C_20  and  C_23
   12  A    between atoms: C_21  and  C_25
                            x       y       z     vdW  Elec       q    Type
                         _______ _______ _______ _____ _____    ______ ____

>  <TORSDO>
F 12

$$$$
=
 OpenBabel11052422223D

 25 25  0  0  1  0  0  0  0  0999 V2000
  160.9780  205.4200  149.3660 C   0  0  1  0  0  3  0  0  0  0  0  0
  160.2180  205.8940  147.1300 O   0  0  0  0  0  0  0  0  0  0  0  0
  162.6330  205.4380  147.4460 C   0  0  0  0  0  2  0  0  0  0  0  0
  160.7280  204.1560  144.5810 O   0  0  0  0  0  1  0  0  0  0  0  0
  161.5000  205.1220  145.2260 C   0  0  2  0  0  3  0  0  0  0  0  0
  162.3350  204.4540  146.3180 C   0  0  0  0  0  2  0  0  0  0  0  0
  161.3300  206.0660  148.0050 C   0  0  2  0  0  0  0  0  0  0  0  0
  160.5910  206.2090  145.8040 C   0  0  0  0  0  2  0  0  0  0  0  0
  161.5810  207.5630  148.2240 C   0  0  0  0  0  2  0  0  0  0  0  0
  162.9160  207.8710  148.0250 F   0  0  0  0  0  0  0  0  0  0  0  0
  161.6070  203.3120  150.2930 O   0  0  0  0  0  0  0  0  0  0  0  0
  160.4550  203.1820  148.2710 N   0  0  0  0  0  2  0  0  0  0  0  0
  160.4940  201.8280  148.2570 O   0  0  0  0  0  1  0  0  0  0  0  0
  161.0440  203.9190  149.3430 C   0  0  0  0  0  0  0  0  0  0  0  0
  161.7740  205.9990  150.5370 C   0  0  0  0  0  2  0  0  0  0  0  0
  160.9090  206.3880  151.5600 O   0  0  0  0  0  0  0  0  0  0  0  0
  161.7010  206.3860  152.7070 C   0  0  0  0  0  2  0  0  0  0  0  0
  160.6260  207.2160  154.7450 N   0  0  0  0  0  0  0  0  0  0  0  0
  160.8300  206.2480  153.9180 C   0  0  0  0  0  3  0  0  0  0  0  0
  161.2150  208.5270  154.5960 C   0  0  0  0  0  2  0  0  0  0  0  0
  160.1640  209.5290  154.1520 C   0  0  0  0  0  2  0  0  0  0  0  0
  160.4810  210.0000  152.7480 C   0  0  0  0  0  2  0  0  0  0  0  0
  161.9840  210.0350  152.5540 C   0  0  0  0  0  2  0  0  0  0  0  0
  162.3200  209.6000  151.1430 C   0  0  0  0  0  2  0  0  0  0  0  0
  161.9400  210.6980  150.1700 C   0  0  0  0  0  1  0  0  0  0  0  0
  1 15  1  1  0  0  0
  2  7  1  0  0  0  0
  3  7  1  0  0  0  0
  5  4  1  1  0  0  0
  5  8  1  0  0  0  0
  5  6  1  0  0  0  0
  6  3  1  0  0  0  0
  7  9  1  1  0  0  0
  7  1  1  0  0  0  0
  8  2  1  0  0  0  0
 10  9  1  0  0  0  0
 12 14  1  0  0  0  0
 13 12  1  0  0  0  0
 14  1  1  0  0  0  0
 14 11  2  0  0  0  0
 15 16  1  0  0  0  0
 16 17  1  0  0  0  0
 17 19  1  0  0  0  0
 19 18  2  0  0  0  0
 20 18  1  0  0  0  0
 21 20  1  0  0  0  0
 22 21  1  0  0  0  0
 23 22  1  0  0  0  0
 24 23  1  0  0  0  0
 25 24  1  0  0  0  0
M  END
>  <MODEL>
8

>  <REMARK>
 VINA RESULT:      -5.6      3.547      8.115
  Name = 
  12 active torsions:
  status: ('A' for Active; 'I' for Inactive)
    1  A    between atoms: C_1  and  C_3
    2  A    between atoms: C_1  and  C_18
    3  A    between atoms: C_1  and  C_24
    4  A    between atoms: C_2  and  C_7
    5  A    between atoms: C_2  and  C_25
    6  A    between atoms: C_3  and  O_16
    7  A    between atoms: C_6  and  N_15
    8  A    between atoms: C_6  and  C_21
    9  A    between atoms: O_16  and  C_23
   10  A    between atoms: C_17  and  C_18
   11  A    between atoms: C_20  and  C_23
   12  A    between atoms: C_21  and  C_25
                            x       y       z     vdW  Elec       q    Type
                         _______ _______ _______ _____ _____    ______ ____

>  <TORSDO>
F 12

$$$$
=
 OpenBabel11052422223D

 25 25  0  0  1  0  0  0  0  0999 V2000
  160.0090  210.5350  153.1500 C   0  0  1  0  0  3  0  0  0  0  0  0
  161.6550  210.4530  154.9070 O   0  0  0  0  0  0  0  0  0  0  0  0
  159.3030  209.9650  155.5180 C   0  0  0  0  0  2  0  0  0  0  0  0
  162.1440  208.0890  156.8940 O   0  0  0  0  0  1  0  0  0  0  0  0
  161.2340  209.1460  156.9010 C   0  0  2  0  0  3  0  0  0  0  0  0
  159.9830  208.7400  156.1230 C   0  0  0  0  0  2  0  0  0  0  0  0
  160.2920  210.7860  154.6500 C   0  0  2  0  0  0  0  0  0  0  0  0
  161.8850  210.3930  156.2990 C   0  0  0  0  0  2  0  0  0  0  0  0
  160.0650  212.2720  154.9500 C   0  0  0  0  0  2  0  0  0  0  0  0
  159.0150  212.4390  155.8360 F   0  0  0  0  0  0  0  0  0  0  0  0
  160.3380  212.3590  151.6450 O   0  0  0  0  0  0  0  0  0  0  0  0
  158.2090  212.2440  152.5860 N   0  0  0  0  0  2  0  0  0  0  0  0
  157.7790  213.3400  151.9160 O   0  0  0  0  0  1  0  0  0  0  0  0
  159.5440  211.7640  152.4220 C   0  0  0  0  0  0  0  0  0  0  0  0
  161.1690  209.8560  152.4190 C   0  0  0  0  0  2  0  0  0  0  0  0
  160.7240  208.6930  151.7890 O   0  0  0  0  0  0  0  0  0  0  0  0
  161.8720  208.1410  151.2230 C   0  0  0  0  0  2  0  0  0  0  0  0
  161.3840  207.7930  148.8480 N   0  0  0  0  0  0  0  0  0  0  0  0
  161.9390  208.5030  149.7710 C   0  0  0  0  0  3  0  0  0  0  0  0
  160.6470  206.5780  149.1130 C   0  0  0  0  0  2  0  0  0  0  0  0
  161.1490  205.4530  148.2280 C   0  0  0  0  0  2  0  0  0  0  0  0
  161.0350  204.1390  148.9730 C   0  0  0  0  0  2  0  0  0  0  0  0
  160.7630  204.4110  150.4380 C   0  0  0  0  0  2  0  0  0  0  0  0
  161.1400  203.1930  151.2550 C   0  0  0  0  0  2  0  0  0  0  0  0
  160.8970  201.9400  150.4380 C   0  0  0  0  0  1  0  0  0  0  0  0
  1 15  1  6  0  0  0
  1  7  1  0  0  0  0
  2  8  1  0  0  0  0
  3  6  1  0  0  0  0
  5  4  1  6  0  0  0
  6  5  1  0  0  0  0
  7  2  1  0  0  0  0
  7  9  1  1  0  0  0
  7  3  1  0  0  0  0
  8  5  1  0  0  0  0
  9 10  1  0  0  0  0
 11 14  2  0  0  0  0
 13 12  1  0  0  0  0
 14 12  1  0  0  0  0
 14  1  1  0  0  0  0
 16 15  1  0  0  0  0
 17 16  1  0  0  0  0
 18 20  1  0  0  0  0
 18 19  2  0  0  0  0
 19 17  1  0  0  0  0
 21 22  1  0  0  0  0
 21 20  1  0  0  0  0
 22 23  1  0  0  0  0
 23 24  1  0  0  0  0
 25 24  1  0  0  0  0
M  END
>  <MODEL>
9

>  <REMARK>
 VINA RESULT:      -5.5      2.564      3.998
  Name = 
  12 active torsions:
  status: ('A' for Active; 'I' for Inactive)
    1  A    between atoms: C_1  and  C_3
    2  A    between atoms: C_1  and  C_18
    3  A    between atoms: C_1  and  C_24
    4  A    between atoms: C_2  and  C_7
    5  A    between atoms: C_2  and  C_25
    6  A    between atoms: C_3  and  O_16
    7  A    between atoms: C_6  and  N_15
    8  A    between atoms: C_6  and  C_21
    9  A    between atoms: O_16  and  C_23
   10  A    between atoms: C_17  and  C_18
   11  A    between atoms: C_20  and  C_23
   12  A    between atoms: C_21  and  C_25
                            x       y       z     vdW  Elec       q    Type
                         _______ _______ _______ _____ _____    ______ ____

>  <TORSDO>
F 12

$$$$
