=
 OpenBabel11052422063D

 25 28  0  0  1  0  0  0  0  0999 V2000
  161.3560  206.0780  150.8410 C   0  0  0  0  0  0  0  0  0  0  0  0
  161.1620  204.9870  149.9920 C   0  0  0  0  0  0  0  0  0  0  0  0
  161.0310  204.7360  152.8290 C   0  0  0  0  0  3  0  0  0  0  0  0
  161.6160  207.4120  150.6320 C   0  0  0  0  0  0  0  0  0  0  0  0
  162.1290  210.1130  150.8250 C   0  0  0  0  0  3  0  0  0  0  0  0
  160.8260  203.6190  151.9990 C   0  0  0  0  0  3  0  0  0  0  0  0
  161.7040  208.0140  151.8350 N   0  0  0  0  0  0  0  0  0  0  0  0
  161.9540  209.3390  151.9820 C   0  0  0  0  0  3  0  0  0  0  0  0
  160.6220  202.5510  149.6860 C   0  0  2  0  0  3  0  0  0  0  0  0
  161.0380  201.2280  150.3100 C   0  0  0  0  0  1  0  0  0  0  0  0
  161.1460  205.1340  148.4980 C   0  0  0  0  0  2  0  0  0  0  0  0
  162.0410  209.5020  149.5600 C   0  0  0  0  0  3  0  0  0  0  0  0
  161.3000  205.9550  152.2140 C   0  0  0  0  0  0  0  0  0  0  0  0
  161.5130  207.1440  152.8180 N   0  0  0  0  0  0  0  0  0  0  0  0
  161.2920  202.6990  148.3910 N   0  0  0  0  0  0  0  0  0  0  0  0
  161.7800  208.1280  149.4470 C   0  0  0  0  0  3  0  0  0  0  0  0
  161.5270  203.8480  147.8240 C   0  0  0  0  0  0  0  0  0  0  0  0
  160.9070  203.7290  150.5870 C   0  0  0  0  0  0  0  0  0  0  0  0
  162.1370  203.9040  146.5720 O   0  0  0  0  0  0  0  0  0  0  0  0
  161.5730  203.2870  145.4720 N   0  0  0  0  0  2  0  0  0  0  0  0
  160.3720  204.0230  145.0860 C   0  0  2  0  0  3  0  0  0  0  0  0
  159.5960  203.2710  144.1110 N   0  0  0  0  0  1  0  0  0  0  0  0
  160.7090  205.3870  144.5690 C   0  0  0  0  0  0  0  0  0  0  0  0
  160.2560  206.5080  145.2490 O   0  0  0  0  0  1  0  0  0  0  0  0
  161.4250  205.5260  143.5420 O   0  0  0  0  0  0  0  0  0  0  0  0
  1 13  1  0  0  0  0
  2 18  2  0  0  0  0
  2  1  1  0  0  0  0
  4  1  2  0  0  0  0
  4  7  1  0  0  0  0
  5  8  2  0  0  0  0
  6  3  2  0  0  0  0
  7  8  1  0  0  0  0
  7 14  1  0  0  0  0
  9 10  1  1  0  0  0
  9 18  1  0  0  0  0
 11  2  1  0  0  0  0
 12  5  1  0  0  0  0
 13 14  2  0  0  0  0
 13  3  1  0  0  0  0
 15  9  1  0  0  0  0
 16 12  2  0  0  0  0
 16  4  1  0  0  0  0
 17 15  2  0  0  0  0
 17 11  1  0  0  0  0
 18  6  1  0  0  0  0
 19 17  1  0  0  0  0
 20 19  1  0  0  0  0
 21 22  1  6  0  0  0
 21 20  1  0  0  0  0
 23 21  1  0  0  0  0
 23 24  1  0  0  0  0
 25 23  2  0  0  0  0
M  END
>  <MODEL>
1

>  <REMARK>
 VINA RESULT:      -9.4      0.000      0.000
  Name = 
  4 active torsions:
  status: ('A' for Active; 'I' for Inactive)
    1  A    between atoms: C_2  and  C_21
    2  A    between atoms: O_6  and  N_15
    3  A    between atoms: O_6  and  C_23
    4  A    between atoms: N_15  and  C_21
                            x       y       z     vdW  Elec       q    Type
                         _______ _______ _______ _____ _____    ______ ____

>  <TORSDO>
F 4

$$$$
=
 OpenBabel11052422063D

 25 28  0  0  1  0  0  0  0  0999 V2000
  161.3160  204.7220  149.4400 C   0  0  0  0  0  0  0  0  0  0  0  0
  161.6460  205.9800  149.9480 C   0  0  0  0  0  0  0  0  0  0  0  0
  160.7260  203.8660  151.6250 C   0  0  0  0  0  3  0  0  0  0  0  0
  161.3350  204.1690  148.1800 C   0  0  0  0  0  0  0  0  0  0  0  0
  161.1660  202.5640  145.9470 C   0  0  0  0  0  3  0  0  0  0  0  0
  161.0550  205.1210  152.1680 C   0  0  0  0  0  3  0  0  0  0  0  0
  160.9100  202.8940  148.2780 N   0  0  0  0  0  0  0  0  0  0  0  0
  160.8100  202.0640  147.2090 C   0  0  0  0  0  3  0  0  0  0  0  0
  161.9170  207.5140  151.9200 C   0  0  2  0  0  3  0  0  0  0  0  0
  161.1270  207.8790  153.1680 C   0  0  0  0  0  1  0  0  0  0  0  0
  162.2110  207.0660  149.0800 C   0  0  0  0  0  2  0  0  0  0  0  0
  161.6110  203.8940  145.8260 C   0  0  0  0  0  3  0  0  0  0  0  0
  160.8640  203.7010  150.2510 C   0  0  0  0  0  0  0  0  0  0  0  0
  160.6180  202.5830  149.5340 N   0  0  0  0  0  0  0  0  0  0  0  0
  161.7770  208.5920  150.9360 N   0  0  0  0  0  0  0  0  0  0  0  0
  161.7020  204.7220  146.9550 C   0  0  0  0  0  3  0  0  0  0  0  0
  161.9200  208.4230  149.6520 C   0  0  0  0  0  0  0  0  0  0  0  0
  161.4960  206.1850  151.3400 C   0  0  0  0  0  0  0  0  0  0  0  0
  161.8080  209.5050  148.7830 O   0  0  0  0  0  0  0  0  0  0  0  0
  162.0640  210.7950  149.2070 N   0  0  0  0  0  2  0  0  0  0  0  0
  162.0270  211.6850  148.0500 C   0  0  2  0  0  3  0  0  0  0  0  0
  163.2570  212.4570  147.9510 N   0  0  0  0  0  1  0  0  0  0  0  0
  160.8300  212.5840  148.0890 C   0  0  0  0  0  0  0  0  0  0  0  0
  160.6570  213.4480  149.1600 O   0  0  0  0  0  1  0  0  0  0  0  0
  159.9970  212.5850  147.1440 O   0  0  0  0  0  0  0  0  0  0  0  0
  1  2  1  0  0  0  0
  1 13  1  0  0  0  0
  2 18  2  0  0  0  0
  3  6  2  0  0  0  0
  4  7  1  0  0  0  0
  4  1  2  0  0  0  0
  5  8  2  0  0  0  0
  7 14  1  0  0  0  0
  8  7  1  0  0  0  0
  9 10  1  1  0  0  0
 11 17  1  0  0  0  0
 11  2  1  0  0  0  0
 12  5  1  0  0  0  0
 12 16  2  0  0  0  0
 13  3  1  0  0  0  0
 14 13  2  0  0  0  0
 15  9  1  0  0  0  0
 16  4  1  0  0  0  0
 17 15  2  0  0  0  0
 18  9  1  0  0  0  0
 18  6  1  0  0  0  0
 19 20  1  0  0  0  0
 19 17  1  0  0  0  0
 21 22  1  1  0  0  0
 21 23  1  0  0  0  0
 21 20  1  0  0  0  0
 23 24  1  0  0  0  0
 25 23  2  0  0  0  0
M  END
>  <MODEL>
2

>  <REMARK>
 VINA RESULT:      -9.1      3.000      6.240
  Name = 
  4 active torsions:
  status: ('A' for Active; 'I' for Inactive)
    1  A    between atoms: C_2  and  C_21
    2  A    between atoms: O_6  and  N_15
    3  A    between atoms: O_6  and  C_23
    4  A    between atoms: N_15  and  C_21
                            x       y       z     vdW  Elec       q    Type
                         _______ _______ _______ _____ _____    ______ ____

>  <TORSDO>
F 4

$$$$
=
 OpenBabel11052422063D

 25 28  0  0  1  0  0  0  0  0999 V2000
  161.2560  205.0440  149.2400 C   0  0  0  0  0  0  0  0  0  0  0  0
  161.1750  206.0760  150.1760 C   0  0  0  0  0  0  0  0  0  0  0  0
  161.7880  206.5670  147.4360 C   0  0  0  0  0  3  0  0  0  0  0  0
  161.0820  203.6810  149.3080 C   0  0  0  0  0  0  0  0  0  0  0  0
  160.8630  200.9730  148.8450 C   0  0  0  0  0  3  0  0  0  0  0  0
  161.7090  207.6290  148.3550 C   0  0  0  0  0  3  0  0  0  0  0  0
  161.2810  203.1730  148.0750 N   0  0  0  0  0  0  0  0  0  0  0  0
  161.1850  201.8480  147.7970 C   0  0  0  0  0  3  0  0  0  0  0  0
  161.2680  208.5310  150.7050 C   0  0  2  0  0  3  0  0  0  0  0  0
  162.1660  209.7120  150.3700 C   0  0  0  0  0  1  0  0  0  0  0  0
  160.7680  205.8280  151.6000 C   0  0  0  0  0  2  0  0  0  0  0  0
  160.6520  201.4860  150.1390 C   0  0  0  0  0  3  0  0  0  0  0  0
  161.5600  205.2810  147.9150 C   0  0  0  0  0  0  0  0  0  0  0  0
  161.5730  204.1320  147.2050 N   0  0  0  0  0  0  0  0  0  0  0  0
  161.5480  208.0930  152.0760 N   0  0  0  0  0  0  0  0  0  0  0  0
  160.7600  202.8620  150.3890 C   0  0  0  0  0  3  0  0  0  0  0  0
  161.3180  206.8870  152.5110 C   0  0  0  0  0  0  0  0  0  0  0  0
  161.4230  207.3940  149.7240 C   0  0  0  0  0  0  0  0  0  0  0  0
  161.5770  206.5570  153.8400 O   0  0  0  0  0  0  0  0  0  0  0  0
  160.6400  206.7810  154.8300 N   0  0  0  0  0  2  0  0  0  0  0  0
  161.1860  207.7420  155.7840 C   0  0  2  0  0  3  0  0  0  0  0  0
  160.8010  207.3970  157.1440 N   0  0  0  0  0  1  0  0  0  0  0  0
  160.7750  209.1410  155.4480 C   0  0  0  0  0  0  0  0  0  0  0  0
  159.4810  209.5600  155.7220 O   0  0  0  0  0  1  0  0  0  0  0  0
  161.6010  209.9510  154.9480 O   0  0  0  0  0  0  0  0  0  0  0  0
  1  4  2  0  0  0  0
  1  2  1  0  0  0  0
  2 11  1  0  0  0  0
  3 13  1  0  0  0  0
  3  6  2  0  0  0  0
  4 16  1  0  0  0  0
  5 12  1  0  0  0  0
  6 18  1  0  0  0  0
  7  4  1  0  0  0  0
  8  7  1  0  0  0  0
  8  5  2  0  0  0  0
  9 10  1  6  0  0  0
  9 15  1  0  0  0  0
 11 17  1  0  0  0  0
 12 16  2  0  0  0  0
 13  1  1  0  0  0  0
 14 13  2  0  0  0  0
 14  7  1  0  0  0  0
 15 17  2  0  0  0  0
 17 19  1  0  0  0  0
 18  2  2  0  0  0  0
 18  9  1  0  0  0  0
 19 20  1  0  0  0  0
 20 21  1  0  0  0  0
 21 22  1  1  0  0  0
 23 24  1  0  0  0  0
 23 21  1  0  0  0  0
 25 23  2  0  0  0  0
M  END
>  <MODEL>
3

>  <REMARK>
 VINA RESULT:      -9.0      3.815      7.823
  Name = 
  4 active torsions:
  status: ('A' for Active; 'I' for Inactive)
    1  A    between atoms: C_2  and  C_21
    2  A    between atoms: O_6  and  N_15
    3  A    between atoms: O_6  and  C_23
    4  A    between atoms: N_15  and  C_21
                            x       y       z     vdW  Elec       q    Type
                         _______ _______ _______ _____ _____    ______ ____

>  <TORSDO>
F 4

$$$$
=
 OpenBabel11052422063D

 25 28  0  0  1  0  0  0  0  0999 V2000
  161.1920  206.1900  151.5890 C   0  0  0  0  0  0  0  0  0  0  0  0
  161.0660  205.3750  150.4630 C   0  0  0  0  0  0  0  0  0  0  0  0
  160.9660  204.3220  153.1100 C   0  0  0  0  0  3  0  0  0  0  0  0
  161.3620  207.5430  151.7710 C   0  0  0  0  0  0  0  0  0  0  0  0
  161.6960  210.1060  152.7290 C   0  0  0  0  0  3  0  0  0  0  0  0
  160.8310  203.4750  151.9960 C   0  0  0  0  0  3  0  0  0  0  0  0
  161.4160  207.7830  153.0960 N   0  0  0  0  0  0  0  0  0  0  0  0
  161.5790  209.0260  153.6170 C   0  0  0  0  0  3  0  0  0  0  0  0
  160.6860  203.0970  149.4720 C   0  0  2  0  0  3  0  0  0  0  0  0
  161.1920  201.6810  149.7010 C   0  0  0  0  0  1  0  0  0  0  0  0
  161.0330  205.9390  149.0720 C   0  0  0  0  0  2  0  0  0  0  0  0
  161.6430  209.8740  151.3410 C   0  0  0  0  0  3  0  0  0  0  0  0
  161.1510  205.6800  152.8700 C   0  0  0  0  0  0  0  0  0  0  0  0
  161.2870  206.6590  153.7900 N   0  0  0  0  0  0  0  0  0  0  0  0
  161.3390  203.6490  148.2810 N   0  0  0  0  0  0  0  0  0  0  0  0
  161.4730  208.5750  150.8400 C   0  0  0  0  0  3  0  0  0  0  0  0
  161.4950  204.9250  148.0670 C   0  0  0  0  0  0  0  0  0  0  0  0
  160.8980  203.9860  150.6740 C   0  0  0  0  0  0  0  0  0  0  0  0
  162.0930  205.3730  146.8910 O   0  0  0  0  0  0  0  0  0  0  0  0
  162.3950  204.5010  145.8630 N   0  0  0  0  0  2  0  0  0  0  0  0
  161.3460  204.5880  144.8510 C   0  0  2  0  0  3  0  0  0  0  0  0
  160.5530  205.7950  145.0300 N   0  0  0  0  0  1  0  0  0  0  0  0
  160.4790  203.3680  144.8550 C   0  0  0  0  0  0  0  0  0  0  0  0
  159.2910  203.3700  144.1370 O   0  0  0  0  0  0  0  0  0  0  0  0
  160.8320  202.3310  145.4770 O   0  0  0  0  0  1  0  0  0  0  0  0
  1  4  2  0  0  0  0
  1 13  1  0  0  0  0
  2 18  2  0  0  0  0
  2  1  1  0  0  0  0
  4  7  1  0  0  0  0
  5  8  2  0  0  0  0
  6  3  2  0  0  0  0
  7  8  1  0  0  0  0
  7 14  1  0  0  0  0
  9 10  1  1  0  0  0
  9 18  1  0  0  0  0
 11  2  1  0  0  0  0
 12  5  1  0  0  0  0
 13  3  1  0  0  0  0
 13 14  2  0  0  0  0
 15  9  1  0  0  0  0
 16 12  2  0  0  0  0
 16  4  1  0  0  0  0
 17 15  2  0  0  0  0
 17 11  1  0  0  0  0
 18  6  1  0  0  0  0
 19 17  1  0  0  0  0
 20 19  1  0  0  0  0
 21 23  1  0  0  0  0
 21 22  1  1  0  0  0
 21 20  1  0  0  0  0
 23 25  1  0  0  0  0
 24 23  2  0  0  0  0
M  END
>  <MODEL>
4

>  <REMARK>
 VINA RESULT:      -8.8      1.363      1.640
  Name = 
  4 active torsions:
  status: ('A' for Active; 'I' for Inactive)
    1  A    between atoms: C_2  and  C_21
    2  A    between atoms: O_6  and  N_15
    3  A    between atoms: O_6  and  C_23
    4  A    between atoms: N_15  and  C_21
                            x       y       z     vdW  Elec       q    Type
                         _______ _______ _______ _____ _____    ______ ____

>  <TORSDO>
F 4

$$$$
=
 OpenBabel11052422063D

 25 28  0  0  1  0  0  0  0  0999 V2000
  161.4710  204.8800  149.3300 C   0  0  0  0  0  0  0  0  0  0  0  0
  161.6390  205.8040  150.3620 C   0  0  0  0  0  0  0  0  0  0  0  0
  160.8930  203.0990  150.8630 C   0  0  0  0  0  3  0  0  0  0  0  0
  161.6000  204.9460  147.9620 C   0  0  0  0  0  0  0  0  0  0  0  0
  161.6980  204.4890  145.2460 C   0  0  0  0  0  3  0  0  0  0  0  0
  161.0600  204.0050  151.9250 C   0  0  0  0  0  3  0  0  0  0  0  0
  161.3160  203.7300  147.4560 N   0  0  0  0  0  0  0  0  0  0  0  0
  161.3500  203.4550  146.1280 C   0  0  0  0  0  3  0  0  0  0  0  0
  161.6610  206.3230  152.8210 C   0  0  2  0  0  3  0  0  0  0  0  0
  160.7870  206.0300  154.0320 C   0  0  0  0  0  1  0  0  0  0  0  0
  162.1140  207.2050  150.1060 C   0  0  0  0  0  2  0  0  0  0  0  0
  161.9980  205.7670  145.7560 C   0  0  0  0  0  3  0  0  0  0  0  0
  161.1030  203.5720  149.5720 C   0  0  0  0  0  0  0  0  0  0  0  0
  161.0100  202.8720  148.4210 N   0  0  0  0  0  0  0  0  0  0  0  0
  161.4420  207.7090  152.3990 N   0  0  0  0  0  0  0  0  0  0  0  0
  161.9520  206.0130  147.1370 C   0  0  0  0  0  3  0  0  0  0  0  0
  161.6520  208.1390  151.1870 C   0  0  0  0  0  0  0  0  0  0  0  0
  161.4130  205.3580  151.6860 C   0  0  0  0  0  0  0  0  0  0  0  0
  161.4560  209.4810  150.8720 O   0  0  0  0  0  0  0  0  0  0  0  0
  161.7300  210.4800  151.7870 N   0  0  0  0  0  2  0  0  0  0  0  0
  160.4740  210.9240  152.3860 C   0  0  2  0  0  3  0  0  0  0  0  0
  160.1060  212.2440  151.8980 N   0  0  0  0  0  1  0  0  0  0  0  0
  160.5440  210.9040  153.8810 C   0  0  0  0  0  0  0  0  0  0  0  0
  159.3710  210.8590  154.6210 O   0  0  0  0  0  1  0  0  0  0  0  0
  161.6560  210.8950  154.4720 O   0  0  0  0  0  0  0  0  0  0  0  0
  1 13  1  0  0  0  0
  1  2  1  0  0  0  0
  2 18  2  0  0  0  0
  3  6  2  0  0  0  0
  4  1  2  0  0  0  0
  5 12  1  0  0  0  0
  5  8  2  0  0  0  0
  7  4  1  0  0  0  0
  7 14  1  0  0  0  0
  8  7  1  0  0  0  0
  9 10  1  1  0  0  0
 11  2  1  0  0  0  0
 11 17  1  0  0  0  0
 12 16  2  0  0  0  0
 13  3  1  0  0  0  0
 14 13  2  0  0  0  0
 15  9  1  0  0  0  0
 16  4  1  0  0  0  0
 17 15  2  0  0  0  0
 18  6  1  0  0  0  0
 18  9  1  0  0  0  0
 19 17  1  0  0  0  0
 19 20  1  0  0  0  0
 20 21  1  0  0  0  0
 21 22  1  6  0  0  0
 21 23  1  0  0  0  0
 23 25  2  0  0  0  0
 23 24  1  0  0  0  0
M  END
>  <MODEL>
5

>  <REMARK>
 VINA RESULT:      -8.5      3.565      6.886
  Name = 
  4 active torsions:
  status: ('A' for Active; 'I' for Inactive)
    1  A    between atoms: C_2  and  C_21
    2  A    between atoms: O_6  and  N_15
    3  A    between atoms: O_6  and  C_23
    4  A    between atoms: N_15  and  C_21
                            x       y       z     vdW  Elec       q    Type
                         _______ _______ _______ _____ _____    ______ ____

>  <TORSDO>
F 4

$$$$
=
 OpenBabel11052422063D

 25 28  0  0  1  0  0  0  0  0999 V2000
  161.2880  205.7440  150.5790 C   0  0  0  0  0  0  0  0  0  0  0  0
  161.3270  206.7480  151.5470 C   0  0  0  0  0  0  0  0  0  0  0  0
  160.9860  204.0020  152.2320 C   0  0  0  0  0  3  0  0  0  0  0  0
  161.3980  205.7380  149.2070 C   0  0  0  0  0  0  0  0  0  0  0  0
  161.5430  205.1220  146.5250 C   0  0  0  0  0  3  0  0  0  0  0  0
  161.0260  204.9910  153.2310 C   0  0  0  0  0  3  0  0  0  0  0  0
  161.2900  204.4630  148.7850 N   0  0  0  0  0  0  0  0  0  0  0  0
  161.3550  204.1090  147.4770 C   0  0  0  0  0  3  0  0  0  0  0  0
  161.2890  207.4250  153.9670 C   0  0  2  0  0  3  0  0  0  0  0  0
  160.4750  207.0900  155.2080 C   0  0  0  0  0  1  0  0  0  0  0  0
  161.5920  208.1830  151.1940 C   0  0  0  0  0  2  0  0  0  0  0  0
  161.6580  206.4600  146.9470 C   0  0  0  0  0  3  0  0  0  0  0  0
  161.1160  204.4150  150.9100 C   0  0  0  0  0  0  0  0  0  0  0  0
  161.1180  203.6340  149.8080 N   0  0  0  0  0  0  0  0  0  0  0  0
  160.8680  208.7340  153.4600 N   0  0  0  0  0  0  0  0  0  0  0  0
  161.5850  206.7880  148.3100 C   0  0  0  0  0  3  0  0  0  0  0  0
  161.0060  209.1090  152.2200 C   0  0  0  0  0  0  0  0  0  0  0  0
  161.1770  206.3620  152.9000 C   0  0  0  0  0  0  0  0  0  0  0  0
  160.6140  210.3860  151.8230 O   0  0  0  0  0  0  0  0  0  0  0  0
  160.2320  211.3380  152.7480 N   0  0  0  0  0  2  0  0  0  0  0  0
  158.7860  211.5280  152.6550 C   0  0  2  0  0  3  0  0  0  0  0  0
  158.4680  212.6880  151.8360 N   0  0  0  0  0  1  0  0  0  0  0  0
  158.1610  211.6390  154.0100 C   0  0  0  0  0  0  0  0  0  0  0  0
  158.5930  210.8080  155.0340 O   0  0  0  0  0  1  0  0  0  0  0  0
  157.2700  212.4990  154.2380 O   0  0  0  0  0  0  0  0  0  0  0  0
  1 13  1  0  0  0  0
  1  2  1  0  0  0  0
  2 18  2  0  0  0  0
  3  6  2  0  0  0  0
  4  1  2  0  0  0  0
  5 12  1  0  0  0  0
  5  8  2  0  0  0  0
  7  4  1  0  0  0  0
  7 14  1  0  0  0  0
  8  7  1  0  0  0  0
  9 10  1  1  0  0  0
 11  2  1  0  0  0  0
 11 17  1  0  0  0  0
 12 16  2  0  0  0  0
 13  3  1  0  0  0  0
 14 13  2  0  0  0  0
 15  9  1  0  0  0  0
 16  4  1  0  0  0  0
 17 15  2  0  0  0  0
 18  6  1  0  0  0  0
 18  9  1  0  0  0  0
 19 17  1  0  0  0  0
 19 20  1  0  0  0  0
 21 22  1  6  0  0  0
 21 20  1  0  0  0  0
 21 23  1  0  0  0  0
 23 25  2  0  0  0  0
 23 24  1  0  0  0  0
M  END
>  <MODEL>
6

>  <REMARK>
 VINA RESULT:      -8.4      4.141      7.219
  Name = 
  4 active torsions:
  status: ('A' for Active; 'I' for Inactive)
    1  A    between atoms: C_2  and  C_21
    2  A    between atoms: O_6  and  N_15
    3  A    between atoms: O_6  and  C_23
    4  A    between atoms: N_15  and  C_21
                            x       y       z     vdW  Elec       q    Type
                         _______ _______ _______ _____ _____    ______ ____

>  <TORSDO>
F 4

$$$$
=
 OpenBabel11052422063D

 25 28  0  0  1  0  0  0  0  0999 V2000
  161.1700  208.4530  153.1760 C   0  0  0  0  0  0  0  0  0  0  0  0
  161.4200  207.6380  152.0700 C   0  0  0  0  0  0  0  0  0  0  0  0
  161.6640  210.4760  151.9430 C   0  0  0  0  0  3  0  0  0  0  0  0
  160.8010  208.2040  154.4780 C   0  0  0  0  0  0  0  0  0  0  0  0
  160.0870  208.3160  157.1370 C   0  0  0  0  0  3  0  0  0  0  0  0
  161.9280  209.6820  150.8120 C   0  0  0  0  0  3  0  0  0  0  0  0
  160.7070  209.3870  155.1180 N   0  0  0  0  0  0  0  0  0  0  0  0
  160.3590  209.4940  156.4250 C   0  0  0  0  0  3  0  0  0  0  0  0
  162.1370  207.4030  149.6730 C   0  0  2  0  0  3  0  0  0  0  0  0
  161.8450  208.0910  148.3480 C   0  0  0  0  0  1  0  0  0  0  0  0
  161.3750  206.1400  152.1590 C   0  0  0  0  0  2  0  0  0  0  0  0
  160.1800  207.0720  156.4850 C   0  0  0  0  0  3  0  0  0  0  0  0
  161.2810  209.8270  153.1120 C   0  0  0  0  0  0  0  0  0  0  0  0
  160.9970  210.3940  154.3050 N   0  0  0  0  0  0  0  0  0  0  0  0
  161.4150  206.1290  149.7170 N   0  0  0  0  0  0  0  0  0  0  0  0
  160.5420  207.0010  155.1310 C   0  0  0  0  0  3  0  0  0  0  0  0
  161.0720  205.5290  150.8220 C   0  0  0  0  0  0  0  0  0  0  0  0
  161.7910  208.2710  150.8600 C   0  0  0  0  0  0  0  0  0  0  0  0
  160.4190  204.2990  150.7820 O   0  0  0  0  0  0  0  0  0  0  0  0
  161.0950  203.1380  150.4590 N   0  0  0  0  0  2  0  0  0  0  0  0
  160.3640  202.4500  149.3970 C   0  0  2  0  0  3  0  0  0  0  0  0
  160.1340  201.0570  149.7460 N   0  0  0  0  0  1  0  0  0  0  0  0
  161.0710  202.5670  148.0820 C   0  0  0  0  0  0  0  0  0  0  0  0
  160.8060  201.6470  147.0780 O   0  0  0  0  0  0  0  0  0  0  0  0
  161.8790  203.5090  147.8690 O   0  0  0  0  0  1  0  0  0  0  0  0
  1  4  2  0  0  0  0
  2 11  1  0  0  0  0
  2  1  1  0  0  0  0
  3 13  1  0  0  0  0
  4  7  1  0  0  0  0
  4 16  1  0  0  0  0
  6 18  1  0  0  0  0
  6  3  2  0  0  0  0
  7  8  1  0  0  0  0
  8  5  2  0  0  0  0
  9 10  1  6  0  0  0
  9 15  1  0  0  0  0
  9 18  1  0  0  0  0
 12  5  1  0  0  0  0
 13  1  1  0  0  0  0
 13 14  2  0  0  0  0
 14  7  1  0  0  0  0
 15 17  2  0  0  0  0
 16 12  2  0  0  0  0
 17 11  1  0  0  0  0
 18  2  2  0  0  0  0
 19 17  1  0  0  0  0
 20 19  1  0  0  0  0
 21 22  1  1  0  0  0
 21 20  1  0  0  0  0
 23 21  1  0  0  0  0
 24 23  2  0  0  0  0
 25 23  1  0  0  0  0
M  END
>  <MODEL>
7

>  <REMARK>
 VINA RESULT:      -8.1      2.744      5.021
  Name = 
  4 active torsions:
  status: ('A' for Active; 'I' for Inactive)
    1  A    between atoms: C_2  and  C_21
    2  A    between atoms: O_6  and  N_15
    3  A    between atoms: O_6  and  C_23
    4  A    between atoms: N_15  and  C_21
                            x       y       z     vdW  Elec       q    Type
                         _______ _______ _______ _____ _____    ______ ____

>  <TORSDO>
F 4

$$$$
=
 OpenBabel11052422063D

 25 28  0  0  1  0  0  0  0  0999 V2000
  161.4830  207.7210  151.3980 C   0  0  0  0  0  0  0  0  0  0  0  0
  161.5620  206.6560  150.4990 C   0  0  0  0  0  0  0  0  0  0  0  0
  161.9120  209.3610  149.6710 C   0  0  0  0  0  3  0  0  0  0  0  0
  161.2640  207.8090  152.7530 C   0  0  0  0  0  0  0  0  0  0  0  0
  160.8820  208.5860  155.3700 C   0  0  0  0  0  3  0  0  0  0  0  0
  162.0030  208.3100  148.7420 C   0  0  0  0  0  3  0  0  0  0  0  0
  161.2990  209.1110  153.0990 N   0  0  0  0  0  0  0  0  0  0  0  0
  161.1170  209.5440  154.3720 C   0  0  0  0  0  3  0  0  0  0  0  0
  161.9730  205.8200  148.1650 C   0  0  2  0  0  3  0  0  0  0  0  0
  161.5540  206.1990  146.7530 C   0  0  0  0  0  1  0  0  0  0  0  0
  161.4630  205.2270  150.9480 C   0  0  0  0  0  2  0  0  0  0  0  0
  160.8410  207.2210  155.0270 C   0  0  0  0  0  3  0  0  0  0  0  0
  161.6460  209.0310  150.9960 C   0  0  0  0  0  0  0  0  0  0  0  0
  161.5330  209.8790  152.0410 N   0  0  0  0  0  0  0  0  0  0  0  0
  161.2060  204.6450  148.5900 N   0  0  0  0  0  0  0  0  0  0  0  0
  161.0340  206.8120  153.6990 C   0  0  0  0  0  3  0  0  0  0  0  0
  160.9740  204.3440  149.8360 C   0  0  0  0  0  0  0  0  0  0  0  0
  161.8110  206.9610  149.1400 C   0  0  0  0  0  0  0  0  0  0  0  0
  160.2680  203.1880  150.1610 O   0  0  0  0  0  0  0  0  0  0  0  0
  159.7000  202.3960  149.1830 N   0  0  0  0  0  2  0  0  0  0  0  0
  160.4400  201.1380  149.1110 C   0  0  2  0  0  3  0  0  0  0  0  0
  161.5020  201.1040  150.1050 N   0  0  0  0  0  1  0  0  0  0  0  0
  160.9820  200.8990  147.7360 C   0  0  0  0  0  0  0  0  0  0  0  0
  160.8510  201.8850  146.7680 O   0  0  0  0  0  0  0  0  0  0  0  0
  161.5820  199.8270  147.4590 O   0  0  0  0  0  1  0  0  0  0  0  0
  1  4  2  0  0  0  0
  2 11  1  0  0  0  0
  2  1  1  0  0  0  0
  3 13  1  0  0  0  0
  4  7  1  0  0  0  0
  4 16  1  0  0  0  0
  6 18  1  0  0  0  0
  6  3  2  0  0  0  0
  7  8  1  0  0  0  0
  8  5  2  0  0  0  0
  9 10  1  6  0  0  0
  9 15  1  0  0  0  0
  9 18  1  0  0  0  0
 12  5  1  0  0  0  0
 13  1  1  0  0  0  0
 13 14  2  0  0  0  0
 14  7  1  0  0  0  0
 15 17  2  0  0  0  0
 16 12  2  0  0  0  0
 17 19  1  0  0  0  0
 17 11  1  0  0  0  0
 18  2  2  0  0  0  0
 20 19  1  0  0  0  0
 21 20  1  0  0  0  0
 21 22  1  1  0  0  0
 23 21  1  0  0  0  0
 24 23  2  0  0  0  0
 25 23  1  0  0  0  0
M  END
>  <MODEL>
8

>  <REMARK>
 VINA RESULT:      -7.9      2.374      4.351
  Name = 
  4 active torsions:
  status: ('A' for Active; 'I' for Inactive)
    1  A    between atoms: C_2  and  C_21
    2  A    between atoms: O_6  and  N_15
    3  A    between atoms: O_6  and  C_23
    4  A    between atoms: N_15  and  C_21
                            x       y       z     vdW  Elec       q    Type
                         _______ _______ _______ _____ _____    ______ ____

>  <TORSDO>
F 4

$$$$
=
 OpenBabel11052422063D

 25 28  0  0  1  0  0  0  0  0999 V2000
  161.2210  206.6940  152.0070 C   0  0  0  0  0  0  0  0  0  0  0  0
  161.2460  206.9250  150.6310 C   0  0  0  0  0  0  0  0  0  0  0  0
  161.1890  204.2910  151.7210 C   0  0  0  0  0  3  0  0  0  0  0  0
  161.2030  207.5160  153.1100 C   0  0  0  0  0  0  0  0  0  0  0  0
  161.1600  208.6330  155.6290 C   0  0  0  0  0  3  0  0  0  0  0  0
  161.2080  204.4910  150.3280 C   0  0  0  0  0  3  0  0  0  0  0  0
  161.1760  206.7370  154.2110 N   0  0  0  0  0  0  0  0  0  0  0  0
  161.1540  207.2390  155.4710 C   0  0  0  0  0  3  0  0  0  0  0  0
  161.2080  206.0250  148.2840 C   0  0  2  0  0  3  0  0  0  0  0  0
  161.8880  204.9100  147.5040 C   0  0  0  0  0  1  0  0  0  0  0  0
  161.1890  208.3100  150.0550 C   0  0  0  0  0  2  0  0  0  0  0  0
  161.1880  209.4620  154.4910 C   0  0  0  0  0  3  0  0  0  0  0  0
  161.2010  205.4190  152.5350 C   0  0  0  0  0  0  0  0  0  0  0  0
  161.1730  205.4510  153.8850 N   0  0  0  0  0  0  0  0  0  0  0  0
  161.8240  207.3050  147.9220 N   0  0  0  0  0  0  0  0  0  0  0  0
  161.2110  208.9060  153.2030 C   0  0  0  0  0  3  0  0  0  0  0  0
  161.8180  208.3550  148.6930 C   0  0  0  0  0  0  0  0  0  0  0  0
  161.2550  205.7970  149.7760 C   0  0  0  0  0  0  0  0  0  0  0  0
  162.3940  209.5480  148.2620 O   0  0  0  0  0  0  0  0  0  0  0  0
  162.1800  210.7330  148.9380 N   0  0  0  0  0  2  0  0  0  0  0  0
  162.0570  211.8140  147.9630 C   0  0  2  0  0  3  0  0  0  0  0  0
  163.2920  212.5790  147.8790 N   0  0  0  0  0  1  0  0  0  0  0  0
  160.8940  212.7030  148.2760 C   0  0  0  0  0  0  0  0  0  0  0  0
  159.8910  212.8760  147.3330 O   0  0  0  0  0  0  0  0  0  0  0  0
  160.8010  213.2690  149.3970 O   0  0  0  0  0  1  0  0  0  0  0  0
  1 13  1  0  0  0  0
  1  4  2  0  0  0  0
  2  1  1  0  0  0  0
  3 13  1  0  0  0  0
  4 16  1  0  0  0  0
  4  7  1  0  0  0  0
  6  3  2  0  0  0  0
  7  8  1  0  0  0  0
  8  5  2  0  0  0  0
  9 10  1  6  0  0  0
  9 18  1  0  0  0  0
 11  2  1  0  0  0  0
 12  5  1  0  0  0  0
 13 14  2  0  0  0  0
 14  7  1  0  0  0  0
 15  9  1  0  0  0  0
 15 17  2  0  0  0  0
 16 12  2  0  0  0  0
 17 11  1  0  0  0  0
 18  6  1  0  0  0  0
 18  2  2  0  0  0  0
 19 17  1  0  0  0  0
 19 20  1  0  0  0  0
 21 22  1  1  0  0  0
 21 23  1  0  0  0  0
 21 20  1  0  0  0  0
 23 25  1  0  0  0  0
 24 23  2  0  0  0  0
M  END
>  <MODEL>
9

>  <REMARK>
 VINA RESULT:      -7.9      3.318      5.314
  Name = 
  4 active torsions:
  status: ('A' for Active; 'I' for Inactive)
    1  A    between atoms: C_2  and  C_21
    2  A    between atoms: O_6  and  N_15
    3  A    between atoms: O_6  and  C_23
    4  A    between atoms: N_15  and  C_21
                            x       y       z     vdW  Elec       q    Type
                         _______ _______ _______ _____ _____    ______ ____

>  <TORSDO>
F 4

$$$$
