=
 OpenBabel11062409513D

 34 39  0  0  1  0  0  0  0  0999 V2000
  161.3160  208.1490  151.3070 C   0  0  0  0  0  0  0  0  0  0  0  0
  161.2850  205.8800  150.2200 C   0  0  0  0  0  0  0  0  0  0  0  0
  161.1870  205.3850  152.6890 C   0  0  0  0  0  3  0  0  0  0  0  0
  160.8090  210.1680  152.2860 C   0  0  2  0  0  3  0  0  0  0  0  0
  161.1620  209.5070  151.0750 O   0  0  0  0  0  0  0  0  0  0  0  0
  160.4630  209.0460  153.2680 C   0  0  2  0  0  3  0  0  0  0  0  0
  160.8100  208.0590  155.2690 C   0  0  0  0  0  2  0  0  0  0  0  0
  161.2040  209.1500  154.4600 O   0  0  0  0  0  0  0  0  0  0  0  0
  161.1660  206.5950  153.2560 C   0  0  0  0  0  0  0  0  0  0  0  0
  160.9130  207.8400  152.5220 C   0  0  2  0  0  3  0  0  0  0  0  0
  161.3870  206.7290  154.7370 C   0  0  0  0  0  2  0  0  0  0  0  0
  161.0150  205.3580  148.8720 C   0  0  0  0  0  3  0  0  0  0  0  0
  161.3950  206.0200  147.7750 C   0  0  0  0  0  0  0  0  0  0  0  0
  162.1020  207.3100  147.8910 C   0  0  0  0  0  3  0  0  0  0  0  0
  160.9980  205.0820  151.2550 C   0  0  0  0  0  3  0  0  0  0  0  0
  162.3820  207.8560  149.0770 C   0  0  0  0  0  3  0  0  0  0  0  0
  162.0180  207.1970  150.3840 C   0  0  0  0  0  0  0  0  0  0  0  0
  161.1000  205.4740  146.4400 C   0  0  0  0  0  0  0  0  0  0  0  0
  161.4830  204.3180  146.1170 O   0  0  0  0  0  1  0  0  0  0  0  0
  160.3880  206.2350  145.5180 O   0  0  0  0  0  0  0  0  0  0  0  0
  159.6780  211.1890  152.1070 C   0  0  0  0  0  2  0  0  0  0  0  0
  158.5010  213.2310  152.9220 N   0  0  0  0  0  0  0  0  0  0  0  0
  158.8810  211.4250  154.4270 O   0  0  0  0  0  0  0  0  0  0  0  0
  155.6990  213.9210  155.3990 C   0  0  1  0  0  3  0  0  0  0  0  0
  155.7140  212.5540  155.9710 N   0  0  0  0  0  0  0  0  0  0  0  0
  156.3670  213.9890  154.0050 C   0  0  1  0  0  3  0  0  0  0  0  0
  155.3110  212.6520  157.2610 O   0  0  0  0  0  1  0  0  0  0  0  0
  157.7490  213.3740  154.1370 C   0  0  1  0  0  3  0  0  0  0  0  0
  154.2750  214.4490  155.3130 C   0  0  0  0  0  1  0  0  0  0  0  0
  157.0800  212.0090  156.0100 C   0  0  0  0  0  2  0  0  0  0  0  0
  157.6140  211.9770  154.5950 C   0  0  2  0  0  3  0  0  0  0  0  0
  155.6200  213.3020  153.0660 F   0  0  0  0  0  0  0  0  0  0  0  0
  159.3860  212.1180  153.2930 C   0  0  1  0  0  3  0  0  0  0  0  0
  159.3370  214.4130  152.7960 C   0  0  0  0  0  1  0  0  0  0  0  0
  2 17  1  0  0  0  0
  2 15  2  0  0  0  0
  3  9  2  0  0  0  0
  4 21  1  6  0  0  0
  4  6  1  0  0  0  0
  5  1  1  0  0  0  0
  5  4  1  0  0  0  0
  6  8  1  1  0  0  0
  8  7  1  0  0  0  0
  9 11  1  0  0  0  0
 10  1  1  1  0  0  0
 10  9  1  0  0  0  0
 10  6  1  0  0  0  0
 11  7  1  0  0  0  0
 12  2  1  0  0  0  0
 13 14  1  0  0  0  0
 13 12  2  0  0  0  0
 14 16  2  0  0  0  0
 15  3  1  0  0  0  0
 16 17  1  0  0  0  0
 17  1  2  0  0  0  0
 18 13  1  0  0  0  0
 19 18  1  0  0  0  0
 20 18  2  0  0  0  0
 22 33  1  0  0  0  0
 23 31  1  0  0  0  0
 24 29  1  6  0  0  0
 24 25  1  0  0  0  0
 25 30  1  0  0  0  0
 25 27  1  0  0  0  0
 26 32  1  6  0  0  0
 26 28  1  0  0  0  0
 26 24  1  0  0  0  0
 28 22  1  6  0  0  0
 28 31  1  0  0  0  0
 31 30  1  1  0  0  0
 33 21  1  6  0  0  0
 33 23  1  0  0  0  0
 34 22  1  0  0  0  0
M  END
>  <MODEL>
1

>  <REMARK>
 VINA RESULT:      -9.0      0.000      0.000
  Name = 
  3 active torsions:
  status: ('A' for Active; 'I' for Inactive)
    1  A    between atoms: C_3  and  C_25
    2  A    between atoms: C_8  and  C_18
    3  A    between atoms: C_18  and  C_30
                            x       y       z     vdW  Elec       q    Type
                         _______ _______ _______ _____ _____    ______ ____

>  <TORSDO>
F 3

$$$$
=
 OpenBabel11062409513D

 34 39  0  0  1  0  0  0  0  0999 V2000
  160.8120  209.5920  152.2300 C   0  0  0  0  0  0  0  0  0  0  0  0
  161.1990  207.1120  152.0690 C   0  0  0  0  0  0  0  0  0  0  0  0
  161.2700  207.5890  154.5420 C   0  0  0  0  0  3  0  0  0  0  0  0
  159.9430  211.7120  152.4380 C   0  0  2  0  0  3  0  0  0  0  0  0
  160.3870  210.7090  151.5280 O   0  0  0  0  0  0  0  0  0  0  0  0
  159.8530  211.0090  153.7950 C   0  0  2  0  0  3  0  0  0  0  0  0
  160.4440  210.9390  155.9730 C   0  0  0  0  0  2  0  0  0  0  0  0
  160.5920  211.6870  154.7830 O   0  0  0  0  0  0  0  0  0  0  0  0
  161.0260  208.9010  154.6190 C   0  0  0  0  0  0  0  0  0  0  0  0
  160.5120  209.7070  153.5060 C   0  0  2  0  0  3  0  0  0  0  0  0
  161.2570  209.6260  155.9160 C   0  0  0  0  0  2  0  0  0  0  0  0
  161.0000  206.0750  151.0440 C   0  0  0  0  0  3  0  0  0  0  0  0
  161.2120  206.3220  149.7470 C   0  0  0  0  0  0  0  0  0  0  0  0
  161.6530  207.6590  149.3060 C   0  0  0  0  0  3  0  0  0  0  0  0
  161.1040  206.7330  153.3480 C   0  0  0  0  0  3  0  0  0  0  0  0
  161.8520  208.6560  150.1710 C   0  0  0  0  0  3  0  0  0  0  0  0
  161.6620  208.4960  151.6590 C   0  0  0  0  0  0  0  0  0  0  0  0
  160.9920  205.2650  148.7460 C   0  0  0  0  0  0  0  0  0  0  0  0
  160.8720  205.5500  147.5240 O   0  0  0  0  0  0  0  0  0  0  0  0
  160.9180  203.9340  149.1420 O   0  0  0  0  0  1  0  0  0  0  0  0
  158.6290  212.3760  152.0090 C   0  0  0  0  0  2  0  0  0  0  0  0
  159.9840  213.3260  150.1430 N   0  0  0  0  0  0  0  0  0  0  0  0
  157.6090  213.3050  149.9670 O   0  0  0  0  0  0  0  0  0  0  0  0
  159.6650  213.4150  146.3540 C   0  0  1  0  0  3  0  0  0  0  0  0
  158.2660  212.9290  146.3450 N   0  0  0  0  0  0  0  0  0  0  0  0
  160.3990  213.0940  147.6770 C   0  0  1  0  0  3  0  0  0  0  0  0
  157.6640  213.4490  145.2490 O   0  0  0  0  0  1  0  0  0  0  0  0
  159.5380  213.6250  148.8100 C   0  0  1  0  0  3  0  0  0  0  0  0
  160.4410  212.8330  145.1820 C   0  0  0  0  0  1  0  0  0  0  0  0
  157.5180  213.4400  147.5050 C   0  0  0  0  0  2  0  0  0  0  0  0
  158.2170  212.9690  148.7610 C   0  0  2  0  0  3  0  0  0  0  0  0
  160.5930  211.7320  147.8160 F   0  0  0  0  0  0  0  0  0  0  0  0
  158.7060  213.3970  150.8650 C   0  0  1  0  0  3  0  0  0  0  0  0
  160.7850  214.4530  150.5870 C   0  0  0  0  0  1  0  0  0  0  0  0
  2 15  2  0  0  0  0
  3  9  2  0  0  0  0
  4 21  1  6  0  0  0
  4  6  1  0  0  0  0
  5  1  1  0  0  0  0
  5  4  1  0  0  0  0
  6  8  1  1  0  0  0
  8  7  1  0  0  0  0
  9 11  1  0  0  0  0
 10  1  1  6  0  0  0
 10  6  1  0  0  0  0
 10  9  1  0  0  0  0
 11  7  1  0  0  0  0
 12  2  1  0  0  0  0
 13 12  2  0  0  0  0
 14 13  1  0  0  0  0
 14 16  2  0  0  0  0
 15  3  1  0  0  0  0
 16 17  1  0  0  0  0
 17  2  1  0  0  0  0
 17  1  2  0  0  0  0
 18 20  1  0  0  0  0
 18 13  1  0  0  0  0
 19 18  2  0  0  0  0
 22 34  1  0  0  0  0
 22 33  1  0  0  0  0
 23 33  1  0  0  0  0
 24 29  1  6  0  0  0
 24 26  1  0  0  0  0
 25 24  1  0  0  0  0
 25 30  1  0  0  0  0
 26 32  1  1  0  0  0
 26 28  1  0  0  0  0
 27 25  1  0  0  0  0
 28 22  1  1  0  0  0
 31 30  1  6  0  0  0
 31 28  1  0  0  0  0
 31 23  1  0  0  0  0
 33 21  1  1  0  0  0
M  END
>  <MODEL>
2

>  <REMARK>
 VINA RESULT:      -8.6      3.490      5.181
  Name = 
  3 active torsions:
  status: ('A' for Active; 'I' for Inactive)
    1  A    between atoms: C_3  and  C_25
    2  A    between atoms: C_8  and  C_18
    3  A    between atoms: C_18  and  C_30
                            x       y       z     vdW  Elec       q    Type
                         _______ _______ _______ _____ _____    ______ ____

>  <TORSDO>
F 3

$$$$
=
 OpenBabel11062409513D

 34 39  0  0  1  0  0  0  0  0999 V2000
  161.6110  207.2560  150.4350 C   0  0  0  0  0  0  0  0  0  0  0  0
  161.2580  204.9870  149.4080 C   0  0  0  0  0  0  0  0  0  0  0  0
  160.9750  204.5990  151.8820 C   0  0  0  0  0  3  0  0  0  0  0  0
  161.3980  209.3630  151.3330 C   0  0  2  0  0  3  0  0  0  0  0  0
  161.6910  208.6130  150.1590 O   0  0  0  0  0  0  0  0  0  0  0  0
  160.8320  208.3460  152.3270 C   0  0  2  0  0  3  0  0  0  0  0  0
  160.9280  207.3850  154.3690 C   0  0  0  0  0  2  0  0  0  0  0  0
  161.5280  208.3700  153.5500 O   0  0  0  0  0  0  0  0  0  0  0  0
  161.1270  205.8150  152.4140 C   0  0  0  0  0  0  0  0  0  0  0  0
  161.1120  207.0590  151.6360 C   0  0  2  0  0  3  0  0  0  0  0  0
  161.3020  205.9620  153.9000 C   0  0  0  0  0  2  0  0  0  0  0  0
  160.9650  204.4690  148.0630 C   0  0  0  0  0  3  0  0  0  0  0  0
  161.4950  205.0240  146.9680 C   0  0  0  0  0  0  0  0  0  0  0  0
  162.3970  206.1860  147.0840 C   0  0  0  0  0  3  0  0  0  0  0  0
  160.8010  204.2820  150.4490 C   0  0  0  0  0  3  0  0  0  0  0  0
  162.7100  206.7190  148.2660 C   0  0  0  0  0  3  0  0  0  0  0  0
  162.1890  206.1730  149.5720 C   0  0  0  0  0  0  0  0  0  0  0  0
  161.1720  204.4880  145.6350 C   0  0  0  0  0  0  0  0  0  0  0  0
  161.4210  203.2870  145.3470 O   0  0  0  0  0  1  0  0  0  0  0  0
  160.5830  205.3070  144.6780 O   0  0  0  0  0  0  0  0  0  0  0  0
  160.4580  210.5460  151.0730 C   0  0  0  0  0  2  0  0  0  0  0  0
  159.4330  212.6640  151.9020 N   0  0  0  0  0  0  0  0  0  0  0  0
  160.8030  211.3790  153.3670 O   0  0  0  0  0  0  0  0  0  0  0  0
  158.0320  213.8590  155.2290 C   0  0  1  0  0  3  0  0  0  0  0  0
  158.5690  212.7120  155.9980 N   0  0  0  0  0  0  0  0  0  0  0  0
  157.9480  213.5720  153.7120 C   0  0  1  0  0  3  0  0  0  0  0  0
  158.8010  213.1450  157.2600 O   0  0  0  0  0  1  0  0  0  0  0  0
  159.3210  213.1000  153.2670 C   0  0  1  0  0  3  0  0  0  0  0  0
  156.6600  214.2600  155.7530 C   0  0  0  0  0  1  0  0  0  0  0  0
  159.8710  212.2790  155.4670 C   0  0  0  0  0  2  0  0  0  0  0  0
  159.6800  211.8820  154.0200 C   0  0  2  0  0  3  0  0  0  0  0  0
  156.9950  212.6060  153.4440 F   0  0  0  0  0  0  0  0  0  0  0  0
  160.5810  211.7540  152.0140 C   0  0  1  0  0  3  0  0  0  0  0  0
  159.8750  213.8090  151.1250 C   0  0  0  0  0  1  0  0  0  0  0  0
  2 17  1  0  0  0  0
  2 15  2  0  0  0  0
  3  9  2  0  0  0  0
  4 21  1  6  0  0  0
  4  6  1  0  0  0  0
  5  1  1  0  0  0  0
  5  4  1  0  0  0  0
  6  8  1  1  0  0  0
  8  7  1  0  0  0  0
  9 11  1  0  0  0  0
 10  1  1  1  0  0  0
 10  6  1  0  0  0  0
 10  9  1  0  0  0  0
 11  7  1  0  0  0  0
 12  2  1  0  0  0  0
 13 14  1  0  0  0  0
 13 12  2  0  0  0  0
 14 16  2  0  0  0  0
 15  3  1  0  0  0  0
 16 17  1  0  0  0  0
 17  1  2  0  0  0  0
 18 13  1  0  0  0  0
 19 18  1  0  0  0  0
 20 18  2  0  0  0  0
 22 33  1  0  0  0  0
 23 31  1  0  0  0  0
 24 29  1  1  0  0  0
 24 25  1  0  0  0  0
 25 27  1  0  0  0  0
 26 32  1  1  0  0  0
 26 24  1  0  0  0  0
 28 22  1  6  0  0  0
 28 26  1  0  0  0  0
 28 31  1  0  0  0  0
 30 25  1  0  0  0  0
 31 30  1  1  0  0  0
 33 21  1  6  0  0  0
 33 23  1  0  0  0  0
 34 22  1  0  0  0  0
M  END
>  <MODEL>
3

>  <REMARK>
 VINA RESULT:      -8.4      1.483      1.722
  Name = 
  3 active torsions:
  status: ('A' for Active; 'I' for Inactive)
    1  A    between atoms: C_3  and  C_25
    2  A    between atoms: C_8  and  C_18
    3  A    between atoms: C_18  and  C_30
                            x       y       z     vdW  Elec       q    Type
                         _______ _______ _______ _____ _____    ______ ____

>  <TORSDO>
F 3

$$$$
=
 OpenBabel11062409513D

 34 39  0  0  1  0  0  0  0  0999 V2000
  161.6300  207.3990  150.9390 C   0  0  0  0  0  0  0  0  0  0  0  0
  161.1230  205.4880  149.3840 C   0  0  0  0  0  0  0  0  0  0  0  0
  160.7990  204.5150  151.6860 C   0  0  0  0  0  3  0  0  0  0  0  0
  161.5610  209.2250  152.3370 C   0  0  2  0  0  3  0  0  0  0  0  0
  161.8070  208.7730  151.0090 O   0  0  0  0  0  0  0  0  0  0  0  0
  160.9190  208.0330  153.0530 C   0  0  2  0  0  3  0  0  0  0  0  0
  160.9340  206.5890  154.7890 C   0  0  0  0  0  2  0  0  0  0  0  0
  161.6080  207.7020  154.2350 O   0  0  0  0  0  0  0  0  0  0  0  0
  161.0330  205.5470  152.5020 C   0  0  0  0  0  0  0  0  0  0  0  0
  161.1100  206.9430  152.0590 C   0  0  2  0  0  3  0  0  0  0  0  0
  161.2100  205.3050  153.9760 C   0  0  0  0  0  2  0  0  0  0  0  0
  160.8020  205.3440  147.9550 C   0  0  0  0  0  3  0  0  0  0  0  0
  161.3760  206.1160  147.0270 C   0  0  0  0  0  0  0  0  0  0  0  0
  162.3570  207.1470  147.4180 C   0  0  0  0  0  3  0  0  0  0  0  0
  160.6110  204.5790  150.2210 C   0  0  0  0  0  3  0  0  0  0  0  0
  162.7010  207.3450  148.6920 C   0  0  0  0  0  3  0  0  0  0  0  0
  162.1340  206.5280  149.8260 C   0  0  0  0  0  0  0  0  0  0  0  0
  161.0230  205.9540  145.6060 C   0  0  0  0  0  0  0  0  0  0  0  0
  159.8510  206.1790  145.2040 O   0  0  0  0  0  1  0  0  0  0  0  0
  161.9890  205.5500  144.6910 O   0  0  0  0  0  0  0  0  0  0  0  0
  160.7080  210.4980  152.3920 C   0  0  0  0  0  2  0  0  0  0  0  0
  159.6910  210.8960  154.6340 N   0  0  0  0  0  0  0  0  0  0  0  0
  158.3530  211.1620  152.6830 O   0  0  0  0  0  0  0  0  0  0  0  0
  157.0780  213.2840  156.0250 C   0  0  1  0  0  3  0  0  0  0  0  0
  156.6210  213.7420  154.6920 N   0  0  0  0  0  0  0  0  0  0  0  0
  158.4820  212.6350  155.9820 C   0  0  1  0  0  3  0  0  0  0  0  0
  155.3160  214.0850  154.8080 O   0  0  0  0  0  1  0  0  0  0  0  0
  158.4450  211.5510  154.9200 C   0  0  1  0  0  3  0  0  0  0  0  0
  157.0750  214.4380  157.0170 C   0  0  0  0  0  1  0  0  0  0  0  0
  156.6710  212.6490  153.7080 C   0  0  0  0  0  2  0  0  0  0  0  0
  158.1000  212.1600  153.6200 C   0  0  2  0  0  3  0  0  0  0  0  0
  159.4510  213.5740  155.6800 F   0  0  0  0  0  0  0  0  0  0  0  0
  159.4400  210.4500  153.2570 C   0  0  1  0  0  3  0  0  0  0  0  0
  159.7450  209.7030  155.4620 C   0  0  0  0  0  1  0  0  0  0  0  0
  1  5  1  0  0  0  0
  2 17  1  0  0  0  0
  2 15  2  0  0  0  0
  3  9  2  0  0  0  0
  4 21  1  6  0  0  0
  4  6  1  0  0  0  0
  5  4  1  0  0  0  0
  6  8  1  1  0  0  0
  8  7  1  0  0  0  0
  9 11  1  0  0  0  0
 10  1  1  1  0  0  0
 10  9  1  0  0  0  0
 10  6  1  0  0  0  0
 11  7  1  0  0  0  0
 12  2  1  0  0  0  0
 13 14  1  0  0  0  0
 13 12  2  0  0  0  0
 14 16  2  0  0  0  0
 15  3  1  0  0  0  0
 16 17  1  0  0  0  0
 17  1  2  0  0  0  0
 18 13  1  0  0  0  0
 19 18  1  0  0  0  0
 20 18  2  0  0  0  0
 22 34  1  0  0  0  0
 23 33  1  0  0  0  0
 23 31  1  0  0  0  0
 24 29  1  1  0  0  0
 25 27  1  0  0  0  0
 25 24  1  0  0  0  0
 26 32  1  6  0  0  0
 26 24  1  0  0  0  0
 28 22  1  6  0  0  0
 28 26  1  0  0  0  0
 30 25  1  0  0  0  0
 31 30  1  1  0  0  0
 31 28  1  0  0  0  0
 33 21  1  6  0  0  0
 33 22  1  0  0  0  0
M  END
>  <MODEL>
4

>  <REMARK>
 VINA RESULT:      -8.3      1.646      2.095
  Name = 
  3 active torsions:
  status: ('A' for Active; 'I' for Inactive)
    1  A    between atoms: C_3  and  C_25
    2  A    between atoms: C_8  and  C_18
    3  A    between atoms: C_18  and  C_30
                            x       y       z     vdW  Elec       q    Type
                         _______ _______ _______ _____ _____    ______ ____

>  <TORSDO>
F 3

$$$$
=
 OpenBabel11062409513D

 34 39  0  0  1  0  0  0  0  0999 V2000
  161.0300  206.7900  150.6550 C   0  0  0  0  0  0  0  0  0  0  0  0
  161.5380  205.3200  148.6770 C   0  0  0  0  0  0  0  0  0  0  0  0
  162.1820  207.6330  147.9110 C   0  0  0  0  0  3  0  0  0  0  0  0
  161.0840  208.0460  152.5810 C   0  0  2  0  0  3  0  0  0  0  0  0
  160.7420  206.7860  152.0110 O   0  0  0  0  0  0  0  0  0  0  0  0
  161.8980  208.7650  151.5030 C   0  0  2  0  0  3  0  0  0  0  0  0
  162.1870  210.5860  150.1980 C   0  0  0  0  0  2  0  0  0  0  0  0
  161.3660  210.0350  151.2090 O   0  0  0  0  0  0  0  0  0  0  0  0
  161.9440  208.4000  148.9800 C   0  0  0  0  0  0  0  0  0  0  0  0
  161.7000  207.8740  150.3280 C   0  0  2  0  0  3  0  0  0  0  0  0
  161.9420  209.8960  148.8380 C   0  0  0  0  0  2  0  0  0  0  0  0
  161.7210  203.8790  148.4510 C   0  0  0  0  0  3  0  0  0  0  0  0
  160.9890  202.9680  149.1020 C   0  0  0  0  0  0  0  0  0  0  0  0
  159.9680  203.3940  150.0780 C   0  0  0  0  0  3  0  0  0  0  0  0
  162.2110  206.1550  147.8780 C   0  0  0  0  0  3  0  0  0  0  0  0
  159.7420  204.6820  150.3450 C   0  0  0  0  0  3  0  0  0  0  0  0
  160.4920  205.8000  149.6640 C   0  0  0  0  0  0  0  0  0  0  0  0
  161.2060  201.5320  148.8600 C   0  0  0  0  0  0  0  0  0  0  0  0
  161.2990  200.7240  149.8220 O   0  0  0  0  0  1  0  0  0  0  0  0
  161.3090  201.0520  147.5590 O   0  0  0  0  0  0  0  0  0  0  0  0
  161.8240  207.9210  153.9190 C   0  0  0  0  0  2  0  0  0  0  0  0
  161.7420  210.2490  154.8120 N   0  0  0  0  0  0  0  0  0  0  0  0
  159.9810  208.7350  155.3380 O   0  0  0  0  0  0  0  0  0  0  0  0
  158.9850  212.7680  155.5240 C   0  0  1  0  0  3  0  0  0  0  0  0
  157.8880  211.7860  155.3630 N   0  0  0  0  0  0  0  0  0  0  0  0
  160.3020  212.3040  154.8590 C   0  0  1  0  0  3  0  0  0  0  0  0
  156.8660  212.1860  156.1570 O   0  0  0  0  0  1  0  0  0  0  0  0
  160.6120  210.9170  155.3940 C   0  0  1  0  0  3  0  0  0  0  0  0
  158.5760  214.1230  154.9650 C   0  0  0  0  0  1  0  0  0  0  0  0
  158.2890  210.4560  155.8500 C   0  0  0  0  0  2  0  0  0  0  0  0
  159.4970  210.0100  155.0580 C   0  0  2  0  0  3  0  0  0  0  0  0
  160.1760  212.2740  153.4820 F   0  0  0  0  0  0  0  0  0  0  0  0
  161.3690  208.8480  155.0550 C   0  0  1  0  0  3  0  0  0  0  0  0
  162.8880  210.5340  155.6590 C   0  0  0  0  0  1  0  0  0  0  0  0
  1  5  1  0  0  0  0
  2 17  1  0  0  0  0
  3  9  2  0  0  0  0
  4 21  1  1  0  0  0
  5  4  1  0  0  0  0
  6  8  1  6  0  0  0
  6  4  1  0  0  0  0
  7  8  1  0  0  0  0
 10  9  1  6  0  0  0
 10  1  1  0  0  0  0
 10  6  1  0  0  0  0
 11  9  1  0  0  0  0
 11  7  1  0  0  0  0
 12  2  1  0  0  0  0
 12 13  2  0  0  0  0
 13 14  1  0  0  0  0
 14 16  2  0  0  0  0
 15  3  1  0  0  0  0
 15  2  2  0  0  0  0
 17 16  1  0  0  0  0
 17  1  2  0  0  0  0
 18 13  1  0  0  0  0
 18 19  1  0  0  0  0
 20 18  2  0  0  0  0
 22 33  1  0  0  0  0
 22 34  1  0  0  0  0
 24 29  1  6  0  0  0
 25 24  1  0  0  0  0
 25 30  1  0  0  0  0
 25 27  1  0  0  0  0
 26 32  1  6  0  0  0
 26 28  1  0  0  0  0
 26 24  1  0  0  0  0
 28 22  1  6  0  0  0
 31 23  1  0  0  0  0
 31 28  1  0  0  0  0
 31 30  1  1  0  0  0
 33 21  1  6  0  0  0
 33 23  1  0  0  0  0
M  END
>  <MODEL>
5

>  <REMARK>
 VINA RESULT:      -8.1      2.370      3.985
  Name = 
  3 active torsions:
  status: ('A' for Active; 'I' for Inactive)
    1  A    between atoms: C_3  and  C_25
    2  A    between atoms: C_8  and  C_18
    3  A    between atoms: C_18  and  C_30
                            x       y       z     vdW  Elec       q    Type
                         _______ _______ _______ _____ _____    ______ ____

>  <TORSDO>
F 3

$$$$
=
 OpenBabel11062409513D

 34 39  0  0  1  0  0  0  0  0999 V2000
  161.7380  205.1820  149.2390 C   0  0  0  0  0  0  0  0  0  0  0  0
  160.6750  203.0030  148.5650 C   0  0  0  0  0  0  0  0  0  0  0  0
  160.6010  202.9750  151.0840 C   0  0  0  0  0  3  0  0  0  0  0  0
  162.2000  207.3480  149.8580 C   0  0  2  0  0  3  0  0  0  0  0  0
  162.1390  206.4250  148.7750 O   0  0  0  0  0  0  0  0  0  0  0  0
  161.5090  206.6400  151.0260 C   0  0  2  0  0  3  0  0  0  0  0  0
  161.5930  205.9150  153.1630 C   0  0  0  0  0  2  0  0  0  0  0  0
  162.3290  206.6010  152.1700 O   0  0  0  0  0  0  0  0  0  0  0  0
  161.1320  204.1520  151.4300 C   0  0  0  0  0  0  0  0  0  0  0  0
  161.3520  205.2600  150.4950 C   0  0  2  0  0  3  0  0  0  0  0  0
  161.5180  204.4020  152.8620 C   0  0  0  0  0  2  0  0  0  0  0  0
  160.0960  202.4460  147.3330 C   0  0  0  0  0  3  0  0  0  0  0  0
  160.6170  202.7110  146.1310 C   0  0  0  0  0  0  0  0  0  0  0  0
  161.8010  203.5830  146.0090 C   0  0  0  0  0  3  0  0  0  0  0  0
  160.1770  202.5680  149.7270 C   0  0  0  0  0  3  0  0  0  0  0  0
  162.3850  204.1320  147.0760 C   0  0  0  0  0  3  0  0  0  0  0  0
  161.8990  203.8950  148.4840 C   0  0  0  0  0  0  0  0  0  0  0  0
  160.0050  202.1470  144.9170 C   0  0  0  0  0  0  0  0  0  0  0  0
  160.0810  200.9130  144.6710 O   0  0  0  0  0  1  0  0  0  0  0  0
  159.3310  202.9750  144.0260 O   0  0  0  0  0  0  0  0  0  0  0  0
  161.5810  208.7110  149.5220 C   0  0  0  0  0  2  0  0  0  0  0  0
  160.8820  210.8960  150.5020 N   0  0  0  0  0  0  0  0  0  0  0  0
  162.3310  209.4720  151.7430 O   0  0  0  0  0  0  0  0  0  0  0  0
  160.0960  212.1530  154.0040 C   0  0  1  0  0  3  0  0  0  0  0  0
  160.6350  210.9510  154.6800 N   0  0  0  0  0  0  0  0  0  0  0  0
  159.7650  211.8990  152.5140 C   0  0  1  0  0  3  0  0  0  0  0  0
  161.0880  211.3400  155.8960 O   0  0  0  0  0  1  0  0  0  0  0  0
  161.0100  211.3170  151.8690 C   0  0  1  0  0  3  0  0  0  0  0  0
  158.8570  212.6630  154.7250 C   0  0  0  0  0  1  0  0  0  0  0  0
  161.8020  210.4140  153.9610 C   0  0  0  0  0  2  0  0  0  0  0  0
  161.3670  210.0600  152.5570 C   0  0  2  0  0  3  0  0  0  0  0  0
  158.7010  211.0260  152.3860 F   0  0  0  0  0  0  0  0  0  0  0  0
  161.9480  209.8870  150.4390 C   0  0  1  0  0  3  0  0  0  0  0  0
  161.3050  212.0110  149.6720 C   0  0  0  0  0  1  0  0  0  0  0  0
  2 15  2  0  0  0  0
  3  9  2  0  0  0  0
  4 21  1  6  0  0  0
  4  6  1  0  0  0  0
  5  1  1  0  0  0  0
  5  4  1  0  0  0  0
  6  8  1  1  0  0  0
  8  7  1  0  0  0  0
  9 11  1  0  0  0  0
 10  1  1  1  0  0  0
 10  6  1  0  0  0  0
 10  9  1  0  0  0  0
 11  7  1  0  0  0  0
 12  2  1  0  0  0  0
 13 12  2  0  0  0  0
 14 13  1  0  0  0  0
 14 16  2  0  0  0  0
 15  3  1  0  0  0  0
 16 17  1  0  0  0  0
 17  2  1  0  0  0  0
 17  1  2  0  0  0  0
 18 13  1  0  0  0  0
 19 18  1  0  0  0  0
 20 18  2  0  0  0  0
 23 31  1  0  0  0  0
 24 25  1  0  0  0  0
 24 29  1  1  0  0  0
 25 27  1  0  0  0  0
 26 32  1  1  0  0  0
 26 24  1  0  0  0  0
 28 22  1  6  0  0  0
 28 26  1  0  0  0  0
 28 31  1  0  0  0  0
 30 25  1  0  0  0  0
 31 30  1  1  0  0  0
 33 21  1  6  0  0  0
 33 22  1  0  0  0  0
 33 23  1  0  0  0  0
 34 22  1  0  0  0  0
M  END
>  <MODEL>
6

>  <REMARK>
 VINA RESULT:      -7.5      2.611      4.102
  Name = 
  3 active torsions:
  status: ('A' for Active; 'I' for Inactive)
    1  A    between atoms: C_3  and  C_25
    2  A    between atoms: C_8  and  C_18
    3  A    between atoms: C_18  and  C_30
                            x       y       z     vdW  Elec       q    Type
                         _______ _______ _______ _____ _____    ______ ____

>  <TORSDO>
F 3

$$$$
=
 OpenBabel11062409513D

 34 39  0  0  1  0  0  0  0  0999 V2000
  161.1700  208.5280  151.0750 C   0  0  0  0  0  0  0  0  0  0  0  0
  161.3260  207.2970  153.2640 C   0  0  0  0  0  0  0  0  0  0  0  0
  161.5990  205.4980  151.5210 C   0  0  0  0  0  3  0  0  0  0  0  0
  161.5650  209.6700  149.1180 C   0  0  2  0  0  3  0  0  0  0  0  0
  161.2000  209.7850  150.4900 O   0  0  0  0  0  0  0  0  0  0  0  0
  162.0540  208.2290  148.9530 C   0  0  2  0  0  3  0  0  0  0  0  0
  161.8990  206.2510  147.8750 C   0  0  0  0  0  2  0  0  0  0  0  0
  161.3740  207.5630  147.9160 O   0  0  0  0  0  0  0  0  0  0  0  0
  161.5530  206.1660  150.3640 C   0  0  0  0  0  0  0  0  0  0  0  0
  161.6630  207.6250  150.2550 C   0  0  0  0  0  0  0  0  0  0  0  0
  161.4040  205.4110  149.0730 C   0  0  0  0  0  2  0  0  0  0  0  0
  161.5630  207.6640  154.6680 C   0  0  0  0  0  3  0  0  0  0  0  0
  161.0710  208.7920  155.1910 C   0  0  0  0  0  0  0  0  0  0  0  0
  160.2690  209.7090  154.3590 C   0  0  0  0  0  3  0  0  0  0  0  0
  161.7340  206.0850  152.8710 C   0  0  0  0  0  3  0  0  0  0  0  0
  160.0110  209.4540  153.0750 C   0  0  0  0  0  3  0  0  0  0  0  0
  160.4980  208.2080  152.3780 C   0  0  1  0  0  3  0  0  0  0  0  0
  161.3360  209.1350  156.5980 C   0  0  0  0  0  0  0  0  0  0  0  0
  160.5810  209.9280  157.2210 O   0  0  0  0  0  0  0  0  0  0  0  0
  162.4290  208.5810  157.2560 O   0  0  0  0  0  1  0  0  0  0  0  0
  162.5970  210.7160  148.6800 C   0  0  0  0  0  2  0  0  0  0  0  0
  162.7520  212.6730  147.1400 N   0  0  0  0  0  0  0  0  0  0  0  0
  160.6550  212.1290  148.1290 O   0  0  0  0  0  0  0  0  0  0  0  0
  160.4490  214.2690  144.5690 C   0  0  1  0  0  3  0  0  0  0  0  0
  159.2570  213.4950  144.9880 N   0  0  0  0  0  0  0  0  0  0  0  0
  161.7730  213.6150  145.0290 C   0  0  1  0  0  3  0  0  0  0  0  0
  158.1680  214.2580  144.7290 O   0  0  0  0  0  1  0  0  0  0  0  0
  161.6650  213.3830  146.5250 C   0  0  1  0  0  3  0  0  0  0  0  0
  160.4640  214.4520  143.0590 C   0  0  0  0  0  1  0  0  0  0  0  0
  159.2570  213.2630  146.4410 C   0  0  0  0  0  2  0  0  0  0  0  0
  160.5140  212.4990  146.7940 C   0  0  2  0  0  3  0  0  0  0  0  0
  161.9900  212.4200  144.3690 F   0  0  0  0  0  0  0  0  0  0  0  0
  162.0640  212.1080  148.3100 C   0  0  1  0  0  3  0  0  0  0  0  0
  163.6840  213.6690  147.6380 C   0  0  0  0  0  1  0  0  0  0  0  0
  1 17  1  0  0  0  0
  2 12  1  0  0  0  0
  3 15  1  0  0  0  0
  4 21  1  1  0  0  0
  4  5  1  0  0  0  0
  5  1  1  0  0  0  0
  6  8  1  6  0  0  0
  6  4  1  0  0  0  0
  6 10  1  0  0  0  0
  7  8  1  0  0  0  0
  7 11  1  0  0  0  0
  9  3  2  0  0  0  0
 10  9  1  0  0  0  0
 10  1  2  0  0  0  0
 11  9  1  0  0  0  0
 12 13  2  0  0  0  0
 13 18  1  0  0  0  0
 14 13  1  0  0  0  0
 15  2  2  0  0  0  0
 16 14  2  0  0  0  0
 17 16  1  1  0  0  0
 17  2  1  0  0  0  0
 18 19  2  0  0  0  0
 18 20  1  0  0  0  0
 22 34  1  0  0  0  0
 22 33  1  0  0  0  0
 23 33  1  0  0  0  0
 24 29  1  6  0  0  0
 24 25  1  0  0  0  0
 24 26  1  0  0  0  0
 25 30  1  0  0  0  0
 26 32  1  6  0  0  0
 26 28  1  0  0  0  0
 27 25  1  0  0  0  0
 28 31  1  0  0  0  0
 28 22  1  6  0  0  0
 31 30  1  1  0  0  0
 31 23  1  0  0  0  0
 33 21  1  6  0  0  0
M  END
>  <MODEL>
7

>  <REMARK>
 VINA RESULT:      -7.4      4.590      7.857
  Name = 
  3 active torsions:
  status: ('A' for Active; 'I' for Inactive)
    1  A    between atoms: C_3  and  C_25
    2  A    between atoms: C_8  and  C_18
    3  A    between atoms: C_18  and  C_30
                            x       y       z     vdW  Elec       q    Type
                         _______ _______ _______ _____ _____    ______ ____

>  <TORSDO>
F 3

$$$$
=
 OpenBabel11062409513D

 34 39  0  0  1  0  0  0  0  0999 V2000
  161.0480  207.0850  151.3310 C   0  0  0  0  0  0  0  0  0  0  0  0
  161.2510  207.4390  153.8130 C   0  0  0  0  0  0  0  0  0  0  0  0
  161.0020  204.9440  153.5630 C   0  0  0  0  0  3  0  0  0  0  0  0
  161.3950  206.6880  149.0920 C   0  0  2  0  0  3  0  0  0  0  0  0
  161.2220  207.6860  150.0940 O   0  0  0  0  0  0  0  0  0  0  0  0
  161.6070  205.3820  149.8610 C   0  0  2  0  0  3  0  0  0  0  0  0
  160.9880  203.2430  150.2380 C   0  0  0  0  0  2  0  0  0  0  0  0
  160.7040  204.3830  149.4510 O   0  0  0  0  0  0  0  0  0  0  0  0
  160.9330  204.7630  152.2410 C   0  0  0  0  0  0  0  0  0  0  0  0
  161.2770  205.7910  151.2530 C   0  0  0  0  0  0  0  0  0  0  0  0
  160.5040  203.4310  151.6930 C   0  0  0  0  0  2  0  0  0  0  0  0
  161.7140  208.5250  154.6920 C   0  0  0  0  0  3  0  0  0  0  0  0
  161.4870  209.8100  154.3970 C   0  0  0  0  0  0  0  0  0  0  0  0
  160.7610  210.1740  153.1660 C   0  0  0  0  0  3  0  0  0  0  0  0
  161.3950  206.1870  154.2610 C   0  0  0  0  0  3  0  0  0  0  0  0
  160.3120  209.2510  152.3130 C   0  0  0  0  0  3  0  0  0  0  0  0
  160.4910  207.7710  152.5440 C   0  0  1  0  0  3  0  0  0  0  0  0
  161.9740  210.8720  155.2930 C   0  0  0  0  0  0  0  0  0  0  0  0
  161.1960  211.7730  155.7050 O   0  0  0  0  0  1  0  0  0  0  0  0
  163.3050  210.8890  155.6960 O   0  0  0  0  0  0  0  0  0  0  0  0
  162.5320  207.0080  148.1130 C   0  0  0  0  0  2  0  0  0  0  0  0
  162.7790  204.8550  146.8780 N   0  0  0  0  0  0  0  0  0  0  0  0
  161.2960  206.5180  146.0380 O   0  0  0  0  0  0  0  0  0  0  0  0
  160.4520  202.6170  144.8680 C   0  0  1  0  0  3  0  0  0  0  0  0
  159.3600  203.6160  144.8040 N   0  0  0  0  0  0  0  0  0  0  0  0
  161.4570  202.9060  146.0090 C   0  0  1  0  0  3  0  0  0  0  0  0
  158.6780  203.3960  143.6550 O   0  0  0  0  0  1  0  0  0  0  0  0
  161.9220  204.3420  145.8450 C   0  0  1  0  0  3  0  0  0  0  0  0
  159.8850  201.2140  145.0260 C   0  0  0  0  0  1  0  0  0  0  0  0
  159.8950  204.9830  144.7070 C   0  0  0  0  0  2  0  0  0  0  0  0
  160.7540  205.2400  145.9250 C   0  0  2  0  0  3  0  0  0  0  0  0
  160.8640  202.7280  147.2450 F   0  0  0  0  0  0  0  0  0  0  0  0
  162.5020  206.2930  146.7550 C   0  0  1  0  0  3  0  0  0  0  0  0
  164.1480  204.6480  146.4390 C   0  0  0  0  0  1  0  0  0  0  0  0
  1 17  1  0  0  0  0
  2 15  2  0  0  0  0
  2 12  1  0  0  0  0
  3 15  1  0  0  0  0
  4 21  1  1  0  0  0
  4  6  1  0  0  0  0
  4  5  1  0  0  0  0
  5  1  1  0  0  0  0
  6  8  1  6  0  0  0
  6 10  1  0  0  0  0
  7 11  1  0  0  0  0
  8  7  1  0  0  0  0
  9  3  2  0  0  0  0
 10  1  2  0  0  0  0
 10  9  1  0  0  0  0
 11  9  1  0  0  0  0
 13 12  2  0  0  0  0
 13 18  1  0  0  0  0
 14 13  1  0  0  0  0
 16 14  2  0  0  0  0
 17 16  1  6  0  0  0
 17  2  1  0  0  0  0
 18 20  2  0  0  0  0
 18 19  1  0  0  0  0
 23 33  1  0  0  0  0
 24 29  1  1  0  0  0
 24 26  1  0  0  0  0
 25 24  1  0  0  0  0
 26 32  1  1  0  0  0
 27 25  1  0  0  0  0
 28 31  1  0  0  0  0
 28 26  1  0  0  0  0
 28 22  1  1  0  0  0
 30 25  1  0  0  0  0
 31 30  1  6  0  0  0
 31 23  1  0  0  0  0
 33 22  1  0  0  0  0
 33 21  1  1  0  0  0
 34 22  1  0  0  0  0
M  END
>  <MODEL>
8

>  <REMARK>
 VINA RESULT:      -7.2      4.860      9.729
  Name = 
  3 active torsions:
  status: ('A' for Active; 'I' for Inactive)
    1  A    between atoms: C_3  and  C_25
    2  A    between atoms: C_8  and  C_18
    3  A    between atoms: C_18  and  C_30
                            x       y       z     vdW  Elec       q    Type
                         _______ _______ _______ _____ _____    ______ ____

>  <TORSDO>
F 3

$$$$
=
 OpenBabel11062409513D

 34 39  0  0  1  0  0  0  0  0999 V2000
  161.0210  211.4890  150.4910 C   0  0  0  0  0  0  0  0  0  0  0  0
  159.4250  213.0450  151.6560 C   0  0  0  0  0  0  0  0  0  0  0  0
  160.4380  214.4530  149.8290 C   0  0  0  0  0  3  0  0  0  0  0  0
  162.0590  209.9780  149.1010 C   0  0  2  0  0  3  0  0  0  0  0  0
  161.3850  210.1590  150.3420 O   0  0  0  0  0  0  0  0  0  0  0  0
  161.8310  211.2800  148.3290 C   0  0  2  0  0  3  0  0  0  0  0  0
  162.7050  213.0420  147.2170 C   0  0  0  0  0  2  0  0  0  0  0  0
  163.0440  211.8490  147.8960 O   0  0  0  0  0  0  0  0  0  0  0  0
  161.2550  213.6080  149.1930 C   0  0  0  0  0  0  0  0  0  0  0  0
  161.2330  212.1530  149.3740 C   0  0  0  0  0  0  0  0  0  0  0  0
  162.2560  214.1410  148.2050 C   0  0  0  0  0  2  0  0  0  0  0  0
  158.2870  212.8970  152.5770 C   0  0  0  0  0  3  0  0  0  0  0  0
  158.2760  211.9630  153.5340 C   0  0  0  0  0  0  0  0  0  0  0  0
  159.4200  211.0430  153.6890 C   0  0  0  0  0  3  0  0  0  0  0  0
  159.4100  214.0960  150.8300 C   0  0  0  0  0  3  0  0  0  0  0  0
  160.4890  211.1070  152.8930 C   0  0  0  0  0  3  0  0  0  0  0  0
  160.6240  212.1270  151.7890 C   0  0  1  0  0  3  0  0  0  0  0  0
  157.1160  211.8350  154.4310 C   0  0  0  0  0  0  0  0  0  0  0  0
  157.1110  210.9820  155.3590 O   0  0  0  0  0  1  0  0  0  0  0  0
  156.0100  212.6600  154.2630 O   0  0  0  0  0  0  0  0  0  0  0  0
  161.5940  208.7310  148.3390 C   0  0  0  0  0  2  0  0  0  0  0  0
  161.7580  206.7740  149.8770 N   0  0  0  0  0  0  0  0  0  0  0  0
  162.3130  206.5010  147.5770 O   0  0  0  0  0  0  0  0  0  0  0  0
  161.1430  203.0340  149.5560 C   0  0  1  0  0  3  0  0  0  0  0  0
  161.0420  203.0610  148.0780 N   0  0  0  0  0  0  0  0  0  0  0  0
  160.9240  204.4270  150.1930 C   0  0  1  0  0  3  0  0  0  0  0  0
  161.4620  201.8570  147.6220 O   0  0  0  0  0  1  0  0  0  0  0  0
  161.8800  205.3890  149.5120 C   0  0  1  0  0  3  0  0  0  0  0  0
  160.1530  202.0390  150.1420 C   0  0  0  0  0  1  0  0  0  0  0  0
  161.9560  204.0600  147.5010 C   0  0  0  0  0  2  0  0  0  0  0  0
  161.5900  205.4140  148.0650 C   0  0  2  0  0  3  0  0  0  0  0  0
  159.6160  204.8450  150.0260 F   0  0  0  0  0  0  0  0  0  0  0  0
  162.3020  207.4090  148.6690 C   0  0  1  0  0  3  0  0  0  0  0  0
  162.7070  207.0170  150.9490 C   0  0  0  0  0  1  0  0  0  0  0  0
  1 17  1  0  0  0  0
  2 17  1  0  0  0  0
  2 12  1  0  0  0  0
  3 15  1  0  0  0  0
  4 21  1  6  0  0  0
  4  5  1  0  0  0  0
  5  1  1  0  0  0  0
  6  8  1  1  0  0  0
  6  4  1  0  0  0  0
  6 10  1  0  0  0  0
  7  8  1  0  0  0  0
  7 11  1  0  0  0  0
  9 10  1  0  0  0  0
  9  3  2  0  0  0  0
 10  1  2  0  0  0  0
 11  9  1  0  0  0  0
 12 13  2  0  0  0  0
 13 14  1  0  0  0  0
 13 18  1  0  0  0  0
 15  2  2  0  0  0  0
 16 14  2  0  0  0  0
 17 16  1  1  0  0  0
 18 19  1  0  0  0  0
 20 18  2  0  0  0  0
 22 34  1  0  0  0  0
 23 31  1  0  0  0  0
 23 33  1  0  0  0  0
 24 29  1  1  0  0  0
 24 26  1  0  0  0  0
 25 24  1  0  0  0  0
 26 32  1  6  0  0  0
 27 25  1  0  0  0  0
 28 22  1  1  0  0  0
 28 26  1  0  0  0  0
 30 25  1  0  0  0  0
 31 30  1  6  0  0  0
 31 28  1  0  0  0  0
 33 21  1  6  0  0  0
 33 22  1  0  0  0  0
M  END
>  <MODEL>
9

>  <REMARK>
 VINA RESULT:      -7.1      3.849      9.399
  Name = 
  3 active torsions:
  status: ('A' for Active; 'I' for Inactive)
    1  A    between atoms: C_3  and  C_25
    2  A    between atoms: C_8  and  C_18
    3  A    between atoms: C_18  and  C_30
                            x       y       z     vdW  Elec       q    Type
                         _______ _______ _______ _____ _____    ______ ____

>  <TORSDO>
F 3

$$$$
