=
 OpenBabel11062409403D

 34 39  0  0  1  0  0  0  0  0999 V2000
  159.2460  210.2480  155.3660 C   0  0  1  0  0  3  0  0  0  0  0  0
  157.3060  212.9770  157.1820 C   0  0  0  0  0  2  0  0  0  0  0  0
  159.7760  212.3050  157.1880 C   0  0  0  0  0  3  0  0  0  0  0  0
  160.8100  209.3570  154.0860 N   0  0  0  0  0  0  0  0  0  0  0  0
  159.4900  209.8240  154.1650 N   0  0  0  0  0  2  0  0  0  0  0  0
  162.7250  210.1010  155.4250 C   0  0  0  0  0  2  0  0  0  0  0  0
  163.1050  210.9930  156.5550 C   0  0  0  0  0  3  0  0  0  0  0  0
  161.4490  209.7050  155.3080 C   0  0  1  0  0  3  0  0  0  0  0  0
  160.7430  211.4110  156.9370 C   0  0  0  0  0  0  0  0  0  0  0  0
  160.4060  210.1050  156.2830 C   0  0  1  0  0  3  0  0  0  0  0  0
  162.1620  211.6470  157.2610 C   0  0  0  0  0  3  0  0  0  0  0  0
  156.7880  213.8420  156.1300 N   0  0  0  0  0  0  0  0  0  0  0  0
  156.1610  213.4290  155.0690 C   0  0  0  0  0  0  0  0  0  0  0  0
  155.9780  211.9850  154.7650 C   0  0  0  0  0  3  0  0  0  0  0  0
  158.3920  212.0970  156.6650 C   0  0  0  0  0  0  0  0  0  0  0  0
  156.8370  211.0010  155.0470 C   0  0  0  0  0  3  0  0  0  0  0  0
  158.1410  211.1530  155.7260 C   0  0  0  0  0  0  0  0  0  0  0  0
  155.6340  214.3930  154.2040 O   0  0  0  0  0  0  0  0  0  0  0  0
  155.8520  214.3840  152.7970 C   0  0  0  0  0  2  0  0  0  0  0  0
  157.3380  214.4490  152.4990 C   0  0  0  0  0  1  0  0  0  0  0  0
  161.5000  209.1650  152.8170 C   0  0  0  0  0  2  0  0  0  0  0  0
  161.2570  205.3850  152.8630 C   0  0  0  0  0  3  0  0  0  0  0  0
  161.2420  207.4740  150.9900 C   0  0  0  0  0  3  0  0  0  0  0  0
  160.9130  203.4840  149.7000 C   0  0  0  0  0  0  0  0  0  0  0  0
  161.0290  203.7740  151.0680 C   0  0  0  0  0  3  0  0  0  0  0  0
  161.1390  205.0970  151.5010 C   0  0  0  0  0  0  0  0  0  0  0  0
  161.0160  205.8620  149.1960 C   0  0  0  0  0  3  0  0  0  0  0  0
  161.1320  206.1500  150.5580 C   0  0  0  0  0  0  0  0  0  0  0  0
  160.9070  204.5350  148.7690 C   0  0  0  0  0  3  0  0  0  0  0  0
  161.3540  207.7560  152.3570 C   0  0  0  0  0  0  0  0  0  0  0  0
  161.3670  206.7120  153.2890 C   0  0  0  0  0  3  0  0  0  0  0  0
  160.7980  202.0870  149.2500 C   0  0  0  0  0  0  0  0  0  0  0  0
  160.7860  201.1460  150.0870 O   0  0  0  0  0  1  0  0  0  0  0  0
  160.7010  201.7940  147.8940 O   0  0  0  0  0  0  0  0  0  0  0  0
  1  5  1  6  0  0  0
  1 17  1  0  0  0  0
  1 10  1  0  0  0  0
  4  5  1  0  0  0  0
  4  8  1  0  0  0  0
  6  7  1  0  0  0  0
  7 11  2  0  0  0  0
  8  6  1  6  0  0  0
  8 10  1  0  0  0  0
  9  3  2  0  0  0  0
  9 11  1  0  0  0  0
 10  9  1  6  0  0  0
 12  2  1  0  0  0  0
 13 12  2  0  0  0  0
 14 16  2  0  0  0  0
 14 13  1  0  0  0  0
 15  2  1  0  0  0  0
 15  3  1  0  0  0  0
 16 17  1  0  0  0  0
 17 15  2  0  0  0  0
 18 13  1  0  0  0  0
 19 18  1  0  0  0  0
 20 19  1  0  0  0  0
 21  4  1  0  0  0  0
 22 31  1  0  0  0  0
 23 30  1  0  0  0  0
 24 25  2  0  0  0  0
 25 26  1  0  0  0  0
 26 22  2  0  0  0  0
 27 28  1  0  0  0  0
 28 23  2  0  0  0  0
 28 26  1  0  0  0  0
 29 27  2  0  0  0  0
 29 24  1  0  0  0  0
 30 21  1  0  0  0  0
 30 31  2  0  0  0  0
 32 24  1  0  0  0  0
 32 33  1  0  0  0  0
 34 32  2  0  0  0  0
M  END
>  <MODEL>
1

>  <REMARK>
 VINA RESULT:      -8.7      0.000      0.000
  Name = 
  5 active torsions:
  status: ('A' for Active; 'I' for Inactive)
    1  A    between atoms: O_3  and  C_13
    2  A    between atoms: O_3  and  C_25
    3  A    between atoms: C_7  and  C_11
    4  A    between atoms: N_8  and  C_18
    5  A    between atoms: C_18  and  C_30
                            x       y       z     vdW  Elec       q    Type
                         _______ _______ _______ _____ _____    ______ ____

>  <TORSDO>
F 5

$$$$
=
 OpenBabel11062409403D

 34 39  0  0  1  0  0  0  0  0999 V2000
  162.0960  209.4480  150.0900 C   0  0  1  0  0  3  0  0  0  0  0  0
  161.5020  205.6850  150.1440 C   0  0  0  0  0  2  0  0  0  0  0  0
  160.7230  207.5890  151.6680 C   0  0  0  0  0  3  0  0  0  0  0  0
  161.5900  211.5980  150.0690 N   0  0  0  0  0  0  0  0  0  0  0  0
  161.9460  210.4730  149.3100 N   0  0  0  0  0  2  0  0  0  0  0  0
  160.3780  211.6220  152.2000 C   0  0  0  0  0  2  0  0  0  0  0  0
  159.8030  210.7310  153.2460 C   0  0  0  0  0  3  0  0  0  0  0  0
  161.3370  211.1450  151.3930 C   0  0  1  0  0  3  0  0  0  0  0  0
  160.8420  208.8450  152.1220 C   0  0  0  0  0  0  0  0  0  0  0  0
  161.8630  209.7650  151.5230 C   0  0  1  0  0  3  0  0  0  0  0  0
  159.9960  209.3990  153.1950 C   0  0  0  0  0  3  0  0  0  0  0  0
  160.7800  205.3950  148.9130 N   0  0  0  0  0  0  0  0  0  0  0  0
  161.1270  205.8120  147.7310 C   0  0  0  0  0  0  0  0  0  0  0  0
  162.2790  206.7270  147.5170 C   0  0  0  0  0  3  0  0  0  0  0  0
  161.4690  207.1430  150.4530 C   0  0  0  0  0  0  0  0  0  0  0  0
  162.6860  207.6960  148.3430 C   0  0  0  0  0  3  0  0  0  0  0  0
  162.0720  208.0460  149.6410 C   0  0  0  0  0  0  0  0  0  0  0  0
  160.3870  205.3600  146.6340 O   0  0  0  0  0  0  0  0  0  0  0  0
  160.4180  205.9870  145.3570 C   0  0  0  0  0  2  0  0  0  0  0  0
  161.1760  205.1220  144.3680 C   0  0  0  0  0  1  0  0  0  0  0  0
  160.9990  212.7900  149.4750 C   0  0  0  0  0  2  0  0  0  0  0  0
  162.8370  213.3490  146.2090 C   0  0  0  0  0  3  0  0  0  0  0  0
  160.3090  212.5050  147.0860 C   0  0  0  0  0  3  0  0  0  0  0  0
  161.1440  212.7390  142.9700 C   0  0  0  0  0  0  0  0  0  0  0  0
  162.1290  213.0810  143.9080 C   0  0  0  0  0  3  0  0  0  0  0  0
  161.8560  213.0060  145.2760 C   0  0  0  0  0  0  0  0  0  0  0  0
  159.6020  212.2390  144.7840 C   0  0  0  0  0  3  0  0  0  0  0  0
  160.5830  212.5800  145.7180 C   0  0  0  0  0  0  0  0  0  0  0  0
  159.8810  212.3180  143.4170 C   0  0  0  0  0  3  0  0  0  0  0  0
  161.2980  212.8440  148.0160 C   0  0  0  0  0  0  0  0  0  0  0  0
  162.5570  213.2710  147.5770 C   0  0  0  0  0  3  0  0  0  0  0  0
  161.4370  212.8220  141.5300 C   0  0  0  0  0  0  0  0  0  0  0  0
  161.0170  213.7940  140.8480 O   0  0  0  0  0  0  0  0  0  0  0  0
  162.1810  211.8250  140.9090 O   0  0  0  0  0  1  0  0  0  0  0  0
  1  5  1  6  0  0  0
  1 10  1  0  0  0  0
  2 15  1  0  0  0  0
  3  9  2  0  0  0  0
  4  8  1  0  0  0  0
  5  4  1  0  0  0  0
  6  7  1  0  0  0  0
  8 10  1  0  0  0  0
  8  6  1  6  0  0  0
  9 11  1  0  0  0  0
 10  9  1  6  0  0  0
 11  7  2  0  0  0  0
 12  2  1  0  0  0  0
 13 12  2  0  0  0  0
 14 13  1  0  0  0  0
 14 16  2  0  0  0  0
 15  3  1  0  0  0  0
 16 17  1  0  0  0  0
 17  1  1  0  0  0  0
 17 15  2  0  0  0  0
 18 13  1  0  0  0  0
 19 18  1  0  0  0  0
 20 19  1  0  0  0  0
 21  4  1  0  0  0  0
 22 31  1  0  0  0  0
 23 30  1  0  0  0  0
 24 29  1  0  0  0  0
 24 25  2  0  0  0  0
 25 26  1  0  0  0  0
 26 28  1  0  0  0  0
 26 22  2  0  0  0  0
 27 28  1  0  0  0  0
 28 23  2  0  0  0  0
 29 27  2  0  0  0  0
 30 21  1  0  0  0  0
 31 30  2  0  0  0  0
 32 24  1  0  0  0  0
 33 32  2  0  0  0  0
 34 32  1  0  0  0  0
M  END
>  <MODEL>
2

>  <REMARK>
 VINA RESULT:      -7.9      6.114      9.326
  Name = 
  5 active torsions:
  status: ('A' for Active; 'I' for Inactive)
    1  A    between atoms: O_3  and  C_13
    2  A    between atoms: O_3  and  C_25
    3  A    between atoms: C_7  and  C_11
    4  A    between atoms: N_8  and  C_18
    5  A    between atoms: C_18  and  C_30
                            x       y       z     vdW  Elec       q    Type
                         _______ _______ _______ _____ _____    ______ ____

>  <TORSDO>
F 5

$$$$
=
 OpenBabel11062409403D

 34 39  0  0  1  0  0  0  0  0999 V2000
  161.3470  210.0690  152.5140 C   0  0  1  0  0  3  0  0  0  0  0  0
  161.7240  206.3260  151.9190 C   0  0  0  0  0  2  0  0  0  0  0  0
  160.7270  207.6870  153.8440 C   0  0  0  0  0  3  0  0  0  0  0  0
  160.3250  211.9780  152.9490 N   0  0  0  0  0  0  0  0  0  0  0  0
  160.8350  211.1240  151.9600 N   0  0  0  0  0  2  0  0  0  0  0  0
  159.4700  211.3420  155.1570 C   0  0  0  0  0  2  0  0  0  0  0  0
  159.2940  210.1780  156.0690 C   0  0  0  0  0  3  0  0  0  0  0  0
  160.3890  211.2740  154.1830 C   0  0  1  0  0  3  0  0  0  0  0  0
  160.5940  208.8420  154.5120 C   0  0  0  0  0  0  0  0  0  0  0  0
  161.2550  210.0850  153.9970 C   0  0  1  0  0  3  0  0  0  0  0  0
  159.8030  208.9720  155.7490 C   0  0  0  0  0  3  0  0  0  0  0  0
  160.9250  206.0460  150.7340 N   0  0  0  0  0  0  0  0  0  0  0  0
  160.9810  206.7190  149.6230 C   0  0  0  0  0  0  0  0  0  0  0  0
  161.8250  207.9330  149.4710 C   0  0  0  0  0  3  0  0  0  0  0  0
  161.3740  207.6540  152.4980 C   0  0  0  0  0  0  0  0  0  0  0  0
  162.0940  208.8360  150.4190 C   0  0  0  0  0  3  0  0  0  0  0  0
  161.6090  208.8010  151.8150 C   0  0  0  0  0  0  0  0  0  0  0  0
  160.2240  206.2590  148.5400 O   0  0  0  0  0  0  0  0  0  0  0  0
  160.7590  206.0770  147.2340 C   0  0  0  0  0  2  0  0  0  0  0  0
  161.6020  204.8160  147.1860 C   0  0  0  0  0  1  0  0  0  0  0  0
  159.3750  213.0430  152.6520 C   0  0  0  0  0  2  0  0  0  0  0  0
  157.8250  213.4090  149.2140 C   0  0  0  0  0  3  0  0  0  0  0  0
  160.3770  213.2840  150.3720 C   0  0  0  0  0  3  0  0  0  0  0  0
  159.9690  213.6920  146.2050 C   0  0  0  0  0  0  0  0  0  0  0  0
  158.8300  213.6190  147.0200 C   0  0  0  0  0  3  0  0  0  0  0  0
  158.9600  213.4830  148.4040 C   0  0  0  0  0  0  0  0  0  0  0  0
  161.3810  213.4930  148.1760 C   0  0  0  0  0  3  0  0  0  0  0  0
  160.2460  213.4200  148.9870 C   0  0  0  0  0  0  0  0  0  0  0  0
  161.2430  213.6270  146.7920 C   0  0  0  0  0  3  0  0  0  0  0  0
  159.2360  213.2160  151.1790 C   0  0  0  0  0  0  0  0  0  0  0  0
  157.9630  213.2730  150.5990 C   0  0  0  0  0  3  0  0  0  0  0  0
  159.8250  213.8340  144.7470 C   0  0  0  0  0  0  0  0  0  0  0  0
  160.7090  214.4260  144.0730 O   0  0  0  0  0  0  0  0  0  0  0  0
  158.7090  213.3150  144.1010 O   0  0  0  0  0  1  0  0  0  0  0  0
  1 17  1  6  0  0  0
  1 10  1  0  0  0  0
  2 15  1  0  0  0  0
  3  9  2  0  0  0  0
  4  8  1  0  0  0  0
  5  1  1  0  0  0  0
  5  4  1  0  0  0  0
  6  7  1  0  0  0  0
  8  6  1  6  0  0  0
  9 11  1  0  0  0  0
 10  8  1  0  0  0  0
 10  9  1  6  0  0  0
 11  7  2  0  0  0  0
 12  2  1  0  0  0  0
 13 12  2  0  0  0  0
 14 13  1  0  0  0  0
 14 16  2  0  0  0  0
 15  3  1  0  0  0  0
 16 17  1  0  0  0  0
 17 15  2  0  0  0  0
 18 13  1  0  0  0  0
 19 18  1  0  0  0  0
 20 19  1  0  0  0  0
 21  4  1  0  0  0  0
 22 31  1  0  0  0  0
 23 30  1  0  0  0  0
 24 29  1  0  0  0  0
 24 25  2  0  0  0  0
 25 26  1  0  0  0  0
 26 28  1  0  0  0  0
 26 22  2  0  0  0  0
 27 28  1  0  0  0  0
 28 23  2  0  0  0  0
 29 27  2  0  0  0  0
 30 21  1  0  0  0  0
 31 30  2  0  0  0  0
 32 24  1  0  0  0  0
 33 32  2  0  0  0  0
 34 32  1  0  0  0  0
M  END
>  <MODEL>
3

>  <REMARK>
 VINA RESULT:      -7.7      4.366      8.235
  Name = 
  5 active torsions:
  status: ('A' for Active; 'I' for Inactive)
    1  A    between atoms: O_3  and  C_13
    2  A    between atoms: O_3  and  C_25
    3  A    between atoms: C_7  and  C_11
    4  A    between atoms: N_8  and  C_18
    5  A    between atoms: C_18  and  C_30
                            x       y       z     vdW  Elec       q    Type
                         _______ _______ _______ _____ _____    ______ ____

>  <TORSDO>
F 5

$$$$
=
 OpenBabel11062409403D

 34 39  0  0  1  0  0  0  0  0999 V2000
  161.3460  210.0420  152.5620 C   0  0  1  0  0  3  0  0  0  0  0  0
  161.8310  206.2680  152.7460 C   0  0  0  0  0  2  0  0  0  0  0  0
  160.6740  207.9480  154.2930 C   0  0  0  0  0  3  0  0  0  0  0  0
  160.2610  211.9660  152.5420 N   0  0  0  0  0  0  0  0  0  0  0  0
  160.8550  210.9510  151.7780 N   0  0  0  0  0  2  0  0  0  0  0  0
  159.2620  211.7480  154.7710 C   0  0  0  0  0  2  0  0  0  0  0  0
  159.0430  210.7800  155.8810 C   0  0  0  0  0  3  0  0  0  0  0  0
  160.2490  211.5190  153.8930 C   0  0  1  0  0  3  0  0  0  0  0  0
  160.4740  209.2070  154.7080 C   0  0  0  0  0  0  0  0  0  0  0  0
  161.1480  210.3450  154.0040 C   0  0  1  0  0  3  0  0  0  0  0  0
  159.5940  209.5520  155.8400 C   0  0  0  0  0  3  0  0  0  0  0  0
  161.1240  205.7360  151.5890 N   0  0  0  0  0  0  0  0  0  0  0  0
  161.2460  206.1800  150.3730 C   0  0  0  0  0  0  0  0  0  0  0  0
  162.0770  207.3670  150.0400 C   0  0  0  0  0  3  0  0  0  0  0  0
  161.4170  207.6720  153.0260 C   0  0  0  0  0  0  0  0  0  0  0  0
  162.2620  208.4460  150.8070 C   0  0  0  0  0  3  0  0  0  0  0  0
  161.6790  208.6700  152.1470 C   0  0  0  0  0  0  0  0  0  0  0  0
  160.5770  205.4930  149.3540 O   0  0  0  0  0  0  0  0  0  0  0  0
  160.8670  204.1460  148.9990 C   0  0  0  0  0  2  0  0  0  0  0  0
  161.6400  204.1050  147.6940 C   0  0  0  0  0  1  0  0  0  0  0  0
  159.3160  212.9220  151.9780 C   0  0  0  0  0  2  0  0  0  0  0  0
  158.7990  213.6790  148.3020 C   0  0  0  0  0  3  0  0  0  0  0  0
  160.8740  212.8960  150.0200 C   0  0  0  0  0  3  0  0  0  0  0  0
  161.6160  213.3990  145.9110 C   0  0  0  0  0  0  0  0  0  0  0  0
  160.3310  213.6230  146.4260 C   0  0  0  0  0  3  0  0  0  0  0  0
  160.0800  213.4580  147.7900 C   0  0  0  0  0  0  0  0  0  0  0  0
  162.4050  212.8390  148.1430 C   0  0  0  0  0  3  0  0  0  0  0  0
  161.1250  213.0630  148.6560 C   0  0  0  0  0  0  0  0  0  0  0  0
  162.6490  213.0060  146.7770 C   0  0  0  0  0  3  0  0  0  0  0  0
  159.5900  213.1260  150.5280 C   0  0  0  0  0  0  0  0  0  0  0  0
  158.5550  213.5110  149.6690 C   0  0  0  0  0  3  0  0  0  0  0  0
  161.8740  213.5750  144.4720 C   0  0  0  0  0  0  0  0  0  0  0  0
  161.1240  214.3070  143.7740 O   0  0  0  0  0  0  0  0  0  0  0  0
  162.9500  212.9310  143.8700 O   0  0  0  0  0  1  0  0  0  0  0  0
  1  5  1  6  0  0  0
  1 10  1  0  0  0  0
  2 15  1  0  0  0  0
  3  9  2  0  0  0  0
  4  8  1  0  0  0  0
  5  4  1  0  0  0  0
  6  7  1  0  0  0  0
  8 10  1  0  0  0  0
  8  6  1  6  0  0  0
  9 11  1  0  0  0  0
 10  9  1  1  0  0  0
 11  7  2  0  0  0  0
 12  2  1  0  0  0  0
 13 12  2  0  0  0  0
 14 13  1  0  0  0  0
 14 16  2  0  0  0  0
 15  3  1  0  0  0  0
 16 17  1  0  0  0  0
 17  1  1  0  0  0  0
 17 15  2  0  0  0  0
 18 13  1  0  0  0  0
 19 18  1  0  0  0  0
 20 19  1  0  0  0  0
 21  4  1  0  0  0  0
 22 31  1  0  0  0  0
 23 30  1  0  0  0  0
 24 25  2  0  0  0  0
 24 29  1  0  0  0  0
 25 26  1  0  0  0  0
 26 22  2  0  0  0  0
 26 28  1  0  0  0  0
 27 28  1  0  0  0  0
 28 23  2  0  0  0  0
 29 27  2  0  0  0  0
 30 21  1  0  0  0  0
 31 30  2  0  0  0  0
 32 24  1  0  0  0  0
 33 32  2  0  0  0  0
 34 32  1  0  0  0  0
M  END
>  <MODEL>
4

>  <REMARK>
 VINA RESULT:      -7.7      4.740      8.237
  Name = 
  5 active torsions:
  status: ('A' for Active; 'I' for Inactive)
    1  A    between atoms: O_3  and  C_13
    2  A    between atoms: O_3  and  C_25
    3  A    between atoms: C_7  and  C_11
    4  A    between atoms: N_8  and  C_18
    5  A    between atoms: C_18  and  C_30
                            x       y       z     vdW  Elec       q    Type
                         _______ _______ _______ _____ _____    ______ ____

>  <TORSDO>
F 5

$$$$
=
 OpenBabel11062409403D

 34 39  0  0  1  0  0  0  0  0999 V2000
  159.6940  213.7160  149.6680 C   0  0  1  0  0  3  0  0  0  0  0  0
  156.4100  214.0990  151.5600 C   0  0  0  0  0  2  0  0  0  0  0  0
  156.9630  213.3600  149.1720 C   0  0  0  0  0  3  0  0  0  0  0  0
  161.2620  212.7190  148.4740 N   0  0  0  0  0  0  0  0  0  0  0  0
  160.8320  213.1000  149.7540 N   0  0  0  0  0  2  0  0  0  0  0  0
  159.8560  212.2150  146.5290 C   0  0  0  0  0  2  0  0  0  0  0  0
  158.4430  212.2050  146.0600 C   0  0  0  0  0  3  0  0  0  0  0  0
  160.1890  212.9820  147.5770 C   0  0  1  0  0  3  0  0  0  0  0  0
  157.8120  213.2970  148.1360 C   0  0  0  0  0  0  0  0  0  0  0  0
  159.2020  213.8420  148.2720 C   0  0  1  0  0  3  0  0  0  0  0  0
  157.4570  212.6930  146.8390 C   0  0  0  0  0  3  0  0  0  0  0  0
  156.4870  213.1420  152.6550 N   0  0  0  0  0  0  0  0  0  0  0  0
  157.4980  213.0160  153.4630 C   0  0  0  0  0  0  0  0  0  0  0  0
  158.7520  213.7970  153.2960 C   0  0  0  0  0  3  0  0  0  0  0  0
  157.4350  213.8030  150.5190 C   0  0  0  0  0  0  0  0  0  0  0  0
  159.2990  214.1790  152.1370 C   0  0  0  0  0  3  0  0  0  0  0  0
  158.7590  213.9050  150.7890 C   0  0  0  0  0  0  0  0  0  0  0  0
  157.3750  212.1210  154.5310 O   0  0  0  0  0  0  0  0  0  0  0  0
  156.1770  211.9600  155.2820 C   0  0  0  0  0  2  0  0  0  0  0  0
  155.5810  210.5880  155.0250 C   0  0  0  0  0  1  0  0  0  0  0  0
  162.2910  211.7090  148.2610 C   0  0  0  0  0  2  0  0  0  0  0  0
  161.8510  209.5570  151.3480 C   0  0  0  0  0  3  0  0  0  0  0  0
  161.8320  209.2670  148.5570 C   0  0  0  0  0  3  0  0  0  0  0  0
  161.2110  205.9210  151.0300 C   0  0  0  0  0  0  0  0  0  0  0  0
  161.4270  207.1850  151.5980 C   0  0  0  0  0  3  0  0  0  0  0  0
  161.6330  208.2990  150.7810 C   0  0  0  0  0  0  0  0  0  0  0  0
  161.4090  206.8940  148.8090 C   0  0  0  0  0  3  0  0  0  0  0  0
  161.6240  208.1530  149.3750 C   0  0  0  0  0  0  0  0  0  0  0  0
  161.2040  205.7840  149.6330 C   0  0  0  0  0  3  0  0  0  0  0  0
  162.0420  210.5260  149.1310 C   0  0  0  0  0  0  0  0  0  0  0  0
  162.0570  210.6680  150.5240 C   0  0  0  0  0  3  0  0  0  0  0  0
  160.9940  204.7510  151.8960 C   0  0  0  0  0  0  0  0  0  0  0  0
  161.2060  204.8270  153.1360 O   0  0  0  0  0  1  0  0  0  0  0  0
  160.5540  203.5490  151.3530 O   0  0  0  0  0  0  0  0  0  0  0  0
  1  5  1  6  0  0  0
  1 17  1  0  0  0  0
  2 12  1  0  0  0  0
  3 15  1  0  0  0  0
  4  5  1  0  0  0  0
  7  6  1  0  0  0  0
  7 11  2  0  0  0  0
  8  6  1  1  0  0  0
  8 10  1  0  0  0  0
  8  4  1  0  0  0  0
  9  3  2  0  0  0  0
 10  9  1  1  0  0  0
 10  1  1  0  0  0  0
 11  9  1  0  0  0  0
 12 13  2  0  0  0  0
 13 18  1  0  0  0  0
 14 13  1  0  0  0  0
 15 17  2  0  0  0  0
 15  2  1  0  0  0  0
 16 14  2  0  0  0  0
 17 16  1  0  0  0  0
 18 19  1  0  0  0  0
 20 19  1  0  0  0  0
 21  4  1  0  0  0  0
 21 30  1  0  0  0  0
 23 30  2  0  0  0  0
 23 28  1  0  0  0  0
 24 25  1  0  0  0  0
 24 32  1  0  0  0  0
 26 22  1  0  0  0  0
 26 25  2  0  0  0  0
 27 28  2  0  0  0  0
 27 29  1  0  0  0  0
 28 26  1  0  0  0  0
 29 24  2  0  0  0  0
 30 31  1  0  0  0  0
 31 22  2  0  0  0  0
 32 33  1  0  0  0  0
 34 32  2  0  0  0  0
M  END
>  <MODEL>
5

>  <REMARK>
 VINA RESULT:      -7.6      3.625      5.918
  Name = 
  5 active torsions:
  status: ('A' for Active; 'I' for Inactive)
    1  A    between atoms: O_3  and  C_13
    2  A    between atoms: O_3  and  C_25
    3  A    between atoms: C_7  and  C_11
    4  A    between atoms: N_8  and  C_18
    5  A    between atoms: C_18  and  C_30
                            x       y       z     vdW  Elec       q    Type
                         _______ _______ _______ _____ _____    ______ ____

>  <TORSDO>
F 5

$$$$
=
 OpenBabel11062409403D

 34 39  0  0  1  0  0  0  0  0999 V2000
  161.9560  210.4740  149.3990 C   0  0  1  0  0  3  0  0  0  0  0  0
  161.9720  207.1290  151.2200 C   0  0  0  0  0  2  0  0  0  0  0  0
  161.0120  209.4260  151.8160 C   0  0  0  0  0  3  0  0  0  0  0  0
  161.1160  212.3000  148.4820 N   0  0  0  0  0  0  0  0  0  0  0  0
  161.5900  210.9970  148.2690 N   0  0  0  0  0  2  0  0  0  0  0  0
  160.0710  213.1810  150.5180 C   0  0  0  0  0  2  0  0  0  0  0  0
  159.7220  212.8220  151.9200 C   0  0  0  0  0  3  0  0  0  0  0  0
  161.0330  212.4900  149.8900 C   0  0  1  0  0  3  0  0  0  0  0  0
  160.9630  210.7540  151.6340 C   0  0  0  0  0  0  0  0  0  0  0  0
  161.7800  211.3940  150.5530 C   0  0  1  0  0  3  0  0  0  0  0  0
  160.1190  211.6480  152.4480 C   0  0  0  0  0  3  0  0  0  0  0  0
  161.2180  206.2240  150.3630 N   0  0  0  0  0  0  0  0  0  0  0  0
  161.4090  206.0790  149.0850 C   0  0  0  0  0  0  0  0  0  0  0  0
  162.3830  206.9070  148.3270 C   0  0  0  0  0  3  0  0  0  0  0  0
  161.7300  208.5500  150.8410 C   0  0  0  0  0  0  0  0  0  0  0  0
  162.6900  208.1870  148.5650 C   0  0  0  0  0  3  0  0  0  0  0  0
  162.1230  209.0310  149.6370 C   0  0  0  0  0  0  0  0  0  0  0  0
  160.6730  205.0920  148.4210 O   0  0  0  0  0  0  0  0  0  0  0  0
  161.2060  203.8190  148.0740 C   0  0  0  0  0  2  0  0  0  0  0  0
  160.8350  202.7920  149.1260 C   0  0  0  0  0  1  0  0  0  0  0  0
  160.3020  213.0080  147.5020 C   0  0  0  0  0  2  0  0  0  0  0  0
  162.8160  213.3740  144.6910 C   0  0  0  0  0  3  0  0  0  0  0  0
  160.2110  212.4040  145.0760 C   0  0  0  0  0  3  0  0  0  0  0  0
  161.9710  212.2650  141.2580 C   0  0  0  0  0  0  0  0  0  0  0  0
  162.6850  212.7950  142.3430 C   0  0  0  0  0  3  0  0  0  0  0  0
  162.1050  212.8440  143.6120 C   0  0  0  0  0  0  0  0  0  0  0  0
  160.0810  211.8270  142.7260 C   0  0  0  0  0  3  0  0  0  0  0  0
  160.7930  212.3550  143.8060 C   0  0  0  0  0  0  0  0  0  0  0  0
  160.6680  211.7830  141.4580 C   0  0  0  0  0  3  0  0  0  0  0  0
  160.9310  212.9310  146.1540 C   0  0  0  0  0  0  0  0  0  0  0  0
  162.2280  213.4200  145.9600 C   0  0  0  0  0  3  0  0  0  0  0  0
  162.5880  212.2170  139.9220 C   0  0  0  0  0  0  0  0  0  0  0  0
  162.4200  213.1630  139.1070 O   0  0  0  0  0  0  0  0  0  0  0  0
  163.3630  211.1250  139.5480 O   0  0  0  0  0  1  0  0  0  0  0  0
  1  5  1  6  0  0  0
  1 17  1  0  0  0  0
  1 10  1  0  0  0  0
  4  8  1  0  0  0  0
  5  4  1  0  0  0  0
  6  7  1  0  0  0  0
  7 11  2  0  0  0  0
  8  6  1  1  0  0  0
  8 10  1  0  0  0  0
  9  3  2  0  0  0  0
  9 11  1  0  0  0  0
 10  9  1  1  0  0  0
 12  2  1  0  0  0  0
 13 12  2  0  0  0  0
 14 16  2  0  0  0  0
 14 13  1  0  0  0  0
 15  2  1  0  0  0  0
 15  3  1  0  0  0  0
 16 17  1  0  0  0  0
 17 15  2  0  0  0  0
 18 13  1  0  0  0  0
 19 18  1  0  0  0  0
 19 20  1  0  0  0  0
 21  4  1  0  0  0  0
 22 31  1  0  0  0  0
 23 30  1  0  0  0  0
 24 29  1  0  0  0  0
 24 25  2  0  0  0  0
 25 26  1  0  0  0  0
 26 28  1  0  0  0  0
 26 22  2  0  0  0  0
 27 28  1  0  0  0  0
 28 23  2  0  0  0  0
 29 27  2  0  0  0  0
 30 21  1  0  0  0  0
 31 30  2  0  0  0  0
 32 24  1  0  0  0  0
 33 32  2  0  0  0  0
 34 32  1  0  0  0  0
M  END
>  <MODEL>
6

>  <REMARK>
 VINA RESULT:      -7.3      6.707      9.689
  Name = 
  5 active torsions:
  status: ('A' for Active; 'I' for Inactive)
    1  A    between atoms: O_3  and  C_13
    2  A    between atoms: O_3  and  C_25
    3  A    between atoms: C_7  and  C_11
    4  A    between atoms: N_8  and  C_18
    5  A    between atoms: C_18  and  C_30
                            x       y       z     vdW  Elec       q    Type
                         _______ _______ _______ _____ _____    ______ ____

>  <TORSDO>
F 5

$$$$
=
 OpenBabel11062409403D

 34 39  0  0  1  0  0  0  0  0999 V2000
  161.2930  210.2460  152.2810 C   0  0  1  0  0  3  0  0  0  0  0  0
  161.9500  206.4990  152.0850 C   0  0  0  0  0  2  0  0  0  0  0  0
  160.8310  207.9760  153.8510 C   0  0  0  0  0  3  0  0  0  0  0  0
  160.1280  212.1090  152.5070 N   0  0  0  0  0  0  0  0  0  0  0  0
  160.7120  211.1960  151.6160 N   0  0  0  0  0  2  0  0  0  0  0  0
  159.2940  211.6460  154.7650 C   0  0  0  0  0  2  0  0  0  0  0  0
  159.1920  210.5740  155.7930 C   0  0  0  0  0  3  0  0  0  0  0  0
  160.2280  211.5440  153.8080 C   0  0  1  0  0  3  0  0  0  0  0  0
  160.6060  209.1820  154.3920 C   0  0  0  0  0  0  0  0  0  0  0  0
  161.1810  210.4100  153.7530 C   0  0  1  0  0  3  0  0  0  0  0  0
  159.7910  209.3820  155.6050 C   0  0  0  0  0  3  0  0  0  0  0  0
  161.1890  206.0380  150.9320 N   0  0  0  0  0  0  0  0  0  0  0  0
  161.2100  206.5940  149.7570 C   0  0  0  0  0  0  0  0  0  0  0  0
  161.9650  207.8440  149.4820 C   0  0  0  0  0  3  0  0  0  0  0  0
  161.4960  207.8510  152.5190 C   0  0  0  0  0  0  0  0  0  0  0  0
  162.1550  208.8590  150.3310 C   0  0  0  0  0  3  0  0  0  0  0  0
  161.6560  208.9340  151.7200 C   0  0  0  0  0  0  0  0  0  0  0  0
  160.5030  205.9680  148.7240 O   0  0  0  0  0  0  0  0  0  0  0  0
  160.7710  206.1930  147.3450 C   0  0  0  0  0  2  0  0  0  0  0  0
  161.3520  204.9420  146.7140 C   0  0  0  0  0  1  0  0  0  0  0  0
  159.1070  213.0640  152.0940 C   0  0  0  0  0  2  0  0  0  0  0  0
  160.5080  214.2920  148.7950 C   0  0  0  0  0  3  0  0  0  0  0  0
  158.1850  213.0550  149.7680 C   0  0  0  0  0  3  0  0  0  0  0  0
  158.5280  213.9760  145.6780 C   0  0  0  0  0  0  0  0  0  0  0  0
  159.5750  214.2850  146.5590 C   0  0  0  0  0  3  0  0  0  0  0  0
  159.4660  213.9810  147.9180 C   0  0  0  0  0  0  0  0  0  0  0  0
  157.2530  213.0500  147.5310 C   0  0  0  0  0  3  0  0  0  0  0  0
  158.2960  213.3580  148.4080 C   0  0  0  0  0  0  0  0  0  0  0  0
  157.3690  213.3580  146.1730 C   0  0  0  0  0  3  0  0  0  0  0  0
  159.2360  213.3620  150.6400 C   0  0  0  0  0  0  0  0  0  0  0  0
  160.3910  213.9850  150.1540 C   0  0  0  0  0  3  0  0  0  0  0  0
  158.6490  214.3000  144.2470 C   0  0  0  0  0  0  0  0  0  0  0  0
  159.7840  214.4410  143.7190 O   0  0  0  0  0  1  0  0  0  0  0  0
  157.5100  214.4530  143.4650 O   0  0  0  0  0  0  0  0  0  0  0  0
  1  5  1  6  0  0  0
  1 10  1  0  0  0  0
  2 15  1  0  0  0  0
  3  9  2  0  0  0  0
  4  8  1  0  0  0  0
  5  4  1  0  0  0  0
  6  7  1  0  0  0  0
  8  6  1  6  0  0  0
  9 11  1  0  0  0  0
 10  8  1  0  0  0  0
 10  9  1  1  0  0  0
 11  7  2  0  0  0  0
 12  2  1  0  0  0  0
 13 12  2  0  0  0  0
 14 13  1  0  0  0  0
 14 16  2  0  0  0  0
 15  3  1  0  0  0  0
 16 17  1  0  0  0  0
 17  1  1  0  0  0  0
 17 15  2  0  0  0  0
 18 13  1  0  0  0  0
 19 18  1  0  0  0  0
 20 19  1  0  0  0  0
 21  4  1  0  0  0  0
 22 31  1  0  0  0  0
 23 30  1  0  0  0  0
 24 29  1  0  0  0  0
 24 25  2  0  0  0  0
 25 26  1  0  0  0  0
 26 28  1  0  0  0  0
 26 22  2  0  0  0  0
 27 28  1  0  0  0  0
 28 23  2  0  0  0  0
 29 27  2  0  0  0  0
 30 21  1  0  0  0  0
 31 30  2  0  0  0  0
 32 24  1  0  0  0  0
 33 32  1  0  0  0  0
 34 32  2  0  0  0  0
M  END
>  <MODEL>
7

>  <REMARK>
 VINA RESULT:      -7.3      4.444      8.526
  Name = 
  5 active torsions:
  status: ('A' for Active; 'I' for Inactive)
    1  A    between atoms: O_3  and  C_13
    2  A    between atoms: O_3  and  C_25
    3  A    between atoms: C_7  and  C_11
    4  A    between atoms: N_8  and  C_18
    5  A    between atoms: C_18  and  C_30
                            x       y       z     vdW  Elec       q    Type
                         _______ _______ _______ _____ _____    ______ ____

>  <TORSDO>
F 5

$$$$
=
 OpenBabel11062409403D

 34 39  0  0  1  0  0  0  0  0999 V2000
  159.3090  210.2400  156.2400 C   0  0  1  0  0  3  0  0  0  0  0  0
  158.9100  213.8670  155.1460 C   0  0  0  0  0  2  0  0  0  0  0  0
  160.8830  212.5500  156.1090 C   0  0  0  0  0  3  0  0  0  0  0  0
  160.1760  208.2090  156.3130 N   0  0  0  0  0  0  0  0  0  0  0  0
  159.1760  209.0350  155.7780 N   0  0  0  0  0  2  0  0  0  0  0  0
  162.4120  208.8860  157.0590 C   0  0  0  0  0  2  0  0  0  0  0  0
  163.2830  210.0760  157.2610 C   0  0  0  0  0  3  0  0  0  0  0  0
  161.0820  209.0520  157.0150 C   0  0  1  0  0  3  0  0  0  0  0  0
  161.3680  211.4840  156.7630 C   0  0  0  0  0  0  0  0  0  0  0  0
  160.4460  210.3800  157.1860 C   0  0  1  0  0  3  0  0  0  0  0  0
  162.7970  211.3210  157.0890 C   0  0  0  0  0  3  0  0  0  0  0  0
  158.6190  213.8050  153.7210 N   0  0  0  0  0  0  0  0  0  0  0  0
  157.7230  213.0360  153.1770 C   0  0  0  0  0  0  0  0  0  0  0  0
  156.9410  212.0470  153.9640 C   0  0  0  0  0  3  0  0  0  0  0  0
  159.4660  212.5730  155.6340 C   0  0  0  0  0  0  0  0  0  0  0  0
  157.3750  211.3540  155.0210 C   0  0  0  0  0  3  0  0  0  0  0  0
  158.7210  211.4410  155.6240 C   0  0  0  0  0  0  0  0  0  0  0  0
  157.4910  213.1700  151.8040 O   0  0  0  0  0  0  0  0  0  0  0  0
  157.2370  214.4200  151.1730 C   0  0  0  0  0  2  0  0  0  0  0  0
  155.9120  214.3730  150.4350 C   0  0  0  0  0  1  0  0  0  0  0  0
  160.5280  206.9220  155.7270 C   0  0  0  0  0  2  0  0  0  0  0  0
  160.9680  208.4750  152.2990 C   0  0  0  0  0  3  0  0  0  0  0  0
  160.8310  205.9210  153.4530 C   0  0  0  0  0  3  0  0  0  0  0  0
  161.3390  206.3320  149.2980 C   0  0  0  0  0  0  0  0  0  0  0  0
  161.2390  207.4710  150.1110 C   0  0  0  0  0  3  0  0  0  0  0  0
  161.0700  207.3400  151.4910 C   0  0  0  0  0  0  0  0  0  0  0  0
  161.1000  204.9190  151.2640 C   0  0  0  0  0  3  0  0  0  0  0  0
  161.0010  206.0540  152.0730 C   0  0  0  0  0  0  0  0  0  0  0  0
  161.2680  205.0580  149.8830 C   0  0  0  0  0  3  0  0  0  0  0  0
  160.7360  207.0620  154.2580 C   0  0  0  0  0  0  0  0  0  0  0  0
  160.7980  208.3350  153.6800 C   0  0  0  0  0  3  0  0  0  0  0  0
  161.5160  206.4780  147.8440 C   0  0  0  0  0  0  0  0  0  0  0  0
  162.4290  207.2130  147.3830 O   0  0  0  0  0  1  0  0  0  0  0  0
  160.6740  205.8050  146.9660 O   0  0  0  0  0  0  0  0  0  0  0  0
  1 17  1  6  0  0  0
  1 10  1  0  0  0  0
  2 15  1  0  0  0  0
  3  9  2  0  0  0  0
  4  8  1  0  0  0  0
  5  1  1  0  0  0  0
  5  4  1  0  0  0  0
  6  7  1  0  0  0  0
  8  6  1  6  0  0  0
  8 10  1  0  0  0  0
  9 11  1  0  0  0  0
 10  9  1  6  0  0  0
 11  7  2  0  0  0  0
 12  2  1  0  0  0  0
 13 12  2  0  0  0  0
 13 14  1  0  0  0  0
 14 16  2  0  0  0  0
 15  3  1  0  0  0  0
 16 17  1  0  0  0  0
 17 15  2  0  0  0  0
 18 13  1  0  0  0  0
 19 18  1  0  0  0  0
 20 19  1  0  0  0  0
 21  4  1  0  0  0  0
 22 31  1  0  0  0  0
 23 30  1  0  0  0  0
 24 29  1  0  0  0  0
 24 25  2  0  0  0  0
 25 26  1  0  0  0  0
 26 28  1  0  0  0  0
 26 22  2  0  0  0  0
 27 28  1  0  0  0  0
 28 23  2  0  0  0  0
 29 27  2  0  0  0  0
 30 21  1  0  0  0  0
 31 30  2  0  0  0  0
 32 24  1  0  0  0  0
 33 32  1  0  0  0  0
 34 32  2  0  0  0  0
M  END
>  <MODEL>
8

>  <REMARK>
 VINA RESULT:      -7.2      1.969      2.639
  Name = 
  5 active torsions:
  status: ('A' for Active; 'I' for Inactive)
    1  A    between atoms: O_3  and  C_13
    2  A    between atoms: O_3  and  C_25
    3  A    between atoms: C_7  and  C_11
    4  A    between atoms: N_8  and  C_18
    5  A    between atoms: C_18  and  C_30
                            x       y       z     vdW  Elec       q    Type
                         _______ _______ _______ _____ _____    ______ ____

>  <TORSDO>
F 5

$$$$
=
 OpenBabel11062409403D

 34 39  0  0  1  0  0  0  0  0999 V2000
  159.6540  213.9370  149.6230 C   0  0  1  0  0  3  0  0  0  0  0  0
  156.3790  214.2740  151.5380 C   0  0  0  0  0  2  0  0  0  0  0  0
  156.9300  213.4880  149.1650 C   0  0  0  0  0  3  0  0  0  0  0  0
  161.2400  212.9540  148.4390 N   0  0  0  0  0  0  0  0  0  0  0  0
  160.8110  213.3570  149.7130 N   0  0  0  0  0  2  0  0  0  0  0  0
  159.8300  212.3570  146.5230 C   0  0  0  0  0  2  0  0  0  0  0  0
  158.4140  212.2950  146.0690 C   0  0  0  0  0  3  0  0  0  0  0  0
  160.1510  213.1620  147.5470 C   0  0  1  0  0  3  0  0  0  0  0  0
  157.7710  213.4220  148.1220 C   0  0  0  0  0  0  0  0  0  0  0  0
  159.1450  214.0110  148.2290 C   0  0  1  0  0  3  0  0  0  0  0  0
  157.4220  212.7740  146.8450 C   0  0  0  0  0  3  0  0  0  0  0  0
  156.4950  213.3500  152.6570 N   0  0  0  0  0  0  0  0  0  0  0  0
  157.5160  213.2750  153.4580 C   0  0  0  0  0  0  0  0  0  0  0  0
  158.7450  214.0870  153.2570 C   0  0  0  0  0  3  0  0  0  0  0  0
  157.4020  213.9810  150.4940 C   0  0  0  0  0  0  0  0  0  0  0  0
  159.2700  214.4530  152.0830 C   0  0  0  0  0  3  0  0  0  0  0  0
  158.7250  214.1280  150.7480 C   0  0  0  0  0  0  0  0  0  0  0  0
  157.4300  212.4050  154.5500 O   0  0  0  0  0  0  0  0  0  0  0  0
  158.2270  211.2340  154.6830 C   0  0  0  0  0  2  0  0  0  0  0  0
  158.9680  211.2540  156.0060 C   0  0  0  0  0  1  0  0  0  0  0  0
  162.2950  211.9690  148.2420 C   0  0  0  0  0  2  0  0  0  0  0  0
  161.9330  208.4050  149.4750 C   0  0  0  0  0  3  0  0  0  0  0  0
  161.8020  211.0120  150.5010 C   0  0  0  0  0  3  0  0  0  0  0  0
  161.1480  207.7160  153.0300 C   0  0  0  0  0  0  0  0  0  0  0  0
  161.4340  207.5150  151.6720 C   0  0  0  0  0  3  0  0  0  0  0  0
  161.6510  208.6060  150.8280 C   0  0  0  0  0  0  0  0  0  0  0  0
  161.3010  210.1210  152.6980 C   0  0  0  0  0  3  0  0  0  0  0  0
  161.5850  209.9200  151.3450 C   0  0  0  0  0  0  0  0  0  0  0  0
  161.0830  209.0240  153.5360 C   0  0  0  0  0  3  0  0  0  0  0  0
  162.0910  210.8040  149.1470 C   0  0  0  0  0  0  0  0  0  0  0  0
  162.1490  209.5020  148.6360 C   0  0  0  0  0  3  0  0  0  0  0  0
  160.9190  206.5610  153.9140 C   0  0  0  0  0  0  0  0  0  0  0  0
  160.4390  206.7250  155.0670 O   0  0  0  0  0  1  0  0  0  0  0  0
  161.2320  205.2770  153.4830 O   0  0  0  0  0  0  0  0  0  0  0  0
  1  5  1  1  0  0  0
  1 17  1  0  0  0  0
  2 12  1  0  0  0  0
  3 15  1  0  0  0  0
  4  5  1  0  0  0  0
  7  6  1  0  0  0  0
  7 11  2  0  0  0  0
  8  6  1  1  0  0  0
  8 10  1  0  0  0  0
  8  4  1  0  0  0  0
  9  3  2  0  0  0  0
 10  9  1  1  0  0  0
 10  1  1  0  0  0  0
 11  9  1  0  0  0  0
 12 13  2  0  0  0  0
 13 18  1  0  0  0  0
 14 13  1  0  0  0  0
 15 17  2  0  0  0  0
 15  2  1  0  0  0  0
 16 14  2  0  0  0  0
 17 16  1  0  0  0  0
 18 19  1  0  0  0  0
 19 20  1  0  0  0  0
 21  4  1  0  0  0  0
 21 30  1  0  0  0  0
 22 26  1  0  0  0  0
 23 28  1  0  0  0  0
 24 29  1  0  0  0  0
 24 32  1  0  0  0  0
 25 24  2  0  0  0  0
 26 28  2  0  0  0  0
 26 25  1  0  0  0  0
 27 29  2  0  0  0  0
 28 27  1  0  0  0  0
 30 23  2  0  0  0  0
 31 30  1  0  0  0  0
 31 22  2  0  0  0  0
 32 33  1  0  0  0  0
 34 32  2  0  0  0  0
M  END
>  <MODEL>
9

>  <REMARK>
 VINA RESULT:      -7.2      3.874      6.474
  Name = 
  5 active torsions:
  status: ('A' for Active; 'I' for Inactive)
    1  A    between atoms: O_3  and  C_13
    2  A    between atoms: O_3  and  C_25
    3  A    between atoms: C_7  and  C_11
    4  A    between atoms: N_8  and  C_18
    5  A    between atoms: C_18  and  C_30
                            x       y       z     vdW  Elec       q    Type
                         _______ _______ _______ _____ _____    ______ ____

>  <TORSDO>
F 5

$$$$
