=
 OpenBabel11062408193D

 32 34  0  0  1  0  0  0  0  0999 V2000
  162.2250  205.9440  151.5140 C   0  0  1  0  0  3  0  0  0  0  0  0
  160.2310  205.3640  149.9380 C   0  0  0  0  0  2  0  0  0  0  0  0
  162.1020  205.6810  152.9020 O   0  0  0  0  0  0  0  0  0  0  0  0
  161.5620  204.9030  150.5580 C   0  0  2  0  0  3  0  0  0  0  0  0
  160.7090  202.6640  148.0980 C   0  0  0  0  0  3  0  0  0  0  0  0
  161.3510  204.9790  147.0730 C   0  0  0  0  0  0  0  0  0  0  0  0
  161.3830  203.5780  151.3290 C   0  0  2  0  0  3  0  0  0  0  0  0
  161.0230  203.8170  147.5800 C   0  0  0  0  0  0  0  0  0  0  0  0
  160.7180  202.4570  150.5330 C   0  0  0  0  0  2  0  0  0  0  0  0
  160.6380  203.7800  152.6540 C   0  0  0  0  0  2  0  0  0  0  0  0
  160.4390  206.3950  148.9230 N   0  0  0  0  0  0  0  0  0  0  0  0
  161.4810  202.1420  149.2560 C   0  0  1  0  0  3  0  0  0  0  0  0
  160.8020  205.2100  153.1690 C   0  0  0  0  0  2  0  0  0  0  0  0
  160.9250  206.2470  147.7220 C   0  0  0  0  0  3  0  0  0  0  0  0
  163.4930  204.7300  145.7740 C   0  0  0  0  0  1  0  0  0  0  0  0
  162.0720  205.0360  145.8240 N   0  0  0  0  0  0  0  0  0  0  0  0
  160.2880  204.5770  144.2150 C   0  0  0  0  0  1  0  0  0  0  0  0
  161.4470  205.4860  144.5820 C   0  0  0  0  0  2  0  0  0  0  0  0
  161.6560  200.6420  149.1020 C   0  0  0  0  0  2  0  0  0  0  0  0
  161.4710  200.2340  147.6520 C   0  0  0  0  0  1  0  0  0  0  0  0
  162.8260  207.9730  150.4210 O   0  0  0  0  0  0  0  0  0  0  0  0
  162.0220  207.3910  151.1980 C   0  0  0  0  0  0  0  0  0  0  0  0
  160.9350  208.0720  151.7530 O   0  0  0  0  0  0  0  0  0  0  0  0
  159.9210  210.2630  152.8290 O   0  0  0  0  0  1  0  0  0  0  0  0
  161.1250  209.3510  152.8860 P   0  0  2  0  0  0  0  0  0  0  0  0
  162.5180  210.2330  152.5120 O   0  0  0  0  0  0  0  0  0  0  0  0
  161.6690  209.7560  155.5470 C   0  0  0  0  0  2  0  0  0  0  0  0
  161.2770  208.6530  154.5540 C   0  0  0  0  0  3  0  0  0  0  0  0
  161.2110  209.4790  156.9830 C   0  0  0  0  0  2  0  0  0  0  0  0
  160.0820  207.3170  156.3360 C   0  0  0  0  0  2  0  0  0  0  0  0
  159.9660  207.9870  154.9600 C   0  0  0  0  0  2  0  0  0  0  0  0
  161.1080  207.9850  157.2600 C   0  0  0  0  0  2  0  0  0  0  0  0
  1 22  1  1  0  0  0
  1  3  1  0  0  0  0
  3 13  1  0  0  0  0
  4  2  1  1  0  0  0
  4  7  1  0  0  0  0
  4  1  1  0  0  0  0
  5 12  1  0  0  0  0
  6  8  2  0  0  0  0
  6 14  1  0  0  0  0
  7  9  1  6  0  0  0
  7 10  1  0  0  0  0
  8  5  2  0  0  0  0
 10 13  1  0  0  0  0
 11  2  1  0  0  0  0
 12 19  1  6  0  0  0
 12  9  1  0  0  0  0
 14 11  2  0  0  0  0
 15 16  1  0  0  0  0
 16  6  1  0  0  0  0
 17 18  1  0  0  0  0
 18 16  1  0  0  0  0
 20 19  1  0  0  0  0
 21 22  2  0  0  0  0
 22 23  1  0  0  0  0
 23 25  1  0  0  0  0
 24 25  1  0  0  0  0
 25 26  2  6  0  0  0
 25 28  1  0  0  0  0
 27 29  1  0  0  0  0
 28 31  1  0  0  0  0
 28 27  1  0  0  0  0
 29 32  1  0  0  0  0
 30 32  1  0  0  0  0
 31 30  1  0  0  0  0
M  END
>  <MODEL>
1

>  <REMARK>
 VINA RESULT:      -8.1      0.000      0.000
  Name = 
  7 active torsions:
  status: ('A' for Active; 'I' for Inactive)
    1  A    between atoms: C_1  and  C_27
    2  A    between atoms: C_7  and  P_22
    3  A    between atoms: C_10  and  N_12
    4  A    between atoms: N_12  and  C_31
    5  A    between atoms: C_13  and  C_29
    6  A    between atoms: O_16  and  P_22
    7  A    between atoms: O_16  and  C_27
                            x       y       z     vdW  Elec       q    Type
                         _______ _______ _______ _____ _____    ______ ____

>  <TORSDO>
F 7

$$$$
=
 OpenBabel11062408193D

 32 34  0  0  1  0  0  0  0  0999 V2000
  162.2650  206.2260  151.6430 C   0  0  1  0  0  3  0  0  0  0  0  0
  160.2470  205.5960  150.1170 C   0  0  0  0  0  2  0  0  0  0  0  0
  162.1590  206.0140  153.0420 O   0  0  0  0  0  0  0  0  0  0  0  0
  161.5850  205.1530  150.7360 C   0  0  2  0  0  3  0  0  0  0  0  0
  160.6910  202.8280  148.3710 C   0  0  0  0  0  3  0  0  0  0  0  0
  161.3260  205.1020  147.2540 C   0  0  0  0  0  0  0  0  0  0  0  0
  161.4120  203.8580  151.5580 C   0  0  2  0  0  3  0  0  0  0  0  0
  161.0020  203.9610  147.8080 C   0  0  0  0  0  0  0  0  0  0  0  0
  160.7320  202.7110  150.8130 C   0  0  0  0  0  2  0  0  0  0  0  0
  160.6860  204.1110  152.8840 C   0  0  0  0  0  2  0  0  0  0  0  0
  160.4440  206.5880  149.0630 N   0  0  0  0  0  0  0  0  0  0  0  0
  161.4770  202.3460  149.5380 C   0  0  1  0  0  3  0  0  0  0  0  0
  160.8610  205.5590  153.3440 C   0  0  0  0  0  2  0  0  0  0  0  0
  160.9130  206.3950  147.8610 C   0  0  0  0  0  3  0  0  0  0  0  0
  163.4350  204.7400  145.9270 C   0  0  0  0  0  1  0  0  0  0  0  0
  162.0300  205.1100  145.9940 N   0  0  0  0  0  0  0  0  0  0  0  0
  160.3950  204.5530  144.2620 C   0  0  0  0  0  1  0  0  0  0  0  0
  161.4080  205.5720  144.7550 C   0  0  0  0  0  2  0  0  0  0  0  0
  161.6450  200.8420  149.4360 C   0  0  0  0  0  2  0  0  0  0  0  0
  161.4390  200.3810  148.0050 C   0  0  0  0  0  1  0  0  0  0  0  0
  162.8650  208.2150  150.4800 O   0  0  0  0  0  0  0  0  0  0  0  0
  162.0610  207.6620  151.2770 C   0  0  0  0  0  0  0  0  0  0  0  0
  160.9760  208.3610  151.8090 O   0  0  0  0  0  0  0  0  0  0  0  0
  162.4380  210.3140  152.8280 O   0  0  0  0  0  0  0  0  0  0  0  0
  161.1530  209.5480  153.0410 P   0  0  2  0  0  0  0  0  0  0  0  0
  161.1940  208.7890  154.5520 O   0  0  0  0  0  1  0  0  0  0  0  0
  159.2730  211.0220  154.3960 C   0  0  0  0  0  2  0  0  0  0  0  0
  159.7470  210.6930  152.9730 C   0  0  0  0  0  3  0  0  0  0  0  0
  158.5880  212.3880  154.5140 C   0  0  0  0  0  2  0  0  0  0  0  0
  158.9540  212.9170  152.0740 C   0  0  0  0  0  2  0  0  0  0  0  0
  160.1430  211.9580  152.2180 C   0  0  0  0  0  2  0  0  0  0  0  0
  157.9250  212.7960  153.2040 C   0  0  0  0  0  2  0  0  0  0  0  0
  1 22  1  1  0  0  0
  1  3  1  0  0  0  0
  3 13  1  0  0  0  0
  4  2  1  1  0  0  0
  4  7  1  0  0  0  0
  4  1  1  0  0  0  0
  5 12  1  0  0  0  0
  6  8  2  0  0  0  0
  6 14  1  0  0  0  0
  7  9  1  6  0  0  0
  7 10  1  0  0  0  0
  8  5  2  0  0  0  0
 10 13  1  0  0  0  0
 11  2  1  0  0  0  0
 12 19  1  6  0  0  0
 12  9  1  0  0  0  0
 14 11  2  0  0  0  0
 15 16  1  0  0  0  0
 16  6  1  0  0  0  0
 17 18  1  0  0  0  0
 18 16  1  0  0  0  0
 20 19  1  0  0  0  0
 21 22  2  0  0  0  0
 22 23  1  0  0  0  0
 23 25  1  0  0  0  0
 25 24  2  6  0  0  0
 25 26  1  0  0  0  0
 27 29  1  0  0  0  0
 28 25  1  0  0  0  0
 28 27  1  0  0  0  0
 30 31  1  0  0  0  0
 30 32  1  0  0  0  0
 31 28  1  0  0  0  0
 32 29  1  0  0  0  0
M  END
>  <MODEL>
2

>  <REMARK>
 VINA RESULT:      -8.0      1.937      2.368
  Name = 
  7 active torsions:
  status: ('A' for Active; 'I' for Inactive)
    1  A    between atoms: C_1  and  C_27
    2  A    between atoms: C_7  and  P_22
    3  A    between atoms: C_10  and  N_12
    4  A    between atoms: N_12  and  C_31
    5  A    between atoms: C_13  and  C_29
    6  A    between atoms: O_16  and  P_22
    7  A    between atoms: O_16  and  C_27
                            x       y       z     vdW  Elec       q    Type
                         _______ _______ _______ _____ _____    ______ ____

>  <TORSDO>
F 7

$$$$
=
 OpenBabel11062408193D

 32 34  0  0  1  0  0  0  0  0999 V2000
  160.5520  205.8320  149.9100 C   0  0  1  0  0  3  0  0  0  0  0  0
  162.4170  207.0860  151.2320 C   0  0  0  0  0  2  0  0  0  0  0  0
  160.5570  204.4140  149.8950 O   0  0  0  0  0  0  0  0  0  0  0  0
  160.9920  206.5040  151.2480 C   0  0  2  0  0  3  0  0  0  0  0  0
  161.3970  208.3930  154.0880 C   0  0  0  0  0  3  0  0  0  0  0  0
  161.3510  209.9040  151.9580 C   0  0  0  0  0  0  0  0  0  0  0  0
  160.8290  205.4740  152.3870 C   0  0  2  0  0  3  0  0  0  0  0  0
  161.3800  209.1520  153.0290 C   0  0  0  0  0  0  0  0  0  0  0  0
  161.2460  205.9740  153.7690 C   0  0  0  0  0  2  0  0  0  0  0  0
  161.5480  204.1560  152.0780 C   0  0  0  0  0  2  0  0  0  0  0  0
  162.4940  208.2970  150.4180 N   0  0  0  0  0  0  0  0  0  0  0  0
  160.4810  207.2250  154.1710 C   0  0  1  0  0  3  0  0  0  0  0  0
  161.7000  203.9480  150.5710 C   0  0  0  0  0  2  0  0  0  0  0  0
  162.0340  209.4830  150.7060 C   0  0  0  0  0  3  0  0  0  0  0  0
  160.7240  212.0770  150.8520 C   0  0  0  0  0  1  0  0  0  0  0  0
  160.7120  211.1970  152.0100 N   0  0  0  0  0  0  0  0  0  0  0  0
  158.5960  211.7080  153.1260 C   0  0  0  0  0  1  0  0  0  0  0  0
  160.1110  211.7210  153.2340 C   0  0  0  0  0  2  0  0  0  0  0  0
  159.9690  207.0960  155.5940 C   0  0  0  0  0  2  0  0  0  0  0  0
  160.6810  208.0790  156.5050 C   0  0  0  0  0  1  0  0  0  0  0  0
  160.7930  207.5860  148.3180 O   0  0  0  0  0  0  0  0  0  0  0  0
  161.0980  206.4080  148.6420 C   0  0  0  0  0  0  0  0  0  0  0  0
  161.9510  205.6380  147.8470 O   0  0  0  0  0  0  0  0  0  0  0  0
  162.7730  205.8490  145.3430 O   0  0  0  0  0  0  0  0  0  0  0  0
  161.6340  205.3230  146.1870 P   0  0  2  0  0  0  0  0  0  0  0  0
  160.1960  206.0870  145.7320 O   0  0  0  0  0  1  0  0  0  0  0  0
  161.4770  202.8170  147.2980 C   0  0  0  0  0  2  0  0  0  0  0  0
  161.4770  203.5320  145.9400 C   0  0  0  0  0  3  0  0  0  0  0  0
  160.7320  201.4770  147.2860 C   0  0  0  0  0  2  0  0  0  0  0  0
  160.0770  201.7250  144.8620 C   0  0  0  0  0  2  0  0  0  0  0  0
  160.2040  203.2250  145.1570 C   0  0  0  0  0  2  0  0  0  0  0  0
  160.7600  200.8330  145.9060 C   0  0  0  0  0  2  0  0  0  0  0  0
  1 22  1  6  0  0  0
  1  4  1  0  0  0  0
  3  1  1  0  0  0  0
  3 13  1  0  0  0  0
  4  2  1  6  0  0  0
  4  7  1  0  0  0  0
  5 12  1  0  0  0  0
  6 16  1  0  0  0  0
  6  8  2  0  0  0  0
  7 10  1  6  0  0  0
  7  9  1  0  0  0  0
  8  5  2  0  0  0  0
  9 12  1  0  0  0  0
 11 14  2  0  0  0  0
 11  2  1  0  0  0  0
 12 19  1  1  0  0  0
 13 10  1  0  0  0  0
 14  6  1  0  0  0  0
 15 16  1  0  0  0  0
 16 18  1  0  0  0  0
 17 18  1  0  0  0  0
 19 20  1  0  0  0  0
 21 22  2  0  0  0  0
 23 22  1  0  0  0  0
 25 24  2  6  0  0  0
 25 23  1  0  0  0  0
 26 25  1  0  0  0  0
 28 25  1  0  0  0  0
 28 27  1  0  0  0  0
 29 27  1  0  0  0  0
 30 31  1  0  0  0  0
 30 32  1  0  0  0  0
 31 28  1  0  0  0  0
 32 29  1  0  0  0  0
M  END
>  <MODEL>
3

>  <REMARK>
 VINA RESULT:      -7.9      3.069      8.020
  Name = 
  7 active torsions:
  status: ('A' for Active; 'I' for Inactive)
    1  A    between atoms: C_1  and  C_27
    2  A    between atoms: C_7  and  P_22
    3  A    between atoms: C_10  and  N_12
    4  A    between atoms: N_12  and  C_31
    5  A    between atoms: C_13  and  C_29
    6  A    between atoms: O_16  and  P_22
    7  A    between atoms: O_16  and  C_27
                            x       y       z     vdW  Elec       q    Type
                         _______ _______ _______ _____ _____    ______ ____

>  <TORSDO>
F 7

$$$$
=
 OpenBabel11062408193D

 32 34  0  0  1  0  0  0  0  0999 V2000
  160.3820  206.1090  149.5150 C   0  0  1  0  0  3  0  0  0  0  0  0
  162.5220  207.4890  150.0740 C   0  0  0  0  0  2  0  0  0  0  0  0
  160.2350  204.8140  150.0750 O   0  0  0  0  0  0  0  0  0  0  0  0
  161.0580  207.1780  150.4310 C   0  0  2  0  0  3  0  0  0  0  0  0
  162.0180  209.9450  152.2240 C   0  0  0  0  0  3  0  0  0  0  0  0
  161.8610  210.4910  149.6750 C   0  0  0  0  0  0  0  0  0  0  0  0
  160.9330  206.7120  151.8970 C   0  0  2  0  0  3  0  0  0  0  0  0
  161.9470  210.2230  150.9540 C   0  0  0  0  0  0  0  0  0  0  0  0
  161.5730  207.6450  152.9230 C   0  0  0  0  0  2  0  0  0  0  0  0
  161.4640  205.2880  152.0960 C   0  0  0  0  0  2  0  0  0  0  0  0
  162.6220  208.2600  148.8370 N   0  0  0  0  0  0  0  0  0  0  0  0
  161.0020  209.0520  152.8410 C   0  0  1  0  0  3  0  0  0  0  0  0
  161.4000  204.4870  150.7940 C   0  0  0  0  0  2  0  0  0  0  0  0
  162.3310  209.5180  148.6540 C   0  0  0  0  0  3  0  0  0  0  0  0
  160.5660  212.6010  150.1350 C   0  0  0  0  0  1  0  0  0  0  0  0
  161.3740  211.7810  149.2460 N   0  0  0  0  0  0  0  0  0  0  0  0
  160.2520  212.4420  147.1760 C   0  0  0  0  0  1  0  0  0  0  0  0
  161.5830  212.2820  147.8900 C   0  0  0  0  0  2  0  0  0  0  0  0
  160.6650  209.5670  154.2280 C   0  0  0  0  0  2  0  0  0  0  0  0
  160.5450  208.4140  155.2080 C   0  0  0  0  0  1  0  0  0  0  0  0
  160.1160  206.6140  147.2030 O   0  0  0  0  0  0  0  0  0  0  0  0
  160.8200  206.0560  148.0860 C   0  0  0  0  0  0  0  0  0  0  0  0
  162.0110  205.4050  147.7550 O   0  0  0  0  0  0  0  0  0  0  0  0
  163.7910  204.8540  145.8790 O   0  0  0  0  0  1  0  0  0  0  0  0
  162.3130  204.7710  146.1850 P   0  0  2  0  0  0  0  0  0  0  0  0
  161.4500  205.6670  145.0400 O   0  0  0  0  0  0  0  0  0  0  0  0
  161.4930  202.5350  147.5510 C   0  0  0  0  0  2  0  0  0  0  0  0
  161.7810  203.0370  146.1290 C   0  0  0  0  0  3  0  0  0  0  0  0
  160.4700  201.3940  147.6030 C   0  0  0  0  0  2  0  0  0  0  0  0
  160.1170  201.4340  145.1050 C   0  0  0  0  0  2  0  0  0  0  0  0
  160.5510  202.9000  145.2370 C   0  0  0  0  0  2  0  0  0  0  0  0
  160.4820  200.5720  146.3200 C   0  0  0  0  0  2  0  0  0  0  0  0
  1 22  1  6  0  0  0
  1  3  1  0  0  0  0
  1  4  1  0  0  0  0
  3 13  1  0  0  0  0
  4  2  1  6  0  0  0
  4  7  1  0  0  0  0
  5 12  1  0  0  0  0
  6  8  2  0  0  0  0
  7 10  1  6  0  0  0
  7  9  1  0  0  0  0
  8  5  2  0  0  0  0
 11  2  1  0  0  0  0
 12  9  1  0  0  0  0
 12 19  1  1  0  0  0
 13 10  1  0  0  0  0
 14 11  2  0  0  0  0
 14  6  1  0  0  0  0
 16  6  1  0  0  0  0
 16 15  1  0  0  0  0
 17 18  1  0  0  0  0
 18 16  1  0  0  0  0
 19 20  1  0  0  0  0
 21 22  2  0  0  0  0
 23 22  1  0  0  0  0
 24 25  1  0  0  0  0
 25 26  2  6  0  0  0
 25 23  1  0  0  0  0
 27 29  1  0  0  0  0
 28 25  1  0  0  0  0
 28 27  1  0  0  0  0
 30 31  1  0  0  0  0
 30 32  1  0  0  0  0
 31 28  1  0  0  0  0
 32 29  1  0  0  0  0
M  END
>  <MODEL>
4

>  <REMARK>
 VINA RESULT:      -7.5      3.541      7.834
  Name = 
  7 active torsions:
  status: ('A' for Active; 'I' for Inactive)
    1  A    between atoms: C_1  and  C_27
    2  A    between atoms: C_7  and  P_22
    3  A    between atoms: C_10  and  N_12
    4  A    between atoms: N_12  and  C_31
    5  A    between atoms: C_13  and  C_29
    6  A    between atoms: O_16  and  P_22
    7  A    between atoms: O_16  and  C_27
                            x       y       z     vdW  Elec       q    Type
                         _______ _______ _______ _____ _____    ______ ____

>  <TORSDO>
F 7

$$$$
=
 OpenBabel11062408193D

 32 34  0  0  1  0  0  0  0  0999 V2000
  160.8050  207.0940  150.5390 C   0  0  1  0  0  3  0  0  0  0  0  0
  162.3270  208.9550  151.5480 C   0  0  0  0  0  2  0  0  0  0  0  0
  160.9950  205.7520  150.9560 O   0  0  0  0  0  0  0  0  0  0  0  0
  160.9970  208.1850  151.6390 C   0  0  2  0  0  3  0  0  0  0  0  0
  160.8240  210.8550  153.7920 C   0  0  0  0  0  3  0  0  0  0  0  0
  160.8300  211.6580  151.3060 C   0  0  0  0  0  0  0  0  0  0  0  0
  160.8380  207.5180  153.0220 C   0  0  2  0  0  3  0  0  0  0  0  0
  160.8320  211.2620  152.5550 C   0  0  0  0  0  0  0  0  0  0  0  0
  161.0250  208.4550  154.2120 C   0  0  0  0  0  2  0  0  0  0  0  0
  161.7520  206.2970  153.1800 C   0  0  0  0  0  2  0  0  0  0  0  0
  162.3410  209.8740  150.4130 N   0  0  0  0  0  0  0  0  0  0  0  0
  160.0630  209.6320  154.1600 C   0  0  1  0  0  3  0  0  0  0  0  0
  162.1030  205.6890  151.8220 C   0  0  0  0  0  2  0  0  0  0  0  0
  161.7020  211.0050  150.2940 C   0  0  0  0  0  3  0  0  0  0  0  0
  160.4450  213.6550  149.8230 C   0  0  0  0  0  1  0  0  0  0  0  0
  160.0280  212.7930  150.9170 N   0  0  0  0  0  0  0  0  0  0  0  0
  157.7440  213.6360  150.6800 C   0  0  0  0  0  1  0  0  0  0  0  0
  158.8240  213.1830  151.6470 C   0  0  0  0  0  2  0  0  0  0  0  0
  159.4110  209.8430  155.5150 C   0  0  0  0  0  2  0  0  0  0  0  0
  160.4130  209.6010  156.6290 C   0  0  0  0  0  1  0  0  0  0  0  0
  161.2060  208.4620  148.6320 O   0  0  0  0  0  0  0  0  0  0  0  0
  161.4150  207.3560  149.2000 C   0  0  0  0  0  0  0  0  0  0  0  0
  162.2190  206.3810  148.6060 O   0  0  0  0  0  0  0  0  0  0  0  0
  162.7060  205.8160  146.0690 O   0  0  0  0  0  0  0  0  0  0  0  0
  161.7430  205.5200  147.1950 P   0  0  2  0  0  0  0  0  0  0  0  0
  160.1850  205.9980  146.7440 O   0  0  0  0  0  1  0  0  0  0  0  0
  161.0760  203.4740  148.9010 C   0  0  0  0  0  2  0  0  0  0  0  0
  161.7550  203.7410  147.5500 C   0  0  0  0  0  3  0  0  0  0  0  0
  160.4580  202.0760  149.0110 C   0  0  0  0  0  2  0  0  0  0  0  0
  161.1190  201.4650  146.6540 C   0  0  0  0  0  2  0  0  0  0  0  0
  161.0600  202.9820  146.4250 C   0  0  0  0  0  2  0  0  0  0  0  0
  161.1910  201.0690  148.1340 C   0  0  0  0  0  2  0  0  0  0  0  0
  1 22  1  6  0  0  0
  1  3  1  0  0  0  0
  1  4  1  0  0  0  0
  3 13  1  0  0  0  0
  4  2  1  1  0  0  0
  4  7  1  0  0  0  0
  5 12  1  0  0  0  0
  6  8  2  0  0  0  0
  7 10  1  1  0  0  0
  7  9  1  0  0  0  0
  8  5  2  0  0  0  0
 11  2  1  0  0  0  0
 12  9  1  0  0  0  0
 12 19  1  1  0  0  0
 13 10  1  0  0  0  0
 14 11  2  0  0  0  0
 14  6  1  0  0  0  0
 15 16  1  0  0  0  0
 16  6  1  0  0  0  0
 16 18  1  0  0  0  0
 17 18  1  0  0  0  0
 19 20  1  0  0  0  0
 21 22  2  0  0  0  0
 23 22  1  0  0  0  0
 25 24  2  6  0  0  0
 25 28  1  0  0  0  0
 25 23  1  0  0  0  0
 26 25  1  0  0  0  0
 27 29  1  0  0  0  0
 28 27  1  0  0  0  0
 30 32  1  0  0  0  0
 31 30  1  0  0  0  0
 31 28  1  0  0  0  0
 32 29  1  0  0  0  0
M  END
>  <MODEL>
5

>  <REMARK>
 VINA RESULT:      -7.0      3.486      8.050
  Name = 
  7 active torsions:
  status: ('A' for Active; 'I' for Inactive)
    1  A    between atoms: C_1  and  C_27
    2  A    between atoms: C_7  and  P_22
    3  A    between atoms: C_10  and  N_12
    4  A    between atoms: N_12  and  C_31
    5  A    between atoms: C_13  and  C_29
    6  A    between atoms: O_16  and  P_22
    7  A    between atoms: O_16  and  C_27
                            x       y       z     vdW  Elec       q    Type
                         _______ _______ _______ _____ _____    ______ ____

>  <TORSDO>
F 7

$$$$
=
 OpenBabel11062408193D

 32 34  0  0  1  0  0  0  0  0999 V2000
  160.1190  207.8280  154.4890 C   0  0  1  0  0  3  0  0  0  0  0  0
  161.4230  210.0840  154.5700 C   0  0  0  0  0  2  0  0  0  0  0  0
  160.1890  206.9540  155.6050 O   0  0  0  0  0  0  0  0  0  0  0  0
  160.0910  209.3540  154.8170 C   0  0  2  0  0  3  0  0  0  0  0  0
  159.5100  212.7300  155.0590 C   0  0  0  0  0  3  0  0  0  0  0  0
  160.0650  212.0510  152.5990 C   0  0  0  0  0  0  0  0  0  0  0  0
  159.6250  209.5310  156.2780 C   0  0  2  0  0  3  0  0  0  0  0  0
  159.7900  212.3990  153.8310 C   0  0  0  0  0  0  0  0  0  0  0  0
  159.5690  210.9780  156.7630 C   0  0  0  0  0  2  0  0  0  0  0  0
  160.4610  208.6940  157.2530 C   0  0  0  0  0  2  0  0  0  0  0  0
  161.6980  210.2360  153.1440 N   0  0  0  0  0  0  0  0  0  0  0  0
  158.6640  211.8320  155.8890 C   0  0  1  0  0  3  0  0  0  0  0  0
  161.0840  207.4860  156.5520 C   0  0  0  0  0  2  0  0  0  0  0  0
  161.1210  211.0480  152.3020 C   0  0  0  0  0  3  0  0  0  0  0  0
  160.0970  213.0240  150.2770 C   0  0  0  0  0  1  0  0  0  0  0  0
  159.3860  212.7040  151.5040 N   0  0  0  0  0  0  0  0  0  0  0  0
  157.5260  213.7020  150.2690 C   0  0  0  0  0  1  0  0  0  0  0  0
  157.9990  213.1530  151.6030 C   0  0  0  0  0  2  0  0  0  0  0  0
  157.7400  212.6740  156.7490 C   0  0  0  0  0  2  0  0  0  0  0  0
  156.3100  212.1820  156.6310 C   0  0  0  0  0  1  0  0  0  0  0  0
  162.0520  206.7310  153.6370 O   0  0  0  0  0  0  0  0  0  0  0  0
  161.0070  207.3830  153.3720 C   0  0  0  0  0  0  0  0  0  0  0  0
  160.6580  207.6820  152.0530 O   0  0  0  0  0  0  0  0  0  0  0  0
  162.9650  206.9550  150.9860 O   0  0  0  0  0  1  0  0  0  0  0  0
  161.4820  207.0100  150.7020 P   0  0  2  0  0  0  0  0  0  0  0  0
  161.2050  207.9710  149.3380 O   0  0  0  0  0  0  0  0  0  0  0  0
  161.0700  204.9570  148.9250 C   0  0  0  0  0  2  0  0  0  0  0  0
  160.8620  205.3320  150.3990 C   0  0  0  0  0  3  0  0  0  0  0  0
  161.2050  203.4490  148.6890 C   0  0  0  0  0  2  0  0  0  0  0  0
  161.0100  202.9230  151.1490 C   0  0  0  0  0  2  0  0  0  0  0  0
  161.5660  204.3430  151.3230 C   0  0  0  0  0  2  0  0  0  0  0  0
  160.4560  202.6470  149.7460 C   0  0  0  0  0  2  0  0  0  0  0  0
  1 22  1  6  0  0  0
  1  4  1  0  0  0  0
  1  3  1  0  0  0  0
  3 13  1  0  0  0  0
  4  2  1  1  0  0  0
  4  7  1  0  0  0  0
  5 12  1  0  0  0  0
  6  8  2  0  0  0  0
  7  9  1  1  0  0  0
  7 10  1  0  0  0  0
  8  5  2  0  0  0  0
 11  2  1  0  0  0  0
 12 19  1  1  0  0  0
 12  9  1  0  0  0  0
 13 10  1  0  0  0  0
 14  6  1  0  0  0  0
 14 11  2  0  0  0  0
 15 16  1  0  0  0  0
 16 18  1  0  0  0  0
 16  6  1  0  0  0  0
 17 18  1  0  0  0  0
 20 19  1  0  0  0  0
 22 21  2  0  0  0  0
 23 22  1  0  0  0  0
 25 26  2  6  0  0  0
 25 24  1  0  0  0  0
 25 23  1  0  0  0  0
 27 28  1  0  0  0  0
 28 25  1  0  0  0  0
 28 31  1  0  0  0  0
 29 27  1  0  0  0  0
 29 32  1  0  0  0  0
 30 31  1  0  0  0  0
 32 30  1  0  0  0  0
M  END
>  <MODEL>
6

>  <REMARK>
 VINA RESULT:      -6.9      3.486      8.424
  Name = 
  7 active torsions:
  status: ('A' for Active; 'I' for Inactive)
    1  A    between atoms: C_1  and  C_27
    2  A    between atoms: C_7  and  P_22
    3  A    between atoms: C_10  and  N_12
    4  A    between atoms: N_12  and  C_31
    5  A    between atoms: C_13  and  C_29
    6  A    between atoms: O_16  and  P_22
    7  A    between atoms: O_16  and  C_27
                            x       y       z     vdW  Elec       q    Type
                         _______ _______ _______ _____ _____    ______ ____

>  <TORSDO>
F 7

$$$$
=
 OpenBabel11062408193D

 32 34  0  0  1  0  0  0  0  0999 V2000
  160.7750  207.3690  151.4990 C   0  0  1  0  0  3  0  0  0  0  0  0
  162.0950  209.4950  152.2280 C   0  0  0  0  0  2  0  0  0  0  0  0
  160.9430  206.1690  152.2380 O   0  0  0  0  0  0  0  0  0  0  0  0
  160.7870  208.6910  152.3290 C   0  0  2  0  0  3  0  0  0  0  0  0
  160.2520  211.7660  153.7620 C   0  0  0  0  0  3  0  0  0  0  0  0
  160.5710  211.9810  151.1780 C   0  0  0  0  0  0  0  0  0  0  0  0
  160.4600  208.3470  153.7980 C   0  0  2  0  0  3  0  0  0  0  0  0
  160.4150  211.8800  152.4740 C   0  0  0  0  0  0  0  0  0  0  0  0
  160.4590  209.5400  154.7510 C   0  0  0  0  0  2  0  0  0  0  0  0
  161.3780  207.2500  154.3500 C   0  0  0  0  0  2  0  0  0  0  0  0
  162.2370  210.1310  150.9210 N   0  0  0  0  0  0  0  0  0  0  0  0
  159.4810  210.6170  154.3070 C   0  0  1  0  0  3  0  0  0  0  0  0
  161.9260  206.3690  153.2260 C   0  0  0  0  0  2  0  0  0  0  0  0
  161.5890  211.1660  150.4630 C   0  0  0  0  0  3  0  0  0  0  0  0
  160.3440  213.5790  149.2460 C   0  0  0  0  0  1  0  0  0  0  0  0
  159.7980  212.9490  150.4380 N   0  0  0  0  0  0  0  0  0  0  0  0
  157.4800  213.3280  149.7550 C   0  0  0  0  0  1  0  0  0  0  0  0
  158.4860  213.4090  150.8890 C   0  0  0  0  0  2  0  0  0  0  0  0
  158.6470  211.0910  155.4820 C   0  0  0  0  0  2  0  0  0  0  0  0
  157.1720  211.0760  155.1260 C   0  0  0  0  0  1  0  0  0  0  0  0
  162.8110  207.3720  150.2660 O   0  0  0  0  0  0  0  0  0  0  0  0
  161.5520  207.3540  150.2220 C   0  0  0  0  0  0  0  0  0  0  0  0
  160.8730  207.3040  149.0020 O   0  0  0  0  0  0  0  0  0  0  0  0
  162.7500  206.1580  147.5340 O   0  0  0  0  0  1  0  0  0  0  0  0
  161.2580  206.1630  147.7750 P   0  0  2  0  0  0  0  0  0  0  0  0
  160.4580  206.5830  146.3450 O   0  0  0  0  0  0  0  0  0  0  0  0
  161.2060  203.4590  147.3000 C   0  0  0  0  0  2  0  0  0  0  0  0
  160.7250  204.5120  148.3080 C   0  0  0  0  0  3  0  0  0  0  0  0
  161.4020  202.0680  147.9130 C   0  0  0  0  0  2  0  0  0  0  0  0
  160.7640  202.8620  150.2210 C   0  0  0  0  0  2  0  0  0  0  0  0
  161.2600  204.2200  149.7060 C   0  0  0  0  0  2  0  0  0  0  0  0
  160.4810  201.8470  149.1070 C   0  0  0  0  0  2  0  0  0  0  0  0
  1 22  1  6  0  0  0
  1  3  1  0  0  0  0
  1  4  1  0  0  0  0
  3 13  1  0  0  0  0
  4  2  1  1  0  0  0
  4  7  1  0  0  0  0
  5 12  1  0  0  0  0
  6  8  2  0  0  0  0
  7 10  1  1  0  0  0
  7  9  1  0  0  0  0
  8  5  2  0  0  0  0
 11  2  1  0  0  0  0
 12  9  1  0  0  0  0
 12 19  1  1  0  0  0
 13 10  1  0  0  0  0
 14 11  2  0  0  0  0
 14  6  1  0  0  0  0
 15 16  1  0  0  0  0
 16 18  1  0  0  0  0
 16  6  1  0  0  0  0
 17 18  1  0  0  0  0
 20 19  1  0  0  0  0
 22 21  2  0  0  0  0
 23 22  1  0  0  0  0
 24 25  1  0  0  0  0
 25 26  2  6  0  0  0
 25 28  1  0  0  0  0
 25 23  1  0  0  0  0
 27 29  1  0  0  0  0
 27 28  1  0  0  0  0
 28 31  1  0  0  0  0
 29 32  1  0  0  0  0
 31 30  1  0  0  0  0
 32 30  1  0  0  0  0
M  END
>  <MODEL>
7

>  <REMARK>
 VINA RESULT:      -6.8      3.612      7.945
  Name = 
  7 active torsions:
  status: ('A' for Active; 'I' for Inactive)
    1  A    between atoms: C_1  and  C_27
    2  A    between atoms: C_7  and  P_22
    3  A    between atoms: C_10  and  N_12
    4  A    between atoms: N_12  and  C_31
    5  A    between atoms: C_13  and  C_29
    6  A    between atoms: O_16  and  P_22
    7  A    between atoms: O_16  and  C_27
                            x       y       z     vdW  Elec       q    Type
                         _______ _______ _______ _____ _____    ______ ____

>  <TORSDO>
F 7

$$$$
=
 OpenBabel11062408193D

 32 34  0  0  1  0  0  0  0  0999 V2000
  162.5150  208.2480  150.5910 C   0  0  1  0  0  3  0  0  0  0  0  0
  160.4550  206.9640  149.6410 C   0  0  0  0  0  2  0  0  0  0  0  0
  162.4360  208.8030  151.8940 O   0  0  0  0  0  0  0  0  0  0  0  0
  161.7980  206.8770  150.3870 C   0  0  2  0  0  3  0  0  0  0  0  0
  160.8160  203.6810  149.6010 C   0  0  0  0  0  3  0  0  0  0  0  0
  161.4630  205.0160  147.4510 C   0  0  0  0  0  0  0  0  0  0  0  0
  161.6220  206.2090  151.7680 C   0  0  2  0  0  3  0  0  0  0  0  0
  161.1330  204.3430  148.5240 C   0  0  0  0  0  0  0  0  0  0  0  0
  160.9070  204.8590  151.7410 C   0  0  0  0  0  2  0  0  0  0  0  0
  160.9290  207.1370  152.7710 C   0  0  0  0  0  2  0  0  0  0  0  0
  160.6460  207.2520  148.2220 N   0  0  0  0  0  0  0  0  0  0  0  0
  161.6180  203.8620  150.8390 C   0  0  1  0  0  3  0  0  0  0  0  0
  161.1380  208.6070  152.4030 C   0  0  0  0  0  2  0  0  0  0  0  0
  161.0850  206.4460  147.2950 C   0  0  0  0  0  3  0  0  0  0  0  0
  163.5810  204.4620  146.2070 C   0  0  0  0  0  1  0  0  0  0  0  0
  162.1400  204.3460  146.3670 N   0  0  0  0  0  0  0  0  0  0  0  0
  160.6650  204.5600  144.4280 C   0  0  0  0  0  1  0  0  0  0  0  0
  161.4180  203.6040  145.3360 C   0  0  0  0  0  2  0  0  0  0  0  0
  161.7590  202.5230  151.5390 C   0  0  0  0  0  2  0  0  0  0  0  0
  160.8850  201.4800  150.8690 C   0  0  0  0  0  1  0  0  0  0  0  0
  162.3790  208.9420  148.3180 O   0  0  0  0  0  0  0  0  0  0  0  0
  162.3280  209.2840  149.5290 C   0  0  0  0  0  0  0  0  0  0  0  0
  162.0820  210.6100  149.8950 O   0  0  0  0  0  0  0  0  0  0  0  0
  161.0860  211.2210  147.5240 O   0  0  0  0  0  0  0  0  0  0  0  0
  161.7300  211.8380  148.7440 P   0  0  2  0  0  0  0  0  0  0  0  0
  163.1620  212.6150  148.2930 O   0  0  0  0  0  1  0  0  0  0  0  0
  159.3600  213.2160  148.5870 C   0  0  0  0  0  2  0  0  0  0  0  0
  160.5920  213.0410  149.4860 C   0  0  0  0  0  3  0  0  0  0  0  0
  158.1030  213.6520  149.3480 C   0  0  0  0  0  2  0  0  0  0  0  0
  159.2900  213.6170  151.5740 C   0  0  0  0  0  2  0  0  0  0  0  0
  160.1920  212.5840  150.8850 C   0  0  0  0  0  2  0  0  0  0  0  0
  158.4530  214.4520  150.5970 C   0  0  0  0  0  2  0  0  0  0  0  0
  1 22  1  6  0  0  0
  1  3  1  0  0  0  0
  3 13  1  0  0  0  0
  4  2  1  1  0  0  0
  4  1  1  0  0  0  0
  4  7  1  0  0  0  0
  5 12  1  0  0  0  0
  6  8  2  0  0  0  0
  7  9  1  6  0  0  0
  7 10  1  0  0  0  0
  8  5  2  0  0  0  0
 11  2  1  0  0  0  0
 12 19  1  1  0  0  0
 12  9  1  0  0  0  0
 13 10  1  0  0  0  0
 14  6  1  0  0  0  0
 14 11  2  0  0  0  0
 15 16  1  0  0  0  0
 16  6  1  0  0  0  0
 17 18  1  0  0  0  0
 18 16  1  0  0  0  0
 20 19  1  0  0  0  0
 21 22  2  0  0  0  0
 22 23  1  0  0  0  0
 25 24  2  6  0  0  0
 25 28  1  0  0  0  0
 25 23  1  0  0  0  0
 26 25  1  0  0  0  0
 27 29  1  0  0  0  0
 27 28  1  0  0  0  0
 28 31  1  0  0  0  0
 29 32  1  0  0  0  0
 31 30  1  0  0  0  0
 32 30  1  0  0  0  0
M  END
>  <MODEL>
8

>  <REMARK>
 VINA RESULT:      -6.5      3.467      4.303
  Name = 
  7 active torsions:
  status: ('A' for Active; 'I' for Inactive)
    1  A    between atoms: C_1  and  C_27
    2  A    between atoms: C_7  and  P_22
    3  A    between atoms: C_10  and  N_12
    4  A    between atoms: N_12  and  C_31
    5  A    between atoms: C_13  and  C_29
    6  A    between atoms: O_16  and  P_22
    7  A    between atoms: O_16  and  C_27
                            x       y       z     vdW  Elec       q    Type
                         _______ _______ _______ _____ _____    ______ ____

>  <TORSDO>
F 7

$$$$
=
 OpenBabel11062408193D

 32 34  0  0  1  0  0  0  0  0999 V2000
  160.9130  208.9850  151.5620 C   0  0  1  0  0  3  0  0  0  0  0  0
  162.7080  207.2370  150.8420 C   0  0  0  0  0  2  0  0  0  0  0  0
  161.0890  210.3420  151.1900 O   0  0  0  0  0  0  0  0  0  0  0  0
  161.3710  207.9230  150.5130 C   0  0  2  0  0  3  0  0  0  0  0  0
  161.7620  205.2790  148.3560 C   0  0  0  0  0  3  0  0  0  0  0  0
  161.3670  204.4430  150.7990 C   0  0  0  0  0  0  0  0  0  0  0  0
  161.4230  208.6000  149.1260 C   0  0  2  0  0  3  0  0  0  0  0  0
  161.5700  204.8550  149.5730 C   0  0  0  0  0  0  0  0  0  0  0  0
  161.8820  207.6920  147.9860 C   0  0  0  0  0  2  0  0  0  0  0  0
  162.2710  209.8760  149.1400 C   0  0  0  0  0  2  0  0  0  0  0  0
  162.5740  206.3030  151.9570 N   0  0  0  0  0  0  0  0  0  0  0  0
  161.0040  206.4570  147.8590 C   0  0  1  0  0  3  0  0  0  0  0  0
  162.3300  210.4860  150.5410 C   0  0  0  0  0  2  0  0  0  0  0  0
  161.9970  205.1340  151.9550 C   0  0  0  0  0  3  0  0  0  0  0  0
  160.3320  202.7850  152.3860 C   0  0  0  0  0  1  0  0  0  0  0  0
  160.5810  203.2550  151.0320 N   0  0  0  0  0  0  0  0  0  0  0  0
  160.9520  201.1900  149.7750 C   0  0  0  0  0  1  0  0  0  0  0  0
  160.0820  202.4230  149.9400 C   0  0  0  0  0  2  0  0  0  0  0  0
  160.6230  206.2270  146.4080 C   0  0  0  0  0  2  0  0  0  0  0  0
  161.7760  205.5930  145.6520 C   0  0  0  0  0  1  0  0  0  0  0  0
  162.3250  209.2770  153.4560 O   0  0  0  0  0  0  0  0  0  0  0  0
  161.2850  208.7410  152.9890 C   0  0  0  0  0  0  0  0  0  0  0  0
  160.4660  207.9390  153.7870 O   0  0  0  0  0  0  0  0  0  0  0  0
  161.7060  208.0510  156.1200 O   0  0  0  0  0  0  0  0  0  0  0  0
  160.3360  208.1520  155.4890 P   0  0  2  0  0  0  0  0  0  0  0  0
  159.3310  206.9540  156.1320 O   0  0  0  0  0  1  0  0  0  0  0  0
  160.7130  210.7120  156.4070 C   0  0  0  0  0  2  0  0  0  0  0  0
  159.6300  209.7870  155.8330 C   0  0  0  0  0  3  0  0  0  0  0  0
  160.4560  212.1990  156.1350 C   0  0  0  0  0  2  0  0  0  0  0  0
  158.3510  211.7220  154.8290 C   0  0  0  0  0  2  0  0  0  0  0  0
  159.0270  210.3710  154.5590 C   0  0  0  0  0  2  0  0  0  0  0  0
  158.9680  212.4950  156.0010 C   0  0  0  0  0  2  0  0  0  0  0  0
  1 22  1  1  0  0  0
  2 11  1  0  0  0  0
  3  1  1  0  0  0  0
  4  2  1  1  0  0  0
  4  1  1  0  0  0  0
  5  8  2  0  0  0  0
  6 16  1  0  0  0  0
  6 14  1  0  0  0  0
  7  9  1  6  0  0  0
  7 10  1  0  0  0  0
  7  4  1  0  0  0  0
  8  6  2  0  0  0  0
 10 13  1  0  0  0  0
 12 19  1  6  0  0  0
 12  9  1  0  0  0  0
 12  5  1  0  0  0  0
 13  3  1  0  0  0  0
 14 11  2  0  0  0  0
 16 15  1  0  0  0  0
 17 18  1  0  0  0  0
 18 16  1  0  0  0  0
 20 19  1  0  0  0  0
 22 21  2  0  0  0  0
 22 23  1  0  0  0  0
 23 25  1  0  0  0  0
 25 28  1  0  0  0  0
 25 24  2  1  0  0  0
 25 26  1  0  0  0  0
 28 27  1  0  0  0  0
 29 27  1  0  0  0  0
 30 32  1  0  0  0  0
 31 30  1  0  0  0  0
 31 28  1  0  0  0  0
 32 29  1  0  0  0  0
M  END
>  <MODEL>
9

>  <REMARK>
 VINA RESULT:      -6.1      2.385      4.664
  Name = 
  7 active torsions:
  status: ('A' for Active; 'I' for Inactive)
    1  A    between atoms: C_1  and  C_27
    2  A    between atoms: C_7  and  P_22
    3  A    between atoms: C_10  and  N_12
    4  A    between atoms: N_12  and  C_31
    5  A    between atoms: C_13  and  C_29
    6  A    between atoms: O_16  and  P_22
    7  A    between atoms: O_16  and  C_27
                            x       y       z     vdW  Elec       q    Type
                         _______ _______ _______ _____ _____    ______ ____

>  <TORSDO>
F 7

$$$$
