=
 OpenBabel11052422133D

 25 28  0  0  1  0  0  0  0  0999 V2000
  161.2070  205.1830  148.6040 N   0  0  0  0  0  0  0  0  0  0  0  0
  160.8050  206.3940  149.3270 C   0  0  2  0  0  3  0  0  0  0  0  0
  161.1650  203.8100  150.5760 C   0  0  0  0  0  3  0  0  0  0  0  0
  161.0960  204.9870  147.2010 C   0  0  0  0  0  0  0  0  0  0  0  0
  160.8420  204.3210  144.5100 C   0  0  0  0  0  3  0  0  0  0  0  0
  161.1160  205.0390  151.3920 C   0  0  0  0  0  3  0  0  0  0  0  0
  161.1190  203.6570  146.8100 C   0  0  0  0  0  0  0  0  0  0  0  0
  160.9900  203.3060  145.4660 C   0  0  0  0  0  3  0  0  0  0  0  0
  161.0920  207.4910  151.5920 C   0  0  0  0  0  0  0  0  0  0  0  0
  160.8120  207.5170  153.3250 Cl  0  0  0  0  0  0  0  0  0  0  0  0
  161.5050  207.5780  148.8240 N   0  0  0  0  0  0  0  0  0  0  0  0
  160.8160  205.6680  144.9050 C   0  0  0  0  0  3  0  0  0  0  0  0
  161.2340  203.9080  149.2490 C   0  0  0  0  0  0  0  0  0  0  0  0
  161.2800  202.4830  148.1560 S   0  0  0  0  0  0  0  0  0  0  0  0
  161.4330  208.5890  150.9830 N   0  0  0  0  0  0  0  0  0  0  0  0
  160.9390  206.0090  146.2590 C   0  0  0  0  0  3  0  0  0  0  0  0
  161.7370  208.6160  149.5770 C   0  0  0  0  0  0  0  0  0  0  0  0
  161.0050  206.2440  150.8180 C   0  0  0  0  0  0  0  0  0  0  0  0
  162.3560  209.8310  148.9830 C   0  0  0  0  0  2  0  0  0  0  0  0
  161.9270  211.0610  149.7640 C   0  0  0  0  0  2  0  0  0  0  0  0
  160.9290  213.2540  149.0280 C   0  0  0  0  0  0  0  0  0  0  0  0
  160.0250  213.1490  149.9000 O   0  0  0  0  0  0  0  0  0  0  0  0
  160.9340  214.4520  148.1410 C   0  0  0  0  0  1  0  0  0  0  0  0
  161.9330  212.2330  148.9000 N   0  0  0  0  0  0  0  0  0  0  0  0
  162.9190  212.2860  147.8320 C   0  0  0  0  0  1  0  0  0  0  0  0
  1 13  1  0  0  0  0
  1  2  1  0  0  0  0
  2 11  1  6  0  0  0
  2 18  1  0  0  0  0
  3  6  1  0  0  0  0
  4  1  1  0  0  0  0
  5 12  2  0  0  0  0
  5  8  1  0  0  0  0
  7  4  1  0  0  0  0
  7 14  1  0  0  0  0
  8  7  2  0  0  0  0
  9 10  1  0  0  0  0
 11 17  2  0  0  0  0
 12 16  1  0  0  0  0
 13  3  2  0  0  0  0
 14 13  1  0  0  0  0
 15  9  2  0  0  0  0
 16  4  2  0  0  0  0
 17 15  1  0  0  0  0
 18  6  2  0  0  0  0
 18  9  1  0  0  0  0
 19 17  1  0  0  0  0
 19 20  1  0  0  0  0
 21 22  2  0  0  0  0
 23 21  1  0  0  0  0
 24 21  1  0  0  0  0
 24 20  1  0  0  0  0
 25 24  1  0  0  0  0
M  END
>  <MODEL>
1

>  <REMARK>
 VINA RESULT:      -8.8      0.000      0.000
  Name = 
  3 active torsions:
  status: ('A' for Active; 'I' for Inactive)
    1  A    between atoms: C_6  and  C_15
    2  A    between atoms: C_6  and  C_23
    3  A    between atoms: C_15  and  N_21
                            x       y       z     vdW  Elec       q    Type
                         _______ _______ _______ _____ _____    ______ ____

>  <TORSDO>
F 3

$$$$
=
 OpenBabel11052422133D

 25 28  0  0  1  0  0  0  0  0999 V2000
  161.2370  205.5160  149.8030 N   0  0  0  0  0  0  0  0  0  0  0  0
  161.8320  206.4810  150.7330 C   0  0  2  0  0  3  0  0  0  0  0  0
  161.3930  207.0020  147.9220 C   0  0  0  0  0  3  0  0  0  0  0  0
  161.1570  204.1130  150.0140 C   0  0  0  0  0  0  0  0  0  0  0  0
  161.0200  201.3350  150.1370 C   0  0  0  0  0  3  0  0  0  0  0  0
  161.6530  208.1120  148.8600 C   0  0  0  0  0  3  0  0  0  0  0  0
  160.9650  203.3750  148.8550 C   0  0  0  0  0  0  0  0  0  0  0  0
  160.8980  201.9830  148.8990 C   0  0  0  0  0  3  0  0  0  0  0  0
  161.9240  208.9790  151.1470 C   0  0  0  0  0  0  0  0  0  0  0  0
  162.4150  210.5920  150.6590 Cl  0  0  0  0  0  0  0  0  0  0  0  0
  161.1860  206.4320  152.0470 N   0  0  0  0  0  0  0  0  0  0  0  0
  161.2160  202.0810  151.3100 C   0  0  0  0  0  3  0  0  0  0  0  0
  161.1720  205.7780  148.4010 C   0  0  0  0  0  0  0  0  0  0  0  0
  160.8640  204.3510  147.3540 S   0  0  0  0  0  0  0  0  0  0  0  0
  161.6130  208.7540  152.3900 N   0  0  0  0  0  0  0  0  0  0  0  0
  161.2900  203.4790  151.2540 C   0  0  0  0  0  3  0  0  0  0  0  0
  161.1440  207.4690  152.8360 C   0  0  0  0  0  0  0  0  0  0  0  0
  161.8030  207.8840  150.1720 C   0  0  0  0  0  0  0  0  0  0  0  0
  160.5700  207.3300  154.2010 C   0  0  0  0  0  2  0  0  0  0  0  0
  160.3430  208.7050  154.8050 C   0  0  0  0  0  2  0  0  0  0  0  0
  162.1620  209.9210  156.0510 C   0  0  0  0  0  0  0  0  0  0  0  0
  162.3200  210.7070  155.0790 O   0  0  0  0  0  0  0  0  0  0  0  0
  163.0170  210.0960  157.2610 C   0  0  0  0  0  1  0  0  0  0  0  0
  161.1750  208.8790  155.9870 N   0  0  0  0  0  0  0  0  0  0  0  0
  161.0550  207.8980  157.0540 C   0  0  0  0  0  1  0  0  0  0  0  0
  1  4  1  0  0  0  0
  1  2  1  0  0  0  0
  2 18  1  6  0  0  0
  2 11  1  0  0  0  0
  3 13  2  0  0  0  0
  3  6  1  0  0  0  0
  4 16  1  0  0  0  0
  5 12  1  0  0  0  0
  6 18  2  0  0  0  0
  7  8  1  0  0  0  0
  7  4  2  0  0  0  0
  8  5  2  0  0  0  0
  9 15  2  0  0  0  0
 10  9  1  0  0  0  0
 11 17  2  0  0  0  0
 13  1  1  0  0  0  0
 14 13  1  0  0  0  0
 14  7  1  0  0  0  0
 15 17  1  0  0  0  0
 16 12  2  0  0  0  0
 17 19  1  0  0  0  0
 18  9  1  0  0  0  0
 19 20  1  0  0  0  0
 20 24  1  0  0  0  0
 21 23  1  0  0  0  0
 22 21  2  0  0  0  0
 24 21  1  0  0  0  0
 24 25  1  0  0  0  0
M  END
>  <MODEL>
2

>  <REMARK>
 VINA RESULT:      -8.6      3.140      5.283
  Name = 
  3 active torsions:
  status: ('A' for Active; 'I' for Inactive)
    1  A    between atoms: C_6  and  C_15
    2  A    between atoms: C_6  and  C_23
    3  A    between atoms: C_15  and  N_21
                            x       y       z     vdW  Elec       q    Type
                         _______ _______ _______ _____ _____    ______ ____

>  <TORSDO>
F 3

$$$$
=
 OpenBabel11052422133D

 25 28  0  0  1  0  0  0  0  0999 V2000
  161.3700  206.3880  149.8740 N   0  0  0  0  0  0  0  0  0  0  0  0
  161.8900  207.6290  150.4580 C   0  0  2  0  0  3  0  0  0  0  0  0
  161.7910  207.0970  147.6170 C   0  0  0  0  0  3  0  0  0  0  0  0
  161.2180  205.1550  150.5630 C   0  0  0  0  0  0  0  0  0  0  0  0
  160.9700  202.6080  151.6580 C   0  0  0  0  0  3  0  0  0  0  0  0
  161.9820  208.4730  148.1170 C   0  0  0  0  0  3  0  0  0  0  0  0
  161.1330  204.0480  149.7330 C   0  0  0  0  0  0  0  0  0  0  0  0
  161.0120  202.7640  150.2650 C   0  0  0  0  0  3  0  0  0  0  0  0
  162.0220  210.1090  149.9550 C   0  0  0  0  0  0  0  0  0  0  0  0
  162.6210  211.4410  148.9810 Cl  0  0  0  0  0  0  0  0  0  0  0  0
  161.0970  208.0520  151.6150 N   0  0  0  0  0  0  0  0  0  0  0  0
  161.0570  203.7280  152.4990 C   0  0  0  0  0  3  0  0  0  0  0  0
  161.4740  206.1270  148.4730 C   0  0  0  0  0  0  0  0  0  0  0  0
  161.2370  204.4150  147.9800 S   0  0  0  0  0  0  0  0  0  0  0  0
  161.5640  210.3440  151.1490 N   0  0  0  0  0  0  0  0  0  0  0  0
  161.1870  205.0120  151.9540 C   0  0  0  0  0  3  0  0  0  0  0  0
  161.0020  209.3030  151.9680 C   0  0  0  0  0  0  0  0  0  0  0  0
  161.9730  208.7350  149.4310 C   0  0  0  0  0  0  0  0  0  0  0  0
  160.2730  209.6610  153.2130 C   0  0  0  0  0  2  0  0  0  0  0  0
  161.2460  209.7320  154.3770 C   0  0  0  0  0  2  0  0  0  0  0  0
  160.6500  207.6870  155.7220 C   0  0  0  0  0  0  0  0  0  0  0  0
  161.1530  206.9440  154.8380 O   0  0  0  0  0  0  0  0  0  0  0  0
  160.0480  207.0560  156.9320 C   0  0  0  0  0  1  0  0  0  0  0  0
  160.6610  209.1150  155.5600 N   0  0  0  0  0  0  0  0  0  0  0  0
  159.9920  209.9800  156.5180 C   0  0  0  0  0  1  0  0  0  0  0  0
  1  2  1  0  0  0  0
  1  4  1  0  0  0  0
  2 18  1  6  0  0  0
  2 11  1  0  0  0  0
  3  6  1  0  0  0  0
  3 13  2  0  0  0  0
  4 16  1  0  0  0  0
  5 12  1  0  0  0  0
  6 18  2  0  0  0  0
  7  8  1  0  0  0  0
  7  4  2  0  0  0  0
  8  5  2  0  0  0  0
  9 15  2  0  0  0  0
 10  9  1  0  0  0  0
 11 17  2  0  0  0  0
 13  1  1  0  0  0  0
 14 13  1  0  0  0  0
 14  7  1  0  0  0  0
 15 17  1  0  0  0  0
 16 12  2  0  0  0  0
 17 19  1  0  0  0  0
 18  9  1  0  0  0  0
 19 20  1  0  0  0  0
 20 24  1  0  0  0  0
 21 23  1  0  0  0  0
 22 21  2  0  0  0  0
 24 21  1  0  0  0  0
 24 25  1  0  0  0  0
M  END
>  <MODEL>
3

>  <REMARK>
 VINA RESULT:      -8.4      3.193      5.624
  Name = 
  3 active torsions:
  status: ('A' for Active; 'I' for Inactive)
    1  A    between atoms: C_6  and  C_15
    2  A    between atoms: C_6  and  C_23
    3  A    between atoms: C_15  and  N_21
                            x       y       z     vdW  Elec       q    Type
                         _______ _______ _______ _____ _____    ______ ____

>  <TORSDO>
F 3

$$$$
=
 OpenBabel11052422133D

 25 28  0  0  1  0  0  0  0  0999 V2000
  161.3070  206.1630  151.2030 N   0  0  0  0  0  0  0  0  0  0  0  0
  160.8920  207.5230  151.5620 C   0  0  2  0  0  3  0  0  0  0  0  0
  161.0970  205.3430  153.4520 C   0  0  0  0  0  3  0  0  0  0  0  0
  161.2830  205.6150  149.8920 C   0  0  0  0  0  0  0  0  0  0  0  0
  161.1880  204.2830  147.4500 C   0  0  0  0  0  3  0  0  0  0  0  0
  161.0290  206.7410  153.9220 C   0  0  0  0  0  3  0  0  0  0  0  0
  161.2950  204.2290  149.8560 C   0  0  0  0  0  0  0  0  0  0  0  0
  161.2440  203.5460  148.6410 C   0  0  0  0  0  3  0  0  0  0  0  0
  161.0610  209.1620  153.4870 C   0  0  0  0  0  0  0  0  0  0  0  0
  160.6680  209.6350  155.1310 Cl  0  0  0  0  0  0  0  0  0  0  0  0
  161.6580  208.5310  150.8240 N   0  0  0  0  0  0  0  0  0  0  0  0
  161.1740  205.6860  147.4850 C   0  0  0  0  0  3  0  0  0  0  0  0
  161.2560  205.0970  152.1520 C   0  0  0  0  0  0  0  0  0  0  0  0
  161.3330  203.4380  151.4660 S   0  0  0  0  0  0  0  0  0  0  0  0
  161.4720  210.0630  152.6430 N   0  0  0  0  0  0  0  0  0  0  0  0
  161.2180  206.3620  148.7120 C   0  0  0  0  0  3  0  0  0  0  0  0
  161.8680  209.7260  151.3020 C   0  0  0  0  0  0  0  0  0  0  0  0
  160.9900  207.7590  153.0520 C   0  0  0  0  0  0  0  0  0  0  0  0
  162.5590  210.7410  150.4630 C   0  0  0  0  0  2  0  0  0  0  0  0
  161.8270  210.9000  149.1420 C   0  0  0  0  0  2  0  0  0  0  0  0
  162.6990  212.9480  147.9630 C   0  0  0  0  0  0  0  0  0  0  0  0
  163.6760  212.2900  147.5160 O   0  0  0  0  0  0  0  0  0  0  0  0
  162.5870  214.3930  147.6110 C   0  0  0  0  0  1  0  0  0  0  0  0
  161.7160  212.3100  148.7950 N   0  0  0  0  0  0  0  0  0  0  0  0
  160.6430  213.0790  149.4050 C   0  0  0  0  0  1  0  0  0  0  0  0
  1  2  1  0  0  0  0
  1 13  1  0  0  0  0
  2 11  1  6  0  0  0
  2 18  1  0  0  0  0
  3  6  1  0  0  0  0
  4  1  1  0  0  0  0
  5 12  2  0  0  0  0
  5  8  1  0  0  0  0
  7  4  1  0  0  0  0
  7 14  1  0  0  0  0
  8  7  2  0  0  0  0
  9 10  1  0  0  0  0
 11 17  2  0  0  0  0
 12 16  1  0  0  0  0
 13  3  2  0  0  0  0
 14 13  1  0  0  0  0
 15  9  2  0  0  0  0
 16  4  2  0  0  0  0
 17 15  1  0  0  0  0
 18  9  1  0  0  0  0
 18  6  2  0  0  0  0
 19 17  1  0  0  0  0
 20 19  1  0  0  0  0
 21 24  1  0  0  0  0
 22 21  2  0  0  0  0
 23 21  1  0  0  0  0
 24 20  1  0  0  0  0
 24 25  1  0  0  0  0
M  END
>  <MODEL>
4

>  <REMARK>
 VINA RESULT:      -8.4      1.890      2.679
  Name = 
  3 active torsions:
  status: ('A' for Active; 'I' for Inactive)
    1  A    between atoms: C_6  and  C_15
    2  A    between atoms: C_6  and  C_23
    3  A    between atoms: C_15  and  N_21
                            x       y       z     vdW  Elec       q    Type
                         _______ _______ _______ _____ _____    ______ ____

>  <TORSDO>
F 3

$$$$
=
 OpenBabel11052422133D

 25 28  0  0  1  0  0  0  0  0999 V2000
  161.2520  205.6640  149.7010 N   0  0  0  0  0  0  0  0  0  0  0  0
  161.8590  206.7320  150.5020 C   0  0  2  0  0  3  0  0  0  0  0  0
  161.3580  206.9270  147.6600 C   0  0  0  0  0  3  0  0  0  0  0  0
  161.1870  204.2930  150.0720 C   0  0  0  0  0  0  0  0  0  0  0  0
  161.0730  201.5470  150.5120 C   0  0  0  0  0  3  0  0  0  0  0  0
  161.6290  208.1380  148.4600 C   0  0  0  0  0  3  0  0  0  0  0  0
  160.9770  203.4280  149.0080 C   0  0  0  0  0  0  0  0  0  0  0  0
  160.9200  202.0490  149.2120 C   0  0  0  0  0  3  0  0  0  0  0  0
  161.9410  209.2610  150.6270 C   0  0  0  0  0  0  0  0  0  0  0  0
  162.4090  210.8110  149.9480 Cl  0  0  0  0  0  0  0  0  0  0  0  0
  161.2410  206.8290  151.8260 N   0  0  0  0  0  0  0  0  0  0  0  0
  161.2870  202.4220  151.5880 C   0  0  0  0  0  3  0  0  0  0  0  0
  161.1560  205.7640  148.2790 C   0  0  0  0  0  0  0  0  0  0  0  0
  160.8370  204.2260  147.4080 S   0  0  0  0  0  0  0  0  0  0  0  0
  161.6570  209.1770  151.8930 N   0  0  0  0  0  0  0  0  0  0  0  0
  161.3500  203.8060  151.3720 C   0  0  0  0  0  3  0  0  0  0  0  0
  161.2070  207.9490  152.4930 C   0  0  0  0  0  0  0  0  0  0  0  0
  161.8080  208.0620  149.7850 C   0  0  0  0  0  0  0  0  0  0  0  0
  160.6620  207.9640  153.8770 C   0  0  0  0  0  2  0  0  0  0  0  0
  161.1660  209.1920  154.6140 C   0  0  0  0  0  2  0  0  0  0  0  0
  159.1930  210.7260  154.9330 C   0  0  0  0  0  0  0  0  0  0  0  0
  159.2910  211.1200  153.7410 O   0  0  0  0  0  0  0  0  0  0  0  0
  158.1130  211.2950  155.7900 C   0  0  0  0  0  1  0  0  0  0  0  0
  160.1090  209.7460  155.4490 N   0  0  0  0  0  0  0  0  0  0  0  0
  160.0770  209.3600  156.8510 C   0  0  0  0  0  1  0  0  0  0  0  0
  1  4  1  0  0  0  0
  1  2  1  0  0  0  0
  2 18  1  6  0  0  0
  2 11  1  0  0  0  0
  3 13  2  0  0  0  0
  3  6  1  0  0  0  0
  4 16  1  0  0  0  0
  5 12  1  0  0  0  0
  6 18  2  0  0  0  0
  7  8  1  0  0  0  0
  7  4  2  0  0  0  0
  8  5  2  0  0  0  0
  9 15  2  0  0  0  0
 10  9  1  0  0  0  0
 11 17  2  0  0  0  0
 13  1  1  0  0  0  0
 14 13  1  0  0  0  0
 14  7  1  0  0  0  0
 15 17  1  0  0  0  0
 16 12  2  0  0  0  0
 17 19  1  0  0  0  0
 18  9  1  0  0  0  0
 19 20  1  0  0  0  0
 20 24  1  0  0  0  0
 21 24  1  0  0  0  0
 21 23  1  0  0  0  0
 22 21  2  0  0  0  0
 24 25  1  0  0  0  0
M  END
>  <MODEL>
5

>  <REMARK>
 VINA RESULT:      -8.2      2.945      4.946
  Name = 
  3 active torsions:
  status: ('A' for Active; 'I' for Inactive)
    1  A    between atoms: C_6  and  C_15
    2  A    between atoms: C_6  and  C_23
    3  A    between atoms: C_15  and  N_21
                            x       y       z     vdW  Elec       q    Type
                         _______ _______ _______ _____ _____    ______ ____

>  <TORSDO>
F 3

$$$$
=
 OpenBabel11052422133D

 25 28  0  0  1  0  0  0  0  0999 V2000
  161.2030  204.4880  148.7440 N   0  0  0  0  0  0  0  0  0  0  0  0
  160.8000  205.4850  149.7420 C   0  0  2  0  0  3  0  0  0  0  0  0
  161.1800  202.6770  150.3220 C   0  0  0  0  0  3  0  0  0  0  0  0
  161.0850  204.6400  147.3360 C   0  0  0  0  0  0  0  0  0  0  0  0
  160.8170  204.6490  144.5650 C   0  0  0  0  0  3  0  0  0  0  0  0
  161.1310  203.6690  151.4130 C   0  0  0  0  0  3  0  0  0  0  0  0
  161.1120  203.4450  146.6320 C   0  0  0  0  0  0  0  0  0  0  0  0
  160.9750  203.4320  145.2440 C   0  0  0  0  0  3  0  0  0  0  0  0
  161.0970  205.9990  152.2050 C   0  0  0  0  0  0  0  0  0  0  0  0
  160.8270  205.5990  153.8930 Cl  0  0  0  0  0  0  0  0  0  0  0  0
  161.4920  206.7600  149.5390 N   0  0  0  0  0  0  0  0  0  0  0  0
  160.7870  205.8580  145.2770 C   0  0  0  0  0  3  0  0  0  0  0  0
  161.2410  203.0960  149.0580 C   0  0  0  0  0  0  0  0  0  0  0  0
  161.2860  201.9800  147.6510 S   0  0  0  0  0  0  0  0  0  0  0  0
  161.4290  207.2140  151.8800 N   0  0  0  0  0  0  0  0  0  0  0  0
  160.9180  205.8600  146.6720 C   0  0  0  0  0  3  0  0  0  0  0  0
  161.7240  207.5850  150.5210 C   0  0  0  0  0  0  0  0  0  0  0  0
  161.0100  204.9770  151.1500 C   0  0  0  0  0  0  0  0  0  0  0  0
  162.3340  208.9110  150.2380 C   0  0  0  0  0  2  0  0  0  0  0  0
  162.3340  209.7560  151.5000 C   0  0  0  0  0  2  0  0  0  0  0  0
  160.2570  210.8160  152.4530 C   0  0  0  0  0  0  0  0  0  0  0  0
  160.2730  210.0070  153.4190 O   0  0  0  0  0  0  0  0  0  0  0  0
  159.1690  211.8340  152.3880 C   0  0  0  0  0  1  0  0  0  0  0  0
  161.2740  210.7520  151.4390 N   0  0  0  0  0  0  0  0  0  0  0  0
  161.2100  211.6070  150.2650 C   0  0  0  0  0  1  0  0  0  0  0  0
  1 13  1  0  0  0  0
  1  2  1  0  0  0  0
  2 11  1  6  0  0  0
  2 18  1  0  0  0  0
  3  6  1  0  0  0  0
  4  1  1  0  0  0  0
  5  8  2  0  0  0  0
  5 12  1  0  0  0  0
  7  4  2  0  0  0  0
  7 14  1  0  0  0  0
  8  7  1  0  0  0  0
  9 10  1  0  0  0  0
 11 17  2  0  0  0  0
 12 16  2  0  0  0  0
 13  3  2  0  0  0  0
 14 13  1  0  0  0  0
 15  9  2  0  0  0  0
 16  4  1  0  0  0  0
 17 15  1  0  0  0  0
 18  6  2  0  0  0  0
 18  9  1  0  0  0  0
 19 17  1  0  0  0  0
 19 20  1  0  0  0  0
 21 22  2  0  0  0  0
 23 21  1  0  0  0  0
 24 20  1  0  0  0  0
 24 21  1  0  0  0  0
 25 24  1  0  0  0  0
M  END
>  <MODEL>
6

>  <REMARK>
 VINA RESULT:      -8.2      1.760      2.144
  Name = 
  3 active torsions:
  status: ('A' for Active; 'I' for Inactive)
    1  A    between atoms: C_6  and  C_15
    2  A    between atoms: C_6  and  C_23
    3  A    between atoms: C_15  and  N_21
                            x       y       z     vdW  Elec       q    Type
                         _______ _______ _______ _____ _____    ______ ____

>  <TORSDO>
F 3

$$$$
=
 OpenBabel11052422133D

 25 28  0  0  1  0  0  0  0  0999 V2000
  161.3740  208.5390  153.2990 N   0  0  0  0  0  0  0  0  0  0  0  0
  160.9160  207.8820  152.0700 C   0  0  2  0  0  3  0  0  0  0  0  0
  162.1570  210.4940  152.1410 C   0  0  0  0  0  3  0  0  0  0  0  0
  160.9460  208.2140  154.6140 C   0  0  0  0  0  0  0  0  0  0  0  0
  160.1520  207.8560  157.2580 C   0  0  0  0  0  3  0  0  0  0  0  0
  162.0510  209.7470  150.8720 C   0  0  0  0  0  3  0  0  0  0  0  0
  161.1620  209.2180  155.5460 C   0  0  0  0  0  0  0  0  0  0  0  0
  160.7670  209.0560  156.8740 C   0  0  0  0  0  3  0  0  0  0  0  0
  161.5340  207.6920  149.6210 C   0  0  0  0  0  0  0  0  0  0  0  0
  161.7190  208.4130  148.0300 Cl  0  0  0  0  0  0  0  0  0  0  0  0
  161.1780  206.4410  152.1010 N   0  0  0  0  0  0  0  0  0  0  0  0
  159.9310  206.8400  156.3150 C   0  0  0  0  0  3  0  0  0  0  0  0
  161.8520  209.8850  153.2870 C   0  0  0  0  0  0  0  0  0  0  0  0
  161.9270  210.7010  154.8860 S   0  0  0  0  0  0  0  0  0  0  0  0
  161.4500  206.3990  149.7310 N   0  0  0  0  0  0  0  0  0  0  0  0
  160.3250  207.0160  154.9820 C   0  0  0  0  0  3  0  0  0  0  0  0
  161.3610  205.7490  151.0120 C   0  0  0  0  0  0  0  0  0  0  0  0
  161.5270  208.5140  150.8400 C   0  0  0  0  0  0  0  0  0  0  0  0
  161.5170  204.2720  151.0980 C   0  0  0  0  0  2  0  0  0  0  0  0
  160.3610  203.5910  150.3850 C   0  0  0  0  0  2  0  0  0  0  0  0
  160.9150  201.3810  149.3120 C   0  0  0  0  0  0  0  0  0  0  0  0
  160.5380  200.7700  150.3470 O   0  0  0  0  0  0  0  0  0  0  0  0
  161.4230  200.5870  148.1560 C   0  0  0  0  0  1  0  0  0  0  0  0
  160.8530  202.8160  149.2560 N   0  0  0  0  0  0  0  0  0  0  0  0
  161.3830  203.5410  148.1120 C   0  0  0  0  0  1  0  0  0  0  0  0
  1  4  1  0  0  0  0
  2 18  1  6  0  0  0
  2 11  1  0  0  0  0
  2  1  1  0  0  0  0
  3 13  2  0  0  0  0
  4 16  2  0  0  0  0
  4  7  1  0  0  0  0
  6  3  1  0  0  0  0
  7  8  2  0  0  0  0
  8  5  1  0  0  0  0
  9 15  2  0  0  0  0
  9 18  1  0  0  0  0
 10  9  1  0  0  0  0
 12  5  2  0  0  0  0
 13  1  1  0  0  0  0
 13 14  1  0  0  0  0
 14  7  1  0  0  0  0
 15 17  1  0  0  0  0
 16 12  1  0  0  0  0
 17 19  1  0  0  0  0
 17 11  2  0  0  0  0
 18  6  2  0  0  0  0
 20 19  1  0  0  0  0
 21 22  2  0  0  0  0
 23 21  1  0  0  0  0
 24 21  1  0  0  0  0
 24 20  1  0  0  0  0
 25 24  1  0  0  0  0
M  END
>  <MODEL>
7

>  <REMARK>
 VINA RESULT:      -8.1      4.412      8.533
  Name = 
  3 active torsions:
  status: ('A' for Active; 'I' for Inactive)
    1  A    between atoms: C_6  and  C_15
    2  A    between atoms: C_6  and  C_23
    3  A    between atoms: C_15  and  N_21
                            x       y       z     vdW  Elec       q    Type
                         _______ _______ _______ _____ _____    ______ ____

>  <TORSDO>
F 3

$$$$
=
 OpenBabel11052422133D

 25 28  0  0  1  0  0  0  0  0999 V2000
  161.3610  206.3260  149.9070 N   0  0  0  0  0  0  0  0  0  0  0  0
  161.8880  207.5330  150.5530 C   0  0  2  0  0  3  0  0  0  0  0  0
  161.7510  207.1590  147.6880 C   0  0  0  0  0  3  0  0  0  0  0  0
  161.2190  205.0560  150.5300 C   0  0  0  0  0  0  0  0  0  0  0  0
  160.9890  202.4520  151.4850 C   0  0  0  0  0  3  0  0  0  0  0  0
  161.9470  208.5050  148.2610 C   0  0  0  0  0  3  0  0  0  0  0  0
  161.1240  203.9970  149.6400 C   0  0  0  0  0  0  0  0  0  0  0  0
  161.0120  202.6850  150.1030 C   0  0  0  0  0  3  0  0  0  0  0  0
  162.0110  210.0370  150.1860 C   0  0  0  0  0  0  0  0  0  0  0  0
  162.5950  211.4230  149.2790 Cl  0  0  0  0  0  0  0  0  0  0  0  0
  161.1110  207.8900  151.7420 N   0  0  0  0  0  0  0  0  0  0  0  0
  161.0870  203.5240  152.3860 C   0  0  0  0  0  3  0  0  0  0  0  0
  161.4470  206.1430  148.4940 C   0  0  0  0  0  0  0  0  0  0  0  0
  161.2050  204.4610  147.9100 S   0  0  0  0  0  0  0  0  0  0  0  0
  161.5690  210.2060  151.3970 N   0  0  0  0  0  0  0  0  0  0  0  0
  161.2070  204.8370  151.9110 C   0  0  0  0  0  3  0  0  0  0  0  0
  161.0190  209.1200  152.1650 C   0  0  0  0  0  0  0  0  0  0  0  0
  161.9560  208.6950  149.5870 C   0  0  0  0  0  0  0  0  0  0  0  0
  160.3060  209.4080  153.4380 C   0  0  0  0  0  2  0  0  0  0  0  0
  160.3710  210.8950  153.7390 C   0  0  0  0  0  2  0  0  0  0  0  0
  158.1610  211.4490  154.8120 C   0  0  0  0  0  0  0  0  0  0  0  0
  158.5360  210.9140  155.8890 O   0  0  0  0  0  0  0  0  0  0  0  0
  156.7950  212.0450  154.7450 C   0  0  0  0  0  1  0  0  0  0  0  0
  159.0400  211.4800  153.6750 N   0  0  0  0  0  0  0  0  0  0  0  0
  158.5840  211.9970  152.3940 C   0  0  0  0  0  1  0  0  0  0  0  0
  1  4  1  0  0  0  0
  1  2  1  0  0  0  0
  2 18  1  6  0  0  0
  2 11  1  0  0  0  0
  3  6  1  0  0  0  0
  3 13  2  0  0  0  0
  4 16  1  0  0  0  0
  5 12  1  0  0  0  0
  6 18  2  0  0  0  0
  7  8  1  0  0  0  0
  7  4  2  0  0  0  0
  8  5  2  0  0  0  0
  9 15  2  0  0  0  0
 10  9  1  0  0  0  0
 11 17  2  0  0  0  0
 13  1  1  0  0  0  0
 14 13  1  0  0  0  0
 14  7  1  0  0  0  0
 15 17  1  0  0  0  0
 16 12  2  0  0  0  0
 17 19  1  0  0  0  0
 18  9  1  0  0  0  0
 19 20  1  0  0  0  0
 21 22  2  0  0  0  0
 23 21  1  0  0  0  0
 24 20  1  0  0  0  0
 24 21  1  0  0  0  0
 25 24  1  0  0  0  0
M  END
>  <MODEL>
8

>  <REMARK>
 VINA RESULT:      -8.0      3.214      4.841
  Name = 
  3 active torsions:
  status: ('A' for Active; 'I' for Inactive)
    1  A    between atoms: C_6  and  C_15
    2  A    between atoms: C_6  and  C_23
    3  A    between atoms: C_15  and  N_21
                            x       y       z     vdW  Elec       q    Type
                         _______ _______ _______ _____ _____    ______ ____

>  <TORSDO>
F 3

$$$$
=
 OpenBabel11052422133D

 25 28  0  0  1  0  0  0  0  0999 V2000
  161.3490  207.7440  151.1610 N   0  0  0  0  0  0  0  0  0  0  0  0
  161.8440  206.4380  150.7130 C   0  0  2  0  0  3  0  0  0  0  0  0
  160.9950  207.0050  153.4200 C   0  0  0  0  0  3  0  0  0  0  0  0
  161.5720  208.9790  150.4960 C   0  0  0  0  0  0  0  0  0  0  0  0
  162.0010  211.5260  149.4570 C   0  0  0  0  0  3  0  0  0  0  0  0
  161.1360  205.6110  152.9530 C   0  0  0  0  0  3  0  0  0  0  0  0
  161.4000  210.0960  151.3010 C   0  0  0  0  0  0  0  0  0  0  0  0
  161.6140  211.3790  150.7970 C   0  0  0  0  0  3  0  0  0  0  0  0
  161.4870  203.9680  151.1550 C   0  0  0  0  0  0  0  0  0  0  0  0
  161.5910  202.5750  152.2180 Cl  0  0  0  0  0  0  0  0  0  0  0  0
  161.3730  206.1180  149.3640 N   0  0  0  0  0  0  0  0  0  0  0  0
  162.1770  210.3970  148.6420 C   0  0  0  0  0  3  0  0  0  0  0  0
  161.0760  208.0010  152.5390 C   0  0  0  0  0  0  0  0  0  0  0  0
  160.9390  209.7340  152.9960 S   0  0  0  0  0  0  0  0  0  0  0  0
  161.3700  203.7870  149.8720 N   0  0  0  0  0  0  0  0  0  0  0  0
  161.9670  209.1120  149.1610 C   0  0  0  0  0  3  0  0  0  0  0  0
  161.2170  204.8890  148.9590 C   0  0  0  0  0  0  0  0  0  0  0  0
  161.4750  205.3400  151.6850 C   0  0  0  0  0  0  0  0  0  0  0  0
  160.8400  204.6230  147.5450 C   0  0  0  0  0  2  0  0  0  0  0  0
  161.8290  203.6530  146.9230 C   0  0  0  0  0  2  0  0  0  0  0  0
  160.4290  202.3480  145.2850 C   0  0  0  0  0  0  0  0  0  0  0  0
  160.3770  203.3450  144.5160 O   0  0  0  0  0  0  0  0  0  0  0  0
  159.7300  201.0940  144.8810 C   0  0  0  0  0  1  0  0  0  0  0  0
  161.1500  202.4280  146.5260 N   0  0  0  0  0  0  0  0  0  0  0  0
  161.1300  201.3240  147.4720 C   0  0  0  0  0  1  0  0  0  0  0  0
  1 13  1  0  0  0  0
  2 11  1  6  0  0  0
  2  1  1  0  0  0  0
  2 18  1  0  0  0  0
  4  1  1  0  0  0  0
  4  7  1  0  0  0  0
  5  8  1  0  0  0  0
  6  3  1  0  0  0  0
  7 14  1  0  0  0  0
  8  7  2  0  0  0  0
  9 18  1  0  0  0  0
  9 10  1  0  0  0  0
 12 16  1  0  0  0  0
 12  5  2  0  0  0  0
 13 14  1  0  0  0  0
 13  3  2  0  0  0  0
 15  9  2  0  0  0  0
 16  4  2  0  0  0  0
 17 11  2  0  0  0  0
 17 15  1  0  0  0  0
 18  6  2  0  0  0  0
 19 17  1  0  0  0  0
 20 19  1  0  0  0  0
 21 24  1  0  0  0  0
 22 21  2  0  0  0  0
 23 21  1  0  0  0  0
 24 20  1  0  0  0  0
 24 25  1  0  0  0  0
M  END
>  <MODEL>
9

>  <REMARK>
 VINA RESULT:      -7.5      3.485      7.239
  Name = 
  3 active torsions:
  status: ('A' for Active; 'I' for Inactive)
    1  A    between atoms: C_6  and  C_15
    2  A    between atoms: C_6  and  C_23
    3  A    between atoms: C_15  and  N_21
                            x       y       z     vdW  Elec       q    Type
                         _______ _______ _______ _____ _____    ______ ____

>  <TORSDO>
F 3

$$$$
