=
 OpenBabel11062410003D

 43 48  0  0  1  0  0  0  0  0999 V2000
  161.4300  206.8890  152.0780 C   0  0  1  0  0  3  0  0  0  0  0  0
  161.4580  201.5580  148.2860 C   0  0  1  0  0  3  0  0  0  0  0  0
  162.1830  209.2830  152.3230 C   0  0  0  0  0  1  0  0  0  0  0  0
  161.1960  206.6550  149.0480 C   0  0  0  0  0  0  0  0  0  0  0  0
  162.5090  207.9280  151.7120 C   0  0  2  0  0  3  0  0  0  0  0  0
  161.5810  204.0620  147.8560 C   0  0  1  0  0  3  0  0  0  0  0  0
  160.4910  201.7470  149.4620 C   0  0  0  0  0  2  0  0  0  0  0  0
  161.2100  200.2150  147.6330 C   0  0  0  0  0  1  0  0  0  0  0  0
  161.4600  204.0870  149.3980 C   0  0  2  0  0  3  0  0  0  0  0  0
  161.3040  202.6750  147.2560 C   0  0  0  0  0  2  0  0  0  0  0  0
  160.2920  203.2150  149.8620 C   0  0  0  0  0  2  0  0  0  0  0  0
  161.5190  205.6100  151.2910 C   0  0  0  0  0  3  0  0  0  0  0  0
  161.3780  205.4850  149.9640 C   0  0  0  0  0  0  0  0  0  0  0  0
  160.8770  206.4380  147.7640 C   0  0  0  0  0  3  0  0  0  0  0  0
  161.4650  208.0610  149.5420 C   0  0  1  0  0  3  0  0  0  0  0  0
  162.7320  208.0740  150.2690 N   0  0  0  0  0  2  0  0  0  0  0  0
  160.6190  205.0650  147.2270 C   0  0  0  0  0  2  0  0  0  0  0  0
  161.4930  209.1170  148.4400 C   0  0  0  0  0  2  0  0  0  0  0  0
  161.9600  210.4490  149.0010 C   0  0  0  0  0  2  0  0  0  0  0  0
  160.8130  212.2420  148.0140 C   0  0  0  0  0  2  0  0  0  0  0  0
  161.1980  213.6950  147.8360 C   0  0  1  0  0  0  0  0  0  0  0  0
  160.6640  214.2260  146.5210 C   0  0  0  0  0  1  0  0  0  0  0  0
  163.1190  212.3390  148.2670 C   0  0  0  0  0  2  0  0  0  0  0  0
  162.0270  211.4370  147.9380 N   0  0  0  0  0  0  0  0  0  0  0  0
  160.7000  214.4530  148.8940 O   0  0  0  0  0  1  0  0  0  0  0  0
  162.7050  213.7270  147.8390 C   0  0  0  0  0  2  0  0  0  0  0  0
  161.4420  206.5240  153.8720 S   0  0  0  0  0  0  0  0  0  0  0  0
  160.4080  207.9550  154.3410 C   0  0  1  0  0  3  0  0  0  0  0  0
  159.3680  207.5180  155.3520 C   0  0  0  0  0  1  0  0  0  0  0  0
  161.2050  208.9610  154.8980 O   0  0  0  0  0  0  0  0  0  0  0  0
  160.3950  209.5860  155.8520 C   0  0  2  0  0  3  0  0  0  0  0  0
  158.4640  211.2880  155.4820 C   0  0  2  0  0  0  0  0  0  0  0  0
  159.5270  211.8000  156.2920 O   0  0  0  0  0  0  0  0  0  0  0  0
  159.9230  210.9300  155.3110 C   0  0  1  0  0  0  0  0  0  0  0  0
  158.2080  211.9970  154.2720 O   0  0  0  0  0  0  0  0  0  0  0  0
  157.6480  212.5440  155.4020 C   0  0  1  0  0  3  0  0  0  0  0  0
  160.6880  211.5740  154.3290 O   0  0  0  0  0  1  0  0  0  0  0  0
  155.5080  212.9430  156.5920 C   0  0  0  0  0  1  0  0  0  0  0  0
  155.5660  212.5610  154.2490 O   0  0  0  0  0  1  0  0  0  0  0  0
  156.1720  212.1990  155.4520 C   0  0  1  0  0  3  0  0  0  0  0  0
  161.1620  209.7450  157.1590 C   0  0  0  0  0  2  0  0  0  0  0  0
  163.0230  211.0330  156.4080 F   0  0  0  0  0  0  0  0  0  0  0  0
  162.6580  209.7940  156.9020 C   0  0  0  0  0  2  0  0  0  0  0  0
  1 27  1  1  0  0  0
  2  8  1  6  0  0  0
  2  7  1  0  0  0  0
  4 15  1  0  0  0  0
  4 13  1  0  0  0  0
  5  1  1  0  0  0  0
  5  3  1  6  0  0  0
  6 17  1  6  0  0  0
  6  9  1  0  0  0  0
  7 11  1  0  0  0  0
  9 11  1  6  0  0  0
  9 13  1  0  0  0  0
 10  6  1  0  0  0  0
 10  2  1  0  0  0  0
 12  1  1  0  0  0  0
 13 12  2  0  0  0  0
 14  4  2  0  0  0  0
 15 18  1  6  0  0  0
 15 16  1  0  0  0  0
 16  5  1  0  0  0  0
 17 14  1  0  0  0  0
 18 19  1  0  0  0  0
 21 22  1  6  0  0  0
 21 26  1  0  0  0  0
 21 20  1  0  0  0  0
 21 25  1  0  0  0  0
 24 20  1  0  0  0  0
 24 23  1  0  0  0  0
 24 19  1  0  0  0  0
 26 23  1  0  0  0  0
 27 28  1  0  0  0  0
 28 30  1  0  0  0  0
 28 29  1  1  0  0  0
 30 31  1  0  0  0  0
 31 41  1  1  0  0  0
 32 35  1  6  0  0  0
 32 33  1  0  0  0  0
 34 37  1  6  0  0  0
 34 32  1  0  0  0  0
 34 31  1  0  0  0  0
 34 33  1  0  0  0  0
 35 36  1  0  0  0  0
 36 40  1  6  0  0  0
 36 32  1  0  0  0  0
 39 40  1  0  0  0  0
 40 38  1  1  0  0  0
 42 43  1  0  0  0  0
 43 41  1  0  0  0  0
M  END
>  <MODEL>
1

>  <REMARK>
 VINA RESULT:      -7.7      0.000      0.000
  Name = 
  11 active torsions:
  status: ('A' for Active; 'I' for Inactive)
    1  A    between atoms: C_1  and  C_34
    2  A    between atoms: C_1  and  C_35
    3  A    between atoms: C_2  and  S_6
    4  A    between atoms: O_3  and  C_4
    5  A    between atoms: O_3  and  C_12
    6  A    between atoms: C_4  and  C_15
    7  A    between atoms: C_4  and  C_22
    8  A    between atoms: S_6  and  C_12
    9  A    between atoms: C_15  and  C_42
   10  A    between atoms: C_31  and  C_40
   11  A    between atoms: N_32  and  C_35
                            x       y       z     vdW  Elec       q    Type
                         _______ _______ _______ _____ _____    ______ ____

>  <TORSDO>
F 11

$$$$
=
 OpenBabel11062410003D

 43 48  0  0  1  0  0  0  0  0999 V2000
  161.7530  209.9000  149.3600 C   0  0  1  0  0  3  0  0  0  0  0  0
  161.9460  210.8090  155.8350 C   0  0  1  0  0  3  0  0  0  0  0  0
  162.1580  208.2890  147.4630 C   0  0  0  0  0  1  0  0  0  0  0  0
  161.0370  207.9800  151.6160 C   0  0  0  0  0  0  0  0  0  0  0  0
  162.5780  208.6930  148.8680 C   0  0  2  0  0  3  0  0  0  0  0  0
  161.6040  208.7950  154.3190 C   0  0  1  0  0  3  0  0  0  0  0  0
  161.1790  211.7330  154.8790 C   0  0  0  0  0  2  0  0  0  0  0  0
  161.7980  211.3100  157.2560 C   0  0  0  0  0  1  0  0  0  0  0  0
  161.7500  209.8910  153.2360 C   0  0  2  0  0  3  0  0  0  0  0  0
  161.4450  209.3690  155.7350 C   0  0  0  0  0  2  0  0  0  0  0  0
  160.8280  211.0740  153.5390 C   0  0  0  0  0  2  0  0  0  0  0  0
  161.9010  210.1850  150.8290 C   0  0  0  0  0  3  0  0  0  0  0  0
  161.5530  209.3680  151.8330 C   0  0  0  0  0  0  0  0  0  0  0  0
  160.5370  207.2970  152.6560 C   0  0  0  0  0  3  0  0  0  0  0  0
  161.1660  207.3210  150.2590 C   0  0  1  0  0  3  0  0  0  0  0  0
  162.5230  207.5290  149.7580 N   0  0  0  0  0  2  0  0  0  0  0  0
  160.4050  207.9020  154.0190 C   0  0  0  0  0  2  0  0  0  0  0  0
  160.8400  205.8290  150.2540 C   0  0  0  0  0  2  0  0  0  0  0  0
  160.9520  205.2720  148.8460 C   0  0  0  0  0  2  0  0  0  0  0  0
  160.6870  203.1440  149.7980 C   0  0  0  0  0  2  0  0  0  0  0  0
  160.4440  201.7910  149.1640 C   0  0  1  0  0  0  0  0  0  0  0  0
  161.1600  200.7060  149.9440 C   0  0  0  0  0  1  0  0  0  0  0  0
  161.3110  203.3480  147.5710 C   0  0  0  0  0  2  0  0  0  0  0  0
  161.5120  203.9320  148.8880 N   0  0  0  0  0  0  0  0  0  0  0  0
  159.0770  201.5240  149.1200 O   0  0  0  0  0  1  0  0  0  0  0  0
  161.0020  201.8820  147.7670 C   0  0  0  0  0  2  0  0  0  0  0  0
  162.1310  211.4040  148.3870 S   0  0  0  0  0  0  0  0  0  0  0  0
  160.5080  212.1950  148.6610 C   0  0  1  0  0  3  0  0  0  0  0  0
  160.4690  212.8030  150.0470 C   0  0  0  0  0  1  0  0  0  0  0  0
  160.2940  213.1950  147.7070 O   0  0  0  0  0  0  0  0  0  0  0  0
  159.9030  212.5200  146.5460 C   0  0  2  0  0  3  0  0  0  0  0  0
  160.4720  212.4220  144.0100 C   0  0  2  0  0  0  0  0  0  0  0  0
  159.8010  213.6260  144.3980 O   0  0  0  0  0  0  0  0  0  0  0  0
  160.6390  213.1060  145.3480 C   0  0  1  0  0  0  0  0  0  0  0  0
  161.7710  212.5880  143.4480 O   0  0  0  0  0  0  0  0  0  0  0  0
  160.7250  212.7840  142.5780 C   0  0  1  0  0  3  0  0  0  0  0  0
  161.7450  213.9390  145.5710 O   0  0  0  0  0  1  0  0  0  0  0  0
  159.6160  211.8650  140.5580 C   0  0  0  0  0  1  0  0  0  0  0  0
  161.8000  211.1780  141.1890 O   0  0  0  0  0  1  0  0  0  0  0  0
  160.5600  211.5570  141.7020 C   0  0  1  0  0  3  0  0  0  0  0  0
  158.3910  212.6120  146.3770 C   0  0  0  0  0  2  0  0  0  0  0  0
  157.0510  212.7300  148.3450 F   0  0  0  0  0  0  0  0  0  0  0  0
  157.7820  213.4930  147.4530 C   0  0  0  0  0  2  0  0  0  0  0  0
  1 27  1  6  0  0  0
  1 12  1  0  0  0  0
  2  8  1  1  0  0  0
  4 13  1  0  0  0  0
  4 14  2  0  0  0  0
  5  3  1  6  0  0  0
  5  1  1  0  0  0  0
  5 16  1  0  0  0  0
  6 17  1  6  0  0  0
  6 10  1  0  0  0  0
  7  2  1  0  0  0  0
  9 11  1  1  0  0  0
  9  6  1  0  0  0  0
 10  2  1  0  0  0  0
 11  7  1  0  0  0  0
 12 13  2  0  0  0  0
 13  9  1  0  0  0  0
 14 17  1  0  0  0  0
 15 18  1  1  0  0  0
 15  4  1  0  0  0  0
 16 15  1  0  0  0  0
 19 24  1  0  0  0  0
 19 18  1  0  0  0  0
 21 20  1  0  0  0  0
 21 22  1  1  0  0  0
 23 26  1  0  0  0  0
 23 24  1  0  0  0  0
 24 20  1  0  0  0  0
 25 21  1  0  0  0  0
 26 21  1  0  0  0  0
 27 28  1  0  0  0  0
 28 29  1  1  0  0  0
 30 28  1  0  0  0  0
 31 41  1  6  0  0  0
 31 30  1  0  0  0  0
 32 35  1  6  0  0  0
 32 33  1  0  0  0  0
 32 34  1  0  0  0  0
 33 34  1  0  0  0  0
 34 37  1  1  0  0  0
 34 31  1  0  0  0  0
 36 40  1  6  0  0  0
 36 35  1  0  0  0  0
 36 32  1  0  0  0  0
 39 40  1  0  0  0  0
 40 38  1  6  0  0  0
 41 43  1  0  0  0  0
 43 42  1  0  0  0  0
M  END
>  <MODEL>
2

>  <REMARK>
 VINA RESULT:      -6.5      3.821      9.710
  Name = 
  11 active torsions:
  status: ('A' for Active; 'I' for Inactive)
    1  A    between atoms: C_1  and  C_34
    2  A    between atoms: C_1  and  C_35
    3  A    between atoms: C_2  and  S_6
    4  A    between atoms: O_3  and  C_4
    5  A    between atoms: O_3  and  C_12
    6  A    between atoms: C_4  and  C_15
    7  A    between atoms: C_4  and  C_22
    8  A    between atoms: S_6  and  C_12
    9  A    between atoms: C_15  and  C_42
   10  A    between atoms: C_31  and  C_40
   11  A    between atoms: N_32  and  C_35
                            x       y       z     vdW  Elec       q    Type
                         _______ _______ _______ _____ _____    ______ ____

>  <TORSDO>
F 11

$$$$
=
 OpenBabel11062410003D

 43 48  0  0  1  0  0  0  0  0999 V2000
  161.5280  208.4150  150.2630 C   0  0  1  0  0  3  0  0  0  0  0  0
  160.7650  211.5450  155.9580 C   0  0  1  0  0  3  0  0  0  0  0  0
  162.5130  206.4070  149.0980 C   0  0  0  0  0  1  0  0  0  0  0  0
  161.0290  207.2890  153.0510 C   0  0  0  0  0  0  0  0  0  0  0  0
  162.6640  207.3710  150.2650 C   0  0  2  0  0  3  0  0  0  0  0  0
  161.0790  209.1140  155.2790 C   0  0  1  0  0  3  0  0  0  0  0  0
  159.9170  211.8440  154.7140 C   0  0  0  0  0  2  0  0  0  0  0  0
  160.3440  212.4530  157.0920 C   0  0  0  0  0  1  0  0  0  0  0  0
  161.0860  209.7600  153.8720 C   0  0  2  0  0  3  0  0  0  0  0  0
  160.6300  210.0840  156.3820 C   0  0  0  0  0  2  0  0  0  0  0  0
  159.8850  210.6920  153.7010 C   0  0  0  0  0  2  0  0  0  0  0  0
  161.4370  209.2240  151.5280 C   0  0  0  0  0  3  0  0  0  0  0  0
  161.1780  208.7480  152.7550 C   0  0  0  0  0  0  0  0  0  0  0  0
  160.5890  206.9070  154.2590 C   0  0  0  0  0  3  0  0  0  0  0  0
  161.4630  206.2540  152.0330 C   0  0  1  0  0  3  0  0  0  0  0  0
  162.7820  206.6190  151.5190 N   0  0  0  0  0  2  0  0  0  0  0  0
  160.1640  207.8930  155.3020 C   0  0  0  0  0  2  0  0  0  0  0  0
  161.4980  204.8250  152.5690 C   0  0  0  0  0  2  0  0  0  0  0  0
  160.5440  203.9460  151.7810 C   0  0  0  0  0  2  0  0  0  0  0  0
  160.7050  201.9500  150.5610 C   0  0  0  0  0  2  0  0  0  0  0  0
  160.5120  201.6630  149.0860 C   0  0  1  0  0  0  0  0  0  0  0  0
  161.4780  200.5900  148.6250 C   0  0  0  0  0  1  0  0  0  0  0  0
  160.8910  203.9920  149.4720 C   0  0  0  0  0  2  0  0  0  0  0  0
  161.2540  203.2940  150.6950 N   0  0  0  0  0  0  0  0  0  0  0  0
  159.2000  201.2590  148.8470 O   0  0  0  0  0  1  0  0  0  0  0  0
  160.7950  202.9600  148.3720 C   0  0  0  0  0  2  0  0  0  0  0  0
  161.6520  209.5280  148.8150 S   0  0  0  0  0  0  0  0  0  0  0  0
  161.9740  211.0380  149.7890 C   0  0  1  0  0  3  0  0  0  0  0  0
  163.0380  210.7530  150.8290 C   0  0  0  0  0  1  0  0  0  0  0  0
  162.4090  212.0680  148.9490 O   0  0  0  0  0  0  0  0  0  0  0  0
  161.2410  212.6750  148.4750 C   0  0  2  0  0  3  0  0  0  0  0  0
  160.2770  213.3020  146.1420 C   0  0  2  0  0  0  0  0  0  0  0  0
  160.8990  214.4010  146.8160 O   0  0  0  0  0  0  0  0  0  0  0  0
  161.4750  213.1830  147.0570 C   0  0  1  0  0  0  0  0  0  0  0  0
  160.8480  212.9400  144.8880 O   0  0  0  0  0  0  0  0  0  0  0  0
  159.9760  214.0020  144.8500 C   0  0  1  0  0  3  0  0  0  0  0  0
  162.7630  213.1040  146.5120 O   0  0  0  0  0  1  0  0  0  0  0  0
  157.5240  214.3700  144.9180 C   0  0  0  0  0  1  0  0  0  0  0  0
  158.6130  213.6680  142.9280 O   0  0  0  0  0  1  0  0  0  0  0  0
  158.6350  213.5350  144.3160 C   0  0  1  0  0  3  0  0  0  0  0  0
  160.8230  213.8010  149.4130 C   0  0  0  0  0  2  0  0  0  0  0  0
  159.4320  212.8590  151.1040 F   0  0  0  0  0  0  0  0  0  0  0  0
  159.4100  213.5780  149.9240 C   0  0  0  0  0  2  0  0  0  0  0  0
  1 27  1  6  0  0  0
  1  5  1  0  0  0  0
  1 12  1  0  0  0  0
  2 10  1  0  0  0  0
  2  8  1  1  0  0  0
  4 14  2  0  0  0  0
  5  3  1  6  0  0  0
  5 16  1  0  0  0  0
  6 17  1  6  0  0  0
  6 10  1  0  0  0  0
  7  2  1  0  0  0  0
  9 11  1  6  0  0  0
  9  6  1  0  0  0  0
 11  7  1  0  0  0  0
 12 13  2  0  0  0  0
 13  4  1  0  0  0  0
 13  9  1  0  0  0  0
 14 17  1  0  0  0  0
 15 18  1  1  0  0  0
 15  4  1  0  0  0  0
 16 15  1  0  0  0  0
 19 18  1  0  0  0  0
 20 24  1  0  0  0  0
 21 22  1  6  0  0  0
 21 20  1  0  0  0  0
 23 24  1  0  0  0  0
 24 19  1  0  0  0  0
 25 21  1  0  0  0  0
 26 21  1  0  0  0  0
 26 23  1  0  0  0  0
 27 28  1  0  0  0  0
 28 29  1  1  0  0  0
 30 28  1  0  0  0  0
 31 30  1  0  0  0  0
 31 41  1  1  0  0  0
 32 35  1  6  0  0  0
 32 33  1  0  0  0  0
 32 34  1  0  0  0  0
 33 34  1  0  0  0  0
 34 37  1  6  0  0  0
 34 31  1  0  0  0  0
 36 40  1  6  0  0  0
 36 35  1  0  0  0  0
 36 32  1  0  0  0  0
 39 40  1  0  0  0  0
 40 38  1  1  0  0  0
 41 43  1  0  0  0  0
 43 42  1  0  0  0  0
M  END
>  <MODEL>
3

>  <REMARK>
 VINA RESULT:      -6.1      3.355      8.946
  Name = 
  11 active torsions:
  status: ('A' for Active; 'I' for Inactive)
    1  A    between atoms: C_1  and  C_34
    2  A    between atoms: C_1  and  C_35
    3  A    between atoms: C_2  and  S_6
    4  A    between atoms: O_3  and  C_4
    5  A    between atoms: O_3  and  C_12
    6  A    between atoms: C_4  and  C_15
    7  A    between atoms: C_4  and  C_22
    8  A    between atoms: S_6  and  C_12
    9  A    between atoms: C_15  and  C_42
   10  A    between atoms: C_31  and  C_40
   11  A    between atoms: N_32  and  C_35
                            x       y       z     vdW  Elec       q    Type
                         _______ _______ _______ _____ _____    ______ ____

>  <TORSDO>
F 11

$$$$
=
 OpenBabel11062410003D

 43 48  0  0  1  0  0  0  0  0999 V2000
  161.1860  208.0620  152.3530 C   0  0  1  0  0  3  0  0  0  0  0  0
  161.3330  202.3690  149.1320 C   0  0  1  0  0  3  0  0  0  0  0  0
  162.0500  210.4290  152.4530 C   0  0  0  0  0  1  0  0  0  0  0  0
  161.2950  207.5240  149.3540 C   0  0  0  0  0  0  0  0  0  0  0  0
  162.3620  209.0040  152.0210 C   0  0  2  0  0  3  0  0  0  0  0  0
  161.6570  204.8060  148.4770 C   0  0  1  0  0  3  0  0  0  0  0  0
  160.2480  202.7270  150.1570 C   0  0  0  0  0  2  0  0  0  0  0  0
  161.0810  200.9790  148.5880 C   0  0  0  0  0  1  0  0  0  0  0  0
  161.3580  204.9980  149.9840 C   0  0  2  0  0  3  0  0  0  0  0  0
  161.3680  203.3790  147.9870 C   0  0  0  0  0  2  0  0  0  0  0  0
  160.0930  204.2370  150.3840 C   0  0  0  0  0  2  0  0  0  0  0  0
  161.2890  206.7050  151.7120 C   0  0  0  0  0  3  0  0  0  0  0  0
  161.2970  206.4500  150.3960 C   0  0  0  0  0  0  0  0  0  0  0  0
  161.1150  207.1910  148.0680 C   0  0  0  0  0  3  0  0  0  0  0  0
  161.5890  208.9600  149.7380 C   0  0  1  0  0  3  0  0  0  0  0  0
  162.7610  208.9870  150.6100 N   0  0  0  0  0  2  0  0  0  0  0  0
  160.8390  205.7830  147.6400 C   0  0  0  0  0  2  0  0  0  0  0  0
  161.8100  209.8920  148.5490 C   0  0  0  0  0  2  0  0  0  0  0  0
  162.2730  211.2560  149.0310 C   0  0  0  0  0  2  0  0  0  0  0  0
  160.9580  211.7820  147.1610 C   0  0  0  0  0  2  0  0  0  0  0  0
  160.0560  212.9650  146.8760 C   0  0  1  0  0  0  0  0  0  0  0  0
  160.1170  213.3340  145.4070 C   0  0  0  0  0  1  0  0  0  0  0  0
  161.5950  213.4570  148.6380 C   0  0  0  0  0  2  0  0  0  0  0  0
  162.0680  212.2450  147.9870 N   0  0  0  0  0  0  0  0  0  0  0  0
  158.7450  212.6620  147.2380 O   0  0  0  0  0  1  0  0  0  0  0  0
  160.5800  214.0970  147.7210 C   0  0  0  0  0  2  0  0  0  0  0  0
  160.9650  207.8870  154.1610 S   0  0  0  0  0  0  0  0  0  0  0  0
  160.2960  209.5670  154.4130 C   0  0  1  0  0  3  0  0  0  0  0  0
  159.4230  209.9460  153.2350 C   0  0  0  0  0  1  0  0  0  0  0  0
  159.5370  209.6110  155.5880 O   0  0  0  0  0  0  0  0  0  0  0  0
  160.2830  210.3900  156.4790 C   0  0  2  0  0  3  0  0  0  0  0  0
  158.3700  212.0340  155.8450 C   0  0  2  0  0  0  0  0  0  0  0  0
  158.5240  211.8560  157.2580 O   0  0  0  0  0  0  0  0  0  0  0  0
  159.6900  211.7920  156.5420 C   0  0  1  0  0  0  0  0  0  0  0  0
  158.5490  213.3640  155.3640 O   0  0  0  0  0  0  0  0  0  0  0  0
  157.3080  213.0920  155.8910 C   0  0  1  0  0  3  0  0  0  0  0  0
  160.5330  212.8730  156.8320 O   0  0  0  0  0  1  0  0  0  0  0  0
  155.2290  213.9230  154.8230 C   0  0  0  0  0  1  0  0  0  0  0  0
  156.9780  212.9600  153.5380 O   0  0  0  0  0  1  0  0  0  0  0  0
  156.3180  212.8720  154.7630 C   0  0  1  0  0  3  0  0  0  0  0  0
  161.7440  210.4170  156.0470 C   0  0  0  0  0  2  0  0  0  0  0  0
  163.7930  210.6370  157.2470 F   0  0  0  0  0  0  0  0  0  0  0  0
  162.6400  209.8800  157.1500 C   0  0  0  0  0  2  0  0  0  0  0  0
  1 27  1  1  0  0  0
  2  8  1  6  0  0  0
  2  7  1  0  0  0  0
  4 15  1  0  0  0  0
  4 13  1  0  0  0  0
  5  1  1  0  0  0  0
  5  3  1  6  0  0  0
  6 17  1  6  0  0  0
  6  9  1  0  0  0  0
  7 11  1  0  0  0  0
  9 11  1  6  0  0  0
  9 13  1  0  0  0  0
 10  6  1  0  0  0  0
 10  2  1  0  0  0  0
 12  1  1  0  0  0  0
 13 12  2  0  0  0  0
 14  4  2  0  0  0  0
 15 18  1  6  0  0  0
 15 16  1  0  0  0  0
 16  5  1  0  0  0  0
 17 14  1  0  0  0  0
 18 19  1  0  0  0  0
 20 24  1  0  0  0  0
 21 22  1  6  0  0  0
 21 20  1  0  0  0  0
 21 25  1  0  0  0  0
 21 26  1  0  0  0  0
 24 23  1  0  0  0  0
 24 19  1  0  0  0  0
 26 23  1  0  0  0  0
 27 28  1  0  0  0  0
 28 29  1  6  0  0  0
 28 30  1  0  0  0  0
 30 31  1  0  0  0  0
 31 41  1  6  0  0  0
 31 34  1  0  0  0  0
 32 35  1  1  0  0  0
 32 36  1  0  0  0  0
 32 34  1  0  0  0  0
 32 33  1  0  0  0  0
 34 37  1  1  0  0  0
 34 33  1  0  0  0  0
 35 36  1  0  0  0  0
 36 40  1  6  0  0  0
 39 40  1  0  0  0  0
 40 38  1  6  0  0  0
 41 43  1  0  0  0  0
 43 42  1  0  0  0  0
M  END
>  <MODEL>
4

>  <REMARK>
 VINA RESULT:      -6.1      1.302      1.479
  Name = 
  11 active torsions:
  status: ('A' for Active; 'I' for Inactive)
    1  A    between atoms: C_1  and  C_34
    2  A    between atoms: C_1  and  C_35
    3  A    between atoms: C_2  and  S_6
    4  A    between atoms: O_3  and  C_4
    5  A    between atoms: O_3  and  C_12
    6  A    between atoms: C_4  and  C_15
    7  A    between atoms: C_4  and  C_22
    8  A    between atoms: S_6  and  C_12
    9  A    between atoms: C_15  and  C_42
   10  A    between atoms: C_31  and  C_40
   11  A    between atoms: N_32  and  C_35
                            x       y       z     vdW  Elec       q    Type
                         _______ _______ _______ _____ _____    ______ ____

>  <TORSDO>
F 11

$$$$
=
 OpenBabel11062410003D

 43 48  0  0  1  0  0  0  0  0999 V2000
  162.2330  209.9940  150.1070 C   0  0  1  0  0  3  0  0  0  0  0  0
  161.2140  204.4340  146.8140 C   0  0  1  0  0  3  0  0  0  0  0  0
  161.4850  211.4560  152.0210 C   0  0  0  0  0  1  0  0  0  0  0  0
  161.4580  207.2340  151.1420 C   0  0  0  0  0  0  0  0  0  0  0  0
  161.0430  210.4340  150.9840 C   0  0  2  0  0  3  0  0  0  0  0  0
  160.8310  205.1910  149.2120 C   0  0  1  0  0  3  0  0  0  0  0  0
  162.5060  205.2540  146.6990 C   0  0  0  0  0  2  0  0  0  0  0  0
  161.2990  203.2210  145.9120 C   0  0  0  0  0  1  0  0  0  0  0  0
  161.4550  206.4890  148.6460 C   0  0  2  0  0  3  0  0  0  0  0  0
  160.9620  203.9960  148.2550 C   0  0  0  0  0  2  0  0  0  0  0  0
  162.7540  206.1810  147.8970 C   0  0  0  0  0  2  0  0  0  0  0  0
  161.9510  208.7890  149.2530 C   0  0  0  0  0  3  0  0  0  0  0  0
  161.6500  207.5590  149.6940 C   0  0  0  0  0  0  0  0  0  0  0  0
  161.3440  205.9510  151.5160 C   0  0  0  0  0  3  0  0  0  0  0  0
  161.2990  208.3440  152.1590 C   0  0  1  0  0  3  0  0  0  0  0  0
  160.3460  209.3250  151.6460 N   0  0  0  0  0  2  0  0  0  0  0  0
  161.4780  204.8210  150.5420 C   0  0  0  0  0  2  0  0  0  0  0  0
  160.8530  207.8690  153.5400 C   0  0  0  0  0  2  0  0  0  0  0  0
  161.9610  208.0910  154.5540 C   0  0  0  0  0  2  0  0  0  0  0  0
  161.6720  210.2380  155.4530 C   0  0  0  0  0  2  0  0  0  0  0  0
  160.4210  210.9950  155.8490 C   0  0  1  0  0  0  0  0  0  0  0  0
  160.6860  211.8510  157.0710 C   0  0  0  0  0  1  0  0  0  0  0  0
  159.9990  208.6470  155.6940 C   0  0  0  0  0  2  0  0  0  0  0  0
  161.4430  208.8190  155.7000 N   0  0  0  0  0  0  0  0  0  0  0  0
  159.9930  211.7930  154.7910 O   0  0  0  0  0  1  0  0  0  0  0  0
  159.3850  209.9460  156.1610 C   0  0  0  0  0  2  0  0  0  0  0  0
  162.8360  211.3740  149.0660 S   0  0  0  0  0  0  0  0  0  0  0  0
  161.1860  212.1040  148.7810 C   0  0  1  0  0  3  0  0  0  0  0  0
  161.2100  213.5710  149.1560 C   0  0  0  0  0  1  0  0  0  0  0  0
  160.8290  211.9720  147.4360 O   0  0  0  0  0  0  0  0  0  0  0  0
  160.3240  213.2230  147.0640 C   0  0  2  0  0  3  0  0  0  0  0  0
  158.0010  213.7310  148.1170 C   0  0  2  0  0  0  0  0  0  0  0  0
  158.2080  214.3760  146.8560 O   0  0  0  0  0  0  0  0  0  0  0  0
  158.8040  213.1490  146.9770 C   0  0  1  0  0  0  0  0  0  0  0  0
  156.9040  212.8220  148.1770 O   0  0  0  0  0  0  0  0  0  0  0  0
  156.5760  214.1490  148.3250 C   0  0  1  0  0  3  0  0  0  0  0  0
  158.2190  212.2050  146.1220 O   0  0  0  0  0  1  0  0  0  0  0  0
  154.8590  214.3730  150.1020 C   0  0  0  0  0  1  0  0  0  0  0  0
  157.0240  213.5200  150.5770 O   0  0  0  0  0  1  0  0  0  0  0  0
  156.3400  214.4500  149.7930 C   0  0  1  0  0  3  0  0  0  0  0  0
  160.9420  213.6610  145.7420 C   0  0  0  0  0  2  0  0  0  0  0  0
  163.0440  213.8520  144.6340 F   0  0  0  0  0  0  0  0  0  0  0  0
  162.3720  213.1630  145.6270 C   0  0  0  0  0  2  0  0  0  0  0  0
  1 27  1  6  0  0  0
  1  5  1  0  0  0  0
  2  8  1  6  0  0  0
  2 10  1  0  0  0  0
  4 14  2  0  0  0  0
  4 15  1  0  0  0  0
  5 16  1  0  0  0  0
  5  3  1  1  0  0  0
  6 10  1  6  0  0  0
  6 17  1  0  0  0  0
  7  2  1  0  0  0  0
  7 11  1  0  0  0  0
  9 11  1  1  0  0  0
  9  6  1  0  0  0  0
  9 13  1  0  0  0  0
 12 13  2  0  0  0  0
 12  1  1  0  0  0  0
 13  4  1  0  0  0  0
 15 18  1  1  0  0  0
 16 15  1  0  0  0  0
 17 14  1  0  0  0  0
 18 19  1  0  0  0  0
 19 24  1  0  0  0  0
 20 24  1  0  0  0  0
 20 21  1  0  0  0  0
 21 26  1  0  0  0  0
 21 22  1  1  0  0  0
 23 24  1  0  0  0  0
 23 26  1  0  0  0  0
 25 21  1  0  0  0  0
 28 27  1  0  0  0  0
 28 29  1  6  0  0  0
 30 28  1  0  0  0  0
 31 41  1  6  0  0  0
 31 30  1  0  0  0  0
 32 33  1  6  0  0  0
 32 35  1  0  0  0  0
 32 36  1  0  0  0  0
 33 34  1  0  0  0  0
 34 37  1  6  0  0  0
 34 31  1  0  0  0  0
 34 32  1  0  0  0  0
 35 36  1  0  0  0  0
 36 40  1  1  0  0  0
 40 38  1  6  0  0  0
 40 39  1  0  0  0  0
 42 43  1  0  0  0  0
 43 41  1  0  0  0  0
M  END
>  <MODEL>
5

>  <REMARK>
 VINA RESULT:      -5.9      3.260      6.871
  Name = 
  11 active torsions:
  status: ('A' for Active; 'I' for Inactive)
    1  A    between atoms: C_1  and  C_34
    2  A    between atoms: C_1  and  C_35
    3  A    between atoms: C_2  and  S_6
    4  A    between atoms: O_3  and  C_4
    5  A    between atoms: O_3  and  C_12
    6  A    between atoms: C_4  and  C_15
    7  A    between atoms: C_4  and  C_22
    8  A    between atoms: S_6  and  C_12
    9  A    between atoms: C_15  and  C_42
   10  A    between atoms: C_31  and  C_40
   11  A    between atoms: N_32  and  C_35
                            x       y       z     vdW  Elec       q    Type
                         _______ _______ _______ _____ _____    ______ ____

>  <TORSDO>
F 11

$$$$
=
 OpenBabel11062410003D

 43 48  0  0  1  0  0  0  0  0999 V2000
  161.3110  208.8670  151.4760 C   0  0  1  0  0  3  0  0  0  0  0  0
  162.3040  213.6010  147.0700 C   0  0  1  0  0  3  0  0  0  0  0  0
  161.1670  208.2900  153.9260 C   0  0  0  0  0  1  0  0  0  0  0  0
  160.3970  211.7750  151.5040 C   0  0  0  0  0  0  0  0  0  0  0  0
  161.7960  209.2180  152.8970 C   0  0  2  0  0  3  0  0  0  0  0  0
  161.3810  213.5250  149.4390 C   0  0  1  0  0  3  0  0  0  0  0  0
  161.6780  212.2440  146.7200 C   0  0  0  0  0  2  0  0  0  0  0  0
  162.4050  214.4530  145.8240 C   0  0  0  0  0  1  0  0  0  0  0  0
  161.6670  212.0170  149.2430 C   0  0  2  0  0  3  0  0  0  0  0  0
  161.4870  214.3300  148.1350 C   0  0  0  0  0  2  0  0  0  0  0  0
  161.0650  211.5210  147.9260 C   0  0  0  0  0  2  0  0  0  0  0  0
  161.6550  209.9010  150.4390 C   0  0  0  0  0  3  0  0  0  0  0  0
  161.2280  211.1720  150.4160 C   0  0  0  0  0  0  0  0  0  0  0  0
  159.8560  212.9890  151.3200 C   0  0  0  0  0  3  0  0  0  0  0  0
  160.2490  211.0660  152.8340 C   0  0  1  0  0  3  0  0  0  0  0  0
  161.5650  210.6150  153.2800 N   0  0  0  0  0  2  0  0  0  0  0  0
  159.9900  213.7340  150.0280 C   0  0  0  0  0  2  0  0  0  0  0  0
  159.5990  211.9120  153.9260 C   0  0  0  0  0  2  0  0  0  0  0  0
  159.1680  211.0320  155.0860 C   0  0  0  0  0  2  0  0  0  0  0  0
  157.7480  212.8990  155.1180 C   0  0  0  0  0  2  0  0  0  0  0  0
  156.2660  213.0300  154.8360 C   0  0  1  0  0  0  0  0  0  0  0  0
  155.6470  214.0770  155.7410 C   0  0  0  0  0  1  0  0  0  0  0  0
  156.8580  210.7630  155.3080 C   0  0  0  0  0  2  0  0  0  0  0  0
  157.9840  211.5890  155.7160 N   0  0  0  0  0  0  0  0  0  0  0  0
  156.0630  213.3740  153.5010 O   0  0  0  0  0  1  0  0  0  0  0  0
  155.6690  211.6760  155.1210 C   0  0  0  0  0  2  0  0  0  0  0  0
  161.9230  207.2240  150.9510 S   0  0  0  0  0  0  0  0  0  0  0  0
  161.2250  207.3140  149.2660 C   0  0  1  0  0  3  0  0  0  0  0  0
  162.3500  207.3810  148.2550 C   0  0  0  0  0  1  0  0  0  0  0  0
  160.4370  206.1860  149.0120 O   0  0  0  0  0  0  0  0  0  0  0  0
  161.1850  205.1010  149.4830 C   0  0  2  0  0  3  0  0  0  0  0  0
  161.2350  204.6690  146.9190 C   0  0  2  0  0  0  0  0  0  0  0  0
  162.5320  204.6530  147.5260 O   0  0  0  0  0  0  0  0  0  0  0  0
  161.5230  204.1770  148.3200 C   0  0  1  0  0  0  0  0  0  0  0  0
  160.8360  203.4610  146.2770 O   0  0  0  0  0  0  0  0  0  0  0  0
  161.6560  204.2760  145.5340 C   0  0  1  0  0  3  0  0  0  0  0  0
  161.6610  202.8030  148.5620 O   0  0  0  0  0  1  0  0  0  0  0  0
  160.1920  206.2450  145.1650 C   0  0  0  0  0  1  0  0  0  0  0  0
  161.6430  205.4470  143.4620 O   0  0  0  0  0  1  0  0  0  0  0  0
  160.8260  205.0330  144.5140 C   0  0  1  0  0  3  0  0  0  0  0  0
  160.4100  204.3710  150.5730 C   0  0  0  0  0  2  0  0  0  0  0  0
  160.8300  203.0330  152.5010 F   0  0  0  0  0  0  0  0  0  0  0  0
  161.2910  204.1210  151.7840 C   0  0  0  0  0  2  0  0  0  0  0  0
  1 27  1  6  0  0  0
  1  5  1  0  0  0  0
  2  8  1  6  0  0  0
  2 10  1  0  0  0  0
  4 15  1  0  0  0  0
  5 16  1  0  0  0  0
  5  3  1  1  0  0  0
  6 10  1  6  0  0  0
  6 17  1  0  0  0  0
  7  2  1  0  0  0  0
  7 11  1  0  0  0  0
  9 11  1  6  0  0  0
  9  6  1  0  0  0  0
  9 13  1  0  0  0  0
 12  1  1  0  0  0  0
 13 12  2  0  0  0  0
 13  4  1  0  0  0  0
 14  4  2  0  0  0  0
 15 16  1  0  0  0  0
 15 18  1  1  0  0  0
 17 14  1  0  0  0  0
 18 19  1  0  0  0  0
 19 24  1  0  0  0  0
 20 24  1  0  0  0  0
 21 20  1  0  0  0  0
 21 26  1  0  0  0  0
 21 22  1  1  0  0  0
 23 24  1  0  0  0  0
 25 21  1  0  0  0  0
 26 23  1  0  0  0  0
 28 29  1  6  0  0  0
 28 27  1  0  0  0  0
 30 28  1  0  0  0  0
 30 31  1  0  0  0  0
 31 41  1  1  0  0  0
 32 35  1  6  0  0  0
 32 33  1  0  0  0  0
 32 34  1  0  0  0  0
 33 34  1  0  0  0  0
 34 37  1  1  0  0  0
 34 31  1  0  0  0  0
 36 40  1  6  0  0  0
 36 35  1  0  0  0  0
 36 32  1  0  0  0  0
 39 40  1  0  0  0  0
 40 38  1  1  0  0  0
 41 43  1  0  0  0  0
 43 42  1  0  0  0  0
M  END
>  <MODEL>
6

>  <REMARK>
 VINA RESULT:      -5.8      3.980      9.112
  Name = 
  11 active torsions:
  status: ('A' for Active; 'I' for Inactive)
    1  A    between atoms: C_1  and  C_34
    2  A    between atoms: C_1  and  C_35
    3  A    between atoms: C_2  and  S_6
    4  A    between atoms: O_3  and  C_4
    5  A    between atoms: O_3  and  C_12
    6  A    between atoms: C_4  and  C_15
    7  A    between atoms: C_4  and  C_22
    8  A    between atoms: S_6  and  C_12
    9  A    between atoms: C_15  and  C_42
   10  A    between atoms: C_31  and  C_40
   11  A    between atoms: N_32  and  C_35
                            x       y       z     vdW  Elec       q    Type
                         _______ _______ _______ _____ _____    ______ ____

>  <TORSDO>
F 11

$$$$
=
 OpenBabel11062410003D

 43 48  0  0  1  0  0  0  0  0999 V2000
  161.0480  210.6730  152.8580 C   0  0  1  0  0  3  0  0  0  0  0  0
  161.6140  213.9440  147.2210 C   0  0  1  0  0  3  0  0  0  0  0  0
  160.2400  210.7480  155.2460 C   0  0  0  0  0  1  0  0  0  0  0  0
  159.0970  212.5930  151.5180 C   0  0  0  0  0  0  0  0  0  0  0  0
  160.7750  211.5700  154.0830 C   0  0  2  0  0  3  0  0  0  0  0  0
  159.9840  214.0090  149.1730 C   0  0  1  0  0  3  0  0  0  0  0  0
  161.7750  212.4220  147.3290 C   0  0  0  0  0  2  0  0  0  0  0  0
  161.8220  214.3780  145.7860 C   0  0  0  0  0  1  0  0  0  0  0  0
  160.9080  212.8700  149.6670 C   0  0  2  0  0  3  0  0  0  0  0  0
  160.2370  214.3920  147.7070 C   0  0  0  0  0  2  0  0  0  0  0  0
  161.1040  211.8200  148.5710 C   0  0  0  0  0  2  0  0  0  0  0  0
  161.3050  211.4330  151.5870 C   0  0  0  0  0  3  0  0  0  0  0  0
  160.4430  212.2490  150.9640 C   0  0  0  0  0  0  0  0  0  0  0  0
  158.2230  213.2630  150.7520 C   0  0  0  0  0  3  0  0  0  0  0  0
  158.7600  212.2730  152.9600 C   0  0  1  0  0  3  0  0  0  0  0  0
  159.8720  212.6930  153.8110 N   0  0  0  0  0  2  0  0  0  0  0  0
  158.5190  213.6150  149.3270 C   0  0  0  0  0  2  0  0  0  0  0  0
  157.4640  212.9100  153.4560 C   0  0  0  0  0  2  0  0  0  0  0  0
  157.7510  214.2620  154.0850 C   0  0  0  0  0  2  0  0  0  0  0  0
  155.7000  213.6670  155.0550 C   0  0  0  0  0  2  0  0  0  0  0  0
  155.3800  212.9500  156.3500 C   0  0  1  0  0  0  0  0  0  0  0  0
  154.1130  213.5100  156.9640 C   0  0  0  0  0  1  0  0  0  0  0  0
  157.6040  213.8250  156.3750 C   0  0  0  0  0  2  0  0  0  0  0  0
  156.9140  214.4500  155.2570 N   0  0  0  0  0  0  0  0  0  0  0  0
  155.2320  211.5840  156.1140 O   0  0  0  0  0  1  0  0  0  0  0  0
  156.5550  213.1960  157.2610 C   0  0  0  0  0  2  0  0  0  0  0  0
  162.4220  209.5070  153.1820 S   0  0  0  0  0  0  0  0  0  0  0  0
  161.4180  207.9970  152.9660 C   0  0  1  0  0  3  0  0  0  0  0  0
  160.3510  207.9410  154.0390 C   0  0  0  0  0  1  0  0  0  0  0  0
  160.8110  208.0010  151.7050 O   0  0  0  0  0  0  0  0  0  0  0  0
  161.4450  206.9810  150.9880 C   0  0  2  0  0  3  0  0  0  0  0  0
  161.6280  206.2820  148.4900 C   0  0  2  0  0  0  0  0  0  0  0  0
  160.4500  207.0390  148.7850 O   0  0  0  0  0  0  0  0  0  0  0  0
  161.5510  207.3840  149.5230 C   0  0  1  0  0  0  0  0  0  0  0  0
  162.5140  206.8590  147.5330 O   0  0  0  0  0  0  0  0  0  0  0  0
  161.4380  206.1840  147.0060 C   0  0  1  0  0  3  0  0  0  0  0  0
  162.0040  208.6710  149.2030 O   0  0  0  0  0  1  0  0  0  0  0  0
  161.2830  204.5310  145.1630 C   0  0  0  0  0  1  0  0  0  0  0  0
  163.2780  204.7910  146.4240 O   0  0  0  0  0  1  0  0  0  0  0  0
  161.8870  204.8180  146.5220 C   0  0  1  0  0  3  0  0  0  0  0  0
  160.6800  205.6740  151.1580 C   0  0  0  0  0  2  0  0  0  0  0  0
  160.8460  203.4470  151.9920 F   0  0  0  0  0  0  0  0  0  0  0  0
  161.5570  204.6180  151.8080 C   0  0  0  0  0  2  0  0  0  0  0  0
  1 27  1  1  0  0  0
  1  5  1  0  0  0  0
  2  8  1  6  0  0  0
  2  7  1  0  0  0  0
  2 10  1  0  0  0  0
  4 15  1  0  0  0  0
  5  3  1  1  0  0  0
  6 10  1  6  0  0  0
  6 17  1  0  0  0  0
  6  9  1  0  0  0  0
  7 11  1  0  0  0  0
  9 11  1  6  0  0  0
  9 13  1  0  0  0  0
 12  1  1  0  0  0  0
 13  4  1  0  0  0  0
 13 12  2  0  0  0  0
 14  4  2  0  0  0  0
 15 18  1  1  0  0  0
 15 16  1  0  0  0  0
 16  5  1  0  0  0  0
 17 14  1  0  0  0  0
 18 19  1  0  0  0  0
 19 24  1  0  0  0  0
 20 24  1  0  0  0  0
 20 21  1  0  0  0  0
 21 22  1  1  0  0  0
 21 26  1  0  0  0  0
 23 26  1  0  0  0  0
 24 23  1  0  0  0  0
 25 21  1  0  0  0  0
 28 27  1  0  0  0  0
 28 29  1  1  0  0  0
 30 28  1  0  0  0  0
 31 41  1  6  0  0  0
 31 30  1  0  0  0  0
 32 35  1  6  0  0  0
 32 33  1  0  0  0  0
 32 34  1  0  0  0  0
 33 34  1  0  0  0  0
 34 37  1  6  0  0  0
 34 31  1  0  0  0  0
 36 40  1  6  0  0  0
 36 35  1  0  0  0  0
 36 32  1  0  0  0  0
 39 40  1  0  0  0  0
 40 38  1  6  0  0  0
 41 43  1  0  0  0  0
 43 42  1  0  0  0  0
M  END
>  <MODEL>
7

>  <REMARK>
 VINA RESULT:      -5.7      3.668      8.928
  Name = 
  11 active torsions:
  status: ('A' for Active; 'I' for Inactive)
    1  A    between atoms: C_1  and  C_34
    2  A    between atoms: C_1  and  C_35
    3  A    between atoms: C_2  and  S_6
    4  A    between atoms: O_3  and  C_4
    5  A    between atoms: O_3  and  C_12
    6  A    between atoms: C_4  and  C_15
    7  A    between atoms: C_4  and  C_22
    8  A    between atoms: S_6  and  C_12
    9  A    between atoms: C_15  and  C_42
   10  A    between atoms: C_31  and  C_40
   11  A    between atoms: N_32  and  C_35
                            x       y       z     vdW  Elec       q    Type
                         _______ _______ _______ _____ _____    ______ ____

>  <TORSDO>
F 11

$$$$
=
 OpenBabel11062410003D

 43 48  0  0  1  0  0  0  0  0999 V2000
  162.0320  211.9760  148.9450 C   0  0  1  0  0  3  0  0  0  0  0  0
  161.3200  205.5570  147.9040 C   0  0  1  0  0  3  0  0  0  0  0  0
  161.2460  213.9800  150.2580 C   0  0  0  0  0  1  0  0  0  0  0  0
  161.5080  209.7290  150.9350 C   0  0  0  0  0  0  0  0  0  0  0  0
  160.8450  212.6310  149.6800 C   0  0  2  0  0  3  0  0  0  0  0  0
  160.9670  207.0980  149.8970 C   0  0  1  0  0  3  0  0  0  0  0  0
  162.5410  206.3550  147.4280 C   0  0  0  0  0  2  0  0  0  0  0  0
  161.4630  204.1090  147.4880 C   0  0  0  0  0  1  0  0  0  0  0  0
  161.4700  208.1410  148.8710 C   0  0  2  0  0  3  0  0  0  0  0  0
  161.1530  205.6500  149.4200 C   0  0  0  0  0  2  0  0  0  0  0  0
  162.7600  207.6610  148.2020 C   0  0  0  0  0  2  0  0  0  0  0  0
  161.8130  210.5310  148.5920 C   0  0  0  0  0  3  0  0  0  0  0  0
  161.6210  209.5250  149.4570 C   0  0  0  0  0  0  0  0  0  0  0  0
  161.5050  208.6600  151.7460 C   0  0  0  0  0  3  0  0  0  0  0  0
  161.3020  211.1190  151.5010 C   0  0  1  0  0  3  0  0  0  0  0  0
  160.2590  211.7940  150.7330 N   0  0  0  0  0  2  0  0  0  0  0  0
  161.6880  207.2670  151.2300 C   0  0  0  0  0  2  0  0  0  0  0  0
  160.9440  211.1430  152.9850 C   0  0  0  0  0  2  0  0  0  0  0  0
  159.9460  212.2520  153.2660 C   0  0  0  0  0  2  0  0  0  0  0  0
  158.2200  212.4910  154.8360 C   0  0  0  0  0  2  0  0  0  0  0  0
  157.7400  211.5700  155.9390 C   0  0  1  0  0  0  0  0  0  0  0  0
  157.2860  212.3760  157.1400 C   0  0  0  0  0  1  0  0  0  0  0  0
  159.9510  210.9960  155.2350 C   0  0  0  0  0  2  0  0  0  0  0  0
  159.6600  212.3120  154.6890 N   0  0  0  0  0  0  0  0  0  0  0  0
  156.6940  210.7760  155.4750 O   0  0  0  0  0  1  0  0  0  0  0  0
  158.9230  210.7110  156.3050 C   0  0  0  0  0  2  0  0  0  0  0  0
  162.4910  212.9250  147.4480 S   0  0  0  0  0  0  0  0  0  0  0  0
  160.9440  212.5720  146.5440 C   0  0  1  0  0  3  0  0  0  0  0  0
  159.7570  212.9490  147.4060 C   0  0  0  0  0  1  0  0  0  0  0  0
  160.9060  213.3050  145.3530 O   0  0  0  0  0  0  0  0  0  0  0  0
  160.5020  212.3920  144.3720 C   0  0  2  0  0  3  0  0  0  0  0  0
  161.1110  211.6690  141.9490 C   0  0  2  0  0  0  0  0  0  0  0  0
  160.8790  213.0750  142.0830 O   0  0  0  0  0  0  0  0  0  0  0  0
  161.4460  212.4830  143.1790 C   0  0  1  0  0  0  0  0  0  0  0  0
  162.4110  211.2950  141.5010 O   0  0  0  0  0  0  0  0  0  0  0  0
  161.5350  211.6710  140.5110 C   0  0  1  0  0  3  0  0  0  0  0  0
  162.7590  212.9270  143.3840 O   0  0  0  0  0  1  0  0  0  0  0  0
  160.0690  210.8400  138.6900 C   0  0  0  0  0  1  0  0  0  0  0  0
  162.0560  209.6890  139.2990 O   0  0  0  0  0  1  0  0  0  0  0  0
  160.9960  210.4340  139.8170 C   0  0  1  0  0  3  0  0  0  0  0  0
  159.0590  212.6680  143.9690 C   0  0  0  0  0  2  0  0  0  0  0  0
  157.5620  214.1920  145.0280 F   0  0  0  0  0  0  0  0  0  0  0  0
  158.6940  214.1180  144.2370 C   0  0  0  0  0  2  0  0  0  0  0  0
  1 27  1  6  0  0  0
  1  5  1  0  0  0  0
  2  8  1  1  0  0  0
  2 10  1  0  0  0  0
  4 15  1  0  0  0  0
  4 14  2  0  0  0  0
  5  3  1  1  0  0  0
  5 16  1  0  0  0  0
  6 10  1  6  0  0  0
  6 17  1  0  0  0  0
  7  2  1  0  0  0  0
  7 11  1  0  0  0  0
  9 11  1  1  0  0  0
  9 13  1  0  0  0  0
  9  6  1  0  0  0  0
 12  1  1  0  0  0  0
 12 13  2  0  0  0  0
 13  4  1  0  0  0  0
 15 18  1  1  0  0  0
 16 15  1  0  0  0  0
 17 14  1  0  0  0  0
 18 19  1  0  0  0  0
 19 24  1  0  0  0  0
 20 21  1  0  0  0  0
 21 26  1  0  0  0  0
 21 22  1  1  0  0  0
 23 26  1  0  0  0  0
 24 20  1  0  0  0  0
 24 23  1  0  0  0  0
 25 21  1  0  0  0  0
 28 29  1  1  0  0  0
 28 27  1  0  0  0  0
 30 28  1  0  0  0  0
 31 41  1  6  0  0  0
 31 30  1  0  0  0  0
 32 35  1  6  0  0  0
 32 33  1  0  0  0  0
 32 34  1  0  0  0  0
 33 34  1  0  0  0  0
 34 37  1  1  0  0  0
 34 31  1  0  0  0  0
 36 40  1  6  0  0  0
 36 35  1  0  0  0  0
 36 32  1  0  0  0  0
 39 40  1  0  0  0  0
 40 38  1  6  0  0  0
 41 43  1  0  0  0  0
 43 42  1  0  0  0  0
M  END
>  <MODEL>
8

>  <REMARK>
 VINA RESULT:      -5.4      4.572      9.645
  Name = 
  11 active torsions:
  status: ('A' for Active; 'I' for Inactive)
    1  A    between atoms: C_1  and  C_34
    2  A    between atoms: C_1  and  C_35
    3  A    between atoms: C_2  and  S_6
    4  A    between atoms: O_3  and  C_4
    5  A    between atoms: O_3  and  C_12
    6  A    between atoms: C_4  and  C_15
    7  A    between atoms: C_4  and  C_22
    8  A    between atoms: S_6  and  C_12
    9  A    between atoms: C_15  and  C_42
   10  A    between atoms: C_31  and  C_40
   11  A    between atoms: N_32  and  C_35
                            x       y       z     vdW  Elec       q    Type
                         _______ _______ _______ _____ _____    ______ ____

>  <TORSDO>
F 11

$$$$
=
 OpenBabel11062410003D

 43 48  0  0  1  0  0  0  0  0999 V2000
  160.9340  208.2360  153.9320 C   0  0  1  0  0  3  0  0  0  0  0  0
  162.3110  212.2270  148.9340 C   0  0  1  0  0  3  0  0  0  0  0  0
  160.2320  208.0800  156.3490 C   0  0  0  0  0  1  0  0  0  0  0  0
  159.5990  210.8480  153.1020 C   0  0  0  0  0  0  0  0  0  0  0  0
  160.9590  208.9240  155.3120 C   0  0  2  0  0  3  0  0  0  0  0  0
  160.8120  212.3760  150.9830 C   0  0  1  0  0  3  0  0  0  0  0  0
  162.0240  210.7290  148.7590 C   0  0  0  0  0  2  0  0  0  0  0  0
  162.6070  212.8500  147.5860 C   0  0  0  0  0  1  0  0  0  0  0  0
  161.3740  210.9500  151.1980 C   0  0  2  0  0  3  0  0  0  0  0  0
  161.1340  212.9440  149.5930 C   0  0  0  0  0  2  0  0  0  0  0  0
  161.2330  210.1160  149.9220 C   0  0  0  0  0  2  0  0  0  0  0  0
  161.3750  209.1210  152.7980 C   0  0  0  0  0  3  0  0  0  0  0  0
  160.7760  210.2510  152.3960 C   0  0  0  0  0  0  0  0  0  0  0  0
  158.9430  211.8700  152.5330 C   0  0  0  0  0  3  0  0  0  0  0  0
  159.2140  210.3670  154.4860 C   0  0  1  0  0  3  0  0  0  0  0  0
  160.4170  210.2870  155.3110 N   0  0  0  0  0  2  0  0  0  0  0  0
  159.2990  212.3890  151.1750 C   0  0  0  0  0  2  0  0  0  0  0  0
  158.1700  211.2370  155.1820 C   0  0  0  0  0  2  0  0  0  0  0  0
  158.8030  212.5320  155.6630 C   0  0  0  0  0  2  0  0  0  0  0  0
  156.5230  212.9900  155.3560 C   0  0  0  0  0  2  0  0  0  0  0  0
  155.4930  213.5980  156.2860 C   0  0  1  0  0  0  0  0  0  0  0  0
  154.5150  214.4530  155.5050 C   0  0  0  0  0  1  0  0  0  0  0  0
  157.7150  214.0980  157.0120 C   0  0  0  0  0  2  0  0  0  0  0  0
  157.8160  213.5980  155.6500 N   0  0  0  0  0  0  0  0  0  0  0  0
  154.8100  212.5900  156.9630 O   0  0  0  0  0  1  0  0  0  0  0  0
  156.2670  214.4480  157.2610 C   0  0  0  0  0  2  0  0  0  0  0  0
  161.9150  206.6910  153.9410 S   0  0  0  0  0  0  0  0  0  0  0  0
  162.0420  206.5610  152.1240 C   0  0  1  0  0  3  0  0  0  0  0  0
  163.1990  205.6530  151.7610 C   0  0  0  0  0  1  0  0  0  0  0  0
  160.8570  206.0390  151.5960 O   0  0  0  0  0  0  0  0  0  0  0  0
  161.2590  205.1630  150.5820 C   0  0  2  0  0  3  0  0  0  0  0  0
  161.5100  205.0780  147.9950 C   0  0  2  0  0  0  0  0  0  0  0  0
  160.1730  205.3490  148.4300 O   0  0  0  0  0  0  0  0  0  0  0  0
  161.1530  205.8660  149.2340 C   0  0  1  0  0  0  0  0  0  0  0  0
  162.1180  206.0840  147.1900 O   0  0  0  0  0  0  0  0  0  0  0  0
  161.2770  205.2270  146.5210 C   0  0  1  0  0  3  0  0  0  0  0  0
  161.1650  207.2670  149.1970 O   0  0  0  0  0  1  0  0  0  0  0  0
  161.1910  203.1250  145.2070 C   0  0  0  0  0  1  0  0  0  0  0  0
  162.7780  204.8220  144.7190 O   0  0  0  0  0  1  0  0  0  0  0  0
  162.0990  204.2000  145.7660 C   0  0  1  0  0  3  0  0  0  0  0  0
  160.4120  203.8970  150.6240 C   0  0  0  0  0  2  0  0  0  0  0  0
  160.8090  201.5490  150.7240 F   0  0  0  0  0  0  0  0  0  0  0  0
  161.1760  202.7610  151.2800 C   0  0  0  0  0  2  0  0  0  0  0  0
  1 27  1  1  0  0  0
  1  5  1  0  0  0  0
  2  8  1  6  0  0  0
  2 10  1  0  0  0  0
  4 15  1  0  0  0  0
  5  3  1  1  0  0  0
  6 10  1  6  0  0  0
  6 17  1  0  0  0  0
  6  9  1  0  0  0  0
  7  2  1  0  0  0  0
  7 11  1  0  0  0  0
  9 11  1  6  0  0  0
  9 13  1  0  0  0  0
 12  1  1  0  0  0  0
 13 12  2  0  0  0  0
 13  4  1  0  0  0  0
 14  4  2  0  0  0  0
 15 18  1  1  0  0  0
 15 16  1  0  0  0  0
 16  5  1  0  0  0  0
 17 14  1  0  0  0  0
 18 19  1  0  0  0  0
 20 24  1  0  0  0  0
 20 21  1  0  0  0  0
 21 22  1  6  0  0  0
 21 25  1  0  0  0  0
 21 26  1  0  0  0  0
 23 26  1  0  0  0  0
 24 19  1  0  0  0  0
 24 23  1  0  0  0  0
 28 29  1  1  0  0  0
 28 27  1  0  0  0  0
 30 28  1  0  0  0  0
 31 41  1  6  0  0  0
 31 30  1  0  0  0  0
 32 35  1  6  0  0  0
 32 33  1  0  0  0  0
 32 34  1  0  0  0  0
 33 34  1  0  0  0  0
 34 37  1  6  0  0  0
 34 31  1  0  0  0  0
 36 40  1  6  0  0  0
 36 35  1  0  0  0  0
 36 32  1  0  0  0  0
 39 40  1  0  0  0  0
 40 38  1  6  0  0  0
 41 43  1  0  0  0  0
 42 43  1  0  0  0  0
M  END
>  <MODEL>
9

>  <REMARK>
 VINA RESULT:      -5.2      3.852      8.923
  Name = 
  11 active torsions:
  status: ('A' for Active; 'I' for Inactive)
    1  A    between atoms: C_1  and  C_34
    2  A    between atoms: C_1  and  C_35
    3  A    between atoms: C_2  and  S_6
    4  A    between atoms: O_3  and  C_4
    5  A    between atoms: O_3  and  C_12
    6  A    between atoms: C_4  and  C_15
    7  A    between atoms: C_4  and  C_22
    8  A    between atoms: S_6  and  C_12
    9  A    between atoms: C_15  and  C_42
   10  A    between atoms: C_31  and  C_40
   11  A    between atoms: N_32  and  C_35
                            x       y       z     vdW  Elec       q    Type
                         _______ _______ _______ _____ _____    ______ ____

>  <TORSDO>
F 11

$$$$
