=
 OpenBabel11062409273D

 34 39  0  0  1  0  0  0  0  0999 V2000
  161.5800  207.5010  150.2460 C   0  0  0  0  0  0  0  0  0  0  0  0
  161.1160  205.2210  151.0310 C   0  0  0  0  0  0  0  0  0  0  0  0
  161.4500  206.9940  152.6350 C   0  0  0  0  0  3  0  0  0  0  0  0
  161.7510  208.1850  147.8960 O   0  0  0  0  0  1  0  0  0  0  0  0
  162.0460  209.8090  149.6460 C   0  0  0  0  0  0  0  0  0  0  0  0
  162.1010  210.1240  150.9650 N   0  0  0  0  0  0  0  0  0  0  0  0
  161.6460  207.9100  151.6020 C   0  0  0  0  0  0  0  0  0  0  0  0
  161.7900  208.4900  149.2540 C   0  0  0  0  0  0  0  0  0  0  0  0
  161.9060  209.2060  151.9090 N   0  0  0  0  0  0  0  0  0  0  0  0
  160.8510  203.8720  150.7740 C   0  0  0  0  0  3  0  0  0  0  0  0
  160.7750  203.4030  149.4620 C   0  0  0  0  0  0  0  0  0  0  0  0
  160.9660  204.2930  148.3970 C   0  0  0  0  0  3  0  0  0  0  0  0
  161.1860  205.6580  152.3520 C   0  0  0  0  0  3  0  0  0  0  0  0
  161.2300  205.6410  148.6460 C   0  0  0  0  0  3  0  0  0  0  0  0
  161.3110  206.1320  149.9600 C   0  0  0  0  0  0  0  0  0  0  0  0
  160.4920  201.9520  149.2230 C   0  0  0  0  0  3  0  0  0  0  0  0
  161.1400  201.0860  150.2870 C   0  0  0  0  0  1  0  0  0  0  0  0
  160.9570  201.5240  147.8440 C   0  0  0  0  0  1  0  0  0  0  0  0
  162.3040  210.8750  148.6340 C   0  0  0  0  0  2  0  0  0  0  0  0
  161.3990  211.9870  148.8570 N   0  0  0  0  0  2  0  0  0  0  0  0
  162.1600  213.2040  148.6170 C   0  0  0  0  0  2  0  0  0  0  0  0
  159.0950  212.6010  145.0580 C   0  0  0  0  0  3  0  0  0  0  0  0
  162.4310  213.7030  146.1510 C   0  0  0  0  0  2  0  0  0  0  0  0
  160.4770  212.2450  143.2190 C   0  0  0  0  0  0  0  0  0  0  0  0
  160.9860  211.8960  142.0010 C   0  0  0  0  0  0  0  0  0  0  0  0
  159.2390  212.1690  143.7650 N   0  0  0  0  0  0  0  0  0  0  0  0
  162.3170  212.1600  141.9770 N   0  0  0  0  0  0  0  0  0  0  0  0
  160.1770  213.0880  145.7520 N   0  0  0  0  0  0  0  0  0  0  0  0
  160.2610  211.3240  140.9180 N   0  0  0  0  0  1  0  0  0  0  0  0
  161.5990  212.7400  143.9240 C   0  0  0  0  0  0  0  0  0  0  0  0
  161.4160  213.1660  145.2240 C   0  0  0  0  0  0  0  0  0  0  0  0
  162.6960  212.6760  143.1500 N   0  0  0  0  0  0  0  0  0  0  0  0
  161.6060  213.9710  147.4200 C   0  0  1  0  0  3  0  0  0  0  0  0
  160.1530  213.5590  147.1190 C   0  0  0  0  0  2  0  0  0  0  0  0
  1  7  1  0  0  0  0
  2 13  2  0  0  0  0
  4  8  1  0  0  0  0
  5  6  1  0  0  0  0
  6  9  2  0  0  0  0
  7  9  1  0  0  0  0
  7  3  2  0  0  0  0
  8  5  2  0  0  0  0
  8  1  1  0  0  0  0
 10  2  1  0  0  0  0
 11 10  2  0  0  0  0
 12 14  2  0  0  0  0
 12 11  1  0  0  0  0
 13  3  1  0  0  0  0
 14 15  1  0  0  0  0
 15  1  2  0  0  0  0
 15  2  1  0  0  0  0
 16 11  1  0  0  0  0
 16 17  1  0  0  0  0
 18 16  1  0  0  0  0
 19 20  1  0  0  0  0
 19  5  1  0  0  0  0
 21 20  1  0  0  0  0
 22 28  1  0  0  0  0
 23 33  1  0  0  0  0
 24 26  1  0  0  0  0
 24 30  1  0  0  0  0
 25 24  2  0  0  0  0
 26 22  2  0  0  0  0
 27 25  1  0  0  0  0
 27 32  2  0  0  0  0
 28 34  1  0  0  0  0
 29 25  1  0  0  0  0
 30 31  2  0  0  0  0
 31 28  1  0  0  0  0
 31 23  1  0  0  0  0
 32 30  1  0  0  0  0
 33 21  1  1  0  0  0
 34 33  1  0  0  0  0
M  END
>  <MODEL>
1

>  <REMARK>
 VINA RESULT:     -10.7      0.000      0.000
  Name = 
  5 active torsions:
  status: ('A' for Active; 'I' for Inactive)
    1  A    between atoms: C_3  and  C_25
    2  A    between atoms: N_8  and  C_17
    3  A    between atoms: N_8  and  C_18
    4  A    between atoms: C_10  and  C_17
    5  A    between atoms: C_18  and  C_30
                            x       y       z     vdW  Elec       q    Type
                         _______ _______ _______ _____ _____    ______ ____

>  <TORSDO>
F 5

$$$$
=
 OpenBabel11062409273D

 34 39  0  0  1  0  0  0  0  0999 V2000
  161.1850  205.5850  150.9800 C   0  0  0  0  0  0  0  0  0  0  0  0
  161.1980  203.6500  149.4690 C   0  0  0  0  0  0  0  0  0  0  0  0
  161.0740  203.3040  151.8550 C   0  0  0  0  0  3  0  0  0  0  0  0
  161.2950  207.9340  150.2780 O   0  0  0  0  0  1  0  0  0  0  0  0
  161.1590  207.3830  152.6160 C   0  0  0  0  0  0  0  0  0  0  0  0
  161.0920  206.4570  153.6060 N   0  0  0  0  0  0  0  0  0  0  0  0
  161.1050  204.6820  152.0700 C   0  0  0  0  0  0  0  0  0  0  0  0
  161.2130  206.9690  151.2790 C   0  0  0  0  0  0  0  0  0  0  0  0
  161.0640  205.1530  153.3410 N   0  0  0  0  0  0  0  0  0  0  0  0
  161.2440  203.1080  148.1810 C   0  0  0  0  0  3  0  0  0  0  0  0
  161.3250  203.9410  147.0640 C   0  0  0  0  0  0  0  0  0  0  0  0
  161.3590  205.3300  147.2390 C   0  0  0  0  0  3  0  0  0  0  0  0
  161.1180  202.7910  150.5630 C   0  0  0  0  0  3  0  0  0  0  0  0
  161.3120  205.8780  148.5220 C   0  0  0  0  0  3  0  0  0  0  0  0
  161.2320  205.0570  149.6590 C   0  0  0  0  0  0  0  0  0  0  0  0
  161.3740  203.3260  145.7000 C   0  0  0  0  0  3  0  0  0  0  0  0
  160.8060  204.2680  144.6540 C   0  0  0  0  0  1  0  0  0  0  0  0
  160.6320  202.0030  145.6700 C   0  0  0  0  0  1  0  0  0  0  0  0
  161.2190  208.8290  152.9760 C   0  0  0  0  0  2  0  0  0  0  0  0
  160.5070  209.0500  154.2210 N   0  0  0  0  0  2  0  0  0  0  0  0
  161.3790  209.8480  155.0700 C   0  0  0  0  0  2  0  0  0  0  0  0
  156.9240  211.2220  155.8960 C   0  0  0  0  0  3  0  0  0  0  0  0
  160.2720  212.0810  154.6350 C   0  0  0  0  0  2  0  0  0  0  0  0
  156.5530  212.8400  154.2640 C   0  0  0  0  0  0  0  0  0  0  0  0
  155.9900  213.7180  153.3820 C   0  0  0  0  0  0  0  0  0  0  0  0
  156.0380  211.9940  155.1890 N   0  0  0  0  0  0  0  0  0  0  0  0
  156.9680  214.3060  152.6480 N   0  0  0  0  0  0  0  0  0  0  0  0
  158.2740  211.3190  155.6580 N   0  0  0  0  0  0  0  0  0  0  0  0
  154.6000  213.9770  153.2250 N   0  0  0  0  0  1  0  0  0  0  0  0
  157.9400  212.9450  154.0060 C   0  0  0  0  0  0  0  0  0  0  0  0
  158.8010  212.1520  154.7370 C   0  0  0  0  0  0  0  0  0  0  0  0
  158.1610  213.8380  153.0260 N   0  0  0  0  0  0  0  0  0  0  0  0
  160.6210  211.0180  155.6900 C   0  0  1  0  0  3  0  0  0  0  0  0
  159.3000  210.5510  156.3270 C   0  0  0  0  0  2  0  0  0  0  0  0
  1  8  1  0  0  0  0
  1  7  2  0  0  0  0
  2 15  1  0  0  0  0
  2 13  1  0  0  0  0
  3  7  1  0  0  0  0
  4  8  1  0  0  0  0
  5 19  1  0  0  0  0
  5  6  1  0  0  0  0
  7  9  1  0  0  0  0
  8  5  2  0  0  0  0
  9  6  2  0  0  0  0
 10  2  2  0  0  0  0
 11 12  2  0  0  0  0
 11 10  1  0  0  0  0
 12 14  1  0  0  0  0
 13  3  2  0  0  0  0
 14 15  2  0  0  0  0
 15  1  1  0  0  0  0
 16 11  1  0  0  0  0
 17 16  1  0  0  0  0
 18 16  1  0  0  0  0
 19 20  1  0  0  0  0
 20 21  1  0  0  0  0
 23 31  1  0  0  0  0
 23 33  1  0  0  0  0
 24 26  1  0  0  0  0
 25 24  2  0  0  0  0
 26 22  2  0  0  0  0
 27 32  2  0  0  0  0
 27 25  1  0  0  0  0
 28 22  1  0  0  0  0
 28 34  1  0  0  0  0
 29 25  1  0  0  0  0
 30 24  1  0  0  0  0
 30 31  2  0  0  0  0
 31 28  1  0  0  0  0
 32 30  1  0  0  0  0
 33 21  1  6  0  0  0
 33 34  1  0  0  0  0
M  END
>  <MODEL>
2

>  <REMARK>
 VINA RESULT:     -10.5      5.995      7.472
  Name = 
  5 active torsions:
  status: ('A' for Active; 'I' for Inactive)
    1  A    between atoms: C_3  and  C_25
    2  A    between atoms: N_8  and  C_17
    3  A    between atoms: N_8  and  C_18
    4  A    between atoms: C_10  and  C_17
    5  A    between atoms: C_18  and  C_30
                            x       y       z     vdW  Elec       q    Type
                         _______ _______ _______ _____ _____    ______ ____

>  <TORSDO>
F 5

$$$$
=
 OpenBabel11062409273D

 34 39  0  0  1  0  0  0  0  0999 V2000
  161.1860  206.3900  151.2920 C   0  0  0  0  0  0  0  0  0  0  0  0
  161.0820  205.2880  149.1000 C   0  0  0  0  0  0  0  0  0  0  0  0
  161.3570  207.6840  149.2240 C   0  0  0  0  0  3  0  0  0  0  0  0
  161.0250  205.2520  153.4600 O   0  0  0  0  0  1  0  0  0  0  0  0
  161.3090  207.6390  153.3730 C   0  0  0  0  0  0  0  0  0  0  0  0
  161.4400  208.7850  152.6570 N   0  0  0  0  0  0  0  0  0  0  0  0
  161.3350  207.6270  150.6170 C   0  0  0  0  0  0  0  0  0  0  0  0
  161.1720  206.4140  152.7080 C   0  0  0  0  0  0  0  0  0  0  0  0
  161.4550  208.7780  151.3260 N   0  0  0  0  0  0  0  0  0  0  0  0
  160.9570  204.1360  148.3180 C   0  0  0  0  0  3  0  0  0  0  0  0
  160.8040  202.8850  148.9180 C   0  0  0  0  0  0  0  0  0  0  0  0
  160.7770  202.7880  150.3160 C   0  0  0  0  0  3  0  0  0  0  0  0
  161.2330  206.5210  148.4690 C   0  0  0  0  0  3  0  0  0  0  0  0
  160.9040  203.9340  151.1020 C   0  0  0  0  0  3  0  0  0  0  0  0
  161.0570  205.2020  150.5170 C   0  0  0  0  0  0  0  0  0  0  0  0
  160.6710  201.6720  148.0500 C   0  0  0  0  0  3  0  0  0  0  0  0
  161.5660  200.5490  148.5390 C   0  0  0  0  0  1  0  0  0  0  0  0
  160.9860  202.0000  146.6020 C   0  0  0  0  0  1  0  0  0  0  0  0
  161.2690  207.7130  154.8620 C   0  0  0  0  0  2  0  0  0  0  0  0
  160.2130  208.6190  155.2750 N   0  0  0  0  0  2  0  0  0  0  0  0
  160.7100  209.3470  156.4330 C   0  0  0  0  0  2  0  0  0  0  0  0
  157.2690  212.3300  155.1370 C   0  0  0  0  0  3  0  0  0  0  0  0
  160.7990  211.3280  154.8620 C   0  0  0  0  0  2  0  0  0  0  0  0
  157.9190  212.9990  153.0030 C   0  0  0  0  0  0  0  0  0  0  0  0
  157.9520  213.4830  151.7270 C   0  0  0  0  0  0  0  0  0  0  0  0
  156.9440  212.9170  153.9410 N   0  0  0  0  0  0  0  0  0  0  0  0
  159.1900  213.2920  151.2050 N   0  0  0  0  0  0  0  0  0  0  0  0
  158.5400  211.8510  155.3520 N   0  0  0  0  0  0  0  0  0  0  0  0
  156.8670  214.0780  151.0240 N   0  0  0  0  0  1  0  0  0  0  0  0
  159.2280  212.5050  153.2110 C   0  0  0  0  0  0  0  0  0  0  0  0
  159.5190  211.9200  154.4270 C   0  0  0  0  0  0  0  0  0  0  0  0
  159.9730  212.6950  152.1080 N   0  0  0  0  0  0  0  0  0  0  0  0
  160.4690  210.8460  156.2840 C   0  0  1  0  0  3  0  0  0  0  0  0
  158.9970  211.2030  156.5600 C   0  0  0  0  0  2  0  0  0  0  0  0
  1  8  2  0  0  0  0
  2 15  1  0  0  0  0
  3  7  1  0  0  0  0
  5 19  1  0  0  0  0
  6  5  2  0  0  0  0
  7  1  1  0  0  0  0
  7  9  2  0  0  0  0
  8  5  1  0  0  0  0
  8  4  1  0  0  0  0
  9  6  1  0  0  0  0
 10 11  1  0  0  0  0
 10  2  2  0  0  0  0
 11 12  2  0  0  0  0
 12 14  1  0  0  0  0
 13  2  1  0  0  0  0
 13  3  2  0  0  0  0
 15 14  2  0  0  0  0
 15  1  1  0  0  0  0
 16 17  1  0  0  0  0
 16 11  1  0  0  0  0
 18 16  1  0  0  0  0
 19 20  1  0  0  0  0
 20 21  1  0  0  0  0
 22 28  1  0  0  0  0
 23 33  1  0  0  0  0
 24 30  1  0  0  0  0
 24 26  1  0  0  0  0
 25 24  2  0  0  0  0
 26 22  2  0  0  0  0
 27 25  1  0  0  0  0
 27 32  2  0  0  0  0
 28 34  1  0  0  0  0
 29 25  1  0  0  0  0
 30 31  2  0  0  0  0
 31 23  1  0  0  0  0
 31 28  1  0  0  0  0
 32 30  1  0  0  0  0
 33 21  1  6  0  0  0
 33 34  1  0  0  0  0
M  END
>  <MODEL>
3

>  <REMARK>
 VINA RESULT:     -10.4      5.031      6.871
  Name = 
  5 active torsions:
  status: ('A' for Active; 'I' for Inactive)
    1  A    between atoms: C_3  and  C_25
    2  A    between atoms: N_8  and  C_17
    3  A    between atoms: N_8  and  C_18
    4  A    between atoms: C_10  and  C_17
    5  A    between atoms: C_18  and  C_30
                            x       y       z     vdW  Elec       q    Type
                         _______ _______ _______ _____ _____    ______ ____

>  <TORSDO>
F 5

$$$$
=
 OpenBabel11062409273D

 34 39  0  0  1  0  0  0  0  0999 V2000
  161.5920  207.2820  150.2210 C   0  0  0  0  0  0  0  0  0  0  0  0
  161.1070  204.9830  150.9360 C   0  0  0  0  0  0  0  0  0  0  0  0
  161.4630  206.7010  152.5940 C   0  0  0  0  0  3  0  0  0  0  0  0
  161.7630  208.0370  147.8930 O   0  0  0  0  0  1  0  0  0  0  0  0
  162.0790  209.6030  149.6920 C   0  0  0  0  0  0  0  0  0  0  0  0
  162.1410  209.8750  151.0200 N   0  0  0  0  0  0  0  0  0  0  0  0
  161.6650  207.6480  151.5890 C   0  0  0  0  0  0  0  0  0  0  0  0
  161.8090  208.2980  149.2600 C   0  0  0  0  0  0  0  0  0  0  0  0
  161.9390  208.9300  151.9360 N   0  0  0  0  0  0  0  0  0  0  0  0
  160.8280  203.6460  150.6380 C   0  0  0  0  0  3  0  0  0  0  0  0
  160.7440  203.2180  149.3120 C   0  0  0  0  0  0  0  0  0  0  0  0
  160.9410  204.1390  148.2750 C   0  0  0  0  0  3  0  0  0  0  0  0
  161.1840  205.3770  152.2690 C   0  0  0  0  0  3  0  0  0  0  0  0
  161.2180  205.4760  148.5650 C   0  0  0  0  0  3  0  0  0  0  0  0
  161.3080  205.9250  149.8930 C   0  0  0  0  0  0  0  0  0  0  0  0
  160.4450  201.7780  149.0290 C   0  0  0  0  0  3  0  0  0  0  0  0
  160.6780  200.9190  150.2580 C   0  0  0  0  0  1  0  0  0  0  0  0
  161.2760  201.2660  147.8670 C   0  0  0  0  0  1  0  0  0  0  0  0
  162.3460  210.6960  148.7130 C   0  0  0  0  0  2  0  0  0  0  0  0
  161.0920  211.1630  148.1510 N   0  0  0  0  0  2  0  0  0  0  0  0
  161.4200  212.2190  147.2060 C   0  0  0  0  0  2  0  0  0  0  0  0
  159.6620  214.2950  151.0820 C   0  0  0  0  0  3  0  0  0  0  0  0
  159.2730  213.5240  147.5060 C   0  0  0  0  0  2  0  0  0  0  0  0
  157.3620  214.2170  150.7320 C   0  0  0  0  0  0  0  0  0  0  0  0
  156.0050  214.2230  150.8840 C   0  0  0  0  0  0  0  0  0  0  0  0
  158.3940  214.3980  151.5920 N   0  0  0  0  0  0  0  0  0  0  0  0
  155.4180  213.9530  149.6900 N   0  0  0  0  0  0  0  0  0  0  0  0
  159.8550  214.0160  149.7500 N   0  0  0  0  0  0  0  0  0  0  0  0
  155.2950  214.4520  152.0950 N   0  0  0  0  0  1  0  0  0  0  0  0
  157.5480  213.9260  149.3600 C   0  0  0  0  0  0  0  0  0  0  0  0
  158.8390  213.8290  148.8830 C   0  0  0  0  0  0  0  0  0  0  0  0
  156.3560  213.7710  148.7560 N   0  0  0  0  0  0  0  0  0  0  0  0
  160.8050  213.5490  147.6330 C   0  0  1  0  0  3  0  0  0  0  0  0
  161.1390  213.8700  149.1020 C   0  0  0  0  0  2  0  0  0  0  0  0
  1  7  1  0  0  0  0
  2 13  2  0  0  0  0
  4  8  1  0  0  0  0
  5  6  1  0  0  0  0
  6  9  2  0  0  0  0
  7  9  1  0  0  0  0
  7  3  2  0  0  0  0
  8  5  2  0  0  0  0
  8  1  1  0  0  0  0
 10  2  1  0  0  0  0
 11 10  2  0  0  0  0
 12 14  2  0  0  0  0
 12 11  1  0  0  0  0
 13  3  1  0  0  0  0
 14 15  1  0  0  0  0
 15  1  2  0  0  0  0
 15  2  1  0  0  0  0
 16 11  1  0  0  0  0
 16 17  1  0  0  0  0
 18 16  1  0  0  0  0
 19  5  1  0  0  0  0
 20 19  1  0  0  0  0
 21 20  1  0  0  0  0
 22 26  2  0  0  0  0
 23 33  1  0  0  0  0
 23 31  1  0  0  0  0
 24 25  2  0  0  0  0
 24 26  1  0  0  0  0
 25 29  1  0  0  0  0
 27 25  1  0  0  0  0
 28 22  1  0  0  0  0
 30 24  1  0  0  0  0
 31 30  2  0  0  0  0
 31 28  1  0  0  0  0
 32 30  1  0  0  0  0
 32 27  2  0  0  0  0
 33 21  1  1  0  0  0
 33 34  1  0  0  0  0
 34 28  1  0  0  0  0
M  END
>  <MODEL>
4

>  <REMARK>
 VINA RESULT:      -9.6      2.652      4.655
  Name = 
  5 active torsions:
  status: ('A' for Active; 'I' for Inactive)
    1  A    between atoms: C_3  and  C_25
    2  A    between atoms: N_8  and  C_17
    3  A    between atoms: N_8  and  C_18
    4  A    between atoms: C_10  and  C_17
    5  A    between atoms: C_18  and  C_30
                            x       y       z     vdW  Elec       q    Type
                         _______ _______ _______ _____ _____    ______ ____

>  <TORSDO>
F 5

$$$$
=
 OpenBabel11062409273D

 34 39  0  0  1  0  0  0  0  0999 V2000
  161.2490  206.8320  150.7230 C   0  0  0  0  0  0  0  0  0  0  0  0
  161.2100  204.7130  149.4840 C   0  0  0  0  0  0  0  0  0  0  0  0
  160.9140  204.7040  151.8800 C   0  0  0  0  0  3  0  0  0  0  0  0
  161.5770  209.0510  149.7280 O   0  0  0  0  0  1  0  0  0  0  0  0
  161.2570  208.8330  152.1020 C   0  0  0  0  0  0  0  0  0  0  0  0
  161.0600  208.0580  153.1980 N   0  0  0  0  0  0  0  0  0  0  0  0
  161.0350  206.0930  151.9140 C   0  0  0  0  0  0  0  0  0  0  0  0
  161.3620  208.2390  150.8390 C   0  0  0  0  0  0  0  0  0  0  0  0
  160.9510  206.7340  153.1060 N   0  0  0  0  0  0  0  0  0  0  0  0
  161.2950  203.9980  148.2850 C   0  0  0  0  0  3  0  0  0  0  0  0
  161.5060  204.6640  147.0770 C   0  0  0  0  0  0  0  0  0  0  0  0
  161.6330  206.0600  147.0700 C   0  0  0  0  0  3  0  0  0  0  0  0
  161.0000  204.0170  150.6720 C   0  0  0  0  0  3  0  0  0  0  0  0
  161.5490  206.7790  148.2630 C   0  0  0  0  0  3  0  0  0  0  0  0
  161.3370  206.1270  149.4890 C   0  0  0  0  0  0  0  0  0  0  0  0
  161.5930  203.8680  145.8120 C   0  0  0  0  0  3  0  0  0  0  0  0
  160.8950  204.5800  144.6680 C   0  0  0  0  0  1  0  0  0  0  0  0
  161.0080  202.4800  145.9990 C   0  0  0  0  0  1  0  0  0  0  0  0
  161.4030  210.3080  152.2720 C   0  0  0  0  0  2  0  0  0  0  0  0
  160.1280  210.9550  152.0210 N   0  0  0  0  0  2  0  0  0  0  0  0
  160.0850  212.1420  152.8610 C   0  0  0  0  0  2  0  0  0  0  0  0
  157.0560  212.9500  149.3120 C   0  0  0  0  0  3  0  0  0  0  0  0
  160.2870  213.7210  150.8950 C   0  0  0  0  0  2  0  0  0  0  0  0
  158.4490  213.5830  147.5570 C   0  0  0  0  0  0  0  0  0  0  0  0
  158.9760  213.8660  146.3300 C   0  0  0  0  0  0  0  0  0  0  0  0
  157.2280  213.1620  147.9680 N   0  0  0  0  0  0  0  0  0  0  0  0
  160.2770  214.2250  146.4720 N   0  0  0  0  0  0  0  0  0  0  0  0
  158.0960  213.1620  150.1870 N   0  0  0  0  0  0  0  0  0  0  0  0
  158.2970  213.7850  145.0820 N   0  0  0  0  0  1  0  0  0  0  0  0
  159.5270  213.8000  148.4470 C   0  0  0  0  0  0  0  0  0  0  0  0
  159.3170  213.5760  149.7920 C   0  0  0  0  0  0  0  0  0  0  0  0
  160.6180  214.1870  147.7630 N   0  0  0  0  0  0  0  0  0  0  0  0
  159.4520  213.3160  152.1200 C   0  0  1  0  0  3  0  0  0  0  0  0
  158.0400  212.9610  151.6170 C   0  0  0  0  0  2  0  0  0  0  0  0
  1  8  1  0  0  0  0
  1  7  2  0  0  0  0
  2 15  1  0  0  0  0
  2 13  1  0  0  0  0
  3  7  1  0  0  0  0
  4  8  1  0  0  0  0
  5 19  1  0  0  0  0
  5  6  1  0  0  0  0
  7  9  1  0  0  0  0
  8  5  2  0  0  0  0
  9  6  2  0  0  0  0
 10  2  2  0  0  0  0
 11 10  1  0  0  0  0
 12 11  2  0  0  0  0
 12 14  1  0  0  0  0
 13  3  2  0  0  0  0
 14 15  2  0  0  0  0
 15  1  1  0  0  0  0
 16 18  1  0  0  0  0
 16 11  1  0  0  0  0
 17 16  1  0  0  0  0
 20 19  1  0  0  0  0
 20 21  1  0  0  0  0
 22 28  1  0  0  0  0
 23 33  1  0  0  0  0
 24 26  1  0  0  0  0
 24 30  1  0  0  0  0
 25 27  1  0  0  0  0
 25 24  2  0  0  0  0
 26 22  2  0  0  0  0
 27 32  2  0  0  0  0
 28 34  1  0  0  0  0
 29 25  1  0  0  0  0
 30 31  2  0  0  0  0
 31 28  1  0  0  0  0
 31 23  1  0  0  0  0
 32 30  1  0  0  0  0
 33 21  1  6  0  0  0
 34 33  1  0  0  0  0
M  END
>  <MODEL>
5

>  <REMARK>
 VINA RESULT:      -9.6      2.665      3.924
  Name = 
  5 active torsions:
  status: ('A' for Active; 'I' for Inactive)
    1  A    between atoms: C_3  and  C_25
    2  A    between atoms: N_8  and  C_17
    3  A    between atoms: N_8  and  C_18
    4  A    between atoms: C_10  and  C_17
    5  A    between atoms: C_18  and  C_30
                            x       y       z     vdW  Elec       q    Type
                         _______ _______ _______ _____ _____    ______ ____

>  <TORSDO>
F 5

$$$$
=
 OpenBabel11062409273D

 34 39  0  0  1  0  0  0  0  0999 V2000
  161.2170  206.7790  151.6950 C   0  0  0  0  0  0  0  0  0  0  0  0
  161.2160  204.9780  150.0260 C   0  0  0  0  0  0  0  0  0  0  0  0
  161.1900  204.4310  152.3780 C   0  0  0  0  0  3  0  0  0  0  0  0
  161.2490  209.1800  151.1890 O   0  0  0  0  0  1  0  0  0  0  0  0
  161.2140  208.4330  153.4750 C   0  0  0  0  0  0  0  0  0  0  0  0
  161.2050  207.4270  154.3860 N   0  0  0  0  0  0  0  0  0  0  0  0
  161.1990  205.7870  152.7070 C   0  0  0  0  0  0  0  0  0  0  0  0
  161.2260  208.1340  152.1080 C   0  0  0  0  0  0  0  0  0  0  0  0
  161.1960  206.1490  154.0140 N   0  0  0  0  0  0  0  0  0  0  0  0
  161.2260  204.5460  148.6970 C   0  0  0  0  0  3  0  0  0  0  0  0
  161.2450  205.4710  147.6510 C   0  0  0  0  0  0  0  0  0  0  0  0
  161.2560  206.8410  147.9420 C   0  0  0  0  0  3  0  0  0  0  0  0
  161.1970  204.0290  151.0460 C   0  0  0  0  0  3  0  0  0  0  0  0
  161.2450  207.2790  149.2670 C   0  0  0  0  0  3  0  0  0  0  0  0
  161.2260  206.3640  150.3320 C   0  0  0  0  0  0  0  0  0  0  0  0
  161.2570  204.9730  146.2390 C   0  0  0  0  0  3  0  0  0  0  0  0
  162.6720  204.8950  145.6980 C   0  0  0  0  0  1  0  0  0  0  0  0
  160.4020  205.8510  145.3440 C   0  0  0  0  0  1  0  0  0  0  0  0
  161.2550  209.8450  153.9530 C   0  0  0  0  0  2  0  0  0  0  0  0
  159.9070  210.3790  154.0120 N   0  0  0  0  0  2  0  0  0  0  0  0
  159.8780  211.3330  155.1110 C   0  0  0  0  0  2  0  0  0  0  0  0
  156.1130  213.8640  153.7550 C   0  0  0  0  0  3  0  0  0  0  0  0
  159.5700  212.8050  153.0770 C   0  0  0  0  0  2  0  0  0  0  0  0
  156.3120  213.9170  151.4360 C   0  0  0  0  0  0  0  0  0  0  0  0
  156.0790  214.0310  150.0960 C   0  0  0  0  0  0  0  0  0  0  0  0
  155.5380  214.1010  152.5330 N   0  0  0  0  0  0  0  0  0  0  0  0
  157.2030  213.6970  149.4140 N   0  0  0  0  0  0  0  0  0  0  0  0
  157.4230  213.4550  153.8390 N   0  0  0  0  0  0  0  0  0  0  0  0
  154.8530  214.4170  149.4850 N   0  0  0  0  0  1  0  0  0  0  0  0
  157.6600  213.4920  151.5100 C   0  0  0  0  0  0  0  0  0  0  0  0
  158.2040  213.2620  152.7570 C   0  0  0  0  0  0  0  0  0  0  0  0
  158.1720  213.3670  150.2730 N   0  0  0  0  0  0  0  0  0  0  0  0
  159.5400  212.7350  154.6120 C   0  0  1  0  0  3  0  0  0  0  0  0
  158.1310  213.1620  155.0640 C   0  0  0  0  0  2  0  0  0  0  0  0
  1  8  1  0  0  0  0
  1  7  2  0  0  0  0
  2 15  1  0  0  0  0
  2 13  1  0  0  0  0
  3  7  1  0  0  0  0
  4  8  1  0  0  0  0
  5 19  1  0  0  0  0
  5  6  1  0  0  0  0
  7  9  1  0  0  0  0
  8  5  2  0  0  0  0
  9  6  2  0  0  0  0
 10  2  2  0  0  0  0
 11 12  2  0  0  0  0
 11 10  1  0  0  0  0
 12 14  1  0  0  0  0
 13  3  2  0  0  0  0
 14 15  2  0  0  0  0
 15  1  1  0  0  0  0
 16 11  1  0  0  0  0
 17 16  1  0  0  0  0
 18 16  1  0  0  0  0
 19 20  1  0  0  0  0
 20 21  1  0  0  0  0
 22 28  1  0  0  0  0
 23 33  1  0  0  0  0
 24 30  1  0  0  0  0
 24 26  1  0  0  0  0
 25 24  2  0  0  0  0
 26 22  2  0  0  0  0
 27 25  1  0  0  0  0
 27 32  2  0  0  0  0
 28 34  1  0  0  0  0
 29 25  1  0  0  0  0
 30 31  2  0  0  0  0
 31 23  1  0  0  0  0
 31 28  1  0  0  0  0
 32 30  1  0  0  0  0
 33 34  1  0  0  0  0
 33 21  1  6  0  0  0
M  END
>  <MODEL>
6

>  <REMARK>
 VINA RESULT:      -9.6      4.775      6.268
  Name = 
  5 active torsions:
  status: ('A' for Active; 'I' for Inactive)
    1  A    between atoms: C_3  and  C_25
    2  A    between atoms: N_8  and  C_17
    3  A    between atoms: N_8  and  C_18
    4  A    between atoms: C_10  and  C_17
    5  A    between atoms: C_18  and  C_30
                            x       y       z     vdW  Elec       q    Type
                         _______ _______ _______ _____ _____    ______ ____

>  <TORSDO>
F 5

$$$$
=
 OpenBabel11062409273D

 34 39  0  0  1  0  0  0  0  0999 V2000
  161.1830  205.4480  150.2500 C   0  0  0  0  0  0  0  0  0  0  0  0
  161.3380  204.7090  147.9130 C   0  0  0  0  0  0  0  0  0  0  0  0
  161.4940  207.0610  148.4370 C   0  0  0  0  0  3  0  0  0  0  0  0
  160.8660  203.9750  152.1860 O   0  0  0  0  0  1  0  0  0  0  0  0
  161.0520  206.3520  152.5020 C   0  0  0  0  0  0  0  0  0  0  0  0
  161.2010  207.6010  151.9910 N   0  0  0  0  0  0  0  0  0  0  0  0
  161.3420  206.7820  149.7950 C   0  0  0  0  0  0  0  0  0  0  0  0
  161.0330  205.2460  151.6430 C   0  0  0  0  0  0  0  0  0  0  0  0
  161.3430  207.8070  150.6840 N   0  0  0  0  0  0  0  0  0  0  0  0
  161.3380  203.6940  146.9520 C   0  0  0  0  0  3  0  0  0  0  0  0
  161.1840  202.3590  147.3310 C   0  0  0  0  0  0  0  0  0  0  0  0
  161.0280  202.0390  148.6860 C   0  0  0  0  0  3  0  0  0  0  0  0
  161.4930  206.0310  147.5020 C   0  0  0  0  0  3  0  0  0  0  0  0
  161.0280  203.0480  149.6510 C   0  0  0  0  0  3  0  0  0  0  0  0
  161.1810  204.3970  149.2890 C   0  0  0  0  0  0  0  0  0  0  0  0
  161.1880  201.2970  146.2750 C   0  0  0  0  0  3  0  0  0  0  0  0
  159.9940  201.4420  145.3500 C   0  0  0  0  0  1  0  0  0  0  0  0
  161.2050  199.9120  146.8940 C   0  0  0  0  0  1  0  0  0  0  0  0
  160.8660  206.1860  153.9720 C   0  0  0  0  0  2  0  0  0  0  0  0
  160.4120  207.4380  154.5490 N   0  0  0  0  0  2  0  0  0  0  0  0
  161.5500  208.0190  155.2460 C   0  0  0  0  0  2  0  0  0  0  0  0
  159.6620  211.8720  157.2480 C   0  0  0  0  0  3  0  0  0  0  0  0
  160.4440  210.0220  154.1660 C   0  0  0  0  0  2  0  0  0  0  0  0
  158.0130  212.5080  155.7320 C   0  0  0  0  0  0  0  0  0  0  0  0
  156.9200  213.0600  155.1290 C   0  0  0  0  0  0  0  0  0  0  0  0
  158.5380  212.6100  156.9780 N   0  0  0  0  0  0  0  0  0  0  0  0
  156.8260  212.5970  153.8570 N   0  0  0  0  0  0  0  0  0  0  0  0
  160.2150  211.0690  156.2800 N   0  0  0  0  0  0  0  0  0  0  0  0
  155.9970  213.9640  155.7260 N   0  0  0  0  0  1  0  0  0  0  0  0
  158.5710  211.6800  154.7290 C   0  0  0  0  0  0  0  0  0  0  0  0
  159.7020  210.9530  155.0380 C   0  0  0  0  0  0  0  0  0  0  0  0
  157.8320  211.7540  153.6080 N   0  0  0  0  0  0  0  0  0  0  0  0
  161.5720  209.5370  155.0910 C   0  0  1  0  0  3  0  0  0  0  0  0
  161.3860  210.2380  156.4490 C   0  0  0  0  0  2  0  0  0  0  0  0
  1  8  1  0  0  0  0
  2 15  1  0  0  0  0
  3  7  1  0  0  0  0
  5 19  1  0  0  0  0
  6  5  1  0  0  0  0
  7  1  2  0  0  0  0
  7  9  1  0  0  0  0
  8  4  1  0  0  0  0
  8  5  2  0  0  0  0
  9  6  2  0  0  0  0
 10 11  1  0  0  0  0
 10  2  2  0  0  0  0
 11 12  2  0  0  0  0
 12 14  1  0  0  0  0
 13  2  1  0  0  0  0
 13  3  2  0  0  0  0
 15 14  2  0  0  0  0
 15  1  1  0  0  0  0
 16 18  1  0  0  0  0
 16 11  1  0  0  0  0
 17 16  1  0  0  0  0
 19 20  1  0  0  0  0
 20 21  1  0  0  0  0
 23 31  1  0  0  0  0
 23 33  1  0  0  0  0
 24 26  1  0  0  0  0
 25 29  1  0  0  0  0
 25 24  2  0  0  0  0
 26 22  2  0  0  0  0
 27 25  1  0  0  0  0
 28 34  1  0  0  0  0
 28 22  1  0  0  0  0
 30 31  2  0  0  0  0
 30 24  1  0  0  0  0
 31 28  1  0  0  0  0
 32 27  2  0  0  0  0
 32 30  1  0  0  0  0
 33 21  1  1  0  0  0
 33 34  1  0  0  0  0
M  END
>  <MODEL>
7

>  <REMARK>
 VINA RESULT:      -9.3      5.349      8.107
  Name = 
  5 active torsions:
  status: ('A' for Active; 'I' for Inactive)
    1  A    between atoms: C_3  and  C_25
    2  A    between atoms: N_8  and  C_17
    3  A    between atoms: N_8  and  C_18
    4  A    between atoms: C_10  and  C_17
    5  A    between atoms: C_18  and  C_30
                            x       y       z     vdW  Elec       q    Type
                         _______ _______ _______ _____ _____    ______ ____

>  <TORSDO>
F 5

$$$$
=
 OpenBabel11062409273D

 34 39  0  0  1  0  0  0  0  0999 V2000
  161.3320  206.9500  151.3730 C   0  0  0  0  0  0  0  0  0  0  0  0
  161.2000  205.0370  149.8390 C   0  0  0  0  0  0  0  0  0  0  0  0
  160.8610  204.7000  152.2060 C   0  0  0  0  0  3  0  0  0  0  0  0
  161.7990  209.2670  150.7120 O   0  0  0  0  0  1  0  0  0  0  0  0
  161.4250  208.7280  153.0270 C   0  0  0  0  0  0  0  0  0  0  0  0
  161.1670  207.8150  153.9970 N   0  0  0  0  0  0  0  0  0  0  0  0
  161.0570  206.0600  152.4410 C   0  0  0  0  0  0  0  0  0  0  0  0
  161.5200  208.3170  151.6920 C   0  0  0  0  0  0  0  0  0  0  0  0
  160.9870  206.5270  153.7130 N   0  0  0  0  0  0  0  0  0  0  0  0
  161.2670  204.4990  148.5510 C   0  0  0  0  0  3  0  0  0  0  0  0
  161.5350  205.3190  147.4540 C   0  0  0  0  0  0  0  0  0  0  0  0
  161.7390  206.6910  147.6500 C   0  0  0  0  0  3  0  0  0  0  0  0
  160.9300  204.1910  150.9130 C   0  0  0  0  0  3  0  0  0  0  0  0
  161.6720  207.2350  148.9340 C   0  0  0  0  0  3  0  0  0  0  0  0
  161.4040  206.4260  150.0500 C   0  0  0  0  0  0  0  0  0  0  0  0
  161.6020  204.7090  146.0880 C   0  0  0  0  0  3  0  0  0  0  0  0
  160.6790  205.4290  145.1220 C   0  0  0  0  0  1  0  0  0  0  0  0
  161.2620  203.2310  146.1330 C   0  0  0  0  0  1  0  0  0  0  0  0
  161.6480  210.1520  153.4100 C   0  0  0  0  0  2  0  0  0  0  0  0
  162.0500  210.2240  154.8020 N   0  0  0  0  0  2  0  0  0  0  0  0
  161.0860  211.0800  155.4770 C   0  0  0  0  0  2  0  0  0  0  0  0
  157.6410  214.1770  154.4980 C   0  0  0  0  0  3  0  0  0  0  0  0
  158.5750  210.7900  155.5890 C   0  0  0  0  0  2  0  0  0  0  0  0
  155.8970  213.4900  155.8790 C   0  0  0  0  0  0  0  0  0  0  0  0
  154.7570  213.4220  156.6270 C   0  0  0  0  0  0  0  0  0  0  0  0
  156.4360  214.4530  155.0920 N   0  0  0  0  0  0  0  0  0  0  0  0
  154.7050  212.2220  157.2590 N   0  0  0  0  0  0  0  0  0  0  0  0
  158.2580  212.9670  154.7070 N   0  0  0  0  0  0  0  0  0  0  0  0
  153.7740  214.4430  156.7570 N   0  0  0  0  0  1  0  0  0  0  0  0
  156.5250  212.2420  156.1060 C   0  0  0  0  0  0  0  0  0  0  0  0
  157.7370  212.0010  155.4910 C   0  0  0  0  0  0  0  0  0  0  0  0
  155.7820  211.4980  156.9430 N   0  0  0  0  0  0  0  0  0  0  0  0
  159.7750  211.1510  154.6990 C   0  0  1  0  0  3  0  0  0  0  0  0
  159.5300  212.5680  154.1490 C   0  0  0  0  0  2  0  0  0  0  0  0
  1  8  1  0  0  0  0
  1  7  2  0  0  0  0
  2 15  1  0  0  0  0
  2 13  1  0  0  0  0
  3  7  1  0  0  0  0
  4  8  1  0  0  0  0
  5 19  1  0  0  0  0
  5  6  1  0  0  0  0
  7  9  1  0  0  0  0
  8  5  2  0  0  0  0
  9  6  2  0  0  0  0
 10  2  2  0  0  0  0
 11 12  2  0  0  0  0
 11 10  1  0  0  0  0
 12 14  1  0  0  0  0
 13  3  2  0  0  0  0
 14 15  2  0  0  0  0
 15  1  1  0  0  0  0
 16 18  1  0  0  0  0
 16 11  1  0  0  0  0
 17 16  1  0  0  0  0
 19 20  1  0  0  0  0
 20 21  1  0  0  0  0
 22 28  1  0  0  0  0
 22 26  2  0  0  0  0
 24 30  1  0  0  0  0
 24 25  2  0  0  0  0
 25 29  1  0  0  0  0
 25 27  1  0  0  0  0
 26 24  1  0  0  0  0
 28 31  1  0  0  0  0
 30 32  1  0  0  0  0
 31 23  1  0  0  0  0
 31 30  2  0  0  0  0
 32 27  2  0  0  0  0
 33 21  1  1  0  0  0
 33 23  1  0  0  0  0
 34 33  1  0  0  0  0
 34 28  1  0  0  0  0
M  END
>  <MODEL>
8

>  <REMARK>
 VINA RESULT:      -9.0      6.049      8.392
  Name = 
  5 active torsions:
  status: ('A' for Active; 'I' for Inactive)
    1  A    between atoms: C_3  and  C_25
    2  A    between atoms: N_8  and  C_17
    3  A    between atoms: N_8  and  C_18
    4  A    between atoms: C_10  and  C_17
    5  A    between atoms: C_18  and  C_30
                            x       y       z     vdW  Elec       q    Type
                         _______ _______ _______ _____ _____    ______ ____

>  <TORSDO>
F 5

$$$$
=
 OpenBabel11062409273D

 34 39  0  0  1  0  0  0  0  0999 V2000
  161.5760  206.5920  149.8580 C   0  0  0  0  0  0  0  0  0  0  0  0
  161.1580  204.2420  149.2820 C   0  0  0  0  0  0  0  0  0  0  0  0
  161.0080  204.9550  151.5840 C   0  0  0  0  0  3  0  0  0  0  0  0
  162.1600  208.3610  148.2610 O   0  0  0  0  0  1  0  0  0  0  0  0
  161.9550  208.8740  150.6020 C   0  0  0  0  0  0  0  0  0  0  0  0
  161.7150  208.4800  151.8780 N   0  0  0  0  0  0  0  0  0  0  0  0
  161.3300  206.2610  151.2140 C   0  0  0  0  0  0  0  0  0  0  0  0
  161.8970  207.9390  149.5620 C   0  0  0  0  0  0  0  0  0  0  0  0
  161.4110  207.2170  152.1720 N   0  0  0  0  0  0  0  0  0  0  0  0
  161.0670  203.2140  148.3380 C   0  0  0  0  0  3  0  0  0  0  0  0
  161.2990  203.4710  146.9860 C   0  0  0  0  0  0  0  0  0  0  0  0
  161.6250  204.7710  146.5760 C   0  0  0  0  0  3  0  0  0  0  0  0
  160.9220  203.9520  150.6240 C   0  0  0  0  0  3  0  0  0  0  0  0
  161.7170  205.8010  147.5130 C   0  0  0  0  0  3  0  0  0  0  0  0
  161.4880  205.5620  148.8780 C   0  0  0  0  0  0  0  0  0  0  0  0
  161.1950  202.3470  146.0030 C   0  0  0  0  0  3  0  0  0  0  0  0
  160.1770  202.6580  144.9220 C   0  0  0  0  0  1  0  0  0  0  0  0
  160.8390  201.0450  146.6980 C   0  0  0  0  0  1  0  0  0  0  0  0
  162.3210  210.2960  150.3380 C   0  0  0  0  0  2  0  0  0  0  0  0
  161.7980  210.7020  149.0470 N   0  0  0  0  0  2  0  0  0  0  0  0
  162.7720  211.6120  148.4640 C   0  0  0  0  0  2  0  0  0  0  0  0
  158.5840  213.8020  148.7570 C   0  0  0  0  0  3  0  0  0  0  0  0
  161.6380  213.1540  146.8100 C   0  0  0  0  0  2  0  0  0  0  0  0
  157.9310  214.0030  146.5320 C   0  0  0  0  0  0  0  0  0  0  0  0
  157.2220  214.1660  145.3760 C   0  0  0  0  0  0  0  0  0  0  0  0
  157.5910  214.0440  147.8430 N   0  0  0  0  0  0  0  0  0  0  0  0
  158.0490  213.9910  144.3130 N   0  0  0  0  0  0  0  0  0  0  0  0
  159.8640  213.5300  148.3360 N   0  0  0  0  0  0  0  0  0  0  0  0
  155.8320  214.4530  145.2740 N   0  0  0  0  0  1  0  0  0  0  0  0
  159.2440  213.7200  146.0860 C   0  0  0  0  0  0  0  0  0  0  0  0
  160.2160  213.4810  147.0350 C   0  0  0  0  0  0  0  0  0  0  0  0
  159.2840  213.7190  144.7420 N   0  0  0  0  0  0  0  0  0  0  0  0
  162.1680  212.9960  148.2440 C   0  0  1  0  0  3  0  0  0  0  0  0
  160.9870  213.2460  149.2010 C   0  0  0  0  0  2  0  0  0  0  0  0
  1  7  2  0  0  0  0
  2 13  1  0  0  0  0
  4  8  1  0  0  0  0
  5  6  1  0  0  0  0
  6  9  2  0  0  0  0
  7  3  1  0  0  0  0
  7  9  1  0  0  0  0
  8  1  1  0  0  0  0
  8  5  2  0  0  0  0
 10  2  2  0  0  0  0
 11 10  1  0  0  0  0
 12 11  2  0  0  0  0
 12 14  1  0  0  0  0
 13  3  2  0  0  0  0
 14 15  2  0  0  0  0
 15  2  1  0  0  0  0
 15  1  1  0  0  0  0
 16 18  1  0  0  0  0
 16 11  1  0  0  0  0
 17 16  1  0  0  0  0
 19  5  1  0  0  0  0
 20 19  1  0  0  0  0
 21 20  1  0  0  0  0
 23 31  1  0  0  0  0
 23 33  1  0  0  0  0
 24 26  1  0  0  0  0
 25 24  2  0  0  0  0
 26 22  2  0  0  0  0
 27 32  2  0  0  0  0
 27 25  1  0  0  0  0
 28 22  1  0  0  0  0
 28 34  1  0  0  0  0
 29 25  1  0  0  0  0
 30 24  1  0  0  0  0
 30 31  2  0  0  0  0
 31 28  1  0  0  0  0
 32 30  1  0  0  0  0
 33 21  1  6  0  0  0
 33 34  1  0  0  0  0
M  END
>  <MODEL>
9

>  <REMARK>
 VINA RESULT:      -8.7      2.047      3.040
  Name = 
  5 active torsions:
  status: ('A' for Active; 'I' for Inactive)
    1  A    between atoms: C_3  and  C_25
    2  A    between atoms: N_8  and  C_17
    3  A    between atoms: N_8  and  C_18
    4  A    between atoms: C_10  and  C_17
    5  A    between atoms: C_18  and  C_30
                            x       y       z     vdW  Elec       q    Type
                         _______ _______ _______ _____ _____    ______ ____

>  <TORSDO>
F 5

$$$$
