=
 OpenBabel11052423113D

 27 31  0  0  1  0  0  0  0  0999 V2000
  161.0800  207.5770  152.2180 C   0  0  0  0  0  3  0  0  0  0  0  0
  160.6350  210.0030  152.5140 C   0  0  0  0  0  0  0  0  0  0  0  0
  162.1100  209.7630  150.6190 O   0  0  0  0  0  0  0  0  0  0  0  0
  159.1390  213.0900  150.6970 N   0  0  0  0  0  0  0  0  0  0  0  0
  159.4790  213.6320  148.2210 C   0  0  0  0  0  1  0  0  0  0  0  0
  159.6390  210.8390  153.2510 C   0  0  0  0  0  3  0  0  0  0  0  0
  161.0510  212.3660  149.6980 C   0  0  0  0  0  0  0  0  0  0  0  0
  161.6350  207.2980  147.9260 C   0  0  0  0  0  3  0  0  0  0  0  0
  162.1190  212.1690  148.6760 C   0  0  0  0  0  1  0  0  0  0  0  0
  160.8300  206.2010  148.5620 C   0  0  0  0  0  2  0  0  0  0  0  0
  161.1600  212.0030  151.1420 C   0  0  1  0  0  3  0  0  0  0  0  0
  160.9000  208.6300  153.0260 C   0  0  0  0  0  0  0  0  0  0  0  0
  159.9240  213.0410  149.5140 C   0  0  0  0  0  0  0  0  0  0  0  0
  159.8380  212.5050  151.6130 C   0  0  0  0  0  0  0  0  0  0  0  0
  161.1810  207.5490  150.7480 C   0  0  0  0  0  0  0  0  0  0  0  0
  161.2670  210.5230  151.4320 C   0  0  0  0  0  0  0  0  0  0  0  0
  162.0210  208.3790  148.6020 C   0  0  0  0  0  3  0  0  0  0  0  0
  159.2530  211.9990  152.8080 N   0  0  0  0  0  0  0  0  0  0  0  0
  160.8400  206.2810  150.0600 C   0  0  0  0  0  0  0  0  0  0  0  0
  160.5010  205.2660  150.7250 O   0  0  0  0  0  0  0  0  0  0  0  0
  161.7330  208.5510  150.0390 C   0  0  0  0  0  0  0  0  0  0  0  0
  160.9220  207.8730  157.2600 C   0  0  0  0  0  3  0  0  0  0  0  0
  160.8940  208.3760  154.4920 C   0  0  0  0  0  0  0  0  0  0  0  0
  161.6860  209.1530  155.3540 C   0  0  0  0  0  3  0  0  0  0  0  0
  161.6990  208.9050  156.7290 C   0  0  0  0  0  3  0  0  0  0  0  0
  160.1350  207.0860  156.4160 C   0  0  0  0  0  3  0  0  0  0  0  0
  160.1230  207.3340  155.0400 C   0  0  0  0  0  3  0  0  0  0  0  0
  1 12  2  0  0  0  0
  2 12  1  0  0  0  0
  2  6  1  0  0  0  0
  3 16  1  0  0  0  0
  4 14  2  0  0  0  0
  5 13  1  0  0  0  0
  8 10  1  0  0  0  0
  8 17  2  0  0  0  0
  9  7  1  0  0  0  0
 10 19  1  0  0  0  0
 11  7  1  6  0  0  0
 11 16  1  0  0  0  0
 11 14  1  0  0  0  0
 12 23  1  0  0  0  0
 13  7  2  0  0  0  0
 13  4  1  0  0  0  0
 14 18  1  0  0  0  0
 15  1  1  0  0  0  0
 16  2  2  0  0  0  0
 17 21  1  0  0  0  0
 18  6  2  0  0  0  0
 19 20  2  0  0  0  0
 19 15  1  0  0  0  0
 21  3  1  0  0  0  0
 21 15  2  0  0  0  0
 23 27  2  0  0  0  0
 23 24  1  0  0  0  0
 24 25  2  0  0  0  0
 25 22  1  0  0  0  0
 26 22  2  0  0  0  0
 27 26  1  0  0  0  0
M  END
>  <MODEL>
1

>  <REMARK>
 VINA RESULT:      -7.9      0.000      0.000
  Name = 
  1 active torsions:
  status: ('A' for Active; 'I' for Inactive)
    1  A    between atoms: C_9  and  C_15
                            x       y       z     vdW  Elec       q    Type
                         _______ _______ _______ _____ _____    ______ ____

>  <TORSDO>
F 1

$$$$
=
 OpenBabel11052423113D

 27 31  0  0  1  0  0  0  0  0999 V2000
  160.9440  211.4400  151.2810 C   0  0  0  0  0  3  0  0  0  0  0  0
  161.7420  209.4610  150.0110 C   0  0  0  0  0  0  0  0  0  0  0  0
  162.1720  209.0440  152.3490 O   0  0  0  0  0  0  0  0  0  0  0  0
  161.2030  205.6340  149.6400 N   0  0  0  0  0  0  0  0  0  0  0  0
  160.8310  204.0170  151.5860 C   0  0  0  0  0  1  0  0  0  0  0  0
  161.5520  208.9070  148.6360 C   0  0  0  0  0  3  0  0  0  0  0  0
  162.1050  206.1690  151.6600 C   0  0  0  0  0  0  0  0  0  0  0  0
  159.7360  209.6500  155.0420 C   0  0  0  0  0  3  0  0  0  0  0  0
  162.5320  206.0610  153.0850 C   0  0  0  0  0  1  0  0  0  0  0  0
  158.8210  210.7040  154.4870 C   0  0  0  0  0  2  0  0  0  0  0  0
  162.5550  207.2200  150.7000 C   0  0  1  0  0  3  0  0  0  0  0  0
  161.5450  210.9240  150.2020 C   0  0  0  0  0  0  0  0  0  0  0  0
  161.4050  205.2590  150.9950 C   0  0  0  0  0  0  0  0  0  0  0  0
  161.8540  206.7380  149.4760 C   0  0  0  0  0  0  0  0  0  0  0  0
  160.4860  210.7510  152.5000 C   0  0  0  0  0  0  0  0  0  0  0  0
  162.1020  208.6260  151.0190 C   0  0  0  0  0  0  0  0  0  0  0  0
  160.7700  209.1710  154.3500 C   0  0  0  0  0  3  0  0  0  0  0  0
  161.5810  207.6290  148.3990 N   0  0  0  0  0  0  0  0  0  0  0  0
  159.4030  211.3900  153.2860 C   0  0  0  0  0  0  0  0  0  0  0  0
  158.9200  212.4950  152.9240 O   0  0  0  0  0  0  0  0  0  0  0  0
  161.1240  209.6820  153.0130 C   0  0  0  0  0  0  0  0  0  0  0  0
  162.7060  213.6360  147.0700 C   0  0  0  0  0  3  0  0  0  0  0  0
  161.9560  211.8690  149.1280 C   0  0  0  0  0  0  0  0  0  0  0  0
  161.1170  212.9330  148.7560 C   0  0  0  0  0  3  0  0  0  0  0  0
  161.4900  213.8130  147.7360 C   0  0  0  0  0  3  0  0  0  0  0  0
  163.5460  212.5780  147.4240 C   0  0  0  0  0  3  0  0  0  0  0  0
  163.1740  211.6990  148.4440 C   0  0  0  0  0  3  0  0  0  0  0  0
  1 15  1  0  0  0  0
  2 12  1  0  0  0  0
  2 16  2  0  0  0  0
  3 21  1  0  0  0  0
  4 13  1  0  0  0  0
  6  2  1  0  0  0  0
  7  9  1  0  0  0  0
 10  8  1  0  0  0  0
 11 14  1  6  0  0  0
 11 16  1  0  0  0  0
 11  7  1  0  0  0  0
 12  1  2  0  0  0  0
 13  5  1  0  0  0  0
 13  7  2  0  0  0  0
 14  4  2  0  0  0  0
 15 21  2  0  0  0  0
 15 19  1  0  0  0  0
 16  3  1  0  0  0  0
 17  8  2  0  0  0  0
 18  6  2  0  0  0  0
 18 14  1  0  0  0  0
 19 10  1  0  0  0  0
 20 19  2  0  0  0  0
 21 17  1  0  0  0  0
 22 26  2  0  0  0  0
 22 25  1  0  0  0  0
 23 12  1  0  0  0  0
 24 23  1  0  0  0  0
 25 24  2  0  0  0  0
 26 27  1  0  0  0  0
 27 23  2  0  0  0  0
M  END
>  <MODEL>
2

>  <REMARK>
 VINA RESULT:      -6.4      2.521      7.028
  Name = 
  1 active torsions:
  status: ('A' for Active; 'I' for Inactive)
    1  A    between atoms: C_9  and  C_15
                            x       y       z     vdW  Elec       q    Type
                         _______ _______ _______ _____ _____    ______ ____

>  <TORSDO>
F 1

$$$$
=
 OpenBabel11052423113D

 27 31  0  0  1  0  0  0  0  0999 V2000
  161.2700  208.6550  152.2140 C   0  0  0  0  0  3  0  0  0  0  0  0
  159.9920  210.7420  152.6350 C   0  0  0  0  0  0  0  0  0  0  0  0
  161.6390  211.2310  150.9400 O   0  0  0  0  0  0  0  0  0  0  0  0
  157.7140  213.3500  150.8800 N   0  0  0  0  0  0  0  0  0  0  0  0
  158.0900  214.2620  148.5200 C   0  0  0  0  0  1  0  0  0  0  0  0
  158.7020  211.1080  153.2960 C   0  0  0  0  0  3  0  0  0  0  0  0
  159.8470  213.4240  150.0910 C   0  0  0  0  0  0  0  0  0  0  0  0
  162.3090  209.0840  148.0260 C   0  0  0  0  0  3  0  0  0  0  0  0
  161.0130  213.7150  149.2070 C   0  0  0  0  0  1  0  0  0  0  0  0
  161.8700  207.7150  148.4620 C   0  0  0  0  0  2  0  0  0  0  0  0
  159.9300  212.9500  151.5040 C   0  0  1  0  0  3  0  0  0  0  0  0
  160.6600  209.4850  153.0700 C   0  0  0  0  0  0  0  0  0  0  0  0
  158.5810  213.7050  149.8120 C   0  0  0  0  0  0  0  0  0  0  0  0
  158.4770  212.9270  151.8320 C   0  0  0  0  0  0  0  0  0  0  0  0
  161.5190  208.8350  150.7730 C   0  0  0  0  0  0  0  0  0  0  0  0
  160.5110  211.5670  151.6900 C   0  0  0  0  0  0  0  0  0  0  0  0
  162.2310  210.1440  148.8290 C   0  0  0  0  0  3  0  0  0  0  0  0
  157.9870  212.1180  152.8960 N   0  0  0  0  0  0  0  0  0  0  0  0
  161.7040  207.6160  149.9500 C   0  0  0  0  0  0  0  0  0  0  0  0
  161.6710  206.4750  150.4830 O   0  0  0  0  0  0  0  0  0  0  0  0
  161.7610  210.0400  150.2230 C   0  0  0  0  0  0  0  0  0  0  0  0
  160.4330  208.2830  157.1940 C   0  0  0  0  0  3  0  0  0  0  0  0
  160.5970  209.0720  154.4980 C   0  0  0  0  0  0  0  0  0  0  0  0
  160.5460  207.7110  154.8450 C   0  0  0  0  0  3  0  0  0  0  0  0
  160.4680  207.3180  156.1840 C   0  0  0  0  0  3  0  0  0  0  0  0
  160.4740  209.6390  156.8650 C   0  0  0  0  0  3  0  0  0  0  0  0
  160.5530  210.0320  155.5260 C   0  0  0  0  0  3  0  0  0  0  0  0
  1 12  2  0  0  0  0
  2 12  1  0  0  0  0
  2  6  1  0  0  0  0
  3 16  1  0  0  0  0
  4 14  2  0  0  0  0
  5 13  1  0  0  0  0
  8 10  1  0  0  0  0
  8 17  2  0  0  0  0
  9  7  1  0  0  0  0
 10 19  1  0  0  0  0
 11  7  1  6  0  0  0
 11 16  1  0  0  0  0
 11 14  1  0  0  0  0
 12 23  1  0  0  0  0
 13  7  2  0  0  0  0
 13  4  1  0  0  0  0
 14 18  1  0  0  0  0
 15  1  1  0  0  0  0
 16  2  2  0  0  0  0
 17 21  1  0  0  0  0
 18  6  2  0  0  0  0
 19 20  2  0  0  0  0
 19 15  1  0  0  0  0
 21 15  2  0  0  0  0
 21  3  1  0  0  0  0
 23 24  2  0  0  0  0
 23 27  1  0  0  0  0
 24 25  1  0  0  0  0
 25 22  2  0  0  0  0
 26 22  1  0  0  0  0
 27 26  2  0  0  0  0
M  END
>  <MODEL>
3

>  <REMARK>
 VINA RESULT:      -5.9      1.186      1.622
  Name = 
  1 active torsions:
  status: ('A' for Active; 'I' for Inactive)
    1  A    between atoms: C_9  and  C_15
                            x       y       z     vdW  Elec       q    Type
                         _______ _______ _______ _____ _____    ______ ____

>  <TORSDO>
F 1

$$$$
=
 OpenBabel11052423113D

 27 31  0  0  1  0  0  0  0  0999 V2000
  160.2490  210.2430  153.3630 C   0  0  0  0  0  3  0  0  0  0  0  0
  159.4740  212.2910  152.1910 C   0  0  0  0  0  0  0  0  0  0  0  0
  161.5110  211.5690  151.1180 O   0  0  0  0  0  0  0  0  0  0  0  0
  158.3450  213.5900  148.7120 N   0  0  0  0  0  0  0  0  0  0  0  0
  159.4280  212.9390  146.4890 C   0  0  0  0  0  1  0  0  0  0  0  0
  158.2060  213.0790  152.1120 C   0  0  0  0  0  3  0  0  0  0  0  0
  160.5460  213.0140  148.7250 C   0  0  0  0  0  0  0  0  0  0  0  0
  162.2250  208.0860  150.1620 C   0  0  0  0  0  3  0  0  0  0  0  0
  161.9070  212.6410  148.2440 C   0  0  0  0  0  1  0  0  0  0  0  0
  161.3760  207.2640  151.0880 C   0  0  0  0  0  2  0  0  0  0  0  0
  160.2070  213.4370  150.1160 C   0  0  1  0  0  3  0  0  0  0  0  0
  159.6990  211.4640  153.4080 C   0  0  0  0  0  0  0  0  0  0  0  0
  159.4790  213.1890  147.9570 C   0  0  0  0  0  0  0  0  0  0  0  0
  158.7580  213.7310  149.9270 C   0  0  0  0  0  0  0  0  0  0  0  0
  160.8350  209.5370  152.2110 C   0  0  0  0  0  0  0  0  0  0  0  0
  160.3700  212.3710  151.1760 C   0  0  0  0  0  0  0  0  0  0  0  0
  162.2460  209.4180  150.2120 C   0  0  0  0  0  3  0  0  0  0  0  0
  157.8680  213.7300  151.0380 N   0  0  0  0  0  0  0  0  0  0  0  0
  160.8790  208.0560  152.2620 C   0  0  0  0  0  0  0  0  0  0  0  0
  160.4500  207.4400  153.2730 O   0  0  0  0  0  0  0  0  0  0  0  0
  161.4810  210.1780  151.2190 C   0  0  0  0  0  0  0  0  0  0  0  0
  158.3810  212.8620  157.2570 C   0  0  0  0  0  3  0  0  0  0  0  0
  159.2330  211.9570  154.7320 C   0  0  0  0  0  0  0  0  0  0  0  0
  160.0140  212.8630  155.4700 C   0  0  0  0  0  3  0  0  0  0  0  0
  159.5900  213.3150  156.7230 C   0  0  0  0  0  3  0  0  0  0  0  0
  157.5980  211.9550  156.5390 C   0  0  0  0  0  3  0  0  0  0  0  0
  158.0220  211.5040  155.2860 C   0  0  0  0  0  3  0  0  0  0  0  0
  1 12  2  0  0  0  0
  2 12  1  0  0  0  0
  3 16  1  0  0  0  0
  3 21  1  0  0  0  0
  4 14  2  0  0  0  0
  5 13  1  0  0  0  0
  6  2  1  0  0  0  0
  8 17  2  0  0  0  0
  8 10  1  0  0  0  0
  9  7  1  0  0  0  0
 10 19  1  0  0  0  0
 11  7  1  6  0  0  0
 11 16  1  0  0  0  0
 12 23  1  0  0  0  0
 13  4  1  0  0  0  0
 13  7  2  0  0  0  0
 14 11  1  0  0  0  0
 14 18  1  0  0  0  0
 15 19  1  0  0  0  0
 15  1  1  0  0  0  0
 16  2  2  0  0  0  0
 17 21  1  0  0  0  0
 18  6  2  0  0  0  0
 19 20  2  0  0  0  0
 21 15  2  0  0  0  0
 23 27  2  0  0  0  0
 23 24  1  0  0  0  0
 24 25  2  0  0  0  0
 25 22  1  0  0  0  0
 26 22  2  0  0  0  0
 27 26  1  0  0  0  0
M  END
>  <MODEL>
4

>  <REMARK>
 VINA RESULT:      -5.7      2.172      3.098
  Name = 
  1 active torsions:
  status: ('A' for Active; 'I' for Inactive)
    1  A    between atoms: C_9  and  C_15
                            x       y       z     vdW  Elec       q    Type
                         _______ _______ _______ _____ _____    ______ ____

>  <TORSDO>
F 1

$$$$
