=
 OpenBabel11052422413D

 31 34  0  0  1  0  0  0  0  0999 V2000
  160.6810  207.5160  154.6890 C   0  0  0  0  0  0  0  0  0  0  0  0
  161.3660  207.4820  150.9250 C   0  0  0  0  0  0  0  0  0  0  0  0
  161.2880  206.1320  150.4860 C   0  0  0  0  0  0  0  0  0  0  0  0
  161.1210  203.7430  150.9410 C   0  0  0  0  0  3  0  0  0  0  0  0
  161.2990  207.9040  152.3640 C   0  0  0  0  0  0  0  0  0  0  0  0
  161.1350  208.7900  155.0320 C   0  0  0  0  0  3  0  0  0  0  0  0
  161.1900  205.0620  151.3900 C   0  0  0  0  0  3  0  0  0  0  0  0
  161.5930  209.9480  150.3570 C   0  0  2  0  0  3  0  0  0  0  0  0
  160.1640  206.7020  155.6410 F   0  0  0  0  0  0  0  0  0  0  0  0
  161.4590  206.8950  148.1890 C   0  0  0  0  0  3  0  0  0  0  0  0
  161.1520  203.4690  149.5740 C   0  0  0  0  0  3  0  0  0  0  0  0
  162.3210  210.1080  151.6900 C   0  0  0  0  0  2  0  0  0  0  0  0
  161.5350  208.4940  149.9480 C   0  0  0  0  0  0  0  0  0  0  0  0
  160.7590  207.0800  153.3650 C   0  0  0  0  0  3  0  0  0  0  0  0
  161.2940  204.1620  147.1970 C   0  0  0  0  0  1  0  0  0  0  0  0
  161.7300  209.2000  152.7210 C   0  0  0  0  0  0  0  0  0  0  0  0
  161.6610  209.6310  154.0500 C   0  0  0  0  0  3  0  0  0  0  0  0
  161.5510  208.1730  148.6260 N   0  0  0  0  0  0  0  0  0  0  0  0
  161.3330  205.8420  149.0980 C   0  0  0  0  0  0  0  0  0  0  0  0
  161.2580  204.5080  148.6490 C   0  0  0  0  0  0  0  0  0  0  0  0
  160.8840  212.6130  149.6060 O   0  0  0  0  0  0  0  0  0  0  0  0
  161.8620  212.0790  149.0150 C   0  0  0  0  0  0  0  0  0  0  0  0
  162.2620  210.7450  149.3370 N   0  0  0  0  0  2  0  0  0  0  0  0
  163.7840  212.1430  147.6200 O   0  0  0  0  0  1  0  0  0  0  0  0
  162.6350  212.8450  147.9940 C   0  0  1  0  0  3  0  0  0  0  0  0
  160.8380  212.1510  146.5530 O   0  0  0  0  0  1  0  0  0  0  0  0
  161.7680  213.1680  146.7760 C   0  0  2  0  0  3  0  0  0  0  0  0
  162.6230  213.3580  145.5330 C   0  0  0  0  0  2  0  0  0  0  0  0
  161.7810  213.3390  144.3040 C   0  0  0  0  0  0  0  0  0  0  0  0
  161.9630  212.4530  143.4280 O   0  0  0  0  0  0  0  0  0  0  0  0
  160.7720  214.2790  144.1380 O   0  0  0  0  0  1  0  0  0  0  0  0
  1  6  1  0  0  0  0
  1  9  1  0  0  0  0
  2  5  1  0  0  0  0
  3  2  1  0  0  0  0
  3  7  1  0  0  0  0
  4  7  2  0  0  0  0
  5 16  2  0  0  0  0
  5 14  1  0  0  0  0
  8 23  1  6  0  0  0
  8 12  1  0  0  0  0
 10 18  2  0  0  0  0
 10 19  1  0  0  0  0
 11  4  1  0  0  0  0
 12 16  1  0  0  0  0
 13  8  1  0  0  0  0
 13  2  2  0  0  0  0
 14  1  2  0  0  0  0
 15 20  1  0  0  0  0
 16 17  1  0  0  0  0
 17  6  2  0  0  0  0
 18 13  1  0  0  0  0
 19  3  2  0  0  0  0
 20 19  1  0  0  0  0
 20 11  2  0  0  0  0
 22 23  1  0  0  0  0
 22 21  2  0  0  0  0
 25 24  1  6  0  0  0
 25 22  1  0  0  0  0
 27 26  1  6  0  0  0
 27 25  1  0  0  0  0
 28 27  1  0  0  0  0
 29 28  1  0  0  0  0
 30 29  2  0  0  0  0
 31 29  1  0  0  0  0
M  END
>  <MODEL>
1

>  <REMARK>
 VINA RESULT:      -9.5      0.000      0.000
  Name = 
  5 active torsions:
  status: ('A' for Active; 'I' for Inactive)
    1  A    between atoms: C_1  and  C_24
    2  A    between atoms: C_9  and  C_22
    3  A    between atoms: C_15  and  N_23
    4  A    between atoms: C_19  and  C_22
    5  A    between atoms: C_19  and  C_24
                            x       y       z     vdW  Elec       q    Type
                         _______ _______ _______ _____ _____    ______ ____

>  <TORSDO>
F 5

$$$$
=
 OpenBabel11052422413D

 31 34  0  0  1  0  0  0  0  0999 V2000
  160.9500  204.4320  152.5190 C   0  0  0  0  0  0  0  0  0  0  0  0
  161.3820  205.9480  149.0330 C   0  0  0  0  0  0  0  0  0  0  0  0
  161.3060  204.8860  148.0900 C   0  0  0  0  0  0  0  0  0  0  0  0
  161.2240  202.5110  147.5480 C   0  0  0  0  0  3  0  0  0  0  0  0
  161.4020  205.7520  150.5210 C   0  0  0  0  0  0  0  0  0  0  0  0
  161.3970  205.4810  153.3240 C   0  0  0  0  0  3  0  0  0  0  0  0
  161.2920  203.5390  148.4880 C   0  0  0  0  0  3  0  0  0  0  0  0
  161.5140  208.4410  149.4990 C   0  0  2  0  0  3  0  0  0  0  0  0
  160.5160  203.2810  153.0860 F   0  0  0  0  0  0  0  0  0  0  0  0
  161.3050  206.5150  146.2920 C   0  0  0  0  0  3  0  0  0  0  0  0
  161.1700  202.8110  146.1880 C   0  0  0  0  0  3  0  0  0  0  0  0
  162.3270  208.0870  150.7430 C   0  0  0  0  0  2  0  0  0  0  0  0
  161.4630  207.2740  148.5400 C   0  0  0  0  0  0  0  0  0  0  0  0
  160.9490  204.5700  151.1300 C   0  0  0  0  0  3  0  0  0  0  0  0
  161.1370  204.4070  144.2900 C   0  0  0  0  0  1  0  0  0  0  0  0
  161.8260  206.8140  151.3480 C   0  0  0  0  0  0  0  0  0  0  0  0
  161.8360  206.6710  152.7390 C   0  0  0  0  0  3  0  0  0  0  0  0
  161.3980  207.5130  147.2030 N   0  0  0  0  0  0  0  0  0  0  0  0
  161.2650  205.1810  146.7030 C   0  0  0  0  0  0  0  0  0  0  0  0
  161.1900  204.1380  145.7570 C   0  0  0  0  0  0  0  0  0  0  0  0
  161.2730  211.1340  150.4270 O   0  0  0  0  0  0  0  0  0  0  0  0
  161.9440  210.9340  149.3770 C   0  0  0  0  0  0  0  0  0  0  0  0
  162.0960  209.6120  148.8550 N   0  0  0  0  0  2  0  0  0  0  0  0
  163.5160  211.6000  147.7240 O   0  0  0  0  0  1  0  0  0  0  0  0
  162.6170  212.0730  148.6850 C   0  0  1  0  0  3  0  0  0  0  0  0
  160.9630  213.7830  149.0460 O   0  0  0  0  0  1  0  0  0  0  0  0
  161.5920  213.0190  148.0590 C   0  0  2  0  0  3  0  0  0  0  0  0
  160.5450  212.2460  147.2710 C   0  0  0  0  0  2  0  0  0  0  0  0
  160.5990  212.6060  145.8260 C   0  0  0  0  0  0  0  0  0  0  0  0
  161.5520  213.2990  145.3850 O   0  0  0  0  0  1  0  0  0  0  0  0
  159.6150  212.1480  144.9590 O   0  0  0  0  0  0  0  0  0  0  0  0
  1  9  1  0  0  0  0
  1  6  1  0  0  0  0
  2  5  1  0  0  0  0
  3  7  1  0  0  0  0
  3  2  2  0  0  0  0
  4  7  2  0  0  0  0
  5 14  1  0  0  0  0
  5 16  2  0  0  0  0
  8 23  1  6  0  0  0
  8 12  1  0  0  0  0
 10 19  2  0  0  0  0
 10 18  1  0  0  0  0
 11  4  1  0  0  0  0
 12 16  1  0  0  0  0
 13  2  1  0  0  0  0
 13  8  1  0  0  0  0
 14  1  2  0  0  0  0
 15 20  1  0  0  0  0
 16 17  1  0  0  0  0
 17  6  2  0  0  0  0
 18 13  2  0  0  0  0
 19  3  1  0  0  0  0
 20 11  2  0  0  0  0
 20 19  1  0  0  0  0
 22 21  2  0  0  0  0
 23 22  1  0  0  0  0
 25 24  1  6  0  0  0
 25 22  1  0  0  0  0
 27 25  1  0  0  0  0
 27 26  1  1  0  0  0
 28 27  1  0  0  0  0
 29 28  1  0  0  0  0
 30 29  1  0  0  0  0
 31 29  2  0  0  0  0
M  END
>  <MODEL>
2

>  <REMARK>
 VINA RESULT:      -9.1      1.762      2.640
  Name = 
  5 active torsions:
  status: ('A' for Active; 'I' for Inactive)
    1  A    between atoms: C_1  and  C_24
    2  A    between atoms: C_9  and  C_22
    3  A    between atoms: C_15  and  N_23
    4  A    between atoms: C_19  and  C_22
    5  A    between atoms: C_19  and  C_24
                            x       y       z     vdW  Elec       q    Type
                         _______ _______ _______ _____ _____    ______ ____

>  <TORSDO>
F 5

$$$$
=
 OpenBabel11052422413D

 31 34  0  0  1  0  0  0  0  0999 V2000
  161.2020  204.3540  151.8690 C   0  0  0  0  0  0  0  0  0  0  0  0
  161.2600  208.0110  152.9920 C   0  0  0  0  0  0  0  0  0  0  0  0
  160.9180  208.0420  154.3720 C   0  0  0  0  0  0  0  0  0  0  0  0
  160.1130  206.9550  156.4000 C   0  0  0  0  0  3  0  0  0  0  0  0
  161.2100  206.7760  152.1400 C   0  0  0  0  0  0  0  0  0  0  0  0
  161.1910  204.5010  150.4810 C   0  0  0  0  0  3  0  0  0  0  0  0
  160.4500  206.9040  155.0470 C   0  0  0  0  0  3  0  0  0  0  0  0
  162.0600  209.2410  150.9180 C   0  0  2  0  0  3  0  0  0  0  0  0
  161.2010  203.1160  152.4190 F   0  0  0  0  0  0  0  0  0  0  0  0
  161.4650  210.4050  154.4290 C   0  0  0  0  0  3  0  0  0  0  0  0
  160.2360  208.1510  157.1050 C   0  0  0  0  0  3  0  0  0  0  0  0
  161.2070  208.2660  150.1070 C   0  0  0  0  0  2  0  0  0  0  0  0
  161.6560  209.2230  152.3740 C   0  0  0  0  0  0  0  0  0  0  0  0
  161.2160  205.4830  152.6900 C   0  0  0  0  0  3  0  0  0  0  0  0
  160.7990  210.5620  157.2600 C   0  0  0  0  0  1  0  0  0  0  0  0
  161.2250  206.9090  150.7350 C   0  0  0  0  0  0  0  0  0  0  0  0
  161.2000  205.7770  149.9140 C   0  0  0  0  0  3  0  0  0  0  0  0
  161.7680  210.3620  153.1100 N   0  0  0  0  0  0  0  0  0  0  0  0
  161.0270  209.2590  155.0940 C   0  0  0  0  0  0  0  0  0  0  0  0
  160.6900  209.3040  156.4630 C   0  0  0  0  0  0  0  0  0  0  0  0
  162.5110  209.9530  148.1870 O   0  0  0  0  0  0  0  0  0  0  0  0
  162.1610  210.8690  148.9810 C   0  0  0  0  0  0  0  0  0  0  0  0
  161.9280  210.5810  150.3620 N   0  0  0  0  0  2  0  0  0  0  0  0
  163.1340  212.7650  147.9290 O   0  0  0  0  0  1  0  0  0  0  0  0
  161.9530  212.2610  148.4820 C   0  0  1  0  0  3  0  0  0  0  0  0
  161.2930  212.5770  146.1900 O   0  0  0  0  0  1  0  0  0  0  0  0
  160.8050  212.3170  147.4730 C   0  0  2  0  0  3  0  0  0  0  0  0
  159.7910  213.3830  147.8580 C   0  0  0  0  0  2  0  0  0  0  0  0
  158.4070  212.9420  147.5260 C   0  0  0  0  0  0  0  0  0  0  0  0
  157.5090  212.9680  148.4080 O   0  0  0  0  0  1  0  0  0  0  0  0
  158.0990  212.5330  146.2350 O   0  0  0  0  0  0  0  0  0  0  0  0
  1  9  1  0  0  0  0
  1 14  1  0  0  0  0
  2  3  1  0  0  0  0
  3  7  2  0  0  0  0
  3 19  1  0  0  0  0
  4 11  2  0  0  0  0
  5 14  2  0  0  0  0
  5  2  1  0  0  0  0
  6  1  2  0  0  0  0
  7  4  1  0  0  0  0
  8 23  1  6  0  0  0
  8 13  1  0  0  0  0
 10 19  1  0  0  0  0
 12 16  1  0  0  0  0
 12  8  1  0  0  0  0
 13  2  2  0  0  0  0
 13 18  1  0  0  0  0
 16  5  1  0  0  0  0
 17  6  1  0  0  0  0
 17 16  2  0  0  0  0
 18 10  2  0  0  0  0
 19 20  2  0  0  0  0
 20 11  1  0  0  0  0
 20 15  1  0  0  0  0
 21 22  2  0  0  0  0
 22 23  1  0  0  0  0
 25 24  1  6  0  0  0
 25 22  1  0  0  0  0
 27 26  1  6  0  0  0
 27 28  1  0  0  0  0
 27 25  1  0  0  0  0
 29 28  1  0  0  0  0
 29 30  1  0  0  0  0
 31 29  2  0  0  0  0
M  END
>  <MODEL>
3

>  <REMARK>
 VINA RESULT:      -8.5      1.961      4.979
  Name = 
  5 active torsions:
  status: ('A' for Active; 'I' for Inactive)
    1  A    between atoms: C_1  and  C_24
    2  A    between atoms: C_9  and  C_22
    3  A    between atoms: C_15  and  N_23
    4  A    between atoms: C_19  and  C_22
    5  A    between atoms: C_19  and  C_24
                            x       y       z     vdW  Elec       q    Type
                         _______ _______ _______ _____ _____    ______ ____

>  <TORSDO>
F 5

$$$$
=
 OpenBabel11052422413D

 31 34  0  0  1  0  0  0  0  0999 V2000
  161.7200  211.3130  149.7880 C   0  0  0  0  0  0  0  0  0  0  0  0
  161.3740  208.4220  152.2700 C   0  0  0  0  0  0  0  0  0  0  0  0
  161.4060  208.9740  153.5800 C   0  0  0  0  0  0  0  0  0  0  0  0
  161.7620  210.8440  155.1040 C   0  0  0  0  0  3  0  0  0  0  0  0
  161.6240  209.2120  151.0180 C   0  0  0  0  0  0  0  0  0  0  0  0
  162.0330  210.6230  148.6160 C   0  0  0  0  0  3  0  0  0  0  0  0
  161.7300  210.3210  153.8110 C   0  0  0  0  0  3  0  0  0  0  0  0
  161.0310  206.4050  150.7650 C   0  0  2  0  0  3  0  0  0  0  0  0
  161.6170  212.6630  149.7710 F   0  0  0  0  0  0  0  0  0  0  0  0
  160.8310  206.7980  154.4850 C   0  0  0  0  0  3  0  0  0  0  0  0
  161.4740  210.0260  156.1950 C   0  0  0  0  0  3  0  0  0  0  0  0
  162.0520  207.0360  149.8190 C   0  0  0  0  0  2  0  0  0  0  0  0
  161.1080  207.0370  152.1360 C   0  0  0  0  0  0  0  0  0  0  0  0
  161.5140  210.6110  150.9770 C   0  0  0  0  0  3  0  0  0  0  0  0
  160.8610  207.8440  157.2030 C   0  0  0  0  0  1  0  0  0  0  0  0
  161.9150  208.5250  149.8190 C   0  0  0  0  0  0  0  0  0  0  0  0
  162.1320  209.2300  148.6320 C   0  0  0  0  0  3  0  0  0  0  0  0
  160.8240  206.2840  153.2320 N   0  0  0  0  0  0  0  0  0  0  0  0
  161.1270  208.1460  154.6980 C   0  0  0  0  0  0  0  0  0  0  0  0
  161.1560  208.6800  156.0020 C   0  0  0  0  0  0  0  0  0  0  0  0
  160.5940  204.5350  148.6490 O   0  0  0  0  0  0  0  0  0  0  0  0
  161.0330  204.0870  149.7440 C   0  0  0  0  0  0  0  0  0  0  0  0
  161.2640  204.9690  150.8450 N   0  0  0  0  0  2  0  0  0  0  0  0
  161.1490  202.2250  151.2140 O   0  0  0  0  0  1  0  0  0  0  0  0
  161.3480  202.6360  149.8930 C   0  0  1  0  0  3  0  0  0  0  0  0
  159.3650  201.3160  149.5520 O   0  0  0  0  0  1  0  0  0  0  0  0
  160.5190  201.7910  148.9240 C   0  0  2  0  0  3  0  0  0  0  0  0
  161.3290  200.6180  148.3930 C   0  0  0  0  0  2  0  0  0  0  0  0
  161.2070  200.5200  146.9110 C   0  0  0  0  0  0  0  0  0  0  0  0
  161.5230  199.4530  146.3230 O   0  0  0  0  0  1  0  0  0  0  0  0
  160.7140  201.5930  146.1810 O   0  0  0  0  0  0  0  0  0  0  0  0
  1 14  1  0  0  0  0
  2  3  1  0  0  0  0
  3  7  2  0  0  0  0
  3 19  1  0  0  0  0
  4 11  2  0  0  0  0
  5  2  1  0  0  0  0
  6 17  1  0  0  0  0
  6  1  2  0  0  0  0
  7  4  1  0  0  0  0
  8 23  1  1  0  0  0
  8 13  1  0  0  0  0
  9  1  1  0  0  0  0
 10 19  1  0  0  0  0
 12  8  1  0  0  0  0
 13  2  2  0  0  0  0
 13 18  1  0  0  0  0
 14  5  2  0  0  0  0
 16 12  1  0  0  0  0
 16  5  1  0  0  0  0
 17 16  2  0  0  0  0
 18 10  2  0  0  0  0
 19 20  2  0  0  0  0
 20 11  1  0  0  0  0
 20 15  1  0  0  0  0
 21 22  2  0  0  0  0
 22 25  1  0  0  0  0
 22 23  1  0  0  0  0
 25 24  1  1  0  0  0
 27 26  1  1  0  0  0
 27 25  1  0  0  0  0
 28 27  1  0  0  0  0
 29 28  1  0  0  0  0
 30 29  1  0  0  0  0
 31 29  2  0  0  0  0
M  END
>  <MODEL>
4

>  <REMARK>
 VINA RESULT:      -8.3      4.890      8.219
  Name = 
  5 active torsions:
  status: ('A' for Active; 'I' for Inactive)
    1  A    between atoms: C_1  and  C_24
    2  A    between atoms: C_9  and  C_22
    3  A    between atoms: C_15  and  N_23
    4  A    between atoms: C_19  and  C_22
    5  A    between atoms: C_19  and  C_24
                            x       y       z     vdW  Elec       q    Type
                         _______ _______ _______ _____ _____    ______ ____

>  <TORSDO>
F 5

$$$$
=
 OpenBabel11052422413D

 31 34  0  0  1  0  0  0  0  0999 V2000
  160.8280  201.6140  150.7420 C   0  0  0  0  0  0  0  0  0  0  0  0
  161.0970  204.8540  148.7260 C   0  0  0  0  0  0  0  0  0  0  0  0
  161.2100  204.4980  147.3540 C   0  0  0  0  0  0  0  0  0  0  0  0
  161.5150  202.8390  145.5940 C   0  0  0  0  0  3  0  0  0  0  0  0
  161.1130  203.8650  149.8560 C   0  0  0  0  0  0  0  0  0  0  0  0
  161.0860  202.0790  152.0320 C   0  0  0  0  0  3  0  0  0  0  0  0
  161.3990  203.1680  146.9440 C   0  0  0  0  0  3  0  0  0  0  0  0
  160.8250  206.6590  150.4920 C   0  0  2  0  0  3  0  0  0  0  0  0
  160.5670  200.3000  150.5360 F   0  0  0  0  0  0  0  0  0  0  0  0
  160.9950  206.8390  146.7540 C   0  0  0  0  0  3  0  0  0  0  0  0
  161.4460  203.8370  144.6240 C   0  0  0  0  0  3  0  0  0  0  0  0
  161.6540  205.7690  151.4170 C   0  0  0  0  0  2  0  0  0  0  0  0
  160.9800  206.2270  149.0520 C   0  0  0  0  0  0  0  0  0  0  0  0
  160.8380  202.5010  149.6650 C   0  0  0  0  0  3  0  0  0  0  0  0
  161.2060  206.2030  143.9200 C   0  0  0  0  0  1  0  0  0  0  0  0
  161.3460  204.3270  151.1690 C   0  0  0  0  0  0  0  0  0  0  0  0
  161.3460  203.4340  152.2450 C   0  0  0  0  0  3  0  0  0  0  0  0
  160.9090  207.1620  148.0660 N   0  0  0  0  0  0  0  0  0  0  0  0
  161.1560  205.5090  146.3600 C   0  0  0  0  0  0  0  0  0  0  0  0
  161.2670  205.1710  144.9960 C   0  0  0  0  0  0  0  0  0  0  0  0
  160.4560  208.2160  152.8600 O   0  0  0  0  0  0  0  0  0  0  0  0
  161.0240  208.7690  151.8790 C   0  0  0  0  0  0  0  0  0  0  0  0
  161.2300  208.0480  150.6610 N   0  0  0  0  0  2  0  0  0  0  0  0
  162.1000  210.5820  150.7830 O   0  0  0  0  0  1  0  0  0  0  0  0
  161.5170  210.1740  151.9860 C   0  0  1  0  0  3  0  0  0  0  0  0
  160.4360  212.2970  151.6470 O   0  0  0  0  0  1  0  0  0  0  0  0
  160.3900  211.1210  152.4000 C   0  0  2  0  0  3  0  0  0  0  0  0
  160.4800  211.4620  153.8800 C   0  0  0  0  0  2  0  0  0  0  0  0
  159.2300  211.0680  154.5900 C   0  0  0  0  0  0  0  0  0  0  0  0
  158.1130  211.4590  154.1630 O   0  0  0  0  0  0  0  0  0  0  0  0
  159.2950  210.2420  155.7040 O   0  0  0  0  0  1  0  0  0  0  0  0
  1  6  1  0  0  0  0
  2 13  1  0  0  0  0
  2  5  1  0  0  0  0
  3  2  2  0  0  0  0
  4  7  2  0  0  0  0
  5 16  2  0  0  0  0
  6 17  2  0  0  0  0
  7  3  1  0  0  0  0
  8 23  1  6  0  0  0
  8 12  1  0  0  0  0
  9  1  1  0  0  0  0
 10 18  1  0  0  0  0
 11 20  2  0  0  0  0
 11  4  1  0  0  0  0
 13  8  1  0  0  0  0
 14  5  1  0  0  0  0
 14  1  2  0  0  0  0
 15 20  1  0  0  0  0
 16 12  1  0  0  0  0
 16 17  1  0  0  0  0
 18 13  2  0  0  0  0
 19 10  2  0  0  0  0
 19  3  1  0  0  0  0
 20 19  1  0  0  0  0
 22 25  1  0  0  0  0
 22 21  2  0  0  0  0
 23 22  1  0  0  0  0
 25 24  1  6  0  0  0
 25 27  1  0  0  0  0
 27 26  1  6  0  0  0
 27 28  1  0  0  0  0
 28 29  1  0  0  0  0
 29 31  1  0  0  0  0
 30 29  2  0  0  0  0
M  END
>  <MODEL>
5

>  <REMARK>
 VINA RESULT:      -8.0      3.808      6.007
  Name = 
  5 active torsions:
  status: ('A' for Active; 'I' for Inactive)
    1  A    between atoms: C_1  and  C_24
    2  A    between atoms: C_9  and  C_22
    3  A    between atoms: C_15  and  N_23
    4  A    between atoms: C_19  and  C_22
    5  A    between atoms: C_19  and  C_24
                            x       y       z     vdW  Elec       q    Type
                         _______ _______ _______ _____ _____    ______ ____

>  <TORSDO>
F 5

$$$$
=
 OpenBabel11052422413D

 31 34  0  0  1  0  0  0  0  0999 V2000
  160.7770  203.1410  149.8970 C   0  0  0  0  0  0  0  0  0  0  0  0
  161.3030  206.7140  151.1610 C   0  0  0  0  0  0  0  0  0  0  0  0
  161.6310  207.5230  150.0380 C   0  0  0  0  0  0  0  0  0  0  0  0
  162.2250  207.7780  147.6880 C   0  0  0  0  0  3  0  0  0  0  0  0
  161.1610  205.2200  151.1090 C   0  0  0  0  0  0  0  0  0  0  0  0
  160.8270  202.4240  151.0940 C   0  0  0  0  0  3  0  0  0  0  0  0
  161.9000  206.9690  148.7760 C   0  0  0  0  0  3  0  0  0  0  0  0
  160.7380  206.5430  153.6310 C   0  0  2  0  0  3  0  0  0  0  0  0
  160.5700  202.4920  148.7270 F   0  0  0  0  0  0  0  0  0  0  0  0
  161.4750  209.4940  151.4440 C   0  0  0  0  0  3  0  0  0  0  0  0
  162.2910  209.1620  147.8420 C   0  0  0  0  0  3  0  0  0  0  0  0
  161.4280  205.1800  153.6150 C   0  0  0  0  0  2  0  0  0  0  0  0
  161.1170  207.3510  152.4120 C   0  0  0  0  0  0  0  0  0  0  0  0
  160.9380  204.5280  149.9070 C   0  0  0  0  0  3  0  0  0  0  0  0
  162.1270  211.2310  149.2000 C   0  0  0  0  0  1  0  0  0  0  0  0
  161.1830  204.4860  152.3140 C   0  0  0  0  0  0  0  0  0  0  0  0
  161.0320  203.0950  152.3010 C   0  0  0  0  0  3  0  0  0  0  0  0
  161.1840  208.7070  152.5070 N   0  0  0  0  0  0  0  0  0  0  0  0
  161.7140  208.9310  150.1890 C   0  0  0  0  0  0  0  0  0  0  0  0
  162.0380  209.7460  149.0850 C   0  0  0  0  0  0  0  0  0  0  0  0
  159.0000  206.9760  155.8590 O   0  0  0  0  0  0  0  0  0  0  0  0
  160.1750  207.4280  155.9370 C   0  0  0  0  0  0  0  0  0  0  0  0
  161.0920  207.2540  154.8530 N   0  0  0  0  0  2  0  0  0  0  0  0
  162.0320  208.1520  157.2310 O   0  0  0  0  0  1  0  0  0  0  0  0
  160.6350  208.1240  157.1750 C   0  0  1  0  0  3  0  0  0  0  0  0
  159.1770  209.7700  156.1980 O   0  0  0  0  0  1  0  0  0  0  0  0
  160.0530  209.5350  157.2610 C   0  0  2  0  0  3  0  0  0  0  0  0
  161.1570  210.5820  157.2510 C   0  0  0  0  0  2  0  0  0  0  0  0
  161.1140  211.3840  155.9960 C   0  0  0  0  0  0  0  0  0  0  0  0
  160.4530  212.4540  155.9540 O   0  0  0  0  0  1  0  0  0  0  0  0
  161.8310  210.9690  154.8810 O   0  0  0  0  0  0  0  0  0  0  0  0
  1 14  2  0  0  0  0
  1  6  1  0  0  0  0
  2 13  1  0  0  0  0
  3 19  1  0  0  0  0
  3  2  2  0  0  0  0
  4 11  1  0  0  0  0
  4  7  2  0  0  0  0
  5  2  1  0  0  0  0
  5 16  2  0  0  0  0
  6 17  2  0  0  0  0
  7  3  1  0  0  0  0
  8 23  1  1  0  0  0
  9  1  1  0  0  0  0
 10 18  1  0  0  0  0
 11 20  2  0  0  0  0
 12  8  1  0  0  0  0
 13 18  2  0  0  0  0
 13  8  1  0  0  0  0
 14  5  1  0  0  0  0
 16 12  1  0  0  0  0
 17 16  1  0  0  0  0
 19 10  2  0  0  0  0
 20 15  1  0  0  0  0
 20 19  1  0  0  0  0
 21 22  2  0  0  0  0
 22 25  1  0  0  0  0
 23 22  1  0  0  0  0
 25 24  1  6  0  0  0
 25 27  1  0  0  0  0
 27 26  1  6  0  0  0
 28 27  1  0  0  0  0
 29 28  1  0  0  0  0
 30 29  1  0  0  0  0
 31 29  2  0  0  0  0
M  END
>  <MODEL>
6

>  <REMARK>
 VINA RESULT:      -7.8      4.445      7.492
  Name = 
  5 active torsions:
  status: ('A' for Active; 'I' for Inactive)
    1  A    between atoms: C_1  and  C_24
    2  A    between atoms: C_9  and  C_22
    3  A    between atoms: C_15  and  N_23
    4  A    between atoms: C_19  and  C_22
    5  A    between atoms: C_19  and  C_24
                            x       y       z     vdW  Elec       q    Type
                         _______ _______ _______ _____ _____    ______ ____

>  <TORSDO>
F 5

$$$$
=
 OpenBabel11052422413D

 31 34  0  0  1  0  0  0  0  0999 V2000
  160.2370  209.0850  156.1090 C   0  0  0  0  0  0  0  0  0  0  0  0
  161.3390  208.6110  152.4760 C   0  0  0  0  0  0  0  0  0  0  0  0
  161.1960  209.8630  151.8170 C   0  0  0  0  0  0  0  0  0  0  0  0
  160.4170  212.1720  151.7600 C   0  0  0  0  0  3  0  0  0  0  0  0
  160.8760  208.3410  153.8790 C   0  0  0  0  0  0  0  0  0  0  0  0
  160.0830  207.7600  156.5170 C   0  0  0  0  0  3  0  0  0  0  0  0
  160.5530  210.9530  152.4240 C   0  0  0  0  0  3  0  0  0  0  0  0
  162.1410  206.2020  152.4250 C   0  0  2  0  0  3  0  0  0  0  0  0
  160.0020  210.0940  156.9820 F   0  0  0  0  0  0  0  0  0  0  0  0
  162.3110  208.9370  149.8710 C   0  0  0  0  0  3  0  0  0  0  0  0
  160.9210  212.3230  150.4690 C   0  0  0  0  0  3  0  0  0  0  0  0
  160.9780  205.8760  153.3600 C   0  0  0  0  0  2  0  0  0  0  0  0
  161.9370  207.5440  151.7620 C   0  0  0  0  0  0  0  0  0  0  0  0
  160.6350  209.3720  154.8020 C   0  0  0  0  0  3  0  0  0  0  0  0
  162.0760  211.4670  148.4470 C   0  0  0  0  0  1  0  0  0  0  0  0
  160.7420  207.0050  154.3130 C   0  0  0  0  0  0  0  0  0  0  0  0
  160.3330  206.7200  155.6190 C   0  0  0  0  0  3  0  0  0  0  0  0
  162.4200  207.7460  150.5060 N   0  0  0  0  0  0  0  0  0  0  0  0
  161.6940  210.0210  150.4970 C   0  0  0  0  0  0  0  0  0  0  0  0
  161.5580  211.2570  149.8320 C   0  0  0  0  0  0  0  0  0  0  0  0
  160.0690  205.3120  150.6690 O   0  0  0  0  0  0  0  0  0  0  0  0
  161.1970  204.7560  150.5720 C   0  0  0  0  0  0  0  0  0  0  0  0
  162.2740  205.1480  151.4270 N   0  0  0  0  0  2  0  0  0  0  0  0
  160.7090  202.5470  149.8470 O   0  0  0  0  0  1  0  0  0  0  0  0
  161.4320  203.7030  149.5410 C   0  0  1  0  0  3  0  0  0  0  0  0
  161.3170  203.2260  147.1850 O   0  0  0  0  0  1  0  0  0  0  0  0
  161.0830  204.2160  148.1430 C   0  0  2  0  0  3  0  0  0  0  0  0
  161.8910  205.4580  147.7990 C   0  0  0  0  0  2  0  0  0  0  0  0
  161.6200  205.8950  146.4010 C   0  0  0  0  0  0  0  0  0  0  0  0
  162.5430  205.8760  145.5450 O   0  0  0  0  0  0  0  0  0  0  0  0
  160.3410  206.2920  146.0320 O   0  0  0  0  0  1  0  0  0  0  0  0
  1  6  1  0  0  0  0
  1  9  1  0  0  0  0
  2  5  1  0  0  0  0
  3  7  1  0  0  0  0
  3  2  1  0  0  0  0
  4  7  2  0  0  0  0
  5 16  2  0  0  0  0
  5 14  1  0  0  0  0
  8 23  1  6  0  0  0
  8 12  1  0  0  0  0
 10 19  1  0  0  0  0
 10 18  2  0  0  0  0
 11  4  1  0  0  0  0
 12 16  1  0  0  0  0
 13  8  1  0  0  0  0
 13  2  2  0  0  0  0
 14  1  2  0  0  0  0
 15 20  1  0  0  0  0
 16 17  1  0  0  0  0
 17  6  2  0  0  0  0
 18 13  1  0  0  0  0
 19  3  2  0  0  0  0
 20 11  2  0  0  0  0
 20 19  1  0  0  0  0
 22 21  2  0  0  0  0
 22 23  1  0  0  0  0
 25 24  1  1  0  0  0
 25 22  1  0  0  0  0
 27 26  1  6  0  0  0
 27 25  1  0  0  0  0
 28 27  1  0  0  0  0
 29 28  1  0  0  0  0
 30 29  2  0  0  0  0
 31 29  1  0  0  0  0
M  END
>  <MODEL>
7

>  <REMARK>
 VINA RESULT:      -7.6      3.561      6.190
  Name = 
  5 active torsions:
  status: ('A' for Active; 'I' for Inactive)
    1  A    between atoms: C_1  and  C_24
    2  A    between atoms: C_9  and  C_22
    3  A    between atoms: C_15  and  N_23
    4  A    between atoms: C_19  and  C_22
    5  A    between atoms: C_19  and  C_24
                            x       y       z     vdW  Elec       q    Type
                         _______ _______ _______ _____ _____    ______ ____

>  <TORSDO>
F 5

$$$$
=
 OpenBabel11052422413D

 31 34  0  0  1  0  0  0  0  0999 V2000
  160.7820  208.7350  154.8770 C   0  0  0  0  0  0  0  0  0  0  0  0
  161.3230  209.5930  151.1880 C   0  0  0  0  0  0  0  0  0  0  0  0
  160.9520  210.9530  151.0040 C   0  0  0  0  0  0  0  0  0  0  0  0
  159.9480  213.0230  151.8120 C   0  0  0  0  0  3  0  0  0  0  0  0
  161.1220  208.8310  152.4660 C   0  0  0  0  0  0  0  0  0  0  0  0
  160.8280  207.3400  154.8370 C   0  0  0  0  0  3  0  0  0  0  0  0
  160.3100  211.6910  152.0120 C   0  0  0  0  0  3  0  0  0  0  0  0
  162.3430  207.4670  150.2430 C   0  0  2  0  0  3  0  0  0  0  0  0
  160.5910  209.3720  156.0570 F   0  0  0  0  0  0  0  0  0  0  0  0
  161.8240  210.8600  148.7430 C   0  0  0  0  0  3  0  0  0  0  0  0
  160.2190  213.6440  150.5930 C   0  0  0  0  0  3  0  0  0  0  0  0
  161.3840  206.6970  151.1500 C   0  0  0  0  0  2  0  0  0  0  0  0
  161.9020  208.9050  150.0930 C   0  0  0  0  0  0  0  0  0  0  0  0
  160.9320  209.4720  153.7010 C   0  0  0  0  0  3  0  0  0  0  0  0
  161.1110  213.6460  148.2790 C   0  0  0  0  0  1  0  0  0  0  0  0
  161.1940  207.4220  152.4440 C   0  0  0  0  0  0  0  0  0  0  0  0
  161.0320  206.6840  153.6210 C   0  0  0  0  0  3  0  0  0  0  0  0
  162.1530  209.5600  148.9280 N   0  0  0  0  0  0  0  0  0  0  0  0
  161.2110  211.5900  149.7630 C   0  0  0  0  0  0  0  0  0  0  0  0
  160.8480  212.9380  149.5670 C   0  0  0  0  0  0  0  0  0  0  0  0
  160.1360  206.3090  148.8440 O   0  0  0  0  0  0  0  0  0  0  0  0
  161.2700  206.2590  148.2930 C   0  0  0  0  0  0  0  0  0  0  0  0
  162.4170  206.8110  148.9440 N   0  0  0  0  0  2  0  0  0  0  0  0
  162.0360  206.5530  146.0630 O   0  0  0  0  0  1  0  0  0  0  0  0
  161.4240  205.6510  146.9380 C   0  0  1  0  0  3  0  0  0  0  0  0
  163.1940  204.3020  146.0240 O   0  0  0  0  0  1  0  0  0  0  0  0
  162.2050  204.3390  147.0100 C   0  0  2  0  0  3  0  0  0  0  0  0
  161.2790  203.1430  146.8470 C   0  0  0  0  0  2  0  0  0  0  0  0
  161.1710  202.3790  148.1220 C   0  0  0  0  0  0  0  0  0  0  0  0
  160.9870  202.9890  149.2080 O   0  0  0  0  0  1  0  0  0  0  0  0
  161.2400  200.9920  148.1100 O   0  0  0  0  0  0  0  0  0  0  0  0
  1  9  1  0  0  0  0
  2  5  1  0  0  0  0
  3  2  1  0  0  0  0
  3  7  1  0  0  0  0
  4  7  2  0  0  0  0
  5 14  1  0  0  0  0
  6  1  1  0  0  0  0
  8 23  1  6  0  0  0
  8 12  1  0  0  0  0
 10 18  2  0  0  0  0
 10 19  1  0  0  0  0
 11  4  1  0  0  0  0
 12 16  1  0  0  0  0
 13  8  1  0  0  0  0
 13  2  2  0  0  0  0
 14  1  2  0  0  0  0
 15 20  1  0  0  0  0
 16  5  2  0  0  0  0
 16 17  1  0  0  0  0
 17  6  2  0  0  0  0
 18 13  1  0  0  0  0
 19  3  2  0  0  0  0
 20 19  1  0  0  0  0
 20 11  2  0  0  0  0
 22 21  2  0  0  0  0
 22 23  1  0  0  0  0
 25 24  1  6  0  0  0
 25 27  1  0  0  0  0
 25 22  1  0  0  0  0
 27 26  1  6  0  0  0
 28 27  1  0  0  0  0
 28 29  1  0  0  0  0
 29 30  1  0  0  0  0
 31 29  2  0  0  0  0
M  END
>  <MODEL>
8

>  <REMARK>
 VINA RESULT:      -7.5      3.667      6.769
  Name = 
  5 active torsions:
  status: ('A' for Active; 'I' for Inactive)
    1  A    between atoms: C_1  and  C_24
    2  A    between atoms: C_9  and  C_22
    3  A    between atoms: C_15  and  N_23
    4  A    between atoms: C_19  and  C_22
    5  A    between atoms: C_19  and  C_24
                            x       y       z     vdW  Elec       q    Type
                         _______ _______ _______ _____ _____    ______ ____

>  <TORSDO>
F 5

$$$$
=
 OpenBabel11052422413D

 31 34  0  0  1  0  0  0  0  0999 V2000
  161.7760  204.1330  147.5230 C   0  0  0  0  0  0  0  0  0  0  0  0
  161.5110  206.9970  150.0460 C   0  0  0  0  0  0  0  0  0  0  0  0
  161.3030  206.4210  151.3290 C   0  0  0  0  0  0  0  0  0  0  0  0
  160.8310  204.5050  152.7620 C   0  0  0  0  0  3  0  0  0  0  0  0
  161.5240  206.2140  148.7650 C   0  0  0  0  0  0  0  0  0  0  0  0
  161.6130  204.8200  146.3190 C   0  0  0  0  0  3  0  0  0  0  0  0
  161.0390  205.0510  151.4950 C   0  0  0  0  0  3  0  0  0  0  0  0
  161.9560  209.0580  148.6300 C   0  0  2  0  0  3  0  0  0  0  0  0
  161.9740  202.7920  147.5150 F   0  0  0  0  0  0  0  0  0  0  0  0
  161.5710  208.6150  152.3300 C   0  0  0  0  0  3  0  0  0  0  0  0
  160.8800  205.3220  153.8900 C   0  0  0  0  0  3  0  0  0  0  0  0
  161.1500  208.3770  147.5240 C   0  0  0  0  0  2  0  0  0  0  0  0
  161.6990  208.3980  149.9650 C   0  0  0  0  0  0  0  0  0  0  0  0
  161.7360  204.8260  148.7340 C   0  0  0  0  0  3  0  0  0  0  0  0
  161.1680  207.5220  154.9990 C   0  0  0  0  0  1  0  0  0  0  0  0
  161.3870  206.9000  147.5390 C   0  0  0  0  0  0  0  0  0  0  0  0
  161.4170  206.2030  146.3270 C   0  0  0  0  0  3  0  0  0  0  0  0
  161.7470  209.1490  151.0980 N   0  0  0  0  0  0  0  0  0  0  0  0
  161.3370  207.2470  152.4830 C   0  0  0  0  0  0  0  0  0  0  0  0
  161.1310  206.6890  153.7610 C   0  0  0  0  0  0  0  0  0  0  0  0
  163.6700  211.2040  147.8410 O   0  0  0  0  0  0  0  0  0  0  0  0
  162.5180  211.5000  148.2610 C   0  0  0  0  0  0  0  0  0  0  0  0
  161.6140  210.4740  148.6790 N   0  0  0  0  0  2  0  0  0  0  0  0
  163.1520  213.7830  148.0880 O   0  0  0  0  0  1  0  0  0  0  0  0
  162.0690  212.9230  148.2940 C   0  0  1  0  0  3  0  0  0  0  0  0
  161.4920  213.7500  146.1090 O   0  0  0  0  0  1  0  0  0  0  0  0
  160.9640  213.1750  147.2680 C   0  0  2  0  0  3  0  0  0  0  0  0
  159.8850  214.0830  147.8400 C   0  0  0  0  0  2  0  0  0  0  0  0
  158.6180  213.3280  148.0540 C   0  0  0  0  0  0  0  0  0  0  0  0
  158.1520  212.6060  147.1350 O   0  0  0  0  0  0  0  0  0  0  0  0
  157.9680  213.3950  149.2790 O   0  0  0  0  0  1  0  0  0  0  0  0
  1 14  1  0  0  0  0
  2  3  1  0  0  0  0
  3  7  2  0  0  0  0
  3 19  1  0  0  0  0
  4 11  2  0  0  0  0
  5  2  1  0  0  0  0
  6 17  1  0  0  0  0
  6  1  2  0  0  0  0
  7  4  1  0  0  0  0
  8 23  1  1  0  0  0
  8 13  1  0  0  0  0
  9  1  1  0  0  0  0
 10 19  1  0  0  0  0
 12 16  1  0  0  0  0
 12  8  1  0  0  0  0
 13  2  2  0  0  0  0
 13 18  1  0  0  0  0
 14  5  2  0  0  0  0
 16  5  1  0  0  0  0
 17 16  2  0  0  0  0
 18 10  2  0  0  0  0
 19 20  2  0  0  0  0
 20 11  1  0  0  0  0
 20 15  1  0  0  0  0
 21 22  2  0  0  0  0
 22 25  1  0  0  0  0
 22 23  1  0  0  0  0
 25 24  1  6  0  0  0
 27 26  1  6  0  0  0
 27 28  1  0  0  0  0
 27 25  1  0  0  0  0
 28 29  1  0  0  0  0
 29 31  1  0  0  0  0
 30 29  2  0  0  0  0
M  END
>  <MODEL>
9

>  <REMARK>
 VINA RESULT:      -7.5      2.248      4.781
  Name = 
  5 active torsions:
  status: ('A' for Active; 'I' for Inactive)
    1  A    between atoms: C_1  and  C_24
    2  A    between atoms: C_9  and  C_22
    3  A    between atoms: C_15  and  N_23
    4  A    between atoms: C_19  and  C_22
    5  A    between atoms: C_19  and  C_24
                            x       y       z     vdW  Elec       q    Type
                         _______ _______ _______ _____ _____    ______ ____

>  <TORSDO>
F 5

$$$$
