=
 OpenBabel11062409553D

 43 47  0  0  1  0  0  0  0  0999 V2000
  160.8220  202.4520  149.7230 C   0  0  0  0  0  0  0  0  0  0  0  0
  161.4650  206.9150  152.0180 C   0  0  0  0  0  0  0  0  0  0  0  0
  161.9760  208.7330  149.9760 C   0  0  0  0  0  0  0  0  0  0  0  0
  161.0240  204.2180  151.3690 C   0  0  0  0  0  0  0  0  0  0  0  0
  161.0650  203.3720  148.6980 C   0  0  0  0  0  3  0  0  0  0  0  0
  160.5980  201.1170  149.4160 O   0  0  0  0  0  1  0  0  0  0  0  0
  161.2760  205.1540  150.3370 C   0  0  0  0  0  0  0  0  0  0  0  0
  160.8010  202.8740  151.0560 C   0  0  0  0  0  3  0  0  0  0  0  0
  161.2920  204.7160  149.0020 C   0  0  0  0  0  3  0  0  0  0  0  0
  161.7490  207.4220  149.6880 N   0  0  0  0  0  0  0  0  0  0  0  0
  161.5000  206.5040  150.6630 C   0  0  0  0  0  0  0  0  0  0  0  0
  161.2140  205.9730  153.0240 C   0  0  0  0  0  3  0  0  0  0  0  0
  161.6710  208.2680  152.3360 C   0  0  0  0  0  0  0  0  0  0  0  0
  161.9360  209.1730  151.2990 C   0  0  0  0  0  3  0  0  0  0  0  0
  160.9960  204.6320  152.7020 C   0  0  0  0  0  3  0  0  0  0  0  0
  162.2190  209.7150  148.8810 C   0  0  1  0  0  3  0  0  0  0  0  0
  161.4250  209.4030  147.7760 O   0  0  0  0  0  1  0  0  0  0  0  0
  161.9130  211.0560  149.3500 N   0  0  0  0  0  2  0  0  0  0  0  0
  161.6900  211.8830  148.1760 C   0  0  0  0  0  2  0  0  0  0  0  0
  161.2500  213.2840  148.5890 C   0  0  1  0  0  3  0  0  0  0  0  0
  162.3550  214.2710  148.2640 C   0  0  0  0  0  1  0  0  0  0  0  0
  159.9320  213.7400  147.9460 C   0  0  2  0  0  3  0  0  0  0  0  0
  157.9590  212.7820  146.8700 C   0  0  0  0  0  2  0  0  0  0  0  0
  158.7860  213.7460  148.9330 C   0  0  0  0  0  2  0  0  0  0  0  0
  159.4780  212.8780  146.7760 C   0  0  1  0  0  3  0  0  0  0  0  0
  157.5420  213.5840  148.0880 C   0  0  0  0  0  2  0  0  0  0  0  0
  159.9500  213.4690  145.4430 C   0  0  2  0  0  3  0  0  0  0  0  0
  158.8880  214.0800  144.7700 O   0  0  0  0  0  1  0  0  0  0  0  0
  160.6070  212.4170  144.5480 C   0  0  1  0  0  3  0  0  0  0  0  0
  159.7290  212.0350  143.5340 O   0  0  0  0  0  1  0  0  0  0  0  0
  161.8890  212.9120  143.9420 C   0  0  0  0  0  0  0  0  0  0  0  0
  162.8800  213.2860  144.7460 C   0  0  0  0  0  2  0  0  0  0  0  0
  162.6330  213.9390  141.9420 O   0  0  0  0  0  1  0  0  0  0  0  0
  162.1540  212.7440  142.4790 C   0  0  0  0  0  2  0  0  0  0  0  0
  161.6360  208.6730  153.6830 O   0  0  0  0  0  0  0  0  0  0  0  0
  159.3540  210.1780  156.2260 C   0  0  0  0  0  3  0  0  0  0  0  0
  158.7230  211.1520  155.4480 C   0  0  0  0  0  0  0  0  0  0  0  0
  160.0170  210.4480  153.5250 C   0  0  0  0  0  3  0  0  0  0  0  0
  160.3190  209.3450  155.6540 C   0  0  0  0  0  3  0  0  0  0  0  0
  160.6560  209.4710  154.2960 C   0  0  0  0  0  0  0  0  0  0  0  0
  159.0520  211.2840  154.0960 C   0  0  0  0  0  3  0  0  0  0  0  0
  156.4460  211.9160  155.2960 N   0  0  0  0  0  1  0  0  0  0  0  0
  157.6810  212.0270  156.0510 C   0  0  0  0  0  2  0  0  0  0  0  0
  1  8  1  0  0  0  0
  2 13  1  0  0  0  0
  2 12  1  0  0  0  0
  3 14  1  0  0  0  0
  4 15  1  0  0  0  0
  5  9  1  0  0  0  0
  5  1  2  0  0  0  0
  6  1  1  0  0  0  0
  7 11  1  0  0  0  0
  7  4  1  0  0  0  0
  8  4  2  0  0  0  0
  9  7  2  0  0  0  0
 10  3  2  0  0  0  0
 10 11  1  0  0  0  0
 11  2  2  0  0  0  0
 13 35  1  0  0  0  0
 14 13  2  0  0  0  0
 15 12  2  0  0  0  0
 16 17  1  6  0  0  0
 16 18  1  0  0  0  0
 16  3  1  0  0  0  0
 19 20  1  0  0  0  0
 19 18  1  0  0  0  0
 20 21  1  6  0  0  0
 22 20  1  1  0  0  0
 22 24  1  0  0  0  0
 23 26  1  0  0  0  0
 25 27  1  6  0  0  0
 25 23  1  0  0  0  0
 25 22  1  0  0  0  0
 26 24  1  0  0  0  0
 27 28  1  6  0  0  0
 29 30  1  6  0  0  0
 29 27  1  0  0  0  0
 31 29  1  0  0  0  0
 31 32  2  0  0  0  0
 33 34  1  0  0  0  0
 34 31  1  0  0  0  0
 35 40  1  0  0  0  0
 37 43  1  0  0  0  0
 37 36  2  0  0  0  0
 38 41  2  0  0  0  0
 38 40  1  0  0  0  0
 39 36  1  0  0  0  0
 40 39  2  0  0  0  0
 41 37  1  0  0  0  0
 42 43  1  0  0  0  0
M  END
>  <MODEL>
1

>  <REMARK>
 VINA RESULT:      -8.6      0.000      0.000
  Name = 
  12 active torsions:
  status: ('A' for Active; 'I' for Inactive)
    1  A    between atoms: O_1  and  C_34
    2  A    between atoms: O_1  and  C_35
    3  A    between atoms: C_2  and  N_6
    4  A    between atoms: C_2  and  C_13
    5  A    between atoms: C_3  and  C_4
    6  A    between atoms: C_3  and  C_12
    7  A    between atoms: N_6  and  C_12
    8  A    between atoms: C_11  and  C_14
    9  A    between atoms: C_11  and  C_29
   10  A    between atoms: C_14  and  C_22
   11  A    between atoms: C_19  and  C_37
   12  A    between atoms: C_29  and  C_31
                            x       y       z     vdW  Elec       q    Type
                         _______ _______ _______ _____ _____    ______ ____

>  <TORSDO>
F 12

$$$$
=
 OpenBabel11062409553D

 43 47  0  0  1  0  0  0  0  0999 V2000
  161.3650  204.5000  147.7750 C   0  0  0  0  0  0  0  0  0  0  0  0
  161.5490  208.3750  151.0240 C   0  0  0  0  0  0  0  0  0  0  0  0
  161.9920  210.6330  149.4610 C   0  0  0  0  0  0  0  0  0  0  0  0
  161.3560  205.8660  149.7760 C   0  0  0  0  0  0  0  0  0  0  0  0
  161.5740  205.6400  146.9920 C   0  0  0  0  0  3  0  0  0  0  0  0
  161.2640  203.2550  147.1720 O   0  0  0  0  0  1  0  0  0  0  0  0
  161.5720  207.0230  148.9900 C   0  0  0  0  0  0  0  0  0  0  0  0
  161.2570  204.6130  149.1650 C   0  0  0  0  0  3  0  0  0  0  0  0
  161.6780  206.8960  147.5950 C   0  0  0  0  0  3  0  0  0  0  0  0
  161.8840  209.4070  148.8810 N   0  0  0  0  0  0  0  0  0  0  0  0
  161.6720  208.2800  149.6160 C   0  0  0  0  0  0  0  0  0  0  0  0
  161.3350  207.2180  151.7830 C   0  0  0  0  0  3  0  0  0  0  0  0
  161.6310  209.6350  151.6400 C   0  0  0  0  0  0  0  0  0  0  0  0
  161.8620  210.7650  150.8430 C   0  0  0  0  0  3  0  0  0  0  0  0
  161.2410  205.9710  151.1640 C   0  0  0  0  0  3  0  0  0  0  0  0
  162.1980  211.8480  148.6230 C   0  0  1  0  0  3  0  0  0  0  0  0
  163.2230  211.6250  147.7020 O   0  0  0  0  0  1  0  0  0  0  0  0
  160.9660  212.1750  147.9240 N   0  0  0  0  0  2  0  0  0  0  0  0
  161.3340  212.6530  146.6020 C   0  0  0  0  0  2  0  0  0  0  0  0
  160.2080  212.3850  145.6080 C   0  0  1  0  0  3  0  0  0  0  0  0
  158.8730  212.6090  146.2920 C   0  0  0  0  0  1  0  0  0  0  0  0
  160.2900  213.2290  144.3280 C   0  0  2  0  0  3  0  0  0  0  0  0
  159.4820  213.1940  142.0220 C   0  0  0  0  0  2  0  0  0  0  0  0
  159.1310  214.1930  144.2020 C   0  0  0  0  0  2  0  0  0  0  0  0
  160.3030  212.4130  143.0420 C   0  0  1  0  0  3  0  0  0  0  0  0
  158.9990  214.4530  142.7180 C   0  0  0  0  0  2  0  0  0  0  0  0
  161.7380  212.1540  142.5710 C   0  0  2  0  0  3  0  0  0  0  0  0
  162.6560  212.7760  143.4220 O   0  0  0  0  0  1  0  0  0  0  0  0
  161.9610  212.6120  141.1290 C   0  0  1  0  0  3  0  0  0  0  0  0
  163.0430  213.4910  141.0670 O   0  0  0  0  0  1  0  0  0  0  0  0
  162.2010  211.4560  140.2000 C   0  0  0  0  0  0  0  0  0  0  0  0
  163.3010  211.4480  139.4520 C   0  0  0  0  0  2  0  0  0  0  0  0
  162.1380  209.1000  139.9640 O   0  0  0  0  0  1  0  0  0  0  0  0
  161.3690  210.2170  140.2960 C   0  0  0  0  0  2  0  0  0  0  0  0
  161.5080  209.7270  153.0390 O   0  0  0  0  0  0  0  0  0  0  0  0
  158.3250  211.4560  153.9450 C   0  0  0  0  0  3  0  0  0  0  0  0
  158.1580  210.9990  155.2550 C   0  0  0  0  0  0  0  0  0  0  0  0
  160.2150  209.7330  155.0700 C   0  0  0  0  0  3  0  0  0  0  0  0
  159.4330  211.0460  153.1980 C   0  0  0  0  0  3  0  0  0  0  0  0
  160.3910  210.1840  153.7580 C   0  0  0  0  0  0  0  0  0  0  0  0
  159.1070  210.1410  155.8190 C   0  0  0  0  0  3  0  0  0  0  0  0
  155.7630  211.2160  155.3140 N   0  0  0  0  0  1  0  0  0  0  0  0
  156.9890  211.4490  156.0570 C   0  0  0  0  0  2  0  0  0  0  0  0
  1  8  1  0  0  0  0
  2 13  1  0  0  0  0
  2 12  1  0  0  0  0
  3 14  1  0  0  0  0
  4 15  1  0  0  0  0
  5  9  1  0  0  0  0
  5  1  2  0  0  0  0
  6  1  1  0  0  0  0
  7 11  1  0  0  0  0
  7  4  1  0  0  0  0
  8  4  2  0  0  0  0
  9  7  2  0  0  0  0
 10  3  2  0  0  0  0
 10 11  1  0  0  0  0
 11  2  2  0  0  0  0
 13 35  1  0  0  0  0
 14 13  2  0  0  0  0
 15 12  2  0  0  0  0
 16 17  1  6  0  0  0
 16  3  1  0  0  0  0
 18 16  1  0  0  0  0
 19 18  1  0  0  0  0
 20 21  1  1  0  0  0
 20 19  1  0  0  0  0
 22 20  1  1  0  0  0
 23 26  1  0  0  0  0
 23 25  1  0  0  0  0
 24 22  1  0  0  0  0
 25 27  1  6  0  0  0
 25 22  1  0  0  0  0
 26 24  1  0  0  0  0
 27 28  1  1  0  0  0
 29 30  1  1  0  0  0
 29 27  1  0  0  0  0
 31 34  1  0  0  0  0
 31 29  1  0  0  0  0
 32 31  2  0  0  0  0
 33 34  1  0  0  0  0
 35 40  1  0  0  0  0
 36 37  1  0  0  0  0
 37 41  2  0  0  0  0
 37 43  1  0  0  0  0
 38 41  1  0  0  0  0
 39 40  1  0  0  0  0
 39 36  2  0  0  0  0
 40 38  2  0  0  0  0
 42 43  1  0  0  0  0
M  END
>  <MODEL>
2

>  <REMARK>
 VINA RESULT:      -8.1      1.859      3.118
  Name = 
  12 active torsions:
  status: ('A' for Active; 'I' for Inactive)
    1  A    between atoms: O_1  and  C_34
    2  A    between atoms: O_1  and  C_35
    3  A    between atoms: C_2  and  N_6
    4  A    between atoms: C_2  and  C_13
    5  A    between atoms: C_3  and  C_4
    6  A    between atoms: C_3  and  C_12
    7  A    between atoms: N_6  and  C_12
    8  A    between atoms: C_11  and  C_14
    9  A    between atoms: C_11  and  C_29
   10  A    between atoms: C_14  and  C_22
   11  A    between atoms: C_19  and  C_37
   12  A    between atoms: C_29  and  C_31
                            x       y       z     vdW  Elec       q    Type
                         _______ _______ _______ _____ _____    ______ ____

>  <TORSDO>
F 12

$$$$
=
 OpenBabel11062409553D

 43 47  0  0  1  0  0  0  0  0999 V2000
  161.0780  202.7080  147.5870 C   0  0  0  0  0  0  0  0  0  0  0  0
  161.8860  207.4210  149.2390 C   0  0  0  0  0  0  0  0  0  0  0  0
  161.1200  207.4120  151.9130 C   0  0  0  0  0  0  0  0  0  0  0  0
  161.6600  205.0540  147.7440 C   0  0  0  0  0  0  0  0  0  0  0  0
  160.7070  202.7040  148.9350 C   0  0  0  0  0  3  0  0  0  0  0  0
  160.9750  201.5450  146.8370 O   0  0  0  0  0  1  0  0  0  0  0  0
  161.2820  205.0590  149.1080 C   0  0  0  0  0  0  0  0  0  0  0  0
  161.5540  203.8810  146.9920 C   0  0  0  0  0  3  0  0  0  0  0  0
  160.8070  203.8730  149.6930 C   0  0  0  0  0  3  0  0  0  0  0  0
  161.0300  206.2760  151.1690 N   0  0  0  0  0  0  0  0  0  0  0  0
  161.3930  206.2460  149.8560 C   0  0  0  0  0  0  0  0  0  0  0  0
  162.2560  207.3950  147.8880 C   0  0  0  0  0  3  0  0  0  0  0  0
  162.0120  208.5980  149.9960 C   0  0  0  0  0  0  0  0  0  0  0  0
  161.6140  208.5830  151.3400 C   0  0  0  0  0  3  0  0  0  0  0  0
  162.1420  206.2190  147.1450 C   0  0  0  0  0  3  0  0  0  0  0  0
  160.7390  207.4010  153.3540 C   0  0  1  0  0  3  0  0  0  0  0  0
  161.2960  206.2890  153.9860 O   0  0  0  0  0  1  0  0  0  0  0  0
  161.2060  208.6210  153.9920 N   0  0  0  0  0  2  0  0  0  0  0  0
  160.2760  208.9300  155.0650 C   0  0  0  0  0  2  0  0  0  0  0  0
  160.3100  210.4210  155.3840 C   0  0  1  0  0  3  0  0  0  0  0  0
  161.6950  210.9640  155.0910 C   0  0  0  0  0  1  0  0  0  0  0  0
  159.2530  211.2450  154.6360 C   0  0  2  0  0  3  0  0  0  0  0  0
  158.7720  213.5710  154.0600 C   0  0  0  0  0  2  0  0  0  0  0  0
  159.6280  211.4770  153.1890 C   0  0  0  0  0  2  0  0  0  0  0  0
  158.9970  212.6220  155.2320 C   0  0  1  0  0  3  0  0  0  0  0  0
  158.8980  212.7430  152.7950 C   0  0  0  0  0  2  0  0  0  0  0  0
  157.8090  212.5880  156.2000 C   0  0  2  0  0  3  0  0  0  0  0  0
  157.9710  211.5690  157.1440 O   0  0  0  0  0  1  0  0  0  0  0  0
  156.4760  212.4240  155.4700 C   0  0  1  0  0  3  0  0  0  0  0  0
  155.8650  211.2280  155.8490 O   0  0  0  0  0  1  0  0  0  0  0  0
  155.5420  213.5690  155.7330 C   0  0  0  0  0  0  0  0  0  0  0  0
  155.4630  214.0660  156.9650 C   0  0  0  0  0  2  0  0  0  0  0  0
  155.3060  213.7560  153.3840 O   0  0  0  0  0  1  0  0  0  0  0  0
  154.9100  214.3130  154.6000 C   0  0  0  0  0  2  0  0  0  0  0  0
  162.5030  209.7640  149.3810 O   0  0  0  0  0  0  0  0  0  0  0  0
  160.6580  212.9980  149.6660 C   0  0  0  0  0  3  0  0  0  0  0  0
  160.3600  213.2330  148.3200 C   0  0  0  0  0  0  0  0  0  0  0  0
  161.4670  211.1640  147.7180 C   0  0  0  0  0  3  0  0  0  0  0  0
  161.3650  211.8500  150.0340 C   0  0  0  0  0  3  0  0  0  0  0  0
  161.7710  210.9200  149.0620 C   0  0  0  0  0  0  0  0  0  0  0  0
  160.7610  212.3130  147.3480 C   0  0  0  0  0  3  0  0  0  0  0  0
  158.1850  214.2600  148.2410 N   0  0  0  0  0  1  0  0  0  0  0  0
  159.5920  214.4460  147.9290 C   0  0  0  0  0  2  0  0  0  0  0  0
  1  5  1  0  0  0  0
  2 11  1  0  0  0  0
  2 13  1  0  0  0  0
  3 16  1  0  0  0  0
  4  7  1  0  0  0  0
  5  9  2  0  0  0  0
  6  1  1  0  0  0  0
  7  9  1  0  0  0  0
  7 11  2  0  0  0  0
  8  1  2  0  0  0  0
  8  4  1  0  0  0  0
 10  3  2  0  0  0  0
 11 10  1  0  0  0  0
 12  2  2  0  0  0  0
 13 14  2  0  0  0  0
 14  3  1  0  0  0  0
 15  4  2  0  0  0  0
 15 12  1  0  0  0  0
 16 17  1  1  0  0  0
 16 18  1  0  0  0  0
 18 19  1  0  0  0  0
 19 20  1  0  0  0  0
 20 21  1  6  0  0  0
 22 25  1  0  0  0  0
 22 20  1  1  0  0  0
 23 25  1  0  0  0  0
 24 22  1  0  0  0  0
 25 27  1  1  0  0  0
 26 24  1  0  0  0  0
 26 23  1  0  0  0  0
 27 28  1  1  0  0  0
 29 31  1  0  0  0  0
 29 30  1  1  0  0  0
 29 27  1  0  0  0  0
 31 32  2  0  0  0  0
 33 34  1  0  0  0  0
 34 31  1  0  0  0  0
 35 13  1  0  0  0  0
 36 39  1  0  0  0  0
 37 36  2  0  0  0  0
 38 40  1  0  0  0  0
 40 35  1  0  0  0  0
 40 39  2  0  0  0  0
 41 38  2  0  0  0  0
 41 37  1  0  0  0  0
 43 42  1  0  0  0  0
 43 37  1  0  0  0  0
M  END
>  <MODEL>
3

>  <REMARK>
 VINA RESULT:      -8.0      2.941      7.492
  Name = 
  12 active torsions:
  status: ('A' for Active; 'I' for Inactive)
    1  A    between atoms: O_1  and  C_34
    2  A    between atoms: O_1  and  C_35
    3  A    between atoms: C_2  and  N_6
    4  A    between atoms: C_2  and  C_13
    5  A    between atoms: C_3  and  C_4
    6  A    between atoms: C_3  and  C_12
    7  A    between atoms: N_6  and  C_12
    8  A    between atoms: C_11  and  C_14
    9  A    between atoms: C_11  and  C_29
   10  A    between atoms: C_14  and  C_22
   11  A    between atoms: C_19  and  C_37
   12  A    between atoms: C_29  and  C_31
                            x       y       z     vdW  Elec       q    Type
                         _______ _______ _______ _____ _____    ______ ____

>  <TORSDO>
F 12

$$$$
=
 OpenBabel11062409553D

 43 47  0  0  1  0  0  0  0  0999 V2000
  160.8460  202.5020  148.8550 C   0  0  0  0  0  0  0  0  0  0  0  0
  161.4330  206.6740  151.6570 C   0  0  0  0  0  0  0  0  0  0  0  0
  161.8790  208.7310  149.8400 C   0  0  0  0  0  0  0  0  0  0  0  0
  161.0360  204.0640  150.6960 C   0  0  0  0  0  0  0  0  0  0  0  0
  161.0570  203.5410  147.9440 C   0  0  0  0  0  3  0  0  0  0  0  0
  160.6450  201.2090  148.3940 O   0  0  0  0  0  1  0  0  0  0  0  0
  161.2550  205.1210  149.7800 C   0  0  0  0  0  0  0  0  0  0  0  0
  160.8350  202.7620  150.2290 C   0  0  0  0  0  3  0  0  0  0  0  0
  161.2610  204.8450  148.4030 C   0  0  0  0  0  3  0  0  0  0  0  0
  161.6740  207.4600  149.4000 N   0  0  0  0  0  0  0  0  0  0  0  0
  161.4570  206.4280  150.2620 C   0  0  0  0  0  0  0  0  0  0  0  0
  161.2150  205.6140  152.5470 C   0  0  0  0  0  3  0  0  0  0  0  0
  161.6160  207.9830  152.1310 C   0  0  0  0  0  0  0  0  0  0  0  0
  161.8490  209.0110  151.2060 C   0  0  0  0  0  3  0  0  0  0  0  0
  161.0190  204.3170  152.0700 C   0  0  0  0  0  3  0  0  0  0  0  0
  162.0870  209.8410  148.8670 C   0  0  1  0  0  3  0  0  0  0  0  0
  161.5790  209.4810  147.6170 O   0  0  0  0  0  1  0  0  0  0  0  0
  161.4240  211.0420  149.3450 N   0  0  0  0  0  2  0  0  0  0  0  0
  162.2890  212.1670  149.0330 C   0  0  0  0  0  2  0  0  0  0  0  0
  161.5030  213.2600  148.3160 C   0  0  1  0  0  3  0  0  0  0  0  0
  162.4680  214.1710  147.5830 C   0  0  0  0  0  1  0  0  0  0  0  0
  160.4390  212.7290  147.3440 C   0  0  2  0  0  3  0  0  0  0  0  0
  158.8190  213.5710  145.7200 C   0  0  0  0  0  2  0  0  0  0  0  0
  160.9900  212.5200  145.9510 C   0  0  0  0  0  2  0  0  0  0  0  0
  159.2290  213.6390  147.1870 C   0  0  1  0  0  3  0  0  0  0  0  0
  159.7900  212.6270  145.0360 C   0  0  0  0  0  2  0  0  0  0  0  0
  158.1000  213.2180  148.1350 C   0  0  2  0  0  3  0  0  0  0  0  0
  157.3150  212.2170  147.5530 O   0  0  0  0  0  1  0  0  0  0  0  0
  157.2230  214.4020  148.5480 C   0  0  1  0  0  3  0  0  0  0  0  0
  156.0770  214.4500  147.7530 O   0  0  0  0  0  1  0  0  0  0  0  0
  156.8290  214.3350  149.9950 C   0  0  0  0  0  0  0  0  0  0  0  0
  155.5640  214.0660  150.3060 C   0  0  0  0  0  2  0  0  0  0  0  0
  158.3420  213.0060  151.2410 O   0  0  0  0  0  1  0  0  0  0  0  0
  157.8710  214.3080  151.0680 C   0  0  0  0  0  2  0  0  0  0  0  0
  161.5920  208.2250  153.5170 O   0  0  0  0  0  0  0  0  0  0  0  0
  160.1880  211.5600  154.4370 C   0  0  0  0  0  3  0  0  0  0  0  0
  159.4060  211.2040  155.5400 C   0  0  0  0  0  0  0  0  0  0  0  0
  160.1050  208.8990  155.2860 C   0  0  0  0  0  3  0  0  0  0  0  0
  160.9220  210.5840  153.7590 C   0  0  0  0  0  3  0  0  0  0  0  0
  160.8900  209.2440  154.1810 C   0  0  0  0  0  0  0  0  0  0  0  0
  159.3680  209.8740  155.9670 C   0  0  0  0  0  3  0  0  0  0  0  0
  157.2470  211.8440  156.3890 N   0  0  0  0  0  1  0  0  0  0  0  0
  158.6380  212.2460  156.2750 C   0  0  0  0  0  2  0  0  0  0  0  0
  1  8  1  0  0  0  0
  2 13  1  0  0  0  0
  2 12  1  0  0  0  0
  3 14  1  0  0  0  0
  4 15  1  0  0  0  0
  5  9  1  0  0  0  0
  5  1  2  0  0  0  0
  6  1  1  0  0  0  0
  7 11  1  0  0  0  0
  7  4  1  0  0  0  0
  8  4  2  0  0  0  0
  9  7  2  0  0  0  0
 10  3  2  0  0  0  0
 10 11  1  0  0  0  0
 11  2  2  0  0  0  0
 13 35  1  0  0  0  0
 14 13  2  0  0  0  0
 15 12  2  0  0  0  0
 16 17  1  6  0  0  0
 16 18  1  0  0  0  0
 16  3  1  0  0  0  0
 19 18  1  0  0  0  0
 20 21  1  6  0  0  0
 20 19  1  0  0  0  0
 22 20  1  1  0  0  0
 23 25  1  0  0  0  0
 24 22  1  0  0  0  0
 25 22  1  0  0  0  0
 25 27  1  1  0  0  0
 26 23  1  0  0  0  0
 26 24  1  0  0  0  0
 27 28  1  6  0  0  0
 27 29  1  0  0  0  0
 29 30  1  6  0  0  0
 29 31  1  0  0  0  0
 31 32  2  0  0  0  0
 31 34  1  0  0  0  0
 34 33  1  0  0  0  0
 35 40  1  0  0  0  0
 36 37  1  0  0  0  0
 37 41  2  0  0  0  0
 37 43  1  0  0  0  0
 38 41  1  0  0  0  0
 39 40  1  0  0  0  0
 39 36  2  0  0  0  0
 40 38  2  0  0  0  0
 43 42  1  0  0  0  0
M  END
>  <MODEL>
4

>  <REMARK>
 VINA RESULT:      -7.6      1.760      3.451
  Name = 
  12 active torsions:
  status: ('A' for Active; 'I' for Inactive)
    1  A    between atoms: O_1  and  C_34
    2  A    between atoms: O_1  and  C_35
    3  A    between atoms: C_2  and  N_6
    4  A    between atoms: C_2  and  C_13
    5  A    between atoms: C_3  and  C_4
    6  A    between atoms: C_3  and  C_12
    7  A    between atoms: N_6  and  C_12
    8  A    between atoms: C_11  and  C_14
    9  A    between atoms: C_11  and  C_29
   10  A    between atoms: C_14  and  C_22
   11  A    between atoms: C_19  and  C_37
   12  A    between atoms: C_29  and  C_31
                            x       y       z     vdW  Elec       q    Type
                         _______ _______ _______ _____ _____    ______ ____

>  <TORSDO>
F 12

$$$$
=
 OpenBabel11062409553D

 43 47  0  0  1  0  0  0  0  0999 V2000
  160.3020  210.4580  155.6150 C   0  0  0  0  0  0  0  0  0  0  0  0
  161.6110  208.4930  151.1390 C   0  0  0  0  0  0  0  0  0  0  0  0
  161.9130  210.6700  149.4340 C   0  0  0  0  0  0  0  0  0  0  0  0
  160.8680  208.9430  153.8110 C   0  0  0  0  0  0  0  0  0  0  0  0
  160.4690  211.5500  154.7570 C   0  0  0  0  0  3  0  0  0  0  0  0
  159.9390  210.6650  156.9370 O   0  0  0  0  0  1  0  0  0  0  0  0
  161.0340  210.0440  152.9360 C   0  0  0  0  0  0  0  0  0  0  0  0
  160.5020  209.1560  155.1420 C   0  0  0  0  0  3  0  0  0  0  0  0
  160.8330  211.3450  153.4240 C   0  0  0  0  0  3  0  0  0  0  0  0
  161.5650  210.8610  150.7350 N   0  0  0  0  0  0  0  0  0  0  0  0
  161.4040  209.8180  151.5970 C   0  0  0  0  0  0  0  0  0  0  0  0
  161.4420  207.4180  152.0210 C   0  0  0  0  0  3  0  0  0  0  0  0
  161.9980  208.2760  149.8060 C   0  0  0  0  0  0  0  0  0  0  0  0
  162.1390  209.3800  148.9540 C   0  0  0  0  0  3  0  0  0  0  0  0
  161.0720  207.6410  153.3480 C   0  0  0  0  0  3  0  0  0  0  0  0
  162.1070  211.8360  148.5260 C   0  0  1  0  0  3  0  0  0  0  0  0
  163.3970  211.8170  147.9930 O   0  0  0  0  0  1  0  0  0  0  0  0
  161.1260  211.7900  147.4540 N   0  0  0  0  0  2  0  0  0  0  0  0
  160.9050  213.1560  147.0120 C   0  0  0  0  0  2  0  0  0  0  0  0
  160.3400  213.1720  145.5950 C   0  0  1  0  0  3  0  0  0  0  0  0
  159.5340  214.4400  145.3920 C   0  0  0  0  0  1  0  0  0  0  0  0
  161.4050  213.0450  144.4960 C   0  0  2  0  0  3  0  0  0  0  0  0
  162.2510  214.2920  142.5730 C   0  0  0  0  0  2  0  0  0  0  0  0
  162.7070  213.7110  144.8810 C   0  0  0  0  0  2  0  0  0  0  0  0
  160.9990  213.6510  143.1600 C   0  0  1  0  0  3  0  0  0  0  0  0
  163.3730  214.0560  143.5670 C   0  0  0  0  0  2  0  0  0  0  0  0
  160.3910  212.5890  142.2370 C   0  0  2  0  0  3  0  0  0  0  0  0
  160.2360  211.3770  142.9160 O   0  0  0  0  0  1  0  0  0  0  0  0
  161.2250  212.3820  140.9720 C   0  0  1  0  0  3  0  0  0  0  0  0
  161.9850  211.2170  141.0830 O   0  0  0  0  0  1  0  0  0  0  0  0
  160.3720  212.3080  139.7390 C   0  0  0  0  0  0  0  0  0  0  0  0
  160.1390  213.4220  139.0480 C   0  0  0  0  0  2  0  0  0  0  0  0
  160.4450  210.9200  137.8210 O   0  0  0  0  0  1  0  0  0  0  0  0
  160.0050  210.9860  139.1440 C   0  0  0  0  0  2  0  0  0  0  0  0
  162.2040  206.9590  149.3540 O   0  0  0  0  0  0  0  0  0  0  0  0
  160.3850  206.1590  146.1930 C   0  0  0  0  0  3  0  0  0  0  0  0
  161.3670  205.4240  145.5210 C   0  0  0  0  0  0  0  0  0  0  0  0
  162.8620  205.7080  147.4060 C   0  0  0  0  0  3  0  0  0  0  0  0
  160.6470  206.6710  147.4660 C   0  0  0  0  0  3  0  0  0  0  0  0
  161.8870  206.4450  148.0860 C   0  0  0  0  0  0  0  0  0  0  0  0
  162.6030  205.1950  146.1310 C   0  0  0  0  0  3  0  0  0  0  0  0
  159.9620  203.9420  144.2480 N   0  0  0  0  0  1  0  0  0  0  0  0
  161.0830  204.8630  144.1730 C   0  0  0  0  0  2  0  0  0  0  0  0
  1  6  1  0  0  0  0
  2 11  1  0  0  0  0
  2 12  1  0  0  0  0
  3 10  1  0  0  0  0
  4  8  2  0  0  0  0
  5  1  2  0  0  0  0
  7  9  2  0  0  0  0
  7  4  1  0  0  0  0
  8  1  1  0  0  0  0
  9  5  1  0  0  0  0
 10 11  2  0  0  0  0
 11  7  1  0  0  0  0
 12 15  2  0  0  0  0
 13  2  2  0  0  0  0
 14  3  2  0  0  0  0
 14 13  1  0  0  0  0
 15  4  1  0  0  0  0
 16 17  1  6  0  0  0
 16  3  1  0  0  0  0
 18 16  1  0  0  0  0
 19 18  1  0  0  0  0
 20 21  1  6  0  0  0
 20 19  1  0  0  0  0
 22 24  1  0  0  0  0
 22 20  1  1  0  0  0
 23 25  1  0  0  0  0
 23 26  1  0  0  0  0
 25 27  1  6  0  0  0
 25 22  1  0  0  0  0
 26 24  1  0  0  0  0
 27 28  1  1  0  0  0
 29 30  1  1  0  0  0
 29 27  1  0  0  0  0
 31 29  1  0  0  0  0
 32 31  2  0  0  0  0
 33 34  1  0  0  0  0
 34 31  1  0  0  0  0
 35 13  1  0  0  0  0
 36 39  1  0  0  0  0
 37 41  1  0  0  0  0
 37 36  2  0  0  0  0
 38 40  1  0  0  0  0
 39 40  2  0  0  0  0
 40 35  1  0  0  0  0
 41 38  2  0  0  0  0
 43 42  1  0  0  0  0
 43 37  1  0  0  0  0
M  END
>  <MODEL>
5

>  <REMARK>
 VINA RESULT:      -7.2      2.651      6.709
  Name = 
  12 active torsions:
  status: ('A' for Active; 'I' for Inactive)
    1  A    between atoms: O_1  and  C_34
    2  A    between atoms: O_1  and  C_35
    3  A    between atoms: C_2  and  N_6
    4  A    between atoms: C_2  and  C_13
    5  A    between atoms: C_3  and  C_4
    6  A    between atoms: C_3  and  C_12
    7  A    between atoms: N_6  and  C_12
    8  A    between atoms: C_11  and  C_14
    9  A    between atoms: C_11  and  C_29
   10  A    between atoms: C_14  and  C_22
   11  A    between atoms: C_19  and  C_37
   12  A    between atoms: C_29  and  C_31
                            x       y       z     vdW  Elec       q    Type
                         _______ _______ _______ _____ _____    ______ ____

>  <TORSDO>
F 12

$$$$
=
 OpenBabel11062409553D

 43 47  0  0  1  0  0  0  0  0999 V2000
  155.5440  212.6550  156.3260 C   0  0  0  0  0  0  0  0  0  0  0  0
  158.6830  213.0270  152.3750 C   0  0  0  0  0  0  0  0  0  0  0  0
  160.5730  211.0180  152.7370 C   0  0  0  0  0  0  0  0  0  0  0  0
  156.6420  213.3420  154.2790 C   0  0  0  0  0  0  0  0  0  0  0  0
  156.4880  211.6380  156.4970 C   0  0  0  0  0  3  0  0  0  0  0  0
  154.5280  212.8210  157.2560 O   0  0  0  0  0  1  0  0  0  0  0  0
  157.6040  212.3180  154.4480 C   0  0  0  0  0  0  0  0  0  0  0  0
  155.6210  213.5060  155.2180 C   0  0  0  0  0  3  0  0  0  0  0  0
  157.5140  211.4690  155.5630 C   0  0  0  0  0  3  0  0  0  0  0  0
  159.5670  211.1860  153.6390 N   0  0  0  0  0  0  0  0  0  0  0  0
  158.6280  212.1610  153.4950 C   0  0  0  0  0  0  0  0  0  0  0  0
  157.7220  214.0340  152.2260 C   0  0  0  0  0  3  0  0  0  0  0  0
  159.6970  212.8540  151.4190 C   0  0  0  0  0  0  0  0  0  0  0  0
  160.6490  211.8440  151.6160 C   0  0  0  0  0  3  0  0  0  0  0  0
  156.7080  214.1920  153.1730 C   0  0  0  0  0  3  0  0  0  0  0  0
  161.5680  209.9230  152.9130 C   0  0  1  0  0  3  0  0  0  0  0  0
  161.6620  209.5750  154.2620 O   0  0  0  0  0  1  0  0  0  0  0  0
  161.1660  208.7660  152.1290 N   0  0  0  0  0  2  0  0  0  0  0  0
  162.1920  208.5500  151.1230 C   0  0  0  0  0  2  0  0  0  0  0  0
  161.5550  208.3070  149.7590 C   0  0  1  0  0  3  0  0  0  0  0  0
  161.9510  209.4270  148.8160 C   0  0  0  0  0  1  0  0  0  0  0  0
  161.9070  206.9480  149.1370 C   0  0  2  0  0  3  0  0  0  0  0  0
  160.9880  205.3350  147.5480 C   0  0  0  0  0  2  0  0  0  0  0  0
  162.6350  207.0930  147.8190 C   0  0  0  0  0  2  0  0  0  0  0  0
  160.7040  206.0580  148.8600 C   0  0  1  0  0  3  0  0  0  0  0  0
  162.3490  205.8080  147.0720 C   0  0  0  0  0  2  0  0  0  0  0  0
  160.4560  205.0910  150.0240 C   0  0  2  0  0  3  0  0  0  0  0  0
  160.2860  205.7940  151.2210 O   0  0  0  0  0  1  0  0  0  0  0  0
  161.5820  204.0660  150.1700 C   0  0  1  0  0  3  0  0  0  0  0  0
  162.3300  204.3360  151.3160 O   0  0  0  0  0  1  0  0  0  0  0  0
  161.0610  202.6590  150.2300 C   0  0  0  0  0  0  0  0  0  0  0  0
  161.0350  202.0310  151.4020 C   0  0  0  0  0  2  0  0  0  0  0  0
  161.0780  200.9970  148.5420 O   0  0  0  0  0  1  0  0  0  0  0  0
  160.3410  202.0630  149.0620 C   0  0  0  0  0  2  0  0  0  0  0  0
  159.7500  213.7140  150.3060 O   0  0  0  0  0  0  0  0  0  0  0  0
  158.5310  212.9980  146.8510 C   0  0  0  0  0  3  0  0  0  0  0  0
  159.7330  212.6390  146.2330 C   0  0  0  0  0  0  0  0  0  0  0  0
  160.9050  212.9810  148.3250 C   0  0  0  0  0  3  0  0  0  0  0  0
  158.5200  213.3540  148.2020 C   0  0  0  0  0  3  0  0  0  0  0  0
  159.7070  213.3430  148.9520 C   0  0  0  0  0  0  0  0  0  0  0  0
  160.9190  212.6270  146.9730 C   0  0  0  0  0  3  0  0  0  0  0  0
  161.0580  212.4840  144.2300 N   0  0  0  0  0  1  0  0  0  0  0  0
  159.7430  212.2430  144.7990 C   0  0  0  0  0  2  0  0  0  0  0  0
  1  5  1  0  0  0  0
  1  6  1  0  0  0  0
  2 11  1  0  0  0  0
  3 16  1  0  0  0  0
  3 10  1  0  0  0  0
  4  7  2  0  0  0  0
  4  8  1  0  0  0  0
  7  9  1  0  0  0  0
  8  1  2  0  0  0  0
  9  5  2  0  0  0  0
 11 10  2  0  0  0  0
 11  7  1  0  0  0  0
 12  2  1  0  0  0  0
 12 15  2  0  0  0  0
 13 14  1  0  0  0  0
 13  2  2  0  0  0  0
 14  3  2  0  0  0  0
 15  4  1  0  0  0  0
 16 17  1  1  0  0  0
 18 16  1  0  0  0  0
 19 18  1  0  0  0  0
 20 21  1  6  0  0  0
 20 19  1  0  0  0  0
 22 20  1  6  0  0  0
 23 25  1  0  0  0  0
 24 22  1  0  0  0  0
 25 22  1  0  0  0  0
 25 27  1  1  0  0  0
 26 23  1  0  0  0  0
 26 24  1  0  0  0  0
 27 29  1  0  0  0  0
 27 28  1  1  0  0  0
 29 31  1  0  0  0  0
 29 30  1  1  0  0  0
 31 32  2  0  0  0  0
 33 34  1  0  0  0  0
 34 31  1  0  0  0  0
 35 13  1  0  0  0  0
 36 39  1  0  0  0  0
 37 36  2  0  0  0  0
 37 41  1  0  0  0  0
 38 40  1  0  0  0  0
 39 40  2  0  0  0  0
 40 35  1  0  0  0  0
 41 38  2  0  0  0  0
 42 43  1  0  0  0  0
 43 37  1  0  0  0  0
M  END
>  <MODEL>
6

>  <REMARK>
 VINA RESULT:      -7.2      2.717      9.240
  Name = 
  12 active torsions:
  status: ('A' for Active; 'I' for Inactive)
    1  A    between atoms: O_1  and  C_34
    2  A    between atoms: O_1  and  C_35
    3  A    between atoms: C_2  and  N_6
    4  A    between atoms: C_2  and  C_13
    5  A    between atoms: C_3  and  C_4
    6  A    between atoms: C_3  and  C_12
    7  A    between atoms: N_6  and  C_12
    8  A    between atoms: C_11  and  C_14
    9  A    between atoms: C_11  and  C_29
   10  A    between atoms: C_14  and  C_22
   11  A    between atoms: C_19  and  C_37
   12  A    between atoms: C_29  and  C_31
                            x       y       z     vdW  Elec       q    Type
                         _______ _______ _______ _____ _____    ______ ____

>  <TORSDO>
F 12

$$$$
=
 OpenBabel11062409553D

 43 47  0  0  1  0  0  0  0  0999 V2000
  160.9520  201.7310  146.6900 C   0  0  0  0  0  0  0  0  0  0  0  0
  161.7620  206.4720  148.2620 C   0  0  0  0  0  0  0  0  0  0  0  0
  161.2240  206.4510  150.9910 C   0  0  0  0  0  0  0  0  0  0  0  0
  161.4780  204.0930  146.7950 C   0  0  0  0  0  0  0  0  0  0  0  0
  160.6960  201.7220  148.0650 C   0  0  0  0  0  3  0  0  0  0  0  0
  160.8190  200.5630  145.9530 O   0  0  0  0  0  1  0  0  0  0  0  0
  161.2160  204.0930  148.1860 C   0  0  0  0  0  0  0  0  0  0  0  0
  161.3420  202.9150  146.0560 C   0  0  0  0  0  3  0  0  0  0  0  0
  160.8260  202.8970  148.8100 C   0  0  0  0  0  3  0  0  0  0  0  0
  161.1050  205.3100  150.2590 N   0  0  0  0  0  0  0  0  0  0  0  0
  161.3560  205.2850  148.9200 C   0  0  0  0  0  0  0  0  0  0  0  0
  162.0170  206.4520  146.8850 C   0  0  0  0  0  3  0  0  0  0  0  0
  161.9170  207.6550  149.0040 C   0  0  0  0  0  0  0  0  0  0  0  0
  161.6350  207.6340  150.3770 C   0  0  0  0  0  3  0  0  0  0  0  0
  161.8740  205.2700  146.1550 C   0  0  0  0  0  3  0  0  0  0  0  0
  160.9660  206.4350  152.4590 C   0  0  1  0  0  3  0  0  0  0  0  0
  161.4840  205.2670  153.0210 O   0  0  0  0  0  1  0  0  0  0  0  0
  161.5830  207.5980  153.0760 N   0  0  0  0  0  2  0  0  0  0  0  0
  160.5160  208.5300  153.4000 C   0  0  0  0  0  2  0  0  0  0  0  0
  160.4620  208.7750  154.9050 C   0  0  1  0  0  3  0  0  0  0  0  0
  161.2160  207.6690  155.6180 C   0  0  0  0  0  1  0  0  0  0  0  0
  161.0060  210.1450  155.3350 C   0  0  2  0  0  3  0  0  0  0  0  0
  160.8840  211.6830  157.2300 C   0  0  0  0  0  2  0  0  0  0  0  0
  162.2790  210.0260  156.1430 C   0  0  0  0  0  2  0  0  0  0  0  0
  160.0420  210.9610  156.1840 C   0  0  1  0  0  3  0  0  0  0  0  0
  162.3270  211.2830  156.9840 C   0  0  0  0  0  2  0  0  0  0  0  0
  159.2270  211.9250  155.3140 C   0  0  2  0  0  3  0  0  0  0  0  0
  160.0730  212.7720  154.5920 O   0  0  0  0  0  1  0  0  0  0  0  0
  158.2360  212.7470  156.1390 C   0  0  1  0  0  3  0  0  0  0  0  0
  158.6760  214.0680  156.2400 O   0  0  0  0  0  1  0  0  0  0  0  0
  156.8540  212.7220  155.5530 C   0  0  0  0  0  0  0  0  0  0  0  0
  156.6030  213.4440  154.4640 C   0  0  0  0  0  2  0  0  0  0  0  0
  155.8970  210.5860  155.1920 O   0  0  0  0  0  1  0  0  0  0  0  0
  155.8500  211.7130  156.0130 C   0  0  0  0  0  2  0  0  0  0  0  0
  162.3210  208.8320  148.3480 O   0  0  0  0  0  0  0  0  0  0  0  0
  161.1420  212.3630  148.0620 C   0  0  0  0  0  3  0  0  0  0  0  0
  161.1450  212.7350  149.4090 C   0  0  0  0  0  0  0  0  0  0  0  0
  161.9420  210.5290  150.0130 C   0  0  0  0  0  3  0  0  0  0  0  0
  161.5330  211.0730  147.6940 C   0  0  0  0  0  3  0  0  0  0  0  0
  161.9420  210.1460  148.6670 C   0  0  0  0  0  0  0  0  0  0  0  0
  161.5490  211.8190  150.3840 C   0  0  0  0  0  3  0  0  0  0  0  0
  159.9690  214.0730  151.0280 N   0  0  0  0  0  1  0  0  0  0  0  0
  160.7450  214.1140  149.8010 C   0  0  0  0  0  2  0  0  0  0  0  0
  1  5  1  0  0  0  0
  2 11  1  0  0  0  0
  2 13  1  0  0  0  0
  3 16  1  0  0  0  0
  4  7  1  0  0  0  0
  5  9  2  0  0  0  0
  6  1  1  0  0  0  0
  7  9  1  0  0  0  0
  7 11  2  0  0  0  0
  8  1  2  0  0  0  0
  8  4  1  0  0  0  0
 10  3  2  0  0  0  0
 11 10  1  0  0  0  0
 12  2  2  0  0  0  0
 13 14  2  0  0  0  0
 14  3  1  0  0  0  0
 15  4  2  0  0  0  0
 15 12  1  0  0  0  0
 16 17  1  1  0  0  0
 16 18  1  0  0  0  0
 18 19  1  0  0  0  0
 19 20  1  0  0  0  0
 20 21  1  1  0  0  0
 22 20  1  1  0  0  0
 22 24  1  0  0  0  0
 22 25  1  0  0  0  0
 24 26  1  0  0  0  0
 25 27  1  6  0  0  0
 25 23  1  0  0  0  0
 26 23  1  0  0  0  0
 27 28  1  1  0  0  0
 27 29  1  0  0  0  0
 29 30  1  6  0  0  0
 31 34  1  0  0  0  0
 31 29  1  0  0  0  0
 32 31  2  0  0  0  0
 33 34  1  0  0  0  0
 35 40  1  0  0  0  0
 35 13  1  0  0  0  0
 36 37  1  0  0  0  0
 37 43  1  0  0  0  0
 37 41  2  0  0  0  0
 38 41  1  0  0  0  0
 39 36  2  0  0  0  0
 39 40  1  0  0  0  0
 40 38  2  0  0  0  0
 43 42  1  0  0  0  0
M  END
>  <MODEL>
7

>  <REMARK>
 VINA RESULT:      -7.1      3.079      7.776
  Name = 
  12 active torsions:
  status: ('A' for Active; 'I' for Inactive)
    1  A    between atoms: O_1  and  C_34
    2  A    between atoms: O_1  and  C_35
    3  A    between atoms: C_2  and  N_6
    4  A    between atoms: C_2  and  C_13
    5  A    between atoms: C_3  and  C_4
    6  A    between atoms: C_3  and  C_12
    7  A    between atoms: N_6  and  C_12
    8  A    between atoms: C_11  and  C_14
    9  A    between atoms: C_11  and  C_29
   10  A    between atoms: C_14  and  C_22
   11  A    between atoms: C_19  and  C_37
   12  A    between atoms: C_29  and  C_31
                            x       y       z     vdW  Elec       q    Type
                         _______ _______ _______ _____ _____    ______ ____

>  <TORSDO>
F 12

$$$$
=
 OpenBabel11062409553D

 43 47  0  0  1  0  0  0  0  0999 V2000
  157.1980  213.1530  154.2960 C   0  0  0  0  0  0  0  0  0  0  0  0
  160.7100  212.1180  150.8030 C   0  0  0  0  0  0  0  0  0  0  0  0
  161.4660  209.4820  151.2700 C   0  0  0  0  0  0  0  0  0  0  0  0
  158.7630  213.2930  152.4520 C   0  0  0  0  0  0  0  0  0  0  0  0
  157.5710  211.8240  154.5180 C   0  0  0  0  0  3  0  0  0  0  0  0
  156.2350  213.7460  155.0990 O   0  0  0  0  0  1  0  0  0  0  0  0
  159.1490  211.9490  152.6740 C   0  0  0  0  0  0  0  0  0  0  0  0
  157.7940  213.8870  153.2640 C   0  0  0  0  0  3  0  0  0  0  0  0
  158.5420  211.2240  153.7120 C   0  0  0  0  0  3  0  0  0  0  0  0
  160.5170  210.0720  152.0470 N   0  0  0  0  0  0  0  0  0  0  0  0
  160.1270  211.3620  151.8500 C   0  0  0  0  0  0  0  0  0  0  0  0
  160.3150  213.4460  150.6000 C   0  0  0  0  0  3  0  0  0  0  0  0
  161.6730  211.5190  149.9730 C   0  0  0  0  0  0  0  0  0  0  0  0
  162.0510  210.1930  150.2230 C   0  0  0  0  0  3  0  0  0  0  0  0
  159.3480  214.0310  151.4200 C   0  0  0  0  0  3  0  0  0  0  0  0
  161.8500  208.0600  151.4980 C   0  0  1  0  0  3  0  0  0  0  0  0
  161.7230  207.7430  152.8510 O   0  0  0  0  0  1  0  0  0  0  0  0
  160.9990  207.1900  150.7020 N   0  0  0  0  0  2  0  0  0  0  0  0
  161.8720  206.3330  149.9180 C   0  0  0  0  0  2  0  0  0  0  0  0
  161.2140  205.9760  148.5900 C   0  0  1  0  0  3  0  0  0  0  0  0
  161.0830  207.2280  147.7440 C   0  0  0  0  0  1  0  0  0  0  0  0
  161.9500  204.8830  147.8010 C   0  0  2  0  0  3  0  0  0  0  0  0
  161.5020  203.2200  146.0680 C   0  0  0  0  0  2  0  0  0  0  0  0
  162.4880  205.3940  146.4820 C   0  0  0  0  0  2  0  0  0  0  0  0
  161.0920  203.6710  147.4650 C   0  0  1  0  0  3  0  0  0  0  0  0
  162.5900  204.1690  145.6010 C   0  0  0  0  0  2  0  0  0  0  0  0
  161.2670  202.5690  148.5160 C   0  0  2  0  0  3  0  0  0  0  0  0
  161.2010  201.3050  147.9210 O   0  0  0  0  0  1  0  0  0  0  0  0
  160.2340  202.6760  149.6400 C   0  0  1  0  0  3  0  0  0  0  0  0
  159.5120  201.4870  149.7430 O   0  0  0  0  0  1  0  0  0  0  0  0
  160.8700  202.9940  150.9620 C   0  0  0  0  0  0  0  0  0  0  0  0
  162.1490  202.6810  151.1550 C   0  0  0  0  0  2  0  0  0  0  0  0
  161.0880  204.3550  152.8890 O   0  0  0  0  0  1  0  0  0  0  0  0
  160.1730  203.8750  151.9500 C   0  0  0  0  0  2  0  0  0  0  0  0
  162.2510  212.2720  148.9340 O   0  0  0  0  0  0  0  0  0  0  0  0
  159.9900  212.2170  145.9630 C   0  0  0  0  0  3  0  0  0  0  0  0
  160.7850  212.8950  145.0340 C   0  0  0  0  0  0  0  0  0  0  0  0
  162.5280  213.1240  146.7000 C   0  0  0  0  0  3  0  0  0  0  0  0
  160.4640  211.9990  147.2590 C   0  0  0  0  0  3  0  0  0  0  0  0
  161.7410  212.4470  147.6370 C   0  0  0  0  0  0  0  0  0  0  0  0
  162.0560  213.3450  145.4020 C   0  0  0  0  0  3  0  0  0  0  0  0
  160.8640  212.1180  142.7580 N   0  0  0  0  0  1  0  0  0  0  0  0
  160.2880  213.1110  143.6480 C   0  0  0  0  0  2  0  0  0  0  0  0
  1  5  1  0  0  0  0
  1  6  1  0  0  0  0
  2 11  1  0  0  0  0
  3 16  1  0  0  0  0
  3 10  1  0  0  0  0
  4  7  2  0  0  0  0
  4  8  1  0  0  0  0
  7  9  1  0  0  0  0
  8  1  2  0  0  0  0
  9  5  2  0  0  0  0
 11 10  2  0  0  0  0
 11  7  1  0  0  0  0
 12  2  1  0  0  0  0
 12 15  2  0  0  0  0
 13 14  1  0  0  0  0
 13  2  2  0  0  0  0
 14  3  2  0  0  0  0
 15  4  1  0  0  0  0
 16 17  1  1  0  0  0
 18 16  1  0  0  0  0
 19 18  1  0  0  0  0
 20 21  1  6  0  0  0
 20 19  1  0  0  0  0
 22 20  1  6  0  0  0
 23 25  1  0  0  0  0
 24 22  1  0  0  0  0
 25 22  1  0  0  0  0
 25 27  1  1  0  0  0
 26 23  1  0  0  0  0
 26 24  1  0  0  0  0
 27 28  1  6  0  0  0
 27 29  1  0  0  0  0
 29 30  1  1  0  0  0
 29 31  1  0  0  0  0
 31 32  2  0  0  0  0
 31 34  1  0  0  0  0
 34 33  1  0  0  0  0
 35 13  1  0  0  0  0
 36 39  1  0  0  0  0
 37 41  1  0  0  0  0
 37 36  2  0  0  0  0
 38 40  1  0  0  0  0
 39 40  2  0  0  0  0
 40 35  1  0  0  0  0
 41 38  2  0  0  0  0
 42 43  1  0  0  0  0
 43 37  1  0  0  0  0
M  END
>  <MODEL>
8

>  <REMARK>
 VINA RESULT:      -7.0      2.532      9.528
  Name = 
  12 active torsions:
  status: ('A' for Active; 'I' for Inactive)
    1  A    between atoms: O_1  and  C_34
    2  A    between atoms: O_1  and  C_35
    3  A    between atoms: C_2  and  N_6
    4  A    between atoms: C_2  and  C_13
    5  A    between atoms: C_3  and  C_4
    6  A    between atoms: C_3  and  C_12
    7  A    between atoms: N_6  and  C_12
    8  A    between atoms: C_11  and  C_14
    9  A    between atoms: C_11  and  C_29
   10  A    between atoms: C_14  and  C_22
   11  A    between atoms: C_19  and  C_37
   12  A    between atoms: C_29  and  C_31
                            x       y       z     vdW  Elec       q    Type
                         _______ _______ _______ _____ _____    ______ ____

>  <TORSDO>
F 12

$$$$
=
 OpenBabel11062409553D

 43 47  0  0  1  0  0  0  0  0999 V2000
  156.3510  213.4750  154.1490 C   0  0  0  0  0  0  0  0  0  0  0  0
  160.3320  211.9420  151.4280 C   0  0  0  0  0  0  0  0  0  0  0  0
  161.0060  209.4430  152.4430 C   0  0  0  0  0  0  0  0  0  0  0  0
  158.1670  213.3360  152.5530 C   0  0  0  0  0  0  0  0  0  0  0  0
  156.6840  212.2120  154.6470 C   0  0  0  0  0  3  0  0  0  0  0  0
  155.2820  214.1730  154.6920 O   0  0  0  0  0  1  0  0  0  0  0  0
  158.5140  212.0580  153.0550 C   0  0  0  0  0  0  0  0  0  0  0  0
  157.0910  214.0360  153.1030 C   0  0  0  0  0  3  0  0  0  0  0  0
  157.7610  211.5060  154.1040 C   0  0  0  0  0  3  0  0  0  0  0  0
  159.9560  210.1340  152.9630 N   0  0  0  0  0  0  0  0  0  0  0  0
  159.6000  211.3620  152.4930 C   0  0  0  0  0  0  0  0  0  0  0  0
  159.9720  213.2070  150.9460 C   0  0  0  0  0  3  0  0  0  0  0  0
  161.4030  211.2340  150.8600 C   0  0  0  0  0  0  0  0  0  0  0  0
  161.7390  209.9790  151.3850 C   0  0  0  0  0  3  0  0  0  0  0  0
  158.8980  213.9010  151.5050 C   0  0  0  0  0  3  0  0  0  0  0  0
  161.3500  208.0890  152.9650 C   0  0  1  0  0  3  0  0  0  0  0  0
  160.7470  207.8890  154.2080 O   0  0  0  0  0  1  0  0  0  0  0  0
  160.9000  207.0740  152.0260 N   0  0  0  0  0  2  0  0  0  0  0  0
  162.0280  206.1960  151.7670 C   0  0  0  0  0  2  0  0  0  0  0  0
  161.6850  205.2040  150.6600 C   0  0  1  0  0  3  0  0  0  0  0  0
  160.2270  204.8050  150.7790 C   0  0  0  0  0  1  0  0  0  0  0  0
  161.9740  205.7230  149.2440 C   0  0  2  0  0  3  0  0  0  0  0  0
  160.7900  206.2020  147.1610 C   0  0  0  0  0  2  0  0  0  0  0  0
  161.7710  207.2180  149.1300 C   0  0  0  0  0  2  0  0  0  0  0  0
  161.1090  205.0960  148.1600 C   0  0  1  0  0  3  0  0  0  0  0  0
  161.4690  207.4610  147.6680 C   0  0  0  0  0  2  0  0  0  0  0  0
  161.8200  203.9030  147.5120 C   0  0  2  0  0  3  0  0  0  0  0  0
  162.6380  204.3280  146.4600 O   0  0  0  0  0  1  0  0  0  0  0  0
  160.8340  202.8430  147.0190 C   0  0  1  0  0  3  0  0  0  0  0  0
  161.1640  202.4470  145.7220 O   0  0  0  0  0  1  0  0  0  0  0  0
  160.8000  201.6410  147.9170 C   0  0  0  0  0  0  0  0  0  0  0  0
  161.5790  200.6010  147.6320 C   0  0  0  0  0  2  0  0  0  0  0  0
  160.8960  201.0760  150.2160 O   0  0  0  0  0  1  0  0  0  0  0  0
  160.1120  201.7010  149.2440 C   0  0  0  0  0  2  0  0  0  0  0  0
  162.1280  211.8130  149.8010 O   0  0  0  0  0  0  0  0  0  0  0  0
  161.2850  214.2810  147.1300 C   0  0  0  0  0  3  0  0  0  0  0  0
  160.5450  213.4690  146.2660 C   0  0  0  0  0  0  0  0  0  0  0  0
  160.8560  211.5950  147.7690 C   0  0  0  0  0  3  0  0  0  0  0  0
  161.8130  213.7480  148.3080 C   0  0  0  0  0  3  0  0  0  0  0  0
  161.5980  212.4000  148.6400 C   0  0  0  0  0  0  0  0  0  0  0  0
  160.3270  212.1270  146.5880 C   0  0  0  0  0  3  0  0  0  0  0  0
  159.0130  213.1070  144.4450 N   0  0  0  0  0  1  0  0  0  0  0  0
  159.9660  214.0410  145.0200 C   0  0  0  0  0  2  0  0  0  0  0  0
  1  5  1  0  0  0  0
  1  6  1  0  0  0  0
  2 11  1  0  0  0  0
  3 10  1  0  0  0  0
  3 16  1  0  0  0  0
  4  7  2  0  0  0  0
  4  8  1  0  0  0  0
  7  9  1  0  0  0  0
  8  1  2  0  0  0  0
  9  5  2  0  0  0  0
 11 10  2  0  0  0  0
 11  7  1  0  0  0  0
 12  2  1  0  0  0  0
 12 15  2  0  0  0  0
 13 14  1  0  0  0  0
 13  2  2  0  0  0  0
 14  3  2  0  0  0  0
 15  4  1  0  0  0  0
 16 17  1  1  0  0  0
 18 16  1  0  0  0  0
 19 18  1  0  0  0  0
 20 21  1  6  0  0  0
 20 19  1  0  0  0  0
 22 20  1  1  0  0  0
 23 26  1  0  0  0  0
 23 25  1  0  0  0  0
 24 22  1  0  0  0  0
 25 27  1  6  0  0  0
 25 22  1  0  0  0  0
 26 24  1  0  0  0  0
 27 28  1  6  0  0  0
 29 30  1  6  0  0  0
 29 27  1  0  0  0  0
 29 31  1  0  0  0  0
 31 34  1  0  0  0  0
 32 31  2  0  0  0  0
 34 33  1  0  0  0  0
 35 13  1  0  0  0  0
 36 39  1  0  0  0  0
 37 41  1  0  0  0  0
 37 36  2  0  0  0  0
 38 40  1  0  0  0  0
 39 40  2  0  0  0  0
 40 35  1  0  0  0  0
 41 38  2  0  0  0  0
 42 43  1  0  0  0  0
 43 37  1  0  0  0  0
M  END
>  <MODEL>
9

>  <REMARK>
 VINA RESULT:      -6.9      2.782      9.108
  Name = 
  12 active torsions:
  status: ('A' for Active; 'I' for Inactive)
    1  A    between atoms: O_1  and  C_34
    2  A    between atoms: O_1  and  C_35
    3  A    between atoms: C_2  and  N_6
    4  A    between atoms: C_2  and  C_13
    5  A    between atoms: C_3  and  C_4
    6  A    between atoms: C_3  and  C_12
    7  A    between atoms: N_6  and  C_12
    8  A    between atoms: C_11  and  C_14
    9  A    between atoms: C_11  and  C_29
   10  A    between atoms: C_14  and  C_22
   11  A    between atoms: C_19  and  C_37
   12  A    between atoms: C_29  and  C_31
                            x       y       z     vdW  Elec       q    Type
                         _______ _______ _______ _____ _____    ______ ____

>  <TORSDO>
F 12

$$$$
