=
 OpenBabel11062409483D

 34 38  0  0  1  0  0  0  0  0999 V2000
  157.5900  211.6720  155.0260 C   0  0  1  0  0  3  0  0  0  0  0  0
  157.3990  214.1010  151.9940 C   0  0  0  0  0  2  0  0  0  0  0  0
  160.1280  213.4380  150.0110 C   0  0  0  0  0  0  0  0  0  0  0  0
  156.3220  214.0830  154.1620 N   0  0  0  0  0  2  0  0  0  0  0  0
  159.7910  211.4540  156.1260 N   0  0  0  0  0  0  0  0  0  0  0  0
  158.6400  210.7130  155.6040 C   0  0  0  0  0  2  0  0  0  0  0  0
  158.3900  213.3590  156.7820 C   0  0  2  0  0  3  0  0  0  0  0  0
  159.0390  214.2480  155.9200 O   0  0  0  0  0  1  0  0  0  0  0  0
  159.7500  214.4530  149.0840 N   0  0  0  0  0  1  0  0  0  0  0  0
  159.3710  212.2890  157.2540 C   0  0  0  0  0  2  0  0  0  0  0  0
  156.2340  213.7170  155.5400 C   0  0  0  0  0  0  0  0  0  0  0  0
  157.1790  212.6970  156.0980 C   0  0  1  0  0  3  0  0  0  0  0  0
  155.5180  214.4280  156.3430 N   0  0  0  0  0  2  0  0  0  0  0  0
  157.7570  213.2690  150.7730 C   0  0  0  0  0  2  0  0  0  0  0  0
  161.3370  213.0880  150.0780 O   0  0  0  0  0  0  0  0  0  0  0  0
  159.1460  212.8220  150.8560 N   0  0  0  0  0  0  0  0  0  0  0  0
  159.5760  211.7860  151.8040 C   0  0  0  0  0  2  0  0  0  0  0  0
  156.9260  213.2240  153.1480 C   0  0  2  0  0  3  0  0  0  0  0  0
  158.4530  211.2860  152.7070 C   0  0  0  0  0  2  0  0  0  0  0  0
  158.0590  212.3520  153.7260 C   0  0  2  0  0  3  0  0  0  0  0  0
  160.8470  210.5200  156.5460 C   0  0  0  0  0  2  0  0  0  0  0  0
  160.5710  206.9900  155.1910 N   0  0  0  0  0  0  0  0  0  0  0  0
  161.7620  209.4770  154.3680 C   0  0  0  0  0  2  0  0  0  0  0  0
  162.6270  206.2800  151.3570 C   0  0  0  0  0  2  0  0  0  0  0  0
  160.6790  205.9970  152.9970 C   0  0  0  0  0  2  0  0  0  0  0  0
  161.3720  206.9350  153.9730 C   0  0  1  0  0  3  0  0  0  0  0  0
  161.6700  205.3120  152.0620 C   0  0  0  0  0  2  0  0  0  0  0  0
  161.9340  208.5920  152.1310 C   0  0  0  0  0  3  0  0  0  0  0  0
  161.5970  208.3310  153.4100 C   0  0  0  0  0  0  0  0  0  0  0  0
  162.0010  207.6260  150.9770 C   0  0  2  0  0  3  0  0  0  0  0  0
  161.0060  209.3160  155.6570 C   0  0  2  0  0  3  0  0  0  0  0  0
  160.4610  208.1530  156.0140 C   0  0  0  0  0  3  0  0  0  0  0  0
  160.6630  207.5100  150.2550 C   0  0  0  0  0  2  0  0  0  0  0  0
  160.8700  207.1610  148.9200 O   0  0  0  0  0  1  0  0  0  0  0  0
  1  6  1  1  0  0  0
  1 12  1  0  0  0  0
  3 15  2  0  0  0  0
  3 16  1  0  0  0  0
  4 11  1  0  0  0  0
  5 21  1  0  0  0  0
  5 10  1  0  0  0  0
  6  5  1  0  0  0  0
  7  8  1  6  0  0  0
  7 10  1  0  0  0  0
  9  3  1  0  0  0  0
 11 13  2  0  0  0  0
 12 11  1  6  0  0  0
 12  7  1  0  0  0  0
 14 16  1  0  0  0  0
 14  2  1  0  0  0  0
 16 17  1  0  0  0  0
 17 19  1  0  0  0  0
 18  2  1  6  0  0  0
 18 20  1  0  0  0  0
 18  4  1  0  0  0  0
 20 19  1  6  0  0  0
 20  1  1  0  0  0  0
 22 32  2  0  0  0  0
 23 31  1  0  0  0  0
 24 27  1  0  0  0  0
 26 25  1  6  0  0  0
 26 22  1  0  0  0  0
 27 25  1  0  0  0  0
 28 29  2  0  0  0  0
 29 26  1  0  0  0  0
 29 23  1  0  0  0  0
 30 33  1  1  0  0  0
 30 24  1  0  0  0  0
 30 28  1  0  0  0  0
 31 32  1  0  0  0  0
 31 21  1  6  0  0  0
 34 33  1  0  0  0  0
M  END
>  <MODEL>
1

>  <REMARK>
 VINA RESULT:      -5.3      0.000      0.000
  Name = 
  3 active torsions:
  status: ('A' for Active; 'I' for Inactive)
    1  A    between atoms: C_7  and  C_29
    2  A    between atoms: N_8  and  C_18
    3  A    between atoms: C_18  and  C_30
                            x       y       z     vdW  Elec       q    Type
                         _______ _______ _______ _____ _____    ______ ____

>  <TORSDO>
F 3

$$$$
=
 OpenBabel11062409483D

 34 38  0  0  1  0  0  0  0  0999 V2000
  162.7710  206.9820  150.0400 C   0  0  1  0  0  3  0  0  0  0  0  0
  161.5310  210.1610  148.1730 C   0  0  0  0  0  2  0  0  0  0  0  0
  160.4300  212.3630  150.5730 C   0  0  0  0  0  0  0  0  0  0  0  0
  161.9870  207.8960  147.4480 N   0  0  0  0  0  2  0  0  0  0  0  0
  161.3010  206.1070  151.8230 N   0  0  0  0  0  0  0  0  0  0  0  0
  162.6830  206.4440  151.4750 C   0  0  0  0  0  2  0  0  0  0  0  0
  160.7760  205.4610  149.5140 C   0  0  2  0  0  3  0  0  0  0  0  0
  159.8040  206.4550  149.3610 O   0  0  0  0  0  1  0  0  0  0  0  0
  160.0690  213.3220  149.5820 N   0  0  0  0  0  1  0  0  0  0  0  0
  160.8290  205.0120  150.9720 C   0  0  0  0  0  2  0  0  0  0  0  0
  162.1330  206.4920  147.6660 C   0  0  0  0  0  0  0  0  0  0  0  0
  162.1630  205.9580  149.0650 C   0  0  1  0  0  3  0  0  0  0  0  0
  161.9940  205.6770  146.6750 N   0  0  0  0  0  2  0  0  0  0  0  0
  162.0530  211.3420  148.9740 C   0  0  0  0  0  2  0  0  0  0  0  0
  159.8600  212.3970  151.6960 O   0  0  0  0  0  0  0  0  0  0  0  0
  161.4300  211.3710  150.2960 N   0  0  0  0  0  0  0  0  0  0  0  0
  161.7680  210.3950  151.3380 C   0  0  0  0  0  2  0  0  0  0  0  0
  162.3370  208.8970  148.4530 C   0  0  2  0  0  3  0  0  0  0  0  0
  162.7720  209.3420  150.8810 C   0  0  0  0  0  2  0  0  0  0  0  0
  162.1300  208.3740  149.8890 C   0  0  2  0  0  3  0  0  0  0  0  0
  161.2110  205.7290  153.2400 C   0  0  0  0  0  2  0  0  0  0  0  0
  159.4820  207.5380  156.0890 N   0  0  0  0  0  2  0  0  0  0  0  0
  161.1710  208.2340  153.8650 C   0  0  0  0  0  2  0  0  0  0  0  0
  160.0260  211.9120  156.1460 C   0  0  0  0  0  2  0  0  0  0  0  0
  159.8530  209.6120  157.2610 C   0  0  0  0  0  2  0  0  0  0  0  0
  159.7120  208.9650  155.8920 C   0  0  1  0  0  3  0  0  0  0  0  0
  159.3930  211.0660  157.2560 C   0  0  0  0  0  2  0  0  0  0  0  0
  161.6130  210.3510  154.9340 C   0  0  0  0  0  3  0  0  0  0  0  0
  160.9130  209.2000  154.9870 C   0  0  0  0  0  0  0  0  0  0  0  0
  161.4820  211.5550  155.8290 C   0  0  2  0  0  3  0  0  0  0  0  0
  160.7280  206.8260  154.1510 C   0  0  0  0  0  0  0  0  0  0  0  0
  159.9470  206.5300  155.1890 C   0  0  0  0  0  3  0  0  0  0  0  0
  162.3800  211.4510  157.0570 C   0  0  0  0  0  2  0  0  0  0  0  0
  163.5020  210.6760  156.7620 O   0  0  0  0  0  1  0  0  0  0  0  0
  1  6  1  1  0  0  0
  2 14  1  0  0  0  0
  3 15  2  0  0  0  0
  4 11  1  0  0  0  0
  4 18  1  0  0  0  0
  5 21  1  0  0  0  0
  6  5  1  0  0  0  0
  7  8  1  1  0  0  0
  7 10  1  0  0  0  0
  9  3  1  0  0  0  0
 10  5  1  0  0  0  0
 12 11  1  6  0  0  0
 12  7  1  0  0  0  0
 12  1  1  0  0  0  0
 13 11  2  0  0  0  0
 14 16  1  0  0  0  0
 16  3  1  0  0  0  0
 16 17  1  0  0  0  0
 18  2  1  6  0  0  0
 18 20  1  0  0  0  0
 19 17  1  0  0  0  0
 20  1  1  0  0  0  0
 20 19  1  1  0  0  0
 21 31  1  0  0  0  0
 23 31  1  0  0  0  0
 23 29  1  0  0  0  0
 24 27  1  0  0  0  0
 26 22  1  0  0  0  0
 26 25  1  1  0  0  0
 27 25  1  0  0  0  0
 28 29  2  0  0  0  0
 28 30  1  0  0  0  0
 29 26  1  0  0  0  0
 30 24  1  0  0  0  0
 30 33  1  1  0  0  0
 31 32  2  0  0  0  0
 32 22  1  0  0  0  0
 34 33  1  0  0  0  0
M  END
>  <MODEL>
2

>  <REMARK>
 VINA RESULT:      -5.0      2.844      7.171
  Name = 
  3 active torsions:
  status: ('A' for Active; 'I' for Inactive)
    1  A    between atoms: C_7  and  C_29
    2  A    between atoms: N_8  and  C_18
    3  A    between atoms: C_18  and  C_30
                            x       y       z     vdW  Elec       q    Type
                         _______ _______ _______ _____ _____    ______ ____

>  <TORSDO>
F 3

$$$$
=
 OpenBabel11062409483D

 34 38  0  0  1  0  0  0  0  0999 V2000
  160.9730  210.9520  153.8170 C   0  0  1  0  0  3  0  0  0  0  0  0
  161.0010  207.1950  152.8130 C   0  0  0  0  0  2  0  0  0  0  0  0
  161.2460  207.0790  149.3850 C   0  0  0  0  0  0  0  0  0  0  0  0
  160.3530  208.3550  154.8370 N   0  0  0  0  0  2  0  0  0  0  0  0
  159.4950  212.4330  152.5030 N   0  0  0  0  0  0  0  0  0  0  0  0
  160.8360  212.2890  153.0750 C   0  0  0  0  0  2  0  0  0  0  0  0
  158.4720  211.1620  154.3370 C   0  0  2  0  0  3  0  0  0  0  0  0
  158.0100  210.1460  153.4940 O   0  0  0  0  0  1  0  0  0  0  0  0
  161.2150  205.6540  149.3920 N   0  0  0  0  0  1  0  0  0  0  0  0
  158.5020  212.4860  153.5790 C   0  0  0  0  0  2  0  0  0  0  0  0
  159.9080  209.5020  155.5620 C   0  0  0  0  0  0  0  0  0  0  0  0
  159.8740  210.8390  154.8880 C   0  0  1  0  0  3  0  0  0  0  0  0
  159.3160  209.3460  156.6980 N   0  0  0  0  0  2  0  0  0  0  0  0
  162.0710  207.0590  151.7420 C   0  0  0  0  0  2  0  0  0  0  0  0
  160.8850  207.6950  148.3470 O   0  0  0  0  0  0  0  0  0  0  0  0
  161.6840  207.8030  150.5450 N   0  0  0  0  0  0  0  0  0  0  0  0
  161.6930  209.2710  150.5020 C   0  0  0  0  0  2  0  0  0  0  0  0
  161.2150  208.4430  153.6610 C   0  0  2  0  0  3  0  0  0  0  0  0
  162.0860  209.9140  151.8270 C   0  0  0  0  0  2  0  0  0  0  0  0
  160.9770  209.7420  152.8640 C   0  0  2  0  0  3  0  0  0  0  0  0
  159.4230  213.6480  151.6790 C   0  0  0  0  0  2  0  0  0  0  0  0
  157.5960  213.3480  148.3690 N   0  0  0  0  0  0  0  0  0  0  0  0
  160.2850  212.9980  149.3330 C   0  0  0  0  0  2  0  0  0  0  0  0
  160.0760  212.0550  144.9620 C   0  0  0  0  0  2  0  0  0  0  0  0
  158.2450  213.4770  146.0510 C   0  0  0  0  0  2  0  0  0  0  0  0
  158.5560  212.8390  147.3960 C   0  0  1  0  0  3  0  0  0  0  0  0
  158.6370  212.5750  144.8860 C   0  0  0  0  0  2  0  0  0  0  0  0
  161.0590  213.1020  147.0500 C   0  0  0  0  0  3  0  0  0  0  0  0
  159.9840  213.0830  147.8630 C   0  0  0  0  0  0  0  0  0  0  0  0
  161.0810  213.0540  145.5450 C   0  0  2  0  0  3  0  0  0  0  0  0
  159.1400  213.3980  150.2210 C   0  0  2  0  0  3  0  0  0  0  0  0
  157.9040  213.5560  149.7490 C   0  0  0  0  0  3  0  0  0  0  0  0
  161.0050  214.4470  144.9310 C   0  0  0  0  0  2  0  0  0  0  0  0
  161.4580  214.4120  143.6120 O   0  0  0  0  0  1  0  0  0  0  0  0
  1  6  1  6  0  0  0
  1 12  1  0  0  0  0
  3  9  1  0  0  0  0
  3 16  1  0  0  0  0
  4 11  1  0  0  0  0
  5  6  1  0  0  0  0
  5 10  1  0  0  0  0
  7  8  1  6  0  0  0
  7 12  1  0  0  0  0
 10  7  1  0  0  0  0
 11 13  2  0  0  0  0
 12 11  1  6  0  0  0
 14  2  1  0  0  0  0
 15  3  2  0  0  0  0
 16 14  1  0  0  0  0
 17 16  1  0  0  0  0
 17 19  1  0  0  0  0
 18  2  1  6  0  0  0
 18  4  1  0  0  0  0
 20 19  1  6  0  0  0
 20 18  1  0  0  0  0
 20  1  1  0  0  0  0
 21  5  1  0  0  0  0
 22 32  2  0  0  0  0
 23 31  1  0  0  0  0
 24 30  1  0  0  0  0
 26 25  1  6  0  0  0
 26 29  1  0  0  0  0
 26 22  1  0  0  0  0
 27 24  1  0  0  0  0
 27 25  1  0  0  0  0
 28 29  2  0  0  0  0
 29 23  1  0  0  0  0
 30 33  1  6  0  0  0
 30 28  1  0  0  0  0
 31 21  1  6  0  0  0
 32 31  1  0  0  0  0
 34 33  1  0  0  0  0
M  END
>  <MODEL>
3

>  <REMARK>
 VINA RESULT:      -4.8      3.075      6.905
  Name = 
  3 active torsions:
  status: ('A' for Active; 'I' for Inactive)
    1  A    between atoms: C_7  and  C_29
    2  A    between atoms: N_8  and  C_18
    3  A    between atoms: C_18  and  C_30
                            x       y       z     vdW  Elec       q    Type
                         _______ _______ _______ _____ _____    ______ ____

>  <TORSDO>
F 3

$$$$
=
 OpenBabel11062409483D

 34 38  0  0  1  0  0  0  0  0999 V2000
  160.4720  211.4610  153.8480 C   0  0  1  0  0  3  0  0  0  0  0  0
  160.9920  207.6090  153.7120 C   0  0  0  0  0  2  0  0  0  0  0  0
  160.9860  206.7170  150.3920 C   0  0  0  0  0  0  0  0  0  0  0  0
  160.3340  209.1210  155.4840 N   0  0  0  0  0  2  0  0  0  0  0  0
  158.6900  212.3840  152.4080 N   0  0  0  0  0  0  0  0  0  0  0  0
  160.0770  212.5540  152.8460 C   0  0  0  0  0  2  0  0  0  0  0  0
  158.0160  211.4620  154.5810 C   0  0  2  0  0  3  0  0  0  0  0  0
  157.6490  210.2240  154.0430 O   0  0  0  0  0  1  0  0  0  0  0  0
  161.1720  205.3430  150.7200 N   0  0  0  0  0  1  0  0  0  0  0  0
  157.7860  212.5610  153.5480 C   0  0  0  0  0  2  0  0  0  0  0  0
  159.7780  210.3400  155.9800 C   0  0  0  0  0  0  0  0  0  0  0  0
  159.4890  211.4630  155.0320 C   0  0  1  0  0  3  0  0  0  0  0  0
  159.3060  210.3820  157.1800 N   0  0  0  0  0  2  0  0  0  0  0  0
  161.9840  207.3640  152.5870 C   0  0  0  0  0  2  0  0  0  0  0  0
  160.4560  207.0180  149.2880 O   0  0  0  0  0  0  0  0  0  0  0  0
  161.3970  207.7460  151.3040 N   0  0  0  0  0  0  0  0  0  0  0  0
  161.1800  209.1500  150.9340 C   0  0  0  0  0  2  0  0  0  0  0  0
  161.0790  209.0400  154.2310 C   0  0  2  0  0  3  0  0  0  0  0  0
  161.5720  210.1340  152.0300 C   0  0  0  0  0  2  0  0  0  0  0  0
  160.5860  210.0710  153.1950 C   0  0  2  0  0  3  0  0  0  0  0  0
  158.3700  213.3490  151.3460 C   0  0  0  0  0  2  0  0  0  0  0  0
  161.4540  212.7280  149.2290 N   0  0  0  0  0  0  0  0  0  0  0  0
  158.8590  213.9220  148.8760 C   0  0  0  0  0  2  0  0  0  0  0  0
  161.2310  214.2310  145.0910 C   0  0  0  0  0  2  0  0  0  0  0  0
  161.8780  212.5020  146.8670 C   0  0  0  0  0  2  0  0  0  0  0  0
  161.2190  213.3600  147.9360 C   0  0  1  0  0  3  0  0  0  0  0  0
  162.3270  213.3290  145.6670 C   0  0  0  0  0  2  0  0  0  0  0  0
  159.1700  213.7580  146.4890 C   0  0  0  0  0  3  0  0  0  0  0  0
  159.7320  213.5780  147.7010 C   0  0  0  0  0  0  0  0  0  0  0  0
  159.8230  213.6270  145.1380 C   0  0  2  0  0  3  0  0  0  0  0  0
  159.3210  213.3320  150.1800 C   0  0  2  0  0  3  0  0  0  0  0  0
  160.5280  212.7830  150.3160 C   0  0  0  0  0  3  0  0  0  0  0  0
  159.7370  212.2030  144.6010 C   0  0  0  0  0  2  0  0  0  0  0  0
  159.9780  212.1970  143.2270 O   0  0  0  0  0  1  0  0  0  0  0  0
  1  6  1  6  0  0  0
  1 12  1  0  0  0  0
  3  9  1  0  0  0  0
  3 16  1  0  0  0  0
  4 11  1  0  0  0  0
  5  6  1  0  0  0  0
  5 10  1  0  0  0  0
  7  8  1  6  0  0  0
  7 12  1  0  0  0  0
 10  7  1  0  0  0  0
 11 13  2  0  0  0  0
 12 11  1  1  0  0  0
 14  2  1  0  0  0  0
 15  3  2  0  0  0  0
 16 14  1  0  0  0  0
 17 16  1  0  0  0  0
 17 19  1  0  0  0  0
 18  2  1  6  0  0  0
 18  4  1  0  0  0  0
 20 19  1  6  0  0  0
 20  1  1  0  0  0  0
 20 18  1  0  0  0  0
 21  5  1  0  0  0  0
 22 32  2  0  0  0  0
 23 31  1  0  0  0  0
 24 30  1  0  0  0  0
 24 27  1  0  0  0  0
 26 25  1  6  0  0  0
 26 22  1  0  0  0  0
 27 25  1  0  0  0  0
 28 29  2  0  0  0  0
 29 26  1  0  0  0  0
 29 23  1  0  0  0  0
 30 33  1  1  0  0  0
 30 28  1  0  0  0  0
 31 32  1  0  0  0  0
 31 21  1  6  0  0  0
 34 33  1  0  0  0  0
M  END
>  <MODEL>
4

>  <REMARK>
 VINA RESULT:      -4.5      2.957      6.723
  Name = 
  3 active torsions:
  status: ('A' for Active; 'I' for Inactive)
    1  A    between atoms: C_7  and  C_29
    2  A    between atoms: N_8  and  C_18
    3  A    between atoms: C_18  and  C_30
                            x       y       z     vdW  Elec       q    Type
                         _______ _______ _______ _____ _____    ______ ____

>  <TORSDO>
F 3

$$$$
=
 OpenBabel11062409483D

 34 38  0  0  1  0  0  0  0  0999 V2000
  161.3700  210.0620  154.2940 C   0  0  1  0  0  3  0  0  0  0  0  0
  161.1990  206.3890  153.0270 C   0  0  0  0  0  2  0  0  0  0  0  0
  160.9460  206.5260  149.6010 C   0  0  0  0  0  0  0  0  0  0  0  0
  160.8660  207.3990  155.2020 N   0  0  0  0  0  2  0  0  0  0  0  0
  159.7400  211.6410  153.3190 N   0  0  0  0  0  0  0  0  0  0  0  0
  161.1470  211.4500  153.6790 C   0  0  0  0  0  2  0  0  0  0  0  0
  158.9730  210.2420  155.1850 C   0  0  2  0  0  3  0  0  0  0  0  0
  158.3800  209.2940  154.3460 O   0  0  0  0  0  1  0  0  0  0  0  0
  160.8950  205.1040  149.5090 N   0  0  0  0  0  1  0  0  0  0  0  0
  158.9130  211.6190  154.5280 C   0  0  0  0  0  2  0  0  0  0  0  0
  160.5470  208.4910  156.0650 C   0  0  0  0  0  0  0  0  0  0  0  0
  160.4350  209.8740  155.5020 C   0  0  1  0  0  3  0  0  0  0  0  0
  160.1220  208.2540  157.2610 N   0  0  0  0  0  2  0  0  0  0  0  0
  162.1010  206.3290  151.8050 C   0  0  0  0  0  2  0  0  0  0  0  0
  160.4480  207.2190  148.6730 O   0  0  0  0  0  0  0  0  0  0  0  0
  161.5570  207.1610  150.7340 N   0  0  0  0  0  0  0  0  0  0  0  0
  161.5810  208.6270  150.7970 C   0  0  0  0  0  2  0  0  0  0  0  0
  161.5510  207.5710  153.9230 C   0  0  2  0  0  3  0  0  0  0  0  0
  162.1700  209.1700  152.0950 C   0  0  0  0  0  2  0  0  0  0  0  0
  161.2200  208.9260  153.2660 C   0  0  2  0  0  3  0  0  0  0  0  0
  159.5680  212.9150  152.6040 C   0  0  0  0  0  2  0  0  0  0  0  0
  161.4060  211.9930  149.4180 N   0  0  0  0  0  0  0  0  0  0  0  0
  159.2800  213.7740  150.1860 C   0  0  0  0  0  2  0  0  0  0  0  0
  160.1360  214.1850  145.8110 C   0  0  0  0  0  2  0  0  0  0  0  0
  160.8820  212.0810  147.0670 C   0  0  0  0  0  2  0  0  0  0  0  0
  160.9050  212.8700  148.3660 C   0  0  1  0  0  3  0  0  0  0  0  0
  161.0790  212.9780  145.8500 C   0  0  0  0  0  2  0  0  0  0  0  0
  158.6630  213.9510  147.8600 C   0  0  0  0  0  3  0  0  0  0  0  0
  159.5490  213.4490  148.7440 C   0  0  0  0  0  0  0  0  0  0  0  0
  158.7310  213.9090  146.3560 C   0  0  2  0  0  3  0  0  0  0  0  0
  159.9990  212.8850  151.1620 C   0  0  2  0  0  3  0  0  0  0  0  0
  160.9790  212.0670  150.7800 C   0  0  0  0  0  3  0  0  0  0  0  0
  158.0790  212.6520  145.7940 C   0  0  0  0  0  2  0  0  0  0  0  0
  157.0940  212.1920  146.6690 O   0  0  0  0  0  1  0  0  0  0  0  0
  1  6  1  6  0  0  0
  1 12  1  0  0  0  0
  3 16  1  0  0  0  0
  4 11  1  0  0  0  0
  5  6  1  0  0  0  0
  5 10  1  0  0  0  0
  7  8  1  6  0  0  0
  7 12  1  0  0  0  0
  9  3  1  0  0  0  0
 10  7  1  0  0  0  0
 11 13  2  0  0  0  0
 12 11  1  6  0  0  0
 14  2  1  0  0  0  0
 15  3  2  0  0  0  0
 16 17  1  0  0  0  0
 16 14  1  0  0  0  0
 17 19  1  0  0  0  0
 18  2  1  6  0  0  0
 18  4  1  0  0  0  0
 20 19  1  6  0  0  0
 20 18  1  0  0  0  0
 20  1  1  0  0  0  0
 21  5  1  0  0  0  0
 22 32  2  0  0  0  0
 23 31  1  0  0  0  0
 24 27  1  0  0  0  0
 24 30  1  0  0  0  0
 26 25  1  6  0  0  0
 26 29  1  0  0  0  0
 26 22  1  0  0  0  0
 27 25  1  0  0  0  0
 28 29  2  0  0  0  0
 29 23  1  0  0  0  0
 30 33  1  1  0  0  0
 30 28  1  0  0  0  0
 31 21  1  6  0  0  0
 32 31  1  0  0  0  0
 33 34  1  0  0  0  0
M  END
>  <MODEL>
5

>  <REMARK>
 VINA RESULT:      -4.3      2.746      6.768
  Name = 
  3 active torsions:
  status: ('A' for Active; 'I' for Inactive)
    1  A    between atoms: C_7  and  C_29
    2  A    between atoms: N_8  and  C_18
    3  A    between atoms: C_18  and  C_30
                            x       y       z     vdW  Elec       q    Type
                         _______ _______ _______ _____ _____    ______ ____

>  <TORSDO>
F 3

$$$$
=
 OpenBabel11062409483D

 34 38  0  0  1  0  0  0  0  0999 V2000
  158.8470  214.2270  148.1150 C   0  0  1  0  0  3  0  0  0  0  0  0
  155.8670  213.8710  150.5890 C   0  0  0  0  0  2  0  0  0  0  0  0
  157.0670  212.2470  153.3720 C   0  0  0  0  0  0  0  0  0  0  0  0
  155.9940  214.3600  148.2210 N   0  0  0  0  0  2  0  0  0  0  0  0
  160.2370  212.2150  147.7680 N   0  0  0  0  0  0  0  0  0  0  0  0
  160.2690  213.6580  148.0160 C   0  0  0  0  0  2  0  0  0  0  0  0
  158.1620  212.3870  146.4680 C   0  0  2  0  0  3  0  0  0  0  0  0
  157.4340  211.5890  147.3550 O   0  0  0  0  0  1  0  0  0  0  0  0
  155.7860  212.2850  153.9950 N   0  0  0  0  0  1  0  0  0  0  0  0
  159.6240  211.9510  146.4630 C   0  0  0  0  0  2  0  0  0  0  0  0
  156.6330  214.3240  146.9450 C   0  0  0  0  0  0  0  0  0  0  0  0
  158.0590  213.8780  146.8410 C   0  0  1  0  0  3  0  0  0  0  0  0
  155.9220  214.4400  145.8740 N   0  0  0  0  0  2  0  0  0  0  0  0
  156.4260  214.2060  151.9630 C   0  0  0  0  0  2  0  0  0  0  0  0
  157.8930  211.3610  153.7190 O   0  0  0  0  0  0  0  0  0  0  0  0
  157.4150  213.2070  152.3620 N   0  0  0  0  0  0  0  0  0  0  0  0
  158.7410  213.1300  151.7370 C   0  0  0  0  0  2  0  0  0  0  0  0
  156.7330  214.4530  149.4780 C   0  0  2  0  0  3  0  0  0  0  0  0
  158.9440  214.1440  150.6170 C   0  0  0  0  0  2  0  0  0  0  0  0
  158.1130  213.7710  149.3910 C   0  0  2  0  0  3  0  0  0  0  0  0
  161.5980  211.6610  147.8160 C   0  0  0  0  0  2  0  0  0  0  0  0
  161.9360  209.8860  151.1500 N   0  0  0  0  0  2  0  0  0  0  0  0
  161.9920  209.1680  148.3630 C   0  0  0  0  0  2  0  0  0  0  0  0
  162.6960  205.5500  150.9050 C   0  0  0  0  0  2  0  0  0  0  0  0
  161.5880  207.6270  151.9160 C   0  0  0  0  0  2  0  0  0  0  0  0
  162.2590  208.4930  150.8610 C   0  0  1  0  0  3  0  0  0  0  0  0
  162.3620  206.3390  152.1760 C   0  0  0  0  0  2  0  0  0  0  0  0
  161.6550  206.8670  149.0050 C   0  0  0  0  0  3  0  0  0  0  0  0
  161.8600  208.1270  149.4390 C   0  0  0  0  0  0  0  0  0  0  0  0
  161.6120  205.6030  149.8230 C   0  0  2  0  0  3  0  0  0  0  0  0
  161.7960  210.5790  148.8440 C   0  0  0  0  0  0  0  0  0  0  0  0
  161.7710  210.8840  150.1400 C   0  0  0  0  0  3  0  0  0  0  0  0
  160.2060  205.3050  150.3330 C   0  0  0  0  0  2  0  0  0  0  0  0
  160.1850  204.0650  150.9730 O   0  0  0  0  0  1  0  0  0  0  0  0
  1  6  1  6  0  0  0
  1 20  1  0  0  0  0
  2 14  1  0  0  0  0
  3 15  2  0  0  0  0
  3  9  1  0  0  0  0
  4 18  1  0  0  0  0
  5 21  1  0  0  0  0
  5  6  1  0  0  0  0
  7 12  1  0  0  0  0
  7  8  1  1  0  0  0
 10  7  1  0  0  0  0
 10  5  1  0  0  0  0
 11  4  1  0  0  0  0
 12 11  1  1  0  0  0
 12  1  1  0  0  0  0
 13 11  2  0  0  0  0
 14 16  1  0  0  0  0
 16  3  1  0  0  0  0
 17 16  1  0  0  0  0
 18  2  1  1  0  0  0
 19 17  1  0  0  0  0
 20 18  1  0  0  0  0
 20 19  1  1  0  0  0
 21 31  1  0  0  0  0
 23 31  1  0  0  0  0
 23 29  1  0  0  0  0
 24 27  1  0  0  0  0
 25 27  1  0  0  0  0
 26 22  1  0  0  0  0
 26 25  1  1  0  0  0
 28 29  2  0  0  0  0
 28 30  1  0  0  0  0
 29 26  1  0  0  0  0
 30 33  1  1  0  0  0
 30 24  1  0  0  0  0
 31 32  2  0  0  0  0
 32 22  1  0  0  0  0
 33 34  1  0  0  0  0
M  END
>  <MODEL>
6

>  <REMARK>
 VINA RESULT:      -4.2      2.941      6.127
  Name = 
  3 active torsions:
  status: ('A' for Active; 'I' for Inactive)
    1  A    between atoms: C_7  and  C_29
    2  A    between atoms: N_8  and  C_18
    3  A    between atoms: C_18  and  C_30
                            x       y       z     vdW  Elec       q    Type
                         _______ _______ _______ _____ _____    ______ ____

>  <TORSDO>
F 3

$$$$
=
 OpenBabel11062409483D

 34 38  0  0  1  0  0  0  0  0999 V2000
  162.6700  207.1590  150.5570 C   0  0  1  0  0  3  0  0  0  0  0  0
  161.5250  210.1320  148.3260 C   0  0  0  0  0  2  0  0  0  0  0  0
  160.2840  212.5450  150.4370 C   0  0  0  0  0  0  0  0  0  0  0  0
  162.0290  207.8130  147.8490 N   0  0  0  0  0  2  0  0  0  0  0  0
  161.1060  206.4470  152.3310 N   0  0  0  0  0  0  0  0  0  0  0  0
  162.5050  206.7610  152.0300 C   0  0  0  0  0  2  0  0  0  0  0  0
  160.7130  205.5760  150.0700 C   0  0  2  0  0  3  0  0  0  0  0  0
  159.7480  206.5420  149.7690 O   0  0  0  0  0  1  0  0  0  0  0  0
  159.9750  213.4010  149.3410 N   0  0  0  0  0  1  0  0  0  0  0  0
  160.6870  205.2700  151.5650 C   0  0  0  0  0  2  0  0  0  0  0  0
  162.1670  206.4370  148.2090 C   0  0  0  0  0  0  0  0  0  0  0  0
  162.1210  206.0410  149.6530 C   0  0  1  0  0  3  0  0  0  0  0  0
  162.0870  205.5290  147.2960 N   0  0  0  0  0  2  0  0  0  0  0  0
  161.9970  211.3900  149.0360 C   0  0  0  0  0  2  0  0  0  0  0  0
  159.6520  212.6810  151.5190 O   0  0  0  0  0  0  0  0  0  0  0  0
  161.3010  211.5400  150.3130 N   0  0  0  0  0  0  0  0  0  0  0  0
  161.5850  210.6710  151.4620 C   0  0  0  0  0  2  0  0  0  0  0  0
  162.3180  208.9080  148.7700 C   0  0  2  0  0  3  0  0  0  0  0  0
  162.6160  209.5880  151.1640 C   0  0  0  0  0  2  0  0  0  0  0  0
  162.0330  208.5240  150.2360 C   0  0  2  0  0  3  0  0  0  0  0  0
  160.9390  206.2050  153.7720 C   0  0  0  0  0  2  0  0  0  0  0  0
  161.7730  208.9700  156.2300 N   0  0  0  0  0  2  0  0  0  0  0  0
  159.6060  208.3090  154.4540 C   0  0  0  0  0  2  0  0  0  0  0  0
  158.6790  212.0760  156.6880 C   0  0  0  0  0  2  0  0  0  0  0  0
  161.1030  211.2710  156.4930 C   0  0  0  0  0  2  0  0  0  0  0  0
  160.6080  209.8460  156.2990 C   0  0  1  0  0  3  0  0  0  0  0  0
  160.1000  212.1250  157.2610 C   0  0  0  0  0  2  0  0  0  0  0  0
  158.8290  210.5850  154.6440 C   0  0  0  0  0  3  0  0  0  0  0  0
  159.7280  209.6750  155.0700 C   0  0  0  0  0  0  0  0  0  0  0  0
  158.6140  211.9840  155.1600 C   0  0  2  0  0  3  0  0  0  0  0  0
  160.8330  207.4540  154.6060 C   0  0  0  0  0  0  0  0  0  0  0  0
  161.8240  207.7840  155.4340 C   0  0  0  0  0  3  0  0  0  0  0  0
  159.4920  212.9980  154.4360 C   0  0  0  0  0  2  0  0  0  0  0  0
  158.8750  214.2490  154.4350 O   0  0  0  0  0  1  0  0  0  0  0  0
  1  6  1  1  0  0  0
  2 14  1  0  0  0  0
  3 15  2  0  0  0  0
  4 11  1  0  0  0  0
  4 18  1  0  0  0  0
  5 21  1  0  0  0  0
  6  5  1  0  0  0  0
  7  8  1  1  0  0  0
  7 10  1  0  0  0  0
  9  3  1  0  0  0  0
 10  5  1  0  0  0  0
 12 11  1  6  0  0  0
 12  7  1  0  0  0  0
 12  1  1  0  0  0  0
 13 11  2  0  0  0  0
 14 16  1  0  0  0  0
 16  3  1  0  0  0  0
 16 17  1  0  0  0  0
 18  2  1  6  0  0  0
 18 20  1  0  0  0  0
 19 17  1  0  0  0  0
 20  1  1  0  0  0  0
 20 19  1  1  0  0  0
 21 31  1  0  0  0  0
 22 26  1  0  0  0  0
 23 31  1  0  0  0  0
 23 29  1  0  0  0  0
 24 27  1  0  0  0  0
 25 27  1  0  0  0  0
 26 25  1  6  0  0  0
 28 29  2  0  0  0  0
 28 30  1  0  0  0  0
 29 26  1  0  0  0  0
 30 33  1  6  0  0  0
 30 24  1  0  0  0  0
 31 32  2  0  0  0  0
 32 22  1  0  0  0  0
 34 33  1  0  0  0  0
M  END
>  <MODEL>
7

>  <REMARK>
 VINA RESULT:      -4.1      2.500      7.064
  Name = 
  3 active torsions:
  status: ('A' for Active; 'I' for Inactive)
    1  A    between atoms: C_7  and  C_29
    2  A    between atoms: N_8  and  C_18
    3  A    between atoms: C_18  and  C_30
                            x       y       z     vdW  Elec       q    Type
                         _______ _______ _______ _____ _____    ______ ____

>  <TORSDO>
F 3

$$$$
=
 OpenBabel11062409483D

 34 38  0  0  1  0  0  0  0  0999 V2000
  158.8260  211.1830  155.0480 C   0  0  1  0  0  3  0  0  0  0  0  0
  159.1040  214.1620  152.5630 C   0  0  0  0  0  2  0  0  0  0  0  0
  160.8690  213.0290  149.8390 C   0  0  0  0  0  0  0  0  0  0  0  0
  158.5520  214.0250  154.9160 N   0  0  0  0  0  2  0  0  0  0  0  0
  160.8950  209.9000  155.4650 N   0  0  0  0  0  0  0  0  0  0  0  0
  159.4630  209.7920  155.1750 C   0  0  0  0  0  2  0  0  0  0  0  0
  160.5790  211.9710  156.7440 C   0  0  2  0  0  3  0  0  0  0  0  0
  161.3660  212.7330  155.8750 O   0  0  0  0  0  1  0  0  0  0  0  0
  160.7850  214.3030  149.2050 N   0  0  0  0  0  1  0  0  0  0  0  0
  161.0890  210.5330  156.7720 C   0  0  0  0  0  2  0  0  0  0  0  0
  158.5820  213.3970  156.1990 C   0  0  0  0  0  0  0  0  0  0  0  0
  159.0970  211.9960  156.3260 C   0  0  1  0  0  3  0  0  0  0  0  0
  158.3980  214.1070  157.2600 N   0  0  0  0  0  2  0  0  0  0  0  0
  158.8390  213.5790  151.1850 C   0  0  0  0  0  2  0  0  0  0  0  0
  161.8060  212.2480  149.5240 O   0  0  0  0  0  0  0  0  0  0  0  0
  159.8980  212.6400  150.8220 N   0  0  0  0  0  0  0  0  0  0  0  0
  160.0240  211.3230  151.4590 C   0  0  0  0  0  2  0  0  0  0  0  0
  158.5330  213.2750  153.6640 C   0  0  2  0  0  3  0  0  0  0  0  0
  158.9880  211.0750  152.5510 C   0  0  0  0  0  2  0  0  0  0  0  0
  159.2820  211.9310  153.7810 C   0  0  2  0  0  3  0  0  0  0  0  0
  161.5180  208.5680  155.4440 C   0  0  0  0  0  2  0  0  0  0  0  0
  161.8550  207.7880  151.7480 N   0  0  0  0  0  0  0  0  0  0  0  0
  160.8090  206.4860  154.0920 C   0  0  0  0  0  2  0  0  0  0  0  0
  160.1890  203.9070  150.4850 C   0  0  0  0  0  2  0  0  0  0  0  0
  161.9510  205.7660  150.4390 C   0  0  0  0  0  2  0  0  0  0  0  0
  161.1820  206.5140  151.5170 C   0  0  1  0  0  3  0  0  0  0  0  0
  161.0470  204.8440  149.6280 C   0  0  0  0  0  2  0  0  0  0  0  0
  160.8490  204.3980  152.8830 C   0  0  0  0  0  3  0  0  0  0  0  0
  161.0470  205.7300  152.8150 C   0  0  0  0  0  0  0  0  0  0  0  0
  160.8800  203.4000  151.7550 C   0  0  2  0  0  3  0  0  0  0  0  0
  161.4260  207.8560  154.1210 C   0  0  2  0  0  3  0  0  0  0  0  0
  161.9050  208.4370  153.0210 C   0  0  0  0  0  3  0  0  0  0  0  0
  162.2820  202.8470  151.5250 C   0  0  0  0  0  2  0  0  0  0  0  0
  162.2550  201.4530  151.5470 O   0  0  0  0  0  1  0  0  0  0  0  0
  1  6  1  1  0  0  0
  1 12  1  0  0  0  0
  3 16  1  0  0  0  0
  4 11  1  0  0  0  0
  5 10  1  0  0  0  0
  6  5  1  0  0  0  0
  7  8  1  6  0  0  0
  7 10  1  0  0  0  0
  9  3  1  0  0  0  0
 11 13  2  0  0  0  0
 12 11  1  6  0  0  0
 12  7  1  0  0  0  0
 14  2  1  0  0  0  0
 15  3  2  0  0  0  0
 16 14  1  0  0  0  0
 16 17  1  0  0  0  0
 17 19  1  0  0  0  0
 18  2  1  6  0  0  0
 18 20  1  0  0  0  0
 18  4  1  0  0  0  0
 20 19  1  6  0  0  0
 20  1  1  0  0  0  0
 21  5  1  0  0  0  0
 22 32  2  0  0  0  0
 23 31  1  0  0  0  0
 24 30  1  0  0  0  0
 26 25  1  6  0  0  0
 26 22  1  0  0  0  0
 26 29  1  0  0  0  0
 27 25  1  0  0  0  0
 27 24  1  0  0  0  0
 29 28  2  0  0  0  0
 29 23  1  0  0  0  0
 30 33  1  6  0  0  0
 30 28  1  0  0  0  0
 31 21  1  1  0  0  0
 32 31  1  0  0  0  0
 33 34  1  0  0  0  0
M  END
>  <MODEL>
8

>  <REMARK>
 VINA RESULT:      -4.1      1.973      2.763
  Name = 
  3 active torsions:
  status: ('A' for Active; 'I' for Inactive)
    1  A    between atoms: C_7  and  C_29
    2  A    between atoms: N_8  and  C_18
    3  A    between atoms: C_18  and  C_30
                            x       y       z     vdW  Elec       q    Type
                         _______ _______ _______ _____ _____    ______ ____

>  <TORSDO>
F 3

$$$$
=
 OpenBabel11062409483D

 34 38  0  0  1  0  0  0  0  0999 V2000
  160.3200  209.0770  154.4290 C   0  0  1  0  0  3  0  0  0  0  0  0
  158.7280  211.6080  156.9160 C   0  0  0  0  0  2  0  0  0  0  0  0
  156.7410  213.7150  155.0620 C   0  0  0  0  0  0  0  0  0  0  0  0
  160.6160  210.1020  157.0810 N   0  0  0  0  0  2  0  0  0  0  0  0
  161.2630  210.0200  152.3490 N   0  0  0  0  0  0  0  0  0  0  0  0
  160.4260  208.9520  152.9020 C   0  0  0  0  0  2  0  0  0  0  0  0
  162.6750  210.0850  154.3560 C   0  0  2  0  0  3  0  0  0  0  0  0
  162.3340  211.4060  154.6620 O   0  0  0  0  0  1  0  0  0  0  0  0
  156.3700  214.4510  156.2240 N   0  0  0  0  0  1  0  0  0  0  0  0
  162.6350  209.8800  152.8440 C   0  0  0  0  0  2  0  0  0  0  0  0
  161.6700  209.3140  156.5270 C   0  0  0  0  0  0  0  0  0  0  0  0
  161.7290  209.0860  155.0470 C   0  0  1  0  0  3  0  0  0  0  0  0
  162.6890  209.0100  157.2590 N   0  0  0  0  0  2  0  0  0  0  0  0
  157.2730  211.7420  156.4970 C   0  0  0  0  0  2  0  0  0  0  0  0
  156.6760  214.2740  153.9350 O   0  0  0  0  0  0  0  0  0  0  0  0
  157.1830  212.3540  155.1720 N   0  0  0  0  0  0  0  0  0  0  0  0
  157.5660  211.6310  153.9530 C   0  0  0  0  0  2  0  0  0  0  0  0
  159.3390  210.3090  156.4020 C   0  0  2  0  0  3  0  0  0  0  0  0
  158.1060  210.2310  154.2210 C   0  0  0  0  0  2  0  0  0  0  0  0
  159.4880  210.2970  154.8680 C   0  0  2  0  0  3  0  0  0  0  0  0
  161.2410  209.9720  150.8800 C   0  0  0  0  0  2  0  0  0  0  0  0
  160.8740  206.2250  150.4320 N   0  0  0  0  0  2  0  0  0  0  0  0
  162.0120  208.4230  148.9640 C   0  0  0  0  0  2  0  0  0  0  0  0
  162.6770  204.5840  146.7590 C   0  0  0  0  0  2  0  0  0  0  0  0
  160.8390  204.7340  148.5380 C   0  0  0  0  0  2  0  0  0  0  0  0
  161.5940  205.8670  149.2150 C   0  0  1  0  0  3  0  0  0  0  0  0
  161.7670  203.8290  147.7350 C   0  0  0  0  0  2  0  0  0  0  0  0
  162.0380  207.0250  146.9980 C   0  0  0  0  0  3  0  0  0  0  0  0
  161.7840  207.0840  148.3200 C   0  0  0  0  0  0  0  0  0  0  0  0
  162.0280  205.8100  146.1080 C   0  0  2  0  0  3  0  0  0  0  0  0
  161.3400  208.5870  150.2980 C   0  0  0  0  0  0  0  0  0  0  0  0
  160.8190  207.5530  150.9570 C   0  0  0  0  0  3  0  0  0  0  0  0
  160.6470  205.5470  145.5200 C   0  0  0  0  0  2  0  0  0  0  0  0
  160.7560  204.7370  144.3880 O   0  0  0  0  0  1  0  0  0  0  0  0
  1  6  1  6  0  0  0
  1 20  1  0  0  0  0
  1 12  1  0  0  0  0
  3 16  1  0  0  0  0
  3  9  1  0  0  0  0
  5 10  1  0  0  0  0
  5  6  1  0  0  0  0
  7  8  1  6  0  0  0
  7 12  1  0  0  0  0
 10  7  1  0  0  0  0
 11  4  1  0  0  0  0
 11 13  2  0  0  0  0
 12 11  1  1  0  0  0
 14  2  1  0  0  0  0
 15  3  2  0  0  0  0
 16 14  1  0  0  0  0
 17 19  1  0  0  0  0
 17 16  1  0  0  0  0
 18  2  1  1  0  0  0
 18  4  1  0  0  0  0
 20 19  1  6  0  0  0
 20 18  1  0  0  0  0
 21  5  1  0  0  0  0
 22 32  1  0  0  0  0
 23 31  1  0  0  0  0
 24 27  1  0  0  0  0
 26 25  1  6  0  0  0
 26 22  1  0  0  0  0
 27 25  1  0  0  0  0
 28 29  2  0  0  0  0
 29 23  1  0  0  0  0
 29 26  1  0  0  0  0
 30 33  1  1  0  0  0
 30 24  1  0  0  0  0
 30 28  1  0  0  0  0
 31 21  1  0  0  0  0
 31 32  2  0  0  0  0
 34 33  1  0  0  0  0
M  END
>  <MODEL>
9

>  <REMARK>
 VINA RESULT:      -3.5      2.819      5.389
  Name = 
  3 active torsions:
  status: ('A' for Active; 'I' for Inactive)
    1  A    between atoms: C_7  and  C_29
    2  A    between atoms: N_8  and  C_18
    3  A    between atoms: C_18  and  C_30
                            x       y       z     vdW  Elec       q    Type
                         _______ _______ _______ _____ _____    ______ ____

>  <TORSDO>
F 3

$$$$
