=
 OpenBabel11052422313D

 31 34  0  0  1  0  0  0  0  0999 V2000
  162.4480  213.5580  147.1450 C   0  0  0  0  0  0  0  0  0  0  0  0
  160.2400  213.6340  150.2300 C   0  0  2  0  0  3  0  0  0  0  0  0
  158.7620  213.6070  149.8550 C   0  0  0  0  0  0  0  0  0  0  0  0
  159.0270  212.6510  147.6080 O   0  0  0  0  0  1  0  0  0  0  0  0
  161.2240  213.1520  149.2010 C   0  0  0  0  0  0  0  0  0  0  0  0
  163.0090  212.2800  147.2220 C   0  0  0  0  0  3  0  0  0  0  0  0
  158.2250  213.1610  148.6210 C   0  0  0  0  0  0  0  0  0  0  0  0
  160.4890  211.4440  151.4350 C   0  0  2  0  0  3  0  0  0  0  0  0
  162.7960  214.4530  146.0100 C   0  0  0  0  0  1  0  0  0  0  0  0
  158.4250  214.4490  152.1890 C   0  0  0  0  0  2  0  0  0  0  0  0
  156.8460  213.2190  148.4020 C   0  0  0  0  0  3  0  0  0  0  0  0
  161.5990  210.9800  150.4850 C   0  0  0  0  0  2  0  0  0  0  0  0
  160.4750  212.9720  151.6040 C   0  0  2  0  0  3  0  0  0  0  0  0
  161.5630  213.9950  148.1340 C   0  0  0  0  0  3  0  0  0  0  0  0
  155.9870  213.6930  149.3940 C   0  0  0  0  0  3  0  0  0  0  0  0
  161.7990  211.8650  149.2850 C   0  0  0  0  0  0  0  0  0  0  0  0
  162.6910  211.4420  148.2940 C   0  0  0  0  0  3  0  0  0  0  0  0
  159.4360  213.3990  152.6700 C   0  0  0  0  0  2  0  0  0  0  0  0
  157.8780  214.0520  150.8550 C   0  0  0  0  0  0  0  0  0  0  0  0
  156.5020  214.1040  150.6220 C   0  0  0  0  0  3  0  0  0  0  0  0
  161.0650  209.5980  155.3270 C   0  0  0  0  0  1  0  0  0  0  0  0
  160.3060  208.5900  151.9000 O   0  0  0  0  0  0  0  0  0  0  0  0
  160.5210  209.3370  152.8940 C   0  0  0  0  0  0  0  0  0  0  0  0
  160.6770  208.7640  154.2010 N   0  0  0  0  0  0  0  0  0  0  0  0
  160.6130  210.7590  152.7210 N   0  0  0  0  0  2  0  0  0  0  0  0
  160.5480  207.3280  154.4180 C   0  0  0  0  0  2  0  0  0  0  0  0
  161.6450  206.5750  153.6800 C   0  0  0  0  0  2  0  0  0  0  0  0
  161.2930  205.2200  153.5550 O   0  0  0  0  0  0  0  0  0  0  0  0
  161.2440  204.8840  152.1850 C   0  0  1  0  0  3  0  0  0  0  0  0
  162.2010  205.5830  151.4390 O   0  0  0  0  0  1  0  0  0  0  0  0
  161.3480  203.3820  151.9440 C   0  0  0  0  0  1  0  0  0  0  0  0
  1  6  2  0  0  0  0
  1 14  1  0  0  0  0
  2  5  1  6  0  0  0
  2 13  1  0  0  0  0
  3  2  1  0  0  0  0
  3 19  1  0  0  0  0
  4  7  1  0  0  0  0
  5 16  1  0  0  0  0
  6 17  1  0  0  0  0
  7  3  2  0  0  0  0
  8 13  1  0  0  0  0
  8 25  1  1  0  0  0
  9  1  1  0  0  0  0
 10 18  1  0  0  0  0
 11  7  1  0  0  0  0
 11 15  2  0  0  0  0
 12  8  1  0  0  0  0
 13 18  1  1  0  0  0
 14  5  2  0  0  0  0
 15 20  1  0  0  0  0
 16 12  1  0  0  0  0
 17 16  2  0  0  0  0
 19 10  1  0  0  0  0
 20 19  2  0  0  0  0
 22 23  2  0  0  0  0
 23 24  1  0  0  0  0
 24 26  1  0  0  0  0
 24 21  1  0  0  0  0
 25 23  1  0  0  0  0
 27 26  1  0  0  0  0
 28 27  1  0  0  0  0
 29 31  1  1  0  0  0
 29 28  1  0  0  0  0
 30 29  1  0  0  0  0
M  END
>  <MODEL>
1

>  <REMARK>
 VINA RESULT:      -5.2      0.000      0.000
  Name = 
  5 active torsions:
  status: ('A' for Active; 'I' for Inactive)
    1  A    between atoms: C_1  and  O_24
    2  A    between atoms: C_6  and  C_19
    3  A    between atoms: C_6  and  N_22
    4  A    between atoms: C_15  and  N_23
    5  A    between atoms: C_19  and  O_24
                            x       y       z     vdW  Elec       q    Type
                         _______ _______ _______ _____ _____    ______ ____

>  <TORSDO>
F 5

$$$$
=
 OpenBabel11052422313D

 31 34  0  0  1  0  0  0  0  0999 V2000
  161.4020  206.2570  152.6670 C   0  0  0  0  0  0  0  0  0  0  0  0
  160.0100  209.7770  152.9390 C   0  0  2  0  0  3  0  0  0  0  0  0
  160.4180  210.4340  154.2520 C   0  0  0  0  0  0  0  0  0  0  0  0
  162.3640  209.0120  154.7240 O   0  0  0  0  0  1  0  0  0  0  0  0
  160.8270  208.6070  152.4670 C   0  0  0  0  0  0  0  0  0  0  0  0
  162.3670  206.4040  151.6680 C   0  0  0  0  0  3  0  0  0  0  0  0
  161.5070  210.0470  155.0730 C   0  0  0  0  0  0  0  0  0  0  0  0
  161.1940  211.2270  151.2650 C   0  0  2  0  0  3  0  0  0  0  0  0
  161.1950  204.9320  153.3090 C   0  0  0  0  0  1  0  0  0  0  0  0
  158.5310  212.0030  153.7480 C   0  0  0  0  0  2  0  0  0  0  0  0
  161.7490  210.7260  156.2710 C   0  0  0  0  0  3  0  0  0  0  0  0
  161.9400  210.0290  150.6660 C   0  0  0  0  0  2  0  0  0  0  0  0
  159.8190  210.8300  151.8270 C   0  0  2  0  0  3  0  0  0  0  0  0
  160.6310  207.3530  153.0620 C   0  0  0  0  0  3  0  0  0  0  0  0
  160.9410  211.7950  156.6600 C   0  0  0  0  0  3  0  0  0  0  0  0
  161.7940  208.7530  151.4490 C   0  0  0  0  0  0  0  0  0  0  0  0
  162.5550  207.6470  151.0550 C   0  0  0  0  0  3  0  0  0  0  0  0
  159.0360  212.0790  152.3010 C   0  0  0  0  0  2  0  0  0  0  0  0
  159.6340  211.5350  154.6440 C   0  0  0  0  0  0  0  0  0  0  0  0
  159.8870  212.2030  155.8440 C   0  0  0  0  0  3  0  0  0  0  0  0
  160.5970  214.4460  148.4060 C   0  0  0  0  0  1  0  0  0  0  0  0
  162.3090  211.2260  148.5910 O   0  0  0  0  0  0  0  0  0  0  0  0
  161.6520  212.2400  148.9550 C   0  0  0  0  0  0  0  0  0  0  0  0
  161.4690  213.3390  148.0500 N   0  0  0  0  0  0  0  0  0  0  0  0
  161.0850  212.2950  150.2720 N   0  0  0  0  0  2  0  0  0  0  0  0
  162.0660  213.3320  146.7200 C   0  0  0  0  0  2  0  0  0  0  0  0
  161.0020  213.1120  145.6560 C   0  0  0  0  0  2  0  0  0  0  0  0
  161.3020  213.8760  144.5150 O   0  0  0  0  0  0  0  0  0  0  0  0
  161.1230  213.0740  143.3670 C   0  0  1  0  0  3  0  0  0  0  0  0
  162.3420  212.6210  142.8470 O   0  0  0  0  0  1  0  0  0  0  0  0
  160.1610  211.9160  143.6030 C   0  0  0  0  0  1  0  0  0  0  0  0
  1 14  1  0  0  0  0
  1  9  1  0  0  0  0
  2  5  1  6  0  0  0
  2  3  1  0  0  0  0
  3 19  2  0  0  0  0
  3  7  1  0  0  0  0
  4  7  1  0  0  0  0
  5 14  2  0  0  0  0
  6  1  2  0  0  0  0
  7 11  2  0  0  0  0
  8 25  1  6  0  0  0
  8 13  1  0  0  0  0
 10 19  1  0  0  0  0
 11 15  1  0  0  0  0
 12  8  1  0  0  0  0
 12 16  1  0  0  0  0
 13 18  1  1  0  0  0
 13  2  1  0  0  0  0
 16  5  1  0  0  0  0
 17 16  2  0  0  0  0
 17  6  1  0  0  0  0
 18 10  1  0  0  0  0
 19 20  1  0  0  0  0
 20 15  2  0  0  0  0
 22 23  2  0  0  0  0
 23 25  1  0  0  0  0
 24 21  1  0  0  0  0
 24 23  1  0  0  0  0
 26 24  1  0  0  0  0
 27 26  1  0  0  0  0
 28 27  1  0  0  0  0
 29 31  1  1  0  0  0
 29 28  1  0  0  0  0
 30 29  1  0  0  0  0
M  END
>  <MODEL>
2

>  <REMARK>
 VINA RESULT:      -5.0      2.594      7.687
  Name = 
  5 active torsions:
  status: ('A' for Active; 'I' for Inactive)
    1  A    between atoms: C_1  and  O_24
    2  A    between atoms: C_6  and  C_19
    3  A    between atoms: C_6  and  N_22
    4  A    between atoms: C_15  and  N_23
    5  A    between atoms: C_19  and  O_24
                            x       y       z     vdW  Elec       q    Type
                         _______ _______ _______ _____ _____    ______ ____

>  <TORSDO>
F 5

$$$$
=
 OpenBabel11052422313D

 31 34  0  0  1  0  0  0  0  0999 V2000
  157.1420  213.1700  156.0140 C   0  0  0  0  0  0  0  0  0  0  0  0
  160.3740  211.3670  155.1760 C   0  0  2  0  0  3  0  0  0  0  0  0
  160.4730  210.0360  155.9120 C   0  0  0  0  0  0  0  0  0  0  0  0
  158.0740  209.7400  156.3490 O   0  0  0  0  0  1  0  0  0  0  0  0
  159.0080  211.9740  155.0230 C   0  0  0  0  0  0  0  0  0  0  0  0
  156.4360  213.0710  154.8120 C   0  0  0  0  0  3  0  0  0  0  0  0
  159.3890  209.3080  156.4640 C   0  0  0  0  0  0  0  0  0  0  0  0
  160.2610  210.6090  152.7840 C   0  0  2  0  0  3  0  0  0  0  0  0
  156.5260  213.8540  157.1820 C   0  0  0  0  0  1  0  0  0  0  0  0
  162.9110  210.2170  155.3680 C   0  0  0  0  0  2  0  0  0  0  0  0
  159.6310  208.1080  157.1390 C   0  0  0  0  0  3  0  0  0  0  0  0
  158.9310  211.3380  152.5550 C   0  0  0  0  0  2  0  0  0  0  0  0
  161.1340  211.3170  153.8340 C   0  0  2  0  0  3  0  0  0  0  0  0
  158.4250  212.6280  156.1190 C   0  0  0  0  0  3  0  0  0  0  0  0
  160.9270  207.6070  157.2600 C   0  0  0  0  0  3  0  0  0  0  0  0
  158.2990  211.8840  153.8060 C   0  0  0  0  0  0  0  0  0  0  0  0
  157.0180  212.4390  153.7100 C   0  0  0  0  0  3  0  0  0  0  0  0
  162.5210  210.6370  153.9450 C   0  0  0  0  0  2  0  0  0  0  0  0
  161.7700  209.4990  156.0160 C   0  0  0  0  0  0  0  0  0  0  0  0
  161.9960  208.2990  156.6930 C   0  0  0  0  0  3  0  0  0  0  0  0
  162.2200  210.3610  148.9130 C   0  0  0  0  0  1  0  0  0  0  0  0
  160.8670  208.1100  151.4500 O   0  0  0  0  0  0  0  0  0  0  0  0
  161.2340  209.1800  150.8920 C   0  0  0  0  0  0  0  0  0  0  0  0
  161.9190  209.1330  149.6320 N   0  0  0  0  0  0  0  0  0  0  0  0
  160.9660  210.4460  151.5140 N   0  0  0  0  0  2  0  0  0  0  0  0
  162.2440  207.8630  148.9930 C   0  0  0  0  0  2  0  0  0  0  0  0
  161.0910  207.3930  148.1210 C   0  0  0  0  0  2  0  0  0  0  0  0
  160.3780  206.3760  148.7790 O   0  0  0  0  0  0  0  0  0  0  0  0
  161.2840  205.3720  149.1870 C   0  0  1  0  0  3  0  0  0  0  0  0
  160.9440  204.8360  150.4350 O   0  0  0  0  0  1  0  0  0  0  0  0
  161.4540  204.2750  148.1440 C   0  0  0  0  0  1  0  0  0  0  0  0
  1 14  1  0  0  0  0
  1  9  1  0  0  0  0
  2  5  1  6  0  0  0
  2  3  1  0  0  0  0
  3 19  2  0  0  0  0
  3  7  1  0  0  0  0
  4  7  1  0  0  0  0
  5 14  2  0  0  0  0
  6  1  2  0  0  0  0
  7 11  2  0  0  0  0
  8 25  1  6  0  0  0
  8 13  1  0  0  0  0
 10 19  1  0  0  0  0
 11 15  1  0  0  0  0
 12  8  1  0  0  0  0
 12 16  1  0  0  0  0
 13 18  1  1  0  0  0
 13  2  1  0  0  0  0
 16  5  1  0  0  0  0
 17 16  2  0  0  0  0
 17  6  1  0  0  0  0
 18 10  1  0  0  0  0
 19 20  1  0  0  0  0
 20 15  2  0  0  0  0
 21 24  1  0  0  0  0
 23 22  2  0  0  0  0
 23 25  1  0  0  0  0
 24 23  1  0  0  0  0
 26 24  1  0  0  0  0
 27 28  1  0  0  0  0
 27 26  1  0  0  0  0
 28 29  1  0  0  0  0
 29 31  1  6  0  0  0
 29 30  1  0  0  0  0
M  END
>  <MODEL>
3

>  <REMARK>
 VINA RESULT:      -4.8      3.217      6.967
  Name = 
  5 active torsions:
  status: ('A' for Active; 'I' for Inactive)
    1  A    between atoms: C_1  and  O_24
    2  A    between atoms: C_6  and  C_19
    3  A    between atoms: C_6  and  N_22
    4  A    between atoms: C_15  and  N_23
    5  A    between atoms: C_19  and  O_24
                            x       y       z     vdW  Elec       q    Type
                         _______ _______ _______ _____ _____    ______ ____

>  <TORSDO>
F 5

$$$$
=
 OpenBabel11052422313D

 31 34  0  0  1  0  0  0  0  0999 V2000
  162.4870  211.4570  149.0880 C   0  0  0  0  0  0  0  0  0  0  0  0
  161.8870  209.2900  152.1440 C   0  0  2  0  0  3  0  0  0  0  0  0
  160.7380  209.8290  152.9890 C   0  0  0  0  0  0  0  0  0  0  0  0
  159.6470  211.1510  151.2290 O   0  0  0  0  0  1  0  0  0  0  0  0
  161.9560  209.7300  150.7090 C   0  0  0  0  0  0  0  0  0  0  0  0
  162.0510  210.6250  148.0530 C   0  0  0  0  0  3  0  0  0  0  0  0
  159.7190  210.7080  152.5440 C   0  0  0  0  0  0  0  0  0  0  0  0
  160.9530  207.0870  151.3810 C   0  0  2  0  0  3  0  0  0  0  0  0
  162.9970  212.8190  148.7790 C   0  0  0  0  0  1  0  0  0  0  0  0
  161.7280  208.3870  154.7820 C   0  0  0  0  0  2  0  0  0  0  0  0
  158.7390  211.1460  153.4400 C   0  0  0  0  0  3  0  0  0  0  0  0
  161.1430  207.4500  149.9040 C   0  0  0  0  0  2  0  0  0  0  0  0
  162.0030  207.7570  152.2810 C   0  0  2  0  0  3  0  0  0  0  0  0
  162.4440  211.0100  150.4110 C   0  0  0  0  0  3  0  0  0  0  0  0
  158.7410  210.7120  154.7660 C   0  0  0  0  0  3  0  0  0  0  0  0
  161.5260  208.8850  149.6630 C   0  0  0  0  0  0  0  0  0  0  0  0
  161.5810  209.3400  148.3410 C   0  0  0  0  0  3  0  0  0  0  0  0
  161.8700  207.2660  153.7440 C   0  0  0  0  0  2  0  0  0  0  0  0
  160.7050  209.3770  154.3210 C   0  0  0  0  0  0  0  0  0  0  0  0
  159.7200  209.8230  155.2050 C   0  0  0  0  0  3  0  0  0  0  0  0
  161.1960  202.7930  152.0080 C   0  0  0  0  0  1  0  0  0  0  0  0
  160.1350  205.1280  149.4080 O   0  0  0  0  0  0  0  0  0  0  0  0
  160.5420  204.7050  150.5260 C   0  0  0  0  0  0  0  0  0  0  0  0
  160.5970  203.2940  150.7810 N   0  0  0  0  0  0  0  0  0  0  0  0
  160.9510  205.6330  151.5410 N   0  0  0  0  0  2  0  0  0  0  0  0
  160.1490  202.3260  149.7870 C   0  0  0  0  0  2  0  0  0  0  0  0
  161.2070  201.2560  149.5680 C   0  0  0  0  0  2  0  0  0  0  0  0
  161.3060  200.9550  148.1980 O   0  0  0  0  0  0  0  0  0  0  0  0
  160.8710  202.0720  147.4510 C   0  0  1  0  0  3  0  0  0  0  0  0
  161.8190  203.1020  147.4500 O   0  0  0  0  0  1  0  0  0  0  0  0
  160.4560  201.7030  146.0320 C   0  0  0  0  0  1  0  0  0  0  0  0
  1 14  1  0  0  0  0
  2  5  1  6  0  0  0
  2 13  1  0  0  0  0
  2  3  1  0  0  0  0
  3 19  1  0  0  0  0
  4  7  1  0  0  0  0
  6 17  1  0  0  0  0
  6  1  2  0  0  0  0
  7  3  2  0  0  0  0
  7 11  1  0  0  0  0
  8 25  1  6  0  0  0
  8 13  1  0  0  0  0
  9  1  1  0  0  0  0
 11 15  2  0  0  0  0
 12  8  1  0  0  0  0
 13 18  1  1  0  0  0
 14  5  2  0  0  0  0
 15 20  1  0  0  0  0
 16 12  1  0  0  0  0
 16  5  1  0  0  0  0
 17 16  2  0  0  0  0
 18 10  1  0  0  0  0
 19 10  1  0  0  0  0
 19 20  2  0  0  0  0
 22 23  2  0  0  0  0
 23 24  1  0  0  0  0
 23 25  1  0  0  0  0
 24 21  1  0  0  0  0
 26 24  1  0  0  0  0
 27 26  1  0  0  0  0
 28 27  1  0  0  0  0
 29 31  1  6  0  0  0
 29 28  1  0  0  0  0
 30 29  1  0  0  0  0
M  END
>  <MODEL>
4

>  <REMARK>
 VINA RESULT:      -3.9      3.134      5.368
  Name = 
  5 active torsions:
  status: ('A' for Active; 'I' for Inactive)
    1  A    between atoms: C_1  and  O_24
    2  A    between atoms: C_6  and  C_19
    3  A    between atoms: C_6  and  N_22
    4  A    between atoms: C_15  and  N_23
    5  A    between atoms: C_19  and  O_24
                            x       y       z     vdW  Elec       q    Type
                         _______ _______ _______ _____ _____    ______ ____

>  <TORSDO>
F 5

$$$$
=
 OpenBabel11052422313D

 31 34  0  0  1  0  0  0  0  0999 V2000
  157.7850  214.0170  150.0150 C   0  0  0  0  0  0  0  0  0  0  0  0
  160.2950  214.0710  147.1690 C   0  0  2  0  0  3  0  0  0  0  0  0
  161.4450  213.1030  147.4260 C   0  0  0  0  0  0  0  0  0  0  0  0
  160.2880  211.6630  149.0450 O   0  0  0  0  0  1  0  0  0  0  0  0
  159.0190  213.8470  147.9310 C   0  0  0  0  0  0  0  0  0  0  0  0
  156.6840  213.3990  149.4170 C   0  0  0  0  0  3  0  0  0  0  0  0
  161.4220  212.0010  148.3180 C   0  0  0  0  0  0  0  0  0  0  0  0
  159.2200  213.0430  145.1460 C   0  0  2  0  0  3  0  0  0  0  0  0
  157.7190  214.4330  151.4410 C   0  0  0  0  0  1  0  0  0  0  0  0
  162.6230  214.4530  145.6760 C   0  0  0  0  0  2  0  0  0  0  0  0
  162.5640  211.2110  148.4740 C   0  0  0  0  0  3  0  0  0  0  0  0
  157.8630  212.9310  145.8510 C   0  0  0  0  0  2  0  0  0  0  0  0
  160.0390  214.2390  145.6570 C   0  0  2  0  0  3  0  0  0  0  0  0
  158.9480  214.2450  149.2740 C   0  0  0  0  0  3  0  0  0  0  0  0
  163.7230  211.4820  147.7480 C   0  0  0  0  0  3  0  0  0  0  0  0
  157.9020  213.2340  147.3240 C   0  0  0  0  0  0  0  0  0  0  0  0
  156.7400  213.0180  148.0740 C   0  0  0  0  0  3  0  0  0  0  0  0
  161.3410  214.4060  144.8350 C   0  0  0  0  0  2  0  0  0  0  0  0
  162.6130  213.3430  146.6780 C   0  0  0  0  0  0  0  0  0  0  0  0
  163.7460  212.5440  146.8460 C   0  0  0  0  0  3  0  0  0  0  0  0
  158.3640  213.2630  140.8910 C   0  0  0  0  0  1  0  0  0  0  0  0
  160.4840  211.3480  143.1650 O   0  0  0  0  0  0  0  0  0  0  0  0
  159.6740  212.2260  142.7590 C   0  0  0  0  0  0  0  0  0  0  0  0
  159.3990  212.3540  141.3560 N   0  0  0  0  0  0  0  0  0  0  0  0
  159.0270  213.0980  143.6980 N   0  0  0  0  0  2  0  0  0  0  0  0
  160.0710  211.5130  140.3730 C   0  0  0  0  0  2  0  0  0  0  0  0
  160.9400  212.3550  139.4530 C   0  0  0  0  0  2  0  0  0  0  0  0
  161.3690  213.5110  140.1270 O   0  0  0  0  0  0  0  0  0  0  0  0
  162.6550  213.2790  140.6620 C   0  0  1  0  0  3  0  0  0  0  0  0
  163.6240  213.1440  139.6610 O   0  0  0  0  0  1  0  0  0  0  0  0
  163.0640  214.3310  141.6860 C   0  0  0  0  0  1  0  0  0  0  0  0
  1  9  1  0  0  0  0
  2  3  1  6  0  0  0
  2  5  1  0  0  0  0
  3  7  1  0  0  0  0
  5 14  1  0  0  0  0
  6  1  1  0  0  0  0
  7 11  2  0  0  0  0
  7  4  1  0  0  0  0
  8 25  1  6  0  0  0
  8 13  1  0  0  0  0
  8 12  1  0  0  0  0
 10 19  1  0  0  0  0
 12 16  1  0  0  0  0
 13 18  1  6  0  0  0
 13  2  1  0  0  0  0
 14  1  2  0  0  0  0
 15 11  1  0  0  0  0
 16  5  2  0  0  0  0
 16 17  1  0  0  0  0
 17  6  2  0  0  0  0
 18 10  1  0  0  0  0
 19 20  1  0  0  0  0
 19  3  2  0  0  0  0
 20 15  2  0  0  0  0
 21 24  1  0  0  0  0
 23 22  2  0  0  0  0
 23 25  1  0  0  0  0
 24 23  1  0  0  0  0
 26 24  1  0  0  0  0
 27 28  1  0  0  0  0
 27 26  1  0  0  0  0
 28 29  1  0  0  0  0
 29 31  1  1  0  0  0
 30 29  1  0  0  0  0
M  END
>  <MODEL>
5

>  <REMARK>
 VINA RESULT:      -3.0      4.786      9.384
  Name = 
  5 active torsions:
  status: ('A' for Active; 'I' for Inactive)
    1  A    between atoms: C_1  and  O_24
    2  A    between atoms: C_6  and  C_19
    3  A    between atoms: C_6  and  N_22
    4  A    between atoms: C_15  and  N_23
    5  A    between atoms: C_19  and  O_24
                            x       y       z     vdW  Elec       q    Type
                         _______ _______ _______ _____ _____    ______ ____

>  <TORSDO>
F 5

$$$$
=
 OpenBabel11052422313D

 31 34  0  0  1  0  0  0  0  0999 V2000
  162.1870  213.2890  148.2650 C   0  0  0  0  0  0  0  0  0  0  0  0
  160.4790  212.6660  151.5960 C   0  0  2  0  0  3  0  0  0  0  0  0
  159.0080  213.0630  151.5470 C   0  0  0  0  0  0  0  0  0  0  0  0
  158.7340  212.9540  149.1080 O   0  0  0  0  0  1  0  0  0  0  0  0
  161.1710  212.4100  150.2860 C   0  0  0  0  0  0  0  0  0  0  0  0
  162.4110  211.9880  147.8070 C   0  0  0  0  0  3  0  0  0  0  0  0
  158.2240  213.2070  150.3750 C   0  0  0  0  0  0  0  0  0  0  0  0
  160.3160  210.1850  151.9500 C   0  0  2  0  0  3  0  0  0  0  0  0
  162.6040  214.4500  147.4340 C   0  0  0  0  0  1  0  0  0  0  0  0
  159.1940  213.0500  154.0440 C   0  0  0  0  0  2  0  0  0  0  0  0
  156.8880  213.6050  150.4780 C   0  0  0  0  0  3  0  0  0  0  0  0
  161.1430  209.8920  150.6920 C   0  0  0  0  0  2  0  0  0  0  0  0
  160.7120  211.5200  152.6030 C   0  0  2  0  0  3  0  0  0  0  0  0
  161.5740  213.5000  149.5030 C   0  0  0  0  0  3  0  0  0  0  0  0
  156.3100  213.8440  151.7250 C   0  0  0  0  0  3  0  0  0  0  0  0
  161.4070  211.0950  149.8290 C   0  0  0  0  0  0  0  0  0  0  0  0
  162.0300  210.8960  148.5920 C   0  0  0  0  0  3  0  0  0  0  0  0
  159.9580  211.7230  153.9400 C   0  0  0  0  0  2  0  0  0  0  0  0
  158.3990  213.2770  152.7970 C   0  0  0  0  0  0  0  0  0  0  0  0
  157.0640  213.6740  152.8850 C   0  0  0  0  0  3  0  0  0  0  0  0
  160.7390  207.0600  154.9400 C   0  0  0  0  0  1  0  0  0  0  0  0
  161.1260  207.4730  151.3330 O   0  0  0  0  0  0  0  0  0  0  0  0
  160.8390  207.7440  152.5310 C   0  0  0  0  0  0  0  0  0  0  0  0
  160.9290  206.7250  153.5380 N   0  0  0  0  0  0  0  0  0  0  0  0
  160.4240  209.0700  152.8900 N   0  0  0  0  0  2  0  0  0  0  0  0
  161.3060  205.3580  153.2010 C   0  0  0  0  0  2  0  0  0  0  0  0
  161.1370  205.1090  151.7100 C   0  0  0  0  0  2  0  0  0  0  0  0
  160.4130  203.9210  151.5040 O   0  0  0  0  0  0  0  0  0  0  0  0
  161.2930  202.9260  151.0260 C   0  0  1  0  0  3  0  0  0  0  0  0
  161.9860  202.2950  152.0660 O   0  0  0  0  0  1  0  0  0  0  0  0
  160.5970  201.9070  150.1320 C   0  0  0  0  0  1  0  0  0  0  0  0
  1 14  1  0  0  0  0
  2  5  1  6  0  0  0
  2 13  1  0  0  0  0
  3  2  1  0  0  0  0
  3 19  1  0  0  0  0
  4  7  1  0  0  0  0
  6  1  2  0  0  0  0
  6 17  1  0  0  0  0
  7 11  1  0  0  0  0
  7  3  2  0  0  0  0
  8 13  1  0  0  0  0
  8 25  1  1  0  0  0
  9  1  1  0  0  0  0
 11 15  2  0  0  0  0
 12  8  1  0  0  0  0
 13 18  1  1  0  0  0
 14  5  2  0  0  0  0
 15 20  1  0  0  0  0
 16  5  1  0  0  0  0
 16 12  1  0  0  0  0
 17 16  2  0  0  0  0
 18 10  1  0  0  0  0
 19 20  2  0  0  0  0
 19 10  1  0  0  0  0
 22 23  2  0  0  0  0
 23 25  1  0  0  0  0
 23 24  1  0  0  0  0
 24 21  1  0  0  0  0
 26 24  1  0  0  0  0
 27 26  1  0  0  0  0
 28 27  1  0  0  0  0
 29 31  1  1  0  0  0
 29 28  1  0  0  0  0
 29 30  1  0  0  0  0
M  END
>  <MODEL>
6

>  <REMARK>
 VINA RESULT:      -2.6      1.452      1.964
  Name = 
  5 active torsions:
  status: ('A' for Active; 'I' for Inactive)
    1  A    between atoms: C_1  and  O_24
    2  A    between atoms: C_6  and  C_19
    3  A    between atoms: C_6  and  N_22
    4  A    between atoms: C_15  and  N_23
    5  A    between atoms: C_19  and  O_24
                            x       y       z     vdW  Elec       q    Type
                         _______ _______ _______ _____ _____    ______ ____

>  <TORSDO>
F 5

$$$$
=
 OpenBabel11052422313D

 31 34  0  0  1  0  0  0  0  0999 V2000
  157.8800  214.2190  154.3940 C   0  0  0  0  0  0  0  0  0  0  0  0
  159.8620  213.3970  151.2640 C   0  0  2  0  0  3  0  0  0  0  0  0
  160.3780  211.9630  151.2960 C   0  0  0  0  0  0  0  0  0  0  0  0
  158.7690  211.0860  152.9310 O   0  0  0  0  0  1  0  0  0  0  0  0
  158.7060  213.7370  152.1620 C   0  0  0  0  0  0  0  0  0  0  0  0
  156.5780  214.3130  153.8950 C   0  0  0  0  0  3  0  0  0  0  0  0
  159.8630  210.9110  152.0940 C   0  0  0  0  0  0  0  0  0  0  0  0
  158.2740  213.3140  149.3200 C   0  0  2  0  0  3  0  0  0  0  0  0
  158.1340  214.4210  155.8440 C   0  0  0  0  0  1  0  0  0  0  0  0
  161.9500  212.7690  149.5210 C   0  0  0  0  0  2  0  0  0  0  0  0
  160.4550  209.6450  152.0410 C   0  0  0  0  0  3  0  0  0  0  0  0
  157.1010  213.7970  150.1820 C   0  0  0  0  0  2  0  0  0  0  0  0
  159.6200  213.8670  149.8140 C   0  0  2  0  0  3  0  0  0  0  0  0
  158.9410  213.9370  153.5300 C   0  0  0  0  0  3  0  0  0  0  0  0
  161.5380  209.4000  151.1970 C   0  0  0  0  0  3  0  0  0  0  0  0
  157.3930  213.8430  151.6560 C   0  0  0  0  0  0  0  0  0  0  0  0
  156.3380  214.1350  152.5290 C   0  0  0  0  0  3  0  0  0  0  0  0
  160.7650  213.4740  148.8480 C   0  0  0  0  0  2  0  0  0  0  0  0
  161.4500  211.6880  150.4260 C   0  0  0  0  0  0  0  0  0  0  0  0
  162.0310  210.4190  150.3840 C   0  0  0  0  0  3  0  0  0  0  0  0
  157.2800  214.3540  145.2190 C   0  0  0  0  0  1  0  0  0  0  0  0
  159.4420  212.0160  147.0070 O   0  0  0  0  0  0  0  0  0  0  0  0
  158.6340  212.9650  146.8060 C   0  0  0  0  0  0  0  0  0  0  0  0
  158.3140  213.3610  145.4640 N   0  0  0  0  0  0  0  0  0  0  0  0
  158.0330  213.6470  147.9170 N   0  0  0  0  0  2  0  0  0  0  0  0
  158.9380  212.7170  144.3150 C   0  0  0  0  0  2  0  0  0  0  0  0
  160.1570  213.5030  143.8580 C   0  0  0  0  0  2  0  0  0  0  0  0
  160.3890  213.2720  142.4910 O   0  0  0  0  0  0  0  0  0  0  0  0
  161.5390  212.4650  142.3510 C   0  0  1  0  0  3  0  0  0  0  0  0
  161.9160  212.3170  141.0110 O   0  0  0  0  0  1  0  0  0  0  0  0
  162.7060  212.9540  143.2010 C   0  0  0  0  0  1  0  0  0  0  0  0
  1  9  1  0  0  0  0
  2  3  1  6  0  0  0
  2  5  1  0  0  0  0
  3  7  1  0  0  0  0
  5 14  1  0  0  0  0
  6  1  1  0  0  0  0
  7  4  1  0  0  0  0
  8 25  1  6  0  0  0
  8 13  1  0  0  0  0
  8 12  1  0  0  0  0
 10 19  1  0  0  0  0
 11  7  2  0  0  0  0
 12 16  1  0  0  0  0
 13 18  1  6  0  0  0
 13  2  1  0  0  0  0
 14  1  2  0  0  0  0
 15 11  1  0  0  0  0
 16  5  2  0  0  0  0
 16 17  1  0  0  0  0
 17  6  2  0  0  0  0
 18 10  1  0  0  0  0
 19  3  2  0  0  0  0
 20 19  1  0  0  0  0
 20 15  2  0  0  0  0
 21 24  1  0  0  0  0
 23 22  2  0  0  0  0
 23 25  1  0  0  0  0
 24 23  1  0  0  0  0
 26 24  1  0  0  0  0
 27 26  1  0  0  0  0
 28 27  1  0  0  0  0
 29 28  1  0  0  0  0
 29 31  1  1  0  0  0
 30 29  1  0  0  0  0
M  END
>  <MODEL>
7

>  <REMARK>
 VINA RESULT:      -2.5      3.309      8.119
  Name = 
  5 active torsions:
  status: ('A' for Active; 'I' for Inactive)
    1  A    between atoms: C_1  and  O_24
    2  A    between atoms: C_6  and  C_19
    3  A    between atoms: C_6  and  N_22
    4  A    between atoms: C_15  and  N_23
    5  A    between atoms: C_19  and  O_24
                            x       y       z     vdW  Elec       q    Type
                         _______ _______ _______ _____ _____    ______ ____

>  <TORSDO>
F 5

$$$$
=
 OpenBabel11052422313D

 31 34  0  0  1  0  0  0  0  0999 V2000
  161.2050  201.4200  148.8810 C   0  0  0  0  0  0  0  0  0  0  0  0
  162.1960  204.8480  150.1710 C   0  0  2  0  0  3  0  0  0  0  0  0
  161.7740  205.9480  149.2030 C   0  0  0  0  0  0  0  0  0  0  0  0
  160.0270  204.6810  148.0310 O   0  0  0  0  0  1  0  0  0  0  0  0
  161.4970  203.5220  150.0590 C   0  0  0  0  0  0  0  0  0  0  0  0
  160.1850  201.0610  149.7660 C   0  0  0  0  0  3  0  0  0  0  0  0
  160.7740  205.8380  148.2040 C   0  0  0  0  0  0  0  0  0  0  0  0
  160.7800  205.3780  152.1770 C   0  0  2  0  0  3  0  0  0  0  0  0
  161.5900  200.4970  147.7810 C   0  0  0  0  0  1  0  0  0  0  0  0
  163.4440  207.3290  150.4580 C   0  0  0  0  0  2  0  0  0  0  0  0
  160.5100  206.9240  147.3650 C   0  0  0  0  0  3  0  0  0  0  0  0
  160.1500  203.9800  152.1750 C   0  0  0  0  0  2  0  0  0  0  0  0
  162.2150  205.3660  151.6240 C   0  0  2  0  0  3  0  0  0  0  0  0
  161.8620  202.6440  149.0290 C   0  0  0  0  0  3  0  0  0  0  0  0
  161.2060  208.1240  147.5110 C   0  0  0  0  0  3  0  0  0  0  0  0
  160.4750  203.1550  150.9610 C   0  0  0  0  0  0  0  0  0  0  0  0
  159.8300  201.9220  150.8080 C   0  0  0  0  0  3  0  0  0  0  0  0
  162.8700  206.7620  151.7640 C   0  0  0  0  0  2  0  0  0  0  0  0
  162.4440  207.1750  149.3570 C   0  0  0  0  0  0  0  0  0  0  0  0
  162.1690  208.2520  148.5100 C   0  0  0  0  0  3  0  0  0  0  0  0
  160.4640  206.8410  156.2570 C   0  0  0  0  0  1  0  0  0  0  0  0
  160.3730  208.1660  152.8550 O   0  0  0  0  0  0  0  0  0  0  0  0
  160.5090  207.3420  153.8020 C   0  0  0  0  0  0  0  0  0  0  0  0
  160.4510  207.7970  155.1610 N   0  0  0  0  0  0  0  0  0  0  0  0
  160.7220  205.9510  153.5210 N   0  0  0  0  0  2  0  0  0  0  0  0
  160.2780  209.2090  155.4810 C   0  0  0  0  0  2  0  0  0  0  0  0
  161.6220  209.9210  155.5030 C   0  0  0  0  0  2  0  0  0  0  0  0
  161.6620  210.8980  154.4930 O   0  0  0  0  0  0  0  0  0  0  0  0
  160.3590  211.4040  154.2930 C   0  0  1  0  0  3  0  0  0  0  0  0
  160.0850  212.4930  155.1300 O   0  0  0  0  0  1  0  0  0  0  0  0
  160.0800  211.7470  152.8340 C   0  0  0  0  0  1  0  0  0  0  0  0
  1 14  2  0  0  0  0
  1  6  1  0  0  0  0
  2  3  1  6  0  0  0
  2 13  1  0  0  0  0
  3 19  1  0  0  0  0
  4  7  1  0  0  0  0
  5  2  1  0  0  0  0
  5 16  2  0  0  0  0
  6 17  2  0  0  0  0
  7  3  2  0  0  0  0
  8 25  1  1  0  0  0
  9  1  1  0  0  0  0
 10 18  1  0  0  0  0
 11 15  2  0  0  0  0
 11  7  1  0  0  0  0
 12  8  1  0  0  0  0
 13 18  1  6  0  0  0
 13  8  1  0  0  0  0
 14  5  1  0  0  0  0
 15 20  1  0  0  0  0
 16 12  1  0  0  0  0
 17 16  1  0  0  0  0
 19 10  1  0  0  0  0
 20 19  2  0  0  0  0
 22 23  2  0  0  0  0
 23 24  1  0  0  0  0
 24 26  1  0  0  0  0
 24 21  1  0  0  0  0
 25 23  1  0  0  0  0
 26 27  1  0  0  0  0
 28 27  1  0  0  0  0
 29 31  1  6  0  0  0
 29 28  1  0  0  0  0
 29 30  1  0  0  0  0
M  END
>  <MODEL>
8

>  <REMARK>
 VINA RESULT:      -2.2      3.766      8.029
  Name = 
  5 active torsions:
  status: ('A' for Active; 'I' for Inactive)
    1  A    between atoms: C_1  and  O_24
    2  A    between atoms: C_6  and  C_19
    3  A    between atoms: C_6  and  N_22
    4  A    between atoms: C_15  and  N_23
    5  A    between atoms: C_19  and  O_24
                            x       y       z     vdW  Elec       q    Type
                         _______ _______ _______ _____ _____    ______ ____

>  <TORSDO>
F 5

$$$$
