=
 OpenBabel11062408073D

 34 37  0  0  1  0  0  0  0  0999 V2000
  161.3730  207.7380  150.5440 N   0  0  0  0  0  0  0  0  0  0  0  0
  161.8100  206.2130  152.3720 C   0  0  2  0  0  3  0  0  0  0  0  0
  161.3060  206.3690  150.0410 C   0  0  1  0  0  3  0  0  0  0  0  0
  161.1750  205.4470  151.2330 C   0  0  1  0  0  3  0  0  0  0  0  0
  161.6310  207.6710  151.9860 C   0  0  2  0  0  3  0  0  0  0  0  0
  163.1760  205.9350  152.4630 O   0  0  0  0  0  1  0  0  0  0  0  0
  160.4170  207.0230  154.9210 C   0  0  0  0  0  3  0  0  0  0  0  0
  161.2210  209.3160  155.0030 C   0  0  0  0  0  0  0  0  0  0  0  0
  160.4760  208.3240  152.7710 C   0  0  2  0  0  3  0  0  0  0  0  0
  161.4480  209.1750  156.3760 C   0  0  0  0  0  3  0  0  0  0  0  0
  161.4100  210.6760  154.3880 C   0  0  0  0  0  2  0  0  0  0  0  0
  160.2780  209.7850  152.3460 C   0  0  0  0  0  2  0  0  0  0  0  0
  160.6960  208.2300  154.2640 C   0  0  0  0  0  0  0  0  0  0  0  0
  161.1760  207.9640  157.0170 C   0  0  0  0  0  3  0  0  0  0  0  0
  160.6580  206.8900  156.2900 C   0  0  0  0  0  3  0  0  0  0  0  0
  161.4290  210.6390  152.8630 C   0  0  0  0  0  2  0  0  0  0  0  0
  161.8280  204.2330  150.9940 O   0  0  0  0  0  0  0  0  0  0  0  0
  160.9340  203.2550  151.4290 C   0  0  0  0  0  2  0  0  0  0  0  0
  160.6960  202.0280  150.1150 S   0  0  0  0  0  1  0  0  0  0  0  0
  162.5350  208.3620  149.9340 C   0  0  0  0  0  2  0  0  0  0  0  0
  162.0040  209.4100  148.5520 S   0  0  0  0  0  0  0  0  0  0  0  0
  162.3750  210.9230  149.4780 C   0  0  0  0  0  2  0  0  0  0  0  0
  161.4920  212.0490  148.9760 C   0  0  0  0  0  2  0  0  0  0  0  0
  160.0880  212.4590  145.5660 C   0  0  0  0  0  2  0  0  0  0  0  0
  161.5180  212.0870  147.5240 N   0  0  0  0  0  0  0  0  0  0  0  0
  160.1700  212.4530  147.0910 C   0  0  0  0  0  2  0  0  0  0  0  0
  161.0490  213.8060  143.8260 N   0  0  0  0  0  2  0  0  0  0  0  0
  162.5450  213.2420  145.6170 C   0  0  0  0  0  2  0  0  0  0  0  0
  162.4220  213.1720  147.1390 C   0  0  0  0  0  2  0  0  0  0  0  0
  161.1780  213.3240  145.0050 C   0  0  0  0  0  0  0  0  0  0  0  0
  160.1050  206.2220  149.1230 C   0  0  0  0  0  2  0  0  0  0  0  0
  160.6300  206.2820  147.3850 S   0  0  0  0  0  0  0  0  0  0  0  0
  161.5970  204.7580  147.5590 C   0  0  0  0  0  2  0  0  0  0  0  0
  162.7000  204.7420  146.5220 C   0  0  0  0  0  1  0  0  0  0  0  0
  2  6  1  6  0  0  0
  3 31  1  6  0  0  0
  3  1  1  0  0  0  0
  3  4  1  0  0  0  0
  4 17  1  6  0  0  0
  4  2  1  0  0  0  0
  5  1  1  6  0  0  0
  5  2  1  0  0  0  0
  5  9  1  0  0  0  0
  7 15  1  0  0  0  0
  8 10  2  0  0  0  0
  9 12  1  6  0  0  0
  9 13  1  0  0  0  0
 10 14  1  0  0  0  0
 11  8  1  0  0  0  0
 12 16  1  0  0  0  0
 13  7  2  0  0  0  0
 13  8  1  0  0  0  0
 15 14  2  0  0  0  0
 16 11  1  0  0  0  0
 17 18  1  0  0  0  0
 19 18  1  0  0  0  0
 20  1  1  0  0  0  0
 21 22  1  0  0  0  0
 21 20  1  0  0  0  0
 23 22  1  0  0  0  0
 24 26  1  0  0  0  0
 25 23  1  0  0  0  0
 26 25  1  0  0  0  0
 27 30  2  0  0  0  0
 28 29  1  0  0  0  0
 29 25  1  0  0  0  0
 30 24  1  0  0  0  0
 30 28  1  0  0  0  0
 32 33  1  0  0  0  0
 32 31  1  0  0  0  0
 34 33  1  0  0  0  0
M  END
>  <MODEL>
1

>  <REMARK>
 VINA RESULT:      -6.6      0.000      0.000
  Name = 
  11 active torsions:
  status: ('A' for Active; 'I' for Inactive)
    1  A    between atoms: C_3  and  N_13
    2  A    between atoms: C_3  and  C_17
    3  A    between atoms: C_4  and  C_31
    4  A    between atoms: N_5  and  C_18
    5  A    between atoms: C_7  and  O_8
    6  A    between atoms: O_8  and  C_28
    7  A    between atoms: C_12  and  S_16
    8  A    between atoms: S_16  and  C_23
    9  A    between atoms: C_17  and  S_29
   10  A    between atoms: C_18  and  S_29
   11  A    between atoms: C_23  and  C_26
                            x       y       z     vdW  Elec       q    Type
                         _______ _______ _______ _____ _____    ______ ____

>  <TORSDO>
F 11

$$$$
=
 OpenBabel11062408073D

 34 37  0  0  1  0  0  0  0  0999 V2000
  161.0380  209.5780  152.3960 N   0  0  0  0  0  0  0  0  0  0  0  0
  160.9300  210.3460  154.6880 C   0  0  2  0  0  3  0  0  0  0  0  0
  161.4620  208.4930  153.2760 C   0  0  1  0  0  3  0  0  0  0  0  0
  161.0120  208.8350  154.6790 C   0  0  1  0  0  3  0  0  0  0  0  0
  160.6570  210.7140  153.2400 C   0  0  2  0  0  3  0  0  0  0  0  0
  162.1480  210.9100  155.0740 O   0  0  0  0  0  1  0  0  0  0  0  0
  158.2010  210.9950  155.3380 C   0  0  0  0  0  3  0  0  0  0  0  0
  158.4580  213.1730  154.2880 C   0  0  0  0  0  0  0  0  0  0  0  0
  159.1740  211.0730  153.0210 C   0  0  2  0  0  3  0  0  0  0  0  0
  157.9460  213.7760  155.4410 C   0  0  0  0  0  3  0  0  0  0  0  0
  158.7200  214.0410  153.0880 C   0  0  0  0  0  2  0  0  0  0  0  0
  158.9960  211.9380  151.7670 C   0  0  0  0  0  2  0  0  0  0  0  0
  158.5850  211.7640  154.2310 C   0  0  0  0  0  0  0  0  0  0  0  0
  157.5780  212.9990  156.5420 C   0  0  0  0  0  3  0  0  0  0  0  0
  157.7020  211.6090  156.4890 C   0  0  0  0  0  3  0  0  0  0  0  0
  159.5460  213.3370  152.0150 C   0  0  0  0  0  2  0  0  0  0  0  0
  161.9250  208.3570  155.6240 O   0  0  0  0  0  0  0  0  0  0  0  0
  161.1770  208.1830  156.7880 C   0  0  0  0  0  2  0  0  0  0  0  0
  159.7740  207.0870  156.4450 S   0  0  0  0  0  1  0  0  0  0  0  0
  162.2050  209.9900  151.6320 C   0  0  0  0  0  2  0  0  0  0  0  0
  161.7890  210.0300  149.8670 S   0  0  0  0  0  0  0  0  0  0  0  0
  162.3370  208.3180  149.6370 C   0  0  0  0  0  2  0  0  0  0  0  0
  161.1980  207.4980  149.0630 C   0  0  0  0  0  2  0  0  0  0  0  0
  161.4910  203.9720  147.9440 C   0  0  0  0  0  2  0  0  0  0  0  0
  161.7300  206.3890  148.2890 N   0  0  0  0  0  0  0  0  0  0  0  0
  160.9590  205.2060  148.6700 C   0  0  0  0  0  2  0  0  0  0  0  0
  161.5390  203.2460  145.6560 N   0  0  0  0  0  2  0  0  0  0  0  0
  162.0250  205.5720  145.9930 C   0  0  0  0  0  2  0  0  0  0  0  0
  161.4470  206.6730  146.8810 C   0  0  0  0  0  2  0  0  0  0  0  0
  161.5380  204.2350  146.4680 C   0  0  0  0  0  0  0  0  0  0  0  0
  160.8290  207.1900  152.8200 C   0  0  0  0  0  2  0  0  0  0  0  0
  162.1130  205.9570  152.4590 S   0  0  0  0  0  0  0  0  0  0  0  0
  160.9120  204.6010  152.5010 C   0  0  0  0  0  2  0  0  0  0  0  0
  161.4700  203.4110  151.7480 C   0  0  0  0  0  1  0  0  0  0  0  0
  1  3  1  0  0  0  0
  2  6  1  6  0  0  0
  3 31  1  6  0  0  0
  3  4  1  0  0  0  0
  4  2  1  0  0  0  0
  4 17  1  1  0  0  0
  5  1  1  6  0  0  0
  5  2  1  0  0  0  0
  7 15  1  0  0  0  0
  8 10  2  0  0  0  0
  9 12  1  6  0  0  0
  9  5  1  0  0  0  0
  9 13  1  0  0  0  0
 10 14  1  0  0  0  0
 11  8  1  0  0  0  0
 12 16  1  0  0  0  0
 13  8  1  0  0  0  0
 13  7  2  0  0  0  0
 15 14  2  0  0  0  0
 16 11  1  0  0  0  0
 17 18  1  0  0  0  0
 19 18  1  0  0  0  0
 20  1  1  0  0  0  0
 21 20  1  0  0  0  0
 22 21  1  0  0  0  0
 23 22  1  0  0  0  0
 24 26  1  0  0  0  0
 25 26  1  0  0  0  0
 25 23  1  0  0  0  0
 27 30  2  0  0  0  0
 28 30  1  0  0  0  0
 28 29  1  0  0  0  0
 29 25  1  0  0  0  0
 30 24  1  0  0  0  0
 32 33  1  0  0  0  0
 32 31  1  0  0  0  0
 34 33  1  0  0  0  0
M  END
>  <MODEL>
2

>  <REMARK>
 VINA RESULT:      -6.5      3.583      5.658
  Name = 
  11 active torsions:
  status: ('A' for Active; 'I' for Inactive)
    1  A    between atoms: C_3  and  N_13
    2  A    between atoms: C_3  and  C_17
    3  A    between atoms: C_4  and  C_31
    4  A    between atoms: N_5  and  C_18
    5  A    between atoms: C_7  and  O_8
    6  A    between atoms: O_8  and  C_28
    7  A    between atoms: C_12  and  S_16
    8  A    between atoms: S_16  and  C_23
    9  A    between atoms: C_17  and  S_29
   10  A    between atoms: C_18  and  S_29
   11  A    between atoms: C_23  and  C_26
                            x       y       z     vdW  Elec       q    Type
                         _______ _______ _______ _____ _____    ______ ____

>  <TORSDO>
F 11

$$$$
=
 OpenBabel11062408073D

 34 37  0  0  1  0  0  0  0  0999 V2000
  161.3830  207.7270  150.5830 N   0  0  0  0  0  0  0  0  0  0  0  0
  161.8050  206.2050  152.4170 C   0  0  2  0  0  3  0  0  0  0  0  0
  161.3140  206.3570  150.0840 C   0  0  1  0  0  3  0  0  0  0  0  0
  161.1740  205.4380  151.2770 C   0  0  1  0  0  3  0  0  0  0  0  0
  161.6340  207.6630  152.0260 C   0  0  2  0  0  3  0  0  0  0  0  0
  163.1700  205.9220  152.5160 O   0  0  0  0  0  1  0  0  0  0  0  0
  160.4110  207.0380  154.9630 C   0  0  0  0  0  3  0  0  0  0  0  0
  161.2180  209.3310  155.0300 C   0  0  0  0  0  0  0  0  0  0  0  0
  160.4780  208.3230  152.8030 C   0  0  2  0  0  3  0  0  0  0  0  0
  161.4410  209.2000  156.4040 C   0  0  0  0  0  3  0  0  0  0  0  0
  161.4090  210.6860  154.4050 C   0  0  0  0  0  2  0  0  0  0  0  0
  160.2810  209.7800  152.3670 C   0  0  0  0  0  2  0  0  0  0  0  0
  160.6940  208.2390  154.2970 C   0  0  0  0  0  0  0  0  0  0  0  0
  161.1660  207.9940  157.0530 C   0  0  0  0  0  3  0  0  0  0  0  0
  160.6490  206.9140  156.3340 C   0  0  0  0  0  3  0  0  0  0  0  0
  161.4320  210.6370  152.8800 C   0  0  0  0  0  2  0  0  0  0  0  0
  161.8230  204.2210  151.0450 O   0  0  0  0  0  0  0  0  0  0  0  0
  160.9160  203.2470  151.4620 C   0  0  0  0  0  2  0  0  0  0  0  0
  160.7150  202.0090  150.1520 S   0  0  0  0  0  1  0  0  0  0  0  0
  162.5520  208.3450  149.9760 C   0  0  0  0  0  2  0  0  0  0  0  0
  162.0500  209.2630  148.4950 S   0  0  0  0  0  0  0  0  0  0  0  0
  162.2170  210.8520  149.3490 C   0  0  0  0  0  2  0  0  0  0  0  0
  162.5170  211.9390  148.3360 C   0  0  0  0  0  2  0  0  0  0  0  0
  159.3640  213.5340  147.2000 C   0  0  0  0  0  2  0  0  0  0  0  0
  161.4500  212.9250  148.3400 N   0  0  0  0  0  0  0  0  0  0  0  0
  160.4970  212.5160  147.3080 C   0  0  0  0  0  2  0  0  0  0  0  0
  157.5670  214.2210  148.6350 N   0  0  0  0  0  2  0  0  0  0  0  0
  159.6700  213.8730  149.7380 C   0  0  0  0  0  2  0  0  0  0  0  0
  160.7770  212.8260  149.6350 C   0  0  0  0  0  2  0  0  0  0  0  0
  158.7570  213.7600  148.5540 C   0  0  0  0  0  0  0  0  0  0  0  0
  160.1180  206.2110  149.1590 C   0  0  0  0  0  2  0  0  0  0  0  0
  160.6510  206.2620  147.4240 S   0  0  0  0  0  0  0  0  0  0  0  0
  161.5820  204.7160  147.6000 C   0  0  0  0  0  2  0  0  0  0  0  0
  162.6920  204.6780  146.5700 C   0  0  0  0  0  1  0  0  0  0  0  0
  2  6  1  6  0  0  0
  3 31  1  6  0  0  0
  3  1  1  0  0  0  0
  3  4  1  0  0  0  0
  4 17  1  6  0  0  0
  4  2  1  0  0  0  0
  5  1  1  6  0  0  0
  5  2  1  0  0  0  0
  5  9  1  0  0  0  0
  7 15  1  0  0  0  0
  8 10  2  0  0  0  0
  9 12  1  6  0  0  0
  9 13  1  0  0  0  0
 10 14  1  0  0  0  0
 11  8  1  0  0  0  0
 12 16  1  0  0  0  0
 13  7  2  0  0  0  0
 13  8  1  0  0  0  0
 15 14  2  0  0  0  0
 16 11  1  0  0  0  0
 17 18  1  0  0  0  0
 19 18  1  0  0  0  0
 20  1  1  0  0  0  0
 21 22  1  0  0  0  0
 21 20  1  0  0  0  0
 23 25  1  0  0  0  0
 23 22  1  0  0  0  0
 24 26  1  0  0  0  0
 24 30  1  0  0  0  0
 25 29  1  0  0  0  0
 26 25  1  0  0  0  0
 29 28  1  0  0  0  0
 30 27  2  0  0  0  0
 30 28  1  0  0  0  0
 32 33  1  0  0  0  0
 32 31  1  0  0  0  0
 34 33  1  0  0  0  0
M  END
>  <MODEL>
3

>  <REMARK>
 VINA RESULT:      -6.5      1.145      1.683
  Name = 
  11 active torsions:
  status: ('A' for Active; 'I' for Inactive)
    1  A    between atoms: C_3  and  N_13
    2  A    between atoms: C_3  and  C_17
    3  A    between atoms: C_4  and  C_31
    4  A    between atoms: N_5  and  C_18
    5  A    between atoms: C_7  and  O_8
    6  A    between atoms: O_8  and  C_28
    7  A    between atoms: C_12  and  S_16
    8  A    between atoms: S_16  and  C_23
    9  A    between atoms: C_17  and  S_29
   10  A    between atoms: C_18  and  S_29
   11  A    between atoms: C_23  and  C_26
                            x       y       z     vdW  Elec       q    Type
                         _______ _______ _______ _____ _____    ______ ____

>  <TORSDO>
F 11

$$$$
=
 OpenBabel11062408073D

 34 37  0  0  1  0  0  0  0  0999 V2000
  161.4340  207.1710  151.1640 N   0  0  0  0  0  0  0  0  0  0  0  0
  162.2450  207.7370  148.9540 C   0  0  2  0  0  3  0  0  0  0  0  0
  161.6030  208.6190  151.0800 C   0  0  1  0  0  3  0  0  0  0  0  0
  161.7110  208.9870  149.6170 C   0  0  1  0  0  3  0  0  0  0  0  0
  161.7740  206.6070  149.8540 C   0  0  2  0  0  3  0  0  0  0  0  0
  163.6420  207.7410  148.9310 O   0  0  0  0  0  1  0  0  0  0  0  0
  160.8100  206.2570  146.7780 C   0  0  0  0  0  3  0  0  0  0  0  0
  161.2130  204.0150  147.6300 C   0  0  0  0  0  0  0  0  0  0  0  0
  160.5570  205.8780  149.2500 C   0  0  2  0  0  3  0  0  0  0  0  0
  161.5160  203.5900  146.3320 C   0  0  0  0  0  3  0  0  0  0  0  0
  161.1400  202.9800  148.7180 C   0  0  0  0  0  2  0  0  0  0  0  0
  160.0940  204.7330  150.1600 C   0  0  0  0  0  2  0  0  0  0  0  0
  160.8520  205.3650  147.8580 C   0  0  0  0  0  0  0  0  0  0  0  0
  161.4830  204.4920  145.2660 C   0  0  0  0  0  3  0  0  0  0  0  0
  161.1270  205.8240  145.4880 C   0  0  0  0  0  3  0  0  0  0  0  0
  161.1020  203.5910  150.1160 C   0  0  0  0  0  2  0  0  0  0  0  0
  162.5690  210.0780  149.4420 O   0  0  0  0  0  0  0  0  0  0  0  0
  161.7920  211.0450  148.8060 C   0  0  0  0  0  2  0  0  0  0  0  0
  162.8750  212.2460  147.9860 S   0  0  0  0  0  1  0  0  0  0  0  0
  162.4250  206.6790  152.1070 C   0  0  0  0  0  2  0  0  0  0  0  0
  161.5910  205.7890  153.4500 S   0  0  0  0  0  0  0  0  0  0  0  0
  161.1860  207.3350  154.3040 C   0  0  0  0  0  2  0  0  0  0  0  0
  160.6150  207.0180  155.6730 C   0  0  0  0  0  2  0  0  0  0  0  0
  161.9520  210.0960  157.2590 C   0  0  0  0  0  2  0  0  0  0  0  0
  160.5670  208.2260  156.4790 N   0  0  0  0  0  0  0  0  0  0  0  0
  161.8910  208.8420  156.3890 C   0  0  0  0  0  2  0  0  0  0  0  0
  160.9050  212.2550  157.1900 N   0  0  0  0  0  2  0  0  0  0  0  0
  159.4620  210.4100  156.6650 C   0  0  0  0  0  2  0  0  0  0  0  0
  159.6090  209.1300  155.8430 C   0  0  0  0  0  2  0  0  0  0  0  0
  160.8150  211.0100  156.9090 C   0  0  0  0  0  0  0  0  0  0  0  0
  160.4070  209.3080  151.7140 C   0  0  0  0  0  2  0  0  0  0  0  0
  160.9430  210.7740  152.6430 S   0  0  0  0  0  0  0  0  0  0  0  0
  159.2380  211.3660  152.8150 C   0  0  0  0  0  2  0  0  0  0  0  0
  159.2140  212.5670  153.7370 C   0  0  0  0  0  1  0  0  0  0  0  0
  1 20  1  0  0  0  0
  2  6  1  1  0  0  0
  2  4  1  0  0  0  0
  2  5  1  0  0  0  0
  3  1  1  0  0  0  0
  3 31  1  6  0  0  0
  4 17  1  1  0  0  0
  4  3  1  0  0  0  0
  5  1  1  1  0  0  0
  7 13  1  0  0  0  0
  8 13  2  0  0  0  0
  8 11  1  0  0  0  0
  9  5  1  0  0  0  0
  9 12  1  1  0  0  0
 10  8  1  0  0  0  0
 11 16  1  0  0  0  0
 13  9  1  0  0  0  0
 14 15  1  0  0  0  0
 14 10  2  0  0  0  0
 15  7  2  0  0  0  0
 16 12  1  0  0  0  0
 18 17  1  0  0  0  0
 19 18  1  0  0  0  0
 20 21  1  0  0  0  0
 21 22  1  0  0  0  0
 22 23  1  0  0  0  0
 23 25  1  0  0  0  0
 26 25  1  0  0  0  0
 26 24  1  0  0  0  0
 28 30  1  0  0  0  0
 29 25  1  0  0  0  0
 29 28  1  0  0  0  0
 30 27  2  0  0  0  0
 30 24  1  0  0  0  0
 31 32  1  0  0  0  0
 32 33  1  0  0  0  0
 33 34  1  0  0  0  0
M  END
>  <MODEL>
4

>  <REMARK>
 VINA RESULT:      -6.3      3.189      8.412
  Name = 
  11 active torsions:
  status: ('A' for Active; 'I' for Inactive)
    1  A    between atoms: C_3  and  N_13
    2  A    between atoms: C_3  and  C_17
    3  A    between atoms: C_4  and  C_31
    4  A    between atoms: N_5  and  C_18
    5  A    between atoms: C_7  and  O_8
    6  A    between atoms: O_8  and  C_28
    7  A    between atoms: C_12  and  S_16
    8  A    between atoms: S_16  and  C_23
    9  A    between atoms: C_17  and  S_29
   10  A    between atoms: C_18  and  S_29
   11  A    between atoms: C_23  and  C_26
                            x       y       z     vdW  Elec       q    Type
                         _______ _______ _______ _____ _____    ______ ____

>  <TORSDO>
F 11

$$$$
=
 OpenBabel11062408073D

 34 37  0  0  1  0  0  0  0  0999 V2000
  160.8260  207.4080  152.6710 N   0  0  0  0  0  0  0  0  0  0  0  0
  162.1130  207.3670  150.6220 C   0  0  2  0  0  3  0  0  0  0  0  0
  161.0920  208.7820  152.2540 C   0  0  1  0  0  3  0  0  0  0  0  0
  161.5240  208.7480  150.8050 C   0  0  1  0  0  3  0  0  0  0  0  0
  161.3990  206.5160  151.6580 C   0  0  2  0  0  3  0  0  0  0  0  0
  163.4820  207.3650  150.9010 O   0  0  0  0  0  1  0  0  0  0  0  0
  160.4200  206.2580  148.5790 C   0  0  0  0  0  3  0  0  0  0  0  0
  161.1920  204.0490  149.2400 C   0  0  0  0  0  0  0  0  0  0  0  0
  160.2960  205.6530  151.0150 C   0  0  2  0  0  3  0  0  0  0  0  0
  161.5230  203.7790  147.9090 C   0  0  0  0  0  3  0  0  0  0  0  0
  161.3110  202.9340  150.2430 C   0  0  0  0  0  2  0  0  0  0  0  0
  160.0430  204.3820  151.8360 C   0  0  0  0  0  2  0  0  0  0  0  0
  160.6300  205.3020  149.5830 C   0  0  0  0  0  0  0  0  0  0  0  0
  161.3200  204.7450  146.9200 C   0  0  0  0  0  3  0  0  0  0  0  0
  160.7660  205.9820  147.2540 C   0  0  0  0  0  3  0  0  0  0  0  0
  161.2160  203.4210  151.6850 C   0  0  0  0  0  2  0  0  0  0  0  0
  162.4610  209.7530  150.5440 O   0  0  0  0  0  0  0  0  0  0  0  0
  162.2830  210.0660  149.1960 C   0  0  0  0  0  2  0  0  0  0  0  0
  161.9380  211.8390  149.0300 S   0  0  0  0  0  1  0  0  0  0  0  0
  161.5670  207.1840  153.9020 C   0  0  0  0  0  2  0  0  0  0  0  0
  161.7760  208.7580  154.7780 S   0  0  0  0  0  0  0  0  0  0  0  0
  160.3380  208.4320  155.8320 C   0  0  0  0  0  2  0  0  0  0  0  0
  160.5110  209.1510  157.1550 C   0  0  0  0  0  2  0  0  0  0  0  0
  159.8350  212.8000  157.0940 C   0  0  0  0  0  2  0  0  0  0  0  0
  159.6930  210.3520  157.1750 N   0  0  0  0  0  0  0  0  0  0  0  0
  160.6070  211.4840  157.0250 C   0  0  0  0  0  2  0  0  0  0  0  0
  158.2120  213.8830  155.6960 N   0  0  0  0  0  2  0  0  0  0  0  0
  157.9040  211.5180  155.9640 C   0  0  0  0  0  2  0  0  0  0  0  0
  158.8370  210.3080  155.9880 C   0  0  0  0  0  2  0  0  0  0  0  0
  158.7070  212.7770  156.1050 C   0  0  0  0  0  0  0  0  0  0  0  0
  159.8310  209.6150  152.4110 C   0  0  0  0  0  2  0  0  0  0  0  0
  160.2570  211.3660  152.6350 S   0  0  0  0  0  0  0  0  0  0  0  0
  158.5370  211.8810  152.3780 C   0  0  0  0  0  2  0  0  0  0  0  0
  158.4950  213.3690  152.0980 C   0  0  0  0  0  1  0  0  0  0  0  0
  1 20  1  0  0  0  0
  2  4  1  0  0  0  0
  2  6  1  1  0  0  0
  2  5  1  0  0  0  0
  3 31  1  6  0  0  0
  3  1  1  0  0  0  0
  4 17  1  1  0  0  0
  4  3  1  0  0  0  0
  5  1  1  1  0  0  0
  7 13  1  0  0  0  0
  8 13  2  0  0  0  0
  8 11  1  0  0  0  0
  9  5  1  0  0  0  0
  9 12  1  1  0  0  0
 10  8  1  0  0  0  0
 11 16  1  0  0  0  0
 13  9  1  0  0  0  0
 14 15  1  0  0  0  0
 14 10  2  0  0  0  0
 15  7  2  0  0  0  0
 16 12  1  0  0  0  0
 18 17  1  0  0  0  0
 19 18  1  0  0  0  0
 20 21  1  0  0  0  0
 21 22  1  0  0  0  0
 22 23  1  0  0  0  0
 23 25  1  0  0  0  0
 26 24  1  0  0  0  0
 26 25  1  0  0  0  0
 27 30  2  0  0  0  0
 28 29  1  0  0  0  0
 28 30  1  0  0  0  0
 29 25  1  0  0  0  0
 30 24  1  0  0  0  0
 31 32  1  0  0  0  0
 33 32  1  0  0  0  0
 34 33  1  0  0  0  0
M  END
>  <MODEL>
5

>  <REMARK>
 VINA RESULT:      -5.0      3.616      7.911
  Name = 
  11 active torsions:
  status: ('A' for Active; 'I' for Inactive)
    1  A    between atoms: C_3  and  N_13
    2  A    between atoms: C_3  and  C_17
    3  A    between atoms: C_4  and  C_31
    4  A    between atoms: N_5  and  C_18
    5  A    between atoms: C_7  and  O_8
    6  A    between atoms: O_8  and  C_28
    7  A    between atoms: C_12  and  S_16
    8  A    between atoms: S_16  and  C_23
    9  A    between atoms: C_17  and  S_29
   10  A    between atoms: C_18  and  S_29
   11  A    between atoms: C_23  and  C_26
                            x       y       z     vdW  Elec       q    Type
                         _______ _______ _______ _____ _____    ______ ____

>  <TORSDO>
F 11

$$$$
=
 OpenBabel11062408073D

 34 37  0  0  1  0  0  0  0  0999 V2000
  158.5740  211.6670  154.3340 N   0  0  0  0  0  0  0  0  0  0  0  0
  156.4230  211.3880  155.4090 C   0  0  2  0  0  3  0  0  0  0  0  0
  157.6770  212.7230  153.8730 C   0  0  1  0  0  3  0  0  0  0  0  0
  156.5070  212.7840  154.8300 C   0  0  1  0  0  3  0  0  0  0  0  0
  157.8450  210.8610  155.3180 C   0  0  2  0  0  3  0  0  0  0  0  0
  155.5910  210.5750  154.6360 O   0  0  0  0  0  1  0  0  0  0  0  0
  159.7150  208.6870  156.8310 C   0  0  0  0  0  3  0  0  0  0  0  0
  161.0890  210.6670  156.5080 C   0  0  0  0  0  0  0  0  0  0  0  0
  158.5530  210.9120  156.6860 C   0  0  2  0  0  3  0  0  0  0  0  0
  162.2280  209.8570  156.4780 C   0  0  0  0  0  3  0  0  0  0  0  0
  161.2770  212.1590  156.4910 C   0  0  0  0  0  2  0  0  0  0  0  0
  158.8610  212.3590  157.0940 C   0  0  0  0  0  2  0  0  0  0  0  0
  159.8150  210.0790  156.6900 C   0  0  0  0  0  0  0  0  0  0  0  0
  162.1140  208.4700  156.6080 C   0  0  0  0  0  3  0  0  0  0  0  0
  160.8580  207.8870  156.7880 C   0  0  0  0  0  3  0  0  0  0  0  0
  159.9810  212.9180  156.2250 C   0  0  0  0  0  2  0  0  0  0  0  0
  155.3330  213.1400  154.1570 O   0  0  0  0  0  0  0  0  0  0  0  0
  155.0330  214.4220  154.6160 C   0  0  0  0  0  2  0  0  0  0  0  0
  154.4850  214.3300  156.3430 S   0  0  0  0  0  1  0  0  0  0  0  0
  158.8410  210.8060  153.1940 C   0  0  0  0  0  2  0  0  0  0  0  0
  160.6030  210.8870  152.7730 S   0  0  0  0  0  0  0  0  0  0  0  0
  160.7630  209.0830  152.8290 C   0  0  0  0  0  2  0  0  0  0  0  0
  161.5950  208.6150  151.6520 C   0  0  0  0  0  2  0  0  0  0  0  0
  160.7540  206.2000  148.9630 C   0  0  0  0  0  2  0  0  0  0  0  0
  161.0090  207.4160  151.0780 N   0  0  0  0  0  0  0  0  0  0  0  0
  161.3810  207.4030  149.6640 C   0  0  0  0  0  2  0  0  0  0  0  0
  161.0500  203.8210  149.0970 N   0  0  0  0  0  2  0  0  0  0  0  0
  161.0520  204.9650  151.2070 C   0  0  0  0  0  2  0  0  0  0  0  0
  161.6550  206.2710  151.7220 C   0  0  0  0  0  2  0  0  0  0  0  0
  161.0990  204.9440  149.7080 C   0  0  0  0  0  0  0  0  0  0  0  0
  158.4170  214.0490  153.8580 C   0  0  0  0  0  2  0  0  0  0  0  0
  158.9510  214.4530  152.1690 S   0  0  0  0  0  0  0  0  0  0  0  0
  157.2970  214.1300  151.5010 C   0  0  0  0  0  2  0  0  0  0  0  0
  157.4230  213.4110  150.1740 C   0  0  0  0  0  1  0  0  0  0  0  0
  2  6  1  6  0  0  0
  3 31  1  1  0  0  0
  3  1  1  0  0  0  0
  3  4  1  0  0  0  0
  4 17  1  6  0  0  0
  4  2  1  0  0  0  0
  5  1  1  6  0  0  0
  5  2  1  0  0  0  0
  5  9  1  0  0  0  0
  8 13  1  0  0  0  0
  9 13  1  0  0  0  0
  9 12  1  6  0  0  0
 10  8  2  0  0  0  0
 10 14  1  0  0  0  0
 11  8  1  0  0  0  0
 13  7  2  0  0  0  0
 14 15  2  0  0  0  0
 15  7  1  0  0  0  0
 16 11  1  0  0  0  0
 16 12  1  0  0  0  0
 17 18  1  0  0  0  0
 18 19  1  0  0  0  0
 20  1  1  0  0  0  0
 21 22  1  0  0  0  0
 21 20  1  0  0  0  0
 23 22  1  0  0  0  0
 24 26  1  0  0  0  0
 24 30  1  0  0  0  0
 25 23  1  0  0  0  0
 25 29  1  0  0  0  0
 26 25  1  0  0  0  0
 27 30  2  0  0  0  0
 28 29  1  0  0  0  0
 30 28  1  0  0  0  0
 32 31  1  0  0  0  0
 33 32  1  0  0  0  0
 34 33  1  0  0  0  0
M  END
>  <MODEL>
6

>  <REMARK>
 VINA RESULT:      -4.7      4.667      7.730
  Name = 
  11 active torsions:
  status: ('A' for Active; 'I' for Inactive)
    1  A    between atoms: C_3  and  N_13
    2  A    between atoms: C_3  and  C_17
    3  A    between atoms: C_4  and  C_31
    4  A    between atoms: N_5  and  C_18
    5  A    between atoms: C_7  and  O_8
    6  A    between atoms: O_8  and  C_28
    7  A    between atoms: C_12  and  S_16
    8  A    between atoms: S_16  and  C_23
    9  A    between atoms: C_17  and  S_29
   10  A    between atoms: C_18  and  S_29
   11  A    between atoms: C_23  and  C_26
                            x       y       z     vdW  Elec       q    Type
                         _______ _______ _______ _____ _____    ______ ____

>  <TORSDO>
F 11

$$$$
=
 OpenBabel11062408073D

 34 37  0  0  1  0  0  0  0  0999 V2000
  161.2000  209.0820  153.0100 N   0  0  0  0  0  0  0  0  0  0  0  0
  160.9750  207.0510  154.3070 C   0  0  2  0  0  3  0  0  0  0  0  0
  161.3900  209.4020  154.4210 C   0  0  1  0  0  3  0  0  0  0  0  0
  161.6490  208.1050  155.1570 C   0  0  1  0  0  3  0  0  0  0  0  0
  160.9930  207.6340  152.9040 C   0  0  2  0  0  3  0  0  0  0  0  0
  159.6470  206.8650  154.7000 O   0  0  0  0  0  1  0  0  0  0  0  0
  161.6150  204.5320  152.1990 C   0  0  0  0  0  3  0  0  0  0  0  0
  161.1800  205.6430  150.0800 C   0  0  0  0  0  0  0  0  0  0  0  0
  162.0990  206.9940  152.0430 C   0  0  2  0  0  3  0  0  0  0  0  0
  160.7220  204.4310  149.5530 C   0  0  0  0  0  3  0  0  0  0  0  0
  161.3070  206.8190  149.1520 C   0  0  0  0  0  2  0  0  0  0  0  0
  162.5900  207.9660  150.9630 C   0  0  0  0  0  2  0  0  0  0  0  0
  161.6360  205.6960  151.4190 C   0  0  0  0  0  0  0  0  0  0  0  0
  160.6950  203.2800  150.3440 C   0  0  0  0  0  3  0  0  0  0  0  0
  161.1440  203.3300  151.6660 C   0  0  0  0  0  3  0  0  0  0  0  0
  161.5220  208.1370  149.8900 C   0  0  0  0  0  2  0  0  0  0  0  0
  161.1150  208.1530  156.4490 O   0  0  0  0  0  0  0  0  0  0  0  0
  159.7900  208.5520  156.2730 C   0  0  0  0  0  2  0  0  0  0  0  0
  159.4850  210.0660  157.2240 S   0  0  0  0  0  1  0  0  0  0  0  0
  159.9630  209.7190  152.5890 C   0  0  0  0  0  2  0  0  0  0  0  0
  160.2420  211.4980  152.3710 S   0  0  0  0  0  0  0  0  0  0  0  0
  158.6870  211.9060  153.2080 C   0  0  0  0  0  2  0  0  0  0  0  0
  158.4030  213.3860  153.0480 C   0  0  0  0  0  2  0  0  0  0  0  0
  155.2560  214.0670  154.8940 C   0  0  0  0  0  2  0  0  0  0  0  0
  157.5860  213.8550  154.1540 N   0  0  0  0  0  0  0  0  0  0  0  0
  156.1980  213.5530  153.8070 C   0  0  0  0  0  2  0  0  0  0  0  0
  154.8440  213.4860  157.1860 N   0  0  0  0  0  2  0  0  0  0  0  0
  157.1570  213.5160  156.5480 C   0  0  0  0  0  2  0  0  0  0  0  0
  157.9410  213.0470  155.3220 C   0  0  0  0  0  2  0  0  0  0  0  0
  155.6910  213.5400  156.2300 C   0  0  0  0  0  0  0  0  0  0  0  0
  162.5710  210.3440  154.5760 C   0  0  0  0  0  2  0  0  0  0  0  0
  162.6330  211.0050  156.2670 S   0  0  0  0  0  0  0  0  0  0  0  0
  164.4420  211.1210  156.2220 C   0  0  0  0  0  2  0  0  0  0  0  0
  164.9060  212.1210  157.2610 C   0  0  0  0  0  1  0  0  0  0  0  0
  1  3  1  0  0  0  0
  2  6  1  1  0  0  0
  2  4  1  0  0  0  0
  3 31  1  6  0  0  0
  3  4  1  0  0  0  0
  4 17  1  1  0  0  0
  5  1  1  1  0  0  0
  5  2  1  0  0  0  0
  8 13  1  0  0  0  0
  9 12  1  6  0  0  0
  9  5  1  0  0  0  0
 10  8  2  0  0  0  0
 10 14  1  0  0  0  0
 11 16  1  0  0  0  0
 11  8  1  0  0  0  0
 13  9  1  0  0  0  0
 13  7  2  0  0  0  0
 14 15  2  0  0  0  0
 15  7  1  0  0  0  0
 16 12  1  0  0  0  0
 18 17  1  0  0  0  0
 18 19  1  0  0  0  0
 20  1  1  0  0  0  0
 21 20  1  0  0  0  0
 21 22  1  0  0  0  0
 23 22  1  0  0  0  0
 23 25  1  0  0  0  0
 24 30  1  0  0  0  0
 25 29  1  0  0  0  0
 26 25  1  0  0  0  0
 26 24  1  0  0  0  0
 29 28  1  0  0  0  0
 30 28  1  0  0  0  0
 30 27  2  0  0  0  0
 31 32  1  0  0  0  0
 33 32  1  0  0  0  0
 33 34  1  0  0  0  0
M  END
>  <MODEL>
7

>  <REMARK>
 VINA RESULT:      -4.1      4.389      7.683
  Name = 
  11 active torsions:
  status: ('A' for Active; 'I' for Inactive)
    1  A    between atoms: C_3  and  N_13
    2  A    between atoms: C_3  and  C_17
    3  A    between atoms: C_4  and  C_31
    4  A    between atoms: N_5  and  C_18
    5  A    between atoms: C_7  and  O_8
    6  A    between atoms: O_8  and  C_28
    7  A    between atoms: C_12  and  S_16
    8  A    between atoms: S_16  and  C_23
    9  A    between atoms: C_17  and  S_29
   10  A    between atoms: C_18  and  S_29
   11  A    between atoms: C_23  and  C_26
                            x       y       z     vdW  Elec       q    Type
                         _______ _______ _______ _____ _____    ______ ____

>  <TORSDO>
F 11

$$$$
=
 OpenBabel11062408073D

 34 37  0  0  1  0  0  0  0  0999 V2000
  159.2370  209.6760  155.3620 N   0  0  0  0  0  0  0  0  0  0  0  0
  160.5740  211.6230  154.8340 C   0  0  2  0  0  3  0  0  0  0  0  0
  158.9180  210.7380  156.3120 C   0  0  1  0  0  3  0  0  0  0  0  0
  159.4360  212.0390  155.7400 C   0  0  1  0  0  3  0  0  0  0  0  0
  160.2160  210.2090  154.4100 C   0  0  2  0  0  3  0  0  0  0  0  0
  161.7840  211.5910  155.5320 O   0  0  0  0  0  1  0  0  0  0  0  0
  158.4070  212.3580  152.7900 C   0  0  0  0  0  3  0  0  0  0  0  0
  160.4730  212.1150  151.5320 C   0  0  0  0  0  0  0  0  0  0  0  0
  159.6460  210.1780  152.9780 C   0  0  2  0  0  3  0  0  0  0  0  0
  160.3240  213.4220  151.0580 C   0  0  0  0  0  3  0  0  0  0  0  0
  161.5930  211.2800  150.9750 C   0  0  0  0  0  2  0  0  0  0  0  0
  160.5110  209.3060  152.0590 C   0  0  0  0  0  2  0  0  0  0  0  0
  159.5020  211.5720  152.4070 C   0  0  0  0  0  0  0  0  0  0  0  0
  159.2340  214.1990  151.4570 C   0  0  0  0  0  3  0  0  0  0  0  0
  158.2740  213.6660  152.3200 C   0  0  0  0  0  3  0  0  0  0  0  0
  161.8350  210.0030  151.7740 C   0  0  0  0  0  2  0  0  0  0  0  0
  159.8680  212.8930  156.7610 O   0  0  0  0  0  0  0  0  0  0  0  0
  159.5500  214.1750  156.3120 C   0  0  0  0  0  2  0  0  0  0  0  0
  157.7650  214.4460  156.4800 S   0  0  0  0  0  1  0  0  0  0  0  0
  159.9020  208.6210  156.1080 C   0  0  0  0  0  2  0  0  0  0  0  0
  161.4400  208.1600  155.2640 S   0  0  0  0  0  0  0  0  0  0  0  0
  160.6430  206.7490  154.4530 C   0  0  0  0  0  2  0  0  0  0  0  0
  161.6640  206.0130  153.6070 C   0  0  0  0  0  2  0  0  0  0  0  0
  161.3020  205.8840  149.9160 C   0  0  0  0  0  2  0  0  0  0  0  0
  161.0660  205.6180  152.3440 N   0  0  0  0  0  0  0  0  0  0  0  0
  161.8940  206.2010  151.2880 C   0  0  0  0  0  2  0  0  0  0  0  0
  161.0040  203.8830  148.6240 N   0  0  0  0  0  2  0  0  0  0  0  0
  160.5230  203.6610  150.9650 C   0  0  0  0  0  2  0  0  0  0  0  0
  161.1810  204.1620  152.2500 C   0  0  0  0  0  2  0  0  0  0  0  0
  161.0820  204.4050  149.7890 C   0  0  0  0  0  0  0  0  0  0  0  0
  157.4140  210.8090  156.5110 C   0  0  0  0  0  2  0  0  0  0  0  0
  156.5940  211.2670  154.9560 S   0  0  0  0  0  0  0  0  0  0  0  0
  155.2320  210.1090  155.2600 C   0  0  0  0  0  2  0  0  0  0  0  0
  154.5720  210.4450  156.5810 C   0  0  0  0  0  1  0  0  0  0  0  0
  1 20  1  0  0  0  0
  1  3  1  0  0  0  0
  2  6  1  1  0  0  0
  2  4  1  0  0  0  0
  3 31  1  6  0  0  0
  4  3  1  0  0  0  0
  4 17  1  1  0  0  0
  5  2  1  0  0  0  0
  5  1  1  1  0  0  0
  8 13  2  0  0  0  0
  9 12  1  6  0  0  0
  9  5  1  0  0  0  0
 10 14  2  0  0  0  0
 10  8  1  0  0  0  0
 11  8  1  0  0  0  0
 11 16  1  0  0  0  0
 13  7  1  0  0  0  0
 13  9  1  0  0  0  0
 14 15  1  0  0  0  0
 15  7  2  0  0  0  0
 16 12  1  0  0  0  0
 18 19  1  0  0  0  0
 18 17  1  0  0  0  0
 21 20  1  0  0  0  0
 22 21  1  0  0  0  0
 23 22  1  0  0  0  0
 24 26  1  0  0  0  0
 25 23  1  0  0  0  0
 26 25  1  0  0  0  0
 27 30  2  0  0  0  0
 28 29  1  0  0  0  0
 29 25  1  0  0  0  0
 30 24  1  0  0  0  0
 30 28  1  0  0  0  0
 32 33  1  0  0  0  0
 32 31  1  0  0  0  0
 33 34  1  0  0  0  0
M  END
>  <MODEL>
8

>  <REMARK>
 VINA RESULT:      -3.9      4.499      8.311
  Name = 
  11 active torsions:
  status: ('A' for Active; 'I' for Inactive)
    1  A    between atoms: C_3  and  N_13
    2  A    between atoms: C_3  and  C_17
    3  A    between atoms: C_4  and  C_31
    4  A    between atoms: N_5  and  C_18
    5  A    between atoms: C_7  and  O_8
    6  A    between atoms: O_8  and  C_28
    7  A    between atoms: C_12  and  S_16
    8  A    between atoms: S_16  and  C_23
    9  A    between atoms: C_17  and  S_29
   10  A    between atoms: C_18  and  S_29
   11  A    between atoms: C_23  and  C_26
                            x       y       z     vdW  Elec       q    Type
                         _______ _______ _______ _____ _____    ______ ____

>  <TORSDO>
F 11

$$$$
=
 OpenBabel11062408073D

 34 37  0  0  1  0  0  0  0  0999 V2000
  161.0090  210.4000  151.9400 N   0  0  0  0  0  0  0  0  0  0  0  0
  159.2650  212.0130  152.4040 C   0  0  2  0  0  3  0  0  0  0  0  0
  160.7740  211.1970  150.7400 C   0  0  1  0  0  3  0  0  0  0  0  0
  160.0020  212.4320  151.1510 C   0  0  1  0  0  3  0  0  0  0  0  0
  160.1300  210.9130  152.9960 C   0  0  2  0  0  3  0  0  0  0  0  0
  158.0110  211.4820  152.0940 O   0  0  0  0  0  1  0  0  0  0  0  0
  159.7310  213.4980  154.9120 C   0  0  0  0  0  3  0  0  0  0  0  0
  159.6280  211.5480  156.3610 C   0  0  0  0  0  0  0  0  0  0  0  0
  160.9620  211.4300  154.1860 C   0  0  2  0  0  3  0  0  0  0  0  0
  158.8030  212.2580  157.2380 C   0  0  0  0  0  3  0  0  0  0  0  0
  160.1020  210.1830  156.7790 C   0  0  0  0  0  2  0  0  0  0  0  0
  161.7150  210.2820  154.8720 C   0  0  0  0  0  2  0  0  0  0  0  0
  160.1030  212.1740  155.1830 C   0  0  0  0  0  0  0  0  0  0  0  0
  158.4290  213.5730  156.9500 C   0  0  0  0  0  3  0  0  0  0  0  0
  158.8960  214.1930  155.7890 C   0  0  0  0  0  3  0  0  0  0  0  0
  160.7350  209.3980  155.6330 C   0  0  0  0  0  2  0  0  0  0  0  0
  159.1230  212.8270  150.1370 O   0  0  0  0  0  0  0  0  0  0  0  0
  158.6430  214.0710  150.5460 C   0  0  0  0  0  2  0  0  0  0  0  0
  156.8930  214.2200  150.0950 S   0  0  0  0  0  1  0  0  0  0  0  0
  160.5720  209.0450  151.6460 C   0  0  0  0  0  2  0  0  0  0  0  0
  162.0020  207.9300  151.6670 S   0  0  0  0  0  0  0  0  0  0  0  0
  162.1610  208.0010  149.8630 C   0  0  0  0  0  2  0  0  0  0  0  0
  161.0430  207.1990  149.2270 C   0  0  0  0  0  2  0  0  0  0  0  0
  160.8670  203.5880  150.0650 C   0  0  0  0  0  2  0  0  0  0  0  0
  161.4200  205.7980  149.1540 N   0  0  0  0  0  0  0  0  0  0  0  0
  160.5050  205.0720  150.0330 C   0  0  0  0  0  2  0  0  0  0  0  0
  160.8040  201.7990  148.4660 N   0  0  0  0  0  2  0  0  0  0  0  0
  161.5900  203.8980  147.6090 C   0  0  0  0  0  2  0  0  0  0  0  0
  161.1670  205.3570  147.7820 C   0  0  0  0  0  2  0  0  0  0  0  0
  160.9370  203.0560  148.6640 C   0  0  0  0  0  0  0  0  0  0  0  0
  162.1050  211.5880  150.1200 C   0  0  0  0  0  2  0  0  0  0  0  0
  162.0420  211.3860  148.3160 S   0  0  0  0  0  0  0  0  0  0  0  0
  162.5190  213.1140  148.0430 C   0  0  0  0  0  2  0  0  0  0  0  0
  161.2890  213.9270  147.6970 C   0  0  0  0  0  1  0  0  0  0  0  0
  2  6  1  6  0  0  0
  2  5  1  0  0  0  0
  3 31  1  1  0  0  0
  3  4  1  0  0  0  0
  3  1  1  0  0  0  0
  4 17  1  6  0  0  0
  4  2  1  0  0  0  0
  5  1  1  6  0  0  0
  5  9  1  0  0  0  0
  7 13  2  0  0  0  0
  7 15  1  0  0  0  0
  8 11  1  0  0  0  0
  8 10  2  0  0  0  0
  9 12  1  1  0  0  0
  9 13  1  0  0  0  0
 12 16  1  0  0  0  0
 13  8  1  0  0  0  0
 14 10  1  0  0  0  0
 15 14  2  0  0  0  0
 16 11  1  0  0  0  0
 17 18  1  0  0  0  0
 19 18  1  0  0  0  0
 20 21  1  0  0  0  0
 20  1  1  0  0  0  0
 22 21  1  0  0  0  0
 23 22  1  0  0  0  0
 25 23  1  0  0  0  0
 25 26  1  0  0  0  0
 26 24  1  0  0  0  0
 27 30  2  0  0  0  0
 28 29  1  0  0  0  0
 28 30  1  0  0  0  0
 29 25  1  0  0  0  0
 30 24  1  0  0  0  0
 32 31  1  0  0  0  0
 33 32  1  0  0  0  0
 34 33  1  0  0  0  0
M  END
>  <MODEL>
9

>  <REMARK>
 VINA RESULT:      -3.9      3.385      7.072
  Name = 
  11 active torsions:
  status: ('A' for Active; 'I' for Inactive)
    1  A    between atoms: C_3  and  N_13
    2  A    between atoms: C_3  and  C_17
    3  A    between atoms: C_4  and  C_31
    4  A    between atoms: N_5  and  C_18
    5  A    between atoms: C_7  and  O_8
    6  A    between atoms: O_8  and  C_28
    7  A    between atoms: C_12  and  S_16
    8  A    between atoms: S_16  and  C_23
    9  A    between atoms: C_17  and  S_29
   10  A    between atoms: C_18  and  S_29
   11  A    between atoms: C_23  and  C_26
                            x       y       z     vdW  Elec       q    Type
                         _______ _______ _______ _____ _____    ______ ____

>  <TORSDO>
F 11

$$$$
