=
 OpenBabel11062408443D

 55 61  0  0  1  0  0  0  0  0999 V2000
  157.4410  213.3120  147.8140 C   0  0  0  0  0  2  0  0  0  0  0  0
  161.0460  212.3920  150.8480 C   0  0  0  0  0  2  0  0  0  0  0  0
  162.6710  212.9840  148.3990 O   0  0  0  0  0  0  0  0  0  0  0  0
  163.0740  213.0710  145.4090 C   0  0  0  0  0  3  0  0  0  0  0  0
  163.9740  213.6540  144.5640 C   0  0  0  0  0  3  0  0  0  0  0  0
  161.2940  214.1380  144.1780 C   0  0  0  0  0  0  0  0  0  0  0  0
  162.2000  214.4490  143.1580 C   0  0  0  0  0  3  0  0  0  0  0  0
  161.1360  211.7240  147.0230 C   0  0  0  0  0  2  0  0  0  0  0  0
  163.5530  214.2480  143.3810 C   0  0  0  0  0  3  0  0  0  0  0  0
  155.5510  213.7090  149.3710 C   0  0  0  0  0  3  0  0  0  0  0  0
  161.7060  213.2840  145.2320 C   0  0  0  0  0  0  0  0  0  0  0  0
  157.1390  214.0640  151.5850 C   0  0  0  0  0  0  0  0  0  0  0  0
  158.8430  213.8210  147.5030 C   0  0  0  0  0  2  0  0  0  0  0  0
  157.7400  213.7850  150.3400 C   0  0  0  0  0  3  0  0  0  0  0  0
  158.9500  214.0490  144.9400 C   0  0  2  0  0  3  0  0  0  0  0  0
  159.9120  211.9130  151.8070 C   0  0  0  0  0  2  0  0  0  0  0  0
  159.9660  214.1960  143.8920 O   0  0  0  0  0  0  0  0  0  0  0  0
  160.9470  211.8110  149.5320 N   0  0  0  0  0  2  0  0  0  0  0  0
  161.6440  212.2610  148.3600 C   0  0  0  0  0  0  0  0  0  0  0  0
  154.9610  213.9070  150.6220 C   0  0  0  0  0  3  0  0  0  0  0  0
  159.8040  212.6880  153.0540 C   0  0  1  0  0  3  0  0  0  0  0  0
  156.9250  213.5850  149.2280 C   0  0  0  0  0  0  0  0  0  0  0  0
  160.7430  212.8060  146.1610 N   0  0  0  0  0  0  0  0  0  0  0  0
  159.3130  213.1920  146.1600 C   0  0  1  0  0  3  0  0  0  0  0  0
  158.3370  212.9920  153.3490 C   0  0  0  0  0  2  0  0  0  0  0  0
  157.9710  214.3260  152.7590 C   0  0  0  0  0  2  0  0  0  0  0  0
  155.7690  214.2150  151.7040 C   0  0  0  0  0  3  0  0  0  0  0  0
  156.5650  214.0620  145.5150 C   0  0  0  0  0  3  0  0  0  0  0  0
  154.8340  214.1480  143.8200 C   0  0  0  0  0  0  0  0  0  0  0  0
  157.1790  214.3870  143.1600 C   0  0  0  0  0  3  0  0  0  0  0  0
  155.8520  214.2860  142.8190 C   0  0  0  0  0  3  0  0  0  0  0  0
  155.2500  214.0220  145.1760 C   0  0  0  0  0  3  0  0  0  0  0  0
  157.5620  214.1980  144.5180 C   0  0  0  0  0  0  0  0  0  0  0  0
  153.4660  214.3520  143.4870 C   0  0  0  0  0  0  0  0  0  0  0  0
  153.0220  214.4500  142.1450 O   0  0  0  0  0  0  0  0  0  0  0  0
  152.5730  214.4530  144.4390 O   0  0  0  0  0  1  0  0  0  0  0  0
  159.9050  212.2730  155.2630 O   0  0  0  0  0  0  0  0  0  0  0  0
  160.4570  212.1210  154.1750 C   0  0  0  0  0  0  0  0  0  0  0  0
  161.9860  211.2090  153.8720 S   0  0  0  0  0  0  0  0  0  0  0  0
  161.1220  209.6570  153.3670 C   0  0  2  0  0  3  0  0  0  0  0  0
  160.0050  209.8550  152.4860 F   0  0  0  0  0  0  0  0  0  0  0  0
  161.1220  208.5190  154.4160 C   0  0  2  0  0  3  0  0  0  0  0  0
  162.2820  208.5760  155.2030 O   0  0  0  0  0  1  0  0  0  0  0  0
  161.2430  207.1340  153.5520 C   0  0  2  0  0  3  0  0  0  0  0  0
  160.9000  205.8660  151.5380 O   0  0  0  0  0  0  0  0  0  0  0  0
  163.1900  205.7520  151.1260 O   0  0  0  0  0  1  0  0  0  0  0  0
  162.0370  206.5610  151.0430 C   0  0  1  0  0  0  0  0  0  0  0  0
  161.7450  207.9850  150.7960 C   0  0  1  0  0  0  0  0  0  0  0  0
  161.0050  207.1840  151.9660 C   0  0  2  0  0  0  0  0  0  0  0  0
  162.8620  208.6810  151.1620 O   0  0  0  0  0  1  0  0  0  0  0  0
  161.4480  207.6360  149.4180 C   0  0  0  0  0  2  0  0  0  0  0  0
  162.5620  207.7410  148.6160 O   0  0  0  0  0  1  0  0  0  0  0  0
  160.6300  205.9970  154.3040 C   0  0  0  0  0  0  0  0  0  0  0  0
  159.9000  206.2640  155.3840 C   0  0  0  0  0  2  0  0  0  0  0  0
  160.9440  204.7070  154.0510 O   0  0  0  0  0  1  0  0  0  0  0  0
  1 22  1  0  0  0  0
  2 16  1  0  0  0  0
  5  4  2  0  0  0  0
  6 11  2  0  0  0  0
  7  9  2  0  0  0  0
  7  6  1  0  0  0  0
  8 19  1  0  0  0  0
  9  5  1  0  0  0  0
 10 20  1  0  0  0  0
 11  4  1  0  0  0  0
 11 23  1  0  0  0  0
 12 27  1  0  0  0  0
 12 26  1  0  0  0  0
 13  1  1  0  0  0  0
 14 12  2  0  0  0  0
 15 33  1  6  0  0  0
 15 24  1  0  0  0  0
 16 21  1  0  0  0  0
 17  6  1  0  0  0  0
 17 15  1  0  0  0  0
 18  2  1  0  0  0  0
 19  3  2  0  0  0  0
 19 18  1  0  0  0  0
 20 27  2  0  0  0  0
 21 25  1  0  0  0  0
 21 38  1  1  0  0  0
 22 10  2  0  0  0  0
 22 14  1  0  0  0  0
 23  8  1  0  0  0  0
 24 23  1  0  0  0  0
 24 13  1  1  0  0  0
 26 25  1  0  0  0  0
 29 32  2  0  0  0  0
 30 33  1  0  0  0  0
 31 30  2  0  0  0  0
 31 29  1  0  0  0  0
 32 28  1  0  0  0  0
 33 28  2  0  0  0  0
 34 29  1  0  0  0  0
 34 36  1  0  0  0  0
 35 34  2  0  0  0  0
 38 37  2  0  0  0  0
 39 38  1  0  0  0  0
 40 41  1  1  0  0  0
 40 39  1  0  0  0  0
 40 42  1  0  0  0  0
 42 43  1  1  0  0  0
 44 53  1  1  0  0  0
 44 42  1  0  0  0  0
 45 49  1  0  0  0  0
 47 46  1  1  0  0  0
 47 45  1  0  0  0  0
 47 49  1  0  0  0  0
 48 47  1  0  0  0  0
 48 50  1  1  0  0  0
 48 49  1  0  0  0  0
 49 44  1  1  0  0  0
 51 48  1  0  0  0  0
 52 51  1  0  0  0  0
 53 54  2  0  0  0  0
 55 53  1  0  0  0  0
M  END
>  <MODEL>
1

>  <REMARK>
 VINA RESULT:      -1.4      0.000      0.000
  Name = 
  10 active torsions:
  status: ('A' for Active; 'I' for Inactive)
    1  A    between atoms: C_1  and  C_53
    2  A    between atoms: C_6  and  C_20
    3  A    between atoms: C_6  and  C_53
    4  A    between atoms: C_8  and  S_22
    5  A    between atoms: C_8  and  C_43
    6  A    between atoms: C_10  and  C_32
    7  A    between atoms: C_11  and  C_29
    8  A    between atoms: C_20  and  S_22
    9  A    between atoms: C_33  and  C_52
   10  A    between atoms: C_38  and  C_53
                            x       y       z     vdW  Elec       q    Type
                         _______ _______ _______ _____ _____    ______ ____

>  <TORSDO>
F 10

$$$$
=
 OpenBabel11062408443D

 55 61  0  0  1  0  0  0  0  0999 V2000
  161.2140  207.2190  148.2440 C   0  0  0  0  0  2  0  0  0  0  0  0
  160.8300  206.7940  153.0110 C   0  0  0  0  0  2  0  0  0  0  0  0
  161.0790  203.8850  152.3270 O   0  0  0  0  0  0  0  0  0  0  0  0
  160.7230  201.5290  150.4730 C   0  0  0  0  0  3  0  0  0  0  0  0
  161.1890  200.2470  150.4270 C   0  0  0  0  0  3  0  0  0  0  0  0
  161.5590  201.8680  148.2350 C   0  0  0  0  0  0  0  0  0  0  0  0
  161.7300  200.4860  148.1020 C   0  0  0  0  0  3  0  0  0  0  0  0
  159.5970  204.1570  150.4390 C   0  0  0  0  0  2  0  0  0  0  0  0
  161.5910  199.6830  149.2230 C   0  0  0  0  0  3  0  0  0  0  0  0
  161.8050  209.6150  147.9900 C   0  0  0  0  0  3  0  0  0  0  0  0
  160.8810  202.3740  149.3730 C   0  0  0  0  0  0  0  0  0  0  0  0
  162.5190  209.9620  150.6210 C   0  0  0  0  0  0  0  0  0  0  0  0
  161.6980  205.9490  148.9340 C   0  0  0  0  0  2  0  0  0  0  0  0
  162.0670  208.6990  150.1880 C   0  0  0  0  0  3  0  0  0  0  0  0
  161.5400  204.0880  147.1600 C   0  0  2  0  0  3  0  0  0  0  0  0
  160.4790  208.3130  152.9630 C   0  0  0  0  0  2  0  0  0  0  0  0
  161.5480  202.6220  147.1050 O   0  0  0  0  0  0  0  0  0  0  0  0
  160.0570  206.0120  152.0780 N   0  0  0  0  0  2  0  0  0  0  0  0
  160.3390  204.6620  151.6750 C   0  0  0  0  0  0  0  0  0  0  0  0
  162.1770  210.8820  148.4450 C   0  0  0  0  0  3  0  0  0  0  0  0
  161.4300  209.1780  153.6800 C   0  0  1  0  0  3  0  0  0  0  0  0
  161.6870  208.5380  148.8570 C   0  0  0  0  0  0  0  0  0  0  0  0
  160.5300  203.7500  149.4230 N   0  0  0  0  0  0  0  0  0  0  0  0
  160.8830  204.7430  148.3830 C   0  0  1  0  0  3  0  0  0  0  0  0
  161.7470  210.4100  152.8350 C   0  0  0  0  0  2  0  0  0  0  0  0
  162.9700  210.1470  151.9990 C   0  0  0  0  0  2  0  0  0  0  0  0
  162.6600  211.0170  149.7360 C   0  0  0  0  0  3  0  0  0  0  0  0
  160.5580  204.5210  144.9550 C   0  0  0  0  0  3  0  0  0  0  0  0
  161.7240  205.8020  143.2580 C   0  0  0  0  0  0  0  0  0  0  0  0
  162.6770  205.6330  145.5060 C   0  0  0  0  0  3  0  0  0  0  0  0
  162.7700  206.0620  144.2050 C   0  0  0  0  0  3  0  0  0  0  0  0
  160.6280  205.0000  143.6850 C   0  0  0  0  0  3  0  0  0  0  0  0
  161.5970  204.7840  145.8810 C   0  0  0  0  0  0  0  0  0  0  0  0
  161.6840  206.5030  142.0200 C   0  0  0  0  0  0  0  0  0  0  0  0
  162.1140  205.9150  140.8050 O   0  0  0  0  0  0  0  0  0  0  0  0
  161.2360  207.7330  141.9850 O   0  0  0  0  0  1  0  0  0  0  0  0
  160.2530  208.7810  155.5550 O   0  0  0  0  0  0  0  0  0  0  0  0
  161.0510  209.5310  154.9970 C   0  0  0  0  0  0  0  0  0  0  0  0
  161.8140  211.0010  155.7160 S   0  0  0  0  0  0  0  0  0  0  0  0
  160.2270  211.6640  156.3890 C   0  0  2  0  0  3  0  0  0  0  0  0
  159.1710  210.6960  156.4920 F   0  0  0  0  0  0  0  0  0  0  0  0
  159.9250  213.1450  156.0530 C   0  0  2  0  0  3  0  0  0  0  0  0
  159.5020  213.8330  157.2010 O   0  0  0  0  0  1  0  0  0  0  0  0
  158.6250  213.1060  155.0590 C   0  0  2  0  0  3  0  0  0  0  0  0
  157.0610  211.5810  154.0550 O   0  0  0  0  0  0  0  0  0  0  0  0
  155.3870  213.2010  154.0160 O   0  0  0  0  0  1  0  0  0  0  0  0
  156.0760  212.2670  154.8180 C   0  0  1  0  0  0  0  0  0  0  0  0
  156.2020  211.9810  156.2590 C   0  0  1  0  0  0  0  0  0  0  0  0
  157.4890  212.0000  155.3090 C   0  0  2  0  0  0  0  0  0  0  0  0
  155.9250  213.1480  156.9130 O   0  0  0  0  0  1  0  0  0  0  0  0
  155.2240  210.9220  156.0850 C   0  0  0  0  0  2  0  0  0  0  0  0
  154.5670  210.6400  157.2600 O   0  0  0  0  0  1  0  0  0  0  0  0
  159.0430  213.3550  153.6460 C   0  0  0  0  0  0  0  0  0  0  0  0
  158.4480  214.3330  152.9670 C   0  0  0  0  0  2  0  0  0  0  0  0
  159.8520  212.5110  152.9680 O   0  0  0  0  0  1  0  0  0  0  0  0
  1 22  1  0  0  0  0
  1 13  1  0  0  0  0
  5  4  1  0  0  0  0
  6 11  1  0  0  0  0
  7  6  2  0  0  0  0
  7  9  1  0  0  0  0
  8 19  1  0  0  0  0
  9  5  2  0  0  0  0
 10 20  2  0  0  0  0
 10 22  1  0  0  0  0
 11 23  1  0  0  0  0
 11  4  2  0  0  0  0
 12 26  1  0  0  0  0
 14 12  1  0  0  0  0
 15 33  1  6  0  0  0
 15 24  1  0  0  0  0
 16  2  1  0  0  0  0
 16 21  1  0  0  0  0
 17 15  1  0  0  0  0
 17  6  1  0  0  0  0
 18  2  1  0  0  0  0
 19 18  1  0  0  0  0
 19  3  2  0  0  0  0
 20 27  1  0  0  0  0
 21 38  1  1  0  0  0
 22 14  2  0  0  0  0
 23  8  1  0  0  0  0
 24 13  1  1  0  0  0
 24 23  1  0  0  0  0
 25 21  1  0  0  0  0
 26 25  1  0  0  0  0
 27 12  2  0  0  0  0
 28 33  1  0  0  0  0
 29 32  1  0  0  0  0
 29 31  2  0  0  0  0
 30 33  2  0  0  0  0
 31 30  1  0  0  0  0
 32 28  2  0  0  0  0
 34 29  1  0  0  0  0
 35 34  2  0  0  0  0
 36 34  1  0  0  0  0
 38 37  2  0  0  0  0
 38 39  1  0  0  0  0
 39 40  1  0  0  0  0
 40 41  1  6  0  0  0
 42 40  1  0  0  0  0
 42 43  1  1  0  0  0
 44 53  1  6  0  0  0
 44 42  1  0  0  0  0
 45 47  1  0  0  0  0
 45 49  1  0  0  0  0
 47 46  1  6  0  0  0
 47 49  1  0  0  0  0
 47 48  1  0  0  0  0
 48 50  1  1  0  0  0
 49 44  1  1  0  0  0
 49 48  1  0  0  0  0
 51 48  1  0  0  0  0
 51 52  1  0  0  0  0
 54 53  2  0  0  0  0
 55 53  1  0  0  0  0
M  END
>  <MODEL>
2

>  <REMARK>
 VINA RESULT:      -1.4      5.075      9.167
  Name = 
  10 active torsions:
  status: ('A' for Active; 'I' for Inactive)
    1  A    between atoms: C_1  and  C_53
    2  A    between atoms: C_6  and  C_20
    3  A    between atoms: C_6  and  C_53
    4  A    between atoms: C_8  and  S_22
    5  A    between atoms: C_8  and  C_43
    6  A    between atoms: C_10  and  C_32
    7  A    between atoms: C_11  and  C_29
    8  A    between atoms: C_20  and  S_22
    9  A    between atoms: C_33  and  C_52
   10  A    between atoms: C_38  and  C_53
                            x       y       z     vdW  Elec       q    Type
                         _______ _______ _______ _____ _____    ______ ____

>  <TORSDO>
F 10

$$$$
=
 OpenBabel11062408443D

 55 61  0  0  1  0  0  0  0  0999 V2000
  161.2820  207.2840  148.1960 C   0  0  0  0  0  2  0  0  0  0  0  0
  160.8610  206.9800  152.9690 C   0  0  0  0  0  2  0  0  0  0  0  0
  161.0870  204.0530  152.3590 O   0  0  0  0  0  0  0  0  0  0  0  0
  160.7210  201.6560  150.5610 C   0  0  0  0  0  3  0  0  0  0  0  0
  161.1750  200.3690  150.5490 C   0  0  0  0  0  3  0  0  0  0  0  0
  161.5750  201.9320  148.3210 C   0  0  0  0  0  0  0  0  0  0  0  0
  161.7340  200.5450  148.2230 C   0  0  0  0  0  3  0  0  0  0  0  0
  159.6200  204.2930  150.4530 C   0  0  0  0  0  2  0  0  0  0  0  0
  161.5790  199.7710  149.3620 C   0  0  0  0  0  3  0  0  0  0  0  0
  161.8970  209.6670  147.8870 C   0  0  0  0  0  3  0  0  0  0  0  0
  160.8940  202.4720  149.4410 C   0  0  0  0  0  0  0  0  0  0  0  0
  162.5960  210.0720  150.5130 C   0  0  0  0  0  0  0  0  0  0  0  0
  161.7480  206.0270  148.9200 C   0  0  0  0  0  2  0  0  0  0  0  0
  162.1350  208.8030  150.1080 C   0  0  0  0  0  3  0  0  0  0  0  0
  161.5850  204.1240  147.1920 C   0  0  2  0  0  3  0  0  0  0  0  0
  160.5250  208.5010  152.8810 C   0  0  0  0  0  2  0  0  0  0  0  0
  161.5790  202.6570  147.1720 O   0  0  0  0  0  0  0  0  0  0  0  0
  160.0860  206.1830  152.0500 N   0  0  0  0  0  2  0  0  0  0  0  0
  160.3580  204.8210  151.6820 C   0  0  0  0  0  0  0  0  0  0  0  0
  162.2780  210.9420  148.3140 C   0  0  0  0  0  3  0  0  0  0  0  0
  161.4790  209.3750  153.5830 C   0  0  1  0  0  3  0  0  0  0  0  0
  161.7630  208.6130  148.7790 C   0  0  0  0  0  0  0  0  0  0  0  0
  160.5560  203.8520  149.4540 N   0  0  0  0  0  0  0  0  0  0  0  0
  160.9260  204.8160  148.3930 C   0  0  1  0  0  3  0  0  0  0  0  0
  161.8130  210.5820  152.7100 C   0  0  0  0  0  2  0  0  0  0  0  0
  163.0390  210.2870  151.8900 C   0  0  0  0  0  2  0  0  0  0  0  0
  162.7530  211.1040  149.6040 C   0  0  0  0  0  3  0  0  0  0  0  0
  160.5390  204.6550  145.0370 C   0  0  0  0  0  3  0  0  0  0  0  0
  161.7620  205.7430  143.2480 C   0  0  0  0  0  0  0  0  0  0  0  0
  162.8170  205.4780  145.4400 C   0  0  0  0  0  3  0  0  0  0  0  0
  162.8880  205.8720  144.1270 C   0  0  0  0  0  3  0  0  0  0  0  0
  160.5960  205.1020  143.7560 C   0  0  0  0  0  3  0  0  0  0  0  0
  161.6580  204.7880  145.8960 C   0  0  0  0  0  0  0  0  0  0  0  0
  161.7420  206.4250  142.0000 C   0  0  0  0  0  0  0  0  0  0  0  0
  162.1990  205.8220  140.8020 O   0  0  0  0  0  0  0  0  0  0  0  0
  161.2860  207.6500  141.9370 O   0  0  0  0  0  1  0  0  0  0  0  0
  161.8600  209.4520  155.7990 O   0  0  0  0  0  0  0  0  0  0  0  0
  161.0940  209.7630  154.8890 C   0  0  0  0  0  0  0  0  0  0  0  0
  159.5620  210.7030  155.0580 S   0  0  0  0  0  0  0  0  0  0  0  0
  160.3640  212.1150  155.9380 C   0  0  2  0  0  3  0  0  0  0  0  0
  160.8310  211.8060  157.2600 F   0  0  0  0  0  0  0  0  0  0  0  0
  159.8110  213.5190  155.5930 C   0  0  2  0  0  3  0  0  0  0  0  0
  159.9350  214.3810  156.6930 O   0  0  0  0  0  1  0  0  0  0  0  0
  158.2020  213.3090  155.3770 C   0  0  2  0  0  3  0  0  0  0  0  0
  156.2160  214.4290  154.6130 O   0  0  0  0  0  0  0  0  0  0  0  0
  155.2880  212.4320  153.8540 O   0  0  0  0  0  1  0  0  0  0  0  0
  156.2100  213.4610  153.5710 C   0  0  1  0  0  0  0  0  0  0  0  0
  157.3090  213.6790  152.6130 C   0  0  1  0  0  0  0  0  0  0  0  0
  157.4770  214.0590  154.1580 C   0  0  2  0  0  0  0  0  0  0  0  0
  157.7600  212.4430  152.2500 O   0  0  0  0  0  1  0  0  0  0  0  0
  156.3860  214.4530  151.8030 C   0  0  0  0  0  2  0  0  0  0  0  0
  155.9800  213.7540  150.6890 O   0  0  0  0  0  1  0  0  0  0  0  0
  157.4980  213.3000  156.6960 C   0  0  0  0  0  0  0  0  0  0  0  0
  157.1920  212.1290  157.2480 C   0  0  0  0  0  2  0  0  0  0  0  0
  156.9850  214.4200  157.2530 O   0  0  0  0  0  1  0  0  0  0  0  0
  1 22  1  0  0  0  0
  1 13  1  0  0  0  0
  5  4  1  0  0  0  0
  6 11  1  0  0  0  0
  7  6  2  0  0  0  0
  7  9  1  0  0  0  0
  8 19  1  0  0  0  0
  9  5  2  0  0  0  0
 10 20  2  0  0  0  0
 10 22  1  0  0  0  0
 11 23  1  0  0  0  0
 11  4  2  0  0  0  0
 12 26  1  0  0  0  0
 14 12  1  0  0  0  0
 15 33  1  6  0  0  0
 15 24  1  0  0  0  0
 16  2  1  0  0  0  0
 16 21  1  0  0  0  0
 17 15  1  0  0  0  0
 17  6  1  0  0  0  0
 18  2  1  0  0  0  0
 19 18  1  0  0  0  0
 19  3  2  0  0  0  0
 20 27  1  0  0  0  0
 21 38  1  1  0  0  0
 22 14  2  0  0  0  0
 23  8  1  0  0  0  0
 24 13  1  1  0  0  0
 24 23  1  0  0  0  0
 25 21  1  0  0  0  0
 26 25  1  0  0  0  0
 27 12  2  0  0  0  0
 28 33  1  0  0  0  0
 29 32  1  0  0  0  0
 29 31  2  0  0  0  0
 30 33  2  0  0  0  0
 31 30  1  0  0  0  0
 32 28  2  0  0  0  0
 34 29  1  0  0  0  0
 35 34  2  0  0  0  0
 36 34  1  0  0  0  0
 38 39  1  0  0  0  0
 38 37  2  0  0  0  0
 39 40  1  0  0  0  0
 40 41  1  1  0  0  0
 42 40  1  0  0  0  0
 42 43  1  1  0  0  0
 44 42  1  0  0  0  0
 44 53  1  1  0  0  0
 47 46  1  1  0  0  0
 47 49  1  0  0  0  0
 47 45  1  0  0  0  0
 48 50  1  6  0  0  0
 48 47  1  0  0  0  0
 48 49  1  0  0  0  0
 49 45  1  0  0  0  0
 49 44  1  1  0  0  0
 51 48  1  0  0  0  0
 52 51  1  0  0  0  0
 53 54  2  0  0  0  0
 53 55  1  0  0  0  0
M  END
>  <MODEL>
3

>  <REMARK>
 VINA RESULT:      -1.4      4.661      9.124
  Name = 
  10 active torsions:
  status: ('A' for Active; 'I' for Inactive)
    1  A    between atoms: C_1  and  C_53
    2  A    between atoms: C_6  and  C_20
    3  A    between atoms: C_6  and  C_53
    4  A    between atoms: C_8  and  S_22
    5  A    between atoms: C_8  and  C_43
    6  A    between atoms: C_10  and  C_32
    7  A    between atoms: C_11  and  C_29
    8  A    between atoms: C_20  and  S_22
    9  A    between atoms: C_33  and  C_52
   10  A    between atoms: C_38  and  C_53
                            x       y       z     vdW  Elec       q    Type
                         _______ _______ _______ _____ _____    ______ ____

>  <TORSDO>
F 10

$$$$
=
 OpenBabel11062408443D

 55 61  0  0  1  0  0  0  0  0999 V2000
  161.7540  208.6680  149.9780 C   0  0  0  0  0  2  0  0  0  0  0  0
  161.0710  204.7870  152.7200 C   0  0  0  0  0  2  0  0  0  0  0  0
  160.0060  206.8560  154.6110 O   0  0  0  0  0  0  0  0  0  0  0  0
  159.9030  209.6540  155.7380 C   0  0  0  0  0  3  0  0  0  0  0  0
  159.0560  210.3440  156.5570 C   0  0  0  0  0  3  0  0  0  0  0  0
  159.6640  211.4010  154.0900 C   0  0  0  0  0  0  0  0  0  0  0  0
  159.0730  212.2190  155.0600 C   0  0  0  0  0  3  0  0  0  0  0  0
  161.8220  208.3530  154.0650 C   0  0  0  0  0  2  0  0  0  0  0  0
  158.7250  211.6640  156.2810 C   0  0  0  0  0  3  0  0  0  0  0  0
  162.0500  207.6610  147.7300 C   0  0  0  0  0  3  0  0  0  0  0  0
  160.2450  210.1690  154.4860 C   0  0  0  0  0  0  0  0  0  0  0  0
  161.0090  205.2150  148.4290 C   0  0  0  0  0  0  0  0  0  0  0  0
  160.7560  208.7180  151.1290 C   0  0  0  0  0  2  0  0  0  0  0  0
  161.0900  206.2350  149.3990 C   0  0  0  0  0  3  0  0  0  0  0  0
  160.6190  211.1940  151.8260 C   0  0  2  0  0  3  0  0  0  0  0  0
  161.9080  204.0560  151.6250 C   0  0  0  0  0  2  0  0  0  0  0  0
  160.1370  211.9890  152.9610 O   0  0  0  0  0  0  0  0  0  0  0  0
  161.7030  205.9940  153.1930 N   0  0  0  0  0  2  0  0  0  0  0  0
  161.0710  207.0260  153.9660 C   0  0  0  0  0  0  0  0  0  0  0  0
  162.0400  206.6200  146.7980 C   0  0  0  0  0  3  0  0  0  0  0  0
  161.1800  202.9910  150.9150 C   0  0  1  0  0  3  0  0  0  0  0  0
  161.6390  207.4650  149.0400 C   0  0  0  0  0  0  0  0  0  0  0  0
  161.0160  209.4280  153.5510 N   0  0  0  0  0  0  0  0  0  0  0  0
  161.2140  209.8130  152.1350 C   0  0  1  0  0  3  0  0  0  0  0  0
  161.4550  203.0880  149.4160 C   0  0  0  0  0  2  0  0  0  0  0  0
  160.3940  203.9320  148.7630 C   0  0  0  0  0  2  0  0  0  0  0  0
  161.3950  205.4370  147.1180 C   0  0  0  0  0  3  0  0  0  0  0  0
  160.1390  212.9110  150.1410 C   0  0  0  0  0  3  0  0  0  0  0  0
  161.5570  213.2420  148.2020 C   0  0  0  0  0  0  0  0  0  0  0  0
  162.2520  211.6750  149.9500 C   0  0  0  0  0  3  0  0  0  0  0  0
  162.4610  212.2570  148.7240 C   0  0  0  0  0  3  0  0  0  0  0  0
  160.3820  213.5270  148.9550 C   0  0  0  0  0  3  0  0  0  0  0  0
  161.0380  211.9400  150.6450 C   0  0  0  0  0  0  0  0  0  0  0  0
  161.9370  214.0520  147.0960 C   0  0  0  0  0  0  0  0  0  0  0  0
  161.0120  214.4510  146.1000 O   0  0  0  0  0  0  0  0  0  0  0  0
  163.1780  214.4520  146.9800 O   0  0  0  0  0  1  0  0  0  0  0  0
  162.3720  201.5280  152.1400 O   0  0  0  0  0  0  0  0  0  0  0  0
  161.4000  201.6810  151.4040 C   0  0  0  0  0  0  0  0  0  0  0  0
  160.2090  200.4080  150.9310 S   0  0  0  0  0  0  0  0  0  0  0  0
  160.3930  200.7140  149.1190 C   0  0  2  0  0  3  0  0  0  0  0  0
  159.1630  200.9910  148.4320 F   0  0  0  0  0  0  0  0  0  0  0  0
  161.5410  199.9420  148.4240 C   0  0  2  0  0  3  0  0  0  0  0  0
  162.7870  200.4630  148.8080 O   0  0  0  0  0  1  0  0  0  0  0  0
  161.3920  200.2890  146.8310 C   0  0  2  0  0  3  0  0  0  0  0  0
  159.2890  200.9540  145.8730 O   0  0  0  0  0  0  0  0  0  0  0  0
  160.1750  200.9330  143.7180 O   0  0  0  0  0  1  0  0  0  0  0  0
  160.0760  201.6610  144.9230 C   0  0  1  0  0  0  0  0  0  0  0  0
  160.7450  202.8290  145.5250 C   0  0  1  0  0  0  0  0  0  0  0  0
  160.4540  201.5120  146.3870 C   0  0  2  0  0  0  0  0  0  0  0  0
  161.9820  202.9060  144.9540 O   0  0  0  0  0  1  0  0  0  0  0  0
  159.6200  203.6370  145.0890 C   0  0  0  0  0  2  0  0  0  0  0  0
  160.0090  204.6050  144.1910 O   0  0  0  0  0  1  0  0  0  0  0  0
  161.3050  199.0300  146.0300 C   0  0  0  0  0  0  0  0  0  0  0  0
  162.4320  198.4670  145.6020 C   0  0  0  0  0  2  0  0  0  0  0  0
  160.1340  198.5490  145.5580 O   0  0  0  0  0  1  0  0  0  0  0  0
  1 13  1  0  0  0  0
  2 18  1  0  0  0  0
  4  5  1  0  0  0  0
  6 11  1  0  0  0  0
  6  7  2  0  0  0  0
  7  9  1  0  0  0  0
  9  5  2  0  0  0  0
 10 22  1  0  0  0  0
 11  4  2  0  0  0  0
 12 26  1  0  0  0  0
 12 14  1  0  0  0  0
 15 33  1  1  0  0  0
 15 24  1  0  0  0  0
 15 17  1  0  0  0  0
 16  2  1  0  0  0  0
 17  6  1  0  0  0  0
 18 19  1  0  0  0  0
 19  8  1  0  0  0  0
 19  3  2  0  0  0  0
 20 27  1  0  0  0  0
 20 10  2  0  0  0  0
 21 38  1  1  0  0  0
 21 16  1  0  0  0  0
 22 14  2  0  0  0  0
 22  1  1  0  0  0  0
 23  8  1  0  0  0  0
 23 11  1  0  0  0  0
 24 13  1  6  0  0  0
 24 23  1  0  0  0  0
 25 21  1  0  0  0  0
 26 25  1  0  0  0  0
 27 12  2  0  0  0  0
 28 33  1  0  0  0  0
 29 31  2  0  0  0  0
 29 32  1  0  0  0  0
 30 33  2  0  0  0  0
 31 30  1  0  0  0  0
 32 28  2  0  0  0  0
 34 29  1  0  0  0  0
 35 34  2  0  0  0  0
 36 34  1  0  0  0  0
 38 37  2  0  0  0  0
 39 38  1  0  0  0  0
 40 41  1  6  0  0  0
 40 39  1  0  0  0  0
 42 43  1  1  0  0  0
 42 40  1  0  0  0  0
 44 53  1  6  0  0  0
 44 42  1  0  0  0  0
 45 49  1  0  0  0  0
 47 46  1  6  0  0  0
 47 48  1  0  0  0  0
 47 45  1  0  0  0  0
 47 49  1  0  0  0  0
 48 50  1  6  0  0  0
 48 49  1  0  0  0  0
 49 44  1  1  0  0  0
 51 48  1  0  0  0  0
 52 51  1  0  0  0  0
 54 53  2  0  0  0  0
 55 53  1  0  0  0  0
M  END
>  <MODEL>
4

>  <REMARK>
 VINA RESULT:       0.8      4.918      9.438
  Name = 
  10 active torsions:
  status: ('A' for Active; 'I' for Inactive)
    1  A    between atoms: C_1  and  C_53
    2  A    between atoms: C_6  and  C_20
    3  A    between atoms: C_6  and  C_53
    4  A    between atoms: C_8  and  S_22
    5  A    between atoms: C_8  and  C_43
    6  A    between atoms: C_10  and  C_32
    7  A    between atoms: C_11  and  C_29
    8  A    between atoms: C_20  and  S_22
    9  A    between atoms: C_33  and  C_52
   10  A    between atoms: C_38  and  C_53
                            x       y       z     vdW  Elec       q    Type
                         _______ _______ _______ _____ _____    ______ ____

>  <TORSDO>
F 10

$$$$
