=
 OpenBabel11052422383D

 31 35  0  0  1  0  0  0  0  0999 V2000
  161.0550  201.3120  149.8350 C   0  0  0  0  0  0  0  0  0  0  0  0
  161.3470  204.9140  148.7600 C   0  0  0  0  0  0  0  0  0  0  0  0
  161.5420  204.8960  147.3370 C   0  0  0  0  0  0  0  0  0  0  0  0
  160.7450  203.3320  145.5960 C   0  0  0  0  0  3  0  0  0  0  0  0
  161.2060  203.7390  149.5660 C   0  0  0  0  0  0  0  0  0  0  0  0
  160.9160  201.4580  151.2140 C   0  0  0  0  0  3  0  0  0  0  0  0
  161.8160  203.6250  146.5890 C   0  0  0  0  0  2  0  0  0  0  0  0
  161.1480  206.2780  150.8130 C   0  0  0  0  0  0  0  0  0  0  0  0
  161.0570  200.0770  149.2820 F   0  0  0  0  0  0  0  0  0  0  0  0
  161.5640  207.3250  147.2960 C   0  0  0  0  0  3  0  0  0  0  0  0
  160.5410  204.0950  144.5240 C   0  0  0  0  0  3  0  0  0  0  0  0
  161.0280  205.1150  151.5700 C   0  0  0  0  0  3  0  0  0  0  0  0
  161.3000  206.1820  149.4160 C   0  0  0  0  0  0  0  0  0  0  0  0
  161.1950  202.4400  149.0250 C   0  0  0  0  0  3  0  0  0  0  0  0
  161.2750  205.3400  144.2390 C   0  0  0  0  0  3  0  0  0  0  0  0
  161.0500  203.8640  150.9710 C   0  0  0  0  0  0  0  0  0  0  0  0
  160.9120  202.7320  151.7800 C   0  0  0  0  0  3  0  0  0  0  0  0
  161.4160  207.3610  148.6730 C   0  0  0  0  0  3  0  0  0  0  0  0
  161.6100  206.1130  146.6170 C   0  0  0  0  0  0  0  0  0  0  0  0
  161.7450  206.2040  145.1460 C   0  0  0  0  0  3  0  0  0  0  0  0
  160.8010  206.9240  153.6770 O   0  0  0  0  0  0  0  0  0  0  0  0
  161.0080  207.8480  152.8450 C   0  0  0  0  0  0  0  0  0  0  0  0
  161.1370  207.5710  151.4440 N   0  0  0  0  0  2  0  0  0  0  0  0
  159.9970  211.7480  154.3890 N   0  0  0  0  0  0  0  0  0  0  0  0
  160.2050  210.1600  152.4730 C   0  0  0  0  0  2  0  0  0  0  0  0
  161.6220  208.6400  155.5680 O   0  0  0  0  0  1  0  0  0  0  0  0
  158.5860  211.4610  154.6260 C   0  0  0  0  0  1  0  0  0  0  0  0
  160.3070  211.6080  152.9590 C   0  0  0  0  0  2  0  0  0  0  0  0
  160.7500  209.3990  154.7850 C   0  0  2  0  0  3  0  0  0  0  0  0
  161.1130  209.2660  153.3070 C   0  0  1  0  0  3  0  0  0  0  0  0
  160.8370  210.8670  155.2110 C   0  0  0  0  0  2  0  0  0  0  0  0
  1  6  1  0  0  0  0
  2 13  2  0  0  0  0
  2  5  1  0  0  0  0
  3  2  1  0  0  0  0
  4  7  1  0  0  0  0
  5 16  2  0  0  0  0
  6 17  2  0  0  0  0
  7  3  1  0  0  0  0
  8 23  1  0  0  0  0
  8 12  2  0  0  0  0
  9  1  1  0  0  0  0
 10 18  2  0  0  0  0
 11  4  2  0  0  0  0
 13  8  1  0  0  0  0
 14  5  1  0  0  0  0
 14  1  2  0  0  0  0
 15 11  1  0  0  0  0
 15 20  2  0  0  0  0
 16 12  1  0  0  0  0
 16 17  1  0  0  0  0
 18 13  1  0  0  0  0
 19 10  1  0  0  0  0
 19  3  2  0  0  0  0
 20 19  1  0  0  0  0
 22 21  2  0  0  0  0
 23 22  1  0  0  0  0
 24 27  1  0  0  0  0
 24 31  1  0  0  0  0
 25 28  1  0  0  0  0
 25 30  1  0  0  0  0
 28 24  1  0  0  0  0
 29 31  1  0  0  0  0
 29 26  1  1  0  0  0
 30 22  1  6  0  0  0
 30 29  1  0  0  0  0
M  END
>  <MODEL>
1

>  <REMARK>
 VINA RESULT:     -11.4      0.000      0.000
  Name = 
  2 active torsions:
  status: ('A' for Active; 'I' for Inactive)
    1  A    between atoms: C_9  and  C_22
    2  A    between atoms: C_15  and  N_23
                            x       y       z     vdW  Elec       q    Type
                         _______ _______ _______ _____ _____    ______ ____

>  <TORSDO>
F 2

$$$$
=
 OpenBabel11052422383D

 31 35  0  0  1  0  0  0  0  0999 V2000
  161.3200  200.9040  149.1550 C   0  0  0  0  0  0  0  0  0  0  0  0
  161.1610  204.6330  148.6250 C   0  0  0  0  0  0  0  0  0  0  0  0
  161.4010  204.8530  147.2260 C   0  0  0  0  0  0  0  0  0  0  0  0
  160.8740  203.4760  145.2400 C   0  0  0  0  0  3  0  0  0  0  0  0
  161.1540  203.3420  149.2460 C   0  0  0  0  0  0  0  0  0  0  0  0
  161.1210  200.8230  150.5320 C   0  0  0  0  0  3  0  0  0  0  0  0
  161.8650  203.7530  146.3180 C   0  0  0  0  0  2  0  0  0  0  0  0
  160.7190  205.6390  150.8400 C   0  0  0  0  0  0  0  0  0  0  0  0
  161.5040  199.7750  148.4320 F   0  0  0  0  0  0  0  0  0  0  0  0
  161.0990  207.2430  147.5360 C   0  0  0  0  0  3  0  0  0  0  0  0
  160.6030  204.3590  144.2810 C   0  0  0  0  0  3  0  0  0  0  0  0
  160.7320  204.3710  151.4150 C   0  0  0  0  0  3  0  0  0  0  0  0
  160.9250  205.7730  149.4530 C   0  0  0  0  0  0  0  0  0  0  0  0
  161.3330  202.1480  148.5240 C   0  0  0  0  0  3  0  0  0  0  0  0
  161.1730  205.7160  144.2140 C   0  0  0  0  0  3  0  0  0  0  0  0
  160.9400  203.2360  150.6440 C   0  0  0  0  0  0  0  0  0  0  0  0
  160.9290  201.9880  151.2750 C   0  0  0  0  0  3  0  0  0  0  0  0
  160.9050  207.0540  148.8940 C   0  0  0  0  0  3  0  0  0  0  0  0
  161.3270  206.1620  146.6920 C   0  0  0  0  0  0  0  0  0  0  0  0
  161.4940  206.4870  145.2580 C   0  0  0  0  0  3  0  0  0  0  0  0
  161.9810  206.3330  153.4220 O   0  0  0  0  0  0  0  0  0  0  0  0
  161.1760  207.1380  152.8790 C   0  0  0  0  0  0  0  0  0  0  0  0
  160.5160  206.8110  151.6500 N   0  0  0  0  0  2  0  0  0  0  0  0
  161.4960  210.6610  155.3490 N   0  0  0  0  0  0  0  0  0  0  0  0
  160.7690  208.2930  155.0300 C   0  0  0  0  0  2  0  0  0  0  0  0
  162.0330  209.6990  151.8170 O   0  0  0  0  0  1  0  0  0  0  0  0
  162.7760  210.3090  155.9570 C   0  0  0  0  0  1  0  0  0  0  0  0
  160.4850  209.6490  155.6830 C   0  0  0  0  0  2  0  0  0  0  0  0
  161.9670  209.4850  153.1950 C   0  0  2  0  0  3  0  0  0  0  0  0
  160.8860  208.4570  153.5200 C   0  0  1  0  0  3  0  0  0  0  0  0
  161.6510  210.8100  153.8960 C   0  0  0  0  0  2  0  0  0  0  0  0
  1  6  1  0  0  0  0
  2  5  2  0  0  0  0
  2 13  1  0  0  0  0
  3  2  1  0  0  0  0
  4  7  1  0  0  0  0
  5 16  1  0  0  0  0
  6 17  2  0  0  0  0
  7  3  1  0  0  0  0
  8 12  1  0  0  0  0
  8 23  1  0  0  0  0
  9  1  1  0  0  0  0
 10 18  2  0  0  0  0
 11  4  2  0  0  0  0
 13  8  2  0  0  0  0
 14  1  2  0  0  0  0
 14  5  1  0  0  0  0
 15 11  1  0  0  0  0
 15 20  2  0  0  0  0
 16 17  1  0  0  0  0
 16 12  2  0  0  0  0
 18 13  1  0  0  0  0
 19  3  2  0  0  0  0
 19 10  1  0  0  0  0
 20 19  1  0  0  0  0
 22 21  2  0  0  0  0
 23 22  1  0  0  0  0
 24 28  1  0  0  0  0
 24 27  1  0  0  0  0
 25 28  1  0  0  0  0
 29 26  1  6  0  0  0
 29 30  1  0  0  0  0
 29 31  1  0  0  0  0
 30 22  1  6  0  0  0
 30 25  1  0  0  0  0
 31 24  1  0  0  0  0
M  END
>  <MODEL>
2

>  <REMARK>
 VINA RESULT:     -11.3      1.189      1.609
  Name = 
  2 active torsions:
  status: ('A' for Active; 'I' for Inactive)
    1  A    between atoms: C_9  and  C_22
    2  A    between atoms: C_15  and  N_23
                            x       y       z     vdW  Elec       q    Type
                         _______ _______ _______ _____ _____    ______ ____

>  <TORSDO>
F 2

$$$$
=
 OpenBabel11052422383D

 31 35  0  0  1  0  0  0  0  0999 V2000
  160.9680  203.7270  152.2580 C   0  0  0  0  0  0  0  0  0  0  0  0
  161.4630  205.5190  148.9780 C   0  0  0  0  0  0  0  0  0  0  0  0
  161.5410  204.5000  147.9690 C   0  0  0  0  0  0  0  0  0  0  0  0
  160.4810  202.2710  147.8100 C   0  0  0  0  0  3  0  0  0  0  0  0
  161.2920  205.2540  150.3760 C   0  0  0  0  0  0  0  0  0  0  0  0
  160.9530  204.8000  153.1470 C   0  0  0  0  0  3  0  0  0  0  0  0
  161.6490  203.0450  148.3170 C   0  0  0  0  0  2  0  0  0  0  0  0
  161.5410  207.9340  149.5030 C   0  0  0  0  0  0  0  0  0  0  0  0
  160.8250  202.4630  152.7220 F   0  0  0  0  0  0  0  0  0  0  0  0
  161.7550  206.2010  146.2490 C   0  0  0  0  0  3  0  0  0  0  0  0
  160.2540  202.0980  146.5100 C   0  0  0  0  0  3  0  0  0  0  0  0
  161.3890  207.6420  150.8560 C   0  0  0  0  0  3  0  0  0  0  0  0
  161.5710  206.8820  148.5660 C   0  0  0  0  0  0  0  0  0  0  0  0
  161.1330  203.9550  150.8910 C   0  0  0  0  0  3  0  0  0  0  0  0
  161.0610  202.7050  145.4360 C   0  0  0  0  0  3  0  0  0  0  0  0
  161.2610  206.3330  151.2970 C   0  0  0  0  0  0  0  0  0  0  0  0
  161.0970  206.1010  152.6660 C   0  0  0  0  0  3  0  0  0  0  0  0
  161.7220  207.1960  147.2130 C   0  0  0  0  0  3  0  0  0  0  0  0
  161.6480  204.8620  146.6050 C   0  0  0  0  0  0  0  0  0  0  0  0
  161.6710  203.8940  145.4860 C   0  0  0  0  0  3  0  0  0  0  0  0
  161.9530  210.3700  151.1260 O   0  0  0  0  0  0  0  0  0  0  0  0
  161.9260  210.4510  149.8680 C   0  0  0  0  0  0  0  0  0  0  0  0
  161.6860  209.2940  149.0560 N   0  0  0  0  0  2  0  0  0  0  0  0
  161.6480  213.7220  147.0690 N   0  0  0  0  0  0  0  0  0  0  0  0
  162.6700  211.5580  147.7840 C   0  0  0  0  0  2  0  0  0  0  0  0
  160.3870  212.8440  150.4350 O   0  0  0  0  0  1  0  0  0  0  0  0
  160.6530  213.1000  146.2010 C   0  0  0  0  0  1  0  0  0  0  0  0
  162.8730  212.9100  147.0950 C   0  0  0  0  0  2  0  0  0  0  0  0
  160.8460  212.5820  149.1430 C   0  0  2  0  0  3  0  0  0  0  0  0
  162.1380  211.7680  149.1950 C   0  0  1  0  0  3  0  0  0  0  0  0
  161.0960  213.9070  148.4180 C   0  0  0  0  0  2  0  0  0  0  0  0
  1  9  1  0  0  0  0
  1  6  1  0  0  0  0
  2  5  1  0  0  0  0
  3  7  1  0  0  0  0
  3  2  1  0  0  0  0
  4  7  1  0  0  0  0
  5 14  1  0  0  0  0
  5 16  2  0  0  0  0
  8 12  2  0  0  0  0
 10 19  1  0  0  0  0
 10 18  2  0  0  0  0
 11  4  2  0  0  0  0
 12 16  1  0  0  0  0
 13  2  2  0  0  0  0
 13  8  1  0  0  0  0
 14  1  2  0  0  0  0
 15 20  2  0  0  0  0
 15 11  1  0  0  0  0
 16 17  1  0  0  0  0
 17  6  2  0  0  0  0
 18 13  1  0  0  0  0
 19  3  2  0  0  0  0
 20 19  1  0  0  0  0
 22 21  2  0  0  0  0
 23  8  1  0  0  0  0
 23 22  1  0  0  0  0
 24 28  1  0  0  0  0
 24 31  1  0  0  0  0
 25 30  1  0  0  0  0
 27 24  1  0  0  0  0
 28 25  1  0  0  0  0
 29 30  1  0  0  0  0
 29 26  1  1  0  0  0
 30 22  1  6  0  0  0
 31 29  1  0  0  0  0
M  END
>  <MODEL>
3

>  <REMARK>
 VINA RESULT:     -11.0      3.242      4.197
  Name = 
  2 active torsions:
  status: ('A' for Active; 'I' for Inactive)
    1  A    between atoms: C_9  and  C_22
    2  A    between atoms: C_15  and  N_23
                            x       y       z     vdW  Elec       q    Type
                         _______ _______ _______ _____ _____    ______ ____

>  <TORSDO>
F 2

$$$$
=
 OpenBabel11052422383D

 31 35  0  0  1  0  0  0  0  0999 V2000
  161.2140  206.2050  146.4020 C   0  0  0  0  0  0  0  0  0  0  0  0
  161.1150  204.8050  149.9010 C   0  0  0  0  0  0  0  0  0  0  0  0
  160.8260  203.4040  149.7680 C   0  0  0  0  0  0  0  0  0  0  0  0
  161.3930  201.7790  147.9920 C   0  0  0  0  0  3  0  0  0  0  0  0
  161.2230  205.7120  148.7980 C   0  0  0  0  0  0  0  0  0  0  0  0
  161.4530  207.5530  146.6620 C   0  0  0  0  0  3  0  0  0  0  0  0
  160.4130  202.8000  148.4590 C   0  0  0  0  0  2  0  0  0  0  0  0
  161.5460  206.7020  151.4280 C   0  0  0  0  0  0  0  0  0  0  0  0
  161.0860  205.7750  145.1250 F   0  0  0  0  0  0  0  0  0  0  0  0
  160.9790  203.1310  152.1770 C   0  0  0  0  0  3  0  0  0  0  0  0
  161.5810  200.6290  148.6360 C   0  0  0  0  0  3  0  0  0  0  0  0
  161.6300  207.5590  150.3340 C   0  0  0  0  0  3  0  0  0  0  0  0
  161.2970  205.3310  151.2170 C   0  0  0  0  0  0  0  0  0  0  0  0
  161.1030  205.2990  147.4580 C   0  0  0  0  0  3  0  0  0  0  0  0
  160.9220  200.2670  149.9030 C   0  0  0  0  0  3  0  0  0  0  0  0
  161.4780  207.0860  149.0390 C   0  0  0  0  0  0  0  0  0  0  0  0
  161.5870  207.9920  147.9790 C   0  0  0  0  0  3  0  0  0  0  0  0
  161.2190  204.4870  152.3270 C   0  0  0  0  0  3  0  0  0  0  0  0
  160.8010  202.5750  150.9150 C   0  0  0  0  0  0  0  0  0  0  0  0
  160.5770  201.1130  150.8800 C   0  0  0  0  0  3  0  0  0  0  0  0
  160.4470  209.1870  152.5920 O   0  0  0  0  0  0  0  0  0  0  0  0
  161.1110  208.3950  153.3150 C   0  0  0  0  0  0  0  0  0  0  0  0
  161.6920  207.2040  152.7690 N   0  0  0  0  0  2  0  0  0  0  0  0
  160.6660  210.0820  157.2610 N   0  0  0  0  0  0  0  0  0  0  0  0
  161.6350  210.1680  154.9610 C   0  0  0  0  0  2  0  0  0  0  0  0
  159.8180  206.9530  155.4760 O   0  0  0  0  0  1  0  0  0  0  0  0
  159.5260  210.9320  156.9380 C   0  0  0  0  0  1  0  0  0  0  0  0
  161.8290  210.4680  156.4490 C   0  0  0  0  0  2  0  0  0  0  0  0
  160.0810  208.3200  155.5880 C   0  0  2  0  0  3  0  0  0  0  0  0
  161.3130  208.6910  154.7650 C   0  0  1  0  0  3  0  0  0  0  0  0
  160.3150  208.6690  157.0600 C   0  0  0  0  0  2  0  0  0  0  0  0
  1  6  2  0  0  0  0
  1 14  1  0  0  0  0
  2 13  1  0  0  0  0
  3  2  2  0  0  0  0
  3 19  1  0  0  0  0
  4  7  1  0  0  0  0
  4 11  2  0  0  0  0
  5 16  1  0  0  0  0
  5  2  1  0  0  0  0
  6 17  1  0  0  0  0
  7  3  1  0  0  0  0
  8 23  1  0  0  0  0
  9  1  1  0  0  0  0
 10 18  1  0  0  0  0
 11 15  1  0  0  0  0
 12  8  2  0  0  0  0
 13  8  1  0  0  0  0
 13 18  2  0  0  0  0
 14  5  2  0  0  0  0
 15 20  2  0  0  0  0
 16 12  1  0  0  0  0
 17 16  2  0  0  0  0
 19 10  2  0  0  0  0
 20 19  1  0  0  0  0
 21 22  2  0  0  0  0
 23 22  1  0  0  0  0
 25 28  1  0  0  0  0
 27 24  1  0  0  0  0
 28 24  1  0  0  0  0
 29 26  1  1  0  0  0
 29 31  1  0  0  0  0
 30 22  1  6  0  0  0
 30 25  1  0  0  0  0
 30 29  1  0  0  0  0
 31 24  1  0  0  0  0
M  END
>  <MODEL>
4

>  <REMARK>
 VINA RESULT:      -9.7      2.060      4.275
  Name = 
  2 active torsions:
  status: ('A' for Active; 'I' for Inactive)
    1  A    between atoms: C_9  and  C_22
    2  A    between atoms: C_15  and  N_23
                            x       y       z     vdW  Elec       q    Type
                         _______ _______ _______ _____ _____    ______ ____

>  <TORSDO>
F 2

$$$$
=
 OpenBabel11052422383D

 31 35  0  0  1  0  0  0  0  0999 V2000
  161.2070  204.6460  152.0410 C   0  0  0  0  0  0  0  0  0  0  0  0
  161.0300  208.3300  152.8230 C   0  0  0  0  0  0  0  0  0  0  0  0
  160.6150  208.4320  154.1950 C   0  0  0  0  0  0  0  0  0  0  0  0
  161.0090  206.9540  156.1380 C   0  0  0  0  0  3  0  0  0  0  0  0
  161.2040  207.0900  152.1270 C   0  0  0  0  0  0  0  0  0  0  0  0
  161.5700  204.6770  150.6960 C   0  0  0  0  0  3  0  0  0  0  0  0
  160.1320  207.2420  154.9680 C   0  0  0  0  0  2  0  0  0  0  0  0
  161.6510  209.5180  150.7460 C   0  0  0  0  0  0  0  0  0  0  0  0
  161.0240  203.4580  152.6640 F   0  0  0  0  0  0  0  0  0  0  0  0
  160.7750  210.8530  154.0760 C   0  0  0  0  0  3  0  0  0  0  0  0
  161.1020  207.7800  157.1770 C   0  0  0  0  0  3  0  0  0  0  0  0
  161.7970  208.2970  150.0940 C   0  0  0  0  0  3  0  0  0  0  0  0
  161.2770  209.5390  152.1040 C   0  0  0  0  0  0  0  0  0  0  0  0
  161.0300  205.8380  152.7440 C   0  0  0  0  0  3  0  0  0  0  0  0
  160.4310  209.0900  157.2610 C   0  0  0  0  0  3  0  0  0  0  0  0
  161.5850  207.0990  150.7600 C   0  0  0  0  0  0  0  0  0  0  0  0
  161.7600  205.9020  150.0580 C   0  0  0  0  0  3  0  0  0  0  0  0
  161.1380  210.7750  152.7410 C   0  0  0  0  0  3  0  0  0  0  0  0
  160.5310  209.7020  154.8160 C   0  0  0  0  0  0  0  0  0  0  0  0
  160.1760  209.9110  156.2370 C   0  0  0  0  0  3  0  0  0  0  0  0
  161.4000  210.0550  147.8500 O   0  0  0  0  0  0  0  0  0  0  0  0
  161.6890  210.9940  148.6400 C   0  0  0  0  0  0  0  0  0  0  0  0
  161.8590  210.7570  150.0430 N   0  0  0  0  0  2  0  0  0  0  0  0
  162.4670  214.3250  146.0100 N   0  0  0  0  0  0  0  0  0  0  0  0
  163.2840  212.5640  147.5810 C   0  0  0  0  0  2  0  0  0  0  0  0
  159.5560  212.6170  147.5280 O   0  0  0  0  0  1  0  0  0  0  0  0
  162.6950  213.5260  144.8110 C   0  0  0  0  0  1  0  0  0  0  0  0
  163.4600  213.9850  147.0390 C   0  0  0  0  0  2  0  0  0  0  0  0
  160.8560  212.7070  147.0250 C   0  0  2  0  0  3  0  0  0  0  0  0
  161.8700  212.3840  148.1200 C   0  0  1  0  0  3  0  0  0  0  0  0
  161.0960  214.1240  146.4970 C   0  0  0  0  0  2  0  0  0  0  0  0
  1  9  1  0  0  0  0
  1 14  1  0  0  0  0
  2  3  1  0  0  0  0
  3 19  2  0  0  0  0
  3  7  1  0  0  0  0
  4 11  2  0  0  0  0
  5 14  2  0  0  0  0
  5  2  1  0  0  0  0
  6  1  2  0  0  0  0
  7  4  1  0  0  0  0
  8 13  1  0  0  0  0
 10 19  1  0  0  0  0
 11 15  1  0  0  0  0
 12  8  2  0  0  0  0
 12 16  1  0  0  0  0
 13 18  1  0  0  0  0
 13  2  2  0  0  0  0
 16  5  1  0  0  0  0
 17  6  1  0  0  0  0
 17 16  2  0  0  0  0
 18 10  2  0  0  0  0
 19 20  1  0  0  0  0
 20 15  2  0  0  0  0
 21 22  2  0  0  0  0
 22 23  1  0  0  0  0
 23  8  1  0  0  0  0
 24 31  1  0  0  0  0
 24 28  1  0  0  0  0
 25 30  1  0  0  0  0
 27 24  1  0  0  0  0
 28 25  1  0  0  0  0
 29 26  1  1  0  0  0
 29 30  1  0  0  0  0
 30 22  1  6  0  0  0
 31 29  1  0  0  0  0
M  END
>  <MODEL>
5

>  <REMARK>
 VINA RESULT:      -8.6      4.092      7.577
  Name = 
  2 active torsions:
  status: ('A' for Active; 'I' for Inactive)
    1  A    between atoms: C_9  and  C_22
    2  A    between atoms: C_15  and  N_23
                            x       y       z     vdW  Elec       q    Type
                         _______ _______ _______ _____ _____    ______ ____

>  <TORSDO>
F 2

$$$$
