=
 OpenBabel11052422163D

 25 30  0  0  1  0  0  0  0  0999 V2000
  161.4580  206.4540  149.8840 N   0  0  0  0  0  0  0  0  0  0  0  0
  161.5690  207.8560  150.1830 C   0  0  0  0  0  0  0  0  0  0  0  0
  161.8020  206.8370  147.5360 C   0  0  0  0  0  3  0  0  0  0  0  0
  161.2220  205.3540  150.7570 C   0  0  0  0  0  0  0  0  0  0  0  0
  160.2800  210.2470  152.4360 C   0  0  0  0  0  2  0  0  0  0  0  0
  160.6290  210.9240  153.6790 N   0  0  2  0  0  0  0  0  0  0  0  0
  160.7730  203.0210  152.2090 C   0  0  0  0  0  3  0  0  0  0  0  0
  161.9250  208.2870  147.8100 C   0  0  0  0  0  3  0  0  0  0  0  0
  161.1710  204.1300  150.1060 C   0  0  0  0  0  0  0  0  0  0  0  0
  160.9470  202.9510  150.8190 C   0  0  0  0  0  3  0  0  0  0  0  0
  161.9470  210.2220  149.3190 C   0  0  0  0  0  0  0  0  0  0  0  0
  162.1910  211.1120  148.2810 O   0  0  0  0  0  1  0  0  0  0  0  0
  162.6480  210.0050  152.7870 C   0  0  0  0  0  2  0  0  0  0  0  0
  161.4560  208.3300  151.4270 C   0  0  0  0  0  3  0  0  0  0  0  0
  160.8250  204.2600  152.8690 C   0  0  0  0  0  3  0  0  0  0  0  0
  161.5800  205.9860  148.5420 C   0  0  0  0  0  0  0  0  0  0  0  0
  161.4120  204.2110  148.3260 S   0  0  0  0  0  0  0  0  0  0  0  0
  161.5620  209.8000  151.7600 C   0  0  1  0  0  0  0  0  0  0  0  0
  161.0500  205.4370  152.1420 C   0  0  0  0  0  3  0  0  0  0  0  0
  161.8320  210.6850  150.5660 C   0  0  0  0  0  3  0  0  0  0  0  0
  161.8170  208.7800  149.0550 C   0  0  0  0  0  0  0  0  0  0  0  0
  161.9250  210.3800  154.0590 C   0  0  0  0  0  2  0  0  0  0  0  0
  159.6680  210.5030  154.6890 C   0  0  0  0  0  3  0  0  0  0  0  0
  158.3250  211.1570  154.4190 C   0  0  0  0  0  2  0  0  0  0  0  0
  159.2250  211.7050  155.5040 C   0  0  0  0  0  2  0  0  0  0  0  0
  1  2  1  0  0  0  0
  1  4  1  0  0  0  0
  2 14  2  0  0  0  0
  3  8  1  0  0  0  0
  3 16  2  0  0  0  0
  4 19  1  0  0  0  0
  5  6  1  0  0  0  0
  6 22  1  0  0  0  0
  6 23  1  1  0  0  0
  7 15  1  0  0  0  0
  8 21  2  0  0  0  0
  9  4  2  0  0  0  0
  9 10  1  0  0  0  0
 10  7  2  0  0  0  0
 11 20  2  0  0  0  0
 12 11  1  0  0  0  0
 13 22  1  0  0  0  0
 14 18  1  0  0  0  0
 16  1  1  0  0  0  0
 17 16  1  0  0  0  0
 17  9  1  0  0  0  0
 18 20  1  6  0  0  0
 18  5  1  0  0  0  0
 18 13  1  0  0  0  0
 19 15  2  0  0  0  0
 21 11  1  0  0  0  0
 21  2  1  0  0  0  0
 23 25  1  0  0  0  0
 24 23  1  0  0  0  0
 24 25  1  0  0  0  0
M  END
>  <MODEL>
1

>  <REMARK>
 VINA RESULT:      -7.8      0.000      0.000
  Name = 
  1 active torsions:
  status: ('A' for Active; 'I' for Inactive)
    1  A    between atoms: C_2  and  N_7
                            x       y       z     vdW  Elec       q    Type
                         _______ _______ _______ _____ _____    ______ ____

>  <TORSDO>
F 1

$$$$
=
 OpenBabel11052422163D

 25 30  0  0  1  0  0  0  0  0999 V2000
  161.3730  205.9610  150.6800 N   0  0  0  0  0  0  0  0  0  0  0  0
  161.3310  204.8100  149.8180 C   0  0  0  0  0  0  0  0  0  0  0  0
  160.9260  204.6280  152.6290 C   0  0  0  0  0  3  0  0  0  0  0  0
  161.5990  207.3290  150.3580 C   0  0  0  0  0  0  0  0  0  0  0  0
  160.3970  203.9290  146.5310 C   0  0  0  0  0  2  0  0  0  0  0  0
  160.9840  203.7120  145.2150 N   0  0  2  0  0  0  0  0  0  0  0  0
  162.0040  210.0650  150.0360 C   0  0  0  0  0  3  0  0  0  0  0  0
  160.8800  203.4210  151.7710 C   0  0  0  0  0  3  0  0  0  0  0  0
  161.5600  208.1710  151.4600 C   0  0  0  0  0  0  0  0  0  0  0  0
  161.7620  209.5450  151.3150 C   0  0  0  0  0  3  0  0  0  0  0  0
  161.0300  202.2900  149.5980 C   0  0  0  0  0  0  0  0  0  0  0  0
  160.7980  201.0400  150.1600 O   0  0  0  0  0  1  0  0  0  0  0  0
  162.7660  203.6130  146.8060 C   0  0  0  0  0  2  0  0  0  0  0  0
  161.5200  204.9010  148.4990 C   0  0  0  0  0  3  0  0  0  0  0  0
  162.0440  209.2120  148.9200 C   0  0  0  0  0  3  0  0  0  0  0  0
  161.1630  205.8240  152.0830 C   0  0  0  0  0  0  0  0  0  0  0  0
  161.2390  207.3500  153.0260 S   0  0  0  0  0  0  0  0  0  0  0  0
  161.4720  203.7050  147.5770 C   0  0  1  0  0  0  0  0  0  0  0  0
  161.8390  207.8340  149.0770 C   0  0  0  0  0  3  0  0  0  0  0  0
  161.2190  202.3920  148.2810 C   0  0  0  0  0  3  0  0  0  0  0  0
  161.0700  203.4950  150.4430 C   0  0  0  0  0  0  0  0  0  0  0  0
  162.4070  203.9730  145.3840 C   0  0  0  0  0  2  0  0  0  0  0  0
  160.4560  204.7380  144.3280 C   0  0  0  0  0  3  0  0  0  0  0  0
  161.5100  205.8080  144.1020 C   0  0  0  0  0  2  0  0  0  0  0  0
  160.3750  206.0610  145.0700 C   0  0  0  0  0  2  0  0  0  0  0  0
  1 16  1  0  0  0  0
  2 21  1  0  0  0  0
  2  1  1  0  0  0  0
  4  1  1  0  0  0  0
  4  9  1  0  0  0  0
  6 23  1  6  0  0  0
  6 22  1  0  0  0  0
  6  5  1  0  0  0  0
  7 10  1  0  0  0  0
  8  3  1  0  0  0  0
  9 17  1  0  0  0  0
 10  9  2  0  0  0  0
 11 12  1  0  0  0  0
 11 21  1  0  0  0  0
 13 18  1  0  0  0  0
 14  2  2  0  0  0  0
 15 19  1  0  0  0  0
 15  7  2  0  0  0  0
 16  3  2  0  0  0  0
 16 17  1  0  0  0  0
 18  5  1  6  0  0  0
 18 20  1  0  0  0  0
 18 14  1  0  0  0  0
 19  4  2  0  0  0  0
 20 11  2  0  0  0  0
 21  8  2  0  0  0  0
 22 13  1  0  0  0  0
 23 25  1  0  0  0  0
 24 23  1  0  0  0  0
 24 25  1  0  0  0  0
M  END
>  <MODEL>
2

>  <REMARK>
 VINA RESULT:      -7.8      3.287      7.689
  Name = 
  1 active torsions:
  status: ('A' for Active; 'I' for Inactive)
    1  A    between atoms: C_2  and  N_7
                            x       y       z     vdW  Elec       q    Type
                         _______ _______ _______ _____ _____    ______ ____

>  <TORSDO>
F 1

$$$$
=
 OpenBabel11052422163D

 25 30  0  0  1  0  0  0  0  0999 V2000
  161.3890  204.7420  148.4530 N   0  0  0  0  0  0  0  0  0  0  0  0
  161.5670  205.9320  149.2410 C   0  0  0  0  0  0  0  0  0  0  0  0
  161.5690  205.9700  146.3950 C   0  0  0  0  0  3  0  0  0  0  0  0
  161.1840  203.3970  148.8730 C   0  0  0  0  0  0  0  0  0  0  0  0
  160.5290  207.3170  152.3160 C   0  0  0  0  0  2  0  0  0  0  0  0
  160.9910  207.4810  153.6890 N   0  0  2  0  0  0  0  0  0  0  0  0
  160.7690  200.6920  149.3870 C   0  0  0  0  0  3  0  0  0  0  0  0
  161.7590  207.2140  147.1750 C   0  0  0  0  0  3  0  0  0  0  0  0
  161.0440  202.5030  147.8210 C   0  0  0  0  0  0  0  0  0  0  0  0
  160.8360  201.1440  148.0620 C   0  0  0  0  0  3  0  0  0  0  0  0
  161.9560  208.4490  149.2870 C   0  0  0  0  0  0  0  0  0  0  0  0
  162.1520  209.6610  148.6360 O   0  0  0  0  0  1  0  0  0  0  0  0
  162.9070  206.9560  152.3580 C   0  0  0  0  0  2  0  0  0  0  0  0
  161.5630  205.9100  150.5760 C   0  0  0  0  0  3  0  0  0  0  0  0
  160.9100  201.5970  150.4530 C   0  0  0  0  0  3  0  0  0  0  0  0
  161.3950  204.8070  147.0290 C   0  0  0  0  0  0  0  0  0  0  0  0
  161.1550  203.2400  146.1850 S   0  0  0  0  0  0  0  0  0  0  0  0
  161.7410  207.1500  151.4200 C   0  0  1  0  0  0  0  0  0  0  0  0
  161.1180  202.9590  150.1990 C   0  0  0  0  0  3  0  0  0  0  0  0
  161.9500  208.4150  150.6210 C   0  0  0  0  0  3  0  0  0  0  0  0
  161.7600  207.2080  148.5190 C   0  0  0  0  0  0  0  0  0  0  0  0
  162.2940  206.8320  153.7330 C   0  0  0  0  0  2  0  0  0  0  0  0
  160.0950  206.7170  154.5440 C   0  0  0  0  0  3  0  0  0  0  0  0
  159.2680  207.6660  155.3930 C   0  0  0  0  0  2  0  0  0  0  0  0
  160.4560  206.9540  156.0010 C   0  0  0  0  0  2  0  0  0  0  0  0
  1  4  1  0  0  0  0
  1  2  1  0  0  0  0
  2 14  2  0  0  0  0
  3 16  2  0  0  0  0
  3  8  1  0  0  0  0
  4 19  1  0  0  0  0
  5  6  1  0  0  0  0
  6 22  1  0  0  0  0
  6 23  1  1  0  0  0
  7 15  1  0  0  0  0
  8 21  2  0  0  0  0
  9 10  1  0  0  0  0
  9  4  2  0  0  0  0
 10  7  2  0  0  0  0
 11 20  2  0  0  0  0
 12 11  1  0  0  0  0
 13 22  1  0  0  0  0
 16  1  1  0  0  0  0
 17 16  1  0  0  0  0
 17  9  1  0  0  0  0
 18 14  1  6  0  0  0
 18  5  1  0  0  0  0
 18 13  1  0  0  0  0
 19 15  2  0  0  0  0
 20 18  1  0  0  0  0
 21  2  1  0  0  0  0
 21 11  1  0  0  0  0
 23 24  1  0  0  0  0
 23 25  1  0  0  0  0
 24 25  1  0  0  0  0
M  END
>  <MODEL>
3

>  <REMARK>
 VINA RESULT:      -6.4      2.251      2.884
  Name = 
  1 active torsions:
  status: ('A' for Active; 'I' for Inactive)
    1  A    between atoms: C_2  and  N_7
                            x       y       z     vdW  Elec       q    Type
                         _______ _______ _______ _____ _____    ______ ____

>  <TORSDO>
F 1

$$$$
=
 OpenBabel11052422163D

 25 30  0  0  1  0  0  0  0  0999 V2000
  158.3410  211.9210  153.8850 N   0  0  0  0  0  0  0  0  0  0  0  0
  159.3380  210.8850  153.9160 C   0  0  0  0  0  0  0  0  0  0  0  0
  157.9180  211.7070  156.2410 C   0  0  0  0  0  3  0  0  0  0  0  0
  157.8720  212.6990  152.7890 C   0  0  0  0  0  0  0  0  0  0  0  0
  160.6270  208.3150  151.8690 C   0  0  0  0  0  2  0  0  0  0  0  0
  161.7390  208.0470  150.9670 N   0  0  2  0  0  0  0  0  0  0  0  0
  156.7620  214.3600  150.8490 C   0  0  0  0  0  3  0  0  0  0  0  0
  158.9420  210.6390  156.3090 C   0  0  0  0  0  3  0  0  0  0  0  0
  156.8870  213.6110  153.1370 C   0  0  0  0  0  0  0  0  0  0  0  0
  156.3200  214.4510  152.1770 C   0  0  0  0  0  3  0  0  0  0  0  0
  160.6390  209.1840  155.2950 C   0  0  0  0  0  0  0  0  0  0  0  0
  160.9320  208.5710  156.5080 O   0  0  0  0  0  1  0  0  0  0  0  0
  162.3420  209.9500  152.2830 C   0  0  0  0  0  2  0  0  0  0  0  0
  160.0000  210.5010  152.8210 C   0  0  0  0  0  3  0  0  0  0  0  0
  157.7600  213.4360  150.4960 C   0  0  0  0  0  3  0  0  0  0  0  0
  157.6530  212.3010  155.0750 C   0  0  0  0  0  0  0  0  0  0  0  0
  156.4330  213.6040  154.8760 S   0  0  0  0  0  0  0  0  0  0  0  0
  161.0450  209.4100  152.8320 C   0  0  1  0  0  0  0  0  0  0  0  0
  158.3210  212.5970  151.4690 C   0  0  0  0  0  3  0  0  0  0  0  0
  161.2940  208.8080  154.1950 C   0  0  0  0  0  3  0  0  0  0  0  0
  159.6180  210.2430  155.2180 C   0  0  0  0  0  0  0  0  0  0  0  0
  162.5150  209.2800  150.9400 C   0  0  0  0  0  2  0  0  0  0  0  0
  161.1840  207.8540  149.6350 C   0  0  0  0  0  3  0  0  0  0  0  0
  160.8200  206.3930  149.4410 C   0  0  0  0  0  2  0  0  0  0  0  0
  162.0920  206.9400  148.8310 C   0  0  0  0  0  2  0  0  0  0  0  0
  1  2  1  0  0  0  0
  1 16  1  0  0  0  0
  2 21  1  0  0  0  0
  3  8  1  0  0  0  0
  4  9  1  0  0  0  0
  4  1  1  0  0  0  0
  6 23  1  6  0  0  0
  6  5  1  0  0  0  0
  7 10  1  0  0  0  0
  9 17  1  0  0  0  0
 10  9  2  0  0  0  0
 11 12  1  0  0  0  0
 13 18  1  0  0  0  0
 14 18  1  0  0  0  0
 14  2  2  0  0  0  0
 15  7  2  0  0  0  0
 15 19  1  0  0  0  0
 16  3  2  0  0  0  0
 17 16  1  0  0  0  0
 18  5  1  6  0  0  0
 18 20  1  0  0  0  0
 19  4  2  0  0  0  0
 20 11  2  0  0  0  0
 21 11  1  0  0  0  0
 21  8  2  0  0  0  0
 22  6  1  0  0  0  0
 22 13  1  0  0  0  0
 24 23  1  0  0  0  0
 25 24  1  0  0  0  0
 25 23  1  0  0  0  0
M  END
>  <MODEL>
4

>  <REMARK>
 VINA RESULT:      -5.9      3.764      7.922
  Name = 
  1 active torsions:
  status: ('A' for Active; 'I' for Inactive)
    1  A    between atoms: C_2  and  N_7
                            x       y       z     vdW  Elec       q    Type
                         _______ _______ _______ _____ _____    ______ ____

>  <TORSDO>
F 1

$$$$
=
 OpenBabel11052422163D

 25 30  0  0  1  0  0  0  0  0999 V2000
  161.2320  209.3570  151.5970 N   0  0  0  0  0  0  0  0  0  0  0  0
  160.6410  210.5800  152.0700 C   0  0  0  0  0  0  0  0  0  0  0  0
  161.8970  210.3760  149.5240 C   0  0  0  0  0  3  0  0  0  0  0  0
  161.3140  208.0830  152.2280 C   0  0  0  0  0  0  0  0  0  0  0  0
  157.9540  211.6820  154.0750 C   0  0  0  0  0  2  0  0  0  0  0  0
  157.6750  212.1340  155.4320 N   0  0  2  0  0  0  0  0  0  0  0  0
  161.6220  205.4930  153.2030 C   0  0  0  0  0  3  0  0  0  0  0  0
  161.3020  211.6520  149.9830 C   0  0  0  0  0  3  0  0  0  0  0  0
  161.9580  207.1240  151.4600 C   0  0  0  0  0  0  0  0  0  0  0  0
  162.1200  205.8210  151.9350 C   0  0  0  0  0  3  0  0  0  0  0  0
  160.1230  213.0350  151.6330 C   0  0  0  0  0  0  0  0  0  0  0  0
  160.1800  214.1640  150.8240 O   0  0  0  0  0  1  0  0  0  0  0  0
  160.0360  212.3130  155.1020 C   0  0  0  0  0  2  0  0  0  0  0  0
  160.0510  210.6690  153.2650 C   0  0  0  0  0  3  0  0  0  0  0  0
  160.9700  206.4640  153.9820 C   0  0  0  0  0  3  0  0  0  0  0  0
  161.8500  209.2990  150.3130 C   0  0  0  0  0  0  0  0  0  0  0  0
  162.5370  207.7030  149.8600 S   0  0  0  0  0  0  0  0  0  0  0  0
  159.4180  211.9430  153.7770 C   0  0  1  0  0  0  0  0  0  0  0  0
  160.8120  207.7690  153.4950 C   0  0  0  0  0  3  0  0  0  0  0  0
  159.5340  213.1130  152.8280 C   0  0  0  0  0  3  0  0  0  0  0  0
  160.7070  211.7600  151.1820 C   0  0  0  0  0  0  0  0  0  0  0  0
  158.9530  212.0690  156.1260 C   0  0  0  0  0  2  0  0  0  0  0  0
  156.7970  211.1480  156.0460 C   0  0  0  0  0  3  0  0  0  0  0  0
  155.6170  210.8760  155.1300 C   0  0  0  0  0  2  0  0  0  0  0  0
  155.4450  211.7780  156.3320 C   0  0  0  0  0  2  0  0  0  0  0  0
  1  2  1  0  0  0  0
  1  4  1  0  0  0  0
  2 14  2  0  0  0  0
  3  8  1  0  0  0  0
  3 16  2  0  0  0  0
  4 19  1  0  0  0  0
  5  6  1  0  0  0  0
  6 23  1  1  0  0  0
  6 22  1  0  0  0  0
  7 15  1  0  0  0  0
  8 21  2  0  0  0  0
  9 10  1  0  0  0  0
  9  4  2  0  0  0  0
 10  7  2  0  0  0  0
 11 20  2  0  0  0  0
 12 11  1  0  0  0  0
 13 22  1  0  0  0  0
 14 18  1  0  0  0  0
 16  1  1  0  0  0  0
 17 16  1  0  0  0  0
 17  9  1  0  0  0  0
 18 20  1  6  0  0  0
 18  5  1  0  0  0  0
 18 13  1  0  0  0  0
 19 15  2  0  0  0  0
 21 11  1  0  0  0  0
 21  2  1  0  0  0  0
 23 25  1  0  0  0  0
 24 23  1  0  0  0  0
 24 25  1  0  0  0  0
M  END
>  <MODEL>
5

>  <REMARK>
 VINA RESULT:      -5.7      2.344      3.583
  Name = 
  1 active torsions:
  status: ('A' for Active; 'I' for Inactive)
    1  A    between atoms: C_2  and  N_7
                            x       y       z     vdW  Elec       q    Type
                         _______ _______ _______ _____ _____    ______ ____

>  <TORSDO>
F 1

$$$$
=
 OpenBabel11052422163D

 25 30  0  0  1  0  0  0  0  0999 V2000
  161.4540  206.1680  149.7640 N   0  0  0  0  0  0  0  0  0  0  0  0
  161.5180  207.4380  150.4360 C   0  0  0  0  0  0  0  0  0  0  0  0
  161.8870  207.1780  147.6260 C   0  0  0  0  0  3  0  0  0  0  0  0
  161.2090  204.8710  150.2960 C   0  0  0  0  0  0  0  0  0  0  0  0
  160.0770  209.1140  153.1880 C   0  0  0  0  0  2  0  0  0  0  0  0
  160.3550  209.4320  154.5820 N   0  0  2  0  0  0  0  0  0  0  0  0
  160.7560  202.2260  151.0390 C   0  0  0  0  0  3  0  0  0  0  0  0
  161.9630  208.5010  148.2870 C   0  0  0  0  0  3  0  0  0  0  0  0
  161.2150  203.8680  149.3360 C   0  0  0  0  0  0  0  0  0  0  0  0
  160.9900  202.5370  149.6930 C   0  0  0  0  0  3  0  0  0  0  0  0
  161.8740  209.9550  150.2620 C   0  0  0  0  0  0  0  0  0  0  0  0
  162.1400  211.0960  149.5160 O   0  0  0  0  0  1  0  0  0  0  0  0
  162.4320  208.8140  153.5710 C   0  0  0  0  0  2  0  0  0  0  0  0
  161.3410  207.5560  151.7550 C   0  0  0  0  0  3  0  0  0  0  0  0
  160.7500  203.2400  152.0110 C   0  0  0  0  0  3  0  0  0  0  0  0
  161.6440  206.0840  148.3530 C   0  0  0  0  0  0  0  0  0  0  0  0
  161.5300  204.4320  147.6580 S   0  0  0  0  0  0  0  0  0  0  0  0
  161.3960  208.8820  152.4770 C   0  0  1  0  0  0  0  0  0  0  0  0
  160.9770  204.5730  151.6420 C   0  0  0  0  0  3  0  0  0  0  0  0
  161.6950  210.0610  151.5810 C   0  0  0  0  0  3  0  0  0  0  0  0
  161.7900  208.6360  149.6120 C   0  0  0  0  0  0  0  0  0  0  0  0
  161.6480  208.8220  154.8620 C   0  0  0  0  0  2  0  0  0  0  0  0
  159.3630  208.7410  155.3930 C   0  0  0  0  0  3  0  0  0  0  0  0
  159.9400  208.4540  156.7680 C   0  0  0  0  0  2  0  0  0  0  0  0
  159.8650  207.3500  155.7370 C   0  0  0  0  0  2  0  0  0  0  0  0
  1  4  1  0  0  0  0
  1  2  1  0  0  0  0
  2 14  2  0  0  0  0
  3  8  1  0  0  0  0
  3 16  2  0  0  0  0
  4 19  1  0  0  0  0
  5  6  1  0  0  0  0
  6 22  1  0  0  0  0
  6 23  1  1  0  0  0
  7 15  1  0  0  0  0
  8 21  2  0  0  0  0
  9 10  1  0  0  0  0
  9  4  2  0  0  0  0
 10  7  2  0  0  0  0
 11 20  2  0  0  0  0
 12 11  1  0  0  0  0
 13 22  1  0  0  0  0
 14 18  1  0  0  0  0
 16  1  1  0  0  0  0
 17 16  1  0  0  0  0
 17  9  1  0  0  0  0
 18 20  1  6  0  0  0
 18  5  1  0  0  0  0
 18 13  1  0  0  0  0
 19 15  2  0  0  0  0
 21 11  1  0  0  0  0
 21  2  1  0  0  0  0
 23 25  1  0  0  0  0
 23 24  1  0  0  0  0
 25 24  1  0  0  0  0
M  END
>  <MODEL>
6

>  <REMARK>
 VINA RESULT:      -5.6      1.325      1.598
  Name = 
  1 active torsions:
  status: ('A' for Active; 'I' for Inactive)
    1  A    between atoms: C_2  and  N_7
                            x       y       z     vdW  Elec       q    Type
                         _______ _______ _______ _____ _____    ______ ____

>  <TORSDO>
F 1

$$$$
=
 OpenBabel11052422163D

 25 30  0  0  1  0  0  0  0  0999 V2000
  159.7270  211.0890  153.6870 N   0  0  0  0  0  0  0  0  0  0  0  0
  160.2750  209.7740  153.4900 C   0  0  0  0  0  0  0  0  0  0  0  0
  159.1750  210.6110  155.9770 C   0  0  0  0  0  3  0  0  0  0  0  0
  159.6130  212.1720  152.7710 C   0  0  0  0  0  0  0  0  0  0  0  0
  160.6040  207.3380  150.9570 C   0  0  0  0  0  2  0  0  0  0  0  0
  161.5720  206.8540  149.9810 N   0  0  2  0  0  0  0  0  0  0  0  0
  159.2530  214.4530  151.2140 C   0  0  0  0  0  3  0  0  0  0  0  0
  159.7340  209.2500  155.8090 C   0  0  0  0  0  3  0  0  0  0  0  0
  159.0180  213.3010  153.3180 C   0  0  0  0  0  0  0  0  0  0  0  0
  158.8310  214.4520  152.5510 C   0  0  0  0  0  3  0  0  0  0  0  0
  160.8160  207.4910  154.4820 C   0  0  0  0  0  0  0  0  0  0  0  0
  160.8230  206.6000  155.5490 O   0  0  0  0  0  1  0  0  0  0  0  0
  162.7830  208.1260  151.6030 C   0  0  0  0  0  2  0  0  0  0  0  0
  160.7880  209.3840  152.3190 C   0  0  0  0  0  3  0  0  0  0  0  0
  159.8560  213.3110  150.6600 C   0  0  0  0  0  3  0  0  0  0  0  0
  159.1850  211.4660  154.9510 C   0  0  0  0  0  0  0  0  0  0  0  0
  158.5340  213.1370  155.0420 S   0  0  0  0  0  0  0  0  0  0  0  0
  161.3600  208.0050  152.0900 C   0  0  1  0  0  0  0  0  0  0  0  0
  160.0390  212.1610  151.4400 C   0  0  0  0  0  3  0  0  0  0  0  0
  161.3250  207.1120  153.3080 C   0  0  0  0  0  3  0  0  0  0  0  0
  160.2560  208.8440  154.6400 C   0  0  0  0  0  0  0  0  0  0  0  0
  162.7440  207.7000  150.1540 C   0  0  0  0  0  2  0  0  0  0  0  0
  161.0300  207.1280  148.6580 C   0  0  0  0  0  3  0  0  0  0  0  0
  160.6310  205.8240  147.9910 C   0  0  0  0  0  2  0  0  0  0  0  0
  161.9240  206.5030  147.6010 C   0  0  0  0  0  2  0  0  0  0  0  0
  1 16  1  0  0  0  0
  2  1  1  0  0  0  0
  2 21  1  0  0  0  0
  4  9  1  0  0  0  0
  4  1  1  0  0  0  0
  6 23  1  6  0  0  0
  6 22  1  0  0  0  0
  6  5  1  0  0  0  0
  7 10  1  0  0  0  0
  8  3  1  0  0  0  0
  9 17  1  0  0  0  0
 10  9  2  0  0  0  0
 11 21  1  0  0  0  0
 11 12  1  0  0  0  0
 13 18  1  0  0  0  0
 14  2  2  0  0  0  0
 15  7  2  0  0  0  0
 15 19  1  0  0  0  0
 16 17  1  0  0  0  0
 16  3  2  0  0  0  0
 18  5  1  6  0  0  0
 18 14  1  0  0  0  0
 18 20  1  0  0  0  0
 19  4  2  0  0  0  0
 20 11  2  0  0  0  0
 21  8  2  0  0  0  0
 22 13  1  0  0  0  0
 24 23  1  0  0  0  0
 25 24  1  0  0  0  0
 25 23  1  0  0  0  0
M  END
>  <MODEL>
7

>  <REMARK>
 VINA RESULT:      -5.3      3.486      7.614
  Name = 
  1 active torsions:
  status: ('A' for Active; 'I' for Inactive)
    1  A    between atoms: C_2  and  N_7
                            x       y       z     vdW  Elec       q    Type
                         _______ _______ _______ _____ _____    ______ ____

>  <TORSDO>
F 1

$$$$
=
 OpenBabel11052422163D

 25 30  0  0  1  0  0  0  0  0999 V2000
  161.2850  208.7630  152.2750 N   0  0  0  0  0  0  0  0  0  0  0  0
  161.6220  208.9930  150.8960 C   0  0  0  0  0  0  0  0  0  0  0  0
  161.5800  206.3890  152.0420 C   0  0  0  0  0  3  0  0  0  0  0  0
  160.9230  209.6930  153.2890 C   0  0  0  0  0  0  0  0  0  0  0  0
  160.8140  211.1810  148.2470 C   0  0  0  0  0  2  0  0  0  0  0  0
  161.3160  212.3780  147.5840 N   0  0  2  0  0  0  0  0  0  0  0  0
  160.1860  211.2660  155.4660 C   0  0  0  0  0  3  0  0  0  0  0  0
  161.9350  206.5910  150.6190 C   0  0  0  0  0  3  0  0  0  0  0  0
  160.6560  209.1010  154.5160 C   0  0  0  0  0  0  0  0  0  0  0  0
  160.2860  209.8760  155.6160 C   0  0  0  0  0  3  0  0  0  0  0  0
  162.3190  208.0080  148.6530 C   0  0  0  0  0  0  0  0  0  0  0  0
  162.6510  206.9210  147.8530 O   0  0  0  0  0  1  0  0  0  0  0  0
  163.1300  211.4530  148.8380 C   0  0  0  0  0  2  0  0  0  0  0  0
  161.6380  210.2170  150.3610 C   0  0  0  0  0  3  0  0  0  0  0  0
  160.4560  211.8660  154.2250 C   0  0  0  0  0  3  0  0  0  0  0  0
  161.2750  207.4400  152.8080 C   0  0  0  0  0  0  0  0  0  0  0  0
  160.8290  207.3120  154.5430 S   0  0  0  0  0  0  0  0  0  0  0  0
  161.9810  210.4790  148.9130 C   0  0  1  0  0  0  0  0  0  0  0  0
  160.8260  211.0780  153.1260 C   0  0  0  0  0  3  0  0  0  0  0  0
  162.3310  209.2360  148.1280 C   0  0  0  0  0  3  0  0  0  0  0  0
  161.9590  207.8150  150.0670 C   0  0  0  0  0  0  0  0  0  0  0  0
  162.5300  212.7340  148.3060 C   0  0  0  0  0  2  0  0  0  0  0  0
  160.3480  213.4400  147.8110 C   0  0  0  0  0  3  0  0  0  0  0  0
  158.9950  213.0230  147.2610 C   0  0  0  0  0  2  0  0  0  0  0  0
  159.8630  213.9830  146.4780 C   0  0  0  0  0  2  0  0  0  0  0  0
  1 16  1  0  0  0  0
  1  4  1  0  0  0  0
  2  1  1  0  0  0  0
  3 16  2  0  0  0  0
  4  9  1  0  0  0  0
  5 18  1  0  0  0  0
  6 23  1  1  0  0  0
  6  5  1  0  0  0  0
  6 22  1  0  0  0  0
  7 10  1  0  0  0  0
  8  3  1  0  0  0  0
  9 17  1  0  0  0  0
  9 10  2  0  0  0  0
 11 21  1  0  0  0  0
 12 11  1  0  0  0  0
 13 18  1  0  0  0  0
 14  2  2  0  0  0  0
 15  7  2  0  0  0  0
 16 17  1  0  0  0  0
 18 20  1  6  0  0  0
 18 14  1  0  0  0  0
 19  4  2  0  0  0  0
 19 15  1  0  0  0  0
 20 11  2  0  0  0  0
 21  8  2  0  0  0  0
 21  2  1  0  0  0  0
 22 13  1  0  0  0  0
 24 23  1  0  0  0  0
 25 24  1  0  0  0  0
 25 23  1  0  0  0  0
M  END
>  <MODEL>
8

>  <REMARK>
 VINA RESULT:      -5.3      2.904      5.611
  Name = 
  1 active torsions:
  status: ('A' for Active; 'I' for Inactive)
    1  A    between atoms: C_2  and  N_7
                            x       y       z     vdW  Elec       q    Type
                         _______ _______ _______ _____ _____    ______ ____

>  <TORSDO>
F 1

$$$$
=
 OpenBabel11052422163D

 25 30  0  0  1  0  0  0  0  0999 V2000
  160.3980  209.9350  154.2340 N   0  0  0  0  0  0  0  0  0  0  0  0
  159.8660  211.2210  153.8710 C   0  0  0  0  0  0  0  0  0  0  0  0
  160.4710  210.5240  156.5630 C   0  0  0  0  0  3  0  0  0  0  0  0
  160.7220  208.8210  153.4100 C   0  0  0  0  0  0  0  0  0  0  0  0
  159.9820  213.5400  151.2140 C   0  0  0  0  0  2  0  0  0  0  0  0
  159.2150  213.9500  150.0440 N   0  0  2  0  0  0  0  0  0  0  0  0
  161.4460  206.4940  152.0620 C   0  0  0  0  0  3  0  0  0  0  0  0
  159.9190  211.8560  156.2250 C   0  0  0  0  0  3  0  0  0  0  0  0
  161.2270  207.7370  154.1160 C   0  0  0  0  0  0  0  0  0  0  0  0
  161.5940  206.5640  153.4550 C   0  0  0  0  0  3  0  0  0  0  0  0
  159.0770  213.5210  154.6300 C   0  0  0  0  0  0  0  0  0  0  0  0
  158.8340  214.4530  155.6320 O   0  0  0  0  0  1  0  0  0  0  0  0
  157.7400  212.7010  151.4520 C   0  0  0  0  0  2  0  0  0  0  0  0
  159.5860  211.5450  152.6060 C   0  0  0  0  0  3  0  0  0  0  0  0
  160.9350  207.5900  151.3480 C   0  0  0  0  0  3  0  0  0  0  0  0
  160.6880  209.6290  155.5960 C   0  0  0  0  0  0  0  0  0  0  0  0
  161.3530  207.9870  155.8910 S   0  0  0  0  0  0  0  0  0  0  0  0
  159.0340  212.8920  152.2040 C   0  0  1  0  0  0  0  0  0  0  0  0
  160.5700  208.7640  152.0210 C   0  0  0  0  0  3  0  0  0  0  0  0
  158.8010  213.8340  153.3620 C   0  0  0  0  0  3  0  0  0  0  0  0
  159.6300  212.1970  154.9580 C   0  0  0  0  0  0  0  0  0  0  0  0
  158.0550  213.0700  150.0210 C   0  0  0  0  0  2  0  0  0  0  0  0
  160.0170  213.6430  148.8680 C   0  0  0  0  0  3  0  0  0  0  0  0
  161.3210  212.9930  149.2960 C   0  0  0  0  0  2  0  0  0  0  0  0
  161.3010  214.4530  148.9000 C   0  0  0  0  0  2  0  0  0  0  0  0
  1 16  1  0  0  0  0
  2  1  1  0  0  0  0
  2 21  1  0  0  0  0
  4  9  1  0  0  0  0
  4  1  1  0  0  0  0
  6 23  1  6  0  0  0
  6  5  1  0  0  0  0
  7 10  1  0  0  0  0
  8  3  1  0  0  0  0
  9 17  1  0  0  0  0
 10  9  2  0  0  0  0
 11 21  1  0  0  0  0
 11 12  1  0  0  0  0
 13 18  1  0  0  0  0
 14  2  2  0  0  0  0
 15 19  1  0  0  0  0
 15  7  2  0  0  0  0
 16 17  1  0  0  0  0
 16  3  2  0  0  0  0
 18  5  1  6  0  0  0
 18 14  1  0  0  0  0
 18 20  1  0  0  0  0
 19  4  2  0  0  0  0
 20 11  2  0  0  0  0
 21  8  2  0  0  0  0
 22  6  1  0  0  0  0
 22 13  1  0  0  0  0
 23 25  1  0  0  0  0
 23 24  1  0  0  0  0
 25 24  1  0  0  0  0
M  END
>  <MODEL>
9

>  <REMARK>
 VINA RESULT:      -5.2      3.538      6.215
  Name = 
  1 active torsions:
  status: ('A' for Active; 'I' for Inactive)
    1  A    between atoms: C_2  and  N_7
                            x       y       z     vdW  Elec       q    Type
                         _______ _______ _______ _____ _____    ______ ____

>  <TORSDO>
F 1

$$$$
