=
 OpenBabel11062410253D

 43 48  0  0  1  0  0  0  0  0999 V2000
  160.9320  203.7830  149.6470 C   0  0  0  0  0  0  0  0  0  0  0  0
  161.7420  208.3920  151.7010 C   0  0  0  0  0  0  0  0  0  0  0  0
  161.9990  210.2300  149.5860 C   0  0  0  0  0  0  0  0  0  0  0  0
  161.4970  205.5860  151.1660 C   0  0  0  0  0  0  0  0  0  0  0  0
  160.8280  204.7760  148.5530 C   0  0  0  0  0  3  0  0  0  0  0  0
  160.6790  202.4440  149.3850 O   0  0  0  0  0  1  0  0  0  0  0  0
  161.9060  206.4630  150.0010 C   0  0  1  0  0  3  0  0  0  0  0  0
  161.2180  204.1700  150.8950 C   0  0  0  0  0  3  0  0  0  0  0  0
  161.2290  206.0410  148.7240 C   0  0  0  0  0  3  0  0  0  0  0  0
  161.9370  208.8120  149.3430 N   0  0  0  0  0  0  0  0  0  0  0  0
  161.8000  207.9350  150.2960 C   0  0  0  0  0  0  0  0  0  0  0  0
  161.5740  207.5030  152.6920 C   0  0  0  0  0  3  0  0  0  0  0  0
  161.8310  209.8060  151.9530 N   0  0  0  0  0  0  0  0  0  0  0  0
  161.9530  210.7040  150.8380 C   0  0  0  0  0  3  0  0  0  0  0  0
  161.4100  206.0650  152.4110 C   0  0  0  0  0  3  0  0  0  0  0  0
  162.0970  211.1880  148.4390 C   0  0  2  0  0  3  0  0  0  0  0  0
  163.5440  211.5950  148.2360 C   0  0  0  0  0  1  0  0  0  0  0  0
  161.3000  212.3840  148.7010 N   0  0  0  0  0  2  0  0  0  0  0  0
  161.1240  213.4400  147.7520 C   0  0  0  0  0  0  0  0  0  0  0  0
  161.8080  213.4690  146.6940 O   0  0  0  0  0  0  0  0  0  0  0  0
  160.1960  214.4530  147.9980 O   0  0  0  0  0  0  0  0  0  0  0  0
  158.8020  214.2340  147.8310 C   0  0  2  0  0  3  0  0  0  0  0  0
  157.3680  212.3060  147.4090 C   0  0  0  0  0  2  0  0  0  0  0  0
  158.1760  213.8050  149.1380 C   0  0  0  0  0  2  0  0  0  0  0  0
  158.5550  213.0890  146.8660 C   0  0  1  0  0  3  0  0  0  0  0  0
  157.0070  212.9260  148.7500 C   0  0  0  0  0  2  0  0  0  0  0  0
  158.9760  213.0840  144.3560 N   0  0  0  0  0  0  0  0  0  0  0  0
  158.2590  213.5970  145.4850 C   0  0  0  0  0  0  0  0  0  0  0  0
  159.6890  212.6920  142.3490 C   0  0  0  0  0  0  0  0  0  0  0  0
  160.4150  211.8840  143.1410 N   0  0  0  0  0  0  0  0  0  0  0  0
  159.8310  212.7400  140.9350 N   0  0  0  0  0  1  0  0  0  0  0  0
  159.9520  212.1510  144.3800 C   0  0  0  0  0  3  0  0  0  0  0  0
  158.7940  213.4420  143.0740 C   0  0  0  0  0  3  0  0  0  0  0  0
  157.3470  214.4530  145.3120 O   0  0  0  0  0  0  0  0  0  0  0  0
  161.7310  210.3620  153.2990 C   0  0  0  0  0  2  0  0  0  0  0  0
  158.2670  211.8120  152.7390 C   0  0  0  0  0  3  0  0  0  0  0  0
  157.7560  211.8350  154.0400 C   0  0  0  0  0  0  0  0  0  0  0  0
  159.8470  210.8970  154.8600 C   0  0  0  0  0  3  0  0  0  0  0  0
  159.5600  211.3330  152.4960 C   0  0  0  0  0  3  0  0  0  0  0  0
  160.3480  210.8700  153.5550 C   0  0  0  0  0  0  0  0  0  0  0  0
  158.5550  211.3760  155.1030 C   0  0  0  0  0  3  0  0  0  0  0  0
  155.8890  212.4530  155.5420 C   0  0  0  0  0  1  0  0  0  0  0  0
  156.4570  212.3120  154.2470 O   0  0  0  0  0  0  0  0  0  0  0  0
  1  8  2  0  0  0  0
  2 13  1  0  0  0  0
  2 12  2  0  0  0  0
  3 14  2  0  0  0  0
  4 15  2  0  0  0  0
  5  9  2  0  0  0  0
  5  1  1  0  0  0  0
  6  1  1  0  0  0  0
  7  9  1  6  0  0  0
  7 11  1  0  0  0  0
  7  4  1  0  0  0  0
  8  4  1  0  0  0  0
 10  3  1  0  0  0  0
 10 11  2  0  0  0  0
 11  2  1  0  0  0  0
 13 35  1  0  0  0  0
 14 13  1  0  0  0  0
 15 12  1  0  0  0  0
 16 17  1  1  0  0  0
 16 18  1  0  0  0  0
 16  3  1  0  0  0  0
 19 21  1  0  0  0  0
 19 18  1  0  0  0  0
 20 19  2  0  0  0  0
 22 21  1  1  0  0  0
 22 24  1  0  0  0  0
 23 26  1  0  0  0  0
 25 28  1  6  0  0  0
 25 23  1  0  0  0  0
 25 22  1  0  0  0  0
 26 24  1  0  0  0  0
 27 32  1  0  0  0  0
 27 28  1  0  0  0  0
 29 33  2  0  0  0  0
 29 30  1  0  0  0  0
 30 32  2  0  0  0  0
 31 29  1  0  0  0  0
 33 27  1  0  0  0  0
 34 28  2  0  0  0  0
 35 40  1  0  0  0  0
 36 37  1  0  0  0  0
 37 43  1  0  0  0  0
 37 41  2  0  0  0  0
 38 41  1  0  0  0  0
 39 36  2  0  0  0  0
 39 40  1  0  0  0  0
 40 38  2  0  0  0  0
 43 42  1  0  0  0  0
M  END
>  <MODEL>
1

>  <REMARK>
 VINA RESULT:      -8.7      0.000      0.000
  Name = 
  8 active torsions:
  status: ('A' for Active; 'I' for Inactive)
    1  A    between atoms: C_1  and  N_34
    2  A    between atoms: C_1  and  C_35
    3  A    between atoms: C_2  and  N_6
    4  A    between atoms: C_2  and  C_13
    5  A    between atoms: O_3  and  C_4
    6  A    between atoms: O_3  and  C_12
    7  A    between atoms: C_14  and  C_22
    8  A    between atoms: C_19  and  O_37
                            x       y       z     vdW  Elec       q    Type
                         _______ _______ _______ _____ _____    ______ ____

>  <TORSDO>
F 8

$$$$
=
 OpenBabel11062410253D

 43 48  0  0  1  0  0  0  0  0999 V2000
  161.0680  203.0730  146.7130 C   0  0  0  0  0  0  0  0  0  0  0  0
  161.3030  205.5250  151.1910 C   0  0  0  0  0  0  0  0  0  0  0  0
  161.9730  208.2050  150.6560 C   0  0  0  0  0  0  0  0  0  0  0  0
  161.2460  203.5910  149.0740 C   0  0  0  0  0  0  0  0  0  0  0  0
  161.1820  204.5190  146.4160 C   0  0  0  0  0  3  0  0  0  0  0  0
  160.9090  202.1690  145.6720 O   0  0  0  0  0  1  0  0  0  0  0  0
  161.8790  204.9290  148.7510 C   0  0  0  0  0  0  0  0  0  0  0  0
  161.0660  202.6330  147.9760 C   0  0  0  0  0  2  0  0  0  0  0  0
  161.5070  205.3990  147.3700 C   0  0  0  0  0  3  0  0  0  0  0  0
  161.9990  207.2050  149.6200 N   0  0  0  0  0  0  0  0  0  0  0  0
  161.6770  205.9600  149.8280 C   0  0  0  0  0  0  0  0  0  0  0  0
  160.9430  204.2520  151.4160 C   0  0  0  0  0  3  0  0  0  0  0  0
  161.3020  206.5130  152.2360 N   0  0  0  0  0  0  0  0  0  0  0  0
  161.6440  207.8700  151.9110 C   0  0  0  0  0  3  0  0  0  0  0  0
  160.8780  203.2690  150.3190 C   0  0  0  0  0  3  0  0  0  0  0  0
  162.2960  209.6320  150.3360 C   0  0  2  0  0  3  0  0  0  0  0  0
  162.0330  210.5000  151.5520 C   0  0  0  0  0  1  0  0  0  0  0  0
  161.4750  210.1060  149.2260 N   0  0  0  0  0  2  0  0  0  0  0  0
  161.8590  211.1780  148.3590 C   0  0  0  0  0  0  0  0  0  0  0  0
  162.8640  211.8900  148.6300 O   0  0  0  0  0  0  0  0  0  0  0  0
  161.1180  211.4460  147.2080 O   0  0  0  0  0  0  0  0  0  0  0  0
  160.9140  212.7780  146.7550 C   0  0  2  0  0  3  0  0  0  0  0  0
  159.3740  213.8950  145.2280 C   0  0  0  0  0  2  0  0  0  0  0  0
  159.8330  213.4520  147.5700 C   0  0  0  0  0  2  0  0  0  0  0  0
  160.4080  212.7820  145.3240 C   0  0  1  0  0  3  0  0  0  0  0  0
  159.1940  214.4520  146.6310 C   0  0  0  0  0  2  0  0  0  0  0  0
  161.4920  212.4350  143.0480 N   0  0  0  0  0  0  0  0  0  0  0  0
  161.5280  213.0230  144.3540 C   0  0  0  0  0  0  0  0  0  0  0  0
  161.9650  211.8540  141.0160 C   0  0  0  0  0  0  0  0  0  0  0  0
  160.7900  211.2580  141.2850 N   0  0  0  0  0  0  0  0  0  0  0  0
  162.6330  211.7430  139.7660 N   0  0  0  0  0  1  0  0  0  0  0  0
  160.5240  211.6350  142.5530 C   0  0  0  0  0  3  0  0  0  0  0  0
  162.4180  212.5870  142.0870 C   0  0  0  0  0  3  0  0  0  0  0  0
  162.4880  213.7770  144.6760 O   0  0  0  0  0  0  0  0  0  0  0  0
  160.8980  206.1960  153.6030 C   0  0  0  0  0  2  0  0  0  0  0  0
  160.2560  209.7250  154.8470 C   0  0  0  0  0  3  0  0  0  0  0  0
  160.9670  209.7340  156.0510 C   0  0  0  0  0  0  0  0  0  0  0  0
  161.6380  207.4290  155.6530 C   0  0  0  0  0  3  0  0  0  0  0  0
  160.2320  208.5750  154.0490 C   0  0  0  0  0  3  0  0  0  0  0  0
  160.9180  207.4250  154.4550 C   0  0  0  0  0  0  0  0  0  0  0  0
  161.6620  208.5790  156.4510 C   0  0  0  0  0  3  0  0  0  0  0  0
  160.2230  212.0570  156.4690 C   0  0  0  0  0  1  0  0  0  0  0  0
  160.9640  210.8980  156.8280 O   0  0  0  0  0  0  0  0  0  0  0  0
  1  8  1  0  0  0  0
  2 12  2  0  0  0  0
  2 13  1  0  0  0  0
  3 14  2  0  0  0  0
  4 15  2  0  0  0  0
  5  1  2  0  0  0  0
  5  9  1  0  0  0  0
  6  1  1  0  0  0  0
  7  4  1  0  0  0  0
  7 11  1  0  0  0  0
  8  4  1  0  0  0  0
  9  7  2  0  0  0  0
 10 11  2  0  0  0  0
 10  3  1  0  0  0  0
 11  2  1  0  0  0  0
 13 35  1  0  0  0  0
 14 13  1  0  0  0  0
 15 12  1  0  0  0  0
 16  3  1  0  0  0  0
 16 17  1  1  0  0  0
 18 16  1  0  0  0  0
 19 20  2  0  0  0  0
 19 18  1  0  0  0  0
 21 19  1  0  0  0  0
 22 21  1  1  0  0  0
 22 24  1  0  0  0  0
 23 25  1  0  0  0  0
 23 26  1  0  0  0  0
 25 28  1  6  0  0  0
 25 22  1  0  0  0  0
 26 24  1  0  0  0  0
 27 28  1  0  0  0  0
 28 34  2  0  0  0  0
 29 30  1  0  0  0  0
 29 33  2  0  0  0  0
 30 32  2  0  0  0  0
 31 29  1  0  0  0  0
 32 27  1  0  0  0  0
 33 27  1  0  0  0  0
 35 40  1  0  0  0  0
 36 37  1  0  0  0  0
 37 41  2  0  0  0  0
 37 43  1  0  0  0  0
 38 41  1  0  0  0  0
 39 40  1  0  0  0  0
 39 36  2  0  0  0  0
 40 38  2  0  0  0  0
 42 43  1  0  0  0  0
M  END
>  <MODEL>
2

>  <REMARK>
 VINA RESULT:      -8.5      2.296      3.261
  Name = 
  8 active torsions:
  status: ('A' for Active; 'I' for Inactive)
    1  A    between atoms: C_1  and  N_34
    2  A    between atoms: C_1  and  C_35
    3  A    between atoms: C_2  and  N_6
    4  A    between atoms: C_2  and  C_13
    5  A    between atoms: O_3  and  C_4
    6  A    between atoms: O_3  and  C_12
    7  A    between atoms: C_14  and  C_22
    8  A    between atoms: C_19  and  O_37
                            x       y       z     vdW  Elec       q    Type
                         _______ _______ _______ _____ _____    ______ ____

>  <TORSDO>
F 8

$$$$
=
 OpenBabel11062410253D

 43 48  0  0  1  0  0  0  0  0999 V2000
  161.1650  203.6860  147.9670 C   0  0  0  0  0  0  0  0  0  0  0  0
  161.8350  208.4550  149.6810 C   0  0  0  0  0  0  0  0  0  0  0  0
  161.3390  208.4380  152.4500 C   0  0  0  0  0  0  0  0  0  0  0  0
  161.3940  206.0960  148.1110 C   0  0  0  0  0  0  0  0  0  0  0  0
  161.1400  203.6290  149.4470 C   0  0  0  0  0  3  0  0  0  0  0  0
  161.0820  202.5120  147.2320 O   0  0  0  0  0  1  0  0  0  0  0  0
  160.8450  206.0810  149.5220 C   0  0  0  0  0  0  0  0  0  0  0  0
  161.3180  204.8530  147.3310 C   0  0  0  0  0  2  0  0  0  0  0  0
  161.0450  204.7420  150.1820 C   0  0  0  0  0  3  0  0  0  0  0  0
  161.0650  207.2840  151.6330 N   0  0  0  0  0  0  0  0  0  0  0  0
  161.3000  207.2500  150.3530 C   0  0  0  0  0  0  0  0  0  0  0  0
  162.1070  208.4280  148.3670 C   0  0  0  0  0  3  0  0  0  0  0  0
  162.0830  209.6200  150.4860 N   0  0  0  0  0  0  0  0  0  0  0  0
  161.8220  209.5580  151.8980 C   0  0  0  0  0  3  0  0  0  0  0  0
  161.9160  207.2020  147.5700 C   0  0  0  0  0  3  0  0  0  0  0  0
  161.1020  208.3890  153.9280 C   0  0  2  0  0  3  0  0  0  0  0  0
  160.5610  207.0240  154.3130 C   0  0  0  0  0  1  0  0  0  0  0  0
  160.1390  209.4110  154.3270 N   0  0  0  0  0  2  0  0  0  0  0  0
  159.8760  209.7610  155.6900 C   0  0  0  0  0  0  0  0  0  0  0  0
  160.3450  209.0650  156.6300 O   0  0  0  0  0  0  0  0  0  0  0  0
  159.0910  210.8760  155.9860 O   0  0  0  0  0  0  0  0  0  0  0  0
  159.5730  212.1960  155.7770 C   0  0  2  0  0  3  0  0  0  0  0  0
  158.7280  214.4530  156.1540 C   0  0  0  0  0  2  0  0  0  0  0  0
  160.1950  212.7370  157.0440 C   0  0  0  0  0  2  0  0  0  0  0  0
  158.4270  213.1360  155.4510 C   0  0  1  0  0  3  0  0  0  0  0  0
  159.9840  214.2340  156.9830 C   0  0  0  0  0  2  0  0  0  0  0  0
  157.0310  213.6560  153.3880 N   0  0  0  0  0  0  0  0  0  0  0  0
  158.3030  213.3490  153.9710 C   0  0  0  0  0  0  0  0  0  0  0  0
  155.4440  214.1410  151.9960 C   0  0  0  0  0  0  0  0  0  0  0  0
  154.8470  214.0800  153.1990 N   0  0  0  0  0  0  0  0  0  0  0  0
  154.7550  214.4510  150.7920 N   0  0  0  0  0  1  0  0  0  0  0  0
  155.8550  213.7740  154.0420 C   0  0  0  0  0  3  0  0  0  0  0  0
  156.7920  213.8840  152.0860 C   0  0  0  0  0  3  0  0  0  0  0  0
  159.3310  213.2960  153.2390 O   0  0  0  0  0  0  0  0  0  0  0  0
  162.6590  210.8400  149.9290 C   0  0  0  0  0  2  0  0  0  0  0  0
  160.4070  212.7530  147.5450 C   0  0  0  0  0  3  0  0  0  0  0  0
  159.5680  213.4330  148.4330 C   0  0  0  0  0  0  0  0  0  0  0  0
  160.7530  212.4200  150.3020 C   0  0  0  0  0  3  0  0  0  0  0  0
  161.4130  211.9100  148.0290 C   0  0  0  0  0  3  0  0  0  0  0  0
  161.5830  211.7380  149.4080 C   0  0  0  0  0  0  0  0  0  0  0  0
  159.7470  213.2640  149.8180 C   0  0  0  0  0  3  0  0  0  0  0  0
  157.2540  213.7980  147.6360 C   0  0  0  0  0  1  0  0  0  0  0  0
  158.5670  214.2630  147.9150 O   0  0  0  0  0  0  0  0  0  0  0  0
  1  5  2  0  0  0  0
  2 11  1  0  0  0  0
  2 13  1  0  0  0  0
  3 16  1  0  0  0  0
  4  7  1  0  0  0  0
  5  9  1  0  0  0  0
  6  1  1  0  0  0  0
  7  9  2  0  0  0  0
  7 11  1  0  0  0  0
  8  1  1  0  0  0  0
  8  4  1  0  0  0  0
 10  3  1  0  0  0  0
 11 10  2  0  0  0  0
 12  2  2  0  0  0  0
 13 14  1  0  0  0  0
 14  3  2  0  0  0  0
 15  4  2  0  0  0  0
 15 12  1  0  0  0  0
 16 17  1  6  0  0  0
 16 18  1  0  0  0  0
 18 19  1  0  0  0  0
 19 21  1  0  0  0  0
 19 20  2  0  0  0  0
 22 21  1  1  0  0  0
 22 24  1  0  0  0  0
 23 26  1  0  0  0  0
 25 28  1  6  0  0  0
 25 22  1  0  0  0  0
 25 23  1  0  0  0  0
 26 24  1  0  0  0  0
 27 28  1  0  0  0  0
 27 32  1  0  0  0  0
 29 33  2  0  0  0  0
 29 30  1  0  0  0  0
 30 32  2  0  0  0  0
 31 29  1  0  0  0  0
 33 27  1  0  0  0  0
 34 28  2  0  0  0  0
 35 13  1  0  0  0  0
 36 39  2  0  0  0  0
 36 37  1  0  0  0  0
 37 41  2  0  0  0  0
 39 40  1  0  0  0  0
 40 35  1  0  0  0  0
 40 38  2  0  0  0  0
 41 38  1  0  0  0  0
 42 43  1  0  0  0  0
 43 37  1  0  0  0  0
M  END
>  <MODEL>
3

>  <REMARK>
 VINA RESULT:      -8.5      3.098      6.826
  Name = 
  8 active torsions:
  status: ('A' for Active; 'I' for Inactive)
    1  A    between atoms: C_1  and  N_34
    2  A    between atoms: C_1  and  C_35
    3  A    between atoms: C_2  and  N_6
    4  A    between atoms: C_2  and  C_13
    5  A    between atoms: O_3  and  C_4
    6  A    between atoms: O_3  and  C_12
    7  A    between atoms: C_14  and  C_22
    8  A    between atoms: C_19  and  O_37
                            x       y       z     vdW  Elec       q    Type
                         _______ _______ _______ _____ _____    ______ ____

>  <TORSDO>
F 8

$$$$
=
 OpenBabel11062410253D

 43 48  0  0  1  0  0  0  0  0999 V2000
  161.3340  204.6090  146.8300 C   0  0  0  0  0  0  0  0  0  0  0  0
  161.4260  207.8510  150.7800 C   0  0  0  0  0  0  0  0  0  0  0  0
  161.8350  210.4350  149.7470 C   0  0  0  0  0  0  0  0  0  0  0  0
  161.5080  205.5650  149.0510 C   0  0  0  0  0  0  0  0  0  0  0  0
  161.3080  205.9810  146.2730 C   0  0  0  0  0  3  0  0  0  0  0  0
  161.2390  203.5190  145.9750 O   0  0  0  0  0  1  0  0  0  0  0  0
  162.0080  206.8700  148.4690 C   0  0  0  0  0  0  0  0  0  0  0  0
  161.3970  204.4090  148.1510 C   0  0  0  0  0  2  0  0  0  0  0  0
  161.5680  207.0460  147.0400 C   0  0  0  0  0  3  0  0  0  0  0  0
  161.9330  209.2690  148.9080 N   0  0  0  0  0  0  0  0  0  0  0  0
  161.7320  208.0600  149.3480 C   0  0  0  0  0  0  0  0  0  0  0  0
  161.1900  206.6130  151.2440 C   0  0  0  0  0  3  0  0  0  0  0  0
  161.3540  209.0090  151.6290 N   0  0  0  0  0  0  0  0  0  0  0  0
  161.5620  210.3080  151.0520 C   0  0  0  0  0  3  0  0  0  0  0  0
  161.1950  205.4450  150.3450 C   0  0  0  0  0  3  0  0  0  0  0  0
  162.0180  211.8020  149.1630 C   0  0  2  0  0  3  0  0  0  0  0  0
  161.0740  212.7780  149.8390 C   0  0  0  0  0  1  0  0  0  0  0  0
  161.7400  211.7880  147.7290 N   0  0  0  0  0  2  0  0  0  0  0  0
  162.1710  212.8150  146.8300 C   0  0  0  0  0  0  0  0  0  0  0  0
  162.6660  213.8860  147.2730 O   0  0  0  0  0  0  0  0  0  0  0  0
  162.0380  212.6380  145.4520 O   0  0  0  0  0  0  0  0  0  0  0  0
  161.1180  213.4130  144.6940 C   0  0  2  0  0  3  0  0  0  0  0  0
  159.2460  212.9480  143.2020 C   0  0  0  0  0  2  0  0  0  0  0  0
  159.8310  213.6050  145.4640 C   0  0  0  0  0  2  0  0  0  0  0  0
  160.7280  212.6830  143.4230 C   0  0  1  0  0  3  0  0  0  0  0  0
  158.7530  213.7300  144.4100 C   0  0  0  0  0  2  0  0  0  0  0  0
  161.8180  212.2900  141.1570 N   0  0  0  0  0  0  0  0  0  0  0  0
  161.5280  213.1700  142.2500 C   0  0  0  0  0  0  0  0  0  0  0  0
  162.5290  211.4640  139.2850 C   0  0  0  0  0  0  0  0  0  0  0  0
  161.8770  210.4540  139.8880 N   0  0  0  0  0  0  0  0  0  0  0  0
  163.1450  211.3510  138.0090 N   0  0  0  0  0  1  0  0  0  0  0  0
  161.4510  210.9950  141.0470 C   0  0  0  0  0  3  0  0  0  0  0  0
  162.5050  212.6080  140.0480 C   0  0  0  0  0  3  0  0  0  0  0  0
  161.9130  214.3710  142.2070 O   0  0  0  0  0  0  0  0  0  0  0  0
  161.0060  208.9140  153.0440 C   0  0  0  0  0  2  0  0  0  0  0  0
  160.3730  212.0580  155.0750 C   0  0  0  0  0  3  0  0  0  0  0  0
  159.2540  212.5930  154.4270 C   0  0  0  0  0  0  0  0  0  0  0  0
  159.2780  210.7180  152.8760 C   0  0  0  0  0  3  0  0  0  0  0  0
  160.9440  210.8620  154.6260 C   0  0  0  0  0  3  0  0  0  0  0  0
  160.4000  210.1940  153.5230 C   0  0  0  0  0  0  0  0  0  0  0  0
  158.7060  211.9140  153.3240 C   0  0  0  0  0  3  0  0  0  0  0  0
  157.3770  214.1930  154.6230 C   0  0  0  0  0  1  0  0  0  0  0  0
  158.7130  213.7940  154.8970 O   0  0  0  0  0  0  0  0  0  0  0  0
  1  8  1  0  0  0  0
  2 12  2  0  0  0  0
  2 13  1  0  0  0  0
  3 14  2  0  0  0  0
  4 15  2  0  0  0  0
  5  1  2  0  0  0  0
  5  9  1  0  0  0  0
  6  1  1  0  0  0  0
  7  4  1  0  0  0  0
  7 11  1  0  0  0  0
  8  4  1  0  0  0  0
  9  7  2  0  0  0  0
 10 11  2  0  0  0  0
 10  3  1  0  0  0  0
 11  2  1  0  0  0  0
 13 35  1  0  0  0  0
 14 13  1  0  0  0  0
 15 12  1  0  0  0  0
 16  3  1  0  0  0  0
 16 17  1  1  0  0  0
 18 16  1  0  0  0  0
 19 20  2  0  0  0  0
 19 18  1  0  0  0  0
 21 19  1  0  0  0  0
 22 21  1  1  0  0  0
 22 24  1  0  0  0  0
 23 25  1  0  0  0  0
 23 26  1  0  0  0  0
 25 28  1  6  0  0  0
 25 22  1  0  0  0  0
 26 24  1  0  0  0  0
 27 28  1  0  0  0  0
 29 30  1  0  0  0  0
 29 33  2  0  0  0  0
 30 32  2  0  0  0  0
 31 29  1  0  0  0  0
 32 27  1  0  0  0  0
 33 27  1  0  0  0  0
 34 28  2  0  0  0  0
 35 40  1  0  0  0  0
 37 43  1  0  0  0  0
 37 36  2  0  0  0  0
 38 41  2  0  0  0  0
 38 40  1  0  0  0  0
 39 36  1  0  0  0  0
 40 39  2  0  0  0  0
 41 37  1  0  0  0  0
 42 43  1  0  0  0  0
M  END
>  <MODEL>
4

>  <REMARK>
 VINA RESULT:      -8.3      2.045      3.011
  Name = 
  8 active torsions:
  status: ('A' for Active; 'I' for Inactive)
    1  A    between atoms: C_1  and  N_34
    2  A    between atoms: C_1  and  C_35
    3  A    between atoms: C_2  and  N_6
    4  A    between atoms: C_2  and  C_13
    5  A    between atoms: O_3  and  C_4
    6  A    between atoms: O_3  and  C_12
    7  A    between atoms: C_14  and  C_22
    8  A    between atoms: C_19  and  O_37
                            x       y       z     vdW  Elec       q    Type
                         _______ _______ _______ _____ _____    ______ ____

>  <TORSDO>
F 8

$$$$
=
 OpenBabel11062410253D

 43 48  0  0  1  0  0  0  0  0999 V2000
  160.6670  210.9890  155.8390 C   0  0  0  0  0  0  0  0  0  0  0  0
  161.0060  206.8780  152.8210 C   0  0  0  0  0  0  0  0  0  0  0  0
  161.4730  207.7860  150.1990 C   0  0  0  0  0  0  0  0  0  0  0  0
  160.4970  208.7450  154.9370 C   0  0  0  0  0  0  0  0  0  0  0  0
  161.1470  211.4530  154.5170 C   0  0  0  0  0  3  0  0  0  0  0  0
  160.5560  211.8940  156.8850 O   0  0  0  0  0  1  0  0  0  0  0  0
  160.4610  209.2950  153.5260 C   0  0  1  0  0  3  0  0  0  0  0  0
  160.3880  209.6980  156.0490 C   0  0  0  0  0  3  0  0  0  0  0  0
  161.1060  210.6540  153.4440 C   0  0  0  0  0  3  0  0  0  0  0  0
  161.1540  208.7020  151.2640 N   0  0  0  0  0  0  0  0  0  0  0  0
  160.9500  208.3190  152.4920 C   0  0  0  0  0  0  0  0  0  0  0  0
  160.8240  206.4690  154.0860 C   0  0  0  0  0  3  0  0  0  0  0  0
  161.2960  205.9550  151.7560 N   0  0  0  0  0  0  0  0  0  0  0  0
  161.5360  206.4700  150.4360 C   0  0  0  0  0  3  0  0  0  0  0  0
  160.6010  207.4340  155.1780 C   0  0  0  0  0  3  0  0  0  0  0  0
  161.7550  208.3010  148.8210 C   0  0  2  0  0  3  0  0  0  0  0  0
  162.6530  207.3230  148.0860 C   0  0  0  0  0  1  0  0  0  0  0  0
  162.4190  209.5990  148.8850 N   0  0  0  0  0  2  0  0  0  0  0  0
  161.8800  210.7930  148.3090 C   0  0  0  0  0  0  0  0  0  0  0  0
  160.8730  210.7380  147.5530 O   0  0  0  0  0  0  0  0  0  0  0  0
  162.4710  212.0280  148.5770 O   0  0  0  0  0  0  0  0  0  0  0  0
  161.8320  213.2460  148.2200 C   0  0  2  0  0  3  0  0  0  0  0  0
  159.7430  213.8760  147.1290 C   0  0  0  0  0  2  0  0  0  0  0  0
  160.8360  213.6490  149.2840 C   0  0  0  0  0  2  0  0  0  0  0  0
  161.0210  213.0690  146.9490 C   0  0  1  0  0  3  0  0  0  0  0  0
  159.7600  214.4180  148.5490 C   0  0  0  0  0  2  0  0  0  0  0  0
  161.4460  213.0790  144.4400 N   0  0  0  0  0  0  0  0  0  0  0  0
  161.7820  213.5530  145.7490 C   0  0  0  0  0  0  0  0  0  0  0  0
  161.3860  212.7470  142.3000 C   0  0  0  0  0  0  0  0  0  0  0  0
  160.4160  211.9630  142.8030 N   0  0  0  0  0  0  0  0  0  0  0  0
  161.6790  212.8420  140.9120 N   0  0  0  0  0  1  0  0  0  0  0  0
  160.4790  212.1880  144.1310 C   0  0  0  0  0  3  0  0  0  0  0  0
  162.0350  213.4470  143.2900 C   0  0  0  0  0  3  0  0  0  0  0  0
  162.6970  214.4120  145.8890 O   0  0  0  0  0  0  0  0  0  0  0  0
  161.4250  204.5190  151.9880 C   0  0  0  0  0  2  0  0  0  0  0  0
  160.7950  201.6690  149.5600 C   0  0  0  0  0  3  0  0  0  0  0  0
  160.7950  202.3380  148.3320 C   0  0  0  0  0  0  0  0  0  0  0  0
  161.2120  204.4350  149.4940 C   0  0  0  0  0  3  0  0  0  0  0  0
  161.0000  202.3770  150.7500 C   0  0  0  0  0  3  0  0  0  0  0  0
  161.2030  203.7610  150.7190 C   0  0  0  0  0  0  0  0  0  0  0  0
  161.0070  203.7280  148.3040 C   0  0  0  0  0  3  0  0  0  0  0  0
  160.8270  202.1290  145.8670 C   0  0  0  0  0  1  0  0  0  0  0  0
  160.5800  201.6010  147.1630 O   0  0  0  0  0  0  0  0  0  0  0  0
  1  8  2  0  0  0  0
  1  6  1  0  0  0  0
  2 12  2  0  0  0  0
  3 14  2  0  0  0  0
  3 10  1  0  0  0  0
  4 15  2  0  0  0  0
  4  8  1  0  0  0  0
  5  1  1  0  0  0  0
  7  9  1  1  0  0  0
  7  4  1  0  0  0  0
  9  5  2  0  0  0  0
 10 11  2  0  0  0  0
 11  2  1  0  0  0  0
 11  7  1  0  0  0  0
 12 15  1  0  0  0  0
 13 35  1  0  0  0  0
 13  2  1  0  0  0  0
 14 13  1  0  0  0  0
 16 17  1  1  0  0  0
 16 18  1  0  0  0  0
 16  3  1  0  0  0  0
 19 21  1  0  0  0  0
 19 18  1  0  0  0  0
 20 19  2  0  0  0  0
 22 21  1  1  0  0  0
 22 24  1  0  0  0  0
 23 26  1  0  0  0  0
 25 28  1  6  0  0  0
 25 23  1  0  0  0  0
 25 22  1  0  0  0  0
 26 24  1  0  0  0  0
 27 28  1  0  0  0  0
 28 34  2  0  0  0  0
 29 30  1  0  0  0  0
 29 33  2  0  0  0  0
 30 32  2  0  0  0  0
 31 29  1  0  0  0  0
 32 27  1  0  0  0  0
 33 27  1  0  0  0  0
 36 39  1  0  0  0  0
 37 36  2  0  0  0  0
 38 40  1  0  0  0  0
 40 39  2  0  0  0  0
 40 35  1  0  0  0  0
 41 37  1  0  0  0  0
 41 38  2  0  0  0  0
 42 43  1  0  0  0  0
 43 37  1  0  0  0  0
M  END
>  <MODEL>
5

>  <REMARK>
 VINA RESULT:      -8.2      2.224      6.336
  Name = 
  8 active torsions:
  status: ('A' for Active; 'I' for Inactive)
    1  A    between atoms: C_1  and  N_34
    2  A    between atoms: C_1  and  C_35
    3  A    between atoms: C_2  and  N_6
    4  A    between atoms: C_2  and  C_13
    5  A    between atoms: O_3  and  C_4
    6  A    between atoms: O_3  and  C_12
    7  A    between atoms: C_14  and  C_22
    8  A    between atoms: C_19  and  O_37
                            x       y       z     vdW  Elec       q    Type
                         _______ _______ _______ _____ _____    ______ ____

>  <TORSDO>
F 8

$$$$
=
 OpenBabel11062410253D

 43 48  0  0  1  0  0  0  0  0999 V2000
  160.0190  207.7490  156.1520 C   0  0  0  0  0  0  0  0  0  0  0  0
  160.3560  211.4710  152.6660 C   0  0  0  0  0  0  0  0  0  0  0  0
  161.6160  210.3920  150.3930 C   0  0  0  0  0  0  0  0  0  0  0  0
  160.0880  209.9100  155.0560 C   0  0  0  0  0  0  0  0  0  0  0  0
  160.4590  207.1240  154.8840 C   0  0  0  0  0  3  0  0  0  0  0  0
  159.7690  206.9510  157.2610 O   0  0  0  0  0  1  0  0  0  0  0  0
  161.0120  209.3600  153.9900 C   0  0  1  0  0  3  0  0  0  0  0  0
  159.8110  209.0680  156.2280 C   0  0  0  0  0  3  0  0  0  0  0  0
  160.8720  207.8680  153.8510 C   0  0  0  0  0  3  0  0  0  0  0  0
  161.5260  209.6490  151.6230 N   0  0  0  0  0  0  0  0  0  0  0  0
  160.9340  210.1090  152.6880 C   0  0  0  0  0  0  0  0  0  0  0  0
  159.7200  211.9500  153.7460 C   0  0  0  0  0  3  0  0  0  0  0  0
  160.4680  212.2290  151.4490 N   0  0  0  0  0  0  0  0  0  0  0  0
  161.1130  211.6310  150.3130 C   0  0  0  0  0  3  0  0  0  0  0  0
  159.5500  211.1310  154.9600 C   0  0  0  0  0  3  0  0  0  0  0  0
  162.2580  209.7790  149.1870 C   0  0  2  0  0  3  0  0  0  0  0  0
  162.2130  210.7600  148.0300 C   0  0  0  0  0  1  0  0  0  0  0  0
  161.5580  208.5560  148.8000 N   0  0  0  0  0  2  0  0  0  0  0  0
  162.0080  207.2440  149.1490 C   0  0  0  0  0  0  0  0  0  0  0  0
  163.1460  207.0740  149.6650 O   0  0  0  0  0  0  0  0  0  0  0  0
  161.1900  206.1380  148.9140 O   0  0  0  0  0  0  0  0  0  0  0  0
  160.7180  205.3280  149.9820 C   0  0  2  0  0  3  0  0  0  0  0  0
  161.7230  203.8230  151.6180 C   0  0  0  0  0  2  0  0  0  0  0  0
  160.8460  206.0630  151.2970 C   0  0  0  0  0  2  0  0  0  0  0  0
  161.5760  204.0840  150.1250 C   0  0  1  0  0  3  0  0  0  0  0  0
  161.0540  204.9840  152.3360 C   0  0  0  0  0  2  0  0  0  0  0  0
  160.9680  202.7910  148.0200 N   0  0  0  0  0  0  0  0  0  0  0  0
  160.9400  202.9060  149.4480 C   0  0  0  0  0  0  0  0  0  0  0  0
  160.7180  202.0920  145.9850 C   0  0  0  0  0  0  0  0  0  0  0  0
  161.3790  203.2570  145.8760 N   0  0  0  0  0  0  0  0  0  0  0  0
  160.3590  201.2840  144.8710 N   0  0  0  0  0  1  0  0  0  0  0  0
  161.5170  203.6680  147.1530 C   0  0  0  0  0  3  0  0  0  0  0  0
  160.4530  201.7810  147.2980 C   0  0  0  0  0  3  0  0  0  0  0  0
  160.4120  201.9910  150.1400 O   0  0  0  0  0  0  0  0  0  0  0  0
  159.8840  213.5600  151.3080 C   0  0  0  0  0  2  0  0  0  0  0  0
  156.9590  213.3380  148.8990 C   0  0  0  0  0  3  0  0  0  0  0  0
  157.5360  213.7970  147.7100 C   0  0  0  0  0  0  0  0  0  0  0  0
  159.6520  214.0980  148.8740 C   0  0  0  0  0  3  0  0  0  0  0  0
  157.7210  213.2610  150.0700 C   0  0  0  0  0  3  0  0  0  0  0  0
  159.0670  213.6460  150.0600 C   0  0  0  0  0  0  0  0  0  0  0  0
  158.8900  214.1760  147.7020 C   0  0  0  0  0  3  0  0  0  0  0  0
  157.2250  214.3870  145.3270 C   0  0  0  0  0  1  0  0  0  0  0  0
  156.7430  213.8690  146.5600 O   0  0  0  0  0  0  0  0  0  0  0  0
  1  8  2  0  0  0  0
  1  6  1  0  0  0  0
  2 11  1  0  0  0  0
  2 12  2  0  0  0  0
  3 10  1  0  0  0  0
  4  8  1  0  0  0  0
  5  1  1  0  0  0  0
  7  9  1  6  0  0  0
  7  4  1  0  0  0  0
  9  5  2  0  0  0  0
 10 11  2  0  0  0  0
 11  7  1  0  0  0  0
 12 15  1  0  0  0  0
 13  2  1  0  0  0  0
 14  3  2  0  0  0  0
 14 13  1  0  0  0  0
 15  4  2  0  0  0  0
 16 17  1  6  0  0  0
 16  3  1  0  0  0  0
 18 19  1  0  0  0  0
 18 16  1  0  0  0  0
 19 20  2  0  0  0  0
 21 19  1  0  0  0  0
 22 21  1  6  0  0  0
 22 25  1  0  0  0  0
 22 24  1  0  0  0  0
 23 26  1  0  0  0  0
 24 26  1  0  0  0  0
 25 28  1  6  0  0  0
 25 23  1  0  0  0  0
 27 28  1  0  0  0  0
 28 34  2  0  0  0  0
 29 33  2  0  0  0  0
 30 29  1  0  0  0  0
 30 32  2  0  0  0  0
 31 29  1  0  0  0  0
 32 27  1  0  0  0  0
 33 27  1  0  0  0  0
 35 13  1  0  0  0  0
 36 39  1  0  0  0  0
 37 36  2  0  0  0  0
 38 40  1  0  0  0  0
 40 39  2  0  0  0  0
 40 35  1  0  0  0  0
 41 37  1  0  0  0  0
 41 38  2  0  0  0  0
 42 43  1  0  0  0  0
 43 37  1  0  0  0  0
M  END
>  <MODEL>
6

>  <REMARK>
 VINA RESULT:      -7.9      2.949      7.650
  Name = 
  8 active torsions:
  status: ('A' for Active; 'I' for Inactive)
    1  A    between atoms: C_1  and  N_34
    2  A    between atoms: C_1  and  C_35
    3  A    between atoms: C_2  and  N_6
    4  A    between atoms: C_2  and  C_13
    5  A    between atoms: O_3  and  C_4
    6  A    between atoms: O_3  and  C_12
    7  A    between atoms: C_14  and  C_22
    8  A    between atoms: C_19  and  O_37
                            x       y       z     vdW  Elec       q    Type
                         _______ _______ _______ _____ _____    ______ ____

>  <TORSDO>
F 8

$$$$
=
 OpenBabel11062410253D

 43 48  0  0  1  0  0  0  0  0999 V2000
  160.2420  207.8400  155.8570 C   0  0  0  0  0  0  0  0  0  0  0  0
  161.1910  210.6350  151.6850 C   0  0  0  0  0  0  0  0  0  0  0  0
  161.9560  208.8670  149.6350 C   0  0  0  0  0  0  0  0  0  0  0  0
  160.7470  209.6680  154.3480 C   0  0  0  0  0  0  0  0  0  0  0  0
  160.4090  206.8980  154.7260 C   0  0  0  0  0  3  0  0  0  0  0  0
  159.8960  207.3530  157.1100 O   0  0  0  0  0  1  0  0  0  0  0  0
  161.4170  208.7120  153.3840 C   0  0  1  0  0  3  0  0  0  0  0  0
  160.3700  209.1580  155.6730 C   0  0  0  0  0  3  0  0  0  0  0  0
  160.9050  207.3060  153.5530 C   0  0  0  0  0  3  0  0  0  0  0  0
  161.7890  208.4140  150.9920 N   0  0  0  0  0  0  0  0  0  0  0  0
  161.4180  209.2000  151.9610 C   0  0  0  0  0  0  0  0  0  0  0  0
  160.7830  211.4540  152.6680 C   0  0  0  0  0  3  0  0  0  0  0  0
  161.3840  211.1000  150.3380 N   0  0  0  0  0  0  0  0  0  0  0  0
  161.7670  210.1560  149.3250 C   0  0  0  0  0  3  0  0  0  0  0  0
  160.5180  210.9460  154.0260 C   0  0  0  0  0  3  0  0  0  0  0  0
  162.3260  207.8960  148.5560 C   0  0  2  0  0  3  0  0  0  0  0  0
  161.2130  207.8280  147.5270 C   0  0  0  0  0  1  0  0  0  0  0  0
  162.5370  206.5640  149.1160 N   0  0  0  0  0  2  0  0  0  0  0  0
  161.5110  205.5710  149.2040 C   0  0  0  0  0  0  0  0  0  0  0  0
  160.3100  205.8700  148.9600 O   0  0  0  0  0  0  0  0  0  0  0  0
  161.8320  204.2630  149.5680 O   0  0  0  0  0  0  0  0  0  0  0  0
  160.9370  203.1870  149.3210 C   0  0  2  0  0  3  0  0  0  0  0  0
  161.1440  200.8630  148.6110 C   0  0  0  0  0  2  0  0  0  0  0  0
  160.8300  202.3000  150.5410 C   0  0  0  0  0  2  0  0  0  0  0  0
  161.4700  202.2950  148.2150 C   0  0  1  0  0  3  0  0  0  0  0  0
  160.5330  200.9180  150.0020 C   0  0  0  0  0  2  0  0  0  0  0  0
  161.3610  203.6950  146.0920 N   0  0  0  0  0  0  0  0  0  0  0  0
  160.8380  202.6310  146.8960 C   0  0  0  0  0  0  0  0  0  0  0  0
  161.7040  205.1230  144.5000 C   0  0  0  0  0  0  0  0  0  0  0  0
  162.6490  205.3900  145.4190 N   0  0  0  0  0  0  0  0  0  0  0  0
  161.5810  205.8290  143.2720 N   0  0  0  0  0  1  0  0  0  0  0  0
  162.4080  204.4910  146.3950 C   0  0  0  0  0  3  0  0  0  0  0  0
  160.8980  204.0800  144.8910 C   0  0  0  0  0  3  0  0  0  0  0  0
  159.8640  201.9460  146.4730 O   0  0  0  0  0  0  0  0  0  0  0  0
  161.1350  212.4860  149.9520 C   0  0  0  0  0  2  0  0  0  0  0  0
  162.7060  213.1820  146.5670 C   0  0  0  0  0  3  0  0  0  0  0  0
  161.6200  212.9930  145.7060 C   0  0  0  0  0  0  0  0  0  0  0  0
  160.2130  212.4750  147.6240 C   0  0  0  0  0  3  0  0  0  0  0  0
  162.5500  213.0180  147.9480 C   0  0  0  0  0  3  0  0  0  0  0  0
  161.3050  212.6590  148.4770 C   0  0  0  0  0  0  0  0  0  0  0  0
  160.3690  212.6390  146.2420 C   0  0  0  0  0  3  0  0  0  0  0  0
  163.0820  213.4590  143.7650 C   0  0  0  0  0  1  0  0  0  0  0  0
  161.8130  213.1580  144.3300 O   0  0  0  0  0  0  0  0  0  0  0  0
  1  6  1  0  0  0  0
  2 11  1  0  0  0  0
  2 12  2  0  0  0  0
  3 10  1  0  0  0  0
  4  8  1  0  0  0  0
  5  1  1  0  0  0  0
  7  9  1  6  0  0  0
  7  4  1  0  0  0  0
  8  1  2  0  0  0  0
  9  5  2  0  0  0  0
 10 11  2  0  0  0  0
 11  7  1  0  0  0  0
 12 15  1  0  0  0  0
 13  2  1  0  0  0  0
 14  3  2  0  0  0  0
 14 13  1  0  0  0  0
 15  4  2  0  0  0  0
 16 17  1  6  0  0  0
 16 18  1  0  0  0  0
 16  3  1  0  0  0  0
 18 19  1  0  0  0  0
 19 21  1  0  0  0  0
 20 19  2  0  0  0  0
 22 21  1  1  0  0  0
 22 24  1  0  0  0  0
 23 26  1  0  0  0  0
 25 28  1  6  0  0  0
 25 23  1  0  0  0  0
 25 22  1  0  0  0  0
 26 24  1  0  0  0  0
 27 32  1  0  0  0  0
 27 28  1  0  0  0  0
 29 33  2  0  0  0  0
 29 30  1  0  0  0  0
 30 32  2  0  0  0  0
 31 29  1  0  0  0  0
 33 27  1  0  0  0  0
 34 28  2  0  0  0  0
 35 13  1  0  0  0  0
 36 39  1  0  0  0  0
 37 41  1  0  0  0  0
 37 36  2  0  0  0  0
 38 40  1  0  0  0  0
 39 40  2  0  0  0  0
 40 35  1  0  0  0  0
 41 38  2  0  0  0  0
 42 43  1  0  0  0  0
 43 37  1  0  0  0  0
M  END
>  <MODEL>
7

>  <REMARK>
 VINA RESULT:      -7.9      3.036      8.044
  Name = 
  8 active torsions:
  status: ('A' for Active; 'I' for Inactive)
    1  A    between atoms: C_1  and  N_34
    2  A    between atoms: C_1  and  C_35
    3  A    between atoms: C_2  and  N_6
    4  A    between atoms: C_2  and  C_13
    5  A    between atoms: O_3  and  C_4
    6  A    between atoms: O_3  and  C_12
    7  A    between atoms: C_14  and  C_22
    8  A    between atoms: C_19  and  O_37
                            x       y       z     vdW  Elec       q    Type
                         _______ _______ _______ _____ _____    ______ ____

>  <TORSDO>
F 8

$$$$
=
 OpenBabel11062410253D

 43 48  0  0  1  0  0  0  0  0999 V2000
  160.8220  202.8060  149.0120 C   0  0  0  0  0  0  0  0  0  0  0  0
  161.8260  207.7770  149.6480 C   0  0  0  0  0  0  0  0  0  0  0  0
  161.4060  208.3860  152.3620 C   0  0  0  0  0  0  0  0  0  0  0  0
  161.2010  205.1700  148.6300 C   0  0  0  0  0  0  0  0  0  0  0  0
  160.8340  203.0690  150.4690 C   0  0  0  0  0  3  0  0  0  0  0  0
  160.6480  201.5090  148.5490 O   0  0  0  0  0  1  0  0  0  0  0  0
  160.6900  205.4940  150.0180 C   0  0  0  0  0  0  0  0  0  0  0  0
  161.0280  203.7970  148.1370 C   0  0  0  0  0  2  0  0  0  0  0  0
  160.8270  204.3180  150.9480 C   0  0  0  0  0  3  0  0  0  0  0  0
  161.0410  207.1040  151.8170 N   0  0  0  0  0  0  0  0  0  0  0  0
  161.2380  206.7820  150.5710 C   0  0  0  0  0  0  0  0  0  0  0  0
  162.0600  207.4510  148.3670 C   0  0  0  0  0  3  0  0  0  0  0  0
  162.1670  209.0690  150.1790 N   0  0  0  0  0  0  0  0  0  0  0  0
  161.9410  209.3280  151.5740 C   0  0  0  0  0  3  0  0  0  0  0  0
  161.7730  206.0980  147.8560 C   0  0  0  0  0  3  0  0  0  0  0  0
  161.2080  208.6700  153.8190 C   0  0  2  0  0  3  0  0  0  0  0  0
  160.4670  207.5160  154.4680 C   0  0  0  0  0  1  0  0  0  0  0  0
  160.4320  209.8940  154.0020 N   0  0  0  0  0  2  0  0  0  0  0  0
  160.9240  211.0460  154.6950 C   0  0  0  0  0  0  0  0  0  0  0  0
  162.0030  210.9880  155.3440 O   0  0  0  0  0  0  0  0  0  0  0  0
  160.2060  212.2410  154.6610 O   0  0  0  0  0  0  0  0  0  0  0  0
  158.8600  212.2820  154.2050 C   0  0  2  0  0  3  0  0  0  0  0  0
  157.2660  214.0250  153.5970 C   0  0  0  0  0  2  0  0  0  0  0  0
  158.8180  212.3900  152.6980 C   0  0  0  0  0  2  0  0  0  0  0  0
  158.1590  213.5240  154.7230 C   0  0  1  0  0  3  0  0  0  0  0  0
  157.5430  213.1440  152.3890 C   0  0  0  0  0  2  0  0  0  0  0  0
  156.4020  212.1370  155.9310 N   0  0  0  0  0  0  0  0  0  0  0  0
  157.3420  213.2180  155.9430 C   0  0  0  0  0  0  0  0  0  0  0  0
  154.9000  210.6810  156.4940 C   0  0  0  0  0  0  0  0  0  0  0  0
  155.2030  210.3940  155.2160 N   0  0  0  0  0  0  0  0  0  0  0  0
  153.9540  209.9460  157.2610 N   0  0  0  0  0  1  0  0  0  0  0  0
  156.1340  211.3150  154.8940 C   0  0  0  0  0  3  0  0  0  0  0  0
  155.6270  211.7510  156.9590 C   0  0  0  0  0  3  0  0  0  0  0  0
  157.5100  213.8910  156.9980 O   0  0  0  0  0  0  0  0  0  0  0  0
  162.8000  210.1010  149.3640 C   0  0  0  0  0  2  0  0  0  0  0  0
  160.5060  212.4100  147.4090 C   0  0  0  0  0  3  0  0  0  0  0  0
  159.9950  213.2260  148.4230 C   0  0  0  0  0  0  0  0  0  0  0  0
  161.3230  212.0010  150.0540 C   0  0  0  0  0  3  0  0  0  0  0  0
  161.4180  211.3930  147.7130 C   0  0  0  0  0  3  0  0  0  0  0  0
  161.8230  211.1840  149.0360 C   0  0  0  0  0  0  0  0  0  0  0  0
  160.4100  213.0180  149.7510 C   0  0  0  0  0  3  0  0  0  0  0  0
  158.4280  214.2780  146.8230 C   0  0  0  0  0  1  0  0  0  0  0  0
  159.0790  214.2280  148.0850 O   0  0  0  0  0  0  0  0  0  0  0  0
  1  5  2  0  0  0  0
  2 13  1  0  0  0  0
  2 11  1  0  0  0  0
  3 16  1  0  0  0  0
  4  7  1  0  0  0  0
  5  9  1  0  0  0  0
  6  1  1  0  0  0  0
  7 11  1  0  0  0  0
  7  9  2  0  0  0  0
  8  4  1  0  0  0  0
  8  1  1  0  0  0  0
 10  3  1  0  0  0  0
 11 10  2  0  0  0  0
 12  2  2  0  0  0  0
 13 14  1  0  0  0  0
 14  3  2  0  0  0  0
 15 12  1  0  0  0  0
 15  4  2  0  0  0  0
 16 18  1  0  0  0  0
 16 17  1  6  0  0  0
 18 19  1  0  0  0  0
 19 20  2  0  0  0  0
 21 19  1  0  0  0  0
 22 21  1  1  0  0  0
 22 25  1  0  0  0  0
 23 25  1  0  0  0  0
 24 22  1  0  0  0  0
 25 28  1  1  0  0  0
 26 24  1  0  0  0  0
 26 23  1  0  0  0  0
 27 28  1  0  0  0  0
 27 33  1  0  0  0  0
 28 34  2  0  0  0  0
 29 33  2  0  0  0  0
 29 31  1  0  0  0  0
 30 29  1  0  0  0  0
 32 30  2  0  0  0  0
 32 27  1  0  0  0  0
 35 13  1  0  0  0  0
 36 39  2  0  0  0  0
 36 37  1  0  0  0  0
 37 41  2  0  0  0  0
 39 40  1  0  0  0  0
 40 35  1  0  0  0  0
 40 38  2  0  0  0  0
 41 38  1  0  0  0  0
 42 43  1  0  0  0  0
 43 37  1  0  0  0  0
M  END
>  <MODEL>
8

>  <REMARK>
 VINA RESULT:      -7.8      2.981      7.424
  Name = 
  8 active torsions:
  status: ('A' for Active; 'I' for Inactive)
    1  A    between atoms: C_1  and  N_34
    2  A    between atoms: C_1  and  C_35
    3  A    between atoms: C_2  and  N_6
    4  A    between atoms: C_2  and  C_13
    5  A    between atoms: O_3  and  C_4
    6  A    between atoms: O_3  and  C_12
    7  A    between atoms: C_14  and  C_22
    8  A    between atoms: C_19  and  O_37
                            x       y       z     vdW  Elec       q    Type
                         _______ _______ _______ _____ _____    ______ ____

>  <TORSDO>
F 8

$$$$
=
 OpenBabel11062410253D

 43 48  0  0  1  0  0  0  0  0999 V2000
  160.9840  201.8310  146.7230 C   0  0  0  0  0  0  0  0  0  0  0  0
  161.9110  206.5750  148.3830 C   0  0  0  0  0  0  0  0  0  0  0  0
  161.7670  206.5340  151.1930 C   0  0  0  0  0  0  0  0  0  0  0  0
  161.2530  204.2370  146.8600 C   0  0  0  0  0  0  0  0  0  0  0  0
  161.1440  201.7580  148.1940 C   0  0  0  0  0  3  0  0  0  0  0  0
  160.7980  200.6650  145.9940 O   0  0  0  0  0  1  0  0  0  0  0  0
  160.8850  204.2120  148.3290 C   0  0  0  0  0  0  0  0  0  0  0  0
  161.0670  203.0030  146.0840 C   0  0  0  0  0  2  0  0  0  0  0  0
  161.1540  202.8650  148.9450 C   0  0  0  0  0  3  0  0  0  0  0  0
  161.3820  205.3910  150.4060 N   0  0  0  0  0  0  0  0  0  0  0  0
  161.4530  205.3690  149.1060 C   0  0  0  0  0  0  0  0  0  0  0  0
  162.0140  206.5600  147.0450 C   0  0  0  0  0  3  0  0  0  0  0  0
  162.2700  207.7300  149.1620 N   0  0  0  0  0  0  0  0  0  0  0  0
  162.1880  207.6560  150.5940 C   0  0  0  0  0  3  0  0  0  0  0  0
  161.7130  205.3440  146.2680 C   0  0  0  0  0  3  0  0  0  0  0  0
  161.7180  206.4710  152.6880 C   0  0  2  0  0  3  0  0  0  0  0  0
  161.2060  205.1110  153.1260 C   0  0  0  0  0  1  0  0  0  0  0  0
  160.8310  207.5040  153.2160 N   0  0  0  0  0  2  0  0  0  0  0  0
  160.7490  207.8440  154.6030 C   0  0  0  0  0  0  0  0  0  0  0  0
  161.3210  207.1290  155.4710 O   0  0  0  0  0  0  0  0  0  0  0  0
  160.0270  208.9670  155.0070 O   0  0  0  0  0  0  0  0  0  0  0  0
  160.6650  210.2220  155.2070 C   0  0  2  0  0  3  0  0  0  0  0  0
  160.4550  212.0630  156.7930 C   0  0  0  0  0  2  0  0  0  0  0  0
  161.7640  210.0960  156.2380 C   0  0  0  0  0  2  0  0  0  0  0  0
  159.6860  211.2320  155.7760 C   0  0  1  0  0  3  0  0  0  0  0  0
  161.8440  211.4540  156.9000 C   0  0  0  0  0  2  0  0  0  0  0  0
  157.7370  212.4640  154.6990 N   0  0  0  0  0  0  0  0  0  0  0  0
  159.1250  212.1120  154.6970 C   0  0  0  0  0  0  0  0  0  0  0  0
  155.8060  213.3130  154.2060 C   0  0  0  0  0  0  0  0  0  0  0  0
  155.5950  212.5880  155.3190 N   0  0  0  0  0  0  0  0  0  0  0  0
  154.7890  214.0580  153.5490 N   0  0  0  0  0  1  0  0  0  0  0  0
  156.8090  212.0720  155.5990 C   0  0  0  0  0  3  0  0  0  0  0  0
  157.1200  213.2540  153.8050 C   0  0  0  0  0  3  0  0  0  0  0  0
  159.8880  212.5760  153.8040 O   0  0  0  0  0  0  0  0  0  0  0  0
  162.7830  208.9510  148.5470 C   0  0  0  0  0  2  0  0  0  0  0  0
  161.0760  212.3320  148.8100 C   0  0  0  0  0  3  0  0  0  0  0  0
  160.8150  212.4120  150.1810 C   0  0  0  0  0  0  0  0  0  0  0  0
  161.8460  210.2280  150.4860 C   0  0  0  0  0  3  0  0  0  0  0  0
  161.7160  211.2070  148.2760 C   0  0  0  0  0  3  0  0  0  0  0  0
  162.0960  210.1520  149.1130 C   0  0  0  0  0  0  0  0  0  0  0  0
  161.2060  211.3530  151.0200 C   0  0  0  0  0  3  0  0  0  0  0  0
  158.8240  213.8710  150.3480 C   0  0  0  0  0  1  0  0  0  0  0  0
  160.1670  213.5470  150.6800 O   0  0  0  0  0  0  0  0  0  0  0  0
  1  5  2  0  0  0  0
  2 11  1  0  0  0  0
  2 13  1  0  0  0  0
  3 16  1  0  0  0  0
  4  7  1  0  0  0  0
  5  9  1  0  0  0  0
  6  1  1  0  0  0  0
  7  9  2  0  0  0  0
  7 11  1  0  0  0  0
  8  1  1  0  0  0  0
  8  4  1  0  0  0  0
 10  3  1  0  0  0  0
 11 10  2  0  0  0  0
 12  2  2  0  0  0  0
 13 14  1  0  0  0  0
 14  3  2  0  0  0  0
 15  4  2  0  0  0  0
 15 12  1  0  0  0  0
 16 17  1  6  0  0  0
 16 18  1  0  0  0  0
 18 19  1  0  0  0  0
 19 21  1  0  0  0  0
 19 20  2  0  0  0  0
 22 21  1  1  0  0  0
 22 25  1  0  0  0  0
 22 24  1  0  0  0  0
 23 26  1  0  0  0  0
 24 26  1  0  0  0  0
 25 28  1  6  0  0  0
 25 23  1  0  0  0  0
 27 32  1  0  0  0  0
 28 27  1  0  0  0  0
 29 30  1  0  0  0  0
 30 32  2  0  0  0  0
 31 29  1  0  0  0  0
 33 29  2  0  0  0  0
 33 27  1  0  0  0  0
 34 28  2  0  0  0  0
 35 40  1  0  0  0  0
 35 13  1  0  0  0  0
 36 37  1  0  0  0  0
 37 43  1  0  0  0  0
 37 41  2  0  0  0  0
 38 41  1  0  0  0  0
 39 36  2  0  0  0  0
 39 40  1  0  0  0  0
 40 38  2  0  0  0  0
 42 43  1  0  0  0  0
M  END
>  <MODEL>
9

>  <REMARK>
 VINA RESULT:      -7.6      3.555      7.441
  Name = 
  8 active torsions:
  status: ('A' for Active; 'I' for Inactive)
    1  A    between atoms: C_1  and  N_34
    2  A    between atoms: C_1  and  C_35
    3  A    between atoms: C_2  and  N_6
    4  A    between atoms: C_2  and  C_13
    5  A    between atoms: O_3  and  C_4
    6  A    between atoms: O_3  and  C_12
    7  A    between atoms: C_14  and  C_22
    8  A    between atoms: C_19  and  O_37
                            x       y       z     vdW  Elec       q    Type
                         _______ _______ _______ _____ _____    ______ ____

>  <TORSDO>
F 8

$$$$
