=
 OpenBabel11062407413D

 27 31  0  0  1  0  0  0  0  0999 V2000
  161.5490  207.3520  150.0260 N   0  0  0  0  0  0  0  0  0  0  0  0
  161.2770  207.0420  152.4740 C   0  0  0  0  0  0  0  0  0  0  0  0
  162.0060  209.3750  152.2160 N   0  0  0  0  0  0  0  0  0  0  0  0
  160.7160  206.1570  153.5440 C   0  0  0  0  0  3  0  0  0  0  0  0
  162.1860  210.5770  149.0830 C   0  0  0  0  0  0  0  0  0  0  0  0
  161.8630  206.5290  151.1890 C   0  0  1  0  0  3  0  0  0  0  0  0
  161.0450  208.3730  154.3030 N   0  0  0  0  0  0  0  0  0  0  0  0
  161.7250  208.6320  149.9320 C   0  0  0  0  0  0  0  0  0  0  0  0
  161.4720  208.2610  152.9490 C   0  0  0  0  0  0  0  0  0  0  0  0
  162.3760  210.6800  150.3800 O   0  0  0  0  0  0  0  0  0  0  0  0
  160.5220  207.0880  154.7390 C   0  0  0  0  0  3  0  0  0  0  0  0
  161.7540  209.3080  148.7280 C   0  0  0  0  0  3  0  0  0  0  0  0
  162.0780  209.5290  150.9270 C   0  0  0  0  0  0  0  0  0  0  0  0
  162.0490  209.6530  156.1530 C   0  0  0  0  0  3  0  0  0  0  0  0
  161.1830  211.7900  156.7730 N   0  0  0  0  0  0  0  0  0  0  0  0
  160.2340  211.7140  155.8010 C   0  0  0  0  0  3  0  0  0  0  0  0
  160.1700  210.5930  154.9720 C   0  0  0  0  0  3  0  0  0  0  0  0
  161.0830  209.5440  155.1420 C   0  0  0  0  0  0  0  0  0  0  0  0
  162.0840  210.7900  156.9630 C   0  0  0  0  0  3  0  0  0  0  0  0
  160.8710  202.4300  150.3450 C   0  0  0  0  0  3  0  0  0  0  0  0
  161.5120  205.0980  150.9110 C   0  0  0  0  0  0  0  0  0  0  0  0
  161.0330  204.7440  149.6440 C   0  0  0  0  0  3  0  0  0  0  0  0
  160.7120  203.4120  149.3620 C   0  0  0  0  0  3  0  0  0  0  0  0
  161.3520  202.7790  151.6100 C   0  0  0  0  0  3  0  0  0  0  0  0
  161.6730  204.1100  151.8940 C   0  0  0  0  0  3  0  0  0  0  0  0
  161.1110  212.0730  147.5400 N   0  0  0  0  0  1  0  0  0  0  0  0
  162.3850  211.7020  148.1290 C   0  0  0  0  0  2  0  0  0  0  0  0
  1  6  1  0  0  0  0
  2  9  2  0  0  0  0
  2  4  1  0  0  0  0
  3  9  1  0  0  0  0
  4 11  2  0  0  0  0
  5 10  1  0  0  0  0
  6 21  1  6  0  0  0
  6  2  1  0  0  0  0
  7 11  1  0  0  0  0
  7 18  1  0  0  0  0
  8  1  2  0  0  0  0
  8 13  1  0  0  0  0
  9  7  1  0  0  0  0
 10 13  1  0  0  0  0
 12  5  2  0  0  0  0
 12  8  1  0  0  0  0
 13  3  2  0  0  0  0
 14 19  1  0  0  0  0
 15 19  2  0  0  0  0
 16 15  1  0  0  0  0
 17 18  1  0  0  0  0
 17 16  2  0  0  0  0
 18 14  2  0  0  0  0
 20 24  1  0  0  0  0
 21 25  1  0  0  0  0
 22 21  2  0  0  0  0
 23 22  1  0  0  0  0
 23 20  2  0  0  0  0
 24 25  2  0  0  0  0
 26 27  1  0  0  0  0
 27  5  1  0  0  0  0
M  END
>  <MODEL>
1

>  <REMARK>
 VINA RESULT:      -9.1      0.000      0.000
  Name = 
  3 active torsions:
  status: ('A' for Active; 'I' for Inactive)
    1  A    between atoms: C_9  and  C_15
    2  A    between atoms: C_13  and  C_22
    3  A    between atoms: C_14  and  N_17
                            x       y       z     vdW  Elec       q    Type
                         _______ _______ _______ _____ _____    ______ ____

>  <TORSDO>
F 3

$$$$
=
 OpenBabel11062407413D

 27 31  0  0  1  0  0  0  0  0999 V2000
  161.6230  208.8700  152.3660 N   0  0  0  0  0  0  0  0  0  0  0  0
  161.1300  206.4370  152.3410 C   0  0  0  0  0  0  0  0  0  0  0  0
  161.0890  207.1070  149.9770 N   0  0  0  0  0  0  0  0  0  0  0  0
  161.1440  205.1740  153.1470 C   0  0  0  0  0  3  0  0  0  0  0  0
  162.0720  210.2410  149.2640 C   0  0  0  0  0  0  0  0  0  0  0  0
  160.8130  207.7890  152.9150 C   0  0  1  0  0  3  0  0  0  0  0  0
  161.1680  204.7470  150.8190 N   0  0  0  0  0  0  0  0  0  0  0  0
  161.7960  209.1250  151.1060 C   0  0  0  0  0  0  0  0  0  0  0  0
  161.1150  206.1520  151.0490 C   0  0  0  0  0  0  0  0  0  0  0  0
  161.5650  209.0760  148.9240 O   0  0  0  0  0  0  0  0  0  0  0  0
  161.2230  204.0630  152.1020 C   0  0  0  0  0  3  0  0  0  0  0  0
  162.2630  210.3360  150.6340 C   0  0  0  0  0  3  0  0  0  0  0  0
  161.4120  208.3660  150.0130 C   0  0  0  0  0  0  0  0  0  0  0  0
  160.8050  202.7180  149.4720 C   0  0  0  0  0  3  0  0  0  0  0  0
  161.2090  202.7250  147.1190 N   0  0  0  0  0  0  0  0  0  0  0  0
  161.5850  204.0310  147.1620 C   0  0  0  0  0  3  0  0  0  0  0  0
  161.5790  204.7210  148.3760 C   0  0  0  0  0  3  0  0  0  0  0  0
  161.1860  204.0650  149.5500 C   0  0  0  0  0  0  0  0  0  0  0  0
  160.8220  202.0610  148.2400 C   0  0  0  0  0  3  0  0  0  0  0  0
  160.9800  207.9300  157.2100 C   0  0  0  0  0  3  0  0  0  0  0  0
  160.8670  207.8210  154.4130 C   0  0  0  0  0  0  0  0  0  0  0  0
  161.7370  208.7170  155.0480 C   0  0  0  0  0  3  0  0  0  0  0  0
  161.7940  208.7700  156.4440 C   0  0  0  0  0  3  0  0  0  0  0  0
  160.1090  207.0360  156.5820 C   0  0  0  0  0  3  0  0  0  0  0  0
  160.0510  206.9810  155.1850 C   0  0  0  0  0  3  0  0  0  0  0  0
  161.7610  212.5430  148.6530 N   0  0  0  0  0  1  0  0  0  0  0  0
  162.4210  211.3050  148.2840 C   0  0  0  0  0  2  0  0  0  0  0  0
  1  6  1  0  0  0  0
  2  6  1  0  0  0  0
  2  4  1  0  0  0  0
  3 13  2  0  0  0  0
  3  9  1  0  0  0  0
  5 12  2  0  0  0  0
  6 21  1  1  0  0  0
  7  9  1  0  0  0  0
  7 11  1  0  0  0  0
  8  1  2  0  0  0  0
  9  2  2  0  0  0  0
 10  5  1  0  0  0  0
 10 13  1  0  0  0  0
 11  4  2  0  0  0  0
 12  8  1  0  0  0  0
 13  8  1  0  0  0  0
 14 18  1  0  0  0  0
 15 16  2  0  0  0  0
 15 19  1  0  0  0  0
 16 17  1  0  0  0  0
 17 18  2  0  0  0  0
 18  7  1  0  0  0  0
 19 14  2  0  0  0  0
 21 22  2  0  0  0  0
 21 25  1  0  0  0  0
 22 23  1  0  0  0  0
 23 20  2  0  0  0  0
 24 20  1  0  0  0  0
 25 24  2  0  0  0  0
 27 26  1  0  0  0  0
 27  5  1  0  0  0  0
M  END
>  <MODEL>
2

>  <REMARK>
 VINA RESULT:      -9.1      1.669      6.332
  Name = 
  3 active torsions:
  status: ('A' for Active; 'I' for Inactive)
    1  A    between atoms: C_9  and  C_15
    2  A    between atoms: C_13  and  C_22
    3  A    between atoms: C_14  and  N_17
                            x       y       z     vdW  Elec       q    Type
                         _______ _______ _______ _____ _____    ______ ____

>  <TORSDO>
F 3

$$$$
=
 OpenBabel11062407413D

 27 31  0  0  1  0  0  0  0  0999 V2000
  161.5480  207.3710  150.0050 N   0  0  0  0  0  0  0  0  0  0  0  0
  161.2730  207.0550  152.4520 C   0  0  0  0  0  0  0  0  0  0  0  0
  161.9970  209.3910  152.2000 N   0  0  0  0  0  0  0  0  0  0  0  0
  160.7120  206.1660  153.5190 C   0  0  0  0  0  3  0  0  0  0  0  0
  162.1790  210.6010  149.0700 C   0  0  0  0  0  0  0  0  0  0  0  0
  161.8620  206.5460  151.1670 C   0  0  1  0  0  3  0  0  0  0  0  0
  161.0350  208.3820  154.2840 N   0  0  0  0  0  0  0  0  0  0  0  0
  161.7210  208.6530  149.9140 C   0  0  0  0  0  0  0  0  0  0  0  0
  161.4640  208.2740  152.9300 C   0  0  0  0  0  0  0  0  0  0  0  0
  162.3660  210.7010  150.3680 O   0  0  0  0  0  0  0  0  0  0  0  0
  160.5140  207.0940  154.7160 C   0  0  0  0  0  3  0  0  0  0  0  0
  161.7510  209.3310  148.7120 C   0  0  0  0  0  3  0  0  0  0  0  0
  162.0700  209.5470  150.9120 C   0  0  0  0  0  0  0  0  0  0  0  0
  160.1120  210.5620  154.9610 C   0  0  0  0  0  3  0  0  0  0  0  0
  161.1060  211.8130  156.7360 N   0  0  0  0  0  0  0  0  0  0  0  0
  162.0470  210.8480  156.9210 C   0  0  0  0  0  3  0  0  0  0  0  0
  162.0430  209.7040  156.1210 C   0  0  0  0  0  3  0  0  0  0  0  0
  161.0690  209.5500  155.1260 C   0  0  0  0  0  0  0  0  0  0  0  0
  160.1470  211.6930  155.7800 C   0  0  0  0  0  3  0  0  0  0  0  0
  160.8550  202.4350  150.4050 C   0  0  0  0  0  3  0  0  0  0  0  0
  161.5150  205.1150  150.8850 C   0  0  0  0  0  0  0  0  0  0  0  0
  161.6910  204.1570  151.8900 C   0  0  0  0  0  3  0  0  0  0  0  0
  161.3630  202.8190  151.6500 C   0  0  0  0  0  3  0  0  0  0  0  0
  160.6760  203.3890  149.3990 C   0  0  0  0  0  3  0  0  0  0  0  0
  161.0040  204.7270  149.6370 C   0  0  0  0  0  3  0  0  0  0  0  0
  161.6440  212.8910  148.5830 N   0  0  0  0  0  1  0  0  0  0  0  0
  162.3770  211.7280  148.1200 C   0  0  0  0  0  2  0  0  0  0  0  0
  1  6  1  0  0  0  0
  2  9  2  0  0  0  0
  2  4  1  0  0  0  0
  3  9  1  0  0  0  0
  4 11  2  0  0  0  0
  5 10  1  0  0  0  0
  6 21  1  6  0  0  0
  6  2  1  0  0  0  0
  7 11  1  0  0  0  0
  7 18  1  0  0  0  0
  8  1  2  0  0  0  0
  8 13  1  0  0  0  0
  9  7  1  0  0  0  0
 10 13  1  0  0  0  0
 12  5  2  0  0  0  0
 12  8  1  0  0  0  0
 13  3  2  0  0  0  0
 14 18  2  0  0  0  0
 14 19  1  0  0  0  0
 15 16  1  0  0  0  0
 17 16  2  0  0  0  0
 18 17  1  0  0  0  0
 19 15  2  0  0  0  0
 20 23  1  0  0  0  0
 21 22  1  0  0  0  0
 23 22  2  0  0  0  0
 24 25  1  0  0  0  0
 24 20  2  0  0  0  0
 25 21  2  0  0  0  0
 27 26  1  0  0  0  0
 27  5  1  0  0  0  0
M  END
>  <MODEL>
3

>  <REMARK>
 VINA RESULT:      -9.1      0.279      1.339
  Name = 
  3 active torsions:
  status: ('A' for Active; 'I' for Inactive)
    1  A    between atoms: C_9  and  C_15
    2  A    between atoms: C_13  and  C_22
    3  A    between atoms: C_14  and  N_17
                            x       y       z     vdW  Elec       q    Type
                         _______ _______ _______ _____ _____    ______ ____

>  <TORSDO>
F 3

$$$$
=
 OpenBabel11062407413D

 27 31  0  0  1  0  0  0  0  0999 V2000
  161.1800  210.2030  151.8440 N   0  0  0  0  0  0  0  0  0  0  0  0
  161.5790  208.5780  150.0110 C   0  0  0  0  0  0  0  0  0  0  0  0
  161.4660  207.2070  152.0470 N   0  0  0  0  0  0  0  0  0  0  0  0
  161.5800  208.3780  148.5260 C   0  0  0  0  0  3  0  0  0  0  0  0
  160.5480  208.7630  154.8810 C   0  0  0  0  0  0  0  0  0  0  0  0
  161.9890  209.8590  150.6800 C   0  0  1  0  0  3  0  0  0  0  0  0
  161.3650  206.3350  149.6990 N   0  0  0  0  0  0  0  0  0  0  0  0
  160.9210  209.4230  152.8470 C   0  0  0  0  0  0  0  0  0  0  0  0
  161.4860  207.4100  150.6260 C   0  0  0  0  0  0  0  0  0  0  0  0
  160.9850  207.7130  154.2200 O   0  0  0  0  0  0  0  0  0  0  0  0
  161.3820  206.8740  148.3480 C   0  0  0  0  0  3  0  0  0  0  0  0
  160.4650  209.8820  154.0660 C   0  0  0  0  0  3  0  0  0  0  0  0
  161.1930  208.0720  152.9790 C   0  0  0  0  0  0  0  0  0  0  0  0
  160.9640  204.0190  148.9630 C   0  0  0  0  0  3  0  0  0  0  0  0
  160.9530  202.2210  150.5350 N   0  0  0  0  0  0  0  0  0  0  0  0
  161.2060  203.0820  151.5580 C   0  0  0  0  0  3  0  0  0  0  0  0
  161.3460  204.4470  151.3050 C   0  0  0  0  0  3  0  0  0  0  0  0
  161.2250  204.9320  149.9960 C   0  0  0  0  0  0  0  0  0  0  0  0
  160.8310  202.6600  149.2540 C   0  0  0  0  0  3  0  0  0  0  0  0
  162.1430  213.2300  148.0130 C   0  0  0  0  0  3  0  0  0  0  0  0
  162.0490  211.0240  149.7380 C   0  0  0  0  0  0  0  0  0  0  0  0
  161.1110  212.0550  149.8640 C   0  0  0  0  0  3  0  0  0  0  0  0
  161.1570  213.1550  149.0020 C   0  0  0  0  0  3  0  0  0  0  0  0
  163.0840  212.2030  147.8860 C   0  0  0  0  0  3  0  0  0  0  0  0
  163.0390  211.1020  148.7470 C   0  0  0  0  0  3  0  0  0  0  0  0
  160.0810  207.3540  156.7710 N   0  0  0  0  0  1  0  0  0  0  0  0
  160.1650  208.7310  156.3190 C   0  0  0  0  0  2  0  0  0  0  0  0
  1  8  2  0  0  0  0
  2  9  2  0  0  0  0
  2  6  1  0  0  0  0
  3 13  2  0  0  0  0
  4  2  1  0  0  0  0
  5 27  1  0  0  0  0
  6 21  1  6  0  0  0
  6  1  1  0  0  0  0
  7 18  1  0  0  0  0
  7  9  1  0  0  0  0
  8 13  1  0  0  0  0
  8 12  1  0  0  0  0
  9  3  1  0  0  0  0
 10  5  1  0  0  0  0
 11  4  2  0  0  0  0
 11  7  1  0  0  0  0
 12  5  2  0  0  0  0
 13 10  1  0  0  0  0
 14 19  2  0  0  0  0
 14 18  1  0  0  0  0
 15 16  2  0  0  0  0
 17 16  1  0  0  0  0
 18 17  2  0  0  0  0
 19 15  1  0  0  0  0
 20 23  1  0  0  0  0
 21 22  1  0  0  0  0
 23 22  2  0  0  0  0
 24 20  2  0  0  0  0
 24 25  1  0  0  0  0
 25 21  2  0  0  0  0
 27 26  1  0  0  0  0
M  END
>  <MODEL>
4

>  <REMARK>
 VINA RESULT:      -7.8      2.063      7.338
  Name = 
  3 active torsions:
  status: ('A' for Active; 'I' for Inactive)
    1  A    between atoms: C_9  and  C_15
    2  A    between atoms: C_13  and  C_22
    3  A    between atoms: C_14  and  N_17
                            x       y       z     vdW  Elec       q    Type
                         _______ _______ _______ _____ _____    ______ ____

>  <TORSDO>
F 3

$$$$
=
 OpenBabel11062407413D

 27 31  0  0  1  0  0  0  0  0999 V2000
  161.6790  208.6660  147.8190 N   0  0  0  0  0  0  0  0  0  0  0  0
  161.5040  206.9830  149.6350 C   0  0  0  0  0  0  0  0  0  0  0  0
  161.9340  209.1090  150.7910 N   0  0  0  0  0  0  0  0  0  0  0  0
  161.0810  205.5880  149.9780 C   0  0  0  0  0  3  0  0  0  0  0  0
  161.8930  211.8980  148.9170 C   0  0  0  0  0  0  0  0  0  0  0  0
  162.1190  207.3680  148.3190 C   0  0  1  0  0  3  0  0  0  0  0  0
  161.1530  206.9910  151.8820 N   0  0  0  0  0  0  0  0  0  0  0  0
  161.6940  209.7800  148.4810 C   0  0  0  0  0  0  0  0  0  0  0  0
  161.5580  207.7240  150.7300 C   0  0  0  0  0  0  0  0  0  0  0  0
  162.0980  211.2610  150.0490 O   0  0  0  0  0  0  0  0  0  0  0  0
  160.8020  205.6380  151.4790 C   0  0  0  0  0  3  0  0  0  0  0  0
  161.6120  211.0210  147.8800 C   0  0  0  0  0  3  0  0  0  0  0  0
  161.9570  209.9790  149.8260 C   0  0  0  0  0  0  0  0  0  0  0  0
  160.8350  206.5630  154.2860 C   0  0  0  0  0  3  0  0  0  0  0  0
  160.8970  208.3520  155.8660 N   0  0  0  0  0  0  0  0  0  0  0  0
  161.1220  209.2540  154.8720 C   0  0  0  0  0  3  0  0  0  0  0  0
  161.2100  208.8260  153.5460 C   0  0  0  0  0  3  0  0  0  0  0  0
  161.0660  207.4660  153.2390 C   0  0  0  0  0  0  0  0  0  0  0  0
  160.7530  207.0270  155.6010 C   0  0  0  0  0  3  0  0  0  0  0  0
  161.5870  204.4090  145.2440 C   0  0  0  0  0  3  0  0  0  0  0  0
  161.9410  206.3250  147.2570 C   0  0  0  0  0  0  0  0  0  0  0  0
  160.8370  206.4020  146.3990 C   0  0  0  0  0  3  0  0  0  0  0  0
  160.6600  205.4450  145.3950 C   0  0  0  0  0  3  0  0  0  0  0  0
  162.6920  204.3290  146.0970 C   0  0  0  0  0  3  0  0  0  0  0  0
  162.8700  205.2850  147.1020 C   0  0  0  0  0  3  0  0  0  0  0  0
  161.6360  213.7560  147.4160 N   0  0  0  0  0  1  0  0  0  0  0  0
  161.9300  213.3800  148.7870 C   0  0  0  0  0  2  0  0  0  0  0  0
  1  6  1  0  0  0  0
  1  8  2  0  0  0  0
  2  4  1  0  0  0  0
  2  9  2  0  0  0  0
  4 11  2  0  0  0  0
  5 10  1  0  0  0  0
  6 21  1  6  0  0  0
  6  2  1  0  0  0  0
  7 18  1  0  0  0  0
  8 13  1  0  0  0  0
  9  3  1  0  0  0  0
  9  7  1  0  0  0  0
 11  7  1  0  0  0  0
 12  8  1  0  0  0  0
 12  5  2  0  0  0  0
 13 10  1  0  0  0  0
 13  3  2  0  0  0  0
 14 19  1  0  0  0  0
 16 15  1  0  0  0  0
 17 16  2  0  0  0  0
 18 17  1  0  0  0  0
 18 14  2  0  0  0  0
 19 15  2  0  0  0  0
 20 23  2  0  0  0  0
 20 24  1  0  0  0  0
 22 21  2  0  0  0  0
 23 22  1  0  0  0  0
 24 25  2  0  0  0  0
 25 21  1  0  0  0  0
 26 27  1  0  0  0  0
 27  5  1  0  0  0  0
M  END
>  <MODEL>
5

>  <REMARK>
 VINA RESULT:      -7.7      2.143      3.268
  Name = 
  3 active torsions:
  status: ('A' for Active; 'I' for Inactive)
    1  A    between atoms: C_9  and  C_15
    2  A    between atoms: C_13  and  C_22
    3  A    between atoms: C_14  and  N_17
                            x       y       z     vdW  Elec       q    Type
                         _______ _______ _______ _____ _____    ______ ____

>  <TORSDO>
F 3

$$$$
=
 OpenBabel11062407413D

 27 31  0  0  1  0  0  0  0  0999 V2000
  161.2030  205.1090  151.7510 N   0  0  0  0  0  0  0  0  0  0  0  0
  161.2980  206.1870  149.5170 C   0  0  0  0  0  0  0  0  0  0  0  0
  160.9120  208.0370  151.0880 N   0  0  0  0  0  0  0  0  0  0  0  0
  161.6730  205.9990  148.0780 C   0  0  0  0  0  3  0  0  0  0  0  0
  161.0690  207.3100  154.3650 C   0  0  0  0  0  0  0  0  0  0  0  0
  160.7170  205.0990  150.3750 C   0  0  1  0  0  3  0  0  0  0  0  0
  161.6120  208.2830  148.6930 N   0  0  0  0  0  0  0  0  0  0  0  0
  161.2110  206.1320  152.5470 C   0  0  0  0  0  0  0  0  0  0  0  0
  161.2480  207.4760  149.8090 C   0  0  0  0  0  0  0  0  0  0  0  0
  160.8260  208.1300  153.3670 O   0  0  0  0  0  0  0  0  0  0  0  0
  161.9280  207.4160  147.5690 C   0  0  0  0  0  3  0  0  0  0  0  0
  161.3410  206.0260  153.9170 C   0  0  0  0  0  3  0  0  0  0  0  0
  160.9320  207.4550  152.2510 C   0  0  0  0  0  0  0  0  0  0  0  0
  162.2630  210.4340  149.7010 C   0  0  0  0  0  3  0  0  0  0  0  0
  161.8590  212.4920  148.5580 N   0  0  0  0  0  0  0  0  0  0  0  0
  161.2990  211.8280  147.5110 C   0  0  0  0  0  3  0  0  0  0  0  0
  161.2060  210.4350  147.5340 C   0  0  0  0  0  3  0  0  0  0  0  0
  161.6900  209.7210  148.6380 C   0  0  0  0  0  0  0  0  0  0  0  0
  162.3390  211.8270  149.6420 C   0  0  0  0  0  3  0  0  0  0  0  0
  161.1580  201.1550  148.7180 C   0  0  0  0  0  3  0  0  0  0  0  0
  160.8810  203.7310  149.7860 C   0  0  0  0  0  0  0  0  0  0  0  0
  160.8300  202.6120  150.6260 C   0  0  0  0  0  3  0  0  0  0  0  0
  160.9690  201.3270  150.0930 C   0  0  0  0  0  3  0  0  0  0  0  0
  161.2060  202.2690  147.8750 C   0  0  0  0  0  3  0  0  0  0  0  0
  161.0670  203.5550  148.4060 C   0  0  0  0  0  3  0  0  0  0  0  0
  160.0780  206.9790  156.5290 N   0  0  0  0  0  1  0  0  0  0  0  0
  161.0790  207.7290  155.7930 C   0  0  0  0  0  2  0  0  0  0  0  0
  1  8  2  0  0  0  0
  2  9  2  0  0  0  0
  2  6  1  0  0  0  0
  3 13  2  0  0  0  0
  4  2  1  0  0  0  0
  5 27  1  0  0  0  0
  6 21  1  6  0  0  0
  6  1  1  0  0  0  0
  7  9  1  0  0  0  0
  8 12  1  0  0  0  0
  9  3  1  0  0  0  0
 10  5  1  0  0  0  0
 11  4  2  0  0  0  0
 11  7  1  0  0  0  0
 12  5  2  0  0  0  0
 13  8  1  0  0  0  0
 13 10  1  0  0  0  0
 15 19  2  0  0  0  0
 16 17  2  0  0  0  0
 16 15  1  0  0  0  0
 17 18  1  0  0  0  0
 18  7  1  0  0  0  0
 18 14  2  0  0  0  0
 19 14  1  0  0  0  0
 20 23  1  0  0  0  0
 21 22  1  0  0  0  0
 23 22  2  0  0  0  0
 24 25  1  0  0  0  0
 24 20  2  0  0  0  0
 25 21  2  0  0  0  0
 27 26  1  0  0  0  0
M  END
>  <MODEL>
6

>  <REMARK>
 VINA RESULT:      -7.6      2.139      5.554
  Name = 
  3 active torsions:
  status: ('A' for Active; 'I' for Inactive)
    1  A    between atoms: C_9  and  C_15
    2  A    between atoms: C_13  and  C_22
    3  A    between atoms: C_14  and  N_17
                            x       y       z     vdW  Elec       q    Type
                         _______ _______ _______ _____ _____    ______ ____

>  <TORSDO>
F 3

$$$$
=
 OpenBabel11062407413D

 27 31  0  0  1  0  0  0  0  0999 V2000
  161.2170  207.0220  152.7100 N   0  0  0  0  0  0  0  0  0  0  0  0
  161.5080  207.6920  150.3380 C   0  0  0  0  0  0  0  0  0  0  0  0
  161.0810  209.7960  151.5330 N   0  0  0  0  0  0  0  0  0  0  0  0
  161.9770  207.2470  148.9860 C   0  0  0  0  0  3  0  0  0  0  0  0
  160.9790  209.6480  154.8890 C   0  0  0  0  0  0  0  0  0  0  0  0
  160.8290  206.7840  151.3240 C   0  0  1  0  0  3  0  0  0  0  0  0
  161.9560  209.6050  149.1920 N   0  0  0  0  0  0  0  0  0  0  0  0
  161.2060  208.1680  153.3160 C   0  0  0  0  0  0  0  0  0  0  0  0
  161.4850  209.0130  150.3990 C   0  0  0  0  0  0  0  0  0  0  0  0
  160.8370  210.2870  153.7490 O   0  0  0  0  0  0  0  0  0  0  0  0
  162.3190  208.5470  148.2610 C   0  0  0  0  0  3  0  0  0  0  0  0
  161.2350  208.2990  154.6910 C   0  0  0  0  0  3  0  0  0  0  0  0
  160.9970  209.4260  152.7770 C   0  0  0  0  0  0  0  0  0  0  0  0
  163.2000  211.4700  148.1720 C   0  0  0  0  0  3  0  0  0  0  0  0
  162.3770  213.7070  148.3070 N   0  0  0  0  0  0  0  0  0  0  0  0
  161.2890  213.2910  149.0110 C   0  0  0  0  0  3  0  0  0  0  0  0
  161.1290  211.9370  149.3150 C   0  0  0  0  0  3  0  0  0  0  0  0
  162.0910  211.0080  148.8960 C   0  0  0  0  0  0  0  0  0  0  0  0
  163.3260  212.8310  147.8860 C   0  0  0  0  0  3  0  0  0  0  0  0
  161.2620  202.6020  150.4200 C   0  0  0  0  0  3  0  0  0  0  0  0
  160.9840  205.3310  150.9920 C   0  0  0  0  0  0  0  0  0  0  0  0
  161.4130  204.4430  151.9870 C   0  0  0  0  0  3  0  0  0  0  0  0
  161.5520  203.0820  151.7010 C   0  0  0  0  0  3  0  0  0  0  0  0
  160.8310  203.4840  149.4240 C   0  0  0  0  0  3  0  0  0  0  0  0
  160.6910  204.8460  149.7090 C   0  0  0  0  0  3  0  0  0  0  0  0
  160.8150  211.7470  156.0460 N   0  0  0  0  0  1  0  0  0  0  0  0
  160.9040  210.3090  156.2200 C   0  0  0  0  0  2  0  0  0  0  0  0
  1  8  2  0  0  0  0
  2  9  2  0  0  0  0
  2  6  1  0  0  0  0
  3 13  2  0  0  0  0
  4  2  1  0  0  0  0
  5 27  1  0  0  0  0
  6 21  1  6  0  0  0
  6  1  1  0  0  0  0
  7  9  1  0  0  0  0
  8 12  1  0  0  0  0
  9  3  1  0  0  0  0
 10  5  1  0  0  0  0
 11  4  2  0  0  0  0
 11  7  1  0  0  0  0
 12  5  2  0  0  0  0
 13  8  1  0  0  0  0
 13 10  1  0  0  0  0
 14 18  1  0  0  0  0
 15 16  2  0  0  0  0
 16 17  1  0  0  0  0
 18  7  1  0  0  0  0
 18 17  2  0  0  0  0
 19 14  2  0  0  0  0
 19 15  1  0  0  0  0
 20 23  1  0  0  0  0
 21 22  1  0  0  0  0
 23 22  2  0  0  0  0
 24 25  1  0  0  0  0
 24 20  2  0  0  0  0
 25 21  2  0  0  0  0
 26 27  1  0  0  0  0
M  END
>  <MODEL>
7

>  <REMARK>
 VINA RESULT:      -7.6      1.428      5.274
  Name = 
  3 active torsions:
  status: ('A' for Active; 'I' for Inactive)
    1  A    between atoms: C_9  and  C_15
    2  A    between atoms: C_13  and  C_22
    3  A    between atoms: C_14  and  N_17
                            x       y       z     vdW  Elec       q    Type
                         _______ _______ _______ _____ _____    ______ ____

>  <TORSDO>
F 3

$$$$
=
 OpenBabel11062407413D

 27 31  0  0  1  0  0  0  0  0999 V2000
  161.2050  206.9390  150.8550 N   0  0  0  0  0  0  0  0  0  0  0  0
  161.4320  209.4050  151.0200 C   0  0  0  0  0  0  0  0  0  0  0  0
  162.1700  208.8610  148.7400 N   0  0  0  0  0  0  0  0  0  0  0  0
  161.0730  210.6200  151.8210 C   0  0  0  0  0  3  0  0  0  0  0  0
  161.7430  205.6880  147.7170 C   0  0  0  0  0  0  0  0  0  0  0  0
  161.7230  208.0630  151.6280 C   0  0  1  0  0  3  0  0  0  0  0  0
  161.6260  211.1580  149.5830 N   0  0  0  0  0  0  0  0  0  0  0  0
  161.4010  206.7320  149.5900 C   0  0  0  0  0  0  0  0  0  0  0  0
  161.7610  209.7550  149.7870 C   0  0  0  0  0  0  0  0  0  0  0  0
  162.1980  206.9110  147.5540 O   0  0  0  0  0  0  0  0  0  0  0  0
  161.1610  211.7690  150.8190 C   0  0  0  0  0  3  0  0  0  0  0  0
  161.2040  205.5080  148.9830 C   0  0  0  0  0  3  0  0  0  0  0  0
  161.9810  207.5770  148.6590 C   0  0  0  0  0  0  0  0  0  0  0  0
  160.8160  212.2040  147.5070 C   0  0  0  0  0  3  0  0  0  0  0  0
  162.3240  213.3250  146.0330 N   0  0  0  0  0  0  0  0  0  0  0  0
  163.3720  213.0440  146.8520 C   0  0  0  0  0  3  0  0  0  0  0  0
  163.1650  212.3270  148.0330 C   0  0  0  0  0  3  0  0  0  0  0  0
  161.8750  211.8980  148.3720 C   0  0  0  0  0  0  0  0  0  0  0  0
  161.0610  212.9230  146.3350 C   0  0  0  0  0  3  0  0  0  0  0  0
  160.4560  207.6950  155.7210 C   0  0  0  0  0  3  0  0  0  0  0  0
  161.2760  207.9510  153.0540 C   0  0  0  0  0  0  0  0  0  0  0  0
  160.8650  206.7060  153.5470 C   0  0  0  0  0  3  0  0  0  0  0  0
  160.4550  206.5790  154.8780 C   0  0  0  0  0  3  0  0  0  0  0  0
  160.8670  208.9390  155.2330 C   0  0  0  0  0  3  0  0  0  0  0  0
  161.2780  209.0680  153.9020 C   0  0  0  0  0  3  0  0  0  0  0  0
  163.0510  204.7030  145.9590 N   0  0  0  0  0  1  0  0  0  0  0  0
  161.7790  204.6460  146.6550 C   0  0  0  0  0  2  0  0  0  0  0  0
  1  6  1  0  0  0  0
  2  6  1  0  0  0  0
  2  4  1  0  0  0  0
  3  9  1  0  0  0  0
  5 12  2  0  0  0  0
  6 21  1  1  0  0  0
  7  9  1  0  0  0  0
  7 11  1  0  0  0  0
  8  1  2  0  0  0  0
  9  2  2  0  0  0  0
 10  5  1  0  0  0  0
 10 13  1  0  0  0  0
 11  4  2  0  0  0  0
 12  8  1  0  0  0  0
 13  3  2  0  0  0  0
 13  8  1  0  0  0  0
 14 18  1  0  0  0  0
 15 19  1  0  0  0  0
 15 16  2  0  0  0  0
 16 17  1  0  0  0  0
 17 18  2  0  0  0  0
 18  7  1  0  0  0  0
 19 14  2  0  0  0  0
 21 22  2  0  0  0  0
 21 25  1  0  0  0  0
 22 23  1  0  0  0  0
 23 20  2  0  0  0  0
 24 20  1  0  0  0  0
 25 24  2  0  0  0  0
 26 27  1  0  0  0  0
 27  5  1  0  0  0  0
M  END
>  <MODEL>
8

>  <REMARK>
 VINA RESULT:      -7.2      2.589      6.234
  Name = 
  3 active torsions:
  status: ('A' for Active; 'I' for Inactive)
    1  A    between atoms: C_9  and  C_15
    2  A    between atoms: C_13  and  C_22
    3  A    between atoms: C_14  and  N_17
                            x       y       z     vdW  Elec       q    Type
                         _______ _______ _______ _____ _____    ______ ____

>  <TORSDO>
F 3

$$$$
=
 OpenBabel11062407413D

 27 31  0  0  1  0  0  0  0  0999 V2000
  160.9550  211.3880  151.2710 N   0  0  0  0  0  0  0  0  0  0  0  0
  161.5980  209.4330  149.8840 C   0  0  0  0  0  0  0  0  0  0  0  0
  161.2500  208.5130  152.1360 N   0  0  0  0  0  0  0  0  0  0  0  0
  161.7850  208.9290  148.4850 C   0  0  0  0  0  3  0  0  0  0  0  0
  159.9680  210.5890  154.4480 C   0  0  0  0  0  0  0  0  0  0  0  0
  161.9060  210.8400  150.3110 C   0  0  1  0  0  3  0  0  0  0  0  0
  161.4510  207.1680  150.0300 N   0  0  0  0  0  0  0  0  0  0  0  0
  160.5830  210.8250  152.3780 C   0  0  0  0  0  0  0  0  0  0  0  0
  161.4440  208.4170  150.7160 C   0  0  0  0  0  0  0  0  0  0  0  0
  160.4960  209.4420  154.0800 O   0  0  0  0  0  0  0  0  0  0  0  0
  161.6290  207.4150  148.6080 C   0  0  0  0  0  3  0  0  0  0  0  0
  159.9730  211.5100  153.4110 C   0  0  0  0  0  3  0  0  0  0  0  0
  160.8520  209.5420  152.8250 C   0  0  0  0  0  0  0  0  0  0  0  0
  161.3690  205.6740  151.9860 C   0  0  0  0  0  3  0  0  0  0  0  0
  160.9860  203.3320  151.7200 N   0  0  0  0  0  0  0  0  0  0  0  0
  160.9060  203.4740  150.3700 C   0  0  0  0  0  3  0  0  0  0  0  0
  161.0560  204.7340  149.7880 C   0  0  0  0  0  3  0  0  0  0  0  0
  161.2920  205.8530  150.5980 C   0  0  0  0  0  0  0  0  0  0  0  0
  161.2130  204.3980  152.5320 C   0  0  0  0  0  3  0  0  0  0  0  0
  162.4000  213.5160  146.9810 C   0  0  0  0  0  3  0  0  0  0  0  0
  162.0690  211.7850  149.1580 C   0  0  0  0  0  0  0  0  0  0  0  0
  163.2530  211.7560  148.4110 C   0  0  0  0  0  3  0  0  0  0  0  0
  163.4180  212.6210  147.3250 C   0  0  0  0  0  3  0  0  0  0  0  0
  161.2150  213.5460  147.7220 C   0  0  0  0  0  3  0  0  0  0  0  0
  161.0480  212.6810  148.8090 C   0  0  0  0  0  3  0  0  0  0  0  0
  157.9800  211.0700  155.7080 N   0  0  0  0  0  1  0  0  0  0  0  0
  159.4100  210.8430  155.8030 C   0  0  0  0  0  2  0  0  0  0  0  0
  1  8  2  0  0  0  0
  2  6  1  0  0  0  0
  2  9  2  0  0  0  0
  3 13  2  0  0  0  0
  4 11  2  0  0  0  0
  4  2  1  0  0  0  0
  5 27  1  0  0  0  0
  6 21  1  6  0  0  0
  6  1  1  0  0  0  0
  7 18  1  0  0  0  0
  7  9  1  0  0  0  0
  8 13  1  0  0  0  0
  8 12  1  0  0  0  0
  9  3  1  0  0  0  0
 10  5  1  0  0  0  0
 11  7  1  0  0  0  0
 12  5  2  0  0  0  0
 13 10  1  0  0  0  0
 14 19  1  0  0  0  0
 15 19  2  0  0  0  0
 16 15  1  0  0  0  0
 17 16  2  0  0  0  0
 17 18  1  0  0  0  0
 18 14  2  0  0  0  0
 20 23  2  0  0  0  0
 20 24  1  0  0  0  0
 22 21  2  0  0  0  0
 23 22  1  0  0  0  0
 24 25  2  0  0  0  0
 25 21  1  0  0  0  0
 26 27  1  0  0  0  0
M  END
>  <MODEL>
9

>  <REMARK>
 VINA RESULT:      -6.8      1.933      7.025
  Name = 
  3 active torsions:
  status: ('A' for Active; 'I' for Inactive)
    1  A    between atoms: C_9  and  C_15
    2  A    between atoms: C_13  and  C_22
    3  A    between atoms: C_14  and  N_17
                            x       y       z     vdW  Elec       q    Type
                         _______ _______ _______ _____ _____    ______ ____

>  <TORSDO>
F 3

$$$$
