=
 OpenBabel11062409023D

 37 42  0  0  1  0  0  0  0  0999 V2000
  160.9730  204.0610  147.5330 C   0  0  0  0  0  2  0  0  0  0  0  0
  160.7850  207.3870  151.0360 C   0  0  1  0  0  3  0  0  0  0  0  0
  161.5390  203.5090  146.2030 C   0  0  1  0  0  0  0  0  0  0  0  0
  162.1460  207.6900  147.7680 O   0  0  0  0  0  0  0  0  0  0  0  0
  161.6690  205.8330  152.8810 C   0  0  1  0  0  3  0  0  0  0  0  0
  161.4920  207.0940  149.7340 C   0  0  2  0  0  3  0  0  0  0  0  0
  161.2840  204.3790  144.9690 C   0  0  2  0  0  3  0  0  0  0  0  0
  160.6880  205.9930  151.7130 C   0  0  2  0  0  3  0  0  0  0  0  0
  161.2150  207.9680  148.6790 O   0  0  0  0  0  0  0  0  0  0  0  0
  161.4970  206.9400  153.9270 C   0  0  0  0  0  2  0  0  0  0  0  0
  163.0230  203.8280  146.0910 C   0  0  0  0  0  2  0  0  0  0  0  0
  160.9960  204.9630  150.6130 C   0  0  2  0  0  3  0  0  0  0  0  0
  161.1460  208.3100  153.3350 C   0  0  0  0  0  2  0  0  0  0  0  0
  162.6890  204.9620  145.1310 C   0  0  2  0  0  3  0  0  0  0  0  0
  161.7780  206.4880  147.1000 C   0  0  1  0  0  3  0  0  0  0  0  0
  161.5550  208.4220  151.8710 C   0  0  2  0  0  3  0  0  0  0  0  0
  160.9450  205.7700  149.3330 C   0  0  2  0  0  3  0  0  0  0  0  0
  161.4960  204.5910  153.4920 O   0  0  0  0  0  1  0  0  0  0  0  0
  162.7630  206.2880  145.9250 C   0  0  0  0  0  2  0  0  0  0  0  0
  160.0960  205.3410  145.0230 C   0  0  0  0  0  1  0  0  0  0  0  0
  161.7130  205.2890  148.1080 C   0  0  1  0  0  3  0  0  0  0  0  0
  160.1980  201.9950  145.1470 C   0  0  0  0  0  1  0  0  0  0  0  0
  161.3060  202.1330  145.9970 O   0  0  0  0  0  0  0  0  0  0  0  0
  161.2580  209.8280  151.3820 C   0  0  0  0  0  2  0  0  0  0  0  0
  161.1530  210.7770  152.5630 C   0  0  0  0  0  2  0  0  0  0  0  0
  159.9250  212.6410  151.6170 C   0  0  0  0  0  3  0  0  0  0  0  0
  158.7470  211.1980  153.2590 C   0  0  0  0  0  3  0  0  0  0  0  0
  157.8210  212.0170  153.7760 C   0  0  0  0  0  3  0  0  0  0  0  0
  157.2330  214.2190  154.6920 O   0  0  0  0  0  1  0  0  0  0  0  0
  158.2140  214.1490  152.5720 C   0  0  0  0  0  3  0  0  0  0  0  0
  157.7800  213.4880  153.6470 C   0  0  0  0  0  0  0  0  0  0  0  0
  159.9190  211.5990  152.4520 C   0  0  0  0  0  0  0  0  0  0  0  0
  158.7220  213.4790  151.3390 C   0  0  0  0  0  2  0  0  0  0  0  0
  160.0030  203.7950  150.6210 C   0  0  0  0  0  2  0  0  0  0  0  0
  161.6290  202.1560  151.5850 O   0  0  0  0  0  1  0  0  0  0  0  0
  160.6590  202.4480  150.6340 C   0  0  0  0  0  0  0  0  0  0  0  0
  160.3140  201.5310  149.7440 C   0  0  0  0  0  2  0  0  0  0  0  0
  1 21  1  0  0  0  0
  2  8  1  0  0  0  0
  2 16  1  0  0  0  0
  3  1  1  0  0  0  0
  4  9  1  0  0  0  0
  5 18  1  0  0  0  0
  5 10  1  0  0  0  0
  6  2  1  0  0  0  0
  7 20  1  0  0  0  0
  7 14  1  0  0  0  0
  7  3  1  0  0  0  0
  8  5  1  0  0  0  0
  9  6  1  0  0  0  0
 11  3  1  0  0  0  0
 12 34  1  0  0  0  0
 12  8  1  0  0  0  0
 13 10  1  0  0  0  0
 14 19  1  0  0  0  0
 14 11  1  0  0  0  0
 15  4  1  0  0  0  0
 15 21  1  0  0  0  0
 16 13  1  0  0  0  0
 17  6  1  0  0  0  0
 17 12  1  0  0  0  0
 19 15  1  0  0  0  0
 21 17  1  0  0  0  0
 22 23  1  0  0  0  0
 23  3  1  0  0  0  0
 24 16  1  0  0  0  0
 24 25  1  0  0  0  0
 26 32  2  0  0  0  0
 27 28  2  0  0  0  0
 30 31  2  0  0  0  0
 31 28  1  0  0  0  0
 31 29  1  0  0  0  0
 32 25  1  0  0  0  0
 32 27  1  0  0  0  0
 33 26  1  0  0  0  0
 33 30  1  0  0  0  0
 34 36  1  0  0  0  0
 36 35  1  0  0  0  0
 37 36  2  0  0  0  0
M  END
>  <MODEL>
1

>  <REMARK>
 VINA RESULT:      -8.8      0.000      0.000
  Name = 
  6 active torsions:
  status: ('A' for Active; 'I' for Inactive)
    1  A    between atoms: C_5  and  O_23
    2  A    between atoms: C_20  and  C_25
    3  A    between atoms: C_21  and  C_25
    4  A    between atoms: C_22  and  C_28
    5  A    between atoms: C_22  and  C_37
    6  A    between atoms: C_31  and  C_37
                            x       y       z     vdW  Elec       q    Type
                         _______ _______ _______ _____ _____    ______ ____

>  <TORSDO>
F 6

$$$$
=
 OpenBabel11062409023D

 37 42  0  0  1  0  0  0  0  0999 V2000
  160.9830  204.0110  147.4960 C   0  0  0  0  0  2  0  0  0  0  0  0
  160.7860  207.4460  150.8920 C   0  0  1  0  0  3  0  0  0  0  0  0
  161.5450  203.4220  146.1800 C   0  0  1  0  0  0  0  0  0  0  0  0
  162.1210  207.6570  147.6060 O   0  0  0  0  0  0  0  0  0  0  0  0
  161.6980  205.9610  152.7790 C   0  0  1  0  0  3  0  0  0  0  0  0
  161.4860  207.1180  149.5950 C   0  0  2  0  0  3  0  0  0  0  0  0
  161.2710  204.2500  144.9210 C   0  0  2  0  0  3  0  0  0  0  0  0
  160.7070  206.0730  151.6140 C   0  0  2  0  0  3  0  0  0  0  0  0
  161.1930  207.9560  148.5140 O   0  0  0  0  0  0  0  0  0  0  0  0
  161.5230  207.0980  153.7910 C   0  0  0  0  0  2  0  0  0  0  0  0
  163.0240  203.7520  146.0470 C   0  0  0  0  0  2  0  0  0  0  0  0
  161.0180  205.0120  150.5460 C   0  0  2  0  0  3  0  0  0  0  0  0
  161.1540  208.4450  153.1570 C   0  0  0  0  0  2  0  0  0  0  0  0
  162.6720  204.8520  145.0540 C   0  0  2  0  0  3  0  0  0  0  0  0
  161.7600  206.4310  146.9800 C   0  0  1  0  0  3  0  0  0  0  0  0
  161.5520  208.5140  151.6880 C   0  0  2  0  0  3  0  0  0  0  0  0
  160.9500  205.7760  149.2410 C   0  0  2  0  0  3  0  0  0  0  0  0
  161.5420  204.7370  153.4310 O   0  0  0  0  0  1  0  0  0  0  0  0
  162.7390  206.2030  145.8050 C   0  0  0  0  0  2  0  0  0  0  0  0
  160.0740  205.2010  144.9530 C   0  0  0  0  0  1  0  0  0  0  0  0
  161.7140  205.2640  148.0260 C   0  0  1  0  0  3  0  0  0  0  0  0
  160.1590  201.8620  145.2560 C   0  0  0  0  0  1  0  0  0  0  0  0
  161.3240  202.0390  146.0200 O   0  0  0  0  0  0  0  0  0  0  0  0
  161.2370  209.9010  151.1560 C   0  0  0  0  0  2  0  0  0  0  0  0
  162.3500  210.3680  150.2350 C   0  0  0  0  0  2  0  0  0  0  0  0
  160.8680  212.2650  149.9490 C   0  0  0  0  0  3  0  0  0  0  0  0
  162.7200  211.9930  148.3180 C   0  0  0  0  0  3  0  0  0  0  0  0
  162.2580  212.6130  147.2250 C   0  0  0  0  0  3  0  0  0  0  0  0
  160.4100  213.0210  145.6580 O   0  0  0  0  0  1  0  0  0  0  0  0
  160.0180  213.4090  147.9290 C   0  0  0  0  0  3  0  0  0  0  0  0
  160.8610  213.0200  146.9710 C   0  0  0  0  0  0  0  0  0  0  0  0
  161.9270  211.5880  149.4980 C   0  0  0  0  0  0  0  0  0  0  0  0
  160.4070  213.5580  149.3620 C   0  0  0  0  0  2  0  0  0  0  0  0
  160.0370  203.8340  150.5980 C   0  0  0  0  0  2  0  0  0  0  0  0
  161.6490  202.2430  151.6610 O   0  0  0  0  0  1  0  0  0  0  0  0
  160.7070  202.4970  150.6720 C   0  0  0  0  0  0  0  0  0  0  0  0
  160.4010  201.5500  149.7980 C   0  0  0  0  0  2  0  0  0  0  0  0
  1 21  1  0  0  0  0
  2  8  1  0  0  0  0
  2 16  1  0  0  0  0
  3  1  1  0  0  0  0
  4  9  1  0  0  0  0
  5 18  1  0  0  0  0
  5 10  1  0  0  0  0
  6  2  1  0  0  0  0
  7 20  1  0  0  0  0
  7 14  1  0  0  0  0
  7  3  1  0  0  0  0
  8  5  1  0  0  0  0
  9  6  1  0  0  0  0
 11  3  1  0  0  0  0
 12 34  1  0  0  0  0
 12  8  1  0  0  0  0
 13 10  1  0  0  0  0
 14 19  1  0  0  0  0
 14 11  1  0  0  0  0
 15  4  1  0  0  0  0
 15 21  1  0  0  0  0
 16 13  1  0  0  0  0
 17  6  1  0  0  0  0
 17 12  1  0  0  0  0
 19 15  1  0  0  0  0
 21 17  1  0  0  0  0
 22 23  1  0  0  0  0
 23  3  1  0  0  0  0
 24 16  1  0  0  0  0
 25 24  1  0  0  0  0
 27 32  1  0  0  0  0
 28 27  2  0  0  0  0
 29 31  1  0  0  0  0
 30 33  1  0  0  0  0
 31 28  1  0  0  0  0
 31 30  2  0  0  0  0
 32 26  2  0  0  0  0
 32 25  1  0  0  0  0
 33 26  1  0  0  0  0
 34 36  1  0  0  0  0
 36 35  1  0  0  0  0
 37 36  2  0  0  0  0
M  END
>  <MODEL>
2

>  <REMARK>
 VINA RESULT:      -8.5      2.259      2.883
  Name = 
  6 active torsions:
  status: ('A' for Active; 'I' for Inactive)
    1  A    between atoms: C_5  and  O_23
    2  A    between atoms: C_20  and  C_25
    3  A    between atoms: C_21  and  C_25
    4  A    between atoms: C_22  and  C_28
    5  A    between atoms: C_22  and  C_37
    6  A    between atoms: C_31  and  C_37
                            x       y       z     vdW  Elec       q    Type
                         _______ _______ _______ _____ _____    ______ ____

>  <TORSDO>
F 6

$$$$
=
 OpenBabel11062409023D

 37 42  0  0  1  0  0  0  0  0999 V2000
  161.5250  203.2090  147.8960 C   0  0  0  0  0  2  0  0  0  0  0  0
  162.0960  206.5970  151.2970 C   0  0  1  0  0  3  0  0  0  0  0  0
  160.8390  201.9420  147.3310 C   0  0  1  0  0  0  0  0  0  0  0  0
  160.4920  203.4370  151.5670 O   0  0  0  0  0  0  0  0  0  0  0  0
  161.3090  208.5460  149.8190 C   0  0  1  0  0  3  0  0  0  0  0  0
  161.2790  205.3620  150.9970 C   0  0  2  0  0  3  0  0  0  0  0  0
  161.0250  200.6700  148.1620 C   0  0  2  0  0  3  0  0  0  0  0  0
  162.2000  207.3010  149.9170 C   0  0  2  0  0  3  0  0  0  0  0  0
  161.5010  204.2650  151.8360 O   0  0  0  0  0  0  0  0  0  0  0  0
  161.5990  209.5460  150.9440 C   0  0  0  0  0  2  0  0  0  0  0  0
  159.3620  201.9370  147.6980 C   0  0  0  0  0  2  0  0  0  0  0  0
  161.7740  206.2570  148.8720 C   0  0  2  0  0  3  0  0  0  0  0  0
  161.9460  208.8910  152.2870 C   0  0  0  0  0  2  0  0  0  0  0  0
  159.6560  200.9250  148.7980 C   0  0  2  0  0  3  0  0  0  0  0  0
  160.7680  202.7760  150.3380 C   0  0  1  0  0  3  0  0  0  0  0  0
  161.4270  207.4620  152.3770 C   0  0  2  0  0  3  0  0  0  0  0  0
  161.7500  204.9550  149.6450 C   0  0  2  0  0  3  0  0  0  0  0  0
  161.4900  209.1750  148.5870 O   0  0  0  0  0  1  0  0  0  0  0  0
  159.6870  201.6860  150.1430 C   0  0  0  0  0  2  0  0  0  0  0  0
  162.2440  200.6050  149.0830 C   0  0  0  0  0  1  0  0  0  0  0  0
  160.8730  203.8070  149.1620 C   0  0  1  0  0  3  0  0  0  0  0  0
  160.8040  202.9880  145.3040 C   0  0  0  0  0  1  0  0  0  0  0  0
  161.0100  201.7560  145.9440 O   0  0  0  0  0  0  0  0  0  0  0  0
  161.7310  206.9130  153.7600 C   0  0  0  0  0  2  0  0  0  0  0  0
  160.5240  207.0920  154.6650 C   0  0  0  0  0  2  0  0  0  0  0  0
  160.0270  209.3780  155.3030 C   0  0  0  0  0  3  0  0  0  0  0  0
  161.6640  208.1240  156.6870 C   0  0  0  0  0  3  0  0  0  0  0  0
  162.4230  209.0940  157.2150 C   0  0  0  0  0  3  0  0  0  0  0  0
  163.6790  211.1840  156.9150 O   0  0  0  0  0  1  0  0  0  0  0  0
  161.4300  211.1640  156.2790 C   0  0  0  0  0  3  0  0  0  0  0  0
  162.4770  210.5030  156.7760 C   0  0  0  0  0  0  0  0  0  0  0  0
  160.7220  208.2660  155.5560 C   0  0  0  0  0  0  0  0  0  0  0  0
  160.0580  210.5850  156.1800 C   0  0  0  0  0  2  0  0  0  0  0  0
  162.7250  206.2190  147.6700 C   0  0  0  0  0  2  0  0  0  0  0  0
  162.7240  205.8080  145.2030 O   0  0  0  0  0  1  0  0  0  0  0  0
  162.0230  206.1620  146.3490 C   0  0  0  0  0  0  0  0  0  0  0  0
  160.7310  206.4420  146.2690 C   0  0  0  0  0  2  0  0  0  0  0  0
  1 21  1  0  0  0  0
  2 16  1  0  0  0  0
  3 11  1  0  0  0  0
  3  1  1  0  0  0  0
  3  7  1  0  0  0  0
  4  9  1  0  0  0  0
  5  8  1  0  0  0  0
  5 10  1  0  0  0  0
  6  2  1  0  0  0  0
  6  9  1  0  0  0  0
  7 14  1  0  0  0  0
  7 20  1  0  0  0  0
  8  2  1  0  0  0  0
 10 13  1  0  0  0  0
 11 14  1  0  0  0  0
 12 17  1  0  0  0  0
 12  8  1  0  0  0  0
 13 16  1  0  0  0  0
 14 19  1  0  0  0  0
 15  4  1  0  0  0  0
 16 24  1  0  0  0  0
 17  6  1  0  0  0  0
 18  5  1  0  0  0  0
 19 15  1  0  0  0  0
 21 17  1  0  0  0  0
 21 15  1  0  0  0  0
 22 23  1  0  0  0  0
 23  3  1  0  0  0  0
 24 25  1  0  0  0  0
 25 32  1  0  0  0  0
 26 32  2  0  0  0  0
 26 33  1  0  0  0  0
 27 28  2  0  0  0  0
 30 31  2  0  0  0  0
 31 29  1  0  0  0  0
 31 28  1  0  0  0  0
 32 27  1  0  0  0  0
 33 30  1  0  0  0  0
 34 12  1  0  0  0  0
 35 36  1  0  0  0  0
 36 34  1  0  0  0  0
 37 36  2  0  0  0  0
M  END
>  <MODEL>
3

>  <REMARK>
 VINA RESULT:      -7.7      2.453      4.742
  Name = 
  6 active torsions:
  status: ('A' for Active; 'I' for Inactive)
    1  A    between atoms: C_5  and  O_23
    2  A    between atoms: C_20  and  C_25
    3  A    between atoms: C_21  and  C_25
    4  A    between atoms: C_22  and  C_28
    5  A    between atoms: C_22  and  C_37
    6  A    between atoms: C_31  and  C_37
                            x       y       z     vdW  Elec       q    Type
                         _______ _______ _______ _____ _____    ______ ____

>  <TORSDO>
F 6

$$$$
=
 OpenBabel11062409023D

 37 42  0  0  1  0  0  0  0  0999 V2000
  161.5890  212.1130  150.3650 C   0  0  0  0  0  2  0  0  0  0  0  0
  161.9410  207.7130  152.3380 C   0  0  1  0  0  3  0  0  0  0  0  0
  161.2590  213.0580  149.1850 C   0  0  1  0  0  0  0  0  0  0  0  0
  161.7350  208.5870  148.9000 O   0  0  0  0  0  0  0  0  0  0  0  0
  160.0970  208.0930  154.0860 C   0  0  1  0  0  3  0  0  0  0  0  0
  161.5680  208.3900  151.0410 C   0  0  2  0  0  3  0  0  0  0  0  0
  162.1340  212.8830  147.9410 C   0  0  2  0  0  3  0  0  0  0  0  0
  161.3550  208.6630  153.4190 C   0  0  2  0  0  3  0  0  0  0  0  0
  162.4130  208.1390  149.9560 O   0  0  0  0  0  0  0  0  0  0  0  0
  160.3450  206.7040  154.6840 C   0  0  0  0  0  2  0  0  0  0  0  0
  160.0730  212.5220  148.3980 C   0  0  0  0  0  2  0  0  0  0  0  0
  161.0270  209.9790  152.6970 C   0  0  2  0  0  3  0  0  0  0  0  0
  161.3000  205.8320  153.8600 C   0  0  0  0  0  2  0  0  0  0  0  0
  161.0330  212.0120  147.3310 C   0  0  2  0  0  3  0  0  0  0  0  0
  161.8330  210.0060  148.8720 C   0  0  1  0  0  3  0  0  0  0  0  0
  161.3790  206.2850  152.4070 C   0  0  2  0  0  3  0  0  0  0  0  0
  161.7080  209.8390  151.3530 C   0  0  2  0  0  3  0  0  0  0  0  0
  159.6500  208.9530  155.0900 O   0  0  0  0  0  1  0  0  0  0  0  0
  161.2070  210.4890  147.5430 C   0  0  0  0  0  2  0  0  0  0  0  0
  163.5170  212.2610  148.1370 C   0  0  0  0  0  1  0  0  0  0  0  0
  161.1940  210.6340  150.1590 C   0  0  1  0  0  3  0  0  0  0  0  0
  159.9340  214.4530  150.4110 C   0  0  0  0  0  1  0  0  0  0  0  0
  161.0470  214.4020  149.5570 O   0  0  0  0  0  0  0  0  0  0  0  0
  162.2700  205.3260  151.6390 C   0  0  0  0  0  2  0  0  0  0  0  0
  161.5950  203.9700  151.5240 C   0  0  0  0  0  2  0  0  0  0  0  0
  160.9010  202.4850  149.7380 C   0  0  0  0  0  3  0  0  0  0  0  0
  160.9700  204.9190  149.2520 C   0  0  0  0  0  3  0  0  0  0  0  0
  161.1580  204.9600  147.9270 C   0  0  0  0  0  3  0  0  0  0  0  0
  162.3410  204.1280  145.9410 O   0  0  0  0  0  1  0  0  0  0  0  0
  161.2480  202.5650  147.2920 C   0  0  0  0  0  3  0  0  0  0  0  0
  161.5800  203.8370  147.0650 C   0  0  0  0  0  0  0  0  0  0  0  0
  161.1440  203.7390  150.1270 C   0  0  0  0  0  0  0  0  0  0  0  0
  160.3460  202.1310  148.3990 C   0  0  0  0  0  2  0  0  0  0  0  0
  161.5070  211.2050  153.4830 C   0  0  0  0  0  2  0  0  0  0  0  0
  160.4570  212.1970  155.5250 O   0  0  0  0  0  1  0  0  0  0  0  0
  160.4020  211.9570  154.1580 C   0  0  0  0  0  0  0  0  0  0  0  0
  159.3710  212.4010  153.4540 C   0  0  0  0  0  2  0  0  0  0  0  0
  2 16  1  0  0  0  0
  2  8  1  0  0  0  0
  3 23  1  0  0  0  0
  3  1  1  0  0  0  0
  4  9  1  0  0  0  0
  5 10  1  0  0  0  0
  5 18  1  0  0  0  0
  6 17  1  0  0  0  0
  6  2  1  0  0  0  0
  7 20  1  0  0  0  0
  7  3  1  0  0  0  0
  8  5  1  0  0  0  0
  9  6  1  0  0  0  0
 11  3  1  0  0  0  0
 12  8  1  0  0  0  0
 12 34  1  0  0  0  0
 13 10  1  0  0  0  0
 14 19  1  0  0  0  0
 14  7  1  0  0  0  0
 14 11  1  0  0  0  0
 15  4  1  0  0  0  0
 15 21  1  0  0  0  0
 16 13  1  0  0  0  0
 17 12  1  0  0  0  0
 19 15  1  0  0  0  0
 21  1  1  0  0  0  0
 21 17  1  0  0  0  0
 23 22  1  0  0  0  0
 24 16  1  0  0  0  0
 25 24  1  0  0  0  0
 26 32  2  0  0  0  0
 27 32  1  0  0  0  0
 28 27  2  0  0  0  0
 29 31  1  0  0  0  0
 30 33  1  0  0  0  0
 31 30  2  0  0  0  0
 31 28  1  0  0  0  0
 32 25  1  0  0  0  0
 33 26  1  0  0  0  0
 34 36  1  0  0  0  0
 36 35  1  0  0  0  0
 37 36  2  0  0  0  0
M  END
>  <MODEL>
4

>  <REMARK>
 VINA RESULT:      -7.0      2.478      8.213
  Name = 
  6 active torsions:
  status: ('A' for Active; 'I' for Inactive)
    1  A    between atoms: C_5  and  O_23
    2  A    between atoms: C_20  and  C_25
    3  A    between atoms: C_21  and  C_25
    4  A    between atoms: C_22  and  C_28
    5  A    between atoms: C_22  and  C_37
    6  A    between atoms: C_31  and  C_37
                            x       y       z     vdW  Elec       q    Type
                         _______ _______ _______ _____ _____    ______ ____

>  <TORSDO>
F 6

$$$$
=
 OpenBabel11062409023D

 37 42  0  0  1  0  0  0  0  0999 V2000
  161.5600  203.1930  147.8520 C   0  0  0  0  0  2  0  0  0  0  0  0
  162.1370  206.7140  151.1130 C   0  0  1  0  0  3  0  0  0  0  0  0
  160.8660  201.9100  147.3350 C   0  0  1  0  0  0  0  0  0  0  0  0
  160.4990  203.5850  151.5010 O   0  0  0  0  0  0  0  0  0  0  0  0
  161.3840  208.6070  149.5480 C   0  0  1  0  0  3  0  0  0  0  0  0
  161.3110  205.4760  150.8580 C   0  0  2  0  0  3  0  0  0  0  0  0
  161.0320  200.6720  148.2200 C   0  0  2  0  0  3  0  0  0  0  0  0
  162.2610  207.3590  149.7050 C   0  0  2  0  0  3  0  0  0  0  0  0
  161.5130  204.4140  151.7440 O   0  0  0  0  0  0  0  0  0  0  0  0
  161.6740  209.6500  150.6330 C   0  0  0  0  0  2  0  0  0  0  0  0
  159.3860  201.9350  147.6890 C   0  0  0  0  0  2  0  0  0  0  0  0
  161.8320  206.2760  148.7020 C   0  0  2  0  0  3  0  0  0  0  0  0
  162.0030  209.0490  152.0050 C   0  0  0  0  0  2  0  0  0  0  0  0
  159.6600  200.9670  148.8320 C   0  0  2  0  0  3  0  0  0  0  0  0
  160.7780  202.8690  150.3030 C   0  0  1  0  0  3  0  0  0  0  0  0
  161.4680  207.6300  152.1500 C   0  0  2  0  0  3  0  0  0  0  0  0
  161.7880  205.0090  149.5280 C   0  0  2  0  0  3  0  0  0  0  0  0
  161.5810  209.1820  148.2920 O   0  0  0  0  0  1  0  0  0  0  0  0
  159.6880  201.7840  150.1450 C   0  0  0  0  0  2  0  0  0  0  0  0
  162.2420  200.6340  149.1540 C   0  0  0  0  0  1  0  0  0  0  0  0
  160.9040  203.8500  149.0860 C   0  0  1  0  0  3  0  0  0  0  0  0
  159.8550  201.9890  145.2910 C   0  0  0  0  0  1  0  0  0  0  0  0
  161.0470  201.6640  145.9580 O   0  0  0  0  0  0  0  0  0  0  0  0
  161.7550  207.1370  153.5570 C   0  0  0  0  0  2  0  0  0  0  0  0
  160.5820  207.4570  154.4680 C   0  0  0  0  0  2  0  0  0  0  0  0
  161.5930  209.2270  155.7800 C   0  0  0  0  0  3  0  0  0  0  0  0
  159.6690  209.8240  154.3290 C   0  0  0  0  0  3  0  0  0  0  0  0
  159.1500  210.8980  154.9370 C   0  0  0  0  0  3  0  0  0  0  0  0
  158.4370  212.0050  157.0120 O   0  0  0  0  0  1  0  0  0  0  0  0
  160.6330  211.2110  156.9000 C   0  0  0  0  0  3  0  0  0  0  0  0
  159.4450  211.3590  156.3090 C   0  0  0  0  0  0  0  0  0  0  0  0
  160.6470  208.8770  154.9060 C   0  0  0  0  0  0  0  0  0  0  0  0
  161.8290  210.6350  156.2180 C   0  0  0  0  0  2  0  0  0  0  0  0
  162.7930  206.1780  147.5110 C   0  0  0  0  0  2  0  0  0  0  0  0
  162.8040  205.1330  145.2390 O   0  0  0  0  0  1  0  0  0  0  0  0
  162.1170  205.8380  146.2190 C   0  0  0  0  0  0  0  0  0  0  0  0
  160.8620  206.2040  146.0090 C   0  0  0  0  0  2  0  0  0  0  0  0
  1 21  1  0  0  0  0
  2 16  1  0  0  0  0
  3 11  1  0  0  0  0
  3  1  1  0  0  0  0
  3  7  1  0  0  0  0
  4  9  1  0  0  0  0
  5  8  1  0  0  0  0
  5 10  1  0  0  0  0
  6  2  1  0  0  0  0
  6  9  1  0  0  0  0
  7 14  1  0  0  0  0
  7 20  1  0  0  0  0
  8  2  1  0  0  0  0
 10 13  1  0  0  0  0
 11 14  1  0  0  0  0
 12 17  1  0  0  0  0
 12  8  1  0  0  0  0
 13 16  1  0  0  0  0
 14 19  1  0  0  0  0
 15  4  1  0  0  0  0
 16 24  1  0  0  0  0
 17  6  1  0  0  0  0
 18  5  1  0  0  0  0
 19 15  1  0  0  0  0
 21 17  1  0  0  0  0
 21 15  1  0  0  0  0
 22 23  1  0  0  0  0
 23  3  1  0  0  0  0
 24 25  1  0  0  0  0
 25 32  1  0  0  0  0
 26 33  1  0  0  0  0
 27 32  1  0  0  0  0
 27 28  2  0  0  0  0
 28 31  1  0  0  0  0
 31 30  2  0  0  0  0
 31 29  1  0  0  0  0
 32 26  2  0  0  0  0
 33 30  1  0  0  0  0
 34 12  1  0  0  0  0
 35 36  1  0  0  0  0
 36 34  1  0  0  0  0
 37 36  2  0  0  0  0
M  END
>  <MODEL>
5

>  <REMARK>
 VINA RESULT:      -6.6      1.919      4.348
  Name = 
  6 active torsions:
  status: ('A' for Active; 'I' for Inactive)
    1  A    between atoms: C_5  and  O_23
    2  A    between atoms: C_20  and  C_25
    3  A    between atoms: C_21  and  C_25
    4  A    between atoms: C_22  and  C_28
    5  A    between atoms: C_22  and  C_37
    6  A    between atoms: C_31  and  C_37
                            x       y       z     vdW  Elec       q    Type
                         _______ _______ _______ _____ _____    ______ ____

>  <TORSDO>
F 6

$$$$
=
 OpenBabel11062409023D

 37 42  0  0  1  0  0  0  0  0999 V2000
  158.5820  211.8390  155.7530 C   0  0  0  0  0  2  0  0  0  0  0  0
  161.1730  208.5810  153.2950 C   0  0  1  0  0  3  0  0  0  0  0  0
  157.4280  212.8640  155.8650 C   0  0  1  0  0  0  0  0  0  0  0  0
  158.9630  211.0600  152.0320 O   0  0  0  0  0  0  0  0  0  0  0  0
  160.4920  206.5860  154.7640 C   0  0  1  0  0  3  0  0  0  0  0  0
  160.0010  209.5170  153.1250 C   0  0  2  0  0  3  0  0  0  0  0  0
  157.5330  214.0740  154.9320 C   0  0  2  0  0  3  0  0  0  0  0  0
  160.9890  208.0360  154.7380 C   0  0  2  0  0  3  0  0  0  0  0  0
  160.1870  210.5710  152.2240 O   0  0  0  0  0  0  0  0  0  0  0  0
  161.4070  205.6530  153.9620 C   0  0  0  0  0  2  0  0  0  0  0  0
  156.2220  212.3860  155.0700 C   0  0  0  0  0  2  0  0  0  0  0  0
  159.9660  208.9630  155.4160 C   0  0  2  0  0  3  0  0  0  0  0  0
  161.9980  206.2940  152.7000 C   0  0  0  0  0  2  0  0  0  0  0  0
  156.5860  213.3650  153.9610 C   0  0  2  0  0  3  0  0  0  0  0  0
  158.6140  211.8540  153.1600 C   0  0  1  0  0  3  0  0  0  0  0  0
  161.1730  207.4820  152.2210 C   0  0  2  0  0  3  0  0  0  0  0  0
  159.8540  210.1380  154.4690 C   0  0  2  0  0  3  0  0  0  0  0  0
  160.4060  206.1260  156.0790 O   0  0  0  0  0  1  0  0  0  0  0  0
  157.2790  212.5640  152.8340 C   0  0  0  0  0  2  0  0  0  0  0  0
  158.9260  214.4530  154.4290 C   0  0  0  0  0  1  0  0  0  0  0  0
  158.5880  210.9860  154.4660 C   0  0  1  0  0  3  0  0  0  0  0  0
  155.6600  213.2530  157.2520 C   0  0  0  0  0  1  0  0  0  0  0  0
  157.0600  213.1850  157.1880 O   0  0  0  0  0  0  0  0  0  0  0  0
  161.7680  208.0050  150.9260 C   0  0  0  0  0  2  0  0  0  0  0  0
  162.7250  206.9800  150.3430 C   0  0  0  0  0  2  0  0  0  0  0  0
  161.5790  204.9660  149.6300 C   0  0  0  0  0  3  0  0  0  0  0  0
  161.8880  206.7730  147.9540 C   0  0  0  0  0  3  0  0  0  0  0  0
  161.8750  206.1130  146.7890 C   0  0  0  0  0  3  0  0  0  0  0  0
  162.6230  204.1970  145.4450 O   0  0  0  0  0  1  0  0  0  0  0  0
  161.5560  203.7520  147.4760 C   0  0  0  0  0  3  0  0  0  0  0  0
  162.0110  204.6540  146.6040 C   0  0  0  0  0  0  0  0  0  0  0  0
  162.0390  206.1750  149.2980 C   0  0  0  0  0  0  0  0  0  0  0  0
  160.7850  204.1060  148.7040 C   0  0  0  0  0  2  0  0  0  0  0  0
  160.4040  209.3740  156.8270 C   0  0  0  0  0  2  0  0  0  0  0  0
  161.6480  211.5300  156.5880 O   0  0  0  0  0  1  0  0  0  0  0  0
  161.6730  210.1680  156.8550 C   0  0  0  0  0  0  0  0  0  0  0  0
  162.8220  209.5750  157.1410 C   0  0  0  0  0  2  0  0  0  0  0  0
  1  3  1  0  0  0  0
  2  8  1  0  0  0  0
  3 23  1  0  0  0  0
  4  9  1  0  0  0  0
  4 15  1  0  0  0  0
  5 18  1  0  0  0  0
  6  2  1  0  0  0  0
  6 17  1  0  0  0  0
  7  3  1  0  0  0  0
  8  5  1  0  0  0  0
  8 12  1  0  0  0  0
  9  6  1  0  0  0  0
 10  5  1  0  0  0  0
 11  3  1  0  0  0  0
 12 34  1  0  0  0  0
 13 10  1  0  0  0  0
 14  7  1  0  0  0  0
 14 11  1  0  0  0  0
 15 21  1  0  0  0  0
 16 13  1  0  0  0  0
 16  2  1  0  0  0  0
 17 12  1  0  0  0  0
 19 15  1  0  0  0  0
 19 14  1  0  0  0  0
 20  7  1  0  0  0  0
 21 17  1  0  0  0  0
 21  1  1  0  0  0  0
 23 22  1  0  0  0  0
 24 16  1  0  0  0  0
 25 24  1  0  0  0  0
 27 32  1  0  0  0  0
 28 27  2  0  0  0  0
 29 31  1  0  0  0  0
 30 33  1  0  0  0  0
 31 28  1  0  0  0  0
 31 30  2  0  0  0  0
 32 26  2  0  0  0  0
 32 25  1  0  0  0  0
 33 26  1  0  0  0  0
 34 36  1  0  0  0  0
 35 36  1  0  0  0  0
 36 37  2  0  0  0  0
M  END
>  <MODEL>
6

>  <REMARK>
 VINA RESULT:      -6.3      2.409      9.653
  Name = 
  6 active torsions:
  status: ('A' for Active; 'I' for Inactive)
    1  A    between atoms: C_5  and  O_23
    2  A    between atoms: C_20  and  C_25
    3  A    between atoms: C_21  and  C_25
    4  A    between atoms: C_22  and  C_28
    5  A    between atoms: C_22  and  C_37
    6  A    between atoms: C_31  and  C_37
                            x       y       z     vdW  Elec       q    Type
                         _______ _______ _______ _____ _____    ______ ____

>  <TORSDO>
F 6

$$$$
=
 OpenBabel11062409023D

 37 42  0  0  1  0  0  0  0  0999 V2000
  160.7920  211.2050  154.8240 C   0  0  0  0  0  2  0  0  0  0  0  0
  160.9730  208.7060  150.6900 C   0  0  1  0  0  3  0  0  0  0  0  0
  161.1140  211.3850  156.3270 C   0  0  1  0  0  0  0  0  0  0  0  0
  161.5310  207.5480  154.0020 O   0  0  0  0  0  0  0  0  0  0  0  0
  162.4270  210.4200  149.4450 C   0  0  1  0  0  3  0  0  0  0  0  0
  161.4060  208.6170  152.1340 C   0  0  2  0  0  3  0  0  0  0  0  0
  160.4870  210.3470  157.2610 C   0  0  2  0  0  3  0  0  0  0  0  0
  161.2010  210.2020  150.3390 C   0  0  2  0  0  3  0  0  0  0  0  0
  160.7970  207.6130  152.8930 O   0  0  0  0  0  0  0  0  0  0  0  0
  162.3560  209.5830  148.1620 C   0  0  0  0  0  2  0  0  0  0  0  0
  162.4850  210.8060  156.6430 C   0  0  0  0  0  2  0  0  0  0  0  0
  161.3830  210.9310  151.6810 C   0  0  2  0  0  3  0  0  0  0  0  0
  161.7170  208.2020  148.3530 C   0  0  0  0  0  2  0  0  0  0  0  0
  161.8100  209.5780  157.2400 C   0  0  2  0  0  3  0  0  0  0  0  0
  161.1750  208.6410  154.8420 C   0  0  1  0  0  3  0  0  0  0  0  0
  161.7750  207.7400  149.8040 C   0  0  2  0  0  3  0  0  0  0  0  0
  160.9520  209.9110  152.7120 C   0  0  2  0  0  3  0  0  0  0  0  0
  162.5480  211.7680  149.1080 O   0  0  0  0  0  1  0  0  0  0  0  0
  161.8940  208.4400  156.1960 C   0  0  0  0  0  2  0  0  0  0  0  0
  159.2310  209.6270  156.7670 C   0  0  0  0  0  1  0  0  0  0  0  0
  161.4830  210.0070  154.1370 C   0  0  1  0  0  3  0  0  0  0  0  0
  159.8020  213.2510  156.3260 C   0  0  0  0  0  1  0  0  0  0  0  0
  161.0130  212.7130  156.7890 O   0  0  0  0  0  0  0  0  0  0  0  0
  161.2060  206.3360  149.8980 C   0  0  0  0  0  2  0  0  0  0  0  0
  161.8720  205.4370  148.8710 C   0  0  0  0  0  2  0  0  0  0  0  0
  160.9010  203.5320  150.0150 C   0  0  0  0  0  3  0  0  0  0  0  0
  160.9090  203.5040  147.5320 C   0  0  0  0  0  3  0  0  0  0  0  0
  160.8920  202.1960  147.2420 C   0  0  0  0  0  3  0  0  0  0  0  0
  161.7500  199.9340  147.6650 O   0  0  0  0  0  1  0  0  0  0  0  0
  160.8680  201.1200  149.4760 C   0  0  0  0  0  3  0  0  0  0  0  0
  161.1690  201.0860  148.1760 C   0  0  0  0  0  0  0  0  0  0  0  0
  161.2090  204.1060  148.8490 C   0  0  0  0  0  0  0  0  0  0  0  0
  160.1450  202.2510  150.1280 C   0  0  0  0  0  2  0  0  0  0  0  0
  160.5680  212.2280  151.7490 C   0  0  0  0  0  2  0  0  0  0  0  0
  158.5180  211.0820  152.6070 O   0  0  0  0  0  1  0  0  0  0  0  0
  159.0870  212.0100  151.7450 C   0  0  0  0  0  0  0  0  0  0  0  0
  158.3140  212.7030  150.9230 C   0  0  0  0  0  2  0  0  0  0  0  0
  1  3  1  0  0  0  0
  2  6  1  0  0  0  0
  3 11  1  0  0  0  0
  3 23  1  0  0  0  0
  3  7  1  0  0  0  0
  4 15  1  0  0  0  0
  5  8  1  0  0  0  0
  6 17  1  0  0  0  0
  6  9  1  0  0  0  0
  8  2  1  0  0  0  0
  8 12  1  0  0  0  0
  9  4  1  0  0  0  0
 10 13  1  0  0  0  0
 10  5  1  0  0  0  0
 11 14  1  0  0  0  0
 12 34  1  0  0  0  0
 12 17  1  0  0  0  0
 13 16  1  0  0  0  0
 14  7  1  0  0  0  0
 15 19  1  0  0  0  0
 16 24  1  0  0  0  0
 16  2  1  0  0  0  0
 17 21  1  0  0  0  0
 18  5  1  0  0  0  0
 19 14  1  0  0  0  0
 20  7  1  0  0  0  0
 21  1  1  0  0  0  0
 21 15  1  0  0  0  0
 22 23  1  0  0  0  0
 25 24  1  0  0  0  0
 26 33  1  0  0  0  0
 27 32  1  0  0  0  0
 28 27  2  0  0  0  0
 28 31  1  0  0  0  0
 29 31  1  0  0  0  0
 30 33  1  0  0  0  0
 31 30  2  0  0  0  0
 32 25  1  0  0  0  0
 32 26  2  0  0  0  0
 36 34  1  0  0  0  0
 36 35  1  0  0  0  0
 37 36  2  0  0  0  0
M  END
>  <MODEL>
7

>  <REMARK>
 VINA RESULT:      -5.8      2.511      9.890
  Name = 
  6 active torsions:
  status: ('A' for Active; 'I' for Inactive)
    1  A    between atoms: C_5  and  O_23
    2  A    between atoms: C_20  and  C_25
    3  A    between atoms: C_21  and  C_25
    4  A    between atoms: C_22  and  C_28
    5  A    between atoms: C_22  and  C_37
    6  A    between atoms: C_31  and  C_37
                            x       y       z     vdW  Elec       q    Type
                         _______ _______ _______ _____ _____    ______ ____

>  <TORSDO>
F 6

$$$$
=
 OpenBabel11062409023D

 37 42  0  0  1  0  0  0  0  0999 V2000
  159.0730  212.2020  154.4010 C   0  0  0  0  0  2  0  0  0  0  0  0
  161.0940  209.1630  151.2320 C   0  0  1  0  0  3  0  0  0  0  0  0
  158.9920  212.8660  155.7970 C   0  0  1  0  0  0  0  0  0  0  0  0
  161.4450  209.2290  154.7670 O   0  0  0  0  0  0  0  0  0  0  0  0
  161.8870  211.0000  149.6200 C   0  0  1  0  0  3  0  0  0  0  0  0
  161.2370  209.6340  152.6590 C   0  0  2  0  0  3  0  0  0  0  0  0
  158.7020  211.9130  156.9600 C   0  0  2  0  0  3  0  0  0  0  0  0
  160.7240  210.4600  150.4610 C   0  0  2  0  0  3  0  0  0  0  0  0
  160.9820  208.6770  153.6460 O   0  0  0  0  0  0  0  0  0  0  0  0
  162.4270  209.9450  148.6470 C   0  0  0  0  0  2  0  0  0  0  0  0
  160.3900  213.0840  156.3560 C   0  0  0  0  0  2  0  0  0  0  0  0
  160.3160  211.4870  151.5300 C   0  0  2  0  0  3  0  0  0  0  0  0
  162.4150  208.5170  149.2060 C   0  0  0  0  0  2  0  0  0  0  0  0
  160.2030  211.8670  157.2530 C   0  0  2  0  0  3  0  0  0  0  0  0
  160.5030  210.1980  155.2140 C   0  0  1  0  0  3  0  0  0  0  0  0
  162.3860  208.4990  150.7290 C   0  0  2  0  0  3  0  0  0  0  0  0
  160.1720  210.6650  152.7920 C   0  0  2  0  0  3  0  0  0  0  0  0
  161.4820  212.1250  148.9010 O   0  0  0  0  0  1  0  0  0  0  0  0
  160.9630  210.6850  156.6080 C   0  0  0  0  0  2  0  0  0  0  0  0
  157.9940  210.5980  156.6300 C   0  0  0  0  0  1  0  0  0  0  0  0
  160.3270  211.3360  154.1510 C   0  0  1  0  0  3  0  0  0  0  0  0
  157.0070  213.8280  155.2160 C   0  0  0  0  0  1  0  0  0  0  0  0
  158.2470  214.0620  155.8310 O   0  0  0  0  0  0  0  0  0  0  0  0
  162.4640  207.0600  151.2060 C   0  0  0  0  0  2  0  0  0  0  0  0
  161.0700  206.4610  151.2780 C   0  0  0  0  0  2  0  0  0  0  0  0
  161.0630  204.1890  150.4320 C   0  0  0  0  0  3  0  0  0  0  0  0
  160.4590  206.0090  148.8540 C   0  0  0  0  0  3  0  0  0  0  0  0
  160.7800  205.4950  147.6590 C   0  0  0  0  0  3  0  0  0  0  0  0
  162.3810  204.2700  146.2550 O   0  0  0  0  0  1  0  0  0  0  0  0
  161.6530  203.2440  148.2250 C   0  0  0  0  0  3  0  0  0  0  0  0
  161.6150  204.3020  147.4120 C   0  0  0  0  0  0  0  0  0  0  0  0
  160.8740  205.4850  150.1730 C   0  0  0  0  0  0  0  0  0  0  0  0
  160.7980  203.1050  149.4400 C   0  0  0  0  0  2  0  0  0  0  0  0
  159.0290  212.2320  151.1540 C   0  0  0  0  0  2  0  0  0  0  0  0
  160.0550  214.4520  151.6830 O   0  0  0  0  0  1  0  0  0  0  0  0
  159.2400  213.6860  150.8600 C   0  0  0  0  0  0  0  0  0  0  0  0
  158.6550  214.2440  149.8110 C   0  0  0  0  0  2  0  0  0  0  0  0
  1  3  1  0  0  0  0
  2  6  1  0  0  0  0
  3 23  1  0  0  0  0
  3 11  1  0  0  0  0
  3  7  1  0  0  0  0
  4 15  1  0  0  0  0
  5  8  1  0  0  0  0
  6 17  1  0  0  0  0
  6  9  1  0  0  0  0
  7 14  1  0  0  0  0
  8  2  1  0  0  0  0
  8 12  1  0  0  0  0
  9  4  1  0  0  0  0
 10 13  1  0  0  0  0
 10  5  1  0  0  0  0
 11 14  1  0  0  0  0
 12 17  1  0  0  0  0
 13 16  1  0  0  0  0
 15 19  1  0  0  0  0
 16 24  1  0  0  0  0
 16  2  1  0  0  0  0
 17 21  1  0  0  0  0
 18  5  1  0  0  0  0
 19 14  1  0  0  0  0
 20  7  1  0  0  0  0
 21  1  1  0  0  0  0
 21 15  1  0  0  0  0
 22 23  1  0  0  0  0
 24 25  1  0  0  0  0
 27 32  1  0  0  0  0
 28 27  2  0  0  0  0
 29 31  1  0  0  0  0
 30 33  1  0  0  0  0
 31 28  1  0  0  0  0
 31 30  2  0  0  0  0
 32 26  2  0  0  0  0
 32 25  1  0  0  0  0
 33 26  1  0  0  0  0
 34 12  1  0  0  0  0
 36 34  1  0  0  0  0
 36 35  1  0  0  0  0
 37 36  2  0  0  0  0
M  END
>  <MODEL>
8

>  <REMARK>
 VINA RESULT:      -5.8      2.402      9.923
  Name = 
  6 active torsions:
  status: ('A' for Active; 'I' for Inactive)
    1  A    between atoms: C_5  and  O_23
    2  A    between atoms: C_20  and  C_25
    3  A    between atoms: C_21  and  C_25
    4  A    between atoms: C_22  and  C_28
    5  A    between atoms: C_22  and  C_37
    6  A    between atoms: C_31  and  C_37
                            x       y       z     vdW  Elec       q    Type
                         _______ _______ _______ _____ _____    ______ ____

>  <TORSDO>
F 6

$$$$
