=
 OpenBabel11052423073D

 27 31  0  0  1  0  0  0  0  0999 V2000
  161.7400  206.8860  153.1010 C   0  0  0  0  0  3  0  0  0  0  0  0
  161.5670  207.6690  150.7360 C   0  0  0  0  0  0  0  0  0  0  0  0
  160.6000  209.5120  152.0710 C   0  0  0  0  0  3  0  0  0  0  0  0
  161.9150  210.7110  147.9060 O   0  0  0  0  0  0  0  0  0  0  0  0
  163.4730  212.2140  148.2870 O   0  0  0  0  0  1  0  0  0  0  0  0
  161.4140  207.3620  149.3310 N   0  0  0  0  0  0  0  0  0  0  0  0
  162.1500  211.5120  149.9960 C   0  0  1  0  0  3  0  0  0  0  0  0
  159.5000  210.0440  155.3430 C   0  0  0  0  0  3  0  0  0  0  0  0
  161.0750  212.3190  150.7010 C   0  0  0  0  0  1  0  0  0  0  0  0
  160.7640  209.9990  156.1020 C   0  0  0  0  0  3  0  0  0  0  0  0
  161.8110  210.0540  150.0020 C   0  0  1  0  0  3  0  0  0  0  0  0
  161.6250  206.6670  151.6410 C   0  0  0  0  0  0  0  0  0  0  0  0
  162.1880  211.8920  148.5720 N   0  0  0  0  0  0  0  0  0  0  0  0
  161.7150  209.6580  148.7650 C   0  0  0  0  0  0  0  0  0  0  0  0
  161.2750  207.9070  153.8360 C   0  0  0  0  0  0  0  0  0  0  0  0
  161.7270  209.1150  151.1780 C   0  0  0  0  0  0  0  0  0  0  0  0
  159.3440  209.5960  154.0940 C   0  0  0  0  0  3  0  0  0  0  0  0
  161.4760  208.2640  148.3980 C   0  0  0  0  0  3  0  0  0  0  0  0
  161.6410  208.9960  156.0570 C   0  0  0  0  0  3  0  0  0  0  0  0
  161.3930  207.7210  155.3150 C   0  0  0  0  0  2  0  0  0  0  0  0
  160.4140  208.9920  153.2840 C   0  0  0  0  0  0  0  0  0  0  0  0
  160.8380  202.5300  150.6710 C   0  0  0  0  0  3  0  0  0  0  0  0
  161.6210  205.2200  151.2260 C   0  0  1  0  0  3  0  0  0  0  0  0
  161.2900  204.2890  152.3970 C   0  0  0  0  0  2  0  0  0  0  0  0
  161.0580  202.8660  151.9530 C   0  0  0  0  0  3  0  0  0  0  0  0
  160.9050  203.5310  149.5470 C   0  0  0  0  0  2  0  0  0  0  0  0
  160.6960  204.9600  150.0400 C   0  0  0  0  0  2  0  0  0  0  0  0
  1 15  1  0  0  0  0
  2 16  1  0  0  0  0
  2 12  1  0  0  0  0
  3 21  1  0  0  0  0
  4 13  1  0  0  0  0
  4 14  1  0  0  0  0
  5 13  1  0  0  0  0
  6  2  2  0  0  0  0
  7 11  1  0  0  0  0
  7  9  1  1  0  0  0
  8 10  1  0  0  0  0
 11 14  1  6  0  0  0
 11 16  1  0  0  0  0
 12  1  2  0  0  0  0
 13  7  1  0  0  0  0
 15 20  1  0  0  0  0
 16  3  2  0  0  0  0
 17  8  2  0  0  0  0
 18 14  2  0  0  0  0
 18  6  1  0  0  0  0
 19 10  2  0  0  0  0
 20 19  1  0  0  0  0
 21 15  2  0  0  0  0
 21 17  1  0  0  0  0
 22 25  2  0  0  0  0
 23 12  1  1  0  0  0
 23 24  1  0  0  0  0
 25 24  1  0  0  0  0
 26 27  1  0  0  0  0
 26 22  1  0  0  0  0
 27 23  1  0  0  0  0
M  END
>  <MODEL>
1

>  <REMARK>
 VINA RESULT:      -7.9      0.000      0.000
  Name = 
  1 active torsions:
  status: ('A' for Active; 'I' for Inactive)
    1  A    between atoms: C_9  and  C_15
                            x       y       z     vdW  Elec       q    Type
                         _______ _______ _______ _____ _____    ______ ____

>  <TORSDO>
F 1

$$$$
=
 OpenBabel11052423073D

 27 31  0  0  1  0  0  0  0  0999 V2000
  161.2720  208.8030  153.3740 C   0  0  0  0  0  3  0  0  0  0  0  0
  161.5100  209.0800  150.9050 C   0  0  0  0  0  0  0  0  0  0  0  0
  160.1600  211.0250  151.6170 C   0  0  0  0  0  3  0  0  0  0  0  0
  162.1780  211.5240  147.5930 O   0  0  0  0  0  0  0  0  0  0  0  0
  163.5100  213.2420  147.9120 O   0  0  0  0  0  1  0  0  0  0  0  0
  161.6620  208.4860  149.5950 N   0  0  0  0  0  0  0  0  0  0  0  0
  161.9320  212.7420  149.4690 C   0  0  1  0  0  3  0  0  0  0  0  0
  158.3980  212.0590  154.4500 C   0  0  0  0  0  3  0  0  0  0  0  0
  160.6810  213.5420  149.7820 C   0  0  0  0  0  1  0  0  0  0  0  0
  159.4860  212.3120  155.4120 C   0  0  0  0  0  3  0  0  0  0  0  0
  161.7120  211.2850  149.7290 C   0  0  1  0  0  3  0  0  0  0  0  0
  161.4650  208.2890  152.0000 C   0  0  0  0  0  0  0  0  0  0  0  0
  162.2220  212.8360  148.0270 N   0  0  0  0  0  0  0  0  0  0  0  0
  161.8920  210.6440  148.6090 C   0  0  0  0  0  0  0  0  0  0  0  0
  160.5940  209.8880  153.7780 C   0  0  0  0  0  0  0  0  0  0  0  0
  161.4680  210.5930  151.0450 C   0  0  0  0  0  0  0  0  0  0  0  0
  158.5260  211.3600  153.3190 C   0  0  0  0  0  3  0  0  0  0  0  0
  161.8380  209.1880  148.5150 C   0  0  0  0  0  3  0  0  0  0  0  0
  160.4290  211.4280  155.7410 C   0  0  0  0  0  3  0  0  0  0  0  0
  160.4310  210.0120  155.2600 C   0  0  0  0  0  2  0  0  0  0  0  0
  159.7780  210.7360  152.8610 C   0  0  0  0  0  0  0  0  0  0  0  0
  161.2130  203.9760  151.8960 C   0  0  0  0  0  3  0  0  0  0  0  0
  161.6530  206.7980  151.9130 C   0  0  1  0  0  3  0  0  0  0  0  0
  161.2940  206.0970  153.2260 C   0  0  0  0  0  2  0  0  0  0  0  0
  161.2590  204.5950  153.0870 C   0  0  0  0  0  3  0  0  0  0  0  0
  161.2990  204.7230  150.5890 C   0  0  0  0  0  2  0  0  0  0  0  0
  160.8930  206.1850  150.7380 C   0  0  0  0  0  2  0  0  0  0  0  0
  1 15  1  0  0  0  0
  2 16  1  0  0  0  0
  2 12  1  0  0  0  0
  3 21  1  0  0  0  0
  4 13  1  0  0  0  0
  4 14  1  0  0  0  0
  5 13  1  0  0  0  0
  6  2  2  0  0  0  0
  7 11  1  0  0  0  0
  7  9  1  6  0  0  0
  8 10  1  0  0  0  0
 10 19  2  0  0  0  0
 11 14  1  1  0  0  0
 11 16  1  0  0  0  0
 12  1  2  0  0  0  0
 13  7  1  0  0  0  0
 15 20  1  0  0  0  0
 16  3  2  0  0  0  0
 17  8  2  0  0  0  0
 18 14  2  0  0  0  0
 18  6  1  0  0  0  0
 20 19  1  0  0  0  0
 21 17  1  0  0  0  0
 21 15  2  0  0  0  0
 22 25  2  0  0  0  0
 23 12  1  1  0  0  0
 23 24  1  0  0  0  0
 25 24  1  0  0  0  0
 26 27  1  0  0  0  0
 26 22  1  0  0  0  0
 27 23  1  0  0  0  0
M  END
>  <MODEL>
2

>  <REMARK>
 VINA RESULT:      -7.1      1.274      1.780
  Name = 
  1 active torsions:
  status: ('A' for Active; 'I' for Inactive)
    1  A    between atoms: C_9  and  C_15
                            x       y       z     vdW  Elec       q    Type
                         _______ _______ _______ _____ _____    ______ ____

>  <TORSDO>
F 1

$$$$
=
 OpenBabel11052423073D

 27 31  0  0  1  0  0  0  0  0999 V2000
  162.3910  209.1090  148.7090 C   0  0  0  0  0  3  0  0  0  0  0  0
  161.5490  209.9720  150.8950 C   0  0  0  0  0  0  0  0  0  0  0  0
  160.7830  207.6230  150.8220 C   0  0  0  0  0  3  0  0  0  0  0  0
  160.8770  209.4300  154.9740 O   0  0  0  0  0  0  0  0  0  0  0  0
  162.3310  208.1690  156.0340 O   0  0  0  0  0  1  0  0  0  0  0  0
  161.0730  211.0780  151.6960 N   0  0  0  0  0  0  0  0  0  0  0  0
  161.5590  207.5190  153.9990 C   0  0  1  0  0  3  0  0  0  0  0  0
  160.5070  205.0570  148.4670 C   0  0  0  0  0  3  0  0  0  0  0  0
  160.6280  206.3560  153.7110 C   0  0  0  0  0  1  0  0  0  0  0  0
  161.9210  204.7300  148.2050 C   0  0  0  0  0  3  0  0  0  0  0  0
  161.3720  208.6120  152.9930 C   0  0  0  0  0  0  0  0  0  0  0  0
  161.9300  210.1840  149.6150 C   0  0  0  0  0  0  0  0  0  0  0  0
  161.1970  208.1240  155.2940 N   0  0  0  0  0  0  0  0  0  0  0  0
  161.0020  209.6860  153.6300 C   0  0  0  0  0  0  0  0  0  0  0  0
  162.0340  207.8150  148.6890 C   0  0  0  0  0  0  0  0  0  0  0  0
  161.6780  208.5920  151.5180 C   0  0  2  0  0  3  0  0  0  0  0  0
  160.0810  206.1740  149.0650 C   0  0  0  0  0  3  0  0  0  0  0  0
  160.8100  210.9720  152.9640 C   0  0  0  0  0  3  0  0  0  0  0  0
  162.8480  205.6120  147.8320 C   0  0  0  0  0  3  0  0  0  0  0  0
  162.5420  207.0410  147.5140 C   0  0  0  0  0  2  0  0  0  0  0  0
  160.9620  207.2460  149.5560 C   0  0  0  0  0  0  0  0  0  0  0  0
  162.0660  213.7510  147.1800 C   0  0  0  0  0  3  0  0  0  0  0  0
  161.9560  211.5630  149.0110 C   0  0  1  0  0  3  0  0  0  0  0  0
  163.2630  211.8360  148.2610 C   0  0  0  0  0  2  0  0  0  0  0  0
  163.2140  213.1150  147.4640 C   0  0  0  0  0  3  0  0  0  0  0  0
  160.7330  213.3010  147.7200 C   0  0  0  0  0  2  0  0  0  0  0  0
  160.7460  211.8280  148.1190 C   0  0  0  0  0  2  0  0  0  0  0  0
  1 12  1  0  0  0  0
  2 16  1  0  0  0  0
  2  6  1  0  0  0  0
  4 13  1  0  0  0  0
  6 18  2  0  0  0  0
  7  9  1  6  0  0  0
  7 13  1  0  0  0  0
  8 17  2  0  0  0  0
 10  8  1  0  0  0  0
 11 14  2  0  0  0  0
 11  7  1  0  0  0  0
 12  2  2  0  0  0  0
 13  5  1  0  0  0  0
 14  4  1  0  0  0  0
 15  1  2  0  0  0  0
 15 21  1  0  0  0  0
 16  3  1  6  0  0  0
 16 11  1  0  0  0  0
 17 21  1  0  0  0  0
 18 14  1  0  0  0  0
 19 10  2  0  0  0  0
 20 19  1  0  0  0  0
 20 15  1  0  0  0  0
 21  3  2  0  0  0  0
 22 25  2  0  0  0  0
 22 26  1  0  0  0  0
 23 12  1  6  0  0  0
 24 23  1  0  0  0  0
 25 24  1  0  0  0  0
 26 27  1  0  0  0  0
 27 23  1  0  0  0  0
M  END
>  <MODEL>
3

>  <REMARK>
 VINA RESULT:      -6.6      3.055      7.033
  Name = 
  1 active torsions:
  status: ('A' for Active; 'I' for Inactive)
    1  A    between atoms: C_9  and  C_15
                            x       y       z     vdW  Elec       q    Type
                         _______ _______ _______ _____ _____    ______ ____

>  <TORSDO>
F 1

$$$$
=
 OpenBabel11052423073D

 27 31  0  0  1  0  0  0  0  0999 V2000
  160.4460  211.6130  151.5870 C   0  0  0  0  0  3  0  0  0  0  0  0
  161.4280  209.6130  150.4590 C   0  0  1  0  0  3  0  0  0  0  0  0
  161.7110  209.1630  152.8730 C   0  0  0  0  0  3  0  0  0  0  0  0
  161.9490  205.4820  150.2450 O   0  0  0  0  0  0  0  0  0  0  0  0
  160.2660  204.2570  150.9480 O   0  0  0  0  0  1  0  0  0  0  0  0
  162.1080  209.0350  149.3210 N   0  0  0  0  0  0  0  0  0  0  0  0
  160.9080  206.0750  152.1500 C   0  0  1  0  0  3  0  0  0  0  0  0
  161.4890  210.9220  155.8830 C   0  0  0  0  0  3  0  0  0  0  0  0
  161.5910  206.0700  153.5050 C   0  0  0  0  0  1  0  0  0  0  0  0
  160.0400  211.1800  155.9800 C   0  0  0  0  0  3  0  0  0  0  0  0
  161.3150  207.2740  151.3530 C   0  0  0  0  0  0  0  0  0  0  0  0
  161.1060  210.9260  150.4530 C   0  0  0  0  0  0  0  0  0  0  0  0
  161.3730  204.9160  151.3670 N   0  0  0  0  0  0  0  0  0  0  0  0
  161.8870  206.8540  150.2590 C   0  0  0  0  0  0  0  0  0  0  0  0
  160.5390  211.3480  152.8990 C   0  0  0  0  0  0  0  0  0  0  0  0
  161.0220  208.7260  151.6240 C   0  0  0  0  0  0  0  0  0  0  0  0
  162.1240  210.5460  154.7690 C   0  0  0  0  0  3  0  0  0  0  0  0
  162.3360  207.7610  149.2050 C   0  0  0  0  0  3  0  0  0  0  0  0
  159.3100  211.7710  155.0340 C   0  0  0  0  0  3  0  0  0  0  0  0
  159.8960  212.3620  153.7910 C   0  0  0  0  0  2  0  0  0  0  0  0
  161.4700  210.3310  153.4680 C   0  0  0  0  0  0  0  0  0  0  0  0
  162.2220  213.9120  147.5350 C   0  0  0  0  0  3  0  0  0  0  0  0
  161.3590  211.8020  149.2550 C   0  0  1  0  0  3  0  0  0  0  0  0
  160.7360  213.1920  149.4190 C   0  0  0  0  0  2  0  0  0  0  0  0
  161.1700  214.1480  148.3370 C   0  0  0  0  0  3  0  0  0  0  0  0
  163.0000  212.6220  147.5770 C   0  0  0  0  0  2  0  0  0  0  0  0
  162.8430  211.9020  148.9130 C   0  0  0  0  0  2  0  0  0  0  0  0
  1 15  1  0  0  0  0
  2  6  1  6  0  0  0
  2 16  1  0  0  0  0
  3 21  1  0  0  0  0
  4 14  1  0  0  0  0
  4 13  1  0  0  0  0
  5 13  1  0  0  0  0
  7  9  1  1  0  0  0
  8 10  1  0  0  0  0
 11 16  1  0  0  0  0
 11  7  1  0  0  0  0
 12  2  1  0  0  0  0
 12  1  2  0  0  0  0
 13  7  1  0  0  0  0
 14 11  2  0  0  0  0
 15 21  2  0  0  0  0
 15 20  1  0  0  0  0
 16  3  2  0  0  0  0
 17  8  2  0  0  0  0
 18  6  2  0  0  0  0
 18 14  1  0  0  0  0
 19 10  2  0  0  0  0
 20 19  1  0  0  0  0
 21 17  1  0  0  0  0
 22 26  1  0  0  0  0
 22 25  2  0  0  0  0
 23 24  1  0  0  0  0
 23 12  1  1  0  0  0
 25 24  1  0  0  0  0
 26 27  1  0  0  0  0
 27 23  1  0  0  0  0
M  END
>  <MODEL>
4

>  <REMARK>
 VINA RESULT:      -6.6      2.579      5.982
  Name = 
  1 active torsions:
  status: ('A' for Active; 'I' for Inactive)
    1  A    between atoms: C_9  and  C_15
                            x       y       z     vdW  Elec       q    Type
                         _______ _______ _______ _____ _____    ______ ____

>  <TORSDO>
F 1

$$$$
=
 OpenBabel11052423073D

 27 31  0  0  1  0  0  0  0  0999 V2000
  161.2010  207.9900  148.7320 C   0  0  0  0  0  3  0  0  0  0  0  0
  161.4760  207.2070  151.0870 C   0  0  0  0  0  0  0  0  0  0  0  0
  162.0820  209.6020  151.1570 C   0  0  0  0  0  3  0  0  0  0  0  0
  160.9890  207.8310  155.1800 O   0  0  0  0  0  0  0  0  0  0  0  0
  159.2250  208.9980  155.7770 O   0  0  0  0  0  1  0  0  0  0  0  0
  161.7880  206.1430  152.0160 N   0  0  0  0  0  0  0  0  0  0  0  0
  160.4740  209.6810  154.0060 C   0  0  1  0  0  3  0  0  0  0  0  0
  162.8180  212.1590  148.8940 C   0  0  0  0  0  3  0  0  0  0  0  0
  161.3720  210.9030  153.9470 C   0  0  0  0  0  1  0  0  0  0  0  0
  161.5100  212.3860  148.2530 C   0  0  0  0  0  3  0  0  0  0  0  0
  160.9940  208.5950  153.1170 C   0  0  0  0  0  0  0  0  0  0  0  0
  161.4690  206.9570  149.7580 C   0  0  0  0  0  0  0  0  0  0  0  0
  160.5110  209.1150  155.3670 N   0  0  0  0  0  0  0  0  0  0  0  0
  161.2470  207.5540  153.8600 C   0  0  0  0  0  0  0  0  0  0  0  0
  161.4670  209.3040  148.7740 C   0  0  0  0  0  0  0  0  0  0  0  0
  161.0960  208.5800  151.6140 C   0  0  2  0  0  3  0  0  0  0  0  0
  163.1380  211.0800  149.6150 C   0  0  0  0  0  3  0  0  0  0  0  0
  161.6920  206.2780  153.3050 C   0  0  0  0  0  3  0  0  0  0  0  0
  160.7750  211.4380  147.6700 C   0  0  0  0  0  3  0  0  0  0  0  0
  161.2470  210.0310  147.4850 C   0  0  0  0  0  2  0  0  0  0  0  0
  162.2270  209.9540  149.8800 C   0  0  0  0  0  0  0  0  0  0  0  0
  161.3410  203.0290  147.9620 C   0  0  0  0  0  3  0  0  0  0  0  0
  161.6940  205.5740  149.2070 C   0  0  1  0  0  3  0  0  0  0  0  0
  160.8070  204.5310  149.8940 C   0  0  0  0  0  2  0  0  0  0  0  0
  160.8550  203.1910  149.2040 C   0  0  0  0  0  3  0  0  0  0  0  0
  161.9790  204.1520  147.1870 C   0  0  0  0  0  2  0  0  0  0  0  0
  161.5310  205.5210  147.6900 C   0  0  0  0  0  2  0  0  0  0  0  0
  1 15  2  0  0  0  0
  1 12  1  0  0  0  0
  2 16  1  0  0  0  0
  2  6  1  0  0  0  0
  4 13  1  0  0  0  0
  6 18  2  0  0  0  0
  7  9  1  1  0  0  0
  7 13  1  0  0  0  0
  8 17  2  0  0  0  0
 10  8  1  0  0  0  0
 11 14  2  0  0  0  0
 11  7  1  0  0  0  0
 12  2  2  0  0  0  0
 13  5  1  0  0  0  0
 14  4  1  0  0  0  0
 15 21  1  0  0  0  0
 16  3  1  1  0  0  0
 16 11  1  0  0  0  0
 17 21  1  0  0  0  0
 18 14  1  0  0  0  0
 19 10  2  0  0  0  0
 20 19  1  0  0  0  0
 20 15  1  0  0  0  0
 21  3  2  0  0  0  0
 22 25  2  0  0  0  0
 23 12  1  1  0  0  0
 23 24  1  0  0  0  0
 25 24  1  0  0  0  0
 26 27  1  0  0  0  0
 26 22  1  0  0  0  0
 27 23  1  0  0  0  0
M  END
>  <MODEL>
5

>  <REMARK>
 VINA RESULT:      -5.6      2.954      5.218
  Name = 
  1 active torsions:
  status: ('A' for Active; 'I' for Inactive)
    1  A    between atoms: C_9  and  C_15
                            x       y       z     vdW  Elec       q    Type
                         _______ _______ _______ _____ _____    ______ ____

>  <TORSDO>
F 1

$$$$
=
 OpenBabel11052423073D

 27 31  0  0  1  0  0  0  0  0999 V2000
  158.7150  212.3030  152.8700 C   0  0  0  0  0  3  0  0  0  0  0  0
  160.3960  210.6110  152.1300 C   0  0  1  0  0  3  0  0  0  0  0  0
  160.5850  210.6340  154.5950 C   0  0  0  0  0  3  0  0  0  0  0  0
  162.2540  206.9110  152.6260 O   0  0  0  0  0  0  0  0  0  0  0  0
  161.0050  205.3050  153.4560 O   0  0  0  0  0  1  0  0  0  0  0  0
  161.3300  210.1390  151.1320 N   0  0  0  0  0  0  0  0  0  0  0  0
  160.9050  207.3860  154.3640 C   0  0  1  0  0  3  0  0  0  0  0  0
  159.5230  212.6270  157.2590 C   0  0  0  0  0  3  0  0  0  0  0  0
  161.4230  207.8060  155.7270 C   0  0  0  0  0  1  0  0  0  0  0  0
  158.0670  212.3940  157.2540 C   0  0  0  0  0  3  0  0  0  0  0  0
  160.9700  208.5240  153.3950 C   0  0  0  0  0  0  0  0  0  0  0  0
  159.6650  211.7230  151.8930 C   0  0  0  0  0  0  0  0  0  0  0  0
  161.7930  206.3510  153.8030 N   0  0  0  0  0  0  0  0  0  0  0  0
  161.7470  208.1700  152.4100 C   0  0  0  0  0  0  0  0  0  0  0  0
  158.7670  212.2760  154.2100 C   0  0  0  0  0  0  0  0  0  0  0  0
  160.1950  209.8160  153.4100 C   0  0  0  0  0  0  0  0  0  0  0  0
  160.3460  212.3320  156.2490 C   0  0  0  0  0  3  0  0  0  0  0  0
  161.9710  209.0130  151.2380 C   0  0  0  0  0  3  0  0  0  0  0  0
  157.2750  212.5620  156.1950 C   0  0  0  0  0  3  0  0  0  0  0  0
  157.7490  213.1300  154.8960 C   0  0  0  0  0  2  0  0  0  0  0  0
  159.9220  211.7250  154.9770 C   0  0  0  0  0  0  0  0  0  0  0  0
  159.6130  214.4530  148.5440 C   0  0  0  0  0  3  0  0  0  0  0  0
  159.7280  212.4510  150.5770 C   0  0  1  0  0  3  0  0  0  0  0  0
  158.3630  213.0090  150.1640 C   0  0  0  0  0  2  0  0  0  0  0  0
  158.4530  213.9290  148.9720 C   0  0  0  0  0  3  0  0  0  0  0  0
  160.9420  214.0880  149.1520 C   0  0  0  0  0  2  0  0  0  0  0  0
  160.7930  213.5450  150.5700 C   0  0  0  0  0  2  0  0  0  0  0  0
  1 15  1  0  0  0  0
  2  6  1  6  0  0  0
  2 16  1  0  0  0  0
  3 21  1  0  0  0  0
  4 13  1  0  0  0  0
  5 13  1  0  0  0  0
  6 18  2  0  0  0  0
  7  9  1  1  0  0  0
 10  8  1  0  0  0  0
 11 16  1  0  0  0  0
 11  7  1  0  0  0  0
 12  2  1  0  0  0  0
 12  1  2  0  0  0  0
 13  7  1  0  0  0  0
 14  4  1  0  0  0  0
 14 11  2  0  0  0  0
 15 20  1  0  0  0  0
 15 21  2  0  0  0  0
 16  3  2  0  0  0  0
 17  8  2  0  0  0  0
 18 14  1  0  0  0  0
 19 10  2  0  0  0  0
 20 19  1  0  0  0  0
 21 17  1  0  0  0  0
 22 25  2  0  0  0  0
 22 26  1  0  0  0  0
 23 12  1  1  0  0  0
 24 23  1  0  0  0  0
 25 24  1  0  0  0  0
 26 27  1  0  0  0  0
 27 23  1  0  0  0  0
M  END
>  <MODEL>
6

>  <REMARK>
 VINA RESULT:      -5.4      3.239      6.584
  Name = 
  1 active torsions:
  status: ('A' for Active; 'I' for Inactive)
    1  A    between atoms: C_9  and  C_15
                            x       y       z     vdW  Elec       q    Type
                         _______ _______ _______ _____ _____    ______ ____

>  <TORSDO>
F 1

$$$$
=
 OpenBabel11052423073D

 27 31  0  0  1  0  0  0  0  0999 V2000
  160.9630  209.2540  152.5500 C   0  0  0  0  0  3  0  0  0  0  0  0
  159.7810  211.2870  153.3890 C   0  0  0  0  0  0  0  0  0  0  0  0
  160.4910  211.8870  151.0990 C   0  0  0  0  0  3  0  0  0  0  0  0
  157.1440  214.4530  152.7510 O   0  0  0  0  0  0  0  0  0  0  0  0
  155.4860  214.0650  151.3620 O   0  0  0  0  0  1  0  0  0  0  0  0
  159.4020  212.1380  154.4960 N   0  0  0  0  0  0  0  0  0  0  0  0
  157.5790  213.3540  150.8350 C   0  0  1  0  0  3  0  0  0  0  0  0
  162.6380  210.6430  148.6400 C   0  0  0  0  0  3  0  0  0  0  0  0
  158.4770  213.9090  149.7450 C   0  0  0  0  0  1  0  0  0  0  0  0
  161.9500  209.4060  148.2300 C   0  0  0  0  0  3  0  0  0  0  0  0
  158.3900  212.8160  151.9710 C   0  0  0  0  0  0  0  0  0  0  0  0
  160.4960  210.1630  153.6210 C   0  0  0  0  0  0  0  0  0  0  0  0
  156.7830  214.4510  151.4160 N   0  0  0  0  0  0  0  0  0  0  0  0
  158.0700  213.4820  153.0450 C   0  0  0  0  0  0  0  0  0  0  0  0
  161.2960  209.5490  151.2840 C   0  0  0  0  0  0  0  0  0  0  0  0
  159.3180  211.6290  151.9830 C   0  0  2  0  0  3  0  0  0  0  0  0
  162.3800  211.3250  149.7600 C   0  0  0  0  0  3  0  0  0  0  0  0
  158.6130  213.1620  154.3630 C   0  0  0  0  0  3  0  0  0  0  0  0
  161.5750  208.4340  149.0630 C   0  0  0  0  0  3  0  0  0  0  0  0
  161.9170  208.4230  150.5190 C   0  0  0  0  0  2  0  0  0  0  0  0
  161.3660  210.9420  150.7550 C   0  0  0  0  0  0  0  0  0  0  0  0
  162.0810  208.4560  157.2610 C   0  0  0  0  0  3  0  0  0  0  0  0
  160.8450  209.7150  155.0150 C   0  0  1  0  0  3  0  0  0  0  0  0
  160.7090  208.1980  155.1810 C   0  0  0  0  0  2  0  0  0  0  0  0
  161.2690  207.7100  156.4930 C   0  0  0  0  0  3  0  0  0  0  0  0
  162.4210  209.8860  156.9300 C   0  0  0  0  0  2  0  0  0  0  0  0
  162.2290  210.1930  155.4480 C   0  0  0  0  0  2  0  0  0  0  0  0
  1 12  1  0  0  0  0
  2 12  2  0  0  0  0
  2  6  1  0  0  0  0
  4 14  1  0  0  0  0
  5 13  1  0  0  0  0
  7  9  1  6  0  0  0
  7 13  1  0  0  0  0
  7 11  1  0  0  0  0
  8 17  2  0  0  0  0
 10  8  1  0  0  0  0
 10 19  2  0  0  0  0
 11 16  1  0  0  0  0
 11 14  2  0  0  0  0
 13  4  1  0  0  0  0
 14 18  1  0  0  0  0
 15  1  2  0  0  0  0
 16  3  1  6  0  0  0
 16  2  1  0  0  0  0
 17 21  1  0  0  0  0
 18  6  2  0  0  0  0
 19 20  1  0  0  0  0
 20 15  1  0  0  0  0
 21  3  2  0  0  0  0
 21 15  1  0  0  0  0
 23 12  1  6  0  0  0
 23 24  1  0  0  0  0
 23 27  1  0  0  0  0
 24 25  1  0  0  0  0
 25 22  2  0  0  0  0
 26 22  1  0  0  0  0
 27 26  1  0  0  0  0
M  END
>  <MODEL>
7

>  <REMARK>
 VINA RESULT:      -5.2      3.792      6.252
  Name = 
  1 active torsions:
  status: ('A' for Active; 'I' for Inactive)
    1  A    between atoms: C_9  and  C_15
                            x       y       z     vdW  Elec       q    Type
                         _______ _______ _______ _____ _____    ______ ____

>  <TORSDO>
F 1

$$$$
