=
 OpenBabel11062409503D

 34 39  0  0  1  0  0  0  0  0999 V2000
  161.4740  210.6360  150.8920 C   0  0  0  0  0  0  0  0  0  0  0  0
  160.0710  211.8280  152.6360 C   0  0  0  0  0  0  0  0  0  0  0  0
  159.9230  213.2720  150.6680 N   0  0  0  0  0  0  0  0  0  0  0  0
  162.6360  209.6270  149.1740 C   0  0  2  0  0  3  0  0  0  0  0  0
  162.2110  209.5210  150.5270 O   0  0  0  0  0  0  0  0  0  0  0  0
  161.9450  210.8820  148.6330 C   0  0  2  0  0  3  0  0  0  0  0  0
  162.3490  213.2980  148.0620 C   0  0  0  0  0  3  0  0  0  0  0  0
  162.9680  211.9200  148.1600 C   0  0  0  0  0  2  0  0  0  0  0  0
  160.8300  212.8210  149.8550 C   0  0  0  0  0  0  0  0  0  0  0  0
  161.2630  211.4150  149.8430 C   0  0  0  0  0  0  0  0  0  0  0  0
  161.4020  213.6930  148.8690 N   0  0  0  0  0  0  0  0  0  0  0  0
  159.7910  212.0860  153.9800 C   0  0  0  0  0  3  0  0  0  0  0  0
  160.5390  211.4810  154.9980 C   0  0  0  0  0  0  0  0  0  0  0  0
  161.5690  210.5970  154.6560 C   0  0  0  0  0  3  0  0  0  0  0  0
  159.1780  212.4370  151.6030 C   0  0  0  0  0  2  0  0  0  0  0  0
  161.8510  210.3290  153.3150 C   0  0  0  0  0  3  0  0  0  0  0  0
  161.1110  210.9370  152.2930 C   0  0  0  0  0  0  0  0  0  0  0  0
  160.2380  211.7620  156.4130 C   0  0  0  0  0  0  0  0  0  0  0  0
  160.4430  212.9100  156.8910 O   0  0  0  0  0  0  0  0  0  0  0  0
  159.7120  210.7410  157.2560 N   0  0  0  0  0  1  0  0  0  0  0  0
  162.3450  208.3650  148.3360 C   0  0  0  0  0  2  0  0  0  0  0  0
  161.1150  206.3270  147.9180 C   0  0  2  0  0  3  0  0  0  0  0  0
  161.2570  207.1150  150.1310 C   0  0  0  0  0  2  0  0  0  0  0  0
  160.7510  202.9480  149.6090 N   0  0  0  0  0  0  0  0  0  0  0  0
  161.1210  203.4060  150.9150 C   0  0  0  0  0  0  0  0  0  0  0  0
  160.9550  203.8260  148.4630 C   0  0  1  0  0  3  0  0  0  0  0  0
  161.1030  202.6290  151.9060 O   0  0  0  0  0  0  0  0  0  0  0  0
  160.4690  205.2580  148.7800 C   0  0  1  0  0  3  0  0  0  0  0  0
  160.1320  201.6480  149.4140 C   0  0  0  0  0  1  0  0  0  0  0  0
  161.5450  204.8260  151.0830 C   0  0  0  0  0  2  0  0  0  0  0  0
  160.6550  205.7280  150.2280 C   0  0  1  0  0  3  0  0  0  0  0  0
  162.3050  203.8150  148.1080 O   0  0  0  0  0  1  0  0  0  0  0  0
  161.1940  207.5340  148.7330 N   0  0  0  0  0  0  0  0  0  0  0  0
  160.2580  206.5820  146.6920 C   0  0  0  0  0  1  0  0  0  0  0  0
  1 17  1  0  0  0  0
  2 12  1  0  0  0  0
  3 15  1  0  0  0  0
  4 21  1  6  0  0  0
  4  5  1  0  0  0  0
  5  1  1  0  0  0  0
  6  8  1  1  0  0  0
  6  4  1  0  0  0  0
  6 10  1  0  0  0  0
  7  8  1  0  0  0  0
  7 11  2  0  0  0  0
  9  3  2  0  0  0  0
 10  9  1  0  0  0  0
 10  1  2  0  0  0  0
 11  9  1  0  0  0  0
 12 13  2  0  0  0  0
 13 18  1  0  0  0  0
 14 13  1  0  0  0  0
 15  2  1  0  0  0  0
 16 14  2  0  0  0  0
 17  2  2  0  0  0  0
 17 16  1  0  0  0  0
 18 19  2  0  0  0  0
 18 20  1  0  0  0  0
 21 33  1  0  0  0  0
 22 34  1  6  0  0  0
 22 33  1  0  0  0  0
 22 28  1  0  0  0  0
 23 31  1  0  0  0  0
 24 25  1  0  0  0  0
 25 30  1  0  0  0  0
 25 27  2  0  0  0  0
 26 32  1  1  0  0  0
 26 28  1  0  0  0  0
 26 24  1  0  0  0  0
 28 31  1  0  0  0  0
 29 24  1  0  0  0  0
 31 30  1  0  0  0  0
 33 23  1  0  0  0  0
M  END
>  <MODEL>
1

>  <REMARK>
 VINA RESULT:      -7.9      0.000      0.000
  Name = 
  3 active torsions:
  status: ('A' for Active; 'I' for Inactive)
    1  A    between atoms: C_3  and  C_25
    2  A    between atoms: C_8  and  C_18
    3  A    between atoms: C_18  and  N_30
                            x       y       z     vdW  Elec       q    Type
                         _______ _______ _______ _____ _____    ______ ____

>  <TORSDO>
F 3

$$$$
=
 OpenBabel11062409503D

 34 39  0  0  1  0  0  0  0  0999 V2000
  161.3030  206.9880  152.2130 C   0  0  0  0  0  0  0  0  0  0  0  0
  161.9450  206.2590  149.8710 C   0  0  0  0  0  0  0  0  0  0  0  0
  162.0890  208.6980  149.7910 N   0  0  0  0  0  0  0  0  0  0  0  0
  160.8320  207.8020  154.3190 C   0  0  2  0  0  3  0  0  0  0  0  0
  160.9870  206.6390  153.5160 O   0  0  0  0  0  0  0  0  0  0  0  0
  161.2490  208.9700  153.4200 C   0  0  2  0  0  3  0  0  0  0  0  0
  160.3260  210.8450  152.0200 C   0  0  0  0  0  3  0  0  0  0  0  0
  160.1000  209.9650  153.2310 C   0  0  0  0  0  2  0  0  0  0  0  0
  161.5220  209.1020  150.8890 C   0  0  0  0  0  0  0  0  0  0  0  0
  161.5010  208.2940  152.1190 C   0  0  0  0  0  0  0  0  0  0  0  0
  160.9460  210.4140  150.9550 N   0  0  0  0  0  0  0  0  0  0  0  0
  161.8660  205.3150  148.8430 C   0  0  0  0  0  3  0  0  0  0  0  0
  161.1220  204.1400  149.0030 C   0  0  0  0  0  0  0  0  0  0  0  0
  160.4630  203.9080  150.2160 C   0  0  0  0  0  3  0  0  0  0  0  0
  162.8280  207.4480  149.6670 C   0  0  0  0  0  2  0  0  0  0  0  0
  160.5410  204.8430  151.2510 C   0  0  0  0  0  3  0  0  0  0  0  0
  161.2780  206.0240  151.0930 C   0  0  0  0  0  0  0  0  0  0  0  0
  161.0420  203.1540  147.9120 C   0  0  0  0  0  0  0  0  0  0  0  0
  161.1870  203.5160  146.7140 O   0  0  0  0  0  0  0  0  0  0  0  0
  160.7990  201.7790  148.1990 N   0  0  0  0  0  1  0  0  0  0  0  0
  161.6190  207.7460  155.6450 C   0  0  0  0  0  2  0  0  0  0  0  0
  161.7280  209.9820  156.5550 C   0  0  2  0  0  3  0  0  0  0  0  0
  159.7300  208.7650  156.8130 C   0  0  0  0  0  2  0  0  0  0  0  0
  159.4110  212.9830  156.7420 N   0  0  0  0  0  0  0  0  0  0  0  0
  158.1990  212.2300  156.6120 C   0  0  0  0  0  0  0  0  0  0  0  0
  160.6880  212.3250  156.4890 C   0  0  1  0  0  3  0  0  0  0  0  0
  157.0750  212.7940  156.6720 O   0  0  0  0  0  0  0  0  0  0  0  0
  160.7350  210.9440  157.1810 C   0  0  1  0  0  3  0  0  0  0  0  0
  159.3930  214.3720  157.1690 C   0  0  0  0  0  1  0  0  0  0  0  0
  158.2900  210.7590  156.3870 C   0  0  0  0  0  2  0  0  0  0  0  0
  159.4080  210.1790  157.2530 C   0  0  1  0  0  3  0  0  0  0  0  0
  160.8830  212.2090  155.1110 O   0  0  0  0  0  1  0  0  0  0  0  0
  161.1830  208.6400  156.7330 N   0  0  0  0  0  0  0  0  0  0  0  0
  163.0670  210.0980  157.2610 C   0  0  0  0  0  1  0  0  0  0  0  0
  1  5  1  0  0  0  0
  2 17  1  0  0  0  0
  3  9  2  0  0  0  0
  4 21  1  1  0  0  0
  5  4  1  0  0  0  0
  6  8  1  6  0  0  0
  6  4  1  0  0  0  0
  7  8  1  0  0  0  0
  9 11  1  0  0  0  0
  9 10  1  0  0  0  0
 10  1  2  0  0  0  0
 10  6  1  0  0  0  0
 11  7  2  0  0  0  0
 12 13  1  0  0  0  0
 12  2  2  0  0  0  0
 13 14  2  0  0  0  0
 14 16  1  0  0  0  0
 15  3  1  0  0  0  0
 15  2  1  0  0  0  0
 17 16  2  0  0  0  0
 17  1  1  0  0  0  0
 18 20  1  0  0  0  0
 18 13  1  0  0  0  0
 19 18  2  0  0  0  0
 21 33  1  0  0  0  0
 22 33  1  0  0  0  0
 22 28  1  0  0  0  0
 22 34  1  1  0  0  0
 23 31  1  0  0  0  0
 24 29  1  0  0  0  0
 25 27  2  0  0  0  0
 25 24  1  0  0  0  0
 26 32  1  6  0  0  0
 26 24  1  0  0  0  0
 26 28  1  0  0  0  0
 28 31  1  0  0  0  0
 30 25  1  0  0  0  0
 30 31  1  0  0  0  0
 33 23  1  0  0  0  0
M  END
>  <MODEL>
2

>  <REMARK>
 VINA RESULT:      -7.7      2.436      8.817
  Name = 
  3 active torsions:
  status: ('A' for Active; 'I' for Inactive)
    1  A    between atoms: C_3  and  C_25
    2  A    between atoms: C_8  and  C_18
    3  A    between atoms: C_18  and  N_30
                            x       y       z     vdW  Elec       q    Type
                         _______ _______ _______ _____ _____    ______ ____

>  <TORSDO>
F 3

$$$$
=
 OpenBabel11062409503D

 34 39  0  0  1  0  0  0  0  0999 V2000
  161.2900  207.6820  150.5610 C   0  0  0  0  0  0  0  0  0  0  0  0
  160.9000  205.7220  149.0000 C   0  0  0  0  0  0  0  0  0  0  0  0
  160.4150  204.8170  151.2190 N   0  0  0  0  0  0  0  0  0  0  0  0
  161.5120  209.3900  152.0950 C   0  0  2  0  0  3  0  0  0  0  0  0
  161.5730  209.0290  150.7210 O   0  0  0  0  0  0  0  0  0  0  0  0
  160.9870  208.1440  152.8160 C   0  0  2  0  0  3  0  0  0  0  0  0
  161.7150  206.1980  154.2330 C   0  0  0  0  0  3  0  0  0  0  0  0
  161.9910  207.6380  153.8550 C   0  0  0  0  0  2  0  0  0  0  0  0
  160.8500  205.7170  152.0490 C   0  0  0  0  0  0  0  0  0  0  0  0
  160.9130  207.1490  151.7130 C   0  0  0  0  0  0  0  0  0  0  0  0
  161.2280  205.3380  153.3800 N   0  0  0  0  0  0  0  0  0  0  0  0
  161.1750  205.0780  147.7910 C   0  0  0  0  0  3  0  0  0  0  0  0
  162.0690  205.6340  146.8670 C   0  0  0  0  0  0  0  0  0  0  0  0
  162.6800  206.8580  147.1600 C   0  0  0  0  0  3  0  0  0  0  0  0
  159.8700  205.1190  149.9000 C   0  0  0  0  0  2  0  0  0  0  0  0
  162.4060  207.5130  148.3630 C   0  0  0  0  0  3  0  0  0  0  0  0
  161.5190  206.9570  149.2930 C   0  0  0  0  0  0  0  0  0  0  0  0
  162.3540  204.9440  145.5980 C   0  0  0  0  0  0  0  0  0  0  0  0
  163.4680  204.3850  145.4130 O   0  0  0  0  0  0  0  0  0  0  0  0
  161.3740  204.9000  144.5640 N   0  0  0  0  0  1  0  0  0  0  0  0
  160.6630  210.6500  152.3650 C   0  0  0  0  0  2  0  0  0  0  0  0
  159.8670  211.2550  154.5660 C   0  0  2  0  0  3  0  0  0  0  0  0
  158.2980  211.0580  152.8230 C   0  0  0  0  0  2  0  0  0  0  0  0
  157.3260  213.6900  155.9900 N   0  0  0  0  0  0  0  0  0  0  0  0
  156.5310  213.7700  154.8010 C   0  0  0  0  0  0  0  0  0  0  0  0
  158.6310  213.0400  155.9300 C   0  0  1  0  0  3  0  0  0  0  0  0
  155.4730  214.4510  154.7730 O   0  0  0  0  0  0  0  0  0  0  0  0
  158.5420  211.7100  155.1490 C   0  0  1  0  0  3  0  0  0  0  0  0
  156.8360  214.1960  157.2610 C   0  0  0  0  0  1  0  0  0  0  0  0
  156.9880  213.0420  153.5830 C   0  0  0  0  0  2  0  0  0  0  0  0
  157.5450  211.6770  153.9840 C   0  0  1  0  0  3  0  0  0  0  0  0
  159.5540  213.9110  155.3460 O   0  0  0  0  0  1  0  0  0  0  0  0
  159.5600  210.5320  153.3360 N   0  0  0  0  0  0  0  0  0  0  0  0
  160.5700  210.3360  155.5480 C   0  0  0  0  0  1  0  0  0  0  0  0
  1  5  1  0  0  0  0
  1 10  2  0  0  0  0
  2 17  1  0  0  0  0
  2 15  1  0  0  0  0
  3  9  2  0  0  0  0
  4 21  1  6  0  0  0
  4  6  1  0  0  0  0
  5  4  1  0  0  0  0
  6  8  1  1  0  0  0
  8  7  1  0  0  0  0
  9 11  1  0  0  0  0
 10  9  1  0  0  0  0
 10  6  1  0  0  0  0
 11  7  2  0  0  0  0
 12  2  2  0  0  0  0
 13 14  2  0  0  0  0
 13 12  1  0  0  0  0
 14 16  1  0  0  0  0
 15  3  1  0  0  0  0
 16 17  2  0  0  0  0
 17  1  1  0  0  0  0
 18 13  1  0  0  0  0
 19 18  2  0  0  0  0
 20 18  1  0  0  0  0
 21 33  1  0  0  0  0
 22 28  1  0  0  0  0
 22 34  1  1  0  0  0
 23 33  1  0  0  0  0
 23 31  1  0  0  0  0
 24 29  1  0  0  0  0
 25 24  1  0  0  0  0
 26 32  1  6  0  0  0
 26 24  1  0  0  0  0
 27 25  2  0  0  0  0
 28 26  1  0  0  0  0
 30 31  1  0  0  0  0
 30 25  1  0  0  0  0
 31 28  1  0  0  0  0
 33 22  1  0  0  0  0
M  END
>  <MODEL>
3

>  <REMARK>
 VINA RESULT:      -7.4      2.830      9.321
  Name = 
  3 active torsions:
  status: ('A' for Active; 'I' for Inactive)
    1  A    between atoms: C_3  and  C_25
    2  A    between atoms: C_8  and  C_18
    3  A    between atoms: C_18  and  N_30
                            x       y       z     vdW  Elec       q    Type
                         _______ _______ _______ _____ _____    ______ ____

>  <TORSDO>
F 3

$$$$
=
 OpenBabel11062409503D

 34 39  0  0  1  0  0  0  0  0999 V2000
  161.0070  211.0640  150.9520 C   0  0  0  0  0  0  0  0  0  0  0  0
  159.7160  212.5070  152.5900 C   0  0  0  0  0  0  0  0  0  0  0  0
  159.8780  213.8920  150.5820 N   0  0  0  0  0  0  0  0  0  0  0  0
  162.0850  209.8400  149.3220 C   0  0  2  0  0  3  0  0  0  0  0  0
  161.5860  209.8420  150.6540 O   0  0  0  0  0  0  0  0  0  0  0  0
  161.6160  211.1650  148.7140 C   0  0  2  0  0  3  0  0  0  0  0  0
  162.4020  213.4750  148.1040 C   0  0  0  0  0  3  0  0  0  0  0  0
  162.8030  212.0240  148.2690 C   0  0  0  0  0  2  0  0  0  0  0  0
  160.7450  213.2860  149.8270 C   0  0  0  0  0  0  0  0  0  0  0  0
  160.9640  211.8310  149.8730 C   0  0  0  0  0  0  0  0  0  0  0  0
  161.4870  214.0310  148.8510 N   0  0  0  0  0  0  0  0  0  0  0  0
  159.4140  212.8470  153.9110 C   0  0  0  0  0  3  0  0  0  0  0  0
  160.0150  212.1720  154.9810 C   0  0  0  0  0  0  0  0  0  0  0  0
  160.9170  211.1350  154.7150 C   0  0  0  0  0  3  0  0  0  0  0  0
  158.9730  213.2070  151.4970 C   0  0  0  0  0  2  0  0  0  0  0  0
  161.2190  210.7840  153.3980 C   0  0  0  0  0  3  0  0  0  0  0  0
  160.6270  211.4620  152.3240 C   0  0  0  0  0  0  0  0  0  0  0  0
  159.6930  212.5410  156.3710 C   0  0  0  0  0  0  0  0  0  0  0  0
  160.0670  213.6490  156.8380 O   0  0  0  0  0  0  0  0  0  0  0  0
  158.9550  211.6480  157.2020 N   0  0  0  0  0  1  0  0  0  0  0  0
  161.6500  208.6070  148.5020 C   0  0  0  0  0  2  0  0  0  0  0  0
  161.8110  206.6090  149.8520 C   0  0  2  0  0  3  0  0  0  0  0  0
  162.3550  206.4630  147.5660 C   0  0  0  0  0  2  0  0  0  0  0  0
  160.9420  202.9380  149.4300 N   0  0  0  0  0  0  0  0  0  0  0  0
  161.0050  202.9440  147.9990 C   0  0  0  0  0  0  0  0  0  0  0  0
  160.9650  204.2060  150.1490 C   0  0  1  0  0  3  0  0  0  0  0  0
  160.8370  201.8860  147.3370 O   0  0  0  0  0  0  0  0  0  0  0  0
  162.0590  205.1370  149.5780 C   0  0  1  0  0  3  0  0  0  0  0  0
  160.9080  201.6920  150.1780 C   0  0  0  0  0  1  0  0  0  0  0  0
  161.2600  204.2350  147.2990 C   0  0  0  0  0  2  0  0  0  0  0  0
  162.3120  205.0340  148.0690 C   0  0  1  0  0  3  0  0  0  0  0  0
  159.7030  204.8010  150.0750 O   0  0  0  0  0  1  0  0  0  0  0  0
  162.3800  207.3470  148.7290 N   0  0  0  0  0  0  0  0  0  0  0  0
  162.5000  207.0120  151.1420 C   0  0  0  0  0  1  0  0  0  0  0  0
  1 17  1  0  0  0  0
  2 12  1  0  0  0  0
  3 15  1  0  0  0  0
  4 21  1  6  0  0  0
  4  5  1  0  0  0  0
  5  1  1  0  0  0  0
  6  8  1  1  0  0  0
  6  4  1  0  0  0  0
  6 10  1  0  0  0  0
  7  8  1  0  0  0  0
  7 11  2  0  0  0  0
  9 10  1  0  0  0  0
  9  3  2  0  0  0  0
 10  1  2  0  0  0  0
 11  9  1  0  0  0  0
 12 13  2  0  0  0  0
 13 18  1  0  0  0  0
 14 13  1  0  0  0  0
 15  2  1  0  0  0  0
 16 14  2  0  0  0  0
 17  2  2  0  0  0  0
 17 16  1  0  0  0  0
 18 19  2  0  0  0  0
 18 20  1  0  0  0  0
 21 33  1  0  0  0  0
 22 34  1  1  0  0  0
 23 31  1  0  0  0  0
 23 33  1  0  0  0  0
 24 26  1  0  0  0  0
 24 29  1  0  0  0  0
 25 24  1  0  0  0  0
 26 32  1  6  0  0  0
 27 25  2  0  0  0  0
 28 22  1  0  0  0  0
 28 26  1  0  0  0  0
 30 25  1  0  0  0  0
 30 31  1  0  0  0  0
 31 28  1  0  0  0  0
 33 22  1  0  0  0  0
M  END
>  <MODEL>
4

>  <REMARK>
 VINA RESULT:      -6.5      1.166      1.891
  Name = 
  3 active torsions:
  status: ('A' for Active; 'I' for Inactive)
    1  A    between atoms: C_3  and  C_25
    2  A    between atoms: C_8  and  C_18
    3  A    between atoms: C_18  and  N_30
                            x       y       z     vdW  Elec       q    Type
                         _______ _______ _______ _____ _____    ______ ____

>  <TORSDO>
F 3

$$$$
=
 OpenBabel11062409503D

 34 39  0  0  1  0  0  0  0  0999 V2000
  161.3300  209.0600  151.1200 C   0  0  0  0  0  0  0  0  0  0  0  0
  162.0800  208.3070  148.8180 C   0  0  0  0  0  0  0  0  0  0  0  0
  162.1360  210.7480  148.6890 N   0  0  0  0  0  0  0  0  0  0  0  0
  160.7560  209.9000  153.1900 C   0  0  2  0  0  3  0  0  0  0  0  0
  160.9820  208.7270  152.4180 O   0  0  0  0  0  0  0  0  0  0  0  0
  161.1600  211.0640  152.2800 C   0  0  2  0  0  3  0  0  0  0  0  0
  160.2170  212.8720  150.8080 C   0  0  0  0  0  3  0  0  0  0  0  0
  159.9820  212.0100  152.0300 C   0  0  0  0  0  2  0  0  0  0  0  0
  161.5170  211.1520  149.7570 C   0  0  0  0  0  0  0  0  0  0  0  0
  161.4820  210.3700  151.0040 C   0  0  0  0  0  0  0  0  0  0  0  0
  160.8900  212.4430  149.7740 N   0  0  0  0  0  0  0  0  0  0  0  0
  162.0730  207.3390  147.8100 C   0  0  0  0  0  3  0  0  0  0  0  0
  161.3680  206.1400  147.9710 C   0  0  0  0  0  0  0  0  0  0  0  0
  160.6760  205.9090  149.1650 C   0  0  0  0  0  3  0  0  0  0  0  0
  162.9250  209.5240  148.6180 C   0  0  0  0  0  2  0  0  0  0  0  0
  160.6830  206.8680  150.1810 C   0  0  0  0  0  3  0  0  0  0  0  0
  161.3810  208.0720  150.0210 C   0  0  0  0  0  0  0  0  0  0  0  0
  161.3630  205.1290  146.9000 C   0  0  0  0  0  0  0  0  0  0  0  0
  161.8680  203.9910  147.0960 O   0  0  0  0  0  0  0  0  0  0  0  0
  160.7880  205.4250  145.6300 N   0  0  0  0  0  1  0  0  0  0  0  0
  161.4970  209.9020  154.5430 C   0  0  0  0  0  2  0  0  0  0  0  0
  160.6440  211.6790  155.9420 C   0  0  2  0  0  3  0  0  0  0  0  0
  159.3430  209.7340  155.6840 C   0  0  0  0  0  2  0  0  0  0  0  0
  157.2760  213.3260  156.5330 N   0  0  0  0  0  0  0  0  0  0  0  0
  156.4960  212.2070  156.0960 C   0  0  0  0  0  0  0  0  0  0  0  0
  158.7140  213.3310  156.2880 C   0  0  1  0  0  3  0  0  0  0  0  0
  155.2380  212.2300  156.1520 O   0  0  0  0  0  0  0  0  0  0  0  0
  159.3330  211.9610  156.6500 C   0  0  1  0  0  3  0  0  0  0  0  0
  156.6700  214.4300  157.2590 C   0  0  0  0  0  1  0  0  0  0  0  0
  157.2010  211.0090  155.5560 C   0  0  0  0  0  2  0  0  0  0  0  0
  158.4510  210.7340  156.3920 C   0  0  1  0  0  3  0  0  0  0  0  0
  158.9530  213.6580  154.9510 O   0  0  0  0  0  1  0  0  0  0  0  0
  160.7140  210.2340  155.7470 N   0  0  0  0  0  0  0  0  0  0  0  0
  161.8020  212.1440  156.8050 C   0  0  0  0  0  1  0  0  0  0  0  0
  1  5  1  0  0  0  0
  2 17  1  0  0  0  0
  3  9  2  0  0  0  0
  4 21  1  1  0  0  0
  5  4  1  0  0  0  0
  6  8  1  6  0  0  0
  6  4  1  0  0  0  0
  7  8  1  0  0  0  0
  9 11  1  0  0  0  0
  9 10  1  0  0  0  0
 10  1  2  0  0  0  0
 10  6  1  0  0  0  0
 11  7  2  0  0  0  0
 12 13  1  0  0  0  0
 12  2  2  0  0  0  0
 13 14  2  0  0  0  0
 14 16  1  0  0  0  0
 15  3  1  0  0  0  0
 15  2  1  0  0  0  0
 17 16  2  0  0  0  0
 17  1  1  0  0  0  0
 18 19  2  0  0  0  0
 18 13  1  0  0  0  0
 20 18  1  0  0  0  0
 21 33  1  0  0  0  0
 22 28  1  0  0  0  0
 22 34  1  1  0  0  0
 23 33  1  0  0  0  0
 23 31  1  0  0  0  0
 24 29  1  0  0  0  0
 25 27  2  0  0  0  0
 25 24  1  0  0  0  0
 26 32  1  6  0  0  0
 26 24  1  0  0  0  0
 26 28  1  0  0  0  0
 30 25  1  0  0  0  0
 30 31  1  0  0  0  0
 31 28  1  0  0  0  0
 33 22  1  0  0  0  0
M  END
>  <MODEL>
5

>  <REMARK>
 VINA RESULT:      -6.4      2.173      8.548
  Name = 
  3 active torsions:
  status: ('A' for Active; 'I' for Inactive)
    1  A    between atoms: C_3  and  C_25
    2  A    between atoms: C_8  and  C_18
    3  A    between atoms: C_18  and  N_30
                            x       y       z     vdW  Elec       q    Type
                         _______ _______ _______ _____ _____    ______ ____

>  <TORSDO>
F 3

$$$$
=
 OpenBabel11062409503D

 34 39  0  0  1  0  0  0  0  0999 V2000
  161.3900  207.3010  150.9480 C   0  0  0  0  0  0  0  0  0  0  0  0
  161.2590  207.7830  153.4340 C   0  0  0  0  0  0  0  0  0  0  0  0
  161.3210  205.3420  153.3070 N   0  0  0  0  0  0  0  0  0  0  0  0
  161.6060  206.7040  148.7300 C   0  0  2  0  0  3  0  0  0  0  0  0
  161.5170  207.7810  149.6550 O   0  0  0  0  0  0  0  0  0  0  0  0
  161.6880  205.4400  149.5920 C   0  0  2  0  0  3  0  0  0  0  0  0
  160.3270  203.4970  150.4280 C   0  0  0  0  0  3  0  0  0  0  0  0
  160.5200  204.4930  149.3030 C   0  0  0  0  0  2  0  0  0  0  0  0
  161.1300  205.0690  152.0510 C   0  0  0  0  0  0  0  0  0  0  0  0
  161.5220  205.9840  150.9670 C   0  0  0  0  0  0  0  0  0  0  0  0
  160.5800  203.7990  151.6730 N   0  0  0  0  0  0  0  0  0  0  0  0
  160.8720  208.6340  154.4730 C   0  0  0  0  0  3  0  0  0  0  0  0
  160.2420  209.8560  154.2040 C   0  0  0  0  0  0  0  0  0  0  0  0
  160.0140  210.2280  152.8740 C   0  0  0  0  0  3  0  0  0  0  0  0
  162.0060  206.5370  153.7860 C   0  0  0  0  0  2  0  0  0  0  0  0
  160.4020  209.3870  151.8290 C   0  0  0  0  0  3  0  0  0  0  0  0
  161.0260  208.1610  152.0930 C   0  0  0  0  0  0  0  0  0  0  0  0
  159.8350  210.7430  155.3070 C   0  0  0  0  0  0  0  0  0  0  0  0
  159.3280  210.2640  156.3560 O   0  0  0  0  0  0  0  0  0  0  0  0
  160.0090  212.1540  155.2000 N   0  0  0  0  0  1  0  0  0  0  0  0
  162.7790  206.8390  147.7360 C   0  0  0  0  0  2  0  0  0  0  0  0
  162.7360  204.7270  146.5620 C   0  0  2  0  0  3  0  0  0  0  0  0
  161.3640  206.4720  145.7780 C   0  0  0  0  0  2  0  0  0  0  0  0
  160.0810  202.5200  144.9840 N   0  0  0  0  0  0  0  0  0  0  0  0
  159.1340  203.5730  144.7720 C   0  0  0  0  0  0  0  0  0  0  0  0
  161.2520  202.7730  145.8150 C   0  0  1  0  0  3  0  0  0  0  0  0
  158.0390  203.3550  144.1900 O   0  0  0  0  0  0  0  0  0  0  0  0
  161.8990  204.1270  145.4470 C   0  0  1  0  0  3  0  0  0  0  0  0
  159.9220  201.2230  144.3470 C   0  0  0  0  0  1  0  0  0  0  0  0
  159.4600  204.9410  145.2680 C   0  0  0  0  0  2  0  0  0  0  0  0
  160.9370  205.2380  145.0090 C   0  0  1  0  0  3  0  0  0  0  0  0
  160.8790  202.7380  147.1610 O   0  0  0  0  0  1  0  0  0  0  0  0
  162.6390  206.1760  146.4260 N   0  0  0  0  0  0  0  0  0  0  0  0
  164.1800  204.2860  146.4110 C   0  0  0  0  0  1  0  0  0  0  0  0
  1 10  2  0  0  0  0
  1 17  1  0  0  0  0
  2 15  1  0  0  0  0
  2 12  1  0  0  0  0
  3 15  1  0  0  0  0
  4 21  1  1  0  0  0
  4  6  1  0  0  0  0
  4  5  1  0  0  0  0
  5  1  1  0  0  0  0
  6  8  1  6  0  0  0
  6 10  1  0  0  0  0
  7 11  2  0  0  0  0
  8  7  1  0  0  0  0
  9  3  2  0  0  0  0
 10  9  1  0  0  0  0
 11  9  1  0  0  0  0
 13 12  2  0  0  0  0
 13 18  1  0  0  0  0
 14 13  1  0  0  0  0
 16 17  1  0  0  0  0
 16 14  2  0  0  0  0
 17  2  2  0  0  0  0
 18 19  2  0  0  0  0
 20 18  1  0  0  0  0
 22 34  1  6  0  0  0
 23 33  1  0  0  0  0
 24 26  1  0  0  0  0
 25 24  1  0  0  0  0
 25 30  1  0  0  0  0
 26 32  1  1  0  0  0
 27 25  2  0  0  0  0
 28 26  1  0  0  0  0
 28 22  1  0  0  0  0
 29 24  1  0  0  0  0
 31 30  1  0  0  0  0
 31 28  1  0  0  0  0
 31 23  1  0  0  0  0
 33 22  1  0  0  0  0
 33 21  1  0  0  0  0
M  END
>  <MODEL>
6

>  <REMARK>
 VINA RESULT:      -5.8      2.871      5.223
  Name = 
  3 active torsions:
  status: ('A' for Active; 'I' for Inactive)
    1  A    between atoms: C_3  and  C_25
    2  A    between atoms: C_8  and  C_18
    3  A    between atoms: C_18  and  N_30
                            x       y       z     vdW  Elec       q    Type
                         _______ _______ _______ _____ _____    ______ ____

>  <TORSDO>
F 3

$$$$
=
 OpenBabel11062409503D

 34 39  0  0  1  0  0  0  0  0999 V2000
  160.6930  211.1230  152.1000 C   0  0  0  0  0  0  0  0  0  0  0  0
  158.7700  212.5840  152.8730 C   0  0  0  0  0  0  0  0  0  0  0  0
  158.9880  213.1040  150.4940 N   0  0  0  0  0  0  0  0  0  0  0  0
  162.3590  209.7900  151.2250 C   0  0  2  0  0  3  0  0  0  0  0  0
  161.6110  210.1270  152.3870 O   0  0  0  0  0  0  0  0  0  0  0  0
  161.7070  210.5760  150.0840 C   0  0  2  0  0  3  0  0  0  0  0  0
  161.9920  212.6180  148.6430 C   0  0  0  0  0  3  0  0  0  0  0  0
  162.7040  211.5370  149.4290 C   0  0  0  0  0  2  0  0  0  0  0  0
  160.1180  212.5680  150.1380 C   0  0  0  0  0  0  0  0  0  0  0  0
  160.6820  211.3820  150.8010 C   0  0  0  0  0  0  0  0  0  0  0  0
  160.8320  213.0930  149.0090 N   0  0  0  0  0  0  0  0  0  0  0  0
  158.1250  213.2740  153.9020 C   0  0  0  0  0  3  0  0  0  0  0  0
  158.6410  213.2680  155.2040 C   0  0  0  0  0  0  0  0  0  0  0  0
  159.8110  212.5470  155.4720 C   0  0  0  0  0  3  0  0  0  0  0  0
  158.1170  212.5580  151.5280 C   0  0  0  0  0  2  0  0  0  0  0  0
  160.4580  211.8490  154.4500 C   0  0  0  0  0  3  0  0  0  0  0  0
  159.9500  211.8580  153.1450 C   0  0  0  0  0  0  0  0  0  0  0  0
  157.9560  214.0030  156.2820 C   0  0  0  0  0  0  0  0  0  0  0  0
  158.6090  214.4530  157.2600 O   0  0  0  0  0  0  0  0  0  0  0  0
  156.5480  214.2120  156.2300 N   0  0  0  0  0  1  0  0  0  0  0  0
  162.4290  208.2720  150.9540 C   0  0  0  0  0  2  0  0  0  0  0  0
  161.9040  207.4810  148.7320 C   0  0  2  0  0  3  0  0  0  0  0  0
  160.9070  206.4000  150.5690 C   0  0  0  0  0  2  0  0  0  0  0  0
  161.4530  204.1040  147.0580 N   0  0  0  0  0  0  0  0  0  0  0  0
  161.1160  203.3990  148.2590 C   0  0  0  0  0  0  0  0  0  0  0  0
  161.9780  205.4610  147.1540 C   0  0  1  0  0  3  0  0  0  0  0  0
  160.8040  202.1790  148.2300 O   0  0  0  0  0  0  0  0  0  0  0  0
  161.1500  206.2970  148.1560 C   0  0  1  0  0  3  0  0  0  0  0  0
  161.2320  203.5120  145.7490 C   0  0  0  0  0  1  0  0  0  0  0  0
  161.1560  204.1330  149.5560 C   0  0  0  0  0  2  0  0  0  0  0  0
  160.5880  205.5380  149.3640 C   0  0  1  0  0  3  0  0  0  0  0  0
  163.3240  205.4090  147.5260 O   0  0  0  0  0  1  0  0  0  0  0  0
  161.3930  207.6890  150.0820 N   0  0  0  0  0  0  0  0  0  0  0  0
  161.6470  208.7130  147.8830 C   0  0  0  0  0  1  0  0  0  0  0  0
  1  5  1  0  0  0  0
  1 17  1  0  0  0  0
  2 17  2  0  0  0  0
  2 12  1  0  0  0  0
  3 15  1  0  0  0  0
  4 21  1  6  0  0  0
  4  5  1  0  0  0  0
  6  8  1  1  0  0  0
  6 10  1  0  0  0  0
  6  4  1  0  0  0  0
  7 11  2  0  0  0  0
  7  8  1  0  0  0  0
  9  3  2  0  0  0  0
  9 10  1  0  0  0  0
 10  1  2  0  0  0  0
 11  9  1  0  0  0  0
 12 13  2  0  0  0  0
 13 14  1  0  0  0  0
 13 18  1  0  0  0  0
 15  2  1  0  0  0  0
 16 14  2  0  0  0  0
 17 16  1  0  0  0  0
 18 19  2  0  0  0  0
 20 18  1  0  0  0  0
 22 34  1  6  0  0  0
 22 33  1  0  0  0  0
 24 26  1  0  0  0  0
 24 25  1  0  0  0  0
 25 30  1  0  0  0  0
 26 32  1  1  0  0  0
 26 28  1  0  0  0  0
 27 25  2  0  0  0  0
 28 22  1  0  0  0  0
 28 31  1  0  0  0  0
 29 24  1  0  0  0  0
 31 30  1  0  0  0  0
 31 23  1  0  0  0  0
 33 23  1  0  0  0  0
 33 21  1  0  0  0  0
M  END
>  <MODEL>
7

>  <REMARK>
 VINA RESULT:      -5.7      1.737      2.246
  Name = 
  3 active torsions:
  status: ('A' for Active; 'I' for Inactive)
    1  A    between atoms: C_3  and  C_25
    2  A    between atoms: C_8  and  C_18
    3  A    between atoms: C_18  and  N_30
                            x       y       z     vdW  Elec       q    Type
                         _______ _______ _______ _____ _____    ______ ____

>  <TORSDO>
F 3

$$$$
=
 OpenBabel11062409503D

 34 39  0  0  1  0  0  0  0  0999 V2000
  159.7670  210.2190  153.9050 C   0  0  0  0  0  0  0  0  0  0  0  0
  158.8440  211.1710  156.0660 C   0  0  0  0  0  0  0  0  0  0  0  0
  160.1620  209.2410  156.7850 N   0  0  0  0  0  0  0  0  0  0  0  0
  160.7580  209.2930  152.0400 C   0  0  2  0  0  3  0  0  0  0  0  0
  159.9260  210.3350  152.5340 O   0  0  0  0  0  0  0  0  0  0  0  0
  161.2700  208.5620  153.2840 C   0  0  2  0  0  3  0  0  0  0  0  0
  160.9320  206.4860  154.6640 C   0  0  0  0  0  3  0  0  0  0  0  0
  160.8460  207.0900  153.2780 C   0  0  0  0  0  2  0  0  0  0  0  0
  160.4300  208.5940  155.6910 C   0  0  0  0  0  0  0  0  0  0  0  0
  160.5410  209.2550  154.3800 C   0  0  0  0  0  0  0  0  0  0  0  0
  160.7040  207.1860  155.7420 N   0  0  0  0  0  0  0  0  0  0  0  0
  157.8530  211.8980  156.7310 C   0  0  0  0  0  3  0  0  0  0  0  0
  156.7720  212.4460  156.0290 C   0  0  0  0  0  0  0  0  0  0  0  0
  156.6980  212.2710  154.6430 C   0  0  0  0  0  3  0  0  0  0  0  0
  160.0150  210.6900  156.8610 C   0  0  0  0  0  2  0  0  0  0  0  0
  157.6870  211.5510  153.9690 C   0  0  0  0  0  3  0  0  0  0  0  0
  158.7660  210.9940  154.6680 C   0  0  0  0  0  0  0  0  0  0  0  0
  155.7310  213.2080  156.7400 C   0  0  0  0  0  0  0  0  0  0  0  0
  155.8800  214.4390  156.9600 O   0  0  0  0  0  0  0  0  0  0  0  0
  154.5420  212.5610  157.1880 N   0  0  0  0  0  1  0  0  0  0  0  0
  161.8920  209.7930  151.1200 C   0  0  0  0  0  2  0  0  0  0  0  0
  162.1750  207.4410  150.6410 C   0  0  2  0  0  3  0  0  0  0  0  0
  162.2570  208.9650  148.8500 C   0  0  0  0  0  2  0  0  0  0  0  0
  160.9950  205.0260  147.9600 N   0  0  0  0  0  0  0  0  0  0  0  0
  160.7810  206.0270  146.9580 C   0  0  0  0  0  0  0  0  0  0  0  0
  161.2410  205.4400  149.3370 C   0  0  1  0  0  3  0  0  0  0  0  0
  160.4170  205.7130  145.7940 O   0  0  0  0  0  0  0  0  0  0  0  0
  162.2650  206.5970  149.3840 C   0  0  1  0  0  3  0  0  0  0  0  0
  161.0220  203.6130  147.6210 C   0  0  0  0  0  1  0  0  0  0  0  0
  160.9830  207.4590  147.3200 C   0  0  0  0  0  2  0  0  0  0  0  0
  162.2150  207.5890  148.2160 C   0  0  1  0  0  3  0  0  0  0  0  0
  160.0330  205.8080  149.9320 O   0  0  0  0  0  1  0  0  0  0  0  0
  162.5660  208.7960  150.2680 N   0  0  0  0  0  0  0  0  0  0  0  0
  163.1260  206.8960  151.6920 C   0  0  0  0  0  1  0  0  0  0  0  0
  1 10  2  0  0  0  0
  1 17  1  0  0  0  0
  2 12  1  0  0  0  0
  2 15  1  0  0  0  0
  3 15  1  0  0  0  0
  4 21  1  1  0  0  0
  4  5  1  0  0  0  0
  4  6  1  0  0  0  0
  5  1  1  0  0  0  0
  6  8  1  6  0  0  0
  6 10  1  0  0  0  0
  7 11  2  0  0  0  0
  8  7  1  0  0  0  0
  9 11  1  0  0  0  0
  9  3  2  0  0  0  0
 10  9  1  0  0  0  0
 13 12  2  0  0  0  0
 13 18  1  0  0  0  0
 14 13  1  0  0  0  0
 16 14  2  0  0  0  0
 16 17  1  0  0  0  0
 17  2  2  0  0  0  0
 18 19  2  0  0  0  0
 18 20  1  0  0  0  0
 22 34  1  1  0  0  0
 23 33  1  0  0  0  0
 24 26  1  0  0  0  0
 25 30  1  0  0  0  0
 25 24  1  0  0  0  0
 26 28  1  0  0  0  0
 26 32  1  6  0  0  0
 27 25  2  0  0  0  0
 28 22  1  0  0  0  0
 29 24  1  0  0  0  0
 30 31  1  0  0  0  0
 31 23  1  0  0  0  0
 31 28  1  0  0  0  0
 33 22  1  0  0  0  0
 33 21  1  0  0  0  0
M  END
>  <MODEL>
8

>  <REMARK>
 VINA RESULT:      -5.3      2.668      4.962
  Name = 
  3 active torsions:
  status: ('A' for Active; 'I' for Inactive)
    1  A    between atoms: C_3  and  C_25
    2  A    between atoms: C_8  and  C_18
    3  A    between atoms: C_18  and  N_30
                            x       y       z     vdW  Elec       q    Type
                         _______ _______ _______ _____ _____    ______ ____

>  <TORSDO>
F 3

$$$$
=
 OpenBabel11062409503D

 34 39  0  0  1  0  0  0  0  0999 V2000
  161.4230  205.5560  149.0150 C   0  0  0  0  0  0  0  0  0  0  0  0
  160.4540  203.2320  148.7210 C   0  0  0  0  0  0  0  0  0  0  0  0
  160.5330  203.5380  151.1460 N   0  0  0  0  0  0  0  0  0  0  0  0
  162.2040  207.6840  149.4430 C   0  0  2  0  0  3  0  0  0  0  0  0
  161.8500  206.7410  148.4390 O   0  0  0  0  0  0  0  0  0  0  0  0
  161.8000  207.0300  150.7680 C   0  0  2  0  0  3  0  0  0  0  0  0
  162.7320  205.8220  152.7680 C   0  0  0  0  0  3  0  0  0  0  0  0
  163.0090  206.8490  151.6910 C   0  0  0  0  0  2  0  0  0  0  0  0
  161.2560  204.6030  151.3240 C   0  0  0  0  0  0  0  0  0  0  0  0
  161.3400  205.6850  150.3300 C   0  0  0  0  0  0  0  0  0  0  0  0
  161.9570  204.7910  152.5610 N   0  0  0  0  0  0  0  0  0  0  0  0
  160.3260  202.0730  147.9510 C   0  0  0  0  0  3  0  0  0  0  0  0
  160.9690  201.9590  146.7120 C   0  0  0  0  0  0  0  0  0  0  0  0
  161.7360  203.0310  146.2400 C   0  0  0  0  0  3  0  0  0  0  0  0
  159.6690  203.3220  149.9910 C   0  0  0  0  0  2  0  0  0  0  0  0
  161.8640  204.1950  147.0000 C   0  0  0  0  0  3  0  0  0  0  0  0
  161.2290  204.3100  148.2430 C   0  0  0  0  0  0  0  0  0  0  0  0
  160.8320  200.7310  145.9100 C   0  0  0  0  0  0  0  0  0  0  0  0
  160.1110  200.7230  144.8770 O   0  0  0  0  0  0  0  0  0  0  0  0
  161.5120  199.5390  146.2940 N   0  0  0  0  0  1  0  0  0  0  0  0
  161.5700  209.0760  149.2350 C   0  0  0  0  0  2  0  0  0  0  0  0
  161.1860  211.3630  149.9130 C   0  0  2  0  0  3  0  0  0  0  0  0
  161.5200  209.7410  151.5850 C   0  0  0  0  0  2  0  0  0  0  0  0
  159.2010  213.1210  152.6300 N   0  0  0  0  0  0  0  0  0  0  0  0
  159.1770  212.0040  153.5280 C   0  0  0  0  0  0  0  0  0  0  0  0
  159.6570  212.9210  151.2600 C   0  0  1  0  0  3  0  0  0  0  0  0
  158.6510  212.0990  154.6680 O   0  0  0  0  0  0  0  0  0  0  0  0
  160.9490  212.0730  151.2330 C   0  0  1  0  0  3  0  0  0  0  0  0
  158.8280  214.4530  153.0740 C   0  0  0  0  0  1  0  0  0  0  0  0
  159.7770  210.7140  153.0830 C   0  0  0  0  0  2  0  0  0  0  0  0
  161.0680  210.9910  152.3120 C   0  0  1  0  0  3  0  0  0  0  0  0
  158.6400  212.3180  150.5170 O   0  0  0  0  0  1  0  0  0  0  0  0
  161.8870  210.1220  150.2240 N   0  0  0  0  0  0  0  0  0  0  0  0
  162.0420  212.2320  149.0110 C   0  0  0  0  0  1  0  0  0  0  0  0
  1 10  2  0  0  0  0
  2 15  1  0  0  0  0
  3  9  2  0  0  0  0
  4 21  1  6  0  0  0
  4  6  1  0  0  0  0
  5  1  1  0  0  0  0
  5  4  1  0  0  0  0
  6  8  1  1  0  0  0
  8  7  1  0  0  0  0
  9 11  1  0  0  0  0
 10  6  1  0  0  0  0
 10  9  1  0  0  0  0
 11  7  2  0  0  0  0
 12  2  2  0  0  0  0
 13 12  1  0  0  0  0
 14 13  2  0  0  0  0
 14 16  1  0  0  0  0
 15  3  1  0  0  0  0
 16 17  2  0  0  0  0
 17  2  1  0  0  0  0
 17  1  1  0  0  0  0
 18 20  1  0  0  0  0
 18 13  1  0  0  0  0
 19 18  2  0  0  0  0
 21 33  1  0  0  0  0
 22 34  1  6  0  0  0
 22 33  1  0  0  0  0
 22 28  1  0  0  0  0
 23 31  1  0  0  0  0
 24 29  1  0  0  0  0
 24 25  1  0  0  0  0
 25 27  2  0  0  0  0
 26 32  1  6  0  0  0
 26 24  1  0  0  0  0
 28 26  1  0  0  0  0
 28 31  1  0  0  0  0
 30 25  1  0  0  0  0
 31 30  1  0  0  0  0
 33 23  1  0  0  0  0
M  END
>  <MODEL>
9

>  <REMARK>
 VINA RESULT:      -5.1      2.320      9.183
  Name = 
  3 active torsions:
  status: ('A' for Active; 'I' for Inactive)
    1  A    between atoms: C_3  and  C_25
    2  A    between atoms: C_8  and  C_18
    3  A    between atoms: C_18  and  N_30
                            x       y       z     vdW  Elec       q    Type
                         _______ _______ _______ _____ _____    ______ ____

>  <TORSDO>
F 3

$$$$
