=
 OpenBabel11052422533D

 28 31  0  0  1  0  0  0  0  0999 V2000
  160.8870  205.2950  148.7120 C   0  0  0  0  0  2  0  0  0  0  0  0
  162.0500  206.1870  148.2700 C   0  0  2  0  0  3  0  0  0  0  0  0
  161.9380  207.4800  150.4330 C   0  0  1  0  0  3  0  0  0  0  0  0
  160.5040  207.9860  154.4630 C   0  0  0  0  0  2  0  0  0  0  0  0
  161.9610  207.5770  148.9070 C   0  0  0  0  0  2  0  0  0  0  0  0
  161.2250  210.3570  152.8110 C   0  0  0  0  0  2  0  0  0  0  0  0
  160.6800  206.5050  152.4490 C   0  0  1  0  0  3  0  0  0  0  0  0
  161.6950  210.0820  155.2400 C   0  0  2  0  0  3  0  0  0  0  0  0
  161.1950  207.7770  153.1230 C   0  0  1  0  0  3  0  0  0  0  0  0
  161.8980  208.8420  150.9990 N   0  0  0  0  0  2  0  0  0  0  0  0
  162.3100  210.3870  153.8800 C   0  0  0  0  0  2  0  0  0  0  0  0
  160.9350  204.0530  150.8890 C   0  0  0  0  0  0  0  0  0  0  0  0
  160.7800  206.5710  150.9060 C   0  0  2  0  0  3  0  0  0  0  0  0
  161.0300  208.9770  152.1740 C   0  0  2  0  0  3  0  0  0  0  0  0
  160.8080  204.0460  152.3890 C   0  0  0  0  0  2  0  0  0  0  0  0
  162.6050  210.6140  156.3260 C   0  0  0  0  0  1  0  0  0  0  0  0
  161.4930  208.5850  155.4550 C   0  0  0  0  0  2  0  0  0  0  0  0
  161.4140  205.2950  153.0010 C   0  0  0  0  0  2  0  0  0  0  0  0
  160.8540  205.2240  150.2090 C   0  0  0  0  0  0  0  0  0  0  0  0
  161.5070  201.7500  150.8990 O   0  0  0  0  0  0  0  0  0  0  0  0
  161.0660  202.7250  150.2330 C   0  0  0  0  0  0  0  0  0  0  0  0
  160.7860  202.5110  148.7810 C   0  0  0  0  0  2  0  0  0  0  0  0
  161.2020  201.1110  148.3740 C   0  0  0  0  0  1  0  0  0  0  0  0
  162.1530  206.2610  146.7460 C   0  0  0  0  0  2  0  0  0  0  0  0
  162.5750  204.9430  146.0990 C   0  0  0  0  0  2  0  0  0  0  0  0
  161.6400  204.5500  144.9660 C   0  0  0  0  0  3  0  0  0  0  0  0
  161.0300  203.1880  145.2380 C   0  0  0  0  0  1  0  0  0  0  0  0
  160.5350  205.5780  144.8500 C   0  0  0  0  0  1  0  0  0  0  0  0
  1 19  1  0  0  0  0
  2 24  1  6  0  0  0
  2  1  1  0  0  0  0
  2  5  1  0  0  0  0
  3  5  1  6  0  0  0
  3 13  1  0  0  0  0
  3 10  1  0  0  0  0
  4 17  1  0  0  0  0
  6 11  1  0  0  0  0
  7 18  1  1  0  0  0
  7  9  1  0  0  0  0
  8 17  1  0  0  0  0
  8 16  1  1  0  0  0
  9  4  1  1  0  0  0
 10 14  1  0  0  0  0
 11  8  1  0  0  0  0
 12 15  1  0  0  0  0
 13 19  1  1  0  0  0
 13  7  1  0  0  0  0
 14  6  1  1  0  0  0
 14  9  1  0  0  0  0
 15 18  1  0  0  0  0
 19 12  2  0  0  0  0
 21 12  1  0  0  0  0
 21 20  2  0  0  0  0
 22 21  1  0  0  0  0
 23 22  1  0  0  0  0
 25 24  1  0  0  0  0
 26 27  1  0  0  0  0
 26 25  1  0  0  0  0
 28 26  1  0  0  0  0
M  END
>  <MODEL>
1

>  <REMARK>
 VINA RESULT:     -10.3      0.000      0.000
  Name = 
  5 active torsions:
  status: ('A' for Active; 'I' for Inactive)
    1  A    between atoms: C_2  and  C_8
    2  A    between atoms: C_6  and  C_11
    3  A    between atoms: C_8  and  C_11
    4  A    between atoms: C_16  and  C_21
    5  A    between atoms: C_19  and  C_21
                            x       y       z     vdW  Elec       q    Type
                         _______ _______ _______ _____ _____    ______ ____

>  <TORSDO>
F 5

$$$$
=
 OpenBabel11052422533D

 28 31  0  0  1  0  0  0  0  0999 V2000
  161.5790  203.3590  148.2120 C   0  0  0  0  0  2  0  0  0  0  0  0
  160.5440  202.6280  149.0710 C   0  0  2  0  0  3  0  0  0  0  0  0
  160.6780  204.4230  150.8370 C   0  0  1  0  0  3  0  0  0  0  0  0
  161.9400  208.3170  152.1800 C   0  0  0  0  0  2  0  0  0  0  0  0
  160.7480  202.9220  150.5600 C   0  0  0  0  0  2  0  0  0  0  0  0
  161.5670  206.0970  154.1310 C   0  0  0  0  0  2  0  0  0  0  0  0
  161.7140  206.7050  150.2740 C   0  0  1  0  0  3  0  0  0  0  0  0
  160.9410  208.4780  154.5030 C   0  0  2  0  0  3  0  0  0  0  0  0
  161.3040  207.0150  151.7140 C   0  0  1  0  0  3  0  0  0  0  0  0
  160.8340  204.6510  152.2870 N   0  0  0  0  0  2  0  0  0  0  0  0
  160.4360  207.0410  154.5200 C   0  0  0  0  0  2  0  0  0  0  0  0
  161.2810  205.7580  147.5490 C   0  0  0  0  0  0  0  0  0  0  0  0
  161.7050  205.1880  149.9700 C   0  0  2  0  0  3  0  0  0  0  0  0
  161.6470  205.8240  152.6260 C   0  0  2  0  0  3  0  0  0  0  0  0
  161.3260  207.2220  147.8970 C   0  0  0  0  0  2  0  0  0  0  0  0
  160.0370  209.3320  155.3650 C   0  0  0  0  0  1  0  0  0  0  0  0
  160.9690  209.0580  153.0910 C   0  0  0  0  0  2  0  0  0  0  0  0
  160.8260  207.4710  149.3080 C   0  0  0  0  0  2  0  0  0  0  0  0
  161.5240  204.8280  148.5060 C   0  0  0  0  0  0  0  0  0  0  0  0
  160.0530  205.9350  145.5260 O   0  0  0  0  0  0  0  0  0  0  0  0
  161.0430  205.4290  146.1190 C   0  0  0  0  0  0  0  0  0  0  0  0
  161.8770  204.4410  145.3690 C   0  0  0  0  0  2  0  0  0  0  0  0
  163.3480  204.7330  145.5890 C   0  0  0  0  0  1  0  0  0  0  0  0
  160.5320  201.1270  148.7790 C   0  0  0  0  0  2  0  0  0  0  0  0
  161.4460  200.7230  147.6230 C   0  0  0  0  0  2  0  0  0  0  0  0
  160.6510  200.2000  146.4370 C   0  0  0  0  0  3  0  0  0  0  0  0
  160.4070  201.3150  145.4370 C   0  0  0  0  0  1  0  0  0  0  0  0
  161.4290  199.0890  145.7650 C   0  0  0  0  0  1  0  0  0  0  0  0
  1 19  1  0  0  0  0
  1  2  1  0  0  0  0
  2 24  1  1  0  0  0
  2  5  1  0  0  0  0
  3  5  1  1  0  0  0
  3 10  1  0  0  0  0
  4 17  1  0  0  0  0
  6 11  1  0  0  0  0
  7 18  1  6  0  0  0
  7  9  1  0  0  0  0
  8 11  1  0  0  0  0
  8 16  1  1  0  0  0
  9  4  1  1  0  0  0
  9 14  1  0  0  0  0
 10 14  1  0  0  0  0
 12 15  1  0  0  0  0
 12 19  2  0  0  0  0
 13 19  1  6  0  0  0
 13  7  1  0  0  0  0
 13  3  1  0  0  0  0
 14  6  1  1  0  0  0
 15 18  1  0  0  0  0
 17  8  1  0  0  0  0
 20 21  2  0  0  0  0
 21 12  1  0  0  0  0
 22 23  1  0  0  0  0
 22 21  1  0  0  0  0
 25 24  1  0  0  0  0
 26 25  1  0  0  0  0
 27 26  1  0  0  0  0
 28 26  1  0  0  0  0
M  END
>  <MODEL>
2

>  <REMARK>
 VINA RESULT:      -9.9      1.995      4.086
  Name = 
  5 active torsions:
  status: ('A' for Active; 'I' for Inactive)
    1  A    between atoms: C_2  and  C_8
    2  A    between atoms: C_6  and  C_11
    3  A    between atoms: C_8  and  C_11
    4  A    between atoms: C_16  and  C_21
    5  A    between atoms: C_19  and  C_21
                            x       y       z     vdW  Elec       q    Type
                         _______ _______ _______ _____ _____    ______ ____

>  <TORSDO>
F 5

$$$$
=
 OpenBabel11052422533D

 28 31  0  0  1  0  0  0  0  0999 V2000
  162.3650  208.4110  150.8620 C   0  0  0  0  0  2  0  0  0  0  0  0
  161.7560  209.1640  149.6780 C   0  0  2  0  0  3  0  0  0  0  0  0
  161.5200  207.0160  148.3770 C   0  0  1  0  0  3  0  0  0  0  0  0
  161.5840  202.7150  148.1410 C   0  0  0  0  0  2  0  0  0  0  0  0
  162.0470  208.4510  148.3540 C   0  0  0  0  0  2  0  0  0  0  0  0
  162.2330  204.3660  145.7480 C   0  0  0  0  0  2  0  0  0  0  0  0
  161.6550  204.7570  149.5930 C   0  0  1  0  0  3  0  0  0  0  0  0
  160.9070  202.2600  145.7430 C   0  0  2  0  0  3  0  0  0  0  0  0
  161.3600  204.2200  148.1910 C   0  0  1  0  0  3  0  0  0  0  0  0
  161.7830  206.3880  147.0680 N   0  0  0  0  0  2  0  0  0  0  0  0
  160.9150  203.7260  145.3310 C   0  0  0  0  0  2  0  0  0  0  0  0
  161.2020  206.4580  151.9190 C   0  0  0  0  0  0  0  0  0  0  0  0
  162.1090  206.2360  149.5750 C   0  0  2  0  0  3  0  0  0  0  0  0
  162.1980  204.9830  147.1500 C   0  0  2  0  0  3  0  0  0  0  0  0
  160.8040  205.0070  151.8910 C   0  0  0  0  0  2  0  0  0  0  0  0
  159.8930  201.5140  144.9020 C   0  0  0  0  0  1  0  0  0  0  0  0
  160.5530  202.0810  147.2170 C   0  0  0  0  0  2  0  0  0  0  0  0
  160.4420  204.5590  150.4870 C   0  0  0  0  0  2  0  0  0  0  0  0
  161.8650  206.9980  150.8660 C   0  0  0  0  0  0  0  0  0  0  0  0
  160.4830  208.3870  153.1000 O   0  0  0  0  0  0  0  0  0  0  0  0
  160.8990  207.1990  153.1720 C   0  0  0  0  0  0  0  0  0  0  0  0
  161.1570  206.6290  154.5290 C   0  0  0  0  0  2  0  0  0  0  0  0
  160.2500  207.2900  155.5490 C   0  0  0  0  0  1  0  0  0  0  0  0
  162.2040  210.6260  149.6510 C   0  0  0  0  0  2  0  0  0  0  0  0
  162.0380  211.2890  148.2840 C   0  0  0  0  0  2  0  0  0  0  0  0
  161.6170  212.7440  148.4150 C   0  0  0  0  0  3  0  0  0  0  0  0
  162.7190  213.6560  147.9070 C   0  0  0  0  0  1  0  0  0  0  0  0
  160.3620  212.9780  147.6010 C   0  0  0  0  0  1  0  0  0  0  0  0
  1 19  1  0  0  0  0
  2 24  1  6  0  0  0
  2  1  1  0  0  0  0
  3  5  1  6  0  0  0
  3 13  1  0  0  0  0
  5  2  1  0  0  0  0
  7 18  1  1  0  0  0
  8 16  1  6  0  0  0
  8 17  1  0  0  0  0
  9  4  1  1  0  0  0
  9  7  1  0  0  0  0
 10 14  1  0  0  0  0
 10  3  1  0  0  0  0
 11  8  1  0  0  0  0
 11  6  1  0  0  0  0
 12 21  1  0  0  0  0
 13  7  1  0  0  0  0
 13 19  1  1  0  0  0
 14  6  1  6  0  0  0
 14  9  1  0  0  0  0
 15 12  1  0  0  0  0
 17  4  1  0  0  0  0
 18 15  1  0  0  0  0
 19 12  2  0  0  0  0
 20 21  2  0  0  0  0
 21 22  1  0  0  0  0
 22 23  1  0  0  0  0
 25 26  1  0  0  0  0
 25 24  1  0  0  0  0
 27 26  1  0  0  0  0
 28 26  1  0  0  0  0
M  END
>  <MODEL>
3

>  <REMARK>
 VINA RESULT:      -9.4      2.807      7.276
  Name = 
  5 active torsions:
  status: ('A' for Active; 'I' for Inactive)
    1  A    between atoms: C_2  and  C_8
    2  A    between atoms: C_6  and  C_11
    3  A    between atoms: C_8  and  C_11
    4  A    between atoms: C_16  and  C_21
    5  A    between atoms: C_19  and  C_21
                            x       y       z     vdW  Elec       q    Type
                         _______ _______ _______ _____ _____    ______ ____

>  <TORSDO>
F 5

$$$$
=
 OpenBabel11052422533D

 28 31  0  0  1  0  0  0  0  0999 V2000
  160.8470  207.3950  151.8270 C   0  0  0  0  0  2  0  0  0  0  0  0
  161.6160  206.4690  152.7720 C   0  0  2  0  0  3  0  0  0  0  0  0
  161.4290  204.5650  151.1290 C   0  0  1  0  0  3  0  0  0  0  0  0
  160.4940  203.0300  147.2140 C   0  0  0  0  0  2  0  0  0  0  0  0
  161.2060  205.0060  152.5750 C   0  0  0  0  0  2  0  0  0  0  0  0
  160.2330  201.2890  149.6180 C   0  0  0  0  0  2  0  0  0  0  0  0
  160.8180  205.0380  148.6790 C   0  0  1  0  0  3  0  0  0  0  0  0
  161.1020  200.5770  147.3960 C   0  0  2  0  0  3  0  0  0  0  0  0
  161.0190  203.5270  148.5540 C   0  0  1  0  0  3  0  0  0  0  0  0
  161.0650  203.1410  151.0010 N   0  0  0  0  0  2  0  0  0  0  0  0
  161.3990  200.6340  148.8890 C   0  0  0  0  0  2  0  0  0  0  0  0
  161.5710  207.7480  149.4530 C   0  0  0  0  0  0  0  0  0  0  0  0
  160.6740  205.4950  150.1500 C   0  0  2  0  0  3  0  0  0  0  0  0
  160.3710  202.8100  149.7510 C   0  0  2  0  0  3  0  0  0  0  0  0
  161.6660  207.2580  148.0330 C   0  0  0  0  0  2  0  0  0  0  0  0
  161.9560  199.5010  146.7610 C   0  0  0  0  0  1  0  0  0  0  0  0
  161.3890  201.9070  146.7040 C   0  0  0  0  0  2  0  0  0  0  0  0
  161.9510  205.7690  147.9780 C   0  0  0  0  0  2  0  0  0  0  0  0
  161.0480  206.9430  150.4120 C   0  0  0  0  0  0  0  0  0  0  0  0
  162.3370  209.5000  150.8590 O   0  0  0  0  0  0  0  0  0  0  0  0
  161.9990  209.1510  149.6960 C   0  0  0  0  0  0  0  0  0  0  0  0
  161.9570  210.2020  148.6340 C   0  0  0  0  0  2  0  0  0  0  0  0
  161.9720  211.5790  149.2680 C   0  0  0  0  0  1  0  0  0  0  0  0
  161.4750  206.9120  154.2290 C   0  0  0  0  0  2  0  0  0  0  0  0
  160.8390  208.2920  154.3880 C   0  0  0  0  0  2  0  0  0  0  0  0
  160.4400  208.5630  155.8300 C   0  0  0  0  0  3  0  0  0  0  0  0
  159.8580  207.3100  156.4570 C   0  0  0  0  0  1  0  0  0  0  0  0
  161.6610  208.9920  156.6160 C   0  0  0  0  0  1  0  0  0  0  0  0
  1  2  1  0  0  0  0
  2 24  1  1  0  0  0
  3  5  1  1  0  0  0
  5  2  1  0  0  0  0
  7 18  1  1  0  0  0
  7 13  1  0  0  0  0
  8 16  1  6  0  0  0
  8 11  1  0  0  0  0
  9  4  1  6  0  0  0
  9  7  1  0  0  0  0
  9 14  1  0  0  0  0
 10  3  1  0  0  0  0
 11  6  1  0  0  0  0
 12 21  1  0  0  0  0
 12 19  2  0  0  0  0
 13 19  1  6  0  0  0
 13  3  1  0  0  0  0
 14  6  1  6  0  0  0
 14 10  1  0  0  0  0
 15 12  1  0  0  0  0
 17  4  1  0  0  0  0
 17  8  1  0  0  0  0
 18 15  1  0  0  0  0
 19  1  1  0  0  0  0
 21 20  2  0  0  0  0
 22 23  1  0  0  0  0
 22 21  1  0  0  0  0
 24 25  1  0  0  0  0
 25 26  1  0  0  0  0
 26 27  1  0  0  0  0
 26 28  1  0  0  0  0
M  END
>  <MODEL>
4

>  <REMARK>
 VINA RESULT:      -9.1      2.384      8.237
  Name = 
  5 active torsions:
  status: ('A' for Active; 'I' for Inactive)
    1  A    between atoms: C_2  and  C_8
    2  A    between atoms: C_6  and  C_11
    3  A    between atoms: C_8  and  C_11
    4  A    between atoms: C_16  and  C_21
    5  A    between atoms: C_19  and  C_21
                            x       y       z     vdW  Elec       q    Type
                         _______ _______ _______ _____ _____    ______ ____

>  <TORSDO>
F 5

$$$$
=
 OpenBabel11052422533D

 28 31  0  0  1  0  0  0  0  0999 V2000
  162.0460  205.2970  151.2140 C   0  0  0  0  0  2  0  0  0  0  0  0
  160.9220  204.6280  152.0070 C   0  0  2  0  0  3  0  0  0  0  0  0
  160.7470  206.6300  153.5310 C   0  0  1  0  0  3  0  0  0  0  0  0
  161.6840  210.7150  154.5260 C   0  0  0  0  0  2  0  0  0  0  0  0
  160.9010  205.1110  153.4610 C   0  0  0  0  0  2  0  0  0  0  0  0
  161.1030  208.7350  156.6750 C   0  0  0  0  0  2  0  0  0  0  0  0
  161.7830  208.8730  152.8300 C   0  0  1  0  0  3  0  0  0  0  0  0
  160.3590  211.1100  156.6490 C   0  0  2  0  0  3  0  0  0  0  0  0
  161.1610  209.3370  154.1470 C   0  0  1  0  0  3  0  0  0  0  0  0
  160.6860  207.0410  154.9470 N   0  0  0  0  0  2  0  0  0  0  0  0
  159.9000  209.6630  156.7800 C   0  0  0  0  0  2  0  0  0  0  0  0
  161.7740  207.5800  150.2150 C   0  0  0  0  0  0  0  0  0  0  0  0
  161.8640  207.3320  152.7240 C   0  0  2  0  0  3  0  0  0  0  0  0
  161.4060  208.2840  155.2420 C   0  0  2  0  0  3  0  0  0  0  0  0
  161.7240  209.0760  150.3750 C   0  0  0  0  0  2  0  0  0  0  0  0
  159.3140  212.0190  157.2610 C   0  0  0  0  0  1  0  0  0  0  0  0
  160.5710  211.5140  155.1920 C   0  0  0  0  0  2  0  0  0  0  0  0
  161.0190  209.4710  151.6600 C   0  0  0  0  0  2  0  0  0  0  0  0
  161.9050  206.7870  151.3070 C   0  0  0  0  0  0  0  0  0  0  0  0
  162.7570  207.2540  148.0790 O   0  0  0  0  0  0  0  0  0  0  0  0
  161.7540  207.0670  148.8190 C   0  0  0  0  0  0  0  0  0  0  0  0
  160.5510  206.4160  148.2160 C   0  0  0  0  0  2  0  0  0  0  0  0
  160.7330  206.2810  146.7170 C   0  0  0  0  0  1  0  0  0  0  0  0
  160.9970  203.1040  151.9110 C   0  0  0  0  0  2  0  0  0  0  0  0
  161.5870  202.6050  150.5930 C   0  0  0  0  0  2  0  0  0  0  0  0
  160.5810  202.6990  149.4570 C   0  0  0  0  0  3  0  0  0  0  0  0
  161.2980  202.9170  148.1380 C   0  0  0  0  0  1  0  0  0  0  0  0
  159.7840  201.4140  149.3850 C   0  0  0  0  0  1  0  0  0  0  0  0
  1 19  1  0  0  0  0
  1  2  1  0  0  0  0
  2 24  1  1  0  0  0
  2  5  1  0  0  0  0
  3  5  1  1  0  0  0
  3 10  1  0  0  0  0
  4 17  1  0  0  0  0
  6 11  1  0  0  0  0
  7 18  1  6  0  0  0
  7  9  1  0  0  0  0
  8 11  1  0  0  0  0
  8 16  1  6  0  0  0
  9  4  1  1  0  0  0
  9 14  1  0  0  0  0
 10 14  1  0  0  0  0
 12 15  1  0  0  0  0
 12 19  2  0  0  0  0
 13 19  1  6  0  0  0
 13  7  1  0  0  0  0
 13  3  1  0  0  0  0
 14  6  1  1  0  0  0
 15 18  1  0  0  0  0
 17  8  1  0  0  0  0
 20 21  2  0  0  0  0
 21 12  1  0  0  0  0
 22 21  1  0  0  0  0
 23 22  1  0  0  0  0
 25 24  1  0  0  0  0
 26 25  1  0  0  0  0
 27 26  1  0  0  0  0
 28 26  1  0  0  0  0
M  END
>  <MODEL>
5

>  <REMARK>
 VINA RESULT:      -9.1      2.010      4.187
  Name = 
  5 active torsions:
  status: ('A' for Active; 'I' for Inactive)
    1  A    between atoms: C_2  and  C_8
    2  A    between atoms: C_6  and  C_11
    3  A    between atoms: C_8  and  C_11
    4  A    between atoms: C_16  and  C_21
    5  A    between atoms: C_19  and  C_21
                            x       y       z     vdW  Elec       q    Type
                         _______ _______ _______ _____ _____    ______ ____

>  <TORSDO>
F 5

$$$$
=
 OpenBabel11052422533D

 28 31  0  0  1  0  0  0  0  0999 V2000
  162.2850  207.7620  151.2650 C   0  0  0  0  0  2  0  0  0  0  0  0
  161.5570  208.5970  150.2100 C   0  0  2  0  0  3  0  0  0  0  0  0
  161.3370  206.5860  148.7050 C   0  0  1  0  0  3  0  0  0  0  0  0
  161.5960  202.3430  148.0070 C   0  0  0  0  0  2  0  0  0  0  0  0
  161.7890  208.0420  148.8010 C   0  0  0  0  0  2  0  0  0  0  0  0
  161.9920  204.2660  145.7670 C   0  0  0  0  0  2  0  0  0  0  0  0
  161.6680  204.2240  149.6610 C   0  0  1  0  0  3  0  0  0  0  0  0
  160.7750  202.1000  145.6220 C   0  0  2  0  0  3  0  0  0  0  0  0
  161.3020  203.8190  148.2320 C   0  0  1  0  0  3  0  0  0  0  0  0
  161.5370  206.1110  147.3220 N   0  0  0  0  0  2  0  0  0  0  0  0
  160.6810  203.5990  145.3700 C   0  0  0  0  0  2  0  0  0  0  0  0
  161.2970  205.6470  152.1800 C   0  0  0  0  0  0  0  0  0  0  0  0
  162.0470  205.7200  149.7720 C   0  0  2  0  0  3  0  0  0  0  0  0
  162.0250  204.7310  147.2260 C   0  0  2  0  0  3  0  0  0  0  0  0
  160.9700  204.1860  152.0230 C   0  0  0  0  0  2  0  0  0  0  0  0
  159.7420  201.3890  144.7740 C   0  0  0  0  0  1  0  0  0  0  0  0
  160.5340  201.7500  147.0890 C   0  0  0  0  0  2  0  0  0  0  0  0
  160.5330  203.8670  150.6050 C   0  0  0  0  0  2  0  0  0  0  0  0
  161.8570  206.3300  151.1500 C   0  0  0  0  0  0  0  0  0  0  0  0
  161.1030  205.4960  154.5410 O   0  0  0  0  0  0  0  0  0  0  0  0
  161.0470  206.2370  153.5220 C   0  0  0  0  0  0  0  0  0  0  0  0
  160.6360  207.6600  153.7140 C   0  0  0  0  0  2  0  0  0  0  0  0
  160.8390  208.0670  155.1600 C   0  0  0  0  0  1  0  0  0  0  0  0
  161.9300  210.0770  150.3100 C   0  0  0  0  0  2  0  0  0  0  0  0
  161.9570  210.6020  151.7450 C   0  0  0  0  0  2  0  0  0  0  0  0
  160.5850  211.0820  152.1920 C   0  0  0  0  0  3  0  0  0  0  0  0
  160.5930  211.3820  153.6800 C   0  0  0  0  0  1  0  0  0  0  0  0
  160.2220  212.3400  151.4330 C   0  0  0  0  0  1  0  0  0  0  0  0
  2 24  1  6  0  0  0
  2  1  1  0  0  0  0
  3  5  1  6  0  0  0
  3 13  1  0  0  0  0
  5  2  1  0  0  0  0
  7 13  1  0  0  0  0
  7 18  1  1  0  0  0
  8 16  1  6  0  0  0
  8 17  1  0  0  0  0
  9  4  1  6  0  0  0
  9  7  1  0  0  0  0
 10  3  1  0  0  0  0
 11  8  1  0  0  0  0
 11  6  1  0  0  0  0
 12 21  1  0  0  0  0
 13 19  1  1  0  0  0
 14  6  1  6  0  0  0
 14 10  1  0  0  0  0
 14  9  1  0  0  0  0
 15 12  1  0  0  0  0
 17  4  1  0  0  0  0
 18 15  1  0  0  0  0
 19  1  1  0  0  0  0
 19 12  2  0  0  0  0
 21 22  1  0  0  0  0
 21 20  2  0  0  0  0
 22 23  1  0  0  0  0
 24 25  1  0  0  0  0
 25 26  1  0  0  0  0
 26 27  1  0  0  0  0
 28 26  1  0  0  0  0
M  END
>  <MODEL>
6

>  <REMARK>
 VINA RESULT:      -8.6      1.876      7.471
  Name = 
  5 active torsions:
  status: ('A' for Active; 'I' for Inactive)
    1  A    between atoms: C_2  and  C_8
    2  A    between atoms: C_6  and  C_11
    3  A    between atoms: C_8  and  C_11
    4  A    between atoms: C_16  and  C_21
    5  A    between atoms: C_19  and  C_21
                            x       y       z     vdW  Elec       q    Type
                         _______ _______ _______ _____ _____    ______ ____

>  <TORSDO>
F 5

$$$$
=
 OpenBabel11052422533D

 28 31  0  0  1  0  0  0  0  0999 V2000
  162.4040  209.9580  150.5150 C   0  0  0  0  0  2  0  0  0  0  0  0
  161.6030  209.9970  149.2110 C   0  0  2  0  0  3  0  0  0  0  0  0
  161.3270  207.4910  149.2540 C   0  0  1  0  0  3  0  0  0  0  0  0
  161.6100  203.6910  151.2650 C   0  0  0  0  0  2  0  0  0  0  0  0
  161.7610  208.6950  148.4200 C   0  0  0  0  0  2  0  0  0  0  0  0
  161.8460  203.8490  148.2990 C   0  0  0  0  0  2  0  0  0  0  0  0
  161.7490  206.1880  151.4280 C   0  0  1  0  0  3  0  0  0  0  0  0
  160.6560  202.0690  149.5690 C   0  0  2  0  0  3  0  0  0  0  0  0
  161.3080  205.0070  150.5620 C   0  0  1  0  0  3  0  0  0  0  0  0
  161.4540  206.2700  148.4360 N   0  0  0  0  0  2  0  0  0  0  0  0
  160.5250  203.1090  148.4630 C   0  0  0  0  0  2  0  0  0  0  0  0
  161.5030  208.8570  152.5800 C   0  0  0  0  0  0  0  0  0  0  0  0
  162.1110  207.4350  150.5860 C   0  0  2  0  0  3  0  0  0  0  0  0
  161.9570  205.1040  149.1710 C   0  0  2  0  0  3  0  0  0  0  0  0
  161.1900  207.6090  153.3610 C   0  0  0  0  0  2  0  0  0  0  0  0
  159.5870  201.0130  149.3860 C   0  0  0  0  0  1  0  0  0  0  0  0
  160.5070  202.6870  150.9560 C   0  0  0  0  0  2  0  0  0  0  0  0
  160.6760  206.5050  152.4560 C   0  0  0  0  0  2  0  0  0  0  0  0
  161.9920  208.7610  151.3180 C   0  0  0  0  0  0  0  0  0  0  0  0
  162.2740  210.6090  153.9830 O   0  0  0  0  0  0  0  0  0  0  0  0
  161.3230  210.1470  153.2990 C   0  0  0  0  0  0  0  0  0  0  0  0
  160.0210  210.8800  153.3250 C   0  0  0  0  0  2  0  0  0  0  0  0
  160.0770  212.0690  152.3860 C   0  0  0  0  0  1  0  0  0  0  0  0
  161.9580  211.2250  148.3710 C   0  0  0  0  0  2  0  0  0  0  0  0
  161.5170  212.5440  149.0040 C   0  0  0  0  0  2  0  0  0  0  0  0
  161.1840  213.5880  147.9500 C   0  0  0  0  0  3  0  0  0  0  0  0
  162.2310  213.5770  146.8520 C   0  0  0  0  0  1  0  0  0  0  0  0
  159.8290  213.2780  147.3490 C   0  0  0  0  0  1  0  0  0  0  0  0
  1 19  1  0  0  0  0
  2 24  1  6  0  0  0
  2  1  1  0  0  0  0
  3  5  1  6  0  0  0
  3 13  1  0  0  0  0
  5  2  1  0  0  0  0
  6 11  1  0  0  0  0
  7 18  1  1  0  0  0
  8 16  1  6  0  0  0
  8 17  1  0  0  0  0
  9  4  1  1  0  0  0
  9  7  1  0  0  0  0
 10 14  1  0  0  0  0
 10  3  1  0  0  0  0
 11  8  1  0  0  0  0
 12 21  1  0  0  0  0
 12 15  1  0  0  0  0
 13 19  1  1  0  0  0
 13  7  1  0  0  0  0
 14  6  1  6  0  0  0
 14  9  1  0  0  0  0
 17  4  1  0  0  0  0
 18 15  1  0  0  0  0
 19 12  2  0  0  0  0
 21 22  1  0  0  0  0
 21 20  2  0  0  0  0
 23 22  1  0  0  0  0
 24 25  1  0  0  0  0
 26 25  1  0  0  0  0
 27 26  1  0  0  0  0
 28 26  1  0  0  0  0
M  END
>  <MODEL>
7

>  <REMARK>
 VINA RESULT:      -7.9      3.186      7.040
  Name = 
  5 active torsions:
  status: ('A' for Active; 'I' for Inactive)
    1  A    between atoms: C_2  and  C_8
    2  A    between atoms: C_6  and  C_11
    3  A    between atoms: C_8  and  C_11
    4  A    between atoms: C_16  and  C_21
    5  A    between atoms: C_19  and  C_21
                            x       y       z     vdW  Elec       q    Type
                         _______ _______ _______ _____ _____    ______ ____

>  <TORSDO>
F 5

$$$$
