=
 OpenBabel11052423093D

 27 32  0  0  1  0  0  0  0  0999 V2000
  162.6950  207.7340  150.8420 C   0  0  0  0  0  2  0  0  0  0  0  0
  161.3920  205.9610  152.0800 C   0  0  1  0  0  3  0  0  0  0  0  0
  159.9070  206.1690  149.8870 C   0  0  0  0  0  2  0  0  0  0  0  0
  161.0800  202.0650  150.8250 N   0  0  0  0  0  0  0  0  0  0  0  0
  160.4510  200.9190  149.1830 N   0  0  0  0  0  0  0  0  0  0  0  0
  162.6790  205.1280  152.3910 C   0  0  0  0  0  2  0  0  0  0  0  0
  160.3060  202.8460  150.0790 C   0  0  0  0  0  0  0  0  0  0  0  0
  161.5370  205.2540  146.5950 C   0  0  0  0  0  3  0  0  0  0  0  0
  159.8590  202.1670  148.9860 C   0  0  0  0  0  3  0  0  0  0  0  0
  162.5330  206.2260  146.4800 C   0  0  0  0  0  3  0  0  0  0  0  0
  160.5370  204.0430  150.9620 C   0  0  1  0  0  3  0  0  0  0  0  0
  161.6990  207.3750  151.8520 N   0  0  0  0  0  0  0  0  0  0  0  0
  161.1950  200.8720  150.3100 N   0  0  0  0  0  0  0  0  0  0  0  0
  161.2340  203.1180  151.7720 C   0  0  2  0  0  3  0  0  0  0  0  0
  162.0100  208.2880  149.6020 C   0  0  0  0  0  2  0  0  0  0  0  0
  160.5170  205.3640  150.9960 C   0  0  1  0  0  3  0  0  0  0  0  0
  160.6850  205.2560  147.7020 C   0  0  0  0  0  3  0  0  0  0  0  0
  162.6640  203.6580  151.8790 C   0  0  0  0  0  2  0  0  0  0  0  0
  162.6740  207.2020  147.4690 C   0  0  0  0  0  3  0  0  0  0  0  0
  161.8220  207.2150  148.5790 C   0  0  0  0  0  0  0  0  0  0  0  0
  160.8190  206.2300  148.6990 C   0  0  0  0  0  0  0  0  0  0  0  0
  159.7750  210.3210  154.1400 N   0  0  0  0  0  0  0  0  0  0  0  0
  161.0370  208.3920  152.6320 C   0  0  0  0  0  0  0  0  0  0  0  0
  160.5210  209.5410  152.0220 C   0  0  0  0  0  3  0  0  0  0  0  0
  159.8860  210.5070  152.7990 C   0  0  0  0  0  3  0  0  0  0  0  0
  160.2620  209.2280  154.7320 N   0  0  0  0  0  0  0  0  0  0  0  0
  160.8900  208.2570  154.0190 C   0  0  0  0  0  3  0  0  0  0  0  0
  1 12  1  0  0  0  0
  2  6  1  6  0  0  0
  4 14  1  0  0  0  0
  5 13  2  0  0  0  0
  7  4  1  0  0  0  0
  8 17  1  0  0  0  0
  9  5  1  0  0  0  0
  9  7  2  0  0  0  0
 10  8  2  0  0  0  0
 10 19  1  0  0  0  0
 11  7  1  6  0  0  0
 11 16  1  0  0  0  0
 11 14  1  0  0  0  0
 12  2  1  0  0  0  0
 12 23  1  0  0  0  0
 13  4  1  0  0  0  0
 14 18  1  6  0  0  0
 15  1  1  0  0  0  0
 16  3  1  6  0  0  0
 16  2  1  0  0  0  0
 17 21  2  0  0  0  0
 18  6  1  0  0  0  0
 19 20  2  0  0  0  0
 20 21  1  0  0  0  0
 20 15  1  0  0  0  0
 21  3  1  0  0  0  0
 22 26  1  0  0  0  0
 23 27  1  0  0  0  0
 24 23  2  0  0  0  0
 24 25  1  0  0  0  0
 25 22  2  0  0  0  0
 27 26  2  0  0  0  0
M  END
>  <MODEL>
1

>  <REMARK>
 VINA RESULT:      -6.7      0.000      0.000
  Name = 
  1 active torsions:
  status: ('A' for Active; 'I' for Inactive)
    1  A    between atoms: C_9  and  N_15
                            x       y       z     vdW  Elec       q    Type
                         _______ _______ _______ _____ _____    ______ ____

>  <TORSDO>
F 1

$$$$
=
 OpenBabel11052423093D

 27 32  0  0  1  0  0  0  0  0999 V2000
  162.9550  207.8270  149.8050 C   0  0  0  0  0  2  0  0  0  0  0  0
  161.5770  206.4840  151.4400 C   0  0  1  0  0  3  0  0  0  0  0  0
  160.0910  206.2030  149.2560 C   0  0  0  0  0  2  0  0  0  0  0  0
  161.0780  202.4170  151.2030 N   0  0  0  0  0  0  0  0  0  0  0  0
  160.3860  200.9250  149.8970 N   0  0  0  0  0  0  0  0  0  0  0  0
  162.8260  205.6980  151.9590 C   0  0  0  0  0  2  0  0  0  0  0  0
  160.3370  203.0200  150.2800 C   0  0  0  0  0  0  0  0  0  0  0  0
  161.6580  204.4160  146.3100 C   0  0  0  0  0  3  0  0  0  0  0  0
  159.8520  202.1100  149.3890 C   0  0  0  0  0  3  0  0  0  0  0  0
  162.6970  205.2800  145.9610 C   0  0  0  0  0  3  0  0  0  0  0  0
  160.6280  204.3880  150.8350 C   0  0  1  0  0  3  0  0  0  0  0  0
  161.9490  207.7790  150.8670 N   0  0  0  0  0  0  0  0  0  0  0  0
  161.1340  201.1290  151.0050 N   0  0  0  0  0  0  0  0  0  0  0  0
  161.2860  203.6660  151.8550 C   0  0  2  0  0  3  0  0  0  0  0  0
  162.2890  208.0820  148.4610 C   0  0  0  0  0  2  0  0  0  0  0  0
  160.6700  205.6750  150.5350 C   0  0  1  0  0  3  0  0  0  0  0  0
  160.8140  204.7350  147.3750 C   0  0  0  0  0  3  0  0  0  0  0  0
  162.7400  204.1480  151.8320 C   0  0  0  0  0  2  0  0  0  0  0  0
  162.8890  206.4650  146.6730 C   0  0  0  0  0  3  0  0  0  0  0  0
  162.0450  206.7970  147.7400 C   0  0  0  0  0  0  0  0  0  0  0  0
  160.9990  205.9210  148.0970 C   0  0  0  0  0  0  0  0  0  0  0  0
  160.1890  211.3120  152.2920 N   0  0  0  0  0  0  0  0  0  0  0  0
  161.3390  208.9890  151.3620 C   0  0  0  0  0  0  0  0  0  0  0  0
  160.4210  208.9510  152.4180 C   0  0  0  0  0  3  0  0  0  0  0  0
  159.8490  210.1340  152.8760 C   0  0  0  0  0  3  0  0  0  0  0  0
  161.0640  211.3610  151.2860 N   0  0  0  0  0  0  0  0  0  0  0  0
  161.6510  210.2350  150.8020 C   0  0  0  0  0  3  0  0  0  0  0  0
  1 12  1  0  0  0  0
  2  6  1  6  0  0  0
  4 14  1  0  0  0  0
  5 13  2  0  0  0  0
  7  4  1  0  0  0  0
  8 17  1  0  0  0  0
  9  5  1  0  0  0  0
  9  7  2  0  0  0  0
 10  8  2  0  0  0  0
 10 19  1  0  0  0  0
 11  7  1  6  0  0  0
 11 14  1  0  0  0  0
 12 23  1  0  0  0  0
 12  2  1  0  0  0  0
 13  4  1  0  0  0  0
 14 18  1  6  0  0  0
 15  1  1  0  0  0  0
 16  3  1  6  0  0  0
 16 11  1  0  0  0  0
 16  2  1  0  0  0  0
 17 21  2  0  0  0  0
 18  6  1  0  0  0  0
 19 20  2  0  0  0  0
 20 21  1  0  0  0  0
 20 15  1  0  0  0  0
 21  3  1  0  0  0  0
 22 25  1  0  0  0  0
 23 24  1  0  0  0  0
 24 25  2  0  0  0  0
 26 22  2  0  0  0  0
 27 26  1  0  0  0  0
 27 23  2  0  0  0  0
M  END
>  <MODEL>
2

>  <REMARK>
 VINA RESULT:      -6.7      1.091      1.391
  Name = 
  1 active torsions:
  status: ('A' for Active; 'I' for Inactive)
    1  A    between atoms: C_9  and  N_15
                            x       y       z     vdW  Elec       q    Type
                         _______ _______ _______ _____ _____    ______ ____

>  <TORSDO>
F 1

$$$$
=
 OpenBabel11052423093D

 27 32  0  0  1  0  0  0  0  0999 V2000
  160.1570  208.4730  153.1160 C   0  0  0  0  0  2  0  0  0  0  0  0
  160.6440  210.9410  152.9000 C   0  0  1  0  0  3  0  0  0  0  0  0
  162.5550  209.9620  151.3360 C   0  0  0  0  0  2  0  0  0  0  0  0
  160.1470  213.0690  149.4260 N   0  0  0  0  0  0  0  0  0  0  0  0
  160.7730  213.1030  147.4220 N   0  0  0  0  0  0  0  0  0  0  0  0
  159.1440  211.2870  152.6210 C   0  0  0  0  0  2  0  0  0  0  0  0
  161.2420  212.3200  149.3470 C   0  0  0  0  0  0  0  0  0  0  0  0
  161.4650  208.0540  148.2540 C   0  0  0  0  0  3  0  0  0  0  0  0
  161.7080  212.2920  148.0670 C   0  0  0  0  0  3  0  0  0  0  0  0
  160.8150  206.9480  148.8070 C   0  0  0  0  0  3  0  0  0  0  0  0
  161.1630  211.9230  150.7970 C   0  0  1  0  0  3  0  0  0  0  0  0
  160.7840  209.6860  153.6420 N   0  0  0  0  0  0  0  0  0  0  0  0
  159.8250  213.5700  148.2650 N   0  0  0  0  0  0  0  0  0  0  0  0
  160.0900  212.8410  150.8300 C   0  0  2  0  0  3  0  0  0  0  0  0
  161.2100  207.5550  152.5140 C   0  0  0  0  0  2  0  0  0  0  0  0
  161.5320  211.0050  151.6740 C   0  0  1  0  0  3  0  0  0  0  0  0
  162.0340  209.0170  149.0880 C   0  0  0  0  0  3  0  0  0  0  0  0
  158.8680  212.0320  151.2810 C   0  0  0  0  0  2  0  0  0  0  0  0
  160.7390  206.8050  150.1930 C   0  0  0  0  0  3  0  0  0  0  0  0
  161.3110  207.7630  151.0390 C   0  0  0  0  0  0  0  0  0  0  0  0
  161.9620  208.8830  150.4800 C   0  0  0  0  0  0  0  0  0  0  0  0
  162.9070  209.5900  157.2610 N   0  0  0  0  0  0  0  0  0  0  0  0
  161.5180  209.6600  154.8840 C   0  0  0  0  0  0  0  0  0  0  0  0
  162.4110  210.6870  155.2120 C   0  0  0  0  0  3  0  0  0  0  0  0
  163.1050  210.6360  156.4180 C   0  0  0  0  0  3  0  0  0  0  0  0
  162.0570  208.6060  156.9590 N   0  0  0  0  0  0  0  0  0  0  0  0
  161.3560  208.6090  155.7950 C   0  0  0  0  0  3  0  0  0  0  0  0
  1 12  1  0  0  0  0
  2  6  1  6  0  0  0
  2 12  1  0  0  0  0
  4 14  1  0  0  0  0
  5  9  1  0  0  0  0
  5 13  2  0  0  0  0
  7  4  1  0  0  0  0
  8 10  2  0  0  0  0
  8 17  1  0  0  0  0
  9  7  2  0  0  0  0
 10 19  1  0  0  0  0
 11  7  1  6  0  0  0
 11 14  1  0  0  0  0
 11 16  1  0  0  0  0
 12 23  1  0  0  0  0
 13  4  1  0  0  0  0
 14 18  1  6  0  0  0
 15  1  1  0  0  0  0
 16  3  1  6  0  0  0
 16  2  1  0  0  0  0
 17 21  2  0  0  0  0
 18  6  1  0  0  0  0
 19 20  2  0  0  0  0
 20 15  1  0  0  0  0
 21 20  1  0  0  0  0
 21  3  1  0  0  0  0
 23 24  2  0  0  0  0
 23 27  1  0  0  0  0
 24 25  1  0  0  0  0
 25 22  2  0  0  0  0
 26 22  1  0  0  0  0
 27 26  2  0  0  0  0
M  END
>  <MODEL>
3

>  <REMARK>
 VINA RESULT:      -6.0      3.813      6.650
  Name = 
  1 active torsions:
  status: ('A' for Active; 'I' for Inactive)
    1  A    between atoms: C_9  and  N_15
                            x       y       z     vdW  Elec       q    Type
                         _______ _______ _______ _____ _____    ______ ____

>  <TORSDO>
F 1

$$$$
=
 OpenBabel11052423093D

 27 32  0  0  1  0  0  0  0  0999 V2000
  162.3560  210.3460  153.0660 C   0  0  0  0  0  2  0  0  0  0  0  0
  160.0960  210.5570  151.9600 C   0  0  1  0  0  3  0  0  0  0  0  0
  159.3430  209.8150  154.3970 C   0  0  0  0  0  2  0  0  0  0  0  0
  157.3260  213.4160  152.9600 N   0  0  0  0  0  0  0  0  0  0  0  0
  156.2260  214.1280  154.6000 N   0  0  0  0  0  0  0  0  0  0  0  0
  160.4410  211.9590  151.3580 C   0  0  0  0  0  2  0  0  0  0  0  0
  157.3560  212.4680  153.8900 C   0  0  0  0  0  0  0  0  0  0  0  0
  160.1850  212.1460  157.2580 C   0  0  0  0  0  3  0  0  0  0  0  0
  156.6620  212.8620  154.9940 C   0  0  0  0  0  3  0  0  0  0  0  0
  161.5810  212.1160  157.2610 C   0  0  0  0  0  3  0  0  0  0  0  0
  158.2640  211.5910  153.0710 C   0  0  1  0  0  3  0  0  0  0  0  0
  161.3010  209.7700  152.2310 N   0  0  0  0  0  0  0  0  0  0  0  0
  156.6410  214.4530  153.3550 N   0  0  0  0  0  0  0  0  0  0  0  0
  158.0730  212.5810  152.0810 C   0  0  2  0  0  3  0  0  0  0  0  0
  162.3390  209.7110  154.4480 C   0  0  0  0  0  2  0  0  0  0  0  0
  159.1450  210.6080  153.1390 C   0  0  1  0  0  3  0  0  0  0  0  0
  159.4730  211.3850  156.3300 C   0  0  0  0  0  3  0  0  0  0  0  0
  159.4730  213.1130  151.7550 C   0  0  0  0  0  2  0  0  0  0  0  0
  162.2640  211.3210  156.3380 C   0  0  0  0  0  3  0  0  0  0  0  0
  161.5590  210.5510  155.4060 C   0  0  0  0  0  0  0  0  0  0  0  0
  160.1480  210.5850  155.3990 C   0  0  0  0  0  0  0  0  0  0  0  0
  161.7270  205.9450  150.5580 N   0  0  0  0  0  0  0  0  0  0  0  0
  161.4450  208.4520  151.6630 C   0  0  0  0  0  0  0  0  0  0  0  0
  161.0790  207.3130  152.3900 C   0  0  0  0  0  3  0  0  0  0  0  0
  161.2280  206.0530  151.8170 C   0  0  0  0  0  3  0  0  0  0  0  0
  162.0780  207.0240  149.8550 N   0  0  0  0  0  0  0  0  0  0  0  0
  161.9520  208.2750  150.3700 C   0  0  0  0  0  3  0  0  0  0  0  0
  1 15  1  0  0  0  0
  2  6  1  1  0  0  0
  2 12  1  0  0  0  0
  2 16  1  0  0  0  0
  3 21  1  0  0  0  0
  4 13  1  0  0  0  0
  4  7  1  0  0  0  0
  5  9  1  0  0  0  0
  6 18  1  0  0  0  0
  7  9  2  0  0  0  0
  8 10  1  0  0  0  0
 11 16  1  0  0  0  0
 11  7  1  1  0  0  0
 12  1  1  0  0  0  0
 13  5  2  0  0  0  0
 14 18  1  1  0  0  0
 14  4  1  0  0  0  0
 14 11  1  0  0  0  0
 15 20  1  0  0  0  0
 16  3  1  1  0  0  0
 17  8  2  0  0  0  0
 19 10  2  0  0  0  0
 20 19  1  0  0  0  0
 21 20  2  0  0  0  0
 21 17  1  0  0  0  0
 22 25  1  0  0  0  0
 23 12  1  0  0  0  0
 23 24  1  0  0  0  0
 25 24  2  0  0  0  0
 26 27  1  0  0  0  0
 26 22  2  0  0  0  0
 27 23  2  0  0  0  0
M  END
>  <MODEL>
4

>  <REMARK>
 VINA RESULT:      -4.2      3.057      8.757
  Name = 
  1 active torsions:
  status: ('A' for Active; 'I' for Inactive)
    1  A    between atoms: C_9  and  N_15
                            x       y       z     vdW  Elec       q    Type
                         _______ _______ _______ _____ _____    ______ ____

>  <TORSDO>
F 1

$$$$
=
 OpenBabel11052423093D

 27 32  0  0  1  0  0  0  0  0999 V2000
  159.0110  213.7480  153.2790 C   0  0  0  0  0  2  0  0  0  0  0  0
  158.5190  212.4010  155.3570 C   0  0  1  0  0  3  0  0  0  0  0  0
  158.4020  210.4770  153.5290 C   0  0  0  0  0  2  0  0  0  0  0  0
  161.0490  209.5500  156.8810 N   0  0  0  0  0  0  0  0  0  0  0  0
  162.0150  207.7650  156.3480 N   0  0  0  0  0  0  0  0  0  0  0  0
  159.7230  213.0260  156.1360 C   0  0  0  0  0  2  0  0  0  0  0  0
  160.4300  209.0790  155.8040 C   0  0  0  0  0  0  0  0  0  0  0  0
  161.5670  209.7280  151.5930 C   0  0  0  0  0  3  0  0  0  0  0  0
  161.0070  207.9150  155.3950 C   0  0  0  0  0  3  0  0  0  0  0  0
  161.7690  210.9170  150.8890 C   0  0  0  0  0  3  0  0  0  0  0  0
  159.5140  210.2710  155.7190 C   0  0  1  0  0  3  0  0  0  0  0  0
  158.0530  213.2770  154.2800 N   0  0  0  0  0  0  0  0  0  0  0  0
  162.0290  208.7720  157.2490 N   0  0  0  0  0  0  0  0  0  0  0  0
  160.1290  210.6370  156.9370 C   0  0  2  0  0  3  0  0  0  0  0  0
  158.8100  213.0040  151.9680 C   0  0  0  0  0  2  0  0  0  0  0  0
  158.7520  210.9750  154.9000 C   0  0  1  0  0  3  0  0  0  0  0  0
  160.4630  209.5970  152.4370 C   0  0  0  0  0  3  0  0  0  0  0  0
  160.7670  212.0070  156.6820 C   0  0  0  0  0  2  0  0  0  0  0  0
  160.8640  211.9720  151.0250 C   0  0  0  0  0  3  0  0  0  0  0  0
  159.7520  211.8480  151.8660 C   0  0  0  0  0  0  0  0  0  0  0  0
  159.5510  210.6500  152.5820 C   0  0  0  0  0  0  0  0  0  0  0  0
  154.0270  214.4520  154.1440 N   0  0  0  0  0  0  0  0  0  0  0  0
  156.6690  213.6810  154.2250 C   0  0  0  0  0  0  0  0  0  0  0  0
  156.0040  213.7980  152.9990 C   0  0  0  0  0  3  0  0  0  0  0  0
  154.6680  214.1880  152.9760 C   0  0  0  0  0  3  0  0  0  0  0  0
  154.6510  214.3420  155.3180 N   0  0  0  0  0  0  0  0  0  0  0  0
  155.9540  213.9650  155.3950 C   0  0  0  0  0  3  0  0  0  0  0  0
  1 12  1  0  0  0  0
  2  6  1  6  0  0  0
  4 14  1  0  0  0  0
  4 13  1  0  0  0  0
  5 13  2  0  0  0  0
  6 18  1  0  0  0  0
  7  4  1  0  0  0  0
  8 17  1  0  0  0  0
  9  7  2  0  0  0  0
  9  5  1  0  0  0  0
 10 19  1  0  0  0  0
 10  8  2  0  0  0  0
 11  7  1  6  0  0  0
 11 14  1  0  0  0  0
 12  2  1  0  0  0  0
 14 18  1  6  0  0  0
 15  1  1  0  0  0  0
 16  3  1  6  0  0  0
 16  2  1  0  0  0  0
 16 11  1  0  0  0  0
 17 21  2  0  0  0  0
 19 20  2  0  0  0  0
 20 15  1  0  0  0  0
 20 21  1  0  0  0  0
 21  3  1  0  0  0  0
 22 26  1  0  0  0  0
 23 12  1  0  0  0  0
 23 27  1  0  0  0  0
 24 23  2  0  0  0  0
 25 24  1  0  0  0  0
 25 22  2  0  0  0  0
 26 27  2  0  0  0  0
M  END
>  <MODEL>
5

>  <REMARK>
 VINA RESULT:      -3.7      5.358      7.719
  Name = 
  1 active torsions:
  status: ('A' for Active; 'I' for Inactive)
    1  A    between atoms: C_9  and  N_15
                            x       y       z     vdW  Elec       q    Type
                         _______ _______ _______ _____ _____    ______ ____

>  <TORSDO>
F 1

$$$$
