=
 OpenBabel11052422183D

 25 27  0  0  1  0  0  0  0  0999 V2000
  161.2100  207.7070  152.1320 C   0  0  0  0  0  0  0  0  0  0  0  0
  161.1160  206.7500  151.0960 C   0  0  0  0  0  0  0  0  0  0  0  0
  161.3130  205.9100  153.7670 C   0  0  0  0  0  3  0  0  0  0  0  0
  161.2310  204.9620  152.7480 C   0  0  0  0  0  3  0  0  0  0  0  0
  161.0280  204.4120  150.3860 C   0  0  0  0  0  0  0  0  0  0  0  0
  161.0390  203.0520  150.6740 O   0  0  0  0  0  1  0  0  0  0  0  0
  160.9970  207.1410  149.7530 C   0  0  0  0  0  3  0  0  0  0  0  0
  161.2970  207.2710  153.4610 C   0  0  0  0  0  3  0  0  0  0  0  0
  160.9110  204.8260  149.0570 C   0  0  0  0  0  3  0  0  0  0  0  0
  160.8990  206.1860  148.7400 C   0  0  0  0  0  0  0  0  0  0  0  0
  161.1290  205.3670  151.4110 C   0  0  0  0  0  0  0  0  0  0  0  0
  161.1650  209.1920  151.8650 C   0  0  0  0  0  0  0  0  0  0  0  0
  162.4460  209.8860  152.2870 C   0  0  0  0  0  2  0  0  0  0  0  0
  162.0640  209.8320  150.8210 C   0  0  0  0  0  2  0  0  0  0  0  0
  159.9920  209.9600  152.3010 N   0  0  0  0  0  2  0  0  0  0  0  0
  159.7170  210.3220  154.7430 C   0  0  0  0  0  1  0  0  0  0  0  0
  160.2630  210.8590  153.4310 C   0  0  0  0  0  3  0  0  0  0  0  0
  159.8180  212.2920  153.1770 C   0  0  0  0  0  1  0  0  0  0  0  0
  160.7460  206.6210  147.3250 C   0  0  0  0  0  2  0  0  0  0  0  0
  161.8220  205.9730  146.4600 C   0  0  0  0  0  2  0  0  0  0  0  0
  161.2300  205.0270  145.4210 C   0  0  1  0  0  3  0  0  0  0  0  0
  161.3980  205.5490  144.1360 O   0  0  0  0  0  1  0  0  0  0  0  0
  161.8540  203.6440  145.5210 C   0  0  0  0  0  2  0  0  0  0  0  0
  160.7750  202.5780  145.4990 C   0  0  0  0  0  2  0  0  0  0  0  0
  160.8440  201.7640  146.7740 C   0  0  0  0  0  1  0  0  0  0  0  0
  1  8  1  0  0  0  0
  2 11  1  0  0  0  0
  2  1  2  0  0  0  0
  4  3  1  0  0  0  0
  5  6  1  0  0  0  0
  5 11  1  0  0  0  0
  7  2  1  0  0  0  0
  8  3  2  0  0  0  0
  9  5  2  0  0  0  0
 10  9  1  0  0  0  0
 10  7  2  0  0  0  0
 11  4  2  0  0  0  0
 12  1  1  0  0  0  0
 12 13  1  0  0  0  0
 12 15  1  0  0  0  0
 14 12  1  0  0  0  0
 14 13  1  0  0  0  0
 15 17  1  0  0  0  0
 17 16  1  0  0  0  0
 18 17  1  0  0  0  0
 19 10  1  0  0  0  0
 20 19  1  0  0  0  0
 21 22  1  6  0  0  0
 21 23  1  0  0  0  0
 21 20  1  0  0  0  0
 24 23  1  0  0  0  0
 24 25  1  0  0  0  0
M  END
>  <MODEL>
1

>  <REMARK>
 VINA RESULT:      -8.3      0.000      0.000
  Name = 
  8 active torsions:
  status: ('A' for Active; 'I' for Inactive)
    1  A    between atoms: C_1  and  C_5
    2  A    between atoms: C_2  and  C_7
    3  A    between atoms: C_2  and  C_21
    4  A    between atoms: C_5  and  N_10
    5  A    between atoms: C_6  and  C_15
    6  A    between atoms: C_6  and  C_23
    7  A    between atoms: N_10  and  C_11
    8  A    between atoms: C_15  and  C_21
                            x       y       z     vdW  Elec       q    Type
                         _______ _______ _______ _____ _____    ______ ____

>  <TORSDO>
F 8

$$$$
=
 OpenBabel11052422183D

 25 27  0  0  1  0  0  0  0  0999 V2000
  160.9730  202.3810  147.8390 C   0  0  0  0  0  0  0  0  0  0  0  0
  160.9420  203.3180  148.8970 C   0  0  0  0  0  0  0  0  0  0  0  0
  161.0500  200.5710  149.4610 C   0  0  0  0  0  3  0  0  0  0  0  0
  161.0100  201.4920  150.5080 C   0  0  0  0  0  3  0  0  0  0  0  0
  160.9370  203.7940  151.2950 C   0  0  0  0  0  0  0  0  0  0  0  0
  160.9530  203.3690  152.6190 O   0  0  0  0  0  1  0  0  0  0  0  0
  160.9080  204.6990  148.6440 C   0  0  0  0  0  3  0  0  0  0  0  0
  161.0370  201.0130  148.1380 C   0  0  0  0  0  3  0  0  0  0  0  0
  160.9030  205.1620  151.0180 C   0  0  0  0  0  3  0  0  0  0  0  0
  160.8850  205.6150  149.6970 C   0  0  0  0  0  0  0  0  0  0  0  0
  160.9590  202.8650  150.2410 C   0  0  0  0  0  0  0  0  0  0  0  0
  160.9940  202.8000  146.3890 C   0  0  0  0  0  0  0  0  0  0  0  0
  160.8280  201.6200  145.4510 C   0  0  0  0  0  2  0  0  0  0  0  0
  159.7540  202.6880  145.5180 C   0  0  0  0  0  2  0  0  0  0  0  0
  162.0640  203.6890  145.9200 N   0  0  0  0  0  2  0  0  0  0  0  0
  161.4300  205.2550  144.0990 C   0  0  0  0  0  1  0  0  0  0  0  0
  161.6030  205.0450  145.5940 C   0  0  0  0  0  3  0  0  0  0  0  0
  162.4570  206.1360  146.2230 C   0  0  0  0  0  1  0  0  0  0  0  0
  160.8750  207.0750  149.4090 C   0  0  0  0  0  2  0  0  0  0  0  0
  162.2250  207.6870  149.7670 C   0  0  0  0  0  2  0  0  0  0  0  0
  162.0920  208.8090  150.7900 C   0  0  1  0  0  3  0  0  0  0  0  0
  162.0280  210.0490  150.1490 O   0  0  0  0  0  1  0  0  0  0  0  0
  160.8720  208.6020  151.6750 C   0  0  0  0  0  2  0  0  0  0  0  0
  161.2640  208.6810  153.1370 C   0  0  0  0  0  2  0  0  0  0  0  0
  160.9170  207.3780  153.8240 C   0  0  0  0  0  1  0  0  0  0  0  0
  1  8  2  0  0  0  0
  1  2  1  0  0  0  0
  2 11  1  0  0  0  0
  3  4  2  0  0  0  0
  5  6  1  0  0  0  0
  7  2  2  0  0  0  0
  7 10  1  0  0  0  0
  8  3  1  0  0  0  0
  9  5  1  0  0  0  0
 10  9  2  0  0  0  0
 11  4  1  0  0  0  0
 11  5  2  0  0  0  0
 12  1  1  0  0  0  0
 13 14  1  0  0  0  0
 13 12  1  0  0  0  0
 14 12  1  0  0  0  0
 15 12  1  0  0  0  0
 16 17  1  0  0  0  0
 17 15  1  0  0  0  0
 17 18  1  0  0  0  0
 19 10  1  0  0  0  0
 19 20  1  0  0  0  0
 20 21  1  0  0  0  0
 21 22  1  6  0  0  0
 21 23  1  0  0  0  0
 23 24  1  0  0  0  0
 24 25  1  0  0  0  0
M  END
>  <MODEL>
2

>  <REMARK>
 VINA RESULT:      -7.5      2.829      7.127
  Name = 
  8 active torsions:
  status: ('A' for Active; 'I' for Inactive)
    1  A    between atoms: C_1  and  C_5
    2  A    between atoms: C_2  and  C_7
    3  A    between atoms: C_2  and  C_21
    4  A    between atoms: C_5  and  N_10
    5  A    between atoms: C_6  and  C_15
    6  A    between atoms: C_6  and  C_23
    7  A    between atoms: N_10  and  C_11
    8  A    between atoms: C_15  and  C_21
                            x       y       z     vdW  Elec       q    Type
                         _______ _______ _______ _____ _____    ______ ____

>  <TORSDO>
F 8

$$$$
=
 OpenBabel11052422183D

 25 27  0  0  1  0  0  0  0  0999 V2000
  161.3710  204.1280  148.1070 C   0  0  0  0  0  0  0  0  0  0  0  0
  161.3000  204.4660  149.4780 C   0  0  0  0  0  0  0  0  0  0  0  0
  160.8030  201.8280  148.6580 C   0  0  0  0  0  3  0  0  0  0  0  0
  160.7220  202.1600  150.0110 C   0  0  0  0  0  3  0  0  0  0  0  0
  160.9060  203.8010  151.7980 C   0  0  0  0  0  0  0  0  0  0  0  0
  160.5850  202.8390  152.7500 O   0  0  0  0  0  1  0  0  0  0  0  0
  161.5620  205.7730  149.9200 C   0  0  0  0  0  3  0  0  0  0  0  0
  161.1300  202.8040  147.7160 C   0  0  0  0  0  3  0  0  0  0  0  0
  161.1720  205.1080  152.2120 C   0  0  0  0  0  3  0  0  0  0  0  0
  161.4950  206.0930  151.2760 C   0  0  0  0  0  0  0  0  0  0  0  0
  160.9700  203.4710  150.4340 C   0  0  0  0  0  0  0  0  0  0  0  0
  161.7510  205.1320  147.0470 C   0  0  0  0  0  0  0  0  0  0  0  0
  160.8180  206.3270  147.0320 C   0  0  0  0  0  2  0  0  0  0  0  0
  162.2720  206.5110  147.4180 C   0  0  0  0  0  2  0  0  0  0  0  0
  162.0140  204.6620  145.6810 N   0  0  0  0  0  2  0  0  0  0  0  0
  160.0770  203.6900  144.4680 C   0  0  0  0  0  1  0  0  0  0  0  0
  160.9120  204.9270  144.7460 C   0  0  0  0  0  3  0  0  0  0  0  0
  161.3660  205.6030  143.4600 C   0  0  0  0  0  1  0  0  0  0  0  0
  161.8030  207.4780  151.7270 C   0  0  0  0  0  2  0  0  0  0  0  0
  160.7240  207.9670  152.6870 C   0  0  0  0  0  2  0  0  0  0  0  0
  161.1840  209.1710  153.5010 C   0  0  1  0  0  3  0  0  0  0  0  0
  160.3800  210.2800  153.2280 O   0  0  0  0  0  1  0  0  0  0  0  0
  161.1770  208.8590  154.9900 C   0  0  0  0  0  2  0  0  0  0  0  0
  160.8570  207.3950  155.2190 C   0  0  0  0  0  2  0  0  0  0  0  0
  159.7340  207.2750  156.2270 C   0  0  0  0  0  1  0  0  0  0  0  0
  1  2  1  0  0  0  0
  2  7  2  0  0  0  0
  2 11  1  0  0  0  0
  3  4  2  0  0  0  0
  4 11  1  0  0  0  0
  5  9  1  0  0  0  0
  5  6  1  0  0  0  0
  7 10  1  0  0  0  0
  8  1  2  0  0  0  0
  8  3  1  0  0  0  0
 10 19  1  0  0  0  0
 10  9  2  0  0  0  0
 11  5  2  0  0  0  0
 12 14  1  0  0  0  0
 12  1  1  0  0  0  0
 13 12  1  0  0  0  0
 13 14  1  0  0  0  0
 15 12  1  0  0  0  0
 16 17  1  0  0  0  0
 17 15  1  0  0  0  0
 18 17  1  0  0  0  0
 19 20  1  0  0  0  0
 20 21  1  0  0  0  0
 21 22  1  1  0  0  0
 21 23  1  0  0  0  0
 23 24  1  0  0  0  0
 24 25  1  0  0  0  0
M  END
>  <MODEL>
3

>  <REMARK>
 VINA RESULT:      -7.5      2.945      7.410
  Name = 
  8 active torsions:
  status: ('A' for Active; 'I' for Inactive)
    1  A    between atoms: C_1  and  C_5
    2  A    between atoms: C_2  and  C_7
    3  A    between atoms: C_2  and  C_21
    4  A    between atoms: C_5  and  N_10
    5  A    between atoms: C_6  and  C_15
    6  A    between atoms: C_6  and  C_23
    7  A    between atoms: N_10  and  C_11
    8  A    between atoms: C_15  and  C_21
                            x       y       z     vdW  Elec       q    Type
                         _______ _______ _______ _____ _____    ______ ____

>  <TORSDO>
F 8

$$$$
=
 OpenBabel11052422183D

 25 27  0  0  1  0  0  0  0  0999 V2000
  161.4150  204.2050  148.1860 C   0  0  0  0  0  0  0  0  0  0  0  0
  161.2430  204.5180  149.5550 C   0  0  0  0  0  0  0  0  0  0  0  0
  161.0400  201.8550  148.6900 C   0  0  0  0  0  3  0  0  0  0  0  0
  160.8590  202.1610  150.0390 C   0  0  0  0  0  3  0  0  0  0  0  0
  160.7960  203.7900  151.8450 C   0  0  0  0  0  0  0  0  0  0  0  0
  160.5190  202.7910  152.7720 O   0  0  0  0  0  1  0  0  0  0  0  0
  161.3580  205.8370  150.0180 C   0  0  0  0  0  3  0  0  0  0  0  0
  161.3210  202.8690  147.7730 C   0  0  0  0  0  3  0  0  0  0  0  0
  160.9160  205.1110  152.2830 C   0  0  0  0  0  3  0  0  0  0  0  0
  161.1920  206.1340  151.3720 C   0  0  0  0  0  0  0  0  0  0  0  0
  160.9600  203.4840  150.4840 C   0  0  0  0  0  0  0  0  0  0  0  0
  161.7530  205.2530  147.1550 C   0  0  0  0  0  0  0  0  0  0  0  0
  160.7260  206.3690  147.1190 C   0  0  0  0  0  2  0  0  0  0  0  0
  162.1450  206.6630  147.5640 C   0  0  0  0  0  2  0  0  0  0  0  0
  162.1040  204.8280  145.7940 N   0  0  0  0  0  2  0  0  0  0  0  0
  160.2520  203.7020  144.5810 C   0  0  0  0  0  1  0  0  0  0  0  0
  161.0120  204.9940  144.8250 C   0  0  0  0  0  3  0  0  0  0  0  0
  161.4590  205.6420  143.5230 C   0  0  0  0  0  1  0  0  0  0  0  0
  161.3440  207.5350  151.8490 C   0  0  0  0  0  2  0  0  0  0  0  0
  162.2040  208.3290  150.8720 C   0  0  0  0  0  2  0  0  0  0  0  0
  162.3260  209.7940  151.2750 C   0  0  1  0  0  3  0  0  0  0  0  0
  162.0110  210.6250  150.1960 O   0  0  0  0  0  1  0  0  0  0  0  0
  161.4370  210.1090  152.4680 C   0  0  0  0  0  2  0  0  0  0  0  0
  160.5310  211.2840  152.1530 C   0  0  0  0  0  2  0  0  0  0  0  0
  159.2050  211.1010  152.8600 C   0  0  0  0  0  1  0  0  0  0  0  0
  1  2  1  0  0  0  0
  2  7  2  0  0  0  0
  2 11  1  0  0  0  0
  3  4  2  0  0  0  0
  4 11  1  0  0  0  0
  5  9  1  0  0  0  0
  5  6  1  0  0  0  0
  7 10  1  0  0  0  0
  8  1  2  0  0  0  0
  8  3  1  0  0  0  0
 10 19  1  0  0  0  0
 10  9  2  0  0  0  0
 11  5  2  0  0  0  0
 12 14  1  0  0  0  0
 12  1  1  0  0  0  0
 13 12  1  0  0  0  0
 13 14  1  0  0  0  0
 15 12  1  0  0  0  0
 16 17  1  0  0  0  0
 17 15  1  0  0  0  0
 18 17  1  0  0  0  0
 20 21  1  0  0  0  0
 20 19  1  0  0  0  0
 21 22  1  6  0  0  0
 21 23  1  0  0  0  0
 24 23  1  0  0  0  0
 24 25  1  0  0  0  0
M  END
>  <MODEL>
4

>  <REMARK>
 VINA RESULT:      -7.4      2.629      7.075
  Name = 
  8 active torsions:
  status: ('A' for Active; 'I' for Inactive)
    1  A    between atoms: C_1  and  C_5
    2  A    between atoms: C_2  and  C_7
    3  A    between atoms: C_2  and  C_21
    4  A    between atoms: C_5  and  N_10
    5  A    between atoms: C_6  and  C_15
    6  A    between atoms: C_6  and  C_23
    7  A    between atoms: N_10  and  C_11
    8  A    between atoms: C_15  and  C_21
                            x       y       z     vdW  Elec       q    Type
                         _______ _______ _______ _____ _____    ______ ____

>  <TORSDO>
F 8

$$$$
=
 OpenBabel11052422183D

 25 27  0  0  1  0  0  0  0  0999 V2000
  161.4510  208.1000  150.5980 C   0  0  0  0  0  0  0  0  0  0  0  0
  161.3120  207.0870  151.5740 C   0  0  0  0  0  0  0  0  0  0  0  0
  161.0950  209.7860  152.3150 C   0  0  0  0  0  3  0  0  0  0  0  0
  160.9680  208.7900  153.2830 C   0  0  0  0  0  3  0  0  0  0  0  0
  160.9250  206.4360  153.8980 C   0  0  0  0  0  0  0  0  0  0  0  0
  160.6880  206.7620  155.2300 O   0  0  0  0  0  1  0  0  0  0  0  0
  161.3960  205.7290  151.2300 C   0  0  0  0  0  3  0  0  0  0  0  0
  161.3290  209.4430  150.9830 C   0  0  0  0  0  3  0  0  0  0  0  0
  161.0130  205.0920  153.5310 C   0  0  0  0  0  3  0  0  0  0  0  0
  161.2510  204.7370  152.2010 C   0  0  0  0  0  0  0  0  0  0  0  0
  161.0710  207.4400  152.9270 C   0  0  0  0  0  0  0  0  0  0  0  0
  161.6720  207.7890  149.1380 C   0  0  0  0  0  0  0  0  0  0  0  0
  161.9530  209.0380  148.3250 C   0  0  0  0  0  2  0  0  0  0  0  0
  163.0310  207.9850  148.4870 C   0  0  0  0  0  2  0  0  0  0  0  0
  160.7140  206.9220  148.4410 N   0  0  0  0  0  2  0  0  0  0  0  0
  160.3650  206.3450  146.0500 C   0  0  0  0  0  1  0  0  0  0  0  0
  161.2770  206.2510  147.2610 C   0  0  0  0  0  3  0  0  0  0  0  0
  161.7070  204.8170  147.5350 C   0  0  0  0  0  1  0  0  0  0  0  0
  161.3170  203.3030  151.8120 C   0  0  0  0  0  2  0  0  0  0  0  0
  160.5280  203.0730  150.5280 C   0  0  0  0  0  2  0  0  0  0  0  0
  161.0910  201.9180  149.7070 C   0  0  1  0  0  3  0  0  0  0  0  0
  161.1700  200.7600  150.4850 O   0  0  0  0  0  1  0  0  0  0  0  0
  160.2520  201.6700  148.4640 C   0  0  0  0  0  2  0  0  0  0  0  0
  161.0960  201.0300  147.3790 C   0  0  0  0  0  2  0  0  0  0  0  0
  160.6470  201.5380  146.0250 C   0  0  0  0  0  1  0  0  0  0  0  0
  1  8  2  0  0  0  0
  1  2  1  0  0  0  0
  2 11  1  0  0  0  0
  3  4  2  0  0  0  0
  5  6  1  0  0  0  0
  7  2  2  0  0  0  0
  7 10  1  0  0  0  0
  8  3  1  0  0  0  0
  9  5  1  0  0  0  0
 10  9  2  0  0  0  0
 11  4  1  0  0  0  0
 11  5  2  0  0  0  0
 12  1  1  0  0  0  0
 13 14  1  0  0  0  0
 13 12  1  0  0  0  0
 14 12  1  0  0  0  0
 15 12  1  0  0  0  0
 16 17  1  0  0  0  0
 17 18  1  0  0  0  0
 17 15  1  0  0  0  0
 19 10  1  0  0  0  0
 20 19  1  0  0  0  0
 21 22  1  1  0  0  0
 21 20  1  0  0  0  0
 23 21  1  0  0  0  0
 24 23  1  0  0  0  0
 25 24  1  0  0  0  0
M  END
>  <MODEL>
5

>  <REMARK>
 VINA RESULT:      -7.3      2.341      4.971
  Name = 
  8 active torsions:
  status: ('A' for Active; 'I' for Inactive)
    1  A    between atoms: C_1  and  C_5
    2  A    between atoms: C_2  and  C_7
    3  A    between atoms: C_2  and  C_21
    4  A    between atoms: C_5  and  N_10
    5  A    between atoms: C_6  and  C_15
    6  A    between atoms: C_6  and  C_23
    7  A    between atoms: N_10  and  C_11
    8  A    between atoms: C_15  and  C_21
                            x       y       z     vdW  Elec       q    Type
                         _______ _______ _______ _____ _____    ______ ____

>  <TORSDO>
F 8

$$$$
=
 OpenBabel11052422183D

 25 27  0  0  1  0  0  0  0  0999 V2000
  161.3200  204.8460  148.9780 C   0  0  0  0  0  0  0  0  0  0  0  0
  161.3650  205.5200  150.2200 C   0  0  0  0  0  0  0  0  0  0  0  0
  160.8750  202.7580  150.1410 C   0  0  0  0  0  3  0  0  0  0  0  0
  160.9080  203.4200  151.3680 C   0  0  0  0  0  3  0  0  0  0  0  0
  161.2050  205.4620  152.6590 C   0  0  0  0  0  0  0  0  0  0  0  0
  161.0010  204.7700  153.8490 O   0  0  0  0  0  1  0  0  0  0  0  0
  161.6270  206.8970  150.2910 C   0  0  0  0  0  3  0  0  0  0  0  0
  161.0850  203.4650  148.9570 C   0  0  0  0  0  3  0  0  0  0  0  0
  161.4670  206.8330  152.7040 C   0  0  0  0  0  3  0  0  0  0  0  0
  161.6740  207.5510  151.5240 C   0  0  0  0  0  0  0  0  0  0  0  0
  161.1540  204.7970  151.4220 C   0  0  0  0  0  0  0  0  0  0  0  0
  161.5720  205.5520  147.6680 C   0  0  0  0  0  0  0  0  0  0  0  0
  160.3680  206.3550  147.2120 C   0  0  0  0  0  2  0  0  0  0  0  0
  161.6510  207.0670  147.5910 C   0  0  0  0  0  2  0  0  0  0  0  0
  162.1430  204.7940  146.5480 N   0  0  0  0  0  2  0  0  0  0  0  0
  161.0140  202.9590  145.3120 C   0  0  0  0  0  1  0  0  0  0  0  0
  161.1650  204.4580  145.5040 C   0  0  0  0  0  3  0  0  0  0  0  0
  161.4250  205.1730  144.1860 C   0  0  0  0  0  1  0  0  0  0  0  0
  161.9800  209.0060  151.5800 C   0  0  0  0  0  2  0  0  0  0  0  0
  160.8500  209.7500  152.2820 C   0  0  0  0  0  2  0  0  0  0  0  0
  161.3620  210.6410  153.4080 C   0  0  1  0  0  3  0  0  0  0  0  0
  160.5300  211.7520  153.5690 O   0  0  0  0  0  1  0  0  0  0  0  0
  161.4750  209.8650  154.7120 C   0  0  0  0  0  2  0  0  0  0  0  0
  160.0970  209.6120  155.2930 C   0  0  0  0  0  2  0  0  0  0  0  0
  160.0150  208.1870  155.7950 C   0  0  0  0  0  1  0  0  0  0  0  0
  1  2  1  0  0  0  0
  2  7  2  0  0  0  0
  2 11  1  0  0  0  0
  3  4  2  0  0  0  0
  4 11  1  0  0  0  0
  5  9  1  0  0  0  0
  5  6  1  0  0  0  0
  7 10  1  0  0  0  0
  8  1  2  0  0  0  0
  8  3  1  0  0  0  0
 10 19  1  0  0  0  0
 10  9  2  0  0  0  0
 11  5  2  0  0  0  0
 12  1  1  0  0  0  0
 13 14  1  0  0  0  0
 13 12  1  0  0  0  0
 14 12  1  0  0  0  0
 15 12  1  0  0  0  0
 16 17  1  0  0  0  0
 17 15  1  0  0  0  0
 18 17  1  0  0  0  0
 19 20  1  0  0  0  0
 20 21  1  0  0  0  0
 21 22  1  1  0  0  0
 21 23  1  0  0  0  0
 23 24  1  0  0  0  0
 24 25  1  0  0  0  0
M  END
>  <MODEL>
6

>  <REMARK>
 VINA RESULT:      -7.3      2.821      7.380
  Name = 
  8 active torsions:
  status: ('A' for Active; 'I' for Inactive)
    1  A    between atoms: C_1  and  C_5
    2  A    between atoms: C_2  and  C_7
    3  A    between atoms: C_2  and  C_21
    4  A    between atoms: C_5  and  N_10
    5  A    between atoms: C_6  and  C_15
    6  A    between atoms: C_6  and  C_23
    7  A    between atoms: N_10  and  C_11
    8  A    between atoms: C_15  and  C_21
                            x       y       z     vdW  Elec       q    Type
                         _______ _______ _______ _____ _____    ______ ____

>  <TORSDO>
F 8

$$$$
=
 OpenBabel11052422183D

 25 27  0  0  1  0  0  0  0  0999 V2000
  161.3420  204.0230  148.0990 C   0  0  0  0  0  0  0  0  0  0  0  0
  161.2150  204.3510  149.4690 C   0  0  0  0  0  0  0  0  0  0  0  0
  160.8720  201.6960  148.6260 C   0  0  0  0  0  3  0  0  0  0  0  0
  160.7350  202.0160  149.9760 C   0  0  0  0  0  3  0  0  0  0  0  0
  160.7870  203.6560  151.7730 C   0  0  0  0  0  0  0  0  0  0  0  0
  160.4850  202.6760  152.7120 O   0  0  0  0  0  1  0  0  0  0  0  0
  161.4000  205.6660  149.9220 C   0  0  0  0  0  3  0  0  0  0  0  0
  161.1780  202.6900  147.6970 C   0  0  0  0  0  3  0  0  0  0  0  0
  160.9760  204.9730  152.1990 C   0  0  0  0  0  3  0  0  0  0  0  0
  161.2780  205.9770  151.2770 C   0  0  0  0  0  0  0  0  0  0  0  0
  160.9060  203.3360  150.4110 C   0  0  0  0  0  0  0  0  0  0  0  0
  161.7040  205.0500  147.0540 C   0  0  0  0  0  0  0  0  0  0  0  0
  160.7510  206.2290  147.0590 C   0  0  0  0  0  2  0  0  0  0  0  0
  162.2030  206.4300  147.4450 C   0  0  0  0  0  2  0  0  0  0  0  0
  161.9710  204.6050  145.6800 N   0  0  0  0  0  2  0  0  0  0  0  0
  160.0160  203.6950  144.4470 C   0  0  0  0  0  1  0  0  0  0  0  0
  160.8820  204.9070  144.7410 C   0  0  0  0  0  3  0  0  0  0  0  0
  161.3620  205.5830  143.4650 C   0  0  0  0  0  1  0  0  0  0  0  0
  161.5040  207.3730  151.7410 C   0  0  0  0  0  2  0  0  0  0  0  0
  162.3550  208.1290  150.7270 C   0  0  0  0  0  2  0  0  0  0  0  0
  161.9370  209.5910  150.6060 C   0  0  1  0  0  3  0  0  0  0  0  0
  162.6150  210.3710  151.5450 O   0  0  0  0  0  1  0  0  0  0  0  0
  162.1840  210.1150  149.1990 C   0  0  0  0  0  2  0  0  0  0  0  0
  161.9770  211.6160  149.1540 C   0  0  0  0  0  2  0  0  0  0  0  0
  162.7760  212.2020  148.0100 C   0  0  0  0  0  1  0  0  0  0  0  0
  1  2  1  0  0  0  0
  2  7  2  0  0  0  0
  2 11  1  0  0  0  0
  3  4  2  0  0  0  0
  4 11  1  0  0  0  0
  5  9  1  0  0  0  0
  5  6  1  0  0  0  0
  7 10  1  0  0  0  0
  8  1  2  0  0  0  0
  8  3  1  0  0  0  0
 10 19  1  0  0  0  0
 10  9  2  0  0  0  0
 11  5  2  0  0  0  0
 12 13  1  0  0  0  0
 12 14  1  0  0  0  0
 12  1  1  0  0  0  0
 13 14  1  0  0  0  0
 15 12  1  0  0  0  0
 16 17  1  0  0  0  0
 17 15  1  0  0  0  0
 18 17  1  0  0  0  0
 20 19  1  0  0  0  0
 21 20  1  0  0  0  0
 21 22  1  1  0  0  0
 23 21  1  0  0  0  0
 24 23  1  0  0  0  0
 25 24  1  0  0  0  0
M  END
>  <MODEL>
7

>  <REMARK>
 VINA RESULT:      -7.3      3.110      6.955
  Name = 
  8 active torsions:
  status: ('A' for Active; 'I' for Inactive)
    1  A    between atoms: C_1  and  C_5
    2  A    between atoms: C_2  and  C_7
    3  A    between atoms: C_2  and  C_21
    4  A    between atoms: C_5  and  N_10
    5  A    between atoms: C_6  and  C_15
    6  A    between atoms: C_6  and  C_23
    7  A    between atoms: N_10  and  C_11
    8  A    between atoms: C_15  and  C_21
                            x       y       z     vdW  Elec       q    Type
                         _______ _______ _______ _____ _____    ______ ____

>  <TORSDO>
F 8

$$$$
=
 OpenBabel11052422183D

 25 27  0  0  1  0  0  0  0  0999 V2000
  161.2220  203.8230  146.9280 C   0  0  0  0  0  0  0  0  0  0  0  0
  161.0850  203.3730  148.2610 C   0  0  0  0  0  0  0  0  0  0  0  0
  161.0610  201.5250  146.1480 C   0  0  0  0  0  3  0  0  0  0  0  0
  160.9160  201.0780  147.4610 C   0  0  0  0  0  3  0  0  0  0  0  0
  160.8010  201.5350  149.8480 C   0  0  0  0  0  0  0  0  0  0  0  0
  160.6460  200.1810  150.1270 O   0  0  0  0  0  1  0  0  0  0  0  0
  161.1130  204.2710  149.3390 C   0  0  0  0  0  3  0  0  0  0  0  0
  161.2180  202.8870  145.8850 C   0  0  0  0  0  3  0  0  0  0  0  0
  160.8310  202.4490  150.9040 C   0  0  0  0  0  3  0  0  0  0  0  0
  160.9830  203.8140  150.6510 C   0  0  0  0  0  0  0  0  0  0  0  0
  160.9290  201.9870  148.5240 C   0  0  0  0  0  0  0  0  0  0  0  0
  161.4270  205.2790  146.5850 C   0  0  0  0  0  0  0  0  0  0  0  0
  161.7570  205.4780  145.1190 C   0  0  0  0  0  2  0  0  0  0  0  0
  160.4580  206.0200  145.6810 C   0  0  0  0  0  2  0  0  0  0  0  0
  162.3100  206.0920  147.4300 N   0  0  0  0  0  2  0  0  0  0  0  0
  162.6630  208.2350  148.6360 C   0  0  0  0  0  1  0  0  0  0  0  0
  161.6740  207.3130  147.9430 C   0  0  0  0  0  3  0  0  0  0  0  0
  160.4560  207.0350  148.8120 C   0  0  0  0  0  1  0  0  0  0  0  0
  161.0420  204.7790  151.7820 C   0  0  0  0  0  2  0  0  0  0  0  0
  162.0380  205.8900  151.4700 C   0  0  0  0  0  2  0  0  0  0  0  0
  161.9560  207.0340  152.4750 C   0  0  1  0  0  3  0  0  0  0  0  0
  161.3370  208.1460  151.9000 O   0  0  0  0  0  1  0  0  0  0  0  0
  161.2170  206.6030  153.7340 C   0  0  0  0  0  2  0  0  0  0  0  0
  161.0380  207.7840  154.6680 C   0  0  0  0  0  2  0  0  0  0  0  0
  160.0810  207.4080  155.7780 C   0  0  0  0  0  1  0  0  0  0  0  0
  1  2  1  0  0  0  0
  2 11  2  0  0  0  0
  2  7  1  0  0  0  0
  3  4  2  0  0  0  0
  4 11  1  0  0  0  0
  5  6  1  0  0  0  0
  5  9  2  0  0  0  0
  7 10  2  0  0  0  0
  8  3  1  0  0  0  0
  8  1  2  0  0  0  0
 10  9  1  0  0  0  0
 10 19  1  0  0  0  0
 11  5  1  0  0  0  0
 12  1  1  0  0  0  0
 12 15  1  0  0  0  0
 13 14  1  0  0  0  0
 13 12  1  0  0  0  0
 14 12  1  0  0  0  0
 15 17  1  0  0  0  0
 17 16  1  0  0  0  0
 17 18  1  0  0  0  0
 20 19  1  0  0  0  0
 20 21  1  0  0  0  0
 21 22  1  6  0  0  0
 21 23  1  0  0  0  0
 23 24  1  0  0  0  0
 24 25  1  0  0  0  0
M  END
>  <MODEL>
8

>  <REMARK>
 VINA RESULT:      -7.2      2.806      6.747
  Name = 
  8 active torsions:
  status: ('A' for Active; 'I' for Inactive)
    1  A    between atoms: C_1  and  C_5
    2  A    between atoms: C_2  and  C_7
    3  A    between atoms: C_2  and  C_21
    4  A    between atoms: C_5  and  N_10
    5  A    between atoms: C_6  and  C_15
    6  A    between atoms: C_6  and  C_23
    7  A    between atoms: N_10  and  C_11
    8  A    between atoms: C_15  and  C_21
                            x       y       z     vdW  Elec       q    Type
                         _______ _______ _______ _____ _____    ______ ____

>  <TORSDO>
F 8

$$$$
=
 OpenBabel11052422183D

 25 27  0  0  1  0  0  0  0  0999 V2000
  161.7060  206.4360  148.2080 C   0  0  0  0  0  0  0  0  0  0  0  0
  161.4520  206.0890  149.5550 C   0  0  0  0  0  0  0  0  0  0  0  0
  162.0380  208.7500  148.8790 C   0  0  0  0  0  3  0  0  0  0  0  0
  161.7980  208.4100  150.2110 C   0  0  0  0  0  3  0  0  0  0  0  0
  161.2430  206.7490  151.9000 C   0  0  0  0  0  0  0  0  0  0  0  0
  161.2870  207.7140  152.9010 O   0  0  0  0  0  1  0  0  0  0  0  0
  161.1380  204.7710  149.9200 C   0  0  0  0  0  3  0  0  0  0  0  0
  161.9870  207.7710  147.8870 C   0  0  0  0  0  3  0  0  0  0  0  0
  160.9320  205.4300  152.2380 C   0  0  0  0  0  3  0  0  0  0  0  0
  160.8830  204.4420  151.2520 C   0  0  0  0  0  0  0  0  0  0  0  0
  161.5020  207.0880  150.5620 C   0  0  0  0  0  0  0  0  0  0  0  0
  161.6330  205.4270  147.0880 C   0  0  0  0  0  0  0  0  0  0  0  0
  163.0070  205.0420  146.5770 C   0  0  0  0  0  2  0  0  0  0  0  0
  162.1430  204.0080  147.2710 C   0  0  0  0  0  2  0  0  0  0  0  0
  160.7130  205.6700  145.9690 N   0  0  0  0  0  2  0  0  0  0  0  0
  161.2880  205.7230  143.5540 C   0  0  0  0  0  1  0  0  0  0  0  0
  161.0120  204.8660  144.7770 C   0  0  0  0  0  3  0  0  0  0  0  0
  159.9630  203.8000  144.4940 C   0  0  0  0  0  1  0  0  0  0  0  0
  160.5250  203.0440  151.6150 C   0  0  0  0  0  2  0  0  0  0  0  0
  161.4560  202.0660  150.9080 C   0  0  0  0  0  2  0  0  0  0  0  0
  160.7020  201.1410  149.9590 C   0  0  1  0  0  3  0  0  0  0  0  0
  159.5730  201.7850  149.4450 O   0  0  0  0  0  1  0  0  0  0  0  0
  161.6030  200.6620  148.8310 C   0  0  0  0  0  2  0  0  0  0  0  0
  160.9390  200.9020  147.4890 C   0  0  0  0  0  2  0  0  0  0  0  0
  161.3350  199.8040  146.5260 C   0  0  0  0  0  1  0  0  0  0  0  0
  1  2  1  0  0  0  0
  2  7  2  0  0  0  0
  2 11  1  0  0  0  0
  3  4  2  0  0  0  0
  4 11  1  0  0  0  0
  5  9  1  0  0  0  0
  5  6  1  0  0  0  0
  7 10  1  0  0  0  0
  8  1  2  0  0  0  0
  8  3  1  0  0  0  0
 10 19  1  0  0  0  0
 10  9  2  0  0  0  0
 11  5  2  0  0  0  0
 12 14  1  0  0  0  0
 12  1  1  0  0  0  0
 13 12  1  0  0  0  0
 13 14  1  0  0  0  0
 15 12  1  0  0  0  0
 16 17  1  0  0  0  0
 17 15  1  0  0  0  0
 18 17  1  0  0  0  0
 20 19  1  0  0  0  0
 21 22  1  6  0  0  0
 21 20  1  0  0  0  0
 23 21  1  0  0  0  0
 24 23  1  0  0  0  0
 25 24  1  0  0  0  0
M  END
>  <MODEL>
9

>  <REMARK>
 VINA RESULT:      -7.1      2.927      6.174
  Name = 
  8 active torsions:
  status: ('A' for Active; 'I' for Inactive)
    1  A    between atoms: C_1  and  C_5
    2  A    between atoms: C_2  and  C_7
    3  A    between atoms: C_2  and  C_21
    4  A    between atoms: C_5  and  N_10
    5  A    between atoms: C_6  and  C_15
    6  A    between atoms: C_6  and  C_23
    7  A    between atoms: N_10  and  C_11
    8  A    between atoms: C_15  and  C_21
                            x       y       z     vdW  Elec       q    Type
                         _______ _______ _______ _____ _____    ______ ____

>  <TORSDO>
F 8

$$$$
