=
 OpenBabel11062408213D

 32 38  0  0  1  0  0  0  0  0999 V2000
  161.0800  207.0320  151.9950 C   0  0  1  0  0  3  0  0  0  0  0  0
  160.9280  209.5110  151.9510 C   0  0  1  0  0  3  0  0  0  0  0  0
  161.6790  205.8750  152.7930 C   0  0  0  0  0  2  0  0  0  0  0  0
  161.3170  208.3200  152.7820 C   0  0  1  0  0  3  0  0  0  0  0  0
  161.2160  210.7870  152.7280 C   0  0  1  0  0  3  0  0  0  0  0  0
  161.5550  211.8760  147.7250 C   0  0  0  0  0  3  0  0  0  0  0  0
  161.8350  209.5260  150.7220 C   0  0  1  0  0  3  0  0  0  0  0  0
  160.8680  213.0660  149.7220 C   0  0  0  0  0  3  0  0  0  0  0  0
  161.1040  211.9210  150.4880 C   0  0  0  0  0  0  0  0  0  0  0  0
  161.5480  210.3170  155.1090 C   0  0  2  0  0  3  0  0  0  0  0  0
  160.4740  208.2370  154.0490 C   0  0  2  0  0  3  0  0  0  0  0  0
  160.8650  211.9410  151.9050 N   0  0  0  0  0  2  0  0  0  0  0  0
  160.2770  209.5410  154.8510 C   0  0  2  0  0  3  0  0  0  0  0  0
  160.9980  207.0940  154.9200 C   0  0  0  0  0  2  0  0  0  0  0  0
  161.7670  208.2600  149.9850 N   0  0  0  0  0  0  0  0  0  0  0  0
  161.4080  211.0800  156.4090 C   0  0  0  0  0  1  0  0  0  0  0  0
  161.5450  207.1020  150.5470 C   0  0  0  0  0  0  0  0  0  0  0  0
  161.5410  210.7310  149.8630 C   0  0  0  0  0  0  0  0  0  0  0  0
  160.5410  210.8590  154.1000 C   0  0  2  0  0  3  0  0  0  0  0  0
  160.9630  205.7670  154.1460 C   0  0  0  0  0  2  0  0  0  0  0  0
  161.0930  213.0420  148.3420 C   0  0  0  0  0  3  0  0  0  0  0  0
  161.7840  210.7250  148.4840 C   0  0  0  0  0  3  0  0  0  0  0  0
  161.6530  204.7490  147.5360 C   0  0  0  0  0  0  0  0  0  0  0  0
  161.9230  204.7610  146.1730 O   0  0  0  0  0  1  0  0  0  0  0  0
  161.4770  205.8920  149.6880 C   0  0  0  0  0  0  0  0  0  0  0  0
  161.2820  203.5490  148.1460 C   0  0  0  0  0  3  0  0  0  0  0  0
  161.1090  204.6710  150.2750 C   0  0  0  0  0  3  0  0  0  0  0  0
  161.7550  205.9260  148.2990 C   0  0  0  0  0  0  0  0  0  0  0  0
  162.2020  207.1840  147.6210 C   0  0  0  0  0  1  0  0  0  0  0  0
  161.0110  203.5040  149.5160 C   0  0  0  0  0  0  0  0  0  0  0  0
  161.0260  201.1060  149.7420 N   0  0  0  0  0  2  0  0  0  0  0  0
  160.6230  202.2540  150.1780 C   0  0  0  0  0  3  0  0  0  0  0  0
  1  4  1  0  0  0  0
  1  3  1  1  0  0  0
  2  5  1  0  0  0  0
  2  4  1  0  0  0  0
  3 20  1  0  0  0  0
  4 11  1  0  0  0  0
  5 19  1  0  0  0  0
  6 21  2  0  0  0  0
  6 22  1  0  0  0  0
  7  2  1  0  0  0  0
  8  9  2  0  0  0  0
  9 12  1  0  0  0  0
 10 16  1  0  0  0  0
 11 13  1  0  0  0  0
 11 14  1  0  0  0  0
 12  5  1  0  0  0  0
 13 10  1  0  0  0  0
 15 17  2  0  0  0  0
 15  7  1  0  0  0  0
 17  1  1  0  0  0  0
 18  9  1  0  0  0  0
 18  7  1  0  0  0  0
 19 13  1  0  0  0  0
 19 10  1  0  0  0  0
 20 14  1  0  0  0  0
 21  8  1  0  0  0  0
 22 18  2  0  0  0  0
 23 26  2  0  0  0  0
 23 28  1  0  0  0  0
 24 23  1  0  0  0  0
 25 27  1  0  0  0  0
 25 17  1  0  0  0  0
 26 30  1  0  0  0  0
 28 25  2  0  0  0  0
 29 28  1  0  0  0  0
 30 32  1  0  0  0  0
 30 27  2  0  0  0  0
 31 32  2  0  0  0  0
M  END
>  <MODEL>
1

>  <REMARK>
 VINA RESULT:      -9.9      0.000      0.000
  Name = 
  2 active torsions:
  status: ('A' for Active; 'I' for Inactive)
    1  A    between atoms: C_15  and  C_26
    2  A    between atoms: C_16  and  C_27
                            x       y       z     vdW  Elec       q    Type
                         _______ _______ _______ _____ _____    ______ ____

>  <TORSDO>
F 2

$$$$
=
 OpenBabel11062408213D

 32 38  0  0  1  0  0  0  0  0999 V2000
  161.2690  208.4590  150.0630 C   0  0  1  0  0  3  0  0  0  0  0  0
  160.9430  207.3040  152.2390 C   0  0  1  0  0  3  0  0  0  0  0  0
  162.0270  208.3480  148.7410 C   0  0  0  0  0  2  0  0  0  0  0  0
  161.4980  207.1690  150.8480 C   0  0  1  0  0  3  0  0  0  0  0  0
  161.2240  206.0320  153.0230 C   0  0  1  0  0  3  0  0  0  0  0  0
  160.9530  209.9190  156.3630 C   0  0  0  0  0  3  0  0  0  0  0  0
  161.7110  208.4300  152.9290 C   0  0  1  0  0  3  0  0  0  0  0  0
  160.4030  207.5580  156.3920 C   0  0  0  0  0  3  0  0  0  0  0  0
  160.7970  207.4470  155.0560 C   0  0  0  0  0  0  0  0  0  0  0  0
  161.8380  204.1890  151.5320 C   0  0  2  0  0  3  0  0  0  0  0  0
  160.8030  206.0460  150.0870 C   0  0  2  0  0  3  0  0  0  0  0  0
  160.7080  206.1810  154.3820 N   0  0  0  0  0  2  0  0  0  0  0  0
  160.6030  204.7080  150.8310 C   0  0  2  0  0  3  0  0  0  0  0  0
  161.4940  205.8590  148.7360 C   0  0  0  0  0  2  0  0  0  0  0  0
  161.6520  209.6760  152.1580 N   0  0  0  0  0  0  0  0  0  0  0  0
  161.7860  202.6770  151.5740 C   0  0  0  0  0  1  0  0  0  0  0  0
  161.5710  209.7230  150.8550 C   0  0  0  0  0  0  0  0  0  0  0  0
  161.2450  208.5900  154.3550 C   0  0  0  0  0  0  0  0  0  0  0  0
  160.6960  204.7530  152.3690 C   0  0  2  0  0  3  0  0  0  0  0  0
  161.4680  207.1690  147.9330 C   0  0  0  0  0  2  0  0  0  0  0  0
  160.4810  208.7930  157.0440 C   0  0  0  0  0  3  0  0  0  0  0  0
  161.3400  209.8170  155.0240 C   0  0  0  0  0  3  0  0  0  0  0  0
  160.6560  213.3350  150.0060 C   0  0  0  0  0  0  0  0  0  0  0  0
  159.8840  214.3890  150.4830 O   0  0  0  0  0  1  0  0  0  0  0  0
  161.4950  211.0490  150.1910 C   0  0  0  0  0  0  0  0  0  0  0  0
  161.3940  213.5100  148.8340 C   0  0  0  0  0  3  0  0  0  0  0  0
  162.2300  211.2530  149.0120 C   0  0  0  0  0  3  0  0  0  0  0  0
  160.7000  212.1100  150.6930 C   0  0  0  0  0  0  0  0  0  0  0  0
  159.9340  211.9750  151.9720 C   0  0  0  0  0  1  0  0  0  0  0  0
  162.1850  212.4720  148.3330 C   0  0  0  0  0  0  0  0  0  0  0  0
  162.5530  213.3690  146.1280 N   0  0  0  0  0  2  0  0  0  0  0  0
  162.9710  212.6330  147.1060 C   0  0  0  0  0  3  0  0  0  0  0  0
  1  3  1  6  0  0  0
  1  4  1  0  0  0  0
  1 17  1  0  0  0  0
  2  7  1  0  0  0  0
  2  5  1  0  0  0  0
  4  2  1  0  0  0  0
  5 12  1  0  0  0  0
  6 21  1  0  0  0  0
  7 18  1  0  0  0  0
  8 21  2  0  0  0  0
  9  8  1  0  0  0  0
 10 16  1  0  0  0  0
 10 19  1  0  0  0  0
 11 13  1  0  0  0  0
 11  4  1  0  0  0  0
 12  9  1  0  0  0  0
 13 10  1  0  0  0  0
 13 19  1  0  0  0  0
 14 11  1  0  0  0  0
 15  7  1  0  0  0  0
 17 15  2  0  0  0  0
 18 22  1  0  0  0  0
 18  9  2  0  0  0  0
 19  5  1  0  0  0  0
 20 14  1  0  0  0  0
 20  3  1  0  0  0  0
 22  6  2  0  0  0  0
 23 24  1  0  0  0  0
 23 28  1  0  0  0  0
 25 28  2  0  0  0  0
 25 17  1  0  0  0  0
 26 23  2  0  0  0  0
 27 25  1  0  0  0  0
 28 29  1  0  0  0  0
 30 26  1  0  0  0  0
 30 27  2  0  0  0  0
 31 32  2  0  0  0  0
 32 30  1  0  0  0  0
M  END
>  <MODEL>
2

>  <REMARK>
 VINA RESULT:      -9.5      2.626      7.151
  Name = 
  2 active torsions:
  status: ('A' for Active; 'I' for Inactive)
    1  A    between atoms: C_15  and  C_26
    2  A    between atoms: C_16  and  C_27
                            x       y       z     vdW  Elec       q    Type
                         _______ _______ _______ _____ _____    ______ ____

>  <TORSDO>
F 2

$$$$
=
 OpenBabel11062408213D

 32 38  0  0  1  0  0  0  0  0999 V2000
  161.2760  207.0490  151.5100 C   0  0  1  0  0  3  0  0  0  0  0  0
  161.0160  209.5160  151.6400 C   0  0  1  0  0  3  0  0  0  0  0  0
  161.9620  205.8710  152.2000 C   0  0  0  0  0  2  0  0  0  0  0  0
  161.4960  208.2920  152.3690 C   0  0  1  0  0  3  0  0  0  0  0  0
  161.2890  210.7500  152.4860 C   0  0  1  0  0  3  0  0  0  0  0  0
  161.3310  212.1760  147.5570 C   0  0  0  0  0  3  0  0  0  0  0  0
  161.8590  209.6520  150.3730 C   0  0  1  0  0  3  0  0  0  0  0  0
  160.6950  213.2010  149.6590 C   0  0  0  0  0  3  0  0  0  0  0  0
  161.0170  212.0220  150.3350 C   0  0  0  0  0  0  0  0  0  0  0  0
  161.7580  210.1430  154.8120 C   0  0  2  0  0  3  0  0  0  0  0  0
  160.7220  208.0890  153.6660 C   0  0  2  0  0  3  0  0  0  0  0  0
  160.8480  211.9390  151.7600 N   0  0  0  0  0  2  0  0  0  0  0  0
  160.5100  209.3280  154.5630 C   0  0  2  0  0  3  0  0  0  0  0  0
  161.3370  206.9170  154.4340 C   0  0  0  0  0  2  0  0  0  0  0  0
  161.8080  208.4350  149.5580 N   0  0  0  0  0  0  0  0  0  0  0  0
  161.6510  210.8120  156.1650 C   0  0  0  0  0  1  0  0  0  0  0  0
  161.6640  207.2330  150.0500 C   0  0  0  0  0  0  0  0  0  0  0  0
  161.4720  210.8960  149.6120 C   0  0  0  0  0  0  0  0  0  0  0  0
  160.6810  210.7030  153.8900 C   0  0  2  0  0  3  0  0  0  0  0  0
  161.3200  205.6430  153.5750 C   0  0  0  0  0  2  0  0  0  0  0  0
  160.8510  213.2780  148.2720 C   0  0  0  0  0  3  0  0  0  0  0  0
  161.6460  210.9900  148.2250 C   0  0  0  0  0  3  0  0  0  0  0  0
  161.0400  203.7700  148.5580 C   0  0  0  0  0  0  0  0  0  0  0  0
  160.4970  202.5370  148.8960 O   0  0  0  0  0  1  0  0  0  0  0  0
  161.6050  206.0800  149.1160 C   0  0  0  0  0  0  0  0  0  0  0  0
  161.5770  203.9500  147.2810 C   0  0  0  0  0  3  0  0  0  0  0  0
  162.1350  206.2330  147.8250 C   0  0  0  0  0  3  0  0  0  0  0  0
  161.0480  204.8300  149.4820 C   0  0  0  0  0  0  0  0  0  0  0  0
  160.4200  204.6150  150.8240 C   0  0  0  0  0  1  0  0  0  0  0  0
  162.1240  205.1810  146.9090 C   0  0  0  0  0  0  0  0  0  0  0  0
  161.9460  205.3970  144.5160 N   0  0  0  0  0  2  0  0  0  0  0  0
  162.6910  205.3930  145.5730 C   0  0  0  0  0  3  0  0  0  0  0  0
  1  3  1  1  0  0  0
  1  4  1  0  0  0  0
  2  4  1  0  0  0  0
  2  5  1  0  0  0  0
  3 20  1  0  0  0  0
  4 11  1  0  0  0  0
  5 19  1  0  0  0  0
  6 22  2  0  0  0  0
  6 21  1  0  0  0  0
  7  2  1  0  0  0  0
  8  9  1  0  0  0  0
  9 12  1  0  0  0  0
 10 16  1  0  0  0  0
 11 14  1  0  0  0  0
 11 13  1  0  0  0  0
 12  5  1  0  0  0  0
 13 10  1  0  0  0  0
 15 17  2  0  0  0  0
 15  7  1  0  0  0  0
 17  1  1  0  0  0  0
 18  9  2  0  0  0  0
 18  7  1  0  0  0  0
 19 13  1  0  0  0  0
 19 10  1  0  0  0  0
 20 14  1  0  0  0  0
 21  8  2  0  0  0  0
 22 18  1  0  0  0  0
 23 24  1  0  0  0  0
 23 28  1  0  0  0  0
 25 28  2  0  0  0  0
 25 17  1  0  0  0  0
 26 23  2  0  0  0  0
 27 25  1  0  0  0  0
 28 29  1  0  0  0  0
 30 26  1  0  0  0  0
 30 27  2  0  0  0  0
 31 32  2  0  0  0  0
 32 30  1  0  0  0  0
M  END
>  <MODEL>
3

>  <REMARK>
 VINA RESULT:      -8.3      1.526      2.148
  Name = 
  2 active torsions:
  status: ('A' for Active; 'I' for Inactive)
    1  A    between atoms: C_15  and  C_26
    2  A    between atoms: C_16  and  C_27
                            x       y       z     vdW  Elec       q    Type
                         _______ _______ _______ _____ _____    ______ ____

>  <TORSDO>
F 2

$$$$
=
 OpenBabel11062408213D

 32 38  0  0  1  0  0  0  0  0999 V2000
  161.5330  208.5920  152.9460 C   0  0  1  0  0  3  0  0  0  0  0  0
  161.8300  209.2090  150.5580 C   0  0  1  0  0  3  0  0  0  0  0  0
  160.8320  207.5810  153.8510 C   0  0  0  0  0  2  0  0  0  0  0  0
  161.3360  208.1450  151.4980 C   0  0  1  0  0  3  0  0  0  0  0  0
  161.5810  208.7720  149.1220 C   0  0  1  0  0  3  0  0  0  0  0  0
  161.5360  213.9010  149.2410 C   0  0  0  0  0  3  0  0  0  0  0  0
  160.9840  210.4570  150.7950 C   0  0  1  0  0  3  0  0  0  0  0  0
  162.1980  212.2040  147.6420 C   0  0  0  0  0  3  0  0  0  0  0  0
  161.8620  211.2050  148.5590 C   0  0  0  0  0  0  0  0  0  0  0  0
  161.1140  206.3710  148.9960 C   0  0  2  0  0  3  0  0  0  0  0  0
  162.1140  206.8470  151.3160 C   0  0  2  0  0  3  0  0  0  0  0  0
  162.0360  209.8220  148.2140 N   0  0  0  0  0  2  0  0  0  0  0  0
  162.3490  206.3640  149.8690 C   0  0  2  0  0  3  0  0  0  0  0  0
  161.4840  205.7630  152.1930 C   0  0  0  0  0  2  0  0  0  0  0  0
  161.0120  210.8700  152.2010 N   0  0  0  0  0  0  0  0  0  0  0  0
  161.2380  205.2810  147.9530 C   0  0  0  0  0  1  0  0  0  0  0  0
  161.1400  210.0400  153.2010 C   0  0  0  0  0  0  0  0  0  0  0  0
  161.3860  211.5570  149.8430 C   0  0  0  0  0  0  0  0  0  0  0  0
  162.1950  207.4180  148.7560 C   0  0  2  0  0  3  0  0  0  0  0  0
  161.4780  206.2010  153.6660 C   0  0  0  0  0  2  0  0  0  0  0  0
  162.0360  213.5500  147.9830 C   0  0  0  0  0  3  0  0  0  0  0  0
  161.2060  212.9080  150.1670 C   0  0  0  0  0  3  0  0  0  0  0  0
  160.1420  211.6570  156.5180 C   0  0  0  0  0  0  0  0  0  0  0  0
  159.0350  212.2020  157.1580 O   0  0  0  0  0  1  0  0  0  0  0  0
  161.1770  210.5850  154.5820 C   0  0  0  0  0  0  0  0  0  0  0  0
  161.3670  211.6250  157.1880 C   0  0  0  0  0  3  0  0  0  0  0  0
  162.3950  210.5630  155.2810 C   0  0  0  0  0  3  0  0  0  0  0  0
  160.0360  211.1380  155.2160 C   0  0  0  0  0  0  0  0  0  0  0  0
  158.6970  211.1460  154.5470 C   0  0  0  0  0  1  0  0  0  0  0  0
  162.4970  211.0760  156.5750 C   0  0  0  0  0  0  0  0  0  0  0  0
  164.7500  211.8400  156.9500 N   0  0  0  0  0  2  0  0  0  0  0  0
  163.7920  211.0290  157.2600 C   0  0  0  0  0  3  0  0  0  0  0  0
  1 17  1  0  0  0  0
  1  3  1  1  0  0  0
  2  7  1  0  0  0  0
  2  4  1  0  0  0  0
  4  1  1  0  0  0  0
  5  2  1  0  0  0  0
  6 22  1  0  0  0  0
  7 15  1  0  0  0  0
  8 21  1  0  0  0  0
  8  9  2  0  0  0  0
  9 18  1  0  0  0  0
 10 13  1  0  0  0  0
 11  4  1  0  0  0  0
 11 14  1  0  0  0  0
 12  9  1  0  0  0  0
 12  5  1  0  0  0  0
 13 11  1  0  0  0  0
 14 20  1  0  0  0  0
 15 17  2  0  0  0  0
 16 10  1  0  0  0  0
 17 25  1  0  0  0  0
 18 22  2  0  0  0  0
 18  7  1  0  0  0  0
 19 10  1  0  0  0  0
 19  5  1  0  0  0  0
 19 13  1  0  0  0  0
 20  3  1  0  0  0  0
 21  6  2  0  0  0  0
 23 24  1  0  0  0  0
 23 26  1  0  0  0  0
 25 28  1  0  0  0  0
 25 27  2  0  0  0  0
 27 30  1  0  0  0  0
 28 23  2  0  0  0  0
 29 28  1  0  0  0  0
 30 26  2  0  0  0  0
 30 32  1  0  0  0  0
 31 32  2  0  0  0  0
M  END
>  <MODEL>
4

>  <REMARK>
 VINA RESULT:      -7.9      3.154      6.895
  Name = 
  2 active torsions:
  status: ('A' for Active; 'I' for Inactive)
    1  A    between atoms: C_15  and  C_26
    2  A    between atoms: C_16  and  C_27
                            x       y       z     vdW  Elec       q    Type
                         _______ _______ _______ _____ _____    ______ ____

>  <TORSDO>
F 2

$$$$
=
 OpenBabel11062408213D

 32 38  0  0  1  0  0  0  0  0999 V2000
  161.3260  206.0210  151.0230 C   0  0  1  0  0  3  0  0  0  0  0  0
  161.3390  204.4810  149.0740 C   0  0  1  0  0  3  0  0  0  0  0  0
  160.7150  206.2040  152.4110 C   0  0  0  0  0  2  0  0  0  0  0  0
  160.9350  204.6350  150.5130 C   0  0  1  0  0  3  0  0  0  0  0  0
  160.8970  203.1170  148.5670 C   0  0  1  0  0  3  0  0  0  0  0  0
  161.0210  206.3230  144.5620 C   0  0  0  0  0  3  0  0  0  0  0  0
  160.5660  205.5240  148.2690 C   0  0  1  0  0  3  0  0  0  0  0  0
  161.4250  203.9590  144.9110 C   0  0  0  0  0  3  0  0  0  0  0  0
  161.1770  204.1150  146.2770 C   0  0  0  0  0  0  0  0  0  0  0  0
  160.3470  201.6180  150.4240 C   0  0  2  0  0  3  0  0  0  0  0  0
  161.6450  203.6130  151.3940 C   0  0  2  0  0  3  0  0  0  0  0  0
  161.2660  202.9840  147.1590 N   0  0  0  0  0  2  0  0  0  0  0  0
  161.6810  202.1540  150.8910 C   0  0  2  0  0  3  0  0  0  0  0  0
  161.0990  203.7210  152.8190 C   0  0  0  0  0  2  0  0  0  0  0  0
  160.7830  206.8780  148.7890 N   0  0  0  0  0  0  0  0  0  0  0  0
  160.3060  200.1220  150.6540 C   0  0  0  0  0  1  0  0  0  0  0  0
  161.0120  207.1460  150.0470 C   0  0  0  0  0  0  0  0  0  0  0  0
  160.8770  205.3940  146.7980 C   0  0  0  0  0  0  0  0  0  0  0  0
  161.4200  201.9350  149.3890 C   0  0  2  0  0  3  0  0  0  0  0  0
  161.2920  205.1460  153.3620 C   0  0  0  0  0  2  0  0  0  0  0  0
  161.3470  205.0620  144.0550 C   0  0  0  0  0  3  0  0  0  0  0  0
  160.7800  206.4890  145.9290 C   0  0  0  0  0  3  0  0  0  0  0  0
  162.0250  210.8320  150.0200 C   0  0  0  0  0  0  0  0  0  0  0  0
  162.5890  211.7850  149.1800 O   0  0  0  0  0  1  0  0  0  0  0  0
  161.2390  208.5590  150.4460 C   0  0  0  0  0  0  0  0  0  0  0  0
  161.6600  211.1990  151.3170 C   0  0  0  0  0  3  0  0  0  0  0  0
  160.8790  208.9560  151.7440 C   0  0  0  0  0  3  0  0  0  0  0  0
  161.8170  209.5150  149.5740 C   0  0  0  0  0  0  0  0  0  0  0  0
  162.1760  209.1700  148.1630 C   0  0  0  0  0  1  0  0  0  0  0  0
  161.0840  210.2650  152.1820 C   0  0  0  0  0  0  0  0  0  0  0  0
  161.5700  210.8570  154.4660 N   0  0  0  0  0  2  0  0  0  0  0  0
  160.6900  210.6290  153.5470 C   0  0  0  0  0  3  0  0  0  0  0  0
  1  3  1  1  0  0  0
  2  4  1  0  0  0  0
  3 20  1  0  0  0  0
  4  1  1  0  0  0  0
  4 11  1  0  0  0  0
  5  2  1  0  0  0  0
  5 19  1  0  0  0  0
  6 22  1  0  0  0  0
  7 15  1  0  0  0  0
  7  2  1  0  0  0  0
  8  9  2  0  0  0  0
  9 18  1  0  0  0  0
  9 12  1  0  0  0  0
 10 16  1  0  0  0  0
 10 13  1  0  0  0  0
 11 14  1  0  0  0  0
 12  5  1  0  0  0  0
 13 11  1  0  0  0  0
 14 20  1  0  0  0  0
 15 17  2  0  0  0  0
 17 25  1  0  0  0  0
 17  1  1  0  0  0  0
 18  7  1  0  0  0  0
 19 10  1  0  0  0  0
 19 13  1  0  0  0  0
 21  6  2  0  0  0  0
 21  8  1  0  0  0  0
 22 18  2  0  0  0  0
 23 26  1  0  0  0  0
 24 23  1  0  0  0  0
 25 27  2  0  0  0  0
 26 30  2  0  0  0  0
 27 30  1  0  0  0  0
 28 23  2  0  0  0  0
 28 25  1  0  0  0  0
 29 28  1  0  0  0  0
 30 32  1  0  0  0  0
 32 31  2  0  0  0  0
M  END
>  <MODEL>
5

>  <REMARK>
 VINA RESULT:      -7.4      2.196      7.028
  Name = 
  2 active torsions:
  status: ('A' for Active; 'I' for Inactive)
    1  A    between atoms: C_15  and  C_26
    2  A    between atoms: C_16  and  C_27
                            x       y       z     vdW  Elec       q    Type
                         _______ _______ _______ _____ _____    ______ ____

>  <TORSDO>
F 2

$$$$
=
 OpenBabel11062408213D

 32 38  0  0  1  0  0  0  0  0999 V2000
  161.2580  208.8700  152.4870 C   0  0  1  0  0  3  0  0  0  0  0  0
  161.8680  209.6120  150.1960 C   0  0  1  0  0  3  0  0  0  0  0  0
  160.4970  207.7780  153.2380 C   0  0  0  0  0  2  0  0  0  0  0  0
  161.3090  208.4790  151.0110 C   0  0  1  0  0  3  0  0  0  0  0  0
  161.8650  209.2270  148.7250 C   0  0  1  0  0  3  0  0  0  0  0  0
  161.4650  214.3340  149.0210 C   0  0  0  0  0  3  0  0  0  0  0  0
  160.9140  210.7960  150.3470 C   0  0  1  0  0  3  0  0  0  0  0  0
  162.4690  212.7540  147.4810 C   0  0  0  0  0  3  0  0  0  0  0  0
  162.0660  211.6960  148.3000 C   0  0  0  0  0  0  0  0  0  0  0  0
  161.5810  206.8110  148.4420 C   0  0  2  0  0  3  0  0  0  0  0  0
  162.1890  207.2400  150.9020 C   0  0  2  0  0  3  0  0  0  0  0  0
  162.3810  210.3430  147.9350 N   0  0  0  0  0  2  0  0  0  0  0  0
  162.6690  206.8380  149.4910 C   0  0  2  0  0  3  0  0  0  0  0  0
  161.5080  206.0810  151.6340 C   0  0  0  0  0  2  0  0  0  0  0  0
  160.7040  211.1450  151.7550 N   0  0  0  0  0  0  0  0  0  0  0  0
  161.9320  205.7790  147.3910 C   0  0  0  0  0  1  0  0  0  0  0  0
  160.7360  210.2780  152.7320 C   0  0  0  0  0  0  0  0  0  0  0  0
  161.3810  211.9600  149.5080 C   0  0  0  0  0  0  0  0  0  0  0  0
  162.6150  207.9310  148.4070 C   0  0  2  0  0  3  0  0  0  0  0  0
  161.2530  206.4490  153.1040 C   0  0  0  0  0  2  0  0  0  0  0  0
  162.1690  214.0710  147.8420 C   0  0  0  0  0  3  0  0  0  0  0  0
  161.0660  213.2820  149.8490 C   0  0  0  0  0  3  0  0  0  0  0  0
  161.3350  211.3690  156.3470 C   0  0  0  0  0  0  0  0  0  0  0  0
  162.3690  211.5410  157.2600 O   0  0  0  0  0  1  0  0  0  0  0  0
  160.5300  210.7610  154.1220 C   0  0  0  0  0  0  0  0  0  0  0  0
  160.0250  211.6450  156.7430 C   0  0  0  0  0  3  0  0  0  0  0  0
  159.2230  211.0490  154.5470 C   0  0  0  0  0  3  0  0  0  0  0  0
  161.5990  210.9280  155.0380 C   0  0  0  0  0  0  0  0  0  0  0  0
  163.0200  210.6880  154.6340 C   0  0  0  0  0  1  0  0  0  0  0  0
  158.9650  211.4890  155.8460 C   0  0  0  0  0  0  0  0  0  0  0  0
  156.5800  211.3700  155.5290 N   0  0  0  0  0  2  0  0  0  0  0  0
  157.5810  211.7750  156.2390 C   0  0  0  0  0  3  0  0  0  0  0  0
  1 17  1  0  0  0  0
  1  3  1  1  0  0  0
  2  7  1  0  0  0  0
  2  4  1  0  0  0  0
  4  1  1  0  0  0  0
  5  2  1  0  0  0  0
  6 22  1  0  0  0  0
  7 15  1  0  0  0  0
  8 21  1  0  0  0  0
  8  9  2  0  0  0  0
  9 18  1  0  0  0  0
 10 13  1  0  0  0  0
 11  4  1  0  0  0  0
 11 14  1  0  0  0  0
 12  9  1  0  0  0  0
 12  5  1  0  0  0  0
 13 11  1  0  0  0  0
 14 20  1  0  0  0  0
 15 17  2  0  0  0  0
 16 10  1  0  0  0  0
 17 25  1  0  0  0  0
 18 22  2  0  0  0  0
 18  7  1  0  0  0  0
 19 10  1  0  0  0  0
 19  5  1  0  0  0  0
 19 13  1  0  0  0  0
 20  3  1  0  0  0  0
 21  6  2  0  0  0  0
 23 26  1  0  0  0  0
 23 24  1  0  0  0  0
 25 27  2  0  0  0  0
 25 28  1  0  0  0  0
 27 30  1  0  0  0  0
 28 23  2  0  0  0  0
 29 28  1  0  0  0  0
 30 32  1  0  0  0  0
 30 26  2  0  0  0  0
 31 32  2  0  0  0  0
M  END
>  <MODEL>
6

>  <REMARK>
 VINA RESULT:      -7.1      3.218      6.791
  Name = 
  2 active torsions:
  status: ('A' for Active; 'I' for Inactive)
    1  A    between atoms: C_15  and  C_26
    2  A    between atoms: C_16  and  C_27
                            x       y       z     vdW  Elec       q    Type
                         _______ _______ _______ _____ _____    ______ ____

>  <TORSDO>
F 2

$$$$
