=
 OpenBabel11062409393D

 34 40  0  0  0  0  0  0  0  0999 V2000
  160.3230  209.5740  153.6500 C   0  0  0  0  0  0  0  0  0  0  0  0
  159.2750  212.9420  154.6470 C   0  0  0  0  0  2  0  0  0  0  0  0
  159.7390  211.0640  155.8970 N   0  0  0  0  0  0  0  0  0  0  0  0
  160.9300  207.4940  153.4270 C   0  0  0  0  0  0  0  0  0  0  0  0
  160.5680  208.5240  152.7030 N   0  0  0  0  0  0  0  0  0  0  0  0
  161.0610  207.0860  156.0420 C   0  0  0  0  0  3  0  0  0  0  0  0
  160.8010  207.7700  157.2600 C   0  0  0  0  0  3  0  0  0  0  0  0
  160.9140  207.8130  154.8580 C   0  0  0  0  0  0  0  0  0  0  0  0
  161.2520  206.2050  152.8920 N   0  0  0  0  0  2  0  0  0  0  0  0
  160.2090  209.7930  156.0340 C   0  0  0  0  0  0  0  0  0  0  0  0
  160.5300  209.1050  154.8950 C   0  0  0  0  0  0  0  0  0  0  0  0
  160.3680  209.1260  157.2610 C   0  0  0  0  0  3  0  0  0  0  0  0
  159.3330  213.8330  153.4520 C   0  0  0  0  0  2  0  0  0  0  0  0
  158.3720  213.4480  152.3840 C   0  0  0  0  0  0  0  0  0  0  0  0
  158.4190  212.2450  151.8150 C   0  0  0  0  0  3  0  0  0  0  0  0
  159.5450  211.6330  154.6550 C   0  0  0  0  0  0  0  0  0  0  0  0
  159.2640  211.1140  152.2380 C   0  0  0  0  0  2  0  0  0  0  0  0
  159.7450  210.8380  153.4630 C   0  0  0  0  0  0  0  0  0  0  0  0
  161.5230  206.3830  149.1490 C   0  0  0  0  0  3  0  0  0  0  0  0
  161.0600  204.4940  151.1670 C   0  0  0  0  0  3  0  0  0  0  0  0
  161.1070  203.3020  147.1320 C   0  0  0  0  0  0  0  0  0  0  0  0
  161.3230  204.6460  147.4730 C   0  0  0  0  0  3  0  0  0  0  0  0
  161.3080  205.0460  148.8120 C   0  0  0  0  0  0  0  0  0  0  0  0
  160.8590  202.7550  149.4910 C   0  0  0  0  0  3  0  0  0  0  0  0
  161.0740  204.0940  149.8290 C   0  0  0  0  0  0  0  0  0  0  0  0
  160.8760  202.3620  148.1500 C   0  0  0  0  0  3  0  0  0  0  0  0
  161.2750  205.8350  151.5070 C   0  0  0  0  0  0  0  0  0  0  0  0
  161.5070  206.7750  150.4910 C   0  0  0  0  0  3  0  0  0  0  0  0
  161.1240  202.8810  145.7210 C   0  0  0  0  0  0  0  0  0  0  0  0
  161.7470  203.5580  144.8620 O   0  0  0  0  0  0  0  0  0  0  0  0
  160.4350  201.7020  145.3120 N   0  0  0  0  0  1  0  0  0  0  0  0
  157.3660  214.4530  151.9030 C   0  0  0  0  0  3  0  0  0  0  0  0
  156.4130  213.8210  150.9010 C   0  0  0  0  0  2  0  0  0  0  0  0
  155.9580  214.0530  152.3220 C   0  0  0  0  0  2  0  0  0  0  0  0
  1 11  1  0  0  0  0
  2 16  1  0  0  0  0
  3 10  1  0  0  0  0
  4  8  1  0  0  0  0
  5  4  2  0  0  0  0
  5  1  1  0  0  0  0
  6  7  1  0  0  0  0
  7 12  2  0  0  0  0
  8 11  1  0  0  0  0
  8  6  2  0  0  0  0
  9  4  1  0  0  0  0
 10 12  1  0  0  0  0
 11 10  2  0  0  0  0
 13  2  1  0  0  0  0
 14 13  1  0  0  0  0
 15 17  1  0  0  0  0
 15 14  2  0  0  0  0
 16  3  2  0  0  0  0
 17 18  1  0  0  0  0
 18  1  2  0  0  0  0
 18 16  1  0  0  0  0
 19 28  1  0  0  0  0
 20 27  1  0  0  0  0
 21 22  2  0  0  0  0
 21 26  1  0  0  0  0
 22 23  1  0  0  0  0
 23 19  2  0  0  0  0
 23 25  1  0  0  0  0
 24 25  1  0  0  0  0
 25 20  2  0  0  0  0
 26 24  2  0  0  0  0
 27  9  1  0  0  0  0
 28 27  2  0  0  0  0
 29 21  1  0  0  0  0
 30 29  2  0  0  0  0
 31 29  1  0  0  0  0
 32 34  1  0  0  0  0
 32 14  1  0  0  0  0
 33 32  1  0  0  0  0
 33 34  1  0  0  0  0
M  END
>  <MODEL>
1

>  <REMARK>
 VINA RESULT:      -9.8      0.000      0.000
  Name = 
  3 active torsions:
  status: ('A' for Active; 'I' for Inactive)
    1  A    between atoms: C_3  and  C_25
    2  A    between atoms: C_7  and  C_11
    3  A    between atoms: N_18  and  C_30
                            x       y       z     vdW  Elec       q    Type
                         _______ _______ _______ _____ _____    ______ ____

>  <TORSDO>
F 3

$$$$
=
 OpenBabel11062409393D

 34 40  0  0  0  0  0  0  0  0999 V2000
  161.2240  207.7610  150.2680 C   0  0  0  0  0  0  0  0  0  0  0  0
  160.7280  204.1590  150.7320 C   0  0  0  0  0  2  0  0  0  0  0  0
  161.1020  205.8480  152.2520 N   0  0  0  0  0  0  0  0  0  0  0  0
  161.5640  209.9110  150.3690 C   0  0  0  0  0  0  0  0  0  0  0  0
  161.4570  208.9450  149.4900 N   0  0  0  0  0  0  0  0  0  0  0  0
  161.6040  209.9420  153.0180 C   0  0  0  0  0  3  0  0  0  0  0  0
  161.5390  209.0400  154.1130 C   0  0  0  0  0  3  0  0  0  0  0  0
  161.4340  209.4060  151.7390 C   0  0  0  0  0  0  0  0  0  0  0  0
  161.8270  211.2790  150.0350 N   0  0  0  0  0  2  0  0  0  0  0  0
  161.2190  207.1630  152.5900 C   0  0  0  0  0  0  0  0  0  0  0  0
  161.2290  208.0830  151.5760 C   0  0  0  0  0  0  0  0  0  0  0  0
  161.3520  207.6450  153.9030 C   0  0  0  0  0  3  0  0  0  0  0  0
  160.3030  203.5650  149.4320 C   0  0  0  0  0  2  0  0  0  0  0  0
  161.3440  203.6620  148.3720 C   0  0  0  0  0  0  0  0  0  0  0  0
  161.8180  204.8420  147.9780 C   0  0  0  0  0  3  0  0  0  0  0  0
  161.0430  205.4420  150.9350 C   0  0  0  0  0  0  0  0  0  0  0  0
  161.5340  206.1480  148.6000 C   0  0  0  0  0  2  0  0  0  0  0  0
  161.2090  206.4160  149.8770 C   0  0  0  0  0  0  0  0  0  0  0  0
  163.3300  212.7650  146.9290 C   0  0  0  0  0  3  0  0  0  0  0  0
  160.8350  211.9490  147.9110 C   0  0  0  0  0  3  0  0  0  0  0  0
  161.1550  213.5380  144.0290 C   0  0  0  0  0  0  0  0  0  0  0  0
  162.2960  213.4150  144.8370 C   0  0  0  0  0  3  0  0  0  0  0  0
  162.1940  212.8870  146.1270 C   0  0  0  0  0  0  0  0  0  0  0  0
  159.8000  212.5980  145.8190 C   0  0  0  0  0  3  0  0  0  0  0  0
  160.9370  212.4760  146.6220 C   0  0  0  0  0  0  0  0  0  0  0  0
  159.9090  213.1260  144.5300 C   0  0  0  0  0  3  0  0  0  0  0  0
  161.9730  211.8260  148.7180 C   0  0  0  0  0  0  0  0  0  0  0  0
  163.2190  212.2360  148.2180 C   0  0  0  0  0  3  0  0  0  0  0  0
  161.2640  214.0930  142.6690 C   0  0  0  0  0  0  0  0  0  0  0  0
  162.3900  214.3830  142.1880 O   0  0  0  0  0  0  0  0  0  0  0  0
  160.0950  214.3080  141.8830 N   0  0  0  0  0  1  0  0  0  0  0  0
  161.8270  202.4100  147.7010 C   0  0  0  0  0  3  0  0  0  0  0  0
  161.0590  201.1990  148.2080 C   0  0  0  0  0  2  0  0  0  0  0  0
  160.7230  201.7870  146.8580 C   0  0  0  0  0  2  0  0  0  0  0  0
  1 11  1  0  0  0  0
  2 16  1  0  0  0  0
  3 10  1  0  0  0  0
  4  8  1  0  0  0  0
  5  1  1  0  0  0  0
  5  4  2  0  0  0  0
  6  7  1  0  0  0  0
  8  6  2  0  0  0  0
  9  4  1  0  0  0  0
 10 12  1  0  0  0  0
 11  8  1  0  0  0  0
 11 10  2  0  0  0  0
 12  7  2  0  0  0  0
 13  2  1  0  0  0  0
 14 13  1  0  0  0  0
 15 14  2  0  0  0  0
 15 17  1  0  0  0  0
 16  3  2  0  0  0  0
 17 18  1  0  0  0  0
 18  1  2  0  0  0  0
 18 16  1  0  0  0  0
 19 28  1  0  0  0  0
 20 27  1  0  0  0  0
 21 26  1  0  0  0  0
 21 22  2  0  0  0  0
 22 23  1  0  0  0  0
 23 25  1  0  0  0  0
 23 19  2  0  0  0  0
 24 25  1  0  0  0  0
 25 20  2  0  0  0  0
 26 24  2  0  0  0  0
 27  9  1  0  0  0  0
 28 27  2  0  0  0  0
 29 21  1  0  0  0  0
 30 29  2  0  0  0  0
 31 29  1  0  0  0  0
 32 33  1  0  0  0  0
 32 14  1  0  0  0  0
 34 32  1  0  0  0  0
 34 33  1  0  0  0  0
M  END
>  <MODEL>
2

>  <REMARK>
 VINA RESULT:      -9.4      5.021      8.662
  Name = 
  3 active torsions:
  status: ('A' for Active; 'I' for Inactive)
    1  A    between atoms: C_3  and  C_25
    2  A    between atoms: C_7  and  C_11
    3  A    between atoms: N_18  and  C_30
                            x       y       z     vdW  Elec       q    Type
                         _______ _______ _______ _____ _____    ______ ____

>  <TORSDO>
F 3

$$$$
=
 OpenBabel11062409393D

 34 40  0  0  0  0  0  0  0  0999 V2000
  161.6750  207.9120  151.3960 C   0  0  0  0  0  0  0  0  0  0  0  0
  162.2020  211.4600  150.6370 C   0  0  0  0  0  2  0  0  0  0  0  0
  161.6310  210.3950  152.5980 N   0  0  0  0  0  0  0  0  0  0  0  0
  161.2780  205.9260  152.1950 C   0  0  0  0  0  0  0  0  0  0  0  0
  161.4990  206.5300  151.0530 N   0  0  0  0  0  0  0  0  0  0  0  0
  160.9580  206.8110  154.6720 C   0  0  0  0  0  3  0  0  0  0  0  0
  160.9270  208.0370  155.3880 C   0  0  0  0  0  3  0  0  0  0  0  0
  161.2740  206.8750  153.3120 C   0  0  0  0  0  0  0  0  0  0  0  0
  161.0200  204.5220  152.3270 N   0  0  0  0  0  2  0  0  0  0  0  0
  161.4500  209.2760  153.3540 C   0  0  0  0  0  0  0  0  0  0  0  0
  161.5250  208.0620  152.7250 C   0  0  0  0  0  0  0  0  0  0  0  0
  161.1670  209.2760  154.7310 C   0  0  0  0  0  3  0  0  0  0  0  0
  162.7760  211.5740  149.2660 C   0  0  0  0  0  2  0  0  0  0  0  0
  161.8500  211.1020  148.2000 C   0  0  0  0  0  0  0  0  0  0  0  0
  161.3930  209.8510  148.1890 C   0  0  0  0  0  3  0  0  0  0  0  0
  161.8380  210.3220  151.2360 C   0  0  0  0  0  0  0  0  0  0  0  0
  161.5810  208.8460  149.2500 C   0  0  0  0  0  2  0  0  0  0  0  0
  161.7630  209.0400  150.5680 C   0  0  0  0  0  0  0  0  0  0  0  0
  160.9710  201.2510  150.4810 C   0  0  0  0  0  3  0  0  0  0  0  0
  160.9930  204.0020  149.9460 C   0  0  0  0  0  3  0  0  0  0  0  0
  160.9360  201.2380  146.7750 C   0  0  0  0  0  0  0  0  0  0  0  0
  160.9450  200.7870  148.1030 C   0  0  0  0  0  3  0  0  0  0  0  0
  160.9630  201.7020  149.1590 C   0  0  0  0  0  0  0  0  0  0  0  0
  160.9670  203.5390  147.5680 C   0  0  0  0  0  3  0  0  0  0  0  0
  160.9750  203.0880  148.8900 C   0  0  0  0  0  0  0  0  0  0  0  0
  160.9480  202.6190  146.5170 C   0  0  0  0  0  3  0  0  0  0  0  0
  161.0010  203.5520  151.2720 C   0  0  0  0  0  0  0  0  0  0  0  0
  160.9900  202.1720  151.5320 C   0  0  0  0  0  3  0  0  0  0  0  0
  160.9160  200.2740  145.6620 C   0  0  0  0  0  0  0  0  0  0  0  0
  160.2790  200.5320  144.6070 O   0  0  0  0  0  0  0  0  0  0  0  0
  161.6190  199.0380  145.7660 N   0  0  0  0  0  1  0  0  0  0  0  0
  161.4690  212.0380  147.0900 C   0  0  0  0  0  3  0  0  0  0  0  0
  159.9580  212.1760  147.0010 C   0  0  0  0  0  2  0  0  0  0  0  0
  160.7730  213.2740  147.6400 C   0  0  0  0  0  2  0  0  0  0  0  0
  1 11  1  0  0  0  0
  2 16  1  0  0  0  0
  3 10  1  0  0  0  0
  4  9  1  0  0  0  0
  4  8  1  0  0  0  0
  5  1  1  0  0  0  0
  5  4  2  0  0  0  0
  6  7  1  0  0  0  0
  8  6  2  0  0  0  0
 10 12  1  0  0  0  0
 11  8  1  0  0  0  0
 11 10  2  0  0  0  0
 12  7  2  0  0  0  0
 13  2  1  0  0  0  0
 14 13  1  0  0  0  0
 15 14  2  0  0  0  0
 15 17  1  0  0  0  0
 16  3  2  0  0  0  0
 17 18  1  0  0  0  0
 18 16  1  0  0  0  0
 18  1  2  0  0  0  0
 19 28  1  0  0  0  0
 20 27  1  0  0  0  0
 21 22  2  0  0  0  0
 22 23  1  0  0  0  0
 23 19  2  0  0  0  0
 24 25  1  0  0  0  0
 25 23  1  0  0  0  0
 25 20  2  0  0  0  0
 26 21  1  0  0  0  0
 26 24  2  0  0  0  0
 27 28  2  0  0  0  0
 27  9  1  0  0  0  0
 29 31  1  0  0  0  0
 29 21  1  0  0  0  0
 30 29  2  0  0  0  0
 32 34  1  0  0  0  0
 32 14  1  0  0  0  0
 33 32  1  0  0  0  0
 33 34  1  0  0  0  0
M  END
>  <MODEL>
3

>  <REMARK>
 VINA RESULT:      -8.1      2.866      3.821
  Name = 
  3 active torsions:
  status: ('A' for Active; 'I' for Inactive)
    1  A    between atoms: C_3  and  C_25
    2  A    between atoms: C_7  and  C_11
    3  A    between atoms: N_18  and  C_30
                            x       y       z     vdW  Elec       q    Type
                         _______ _______ _______ _____ _____    ______ ____

>  <TORSDO>
F 3

$$$$
