=
 OpenBabel11052422453D

 31 34  0  0  1  0  0  0  0  0999 V2000
  161.2120  202.2520  151.1550 C   0  0  0  0  0  0  0  0  0  0  0  0
  161.1170  205.1840  148.8070 C   0  0  0  0  0  0  0  0  0  0  0  0
  161.2380  204.6350  147.5030 C   0  0  0  0  0  0  0  0  0  0  0  0
  161.5100  202.7480  145.9860 C   0  0  0  0  0  3  0  0  0  0  0  0
  161.0770  204.3610  150.0520 C   0  0  0  0  0  0  0  0  0  0  0  0
  160.8490  202.8340  152.3710 C   0  0  0  0  0  3  0  0  0  0  0  0
  161.3960  203.2580  147.2800 C   0  0  0  0  0  3  0  0  0  0  0  0
  160.9460  207.2440  150.2890 C   0  0  2  0  0  3  0  0  0  0  0  0
  161.4410  201.0160  151.0940 O   0  0  0  0  0  0  0  0  0  0  0  0
  161.0260  206.8390  146.5640 N   0  0  0  0  0  0  0  0  0  0  0  0
  161.4660  203.6090  144.8910 C   0  0  0  0  0  3  0  0  0  0  0  0
  160.5260  206.3580  151.3280 O   0  0  0  0  0  0  0  0  0  0  0  0
  160.9710  206.5820  148.9360 C   0  0  0  0  0  0  0  0  0  0  0  0
  161.3100  203.0170  150.0350 N   0  0  0  0  0  0  0  0  0  0  0  0
  161.2550  206.0300  143.6710 Cl  0  0  0  0  0  0  0  0  0  0  0  0
  160.7370  204.9790  151.2680 C   0  0  1  0  0  3  0  0  0  0  0  0
  160.6080  204.2050  152.4220 C   0  0  0  0  0  3  0  0  0  0  0  0
  160.9210  207.3870  147.7990 C   0  0  0  0  0  3  0  0  0  0  0  0
  161.1900  205.5030  146.3810 C   0  0  0  0  0  0  0  0  0  0  0  0
  161.3060  204.9820  145.0810 C   0  0  0  0  0  0  0  0  0  0  0  0
  162.2840  207.9090  150.6400 C   0  0  0  0  0  2  0  0  0  0  0  0
  161.5690  210.7200  152.8830 O   0  0  0  0  0  0  0  0  0  0  0  0
  161.0740  208.6570  154.7570 C   0  0  0  0  0  1  0  0  0  0  0  0
  161.5130  208.4480  153.3880 N   0  0  0  0  0  2  0  0  0  0  0  0
  161.7210  209.5340  152.4820 C   0  0  0  0  0  0  0  0  0  0  0  0
  162.1170  209.2770  151.1220 N   0  0  0  0  0  0  0  0  0  0  0  0
  162.6640  210.3500  150.3010 C   0  0  0  0  0  2  0  0  0  0  0  0
  162.0270  211.6950  148.2670 C   0  0  0  0  0  0  0  0  0  0  0  0
  161.0960  211.9930  147.2820 O   0  0  0  0  0  0  0  0  0  0  0  0
  163.1280  212.3080  148.2900 O   0  0  0  0  0  1  0  0  0  0  0  0
  161.7290  210.6990  149.2430 N   0  0  0  0  0  2  0  0  0  0  0  0
  1  6  1  0  0  0  0
  2 13  1  0  0  0  0
  2  5  1  0  0  0  0
  3  2  2  0  0  0  0
  4  7  2  0  0  0  0
  5 16  1  0  0  0  0
  6 17  2  0  0  0  0
  7  3  1  0  0  0  0
  8 21  1  1  0  0  0
  8 12  1  0  0  0  0
  9  1  2  0  0  0  0
 10 18  1  0  0  0  0
 11 20  2  0  0  0  0
 11  4  1  0  0  0  0
 13  8  1  0  0  0  0
 14  5  2  0  0  0  0
 14  1  1  0  0  0  0
 15 20  1  0  0  0  0
 16 12  1  0  0  0  0
 16 17  1  6  0  0  0
 18 13  2  0  0  0  0
 19 10  2  0  0  0  0
 19  3  1  0  0  0  0
 20 19  1  0  0  0  0
 21 26  1  0  0  0  0
 24 23  1  0  0  0  0
 25 22  2  0  0  0  0
 25 24  1  0  0  0  0
 26 25  1  0  0  0  0
 27 26  1  0  0  0  0
 28 30  1  0  0  0  0
 28 31  1  0  0  0  0
 29 28  2  0  0  0  0
 31 27  1  0  0  0  0
M  END
>  <MODEL>
1

>  <REMARK>
 VINA RESULT:      -7.7      0.000      0.000
  Name = 
  4 active torsions:
  status: ('A' for Active; 'I' for Inactive)
    1  A    between atoms: C_6  and  N_22
    2  A    between atoms: C_6  and  N_24
    3  A    between atoms: C_15  and  C_23
    4  A    between atoms: N_22  and  C_23
                            x       y       z     vdW  Elec       q    Type
                         _______ _______ _______ _____ _____    ______ ____

>  <TORSDO>
F 4

$$$$
=
 OpenBabel11052422453D

 31 34  0  0  1  0  0  0  0  0999 V2000
  161.2250  202.3940  151.2040 C   0  0  0  0  0  0  0  0  0  0  0  0
  161.1230  205.2170  148.7270 C   0  0  0  0  0  0  0  0  0  0  0  0
  161.2250  204.6090  147.4480 C   0  0  0  0  0  0  0  0  0  0  0  0
  161.4650  202.6530  146.0150 C   0  0  0  0  0  3  0  0  0  0  0  0
  161.0920  204.4510  150.0080 C   0  0  0  0  0  0  0  0  0  0  0  0
  160.8800  203.0330  152.3960 C   0  0  0  0  0  3  0  0  0  0  0  0
  161.3700  203.2220  147.2860 C   0  0  0  0  0  3  0  0  0  0  0  0
  160.9840  207.3430  150.1150 C   0  0  2  0  0  3  0  0  0  0  0  0
  161.4440  201.1550  151.1960 O   0  0  0  0  0  0  0  0  0  0  0  0
  161.0160  206.7700  146.4120 N   0  0  0  0  0  0  0  0  0  0  0  0
  161.4150  203.4640  144.8820 C   0  0  0  0  0  3  0  0  0  0  0  0
  160.5700  206.5080  151.1990 O   0  0  0  0  0  0  0  0  0  0  0  0
  160.9880  206.6200  148.7940 C   0  0  0  0  0  0  0  0  0  0  0  0
  161.3150  203.1070  150.0500 N   0  0  0  0  0  0  0  0  0  0  0  0
  161.2060  205.8280  143.5570 Cl  0  0  0  0  0  0  0  0  0  0  0  0
  160.7710  205.1260  151.1990 C   0  0  1  0  0  3  0  0  0  0  0  0
  160.6500  204.4070  152.3880 C   0  0  0  0  0  3  0  0  0  0  0  0
  160.9300  207.3740  147.6220 C   0  0  0  0  0  3  0  0  0  0  0  0
  161.1690  205.4250  146.2880 C   0  0  0  0  0  0  0  0  0  0  0  0
  161.2660  204.8460  145.0110 C   0  0  0  0  0  0  0  0  0  0  0  0
  162.3300  208.0140  150.4210 C   0  0  0  0  0  2  0  0  0  0  0  0
  161.8780  211.6400  150.7130 O   0  0  0  0  0  0  0  0  0  0  0  0
  161.8270  211.5190  147.8850 C   0  0  0  0  0  1  0  0  0  0  0  0
  161.9570  210.3690  148.7640 N   0  0  0  0  0  2  0  0  0  0  0  0
  162.0010  210.5000  150.1870 C   0  0  0  0  0  0  0  0  0  0  0  0
  162.1720  209.3370  151.0170 N   0  0  0  0  0  0  0  0  0  0  0  0
  161.8730  209.4010  152.4430 C   0  0  0  0  0  2  0  0  0  0  0  0
  160.0420  210.7540  153.5240 C   0  0  0  0  0  0  0  0  0  0  0  0
  158.6870  211.0060  153.6840 O   0  0  0  0  0  0  0  0  0  0  0  0
  160.8840  211.4470  154.1540 O   0  0  0  0  0  1  0  0  0  0  0  0
  160.4670  209.7130  152.6460 N   0  0  0  0  0  2  0  0  0  0  0  0
  1  6  1  0  0  0  0
  2 13  1  0  0  0  0
  2  5  1  0  0  0  0
  3  2  2  0  0  0  0
  4  7  2  0  0  0  0
  5 14  2  0  0  0  0
  5 16  1  0  0  0  0
  7  3  1  0  0  0  0
  8 21  1  1  0  0  0
  8 12  1  0  0  0  0
  9  1  2  0  0  0  0
 10 18  1  0  0  0  0
 11 20  2  0  0  0  0
 11  4  1  0  0  0  0
 13  8  1  0  0  0  0
 14  1  1  0  0  0  0
 15 20  1  0  0  0  0
 16 12  1  0  0  0  0
 16 17  1  6  0  0  0
 17  6  2  0  0  0  0
 18 13  2  0  0  0  0
 19 10  2  0  0  0  0
 19  3  1  0  0  0  0
 20 19  1  0  0  0  0
 21 26  1  0  0  0  0
 23 24  1  0  0  0  0
 24 25  1  0  0  0  0
 25 22  2  0  0  0  0
 25 26  1  0  0  0  0
 26 27  1  0  0  0  0
 27 31  1  0  0  0  0
 28 29  2  0  0  0  0
 28 30  1  0  0  0  0
 31 28  1  0  0  0  0
M  END
>  <MODEL>
2

>  <REMARK>
 VINA RESULT:      -7.5      1.055      2.750
  Name = 
  4 active torsions:
  status: ('A' for Active; 'I' for Inactive)
    1  A    between atoms: C_6  and  N_22
    2  A    between atoms: C_6  and  N_24
    3  A    between atoms: C_15  and  C_23
    4  A    between atoms: N_22  and  C_23
                            x       y       z     vdW  Elec       q    Type
                         _______ _______ _______ _____ _____    ______ ____

>  <TORSDO>
F 4

$$$$
=
 OpenBabel11052422453D

 31 34  0  0  1  0  0  0  0  0999 V2000
  161.1970  205.1010  148.8240 C   0  0  0  0  0  0  0  0  0  0  0  0
  161.6750  208.2210  150.8640 C   0  0  0  0  0  0  0  0  0  0  0  0
  161.3610  207.8570  152.2000 C   0  0  0  0  0  0  0  0  0  0  0  0
  160.6320  206.2380  153.8680 C   0  0  0  0  0  3  0  0  0  0  0  0
  161.6470  207.2650  149.7170 C   0  0  0  0  0  0  0  0  0  0  0  0
  161.7480  205.4640  147.5940 C   0  0  0  0  0  3  0  0  0  0  0  0
  160.9320  206.5660  152.5450 C   0  0  0  0  0  3  0  0  0  0  0  0
  162.3340  210.0310  149.2040 C   0  0  2  0  0  3  0  0  0  0  0  0
  160.7360  203.9420  148.9880 O   0  0  0  0  0  0  0  0  0  0  0  0
  161.9170  210.0820  152.9280 N   0  0  0  0  0  0  0  0  0  0  0  0
  160.7590  207.1980  154.8710 C   0  0  0  0  0  3  0  0  0  0  0  0
  162.6530  208.9700  148.3010 O   0  0  0  0  0  0  0  0  0  0  0  0
  162.0900  209.5450  150.6080 C   0  0  0  0  0  0  0  0  0  0  0  0
  161.1660  205.9970  149.8480 N   0  0  0  0  0  0  0  0  0  0  0  0
  161.3340  209.6660  155.8540 Cl  0  0  0  0  0  0  0  0  0  0  0  0
  162.1830  207.6670  148.4810 C   0  0  1  0  0  3  0  0  0  0  0  0
  162.2460  206.7550  147.4270 C   0  0  0  0  0  3  0  0  0  0  0  0
  162.2100  210.4550  151.6590 C   0  0  0  0  0  3  0  0  0  0  0  0
  161.4910  208.8260  153.2290 C   0  0  0  0  0  0  0  0  0  0  0  0
  161.1880  208.4890  154.5590 C   0  0  0  0  0  0  0  0  0  0  0  0
  161.1740  210.8800  148.6670 C   0  0  0  0  0  2  0  0  0  0  0  0
  161.0390  214.4330  149.5620 O   0  0  0  0  0  0  0  0  0  0  0  0
  159.0420  213.5530  151.3650 C   0  0  0  0  0  1  0  0  0  0  0  0
  159.7980  212.6870  150.4760 N   0  0  0  0  0  2  0  0  0  0  0  0
  160.7780  213.1980  149.5690 C   0  0  0  0  0  0  0  0  0  0  0  0
  161.4750  212.3090  148.6790 N   0  0  0  0  0  0  0  0  0  0  0  0
  162.6970  212.7430  148.0120 C   0  0  0  0  0  2  0  0  0  0  0  0
  161.7940  213.4790  145.7780 C   0  0  0  0  0  0  0  0  0  0  0  0
  161.7000  213.2760  144.4080 O   0  0  0  0  0  0  0  0  0  0  0  0
  161.1950  214.4530  146.3060 O   0  0  0  0  0  1  0  0  0  0  0  0
  162.5670  212.5820  146.5730 N   0  0  0  0  0  2  0  0  0  0  0  0
  1  9  2  0  0  0  0
  1 14  1  0  0  0  0
  2  3  1  0  0  0  0
  3  7  2  0  0  0  0
  3 19  1  0  0  0  0
  4 11  2  0  0  0  0
  5 14  2  0  0  0  0
  5  2  1  0  0  0  0
  6  1  1  0  0  0  0
  7  4  1  0  0  0  0
  8 21  1  6  0  0  0
  8 13  1  0  0  0  0
 10 19  1  0  0  0  0
 12 16  1  0  0  0  0
 12  8  1  0  0  0  0
 13  2  2  0  0  0  0
 13 18  1  0  0  0  0
 16 17  1  1  0  0  0
 16  5  1  0  0  0  0
 17  6  2  0  0  0  0
 18 10  2  0  0  0  0
 19 20  2  0  0  0  0
 20 11  1  0  0  0  0
 20 15  1  0  0  0  0
 21 26  1  0  0  0  0
 22 25  2  0  0  0  0
 24 23  1  0  0  0  0
 25 24  1  0  0  0  0
 26 25  1  0  0  0  0
 27 26  1  0  0  0  0
 28 30  1  0  0  0  0
 28 31  1  0  0  0  0
 29 28  2  0  0  0  0
 31 27  1  0  0  0  0
M  END
>  <MODEL>
3

>  <REMARK>
 VINA RESULT:      -7.4      3.327      5.804
  Name = 
  4 active torsions:
  status: ('A' for Active; 'I' for Inactive)
    1  A    between atoms: C_6  and  N_22
    2  A    between atoms: C_6  and  N_24
    3  A    between atoms: C_15  and  C_23
    4  A    between atoms: N_22  and  C_23
                            x       y       z     vdW  Elec       q    Type
                         _______ _______ _______ _____ _____    ______ ____

>  <TORSDO>
F 4

$$$$
=
 OpenBabel11052422453D

 31 34  0  0  1  0  0  0  0  0999 V2000
  159.9920  208.6400  155.3180 C   0  0  0  0  0  0  0  0  0  0  0  0
  161.1570  209.1140  151.7770 C   0  0  0  0  0  0  0  0  0  0  0  0
  160.9110  210.4790  151.4710 C   0  0  0  0  0  0  0  0  0  0  0  0
  160.0830  212.6930  152.0590 C   0  0  0  0  0  3  0  0  0  0  0  0
  160.8700  208.4970  153.1060 C   0  0  0  0  0  0  0  0  0  0  0  0
  160.4810  207.3690  155.6230 C   0  0  0  0  0  3  0  0  0  0  0  0
  160.3100  211.3560  152.3880 C   0  0  0  0  0  3  0  0  0  0  0  0
  161.9500  206.8250  151.0040 C   0  0  2  0  0  3  0  0  0  0  0  0
  159.3650  209.2980  156.1880 O   0  0  0  0  0  0  0  0  0  0  0  0
  161.8870  210.1600  149.2960 N   0  0  0  0  0  0  0  0  0  0  0  0
  160.4560  213.1760  150.8060 C   0  0  0  0  0  3  0  0  0  0  0  0
  162.0070  206.4700  152.3870 O   0  0  0  0  0  0  0  0  0  0  0  0
  161.7590  208.3030  150.7910 C   0  0  0  0  0  0  0  0  0  0  0  0
  160.2010  209.1730  154.0840 N   0  0  0  0  0  0  0  0  0  0  0  0
  161.5140  212.9820  148.3100 Cl  0  0  0  0  0  0  0  0  0  0  0  0
  161.3490  207.2040  153.3760 C   0  0  1  0  0  3  0  0  0  0  0  0
  161.1660  206.6510  154.6440 C   0  0  0  0  0  3  0  0  0  0  0  0
  162.1210  208.8520  149.5610 C   0  0  0  0  0  3  0  0  0  0  0  0
  161.2920  210.9820  150.2000 C   0  0  0  0  0  0  0  0  0  0  0  0
  161.0600  212.3290  149.8760 C   0  0  0  0  0  0  0  0  0  0  0  0
  160.9000  205.9850  150.2640 C   0  0  0  0  0  2  0  0  0  0  0  0
  161.7460  203.2530  147.9700 O   0  0  0  0  0  0  0  0  0  0  0  0
  160.2460  201.7030  149.8050 C   0  0  0  0  0  1  0  0  0  0  0  0
  160.4560  203.1370  149.9060 N   0  0  0  0  0  2  0  0  0  0  0  0
  161.2460  203.8590  148.9570 C   0  0  0  0  0  0  0  0  0  0  0  0
  161.4600  205.2720  149.1190 N   0  0  0  0  0  0  0  0  0  0  0  0
  161.9530  206.0740  148.0050 C   0  0  0  0  0  2  0  0  0  0  0  0
  161.1060  205.8280  145.6440 C   0  0  0  0  0  0  0  0  0  0  0  0
  160.0810  206.0010  144.7240 O   0  0  0  0  0  0  0  0  0  0  0  0
  162.1980  205.3200  145.2730 O   0  0  0  0  0  1  0  0  0  0  0  0
  160.9130  206.2270  147.0000 N   0  0  0  0  0  2  0  0  0  0  0  0
  1  6  1  0  0  0  0
  1  9  2  0  0  0  0
  2  5  1  0  0  0  0
  3  2  1  0  0  0  0
  3  7  1  0  0  0  0
  4  7  2  0  0  0  0
  5 16  1  0  0  0  0
  5 14  2  0  0  0  0
  8 21  1  1  0  0  0
  8 12  1  0  0  0  0
 10 18  2  0  0  0  0
 10 19  1  0  0  0  0
 11  4  1  0  0  0  0
 12 16  1  0  0  0  0
 13  8  1  0  0  0  0
 13  2  2  0  0  0  0
 14  1  1  0  0  0  0
 15 20  1  0  0  0  0
 16 17  1  1  0  0  0
 17  6  2  0  0  0  0
 18 13  1  0  0  0  0
 19  3  2  0  0  0  0
 20 19  1  0  0  0  0
 20 11  2  0  0  0  0
 22 25  2  0  0  0  0
 23 24  1  0  0  0  0
 25 26  1  0  0  0  0
 25 24  1  0  0  0  0
 26 21  1  0  0  0  0
 27 26  1  0  0  0  0
 28 31  1  0  0  0  0
 29 28  2  0  0  0  0
 30 28  1  0  0  0  0
 31 27  1  0  0  0  0
M  END
>  <MODEL>
4

>  <REMARK>
 VINA RESULT:      -7.3      2.969      6.756
  Name = 
  4 active torsions:
  status: ('A' for Active; 'I' for Inactive)
    1  A    between atoms: C_6  and  N_22
    2  A    between atoms: C_6  and  N_24
    3  A    between atoms: C_15  and  C_23
    4  A    between atoms: N_22  and  C_23
                            x       y       z     vdW  Elec       q    Type
                         _______ _______ _______ _____ _____    ______ ____

>  <TORSDO>
F 4

$$$$
=
 OpenBabel11052422453D

 31 34  0  0  1  0  0  0  0  0999 V2000
  160.5150  207.2860  154.6680 C   0  0  0  0  0  0  0  0  0  0  0  0
  161.1200  209.4320  151.6440 C   0  0  0  0  0  0  0  0  0  0  0  0
  160.6260  210.7200  151.9820 C   0  0  0  0  0  0  0  0  0  0  0  0
  159.5450  212.2660  153.5240 C   0  0  0  0  0  3  0  0  0  0  0  0
  161.1080  208.2680  152.5780 C   0  0  0  0  0  0  0  0  0  0  0  0
  161.2320  206.1290  154.3580 C   0  0  0  0  0  3  0  0  0  0  0  0
  160.0200  210.9890  153.2190 C   0  0  0  0  0  3  0  0  0  0  0  0
  162.1530  207.8910  149.9040 C   0  0  2  0  0  3  0  0  0  0  0  0
  159.9120  207.3750  155.7680 O   0  0  0  0  0  0  0  0  0  0  0  0
  161.3470  211.5510  149.8430 N   0  0  0  0  0  0  0  0  0  0  0  0
  159.6710  213.2970  152.5940 C   0  0  0  0  0  3  0  0  0  0  0  0
  162.4440  207.0040  150.9860 O   0  0  0  0  0  0  0  0  0  0  0  0
  161.7070  209.2510  150.3730 C   0  0  0  0  0  0  0  0  0  0  0  0
  160.4750  208.3200  153.7850 N   0  0  0  0  0  0  0  0  0  0  0  0
  160.4120  214.3900  150.2180 Cl  0  0  0  0  0  0  0  0  0  0  0  0
  161.8140  207.1040  152.2280 C   0  0  1  0  0  3  0  0  0  0  0  0
  161.8870  206.0430  153.1310 C   0  0  0  0  0  3  0  0  0  0  0  0
  161.8150  210.3280  149.4930 C   0  0  0  0  0  3  0  0  0  0  0  0
  160.7540  211.7780  151.0450 C   0  0  0  0  0  0  0  0  0  0  0  0
  160.2730  213.0610  151.3580 C   0  0  0  0  0  0  0  0  0  0  0  0
  161.1600  207.2540  148.9230 C   0  0  0  0  0  2  0  0  0  0  0  0
  161.9560  203.7390  148.2490 O   0  0  0  0  0  0  0  0  0  0  0  0
  160.4450  203.2990  150.6020 C   0  0  0  0  0  1  0  0  0  0  0  0
  160.6750  204.5990  149.9930 N   0  0  0  0  0  2  0  0  0  0  0  0
  161.4700  204.7560  148.8160 C   0  0  0  0  0  0  0  0  0  0  0  0
  161.7040  206.0670  148.2700 N   0  0  0  0  0  0  0  0  0  0  0  0
  162.2020  206.2180  146.9080 C   0  0  0  0  0  2  0  0  0  0  0  0
  161.3090  204.7290  145.0810 C   0  0  0  0  0  0  0  0  0  0  0  0
  160.2930  204.4240  144.1860 O   0  0  0  0  0  0  0  0  0  0  0  0
  162.3450  204.0130  145.1170 O   0  0  0  0  0  1  0  0  0  0  0  0
  161.1680  205.8500  145.9530 N   0  0  0  0  0  2  0  0  0  0  0  0
  1  9  2  0  0  0  0
  2  3  1  0  0  0  0
  2  5  1  0  0  0  0
  3  7  1  0  0  0  0
  5 14  2  0  0  0  0
  6  1  1  0  0  0  0
  7  4  2  0  0  0  0
  8 21  1  1  0  0  0
  8 13  1  0  0  0  0
  8 12  1  0  0  0  0
 10 19  1  0  0  0  0
 11  4  1  0  0  0  0
 12 16  1  0  0  0  0
 13  2  2  0  0  0  0
 14  1  1  0  0  0  0
 15 20  1  0  0  0  0
 16  5  1  0  0  0  0
 16 17  1  1  0  0  0
 17  6  2  0  0  0  0
 18 10  2  0  0  0  0
 18 13  1  0  0  0  0
 19 20  1  0  0  0  0
 19  3  2  0  0  0  0
 20 11  2  0  0  0  0
 22 25  2  0  0  0  0
 24 23  1  0  0  0  0
 25 24  1  0  0  0  0
 26 25  1  0  0  0  0
 26 21  1  0  0  0  0
 27 26  1  0  0  0  0
 28 30  1  0  0  0  0
 28 31  1  0  0  0  0
 29 28  2  0  0  0  0
 31 27  1  0  0  0  0
M  END
>  <MODEL>
5

>  <REMARK>
 VINA RESULT:      -7.2      3.386      6.950
  Name = 
  4 active torsions:
  status: ('A' for Active; 'I' for Inactive)
    1  A    between atoms: C_6  and  N_22
    2  A    between atoms: C_6  and  N_24
    3  A    between atoms: C_15  and  C_23
    4  A    between atoms: N_22  and  C_23
                            x       y       z     vdW  Elec       q    Type
                         _______ _______ _______ _____ _____    ______ ____

>  <TORSDO>
F 4

$$$$
=
 OpenBabel11052422453D

 31 34  0  0  1  0  0  0  0  0999 V2000
  160.3700  208.5350  154.6760 C   0  0  0  0  0  0  0  0  0  0  0  0
  161.3280  209.1510  151.0950 C   0  0  0  0  0  0  0  0  0  0  0  0
  161.1380  210.5420  150.8810 C   0  0  0  0  0  0  0  0  0  0  0  0
  160.4730  212.7580  151.6430 C   0  0  0  0  0  3  0  0  0  0  0  0
  161.0930  208.4740  152.4060 C   0  0  0  0  0  0  0  0  0  0  0  0
  160.8060  207.2240  154.8790 C   0  0  0  0  0  3  0  0  0  0  0  0
  160.6470  211.3940  151.8830 C   0  0  0  0  0  3  0  0  0  0  0  0
  161.9410  206.8720  150.1480 C   0  0  2  0  0  3  0  0  0  0  0  0
  159.8380  209.1720  155.6210 O   0  0  0  0  0  0  0  0  0  0  0  0
  161.9520  210.2990  148.6310 N   0  0  0  0  0  0  0  0  0  0  0  0
  160.7900  213.2930  150.3950 C   0  0  0  0  0  3  0  0  0  0  0  0
  162.0680  206.4360  151.5030 O   0  0  0  0  0  0  0  0  0  0  0  0
  161.8180  208.3680  150.0280 C   0  0  0  0  0  0  0  0  0  0  0  0
  160.5270  209.1260  153.4620 N   0  0  0  0  0  0  0  0  0  0  0  0
  161.6730  213.1890  147.8260 Cl  0  0  0  0  0  0  0  0  0  0  0  0
  161.5160  207.1440  152.5720 C   0  0  1  0  0  3  0  0  0  0  0  0
  161.3850  206.5300  153.8180 C   0  0  0  0  0  3  0  0  0  0  0  0
  162.1300  208.9670  148.8080 C   0  0  0  0  0  3  0  0  0  0  0  0
  161.4630  211.0970  149.6170 C   0  0  0  0  0  0  0  0  0  0  0  0
  161.2850  212.4710  149.3820 C   0  0  0  0  0  0  0  0  0  0  0  0
  160.8000  206.1310  149.4370 C   0  0  0  0  0  2  0  0  0  0  0  0
  162.0810  203.6070  147.1060 O   0  0  0  0  0  0  0  0  0  0  0  0
  162.3300  205.8290  145.3700 C   0  0  0  0  0  1  0  0  0  0  0  0
  161.8580  205.8960  146.7420 N   0  0  0  0  0  2  0  0  0  0  0  0
  161.7310  204.7310  147.5610 C   0  0  0  0  0  0  0  0  0  0  0  0
  161.2220  204.8390  148.9020 N   0  0  0  0  0  0  0  0  0  0  0  0
  161.4110  203.7490  149.8510 C   0  0  0  0  0  2  0  0  0  0  0  0
  160.0800  201.6600  149.3850 C   0  0  0  0  0  0  0  0  0  0  0  0
  158.8930  200.9530  149.5140 O   0  0  0  0  0  1  0  0  0  0  0  0
  161.0470  201.1470  148.7620 O   0  0  0  0  0  0  0  0  0  0  0  0
  160.1930  202.9610  149.9590 N   0  0  0  0  0  2  0  0  0  0  0  0
  1  6  1  0  0  0  0
  1  9  2  0  0  0  0
  2  5  1  0  0  0  0
  3  2  1  0  0  0  0
  3  7  1  0  0  0  0
  4  7  2  0  0  0  0
  5 16  1  0  0  0  0
  5 14  2  0  0  0  0
  8 21  1  1  0  0  0
  8 12  1  0  0  0  0
 10 18  2  0  0  0  0
 10 19  1  0  0  0  0
 11  4  1  0  0  0  0
 12 16  1  0  0  0  0
 13  8  1  0  0  0  0
 13  2  2  0  0  0  0
 14  1  1  0  0  0  0
 15 20  1  0  0  0  0
 16 17  1  1  0  0  0
 17  6  2  0  0  0  0
 18 13  1  0  0  0  0
 19  3  2  0  0  0  0
 20 19  1  0  0  0  0
 20 11  2  0  0  0  0
 22 25  2  0  0  0  0
 23 24  1  0  0  0  0
 24 25  1  0  0  0  0
 25 26  1  0  0  0  0
 26 21  1  0  0  0  0
 26 27  1  0  0  0  0
 27 31  1  0  0  0  0
 28 29  1  0  0  0  0
 28 31  1  0  0  0  0
 30 28  2  0  0  0  0
M  END
>  <MODEL>
6

>  <REMARK>
 VINA RESULT:      -7.2      2.867      7.341
  Name = 
  4 active torsions:
  status: ('A' for Active; 'I' for Inactive)
    1  A    between atoms: C_6  and  N_22
    2  A    between atoms: C_6  and  N_24
    3  A    between atoms: C_15  and  C_23
    4  A    between atoms: N_22  and  C_23
                            x       y       z     vdW  Elec       q    Type
                         _______ _______ _______ _____ _____    ______ ____

>  <TORSDO>
F 4

$$$$
=
 OpenBabel11052422453D

 31 34  0  0  1  0  0  0  0  0999 V2000
  161.2710  205.1650  148.7890 C   0  0  0  0  0  0  0  0  0  0  0  0
  161.7090  208.2910  150.8280 C   0  0  0  0  0  0  0  0  0  0  0  0
  161.4080  207.9220  152.1650 C   0  0  0  0  0  0  0  0  0  0  0  0
  160.7140  206.2900  153.8360 C   0  0  0  0  0  3  0  0  0  0  0  0
  161.6910  207.3350  149.6800 C   0  0  0  0  0  0  0  0  0  0  0  0
  161.8100  205.5370  147.5560 C   0  0  0  0  0  3  0  0  0  0  0  0
  161.0020  206.6230  152.5120 C   0  0  0  0  0  3  0  0  0  0  0  0
  162.3310  210.1120  149.1660 C   0  0  2  0  0  3  0  0  0  0  0  0
  160.8300  203.9990  148.9540 O   0  0  0  0  0  0  0  0  0  0  0  0
  161.9320  210.1540  152.8920 N   0  0  0  0  0  0  0  0  0  0  0  0
  160.8310  207.2520  154.8390 C   0  0  0  0  0  3  0  0  0  0  0  0
  162.6620  209.0570  148.2610 O   0  0  0  0  0  0  0  0  0  0  0  0
  162.1020  209.6220  150.5710 C   0  0  0  0  0  0  0  0  0  0  0  0
  161.2310  206.0590  149.8130 N   0  0  0  0  0  0  0  0  0  0  0  0
  161.3710  209.7280  155.8210 Cl  0  0  0  0  0  0  0  0  0  0  0  0
  162.2140  207.7470  148.4420 C   0  0  1  0  0  3  0  0  0  0  0  0
  162.2860  206.8370  147.3870 C   0  0  0  0  0  3  0  0  0  0  0  0
  162.2130  210.5330  151.6210 C   0  0  0  0  0  3  0  0  0  0  0  0
  161.5280  208.8920  153.1940 C   0  0  0  0  0  0  0  0  0  0  0  0
  161.2370  208.5490  154.5250 C   0  0  0  0  0  0  0  0  0  0  0  0
  161.1550  210.9430  148.6350 C   0  0  0  0  0  2  0  0  0  0  0  0
  162.0600  214.4150  147.8830 O   0  0  0  0  0  0  0  0  0  0  0  0
  162.7060  213.3380  145.3450 C   0  0  0  0  0  1  0  0  0  0  0  0
  162.1540  212.5780  146.4540 N   0  0  0  0  0  2  0  0  0  0  0  0
  161.8720  213.1780  147.7210 C   0  0  0  0  0  0  0  0  0  0  0  0
  161.3640  212.3780  148.8040 N   0  0  0  0  0  0  0  0  0  0  0  0
  160.7510  213.0150  149.9630 C   0  0  0  0  0  2  0  0  0  0  0  0
  158.3150  213.3280  150.5290 C   0  0  0  0  0  0  0  0  0  0  0  0
  157.0580  213.7860  150.1590 O   0  0  0  0  0  0  0  0  0  0  0  0
  158.4740  212.7830  151.6530 O   0  0  0  0  0  1  0  0  0  0  0  0
  159.4130  213.4800  149.6310 N   0  0  0  0  0  2  0  0  0  0  0  0
  1  9  2  0  0  0  0
  1 14  1  0  0  0  0
  2  3  1  0  0  0  0
  3  7  2  0  0  0  0
  3 19  1  0  0  0  0
  4 11  2  0  0  0  0
  5 14  2  0  0  0  0
  5  2  1  0  0  0  0
  6  1  1  0  0  0  0
  7  4  1  0  0  0  0
  8 21  1  6  0  0  0
  8 13  1  0  0  0  0
 10 19  1  0  0  0  0
 12 16  1  0  0  0  0
 12  8  1  0  0  0  0
 13  2  2  0  0  0  0
 13 18  1  0  0  0  0
 16 17  1  1  0  0  0
 16  5  1  0  0  0  0
 17  6  2  0  0  0  0
 18 10  2  0  0  0  0
 19 20  2  0  0  0  0
 20 11  1  0  0  0  0
 20 15  1  0  0  0  0
 21 26  1  0  0  0  0
 23 24  1  0  0  0  0
 24 25  1  0  0  0  0
 25 22  2  0  0  0  0
 25 26  1  0  0  0  0
 26 27  1  0  0  0  0
 28 30  1  0  0  0  0
 29 28  2  0  0  0  0
 31 27  1  0  0  0  0
 31 28  1  0  0  0  0
M  END
>  <MODEL>
7

>  <REMARK>
 VINA RESULT:      -7.1      3.333      6.323
  Name = 
  4 active torsions:
  status: ('A' for Active; 'I' for Inactive)
    1  A    between atoms: C_6  and  N_22
    2  A    between atoms: C_6  and  N_24
    3  A    between atoms: C_15  and  C_23
    4  A    between atoms: N_22  and  C_23
                            x       y       z     vdW  Elec       q    Type
                         _______ _______ _______ _____ _____    ______ ____

>  <TORSDO>
F 4

$$$$
=
 OpenBabel11052422453D

 31 34  0  0  1  0  0  0  0  0999 V2000
  161.7550  210.0300  148.7600 C   0  0  0  0  0  0  0  0  0  0  0  0
  161.4490  207.3280  151.3520 C   0  0  0  0  0  0  0  0  0  0  0  0
  161.2970  206.1160  150.6270 C   0  0  0  0  0  0  0  0  0  0  0  0
  161.1000  204.8750  148.5400 C   0  0  0  0  0  3  0  0  0  0  0  0
  161.6370  208.6610  150.7070 C   0  0  0  0  0  0  0  0  0  0  0  0
  162.1390  211.1330  149.5250 C   0  0  0  0  0  3  0  0  0  0  0  0
  161.2480  206.0820  149.2250 C   0  0  0  0  0  3  0  0  0  0  0  0
  161.5280  208.5190  153.5970 C   0  0  2  0  0  3  0  0  0  0  0  0
  161.6330  210.1430  147.5130 O   0  0  0  0  0  0  0  0  0  0  0  0
  161.2570  204.8910  152.6970 N   0  0  0  0  0  0  0  0  0  0  0  0
  161.0010  203.6790  149.2490 C   0  0  0  0  0  3  0  0  0  0  0  0
  162.0870  209.6300  152.8930 O   0  0  0  0  0  0  0  0  0  0  0  0
  161.4790  207.2670  152.7620 C   0  0  0  0  0  0  0  0  0  0  0  0
  161.5220  208.8320  149.3600 N   0  0  0  0  0  0  0  0  0  0  0  0
  160.9240  202.1490  151.4950 Cl  0  0  0  0  0  0  0  0  0  0  0  0
  161.9950  209.7610  151.5060 C   0  0  1  0  0  3  0  0  0  0  0  0
  162.2620  210.9920  150.9060 C   0  0  0  0  0  3  0  0  0  0  0  0
  161.3890  206.0360  153.4110 C   0  0  0  0  0  3  0  0  0  0  0  0
  161.2000  204.8920  151.3390 C   0  0  0  0  0  0  0  0  0  0  0  0
  161.0510  203.6810  150.6430 C   0  0  0  0  0  0  0  0  0  0  0  0
  160.1610  208.8780  154.1960 C   0  0  0  0  0  2  0  0  0  0  0  0
  161.0820  211.7110  156.3330 O   0  0  0  0  0  0  0  0  0  0  0  0
  163.0790  209.9290  157.2540 C   0  0  0  0  0  1  0  0  0  0  0  0
  162.1120  209.6260  156.2120 N   0  0  0  0  0  2  0  0  0  0  0  0
  161.1110  210.5640  155.8090 C   0  0  0  0  0  0  0  0  0  0  0  0
  160.1490  210.2080  154.8000 N   0  0  0  0  0  0  0  0  0  0  0  0
  159.3610  211.2400  154.1370 C   0  0  0  0  0  2  0  0  0  0  0  0
  157.0300  212.1890  154.2710 C   0  0  0  0  0  0  0  0  0  0  0  0
  155.7150  212.0560  154.6920 O   0  0  0  0  0  1  0  0  0  0  0  0
  157.3830  213.2240  153.6440 O   0  0  0  0  0  0  0  0  0  0  0  0
  157.9700  211.1530  154.5510 N   0  0  0  0  0  2  0  0  0  0  0  0
  1 14  1  0  0  0  0
  1  6  1  0  0  0  0
  2 13  1  0  0  0  0
  3 19  1  0  0  0  0
  3  2  2  0  0  0  0
  4  7  2  0  0  0  0
  4 11  1  0  0  0  0
  5  2  1  0  0  0  0
  5 16  1  0  0  0  0
  6 17  2  0  0  0  0
  7  3  1  0  0  0  0
  8 21  1  6  0  0  0
  9  1  2  0  0  0  0
 10 18  1  0  0  0  0
 11 20  2  0  0  0  0
 12  8  1  0  0  0  0
 13 18  2  0  0  0  0
 13  8  1  0  0  0  0
 14  5  2  0  0  0  0
 16 17  1  6  0  0  0
 16 12  1  0  0  0  0
 19 10  2  0  0  0  0
 20 19  1  0  0  0  0
 20 15  1  0  0  0  0
 21 26  1  0  0  0  0
 24 23  1  0  0  0  0
 25 24  1  0  0  0  0
 25 22  2  0  0  0  0
 26 25  1  0  0  0  0
 27 31  1  0  0  0  0
 27 26  1  0  0  0  0
 28 31  1  0  0  0  0
 28 29  1  0  0  0  0
 30 28  2  0  0  0  0
M  END
>  <MODEL>
8

>  <REMARK>
 VINA RESULT:      -6.5      3.071      5.817
  Name = 
  4 active torsions:
  status: ('A' for Active; 'I' for Inactive)
    1  A    between atoms: C_6  and  N_22
    2  A    between atoms: C_6  and  N_24
    3  A    between atoms: C_15  and  C_23
    4  A    between atoms: N_22  and  C_23
                            x       y       z     vdW  Elec       q    Type
                         _______ _______ _______ _____ _____    ______ ____

>  <TORSDO>
F 4

$$$$
=
 OpenBabel11052422453D

 31 34  0  0  1  0  0  0  0  0999 V2000
  161.2230  203.8300  146.1290 C   0  0  0  0  0  0  0  0  0  0  0  0
  161.7410  205.8640  149.2460 C   0  0  0  0  0  0  0  0  0  0  0  0
  161.3400  205.0270  150.3210 C   0  0  0  0  0  0  0  0  0  0  0  0
  160.4470  202.9350  151.1930 C   0  0  0  0  0  3  0  0  0  0  0  0
  161.7290  205.4380  147.8150 C   0  0  0  0  0  0  0  0  0  0  0  0
  161.8560  204.6090  145.1580 C   0  0  0  0  0  3  0  0  0  0  0  0
  160.8320  203.7350  150.1160 C   0  0  0  0  0  3  0  0  0  0  0  0
  162.5740  208.1320  148.4540 C   0  0  2  0  0  3  0  0  0  0  0  0
  160.7000  202.7320  145.8090 O   0  0  0  0  0  0  0  0  0  0  0  0
  161.9620  206.7470  151.8820 N   0  0  0  0  0  0  0  0  0  0  0  0
  160.5660  203.4150  152.4960 C   0  0  0  0  0  3  0  0  0  0  0  0
  162.8890  207.4910  147.2170 O   0  0  0  0  0  0  0  0  0  0  0  0
  162.2330  207.1520  149.5460 C   0  0  0  0  0  0  0  0  0  0  0  0
  161.1810  204.2530  147.4210 N   0  0  0  0  0  0  0  0  0  0  0  0
  161.2060  205.2580  154.3900 Cl  0  0  0  0  0  0  0  0  0  0  0  0
  162.3480  206.2560  146.8540 C   0  0  1  0  0  3  0  0  0  0  0  0
  162.4230  205.8270  145.5290 C   0  0  0  0  0  3  0  0  0  0  0  0
  162.3400  207.5680  150.8720 C   0  0  0  0  0  3  0  0  0  0  0  0
  161.4620  205.5050  151.6510 C   0  0  0  0  0  0  0  0  0  0  0  0
  161.0720  204.6940  152.7310 C   0  0  0  0  0  0  0  0  0  0  0  0
  161.4860  209.1970  148.2610 C   0  0  0  0  0  2  0  0  0  0  0  0
  161.9320  212.8290  148.4940 O   0  0  0  0  0  0  0  0  0  0  0  0
  160.5220  212.8170  146.0390 C   0  0  0  0  0  1  0  0  0  0  0  0
  160.8310  211.6350  146.8250 N   0  0  0  0  0  2  0  0  0  0  0  0
  161.5700  211.7060  148.0470 C   0  0  0  0  0  0  0  0  0  0  0  0
  161.8870  210.5050  148.7730 N   0  0  0  0  0  0  0  0  0  0  0  0
  162.3190  210.5780  150.1640 C   0  0  0  0  0  2  0  0  0  0  0  0
  161.1960  210.7080  152.4160 C   0  0  0  0  0  0  0  0  0  0  0  0
  160.1060  211.1010  153.1800 O   0  0  0  0  0  1  0  0  0  0  0  0
  162.1660  210.1230  152.9670 O   0  0  0  0  0  0  0  0  0  0  0  0
  161.2060  210.9710  151.0140 N   0  0  0  0  0  2  0  0  0  0  0  0
  1 14  1  0  0  0  0
  2 13  2  0  0  0  0
  2  3  1  0  0  0  0
  3 19  1  0  0  0  0
  4 11  2  0  0  0  0
  5  2  1  0  0  0  0
  6 17  2  0  0  0  0
  6  1  1  0  0  0  0
  7  3  2  0  0  0  0
  7  4  1  0  0  0  0
  8 21  1  6  0  0  0
  8 13  1  0  0  0  0
  9  1  2  0  0  0  0
 11 20  1  0  0  0  0
 12  8  1  0  0  0  0
 13 18  1  0  0  0  0
 14  5  2  0  0  0  0
 16 17  1  1  0  0  0
 16 12  1  0  0  0  0
 16  5  1  0  0  0  0
 18 10  2  0  0  0  0
 19 10  1  0  0  0  0
 19 20  2  0  0  0  0
 20 15  1  0  0  0  0
 21 26  1  0  0  0  0
 23 24  1  0  0  0  0
 24 25  1  0  0  0  0
 25 22  2  0  0  0  0
 25 26  1  0  0  0  0
 26 27  1  0  0  0  0
 27 31  1  0  0  0  0
 28 30  2  0  0  0  0
 28 29  1  0  0  0  0
 31 28  1  0  0  0  0
M  END
>  <MODEL>
9

>  <REMARK>
 VINA RESULT:      -6.2      2.732      5.343
  Name = 
  4 active torsions:
  status: ('A' for Active; 'I' for Inactive)
    1  A    between atoms: C_6  and  N_22
    2  A    between atoms: C_6  and  N_24
    3  A    between atoms: C_15  and  C_23
    4  A    between atoms: N_22  and  C_23
                            x       y       z     vdW  Elec       q    Type
                         _______ _______ _______ _____ _____    ______ ____

>  <TORSDO>
F 4

$$$$
