=
 OpenBabel11062408583D

 55 59  0  0  1  0  0  0  0  0999 V2000
  160.9100  207.9830  153.7200 O   0  0  0  0  0  0  0  0  0  0  0  0
  162.1730  209.6600  152.6840 N   0  0  0  0  0  0  0  0  0  0  0  0
  161.9680  207.3360  153.0760 C   0  0  0  0  0  2  0  0  0  0  0  0
  160.8430  209.2500  153.1170 C   0  0  2  0  0  3  0  0  0  0  0  0
  162.8750  208.4010  152.5200 C   0  0  0  0  0  2  0  0  0  0  0  0
  162.0270  210.2730  151.3710 C   0  0  0  0  0  2  0  0  0  0  0  0
  161.2200  209.3670  150.4470 C   0  0  0  0  0  2  0  0  0  0  0  0
  161.5960  208.7510  148.0180 C   0  0  0  0  0  1  0  0  0  0  0  0
  162.1180  208.6400  149.4470 C   0  0  2  0  0  3  0  0  0  0  0  0
  162.2890  207.1760  149.8500 C   0  0  0  0  0  2  0  0  0  0  0  0
  160.9520  206.4690  150.0380 C   0  0  0  0  0  2  0  0  0  0  0  0
  162.3250  204.4770  151.2120 O   0  0  0  0  0  0  0  0  0  0  0  0
  161.1950  204.7200  150.2510 S   0  0  0  0  0  0  0  0  0  0  0  0
  159.9410  204.1030  150.7990 O   0  0  0  0  0  0  0  0  0  0  0  0
  161.0340  204.4800  147.4930 C   0  0  0  0  0  0  0  0  0  0  0  0
  160.2000  205.4240  147.5070 O   0  0  0  0  0  0  0  0  0  0  0  0
  161.5680  203.9880  148.7270 N   0  0  0  0  0  2  0  0  0  0  0  0
  161.3790  203.7890  146.1830 C   0  0  2  0  0  0  0  0  0  0  0  0
  159.7000  201.8870  145.1010 O   0  0  0  0  0  1  0  0  0  0  0  0
  160.5090  201.8360  147.4020 C   0  0  1  0  0  3  0  0  0  0  0  0
  161.2870  200.0450  145.6550 C   0  0  0  0  0  1  0  0  0  0  0  0
  160.6300  201.3710  146.0100 C   0  0  1  0  0  0  0  0  0  0  0  0
  161.1010  200.8760  148.4230 C   0  0  0  0  0  1  0  0  0  0  0  0
  161.6000  202.3620  146.5420 N   0  0  0  0  0  0  0  0  0  0  0  0
  163.7680  204.5580  146.6810 C   0  0  0  0  0  2  0  0  0  0  0  0
  163.0310  205.6110  146.1110 O   0  0  0  0  0  0  0  0  0  0  0  0
  162.7410  204.3150  145.6380 C   0  0  2  0  0  3  0  0  0  0  0  0
  160.3210  203.9390  145.2310 O   0  0  0  0  0  0  0  0  0  0  0  0
  160.7410  204.7110  144.2450 O   0  0  0  0  0  1  0  0  0  0  0  0
  160.2190  210.2750  154.0680 C   0  0  1  0  0  3  0  0  0  0  0  0
  159.2030  210.9640  153.4000 O   0  0  0  0  0  0  0  0  0  0  0  0
  155.1730  212.8350  154.6190 C   0  0  0  0  0  1  0  0  0  0  0  0
  157.1130  214.2280  154.9980 C   0  0  2  0  0  3  0  0  0  0  0  0
  156.5730  213.0530  154.2820 N   0  0  0  0  0  0  0  0  0  0  0  0
  159.1890  213.3950  153.7220 C   0  0  1  0  0  3  0  0  0  0  0  0
  158.6030  214.4530  154.6840 C   0  0  0  0  0  2  0  0  0  0  0  0
  157.3260  211.8450  154.6180 C   0  0  0  0  0  2  0  0  0  0  0  0
  158.8160  211.9920  154.2660 C   0  0  1  0  0  3  0  0  0  0  0  0
  159.6640  214.4430  151.5960 C   0  0  0  0  0  2  0  0  0  0  0  0
  158.8450  212.3000  151.6390 C   0  0  0  0  0  2  0  0  0  0  0  0
  159.1110  212.5870  150.1800 C   0  0  0  0  0  2  0  0  0  0  0  0
  159.7060  213.9750  150.1580 C   0  0  2  0  0  3  0  0  0  0  0  0
  158.7350  213.5820  152.3270 N   0  0  1  0  0  0  0  0  0  0  0  0
  161.0570  213.9320  149.7180 O   0  0  0  0  0  0  0  0  0  0  0  0
  161.4130  213.5410  148.4250 C   0  0  0  0  0  0  0  0  0  0  0  0
  162.1340  214.4450  147.5970 N   0  0  0  0  0  1  0  0  0  0  0  0
  161.1000  212.4030  147.9820 O   0  0  0  0  0  0  0  0  0  0  0  0
  157.8920  214.2740  157.2590 O   0  0  0  0  0  1  0  0  0  0  0  0
  156.9010  214.1860  156.4880 C   0  0  0  0  0  0  0  0  0  0  0  0
  155.6230  214.0710  157.0210 O   0  0  0  0  0  0  0  0  0  0  0  0
  159.6460  209.6170  155.3230 C   0  0  0  0  0  2  0  0  0  0  0  0
  161.6730  210.7940  156.1000 C   0  0  0  0  0  1  0  0  0  0  0  0
  160.5270  209.8970  156.5280 C   0  0  2  0  0  3  0  0  0  0  0  0
  161.0730  208.5910  157.0860 C   0  0  0  0  0  2  0  0  0  0  0  0
  160.0730  207.4680  156.8890 C   0  0  0  0  0  1  0  0  0  0  0  0
  2  4  1  0  0  0  0
  3  1  1  0  0  0  0
  4  1  1  0  0  0  0
  4 30  1  1  0  0  0
  5  2  1  0  0  0  0
  5  3  1  0  0  0  0
  6  2  1  0  0  0  0
  7  6  1  0  0  0  0
  9  8  1  6  0  0  0
  9 10  1  0  0  0  0
  9  7  1  0  0  0  0
 10 11  1  0  0  0  0
 11 13  1  0  0  0  0
 13 14  2  0  0  0  0
 13 12  2  0  0  0  0
 15 16  2  0  0  0  0
 15 17  1  0  0  0  0
 17 13  1  0  0  0  0
 18 28  1  6  0  0  0
 18 24  1  0  0  0  0
 18 15  1  0  0  0  0
 19 22  1  0  0  0  0
 20 23  1  1  0  0  0
 22 21  1  6  0  0  0
 22 24  1  0  0  0  0
 22 20  1  0  0  0  0
 24 20  1  0  0  0  0
 26 25  1  0  0  0  0
 27 26  1  0  0  0  0
 27 18  1  1  0  0  0
 27 25  1  0  0  0  0
 29 28  1  0  0  0  0
 30 51  1  1  0  0  0
 31 30  1  0  0  0  0
 33 49  1  1  0  0  0
 34 37  1  0  0  0  0
 34 32  1  0  0  0  0
 34 33  1  0  0  0  0
 35 38  1  0  0  0  0
 35 36  1  1  0  0  0
 36 33  1  0  0  0  0
 38 31  1  6  0  0  0
 38 37  1  0  0  0  0
 40 43  1  0  0  0  0
 41 40  1  0  0  0  0
 42 44  1  1  0  0  0
 42 41  1  0  0  0  0
 42 39  1  0  0  0  0
 43 39  1  6  0  0  0
 43 35  1  0  0  0  0
 45 44  1  0  0  0  0
 46 45  1  0  0  0  0
 47 45  2  0  0  0  0
 49 50  2  0  0  0  0
 49 48  1  0  0  0  0
 51 53  1  0  0  0  0
 53 52  1  6  0  0  0
 53 54  1  0  0  0  0
 55 54  1  0  0  0  0
M  END
>  <MODEL>
1

>  <REMARK>
 VINA RESULT:      -2.6      0.000      0.000
  Name = 
  21 active torsions:
  status: ('A' for Active; 'I' for Inactive)
    1  A    between atoms: C_1  and  C_21
    2  A    between atoms: C_1  and  O_29
    3  A    between atoms: C_1  and  C_38
    4  A    between atoms: C_1  and  N_53
    5  A    between atoms: C_2  and  C_19
    6  A    between atoms: C_2  and  O_28
    7  A    between atoms: C_2  and  C_44
    8  A    between atoms: C_4  and  C_40
    9  A    between atoms: C_8  and  S_20
   10  A    between atoms: C_8  and  C_43
   11  A    between atoms: C_10  and  O_32
   12  A    between atoms: C_16  and  C_17
   13  A    between atoms: C_19  and  C_40
   14  A    between atoms: S_20  and  N_42
   15  A    between atoms: N_27  and  C_31
   16  A    between atoms: O_28  and  C_49
   17  A    between atoms: C_31  and  C_54
   18  A    between atoms: O_32  and  C_48
   19  A    between atoms: C_33  and  N_52
   20  A    between atoms: C_43  and  C_51
   21  A    between atoms: C_51  and  C_54
                            x       y       z     vdW  Elec       q    Type
                         _______ _______ _______ _____ _____    ______ ____

>  <TORSDO>
F 21

$$$$
=
 OpenBabel11062408583D

 55 59  0  0  1  0  0  0  0  0999 V2000
  163.4290  206.3250  151.2860 O   0  0  0  0  0  0  0  0  0  0  0  0
  161.1570  206.1210  151.8140 N   0  0  0  0  0  0  0  0  0  0  0  0
  163.3630  205.5400  152.4400 C   0  0  0  0  0  2  0  0  0  0  0  0
  162.1820  206.9700  151.2190 C   0  0  2  0  0  3  0  0  0  0  0  0
  161.9080  205.2750  152.7210 C   0  0  0  0  0  2  0  0  0  0  0  0
  160.2940  206.9840  152.6090 C   0  0  0  0  0  2  0  0  0  0  0  0
  160.7290  206.9720  154.0710 C   0  0  0  0  0  2  0  0  0  0  0  0
  162.1600  209.0610  153.9990 C   0  0  0  0  0  1  0  0  0  0  0  0
  160.9350  208.3860  154.6090 C   0  0  2  0  0  3  0  0  0  0  0  0
  161.0270  208.3700  156.1340 C   0  0  0  0  0  2  0  0  0  0  0  0
  162.0650  209.3540  156.6600 C   0  0  0  0  0  2  0  0  0  0  0  0
  162.1110  211.9760  157.2570 O   0  0  0  0  0  0  0  0  0  0  0  0
  161.6360  211.0190  156.2000 S   0  0  0  0  0  0  0  0  0  0  0  0
  162.2910  211.3620  154.8930 O   0  0  0  0  0  0  0  0  0  0  0  0
  159.2370  212.4070  156.1740 C   0  0  0  0  0  0  0  0  0  0  0  0
  159.8810  213.4330  156.5180 O   0  0  0  0  0  0  0  0  0  0  0  0
  159.9190  211.1580  156.0270 N   0  0  0  0  0  2  0  0  0  0  0  0
  157.7240  212.4710  156.0310 C   0  0  2  0  0  0  0  0  0  0  0  0
  155.6130  211.8830  154.3550 O   0  0  0  0  0  1  0  0  0  0  0  0
  157.7880  212.6720  153.5780 C   0  0  1  0  0  3  0  0  0  0  0  0
  155.6500  214.1710  153.3620 C   0  0  0  0  0  1  0  0  0  0  0  0
  156.3890  212.9670  153.9300 C   0  0  1  0  0  0  0  0  0  0  0  0
  158.4040  213.6740  152.6140 C   0  0  0  0  0  1  0  0  0  0  0  0
  157.4800  213.3570  154.8600 N   0  0  0  0  0  0  0  0  0  0  0  0
  155.6230  213.3580  157.1920 C   0  0  0  0  0  2  0  0  0  0  0  0
  156.4990  214.4200  156.9010 O   0  0  0  0  0  0  0  0  0  0  0  0
  157.0960  213.1950  157.2600 C   0  0  2  0  0  3  0  0  0  0  0  0
  157.1730  211.1660  155.8310 O   0  0  0  0  0  0  0  0  0  0  0  0
  156.8280  210.6650  157.0040 O   0  0  0  0  0  1  0  0  0  0  0  0
  161.8380  207.3410  149.7740 C   0  0  1  0  0  3  0  0  0  0  0  0
  160.9500  206.3940  149.2550 O   0  0  0  0  0  0  0  0  0  0  0  0
  159.2070  205.5350  145.0780 C   0  0  0  0  0  1  0  0  0  0  0  0
  161.3780  204.5620  145.5080 C   0  0  2  0  0  3  0  0  0  0  0  0
  160.1650  205.1550  146.1070 N   0  0  0  0  0  0  0  0  0  0  0  0
  161.9690  204.5400  148.0150 C   0  0  1  0  0  3  0  0  0  0  0  0
  162.4200  204.1890  146.5790 C   0  0  0  0  0  2  0  0  0  0  0  0
  160.4970  206.3430  146.8930 C   0  0  0  0  0  2  0  0  0  0  0  0
  161.4900  206.0140  148.0210 C   0  0  1  0  0  3  0  0  0  0  0  0
  160.7290  202.5070  147.5980 C   0  0  0  0  0  2  0  0  0  0  0  0
  161.4410  202.9780  149.7290 C   0  0  0  0  0  2  0  0  0  0  0  0
  160.8010  201.6130  149.8230 C   0  0  0  0  0  2  0  0  0  0  0  0
  160.3870  201.2770  148.4110 C   0  0  2  0  0  3  0  0  0  0  0  0
  160.9280  203.6220  148.5240 N   0  0  1  0  0  0  0  0  0  0  0  0
  161.1330  200.1700  147.9220 O   0  0  0  0  0  0  0  0  0  0  0  0
  161.3440  199.9510  146.5580 C   0  0  0  0  0  0  0  0  0  0  0  0
  161.6910  198.6480  146.1070 N   0  0  0  0  0  1  0  0  0  0  0  0
  161.2370  200.8930  145.7260 O   0  0  0  0  0  0  0  0  0  0  0  0
  163.0080  206.1350  144.7380 O   0  0  0  0  0  1  0  0  0  0  0  0
  162.0160  205.4170  144.4450 C   0  0  0  0  0  0  0  0  0  0  0  0
  161.5330  205.4090  143.1420 O   0  0  0  0  0  0  0  0  0  0  0  0
  161.2130  208.7320  149.6730 C   0  0  0  0  0  2  0  0  0  0  0  0
  161.8140  210.8610  150.7710 C   0  0  0  0  0  1  0  0  0  0  0  0
  162.2790  209.8100  149.7800 C   0  0  2  0  0  3  0  0  0  0  0  0
  162.5090  210.4500  148.4190 C   0  0  0  0  0  2  0  0  0  0  0  0
  162.8560  211.9180  148.5720 C   0  0  0  0  0  1  0  0  0  0  0  0
  1  3  1  0  0  0  0
  2  6  1  0  0  0  0
  2  5  1  0  0  0  0
  3  5  1  0  0  0  0
  4 30  1  6  0  0  0
  4  1  1  0  0  0  0
  4  2  1  0  0  0  0
  6  7  1  0  0  0  0
  7  9  1  0  0  0  0
  9  8  1  6  0  0  0
  9 10  1  0  0  0  0
 10 11  1  0  0  0  0
 13 11  1  0  0  0  0
 13 12  2  0  0  0  0
 14 13  2  0  0  0  0
 15 16  2  0  0  0  0
 17 15  1  0  0  0  0
 17 13  1  0  0  0  0
 18 28  1  6  0  0  0
 18 15  1  0  0  0  0
 20 23  1  6  0  0  0
 20 22  1  0  0  0  0
 20 24  1  0  0  0  0
 22 21  1  6  0  0  0
 22 19  1  0  0  0  0
 22 24  1  0  0  0  0
 24 18  1  0  0  0  0
 25 27  1  0  0  0  0
 26 25  1  0  0  0  0
 26 27  1  0  0  0  0
 27 18  1  6  0  0  0
 28 29  1  0  0  0  0
 30 51  1  1  0  0  0
 31 30  1  0  0  0  0
 32 34  1  0  0  0  0
 33 49  1  6  0  0  0
 33 34  1  0  0  0  0
 33 36  1  0  0  0  0
 34 37  1  0  0  0  0
 35 36  1  6  0  0  0
 35 38  1  0  0  0  0
 35 43  1  0  0  0  0
 37 38  1  0  0  0  0
 38 31  1  1  0  0  0
 39 42  1  0  0  0  0
 40 41  1  0  0  0  0
 42 44  1  6  0  0  0
 42 41  1  0  0  0  0
 43 39  1  6  0  0  0
 43 40  1  0  0  0  0
 45 44  1  0  0  0  0
 46 45  1  0  0  0  0
 47 45  2  0  0  0  0
 49 48  1  0  0  0  0
 50 49  2  0  0  0  0
 51 53  1  0  0  0  0
 53 52  1  1  0  0  0
 54 55  1  0  0  0  0
 54 53  1  0  0  0  0
M  END
>  <MODEL>
2

>  <REMARK>
 VINA RESULT:      -2.1      2.703     11.322
  Name = 
  21 active torsions:
  status: ('A' for Active; 'I' for Inactive)
    1  A    between atoms: C_1  and  C_21
    2  A    between atoms: C_1  and  O_29
    3  A    between atoms: C_1  and  C_38
    4  A    between atoms: C_1  and  N_53
    5  A    between atoms: C_2  and  C_19
    6  A    between atoms: C_2  and  O_28
    7  A    between atoms: C_2  and  C_44
    8  A    between atoms: C_4  and  C_40
    9  A    between atoms: C_8  and  S_20
   10  A    between atoms: C_8  and  C_43
   11  A    between atoms: C_10  and  O_32
   12  A    between atoms: C_16  and  C_17
   13  A    between atoms: C_19  and  C_40
   14  A    between atoms: S_20  and  N_42
   15  A    between atoms: N_27  and  C_31
   16  A    between atoms: O_28  and  C_49
   17  A    between atoms: C_31  and  C_54
   18  A    between atoms: O_32  and  C_48
   19  A    between atoms: C_33  and  N_52
   20  A    between atoms: C_43  and  C_51
   21  A    between atoms: C_51  and  C_54
                            x       y       z     vdW  Elec       q    Type
                         _______ _______ _______ _____ _____    ______ ____

>  <TORSDO>
F 21

$$$$
=
 OpenBabel11062408583D

 55 59  0  0  1  0  0  0  0  0999 V2000
  161.7040  211.7910  151.2340 O   0  0  0  0  0  0  0  0  0  0  0  0
  160.6530  209.7030  151.1050 N   0  0  0  0  0  0  0  0  0  0  0  0
  162.6370  210.9160  150.6710 C   0  0  0  0  0  2  0  0  0  0  0  0
  160.7500  210.9560  151.8420 C   0  0  2  0  0  3  0  0  0  0  0  0
  161.9400  209.6010  150.4450 C   0  0  0  0  0  2  0  0  0  0  0  0
  160.5600  208.6330  152.0880 C   0  0  0  0  0  2  0  0  0  0  0  0
  161.5300  207.5070  151.7440 C   0  0  0  0  0  2  0  0  0  0  0  0
  161.1730  205.3080  152.9480 C   0  0  0  0  0  1  0  0  0  0  0  0
  160.8320  206.1490  151.7230 C   0  0  2  0  0  3  0  0  0  0  0  0
  161.1680  205.3960  150.4360 C   0  0  0  0  0  2  0  0  0  0  0  0
  161.8800  206.2800  149.4200 C   0  0  0  0  0  2  0  0  0  0  0  0
  160.5160  206.7860  147.1580 O   0  0  0  0  0  0  0  0  0  0  0  0
  161.4620  205.7870  147.7620 S   0  0  0  0  0  0  0  0  0  0  0  0
  162.7090  205.7230  146.9290 O   0  0  0  0  0  0  0  0  0  0  0  0
  161.4760  203.0150  147.8240 C   0  0  0  0  0  0  0  0  0  0  0  0
  162.7330  203.0660  147.7600 O   0  0  0  0  0  0  0  0  0  0  0  0
  160.7140  204.2260  147.7840 N   0  0  0  0  0  2  0  0  0  0  0  0
  160.7690  201.6680  147.8230 C   0  0  2  0  0  0  0  0  0  0  0  0
  161.1680  199.6660  145.9680 O   0  0  0  0  0  1  0  0  0  0  0  0
  160.7360  201.9960  145.3830 C   0  0  1  0  0  3  0  0  0  0  0  0
  158.9750  200.1240  144.8730 C   0  0  0  0  0  1  0  0  0  0  0  0
  160.2300  200.6260  145.5730 C   0  0  1  0  0  0  0  0  0  0  0  0
  159.8900  202.8380  144.4400 C   0  0  0  0  0  1  0  0  0  0  0  0
  159.9350  201.6670  146.5910 N   0  0  0  0  0  0  0  0  0  0  0  0
  160.3830  201.8550  150.3450 C   0  0  0  0  0  2  0  0  0  0  0  0
  160.1180  200.5440  149.9120 O   0  0  0  0  0  0  0  0  0  0  0  0
  159.7760  201.5800  149.0200 C   0  0  2  0  0  3  0  0  0  0  0  0
  161.7150  200.5940  147.8240 O   0  0  0  0  0  0  0  0  0  0  0  0
  162.7840  200.9670  148.5050 O   0  0  0  0  0  1  0  0  0  0  0  0
  159.3940  211.6610  151.9410 C   0  0  1  0  0  3  0  0  0  0  0  0
  158.8070  211.3550  153.1730 O   0  0  0  0  0  0  0  0  0  0  0  0
  160.2480  208.4360  156.4330 C   0  0  0  0  0  1  0  0  0  0  0  0
  160.9840  210.7240  156.7000 C   0  0  2  0  0  3  0  0  0  0  0  0
  160.0160  209.8200  156.0430 N   0  0  0  0  0  0  0  0  0  0  0  0
  159.6370  212.3680  155.2460 C   0  0  1  0  0  3  0  0  0  0  0  0
  160.7790  212.1880  156.2710 C   0  0  0  0  0  2  0  0  0  0  0  0
  160.1160  209.9160  154.5870 C   0  0  0  0  0  2  0  0  0  0  0  0
  159.8570  211.3510  154.0970 C   0  0  1  0  0  3  0  0  0  0  0  0
  157.3460  213.1410  155.2280 C   0  0  0  0  0  2  0  0  0  0  0  0
  157.7800  210.9050  155.5110 C   0  0  0  0  0  2  0  0  0  0  0  0
  156.2740  211.0070  155.4560 C   0  0  0  0  0  2  0  0  0  0  0  0
  155.9900  212.4690  155.2090 C   0  0  2  0  0  3  0  0  0  0  0  0
  158.2970  212.2250  155.8570 N   0  0  1  0  0  0  0  0  0  0  0  0
  155.3940  212.6530  153.9310 O   0  0  0  0  0  0  0  0  0  0  0  0
  154.8230  213.8660  153.5380 C   0  0  0  0  0  0  0  0  0  0  0  0
  155.2120  214.4510  152.3010 N   0  0  0  0  0  1  0  0  0  0  0  0
  153.9740  214.4500  154.2660 O   0  0  0  0  0  0  0  0  0  0  0  0
  163.1950  211.0860  155.8620 O   0  0  0  0  0  0  0  0  0  0  0  0
  162.4220  210.3260  156.5030 C   0  0  0  0  0  0  0  0  0  0  0  0
  162.9100  209.1390  157.0350 O   0  0  0  0  0  1  0  0  0  0  0  0
  159.5240  213.1760  151.8030 C   0  0  0  0  0  2  0  0  0  0  0  0
  157.5710  212.8710  150.3230 C   0  0  0  0  0  1  0  0  0  0  0  0
  158.8500  213.6610  150.5300 C   0  0  2  0  0  3  0  0  0  0  0  0
  159.7780  213.4610  149.3420 C   0  0  0  0  0  2  0  0  0  0  0  0
  159.0000  213.5210  148.0420 C   0  0  0  0  0  1  0  0  0  0  0  0
  1  4  1  0  0  0  0
  2  4  1  0  0  0  0
  2  6  1  0  0  0  0
  3  1  1  0  0  0  0
  4 30  1  6  0  0  0
  5  3  1  0  0  0  0
  5  2  1  0  0  0  0
  7  6  1  0  0  0  0
  9  7  1  0  0  0  0
  9  8  1  1  0  0  0
 10  9  1  0  0  0  0
 11 10  1  0  0  0  0
 12 13  2  0  0  0  0
 13 17  1  0  0  0  0
 13 11  1  0  0  0  0
 14 13  2  0  0  0  0
 16 15  2  0  0  0  0
 17 15  1  0  0  0  0
 18 28  1  1  0  0  0
 18 15  1  0  0  0  0
 20 23  1  6  0  0  0
 20 22  1  0  0  0  0
 20 24  1  0  0  0  0
 22 21  1  6  0  0  0
 22 19  1  0  0  0  0
 22 24  1  0  0  0  0
 24 18  1  0  0  0  0
 26 25  1  0  0  0  0
 27 18  1  6  0  0  0
 27 26  1  0  0  0  0
 27 25  1  0  0  0  0
 28 29  1  0  0  0  0
 30 51  1  1  0  0  0
 30 31  1  0  0  0  0
 33 49  1  6  0  0  0
 34 32  1  0  0  0  0
 34 33  1  0  0  0  0
 35 43  1  0  0  0  0
 35 36  1  1  0  0  0
 36 33  1  0  0  0  0
 37 34  1  0  0  0  0
 38 31  1  6  0  0  0
 38 37  1  0  0  0  0
 38 35  1  0  0  0  0
 40 43  1  0  0  0  0
 41 40  1  0  0  0  0
 42 44  1  6  0  0  0
 42 39  1  0  0  0  0
 42 41  1  0  0  0  0
 43 39  1  6  0  0  0
 45 44  1  0  0  0  0
 45 47  2  0  0  0  0
 46 45  1  0  0  0  0
 48 49  2  0  0  0  0
 49 50  1  0  0  0  0
 53 52  1  6  0  0  0
 53 51  1  0  0  0  0
 54 53  1  0  0  0  0
 55 54  1  0  0  0  0
M  END
>  <MODEL>
3

>  <REMARK>
 VINA RESULT:      -1.2      2.243      5.166
  Name = 
  21 active torsions:
  status: ('A' for Active; 'I' for Inactive)
    1  A    between atoms: C_1  and  C_21
    2  A    between atoms: C_1  and  O_29
    3  A    between atoms: C_1  and  C_38
    4  A    between atoms: C_1  and  N_53
    5  A    between atoms: C_2  and  C_19
    6  A    between atoms: C_2  and  O_28
    7  A    between atoms: C_2  and  C_44
    8  A    between atoms: C_4  and  C_40
    9  A    between atoms: C_8  and  S_20
   10  A    between atoms: C_8  and  C_43
   11  A    between atoms: C_10  and  O_32
   12  A    between atoms: C_16  and  C_17
   13  A    between atoms: C_19  and  C_40
   14  A    between atoms: S_20  and  N_42
   15  A    between atoms: N_27  and  C_31
   16  A    between atoms: O_28  and  C_49
   17  A    between atoms: C_31  and  C_54
   18  A    between atoms: O_32  and  C_48
   19  A    between atoms: C_33  and  N_52
   20  A    between atoms: C_43  and  C_51
   21  A    between atoms: C_51  and  C_54
                            x       y       z     vdW  Elec       q    Type
                         _______ _______ _______ _____ _____    ______ ____

>  <TORSDO>
F 21

$$$$
=
 OpenBabel11062408583D

 55 59  0  0  1  0  0  0  0  0999 V2000
  162.9310  209.8870  150.9560 O   0  0  0  0  0  0  0  0  0  0  0  0
  160.8250  210.9000  150.8220 N   0  0  0  0  0  0  0  0  0  0  0  0
  162.6010  210.2800  152.2560 C   0  0  0  0  0  2  0  0  0  0  0  0
  162.0790  210.6360  150.1270 C   0  0  2  0  0  3  0  0  0  0  0  0
  161.1910  210.8060  152.2220 C   0  0  0  0  0  2  0  0  0  0  0  0
  160.4610  212.2830  150.5400 C   0  0  0  0  0  2  0  0  0  0  0  0
  160.0430  212.9950  151.8220 C   0  0  0  0  0  2  0  0  0  0  0  0
  157.7360  213.9050  151.3070 C   0  0  0  0  0  1  0  0  0  0  0  0
  158.5430  212.8630  152.0760 C   0  0  2  0  0  3  0  0  0  0  0  0
  158.2460  212.9420  153.5720 C   0  0  0  0  0  2  0  0  0  0  0  0
  157.3230  211.8210  154.0360 C   0  0  0  0  0  2  0  0  0  0  0  0
  157.2600  213.1310  156.3840 O   0  0  0  0  0  0  0  0  0  0  0  0
  157.2830  211.7410  155.8130 S   0  0  0  0  0  0  0  0  0  0  0  0
  156.0500  211.0070  156.2540 O   0  0  0  0  0  0  0  0  0  0  0  0
  159.3640  209.9200  155.6100 C   0  0  0  0  0  0  0  0  0  0  0  0
  158.8990  209.5850  154.4890 O   0  0  0  0  0  0  0  0  0  0  0  0
  158.6810  210.9030  156.3960 N   0  0  0  0  0  2  0  0  0  0  0  0
  160.5780  209.1990  156.1770 C   0  0  2  0  0  0  0  0  0  0  0  0
  160.7690  211.7190  155.0720 O   0  0  0  0  0  1  0  0  0  0  0  0
  162.6050  210.5950  156.2210 C   0  0  1  0  0  3  0  0  0  0  0  0
  161.4630  212.7170  157.2500 C   0  0  0  0  0  1  0  0  0  0  0  0
  161.4960  211.5630  156.2570 C   0  0  1  0  0  0  0  0  0  0  0  0
  163.6850  210.8590  157.2580 C   0  0  0  0  0  1  0  0  0  0  0  0
  161.3400  210.2420  156.9160 N   0  0  0  0  0  0  0  0  0  0  0  0
  160.8970  207.7100  154.1210 C   0  0  0  0  0  2  0  0  0  0  0  0
  161.8090  207.3450  155.1280 O   0  0  0  0  0  0  0  0  0  0  0  0
  161.5070  208.7180  155.0230 C   0  0  2  0  0  3  0  0  0  0  0  0
  160.1800  208.1250  157.0350 O   0  0  0  0  0  0  0  0  0  0  0  0
  158.9880  207.6960  156.6570 O   0  0  0  0  0  1  0  0  0  0  0  0
  161.8460  209.9190  148.7950 C   0  0  1  0  0  3  0  0  0  0  0  0
  161.1190  208.7470  149.0240 O   0  0  0  0  0  0  0  0  0  0  0  0
  159.5680  205.7190  145.9180 C   0  0  0  0  0  1  0  0  0  0  0  0
  161.7190  205.1890  146.8880 C   0  0  2  0  0  3  0  0  0  0  0  0
  160.4790  205.9820  147.0240 N   0  0  0  0  0  0  0  0  0  0  0  0
  162.1950  206.5440  149.0270 C   0  0  1  0  0  3  0  0  0  0  0  0
  162.7110  205.4830  148.0280 C   0  0  0  0  0  2  0  0  0  0  0  0
  160.7730  207.4140  147.0530 C   0  0  0  0  0  2  0  0  0  0  0  0
  161.7140  207.7740  148.2150 C   0  0  1  0  0  3  0  0  0  0  0  0
  160.7430  204.6710  149.5060 C   0  0  0  0  0  2  0  0  0  0  0  0
  161.7060  205.8250  151.2400 C   0  0  0  0  0  2  0  0  0  0  0  0
  160.9600  204.6860  151.8950 C   0  0  0  0  0  2  0  0  0  0  0  0
  160.3770  203.8920  150.7510 C   0  0  2  0  0  3  0  0  0  0  0  0
  161.1330  206.0210  149.9130 N   0  0  1  0  0  0  0  0  0  0  0  0
  160.9670  202.6010  150.6870 O   0  0  0  0  0  0  0  0  0  0  0  0
  160.7300  201.7190  149.6300 C   0  0  0  0  0  0  0  0  0  0  0  0
  159.4750  201.0540  149.5450 N   0  0  0  0  0  1  0  0  0  0  0  0
  161.6130  201.5000  148.7560 O   0  0  0  0  0  0  0  0  0  0  0  0
  162.9670  206.4390  145.2740 O   0  0  0  0  0  1  0  0  0  0  0  0
  162.4030  205.3490  145.5570 C   0  0  0  0  0  0  0  0  0  0  0  0
  162.4350  204.3020  144.6440 O   0  0  0  0  0  0  0  0  0  0  0  0
  161.0930  210.7960  147.7960 C   0  0  0  0  0  2  0  0  0  0  0  0
  161.1400  212.9370  146.5660 C   0  0  0  0  0  1  0  0  0  0  0  0
  161.6450  212.2120  147.7990 C   0  0  2  0  0  3  0  0  0  0  0  0
  163.1650  212.1770  147.7920 C   0  0  0  0  0  2  0  0  0  0  0  0
  163.7050  212.7580  146.5000 C   0  0  0  0  0  1  0  0  0  0  0  0
  1  3  1  0  0  0  0
  2  5  1  0  0  0  0
  4 30  1  6  0  0  0
  4  2  1  0  0  0  0
  4  1  1  0  0  0  0
  5  3  1  0  0  0  0
  6  2  1  0  0  0  0
  6  7  1  0  0  0  0
  7  9  1  0  0  0  0
  9  8  1  6  0  0  0
  9 10  1  0  0  0  0
 10 11  1  0  0  0  0
 11 13  1  0  0  0  0
 13 14  2  0  0  0  0
 13 12  2  0  0  0  0
 13 17  1  0  0  0  0
 15 17  1  0  0  0  0
 16 15  2  0  0  0  0
 18 15  1  6  0  0  0
 18 24  1  0  0  0  0
 18 28  1  0  0  0  0
 19 22  1  0  0  0  0
 20 22  1  0  0  0  0
 20 24  1  0  0  0  0
 20 23  1  1  0  0  0
 22 24  1  0  0  0  0
 22 21  1  1  0  0  0
 25 27  1  0  0  0  0
 25 26  1  0  0  0  0
 27 26  1  0  0  0  0
 27 18  1  1  0  0  0
 29 28  1  0  0  0  0
 30 51  1  6  0  0  0
 30 31  1  0  0  0  0
 32 34  1  0  0  0  0
 33 49  1  6  0  0  0
 33 34  1  0  0  0  0
 33 36  1  0  0  0  0
 34 37  1  0  0  0  0
 35 36  1  6  0  0  0
 35 43  1  0  0  0  0
 37 38  1  0  0  0  0
 38 31  1  1  0  0  0
 38 35  1  0  0  0  0
 39 42  1  0  0  0  0
 40 41  1  0  0  0  0
 42 44  1  6  0  0  0
 42 41  1  0  0  0  0
 43 39  1  6  0  0  0
 43 40  1  0  0  0  0
 45 44  1  0  0  0  0
 46 45  1  0  0  0  0
 47 45  2  0  0  0  0
 48 49  1  0  0  0  0
 50 49  2  0  0  0  0
 51 53  1  0  0  0  0
 53 52  1  6  0  0  0
 54 53  1  0  0  0  0
 55 54  1  0  0  0  0
M  END
>  <MODEL>
4

>  <REMARK>
 VINA RESULT:      -0.9      2.653     10.357
  Name = 
  21 active torsions:
  status: ('A' for Active; 'I' for Inactive)
    1  A    between atoms: C_1  and  C_21
    2  A    between atoms: C_1  and  O_29
    3  A    between atoms: C_1  and  C_38
    4  A    between atoms: C_1  and  N_53
    5  A    between atoms: C_2  and  C_19
    6  A    between atoms: C_2  and  O_28
    7  A    between atoms: C_2  and  C_44
    8  A    between atoms: C_4  and  C_40
    9  A    between atoms: C_8  and  S_20
   10  A    between atoms: C_8  and  C_43
   11  A    between atoms: C_10  and  O_32
   12  A    between atoms: C_16  and  C_17
   13  A    between atoms: C_19  and  C_40
   14  A    between atoms: S_20  and  N_42
   15  A    between atoms: N_27  and  C_31
   16  A    between atoms: O_28  and  C_49
   17  A    between atoms: C_31  and  C_54
   18  A    between atoms: O_32  and  C_48
   19  A    between atoms: C_33  and  N_52
   20  A    between atoms: C_43  and  C_51
   21  A    between atoms: C_51  and  C_54
                            x       y       z     vdW  Elec       q    Type
                         _______ _______ _______ _____ _____    ______ ____

>  <TORSDO>
F 21

$$$$
=
 OpenBabel11062408583D

 55 59  0  0  1  0  0  0  0  0999 V2000
  163.2320  206.2850  148.8150 O   0  0  0  0  0  0  0  0  0  0  0  0
  161.9450  206.7640  146.9190 N   0  0  0  0  0  0  0  0  0  0  0  0
  163.6050  205.3540  147.8420 C   0  0  0  0  0  2  0  0  0  0  0  0
  161.9960  206.7890  148.3750 C   0  0  2  0  0  3  0  0  0  0  0  0
  162.8960  205.7270  146.5670 C   0  0  0  0  0  2  0  0  0  0  0  0
  160.6150  206.3060  146.5430 C   0  0  0  0  0  2  0  0  0  0  0  0
  160.3450  206.6010  145.0720 C   0  0  0  0  0  2  0  0  0  0  0  0
  161.1910  204.2150  144.9940 C   0  0  0  0  0  1  0  0  0  0  0  0
  160.7090  205.4130  144.1830 C   0  0  2  0  0  3  0  0  0  0  0  0
  161.7530  205.8230  143.1460 C   0  0  0  0  0  2  0  0  0  0  0  0
  161.1910  205.8200  141.7300 C   0  0  0  0  0  2  0  0  0  0  0  0
  163.3820  207.3470  141.4100 O   0  0  0  0  0  0  0  0  0  0  0  0
  162.2750  206.7000  140.6260 S   0  0  0  0  0  0  0  0  0  0  0  0
  162.8680  205.7400  139.6360 O   0  0  0  0  0  0  0  0  0  0  0  0
  161.8170  209.2800  139.7220 C   0  0  0  0  0  0  0  0  0  0  0  0
  162.8300  209.6400  140.3780 O   0  0  0  0  0  0  0  0  0  0  0  0
  161.3850  207.9160  139.7750 N   0  0  0  0  0  2  0  0  0  0  0  0
  160.9880  210.3150  138.9750 C   0  0  2  0  0  0  0  0  0  0  0  0
  160.4180  213.0040  138.7510 O   0  0  0  0  0  1  0  0  0  0  0  0
  160.8940  211.8860  140.8680 C   0  0  1  0  0  3  0  0  0  0  0  0
  158.5030  212.8200  140.3380 C   0  0  0  0  0  1  0  0  0  0  0  0
  159.9060  212.4100  139.9100 C   0  0  1  0  0  0  0  0  0  0  0  0
  160.3770  211.7940  142.2950 C   0  0  0  0  0  1  0  0  0  0  0  0
  160.1260  210.9460  140.0120 N   0  0  0  0  0  0  0  0  0  0  0  0
  159.0850  210.5260  137.2780 C   0  0  0  0  0  2  0  0  0  0  0  0
  158.6740  209.7400  138.3690 O   0  0  0  0  0  0  0  0  0  0  0  0
  160.0220  209.6110  137.9760 C   0  0  2  0  0  3  0  0  0  0  0  0
  161.8300  211.2750  138.3300 O   0  0  0  0  0  0  0  0  0  0  0  0
  162.6340  210.6430  137.4920 O   0  0  0  0  0  1  0  0  0  0  0  0
  161.7550  208.1970  148.9250 C   0  0  1  0  0  3  0  0  0  0  0  0
  162.4180  208.3330  150.1480 O   0  0  0  0  0  0  0  0  0  0  0  0
  162.8720  210.5630  154.1540 C   0  0  0  0  0  1  0  0  0  0  0  0
  160.6020  210.0000  153.5400 C   0  0  2  0  0  3  0  0  0  0  0  0
  162.0350  209.7240  153.3070 N   0  0  0  0  0  0  0  0  0  0  0  0
  160.4970  208.2330  151.6690 C   0  0  1  0  0  3  0  0  0  0  0  0
  159.7010  209.1510  152.6250 C   0  0  0  0  0  2  0  0  0  0  0  0
  162.3950  209.9690  151.9110 C   0  0  0  0  0  2  0  0  0  0  0  0
  161.5660  209.0970  150.9530 C   0  0  1  0  0  3  0  0  0  0  0  0
  160.6060  205.8210  151.7990 C   0  0  0  0  0  2  0  0  0  0  0  0
  162.5270  207.0530  152.0500 C   0  0  0  0  0  2  0  0  0  0  0  0
  162.9780  205.6120  152.0910 C   0  0  0  0  0  2  0  0  0  0  0  0
  161.7240  204.8030  151.8650 C   0  0  2  0  0  3  0  0  0  0  0  0
  161.1020  207.0760  152.3640 N   0  0  1  0  0  0  0  0  0  0  0  0
  161.7950  204.1040  150.6290 O   0  0  0  0  0  0  0  0  0  0  0  0
  161.0640  202.9400  150.3810 C   0  0  0  0  0  0  0  0  0  0  0  0
  160.5400  202.7090  149.0790 N   0  0  0  0  0  1  0  0  0  0  0  0
  160.8580  202.0970  151.2960 O   0  0  0  0  0  0  0  0  0  0  0  0
  160.0160  211.9490  152.2810 O   0  0  0  0  0  0  0  0  0  0  0  0
  160.2330  211.4540  153.4190 C   0  0  0  0  0  0  0  0  0  0  0  0
  160.1100  212.2520  154.5500 O   0  0  0  0  0  1  0  0  0  0  0  0
  162.2390  209.2790  147.9620 C   0  0  0  0  0  2  0  0  0  0  0  0
  160.8100  211.2370  147.4900 C   0  0  0  0  0  1  0  0  0  0  0  0
  161.8300  210.6590  148.4520 C   0  0  2  0  0  3  0  0  0  0  0  0
  163.0490  211.5670  148.5210 C   0  0  0  0  0  2  0  0  0  0  0  0
  162.8790  212.7570  147.5970 C   0  0  0  0  0  1  0  0  0  0  0  0
  2  4  1  0  0  0  0
  3  1  1  0  0  0  0
  4  1  1  0  0  0  0
  4 30  1  6  0  0  0
  5  2  1  0  0  0  0
  5  3  1  0  0  0  0
  6  2  1  0  0  0  0
  7  6  1  0  0  0  0
  9  8  1  1  0  0  0
  9  7  1  0  0  0  0
 10  9  1  0  0  0  0
 11 10  1  0  0  0  0
 13 12  2  0  0  0  0
 13 11  1  0  0  0  0
 14 13  2  0  0  0  0
 15 17  1  0  0  0  0
 15 16  2  0  0  0  0
 17 13  1  0  0  0  0
 18 28  1  6  0  0  0
 18 15  1  0  0  0  0
 18 24  1  0  0  0  0
 19 22  1  0  0  0  0
 20 23  1  1  0  0  0
 22 24  1  0  0  0  0
 22 21  1  1  0  0  0
 22 20  1  0  0  0  0
 24 20  1  0  0  0  0
 25 27  1  0  0  0  0
 25 26  1  0  0  0  0
 27 26  1  0  0  0  0
 27 18  1  1  0  0  0
 29 28  1  0  0  0  0
 30 51  1  6  0  0  0
 30 31  1  0  0  0  0
 33 49  1  6  0  0  0
 34 33  1  0  0  0  0
 34 32  1  0  0  0  0
 35 43  1  0  0  0  0
 35 36  1  1  0  0  0
 36 33  1  0  0  0  0
 37 34  1  0  0  0  0
 38 31  1  1  0  0  0
 38 35  1  0  0  0  0
 38 37  1  0  0  0  0
 39 42  1  0  0  0  0
 40 41  1  0  0  0  0
 40 43  1  0  0  0  0
 42 44  1  6  0  0  0
 42 41  1  0  0  0  0
 43 39  1  6  0  0  0
 45 44  1  0  0  0  0
 45 47  2  0  0  0  0
 46 45  1  0  0  0  0
 48 49  2  0  0  0  0
 49 50  1  0  0  0  0
 51 53  1  0  0  0  0
 53 52  1  6  0  0  0
 53 54  1  0  0  0  0
 55 54  1  0  0  0  0
M  END
>  <MODEL>
5

>  <REMARK>
 VINA RESULT:      -0.6      5.123      8.771
  Name = 
  21 active torsions:
  status: ('A' for Active; 'I' for Inactive)
    1  A    between atoms: C_1  and  C_21
    2  A    between atoms: C_1  and  O_29
    3  A    between atoms: C_1  and  C_38
    4  A    between atoms: C_1  and  N_53
    5  A    between atoms: C_2  and  C_19
    6  A    between atoms: C_2  and  O_28
    7  A    between atoms: C_2  and  C_44
    8  A    between atoms: C_4  and  C_40
    9  A    between atoms: C_8  and  S_20
   10  A    between atoms: C_8  and  C_43
   11  A    between atoms: C_10  and  O_32
   12  A    between atoms: C_16  and  C_17
   13  A    between atoms: C_19  and  C_40
   14  A    between atoms: S_20  and  N_42
   15  A    between atoms: N_27  and  C_31
   16  A    between atoms: O_28  and  C_49
   17  A    between atoms: C_31  and  C_54
   18  A    between atoms: O_32  and  C_48
   19  A    between atoms: C_33  and  N_52
   20  A    between atoms: C_43  and  C_51
   21  A    between atoms: C_51  and  C_54
                            x       y       z     vdW  Elec       q    Type
                         _______ _______ _______ _____ _____    ______ ____

>  <TORSDO>
F 21

$$$$
=
 OpenBabel11062408583D

 55 59  0  0  1  0  0  0  0  0999 V2000
  163.2440  206.4180  148.5090 O   0  0  0  0  0  0  0  0  0  0  0  0
  161.8600  206.6120  146.6320 N   0  0  0  0  0  0  0  0  0  0  0  0
  163.8050  205.6030  147.5220 C   0  0  0  0  0  2  0  0  0  0  0  0
  161.9220  206.6340  148.0870 C   0  0  2  0  0  3  0  0  0  0  0  0
  163.0160  205.8200  146.2590 C   0  0  0  0  0  2  0  0  0  0  0  0
  160.6630  205.8700  146.2630 C   0  0  0  0  0  2  0  0  0  0  0  0
  160.2530  206.1960  144.8310 C   0  0  0  0  0  2  0  0  0  0  0  0
  161.5310  204.0280  144.5370 C   0  0  0  0  0  1  0  0  0  0  0  0
  160.8250  205.1860  143.8380 C   0  0  2  0  0  3  0  0  0  0  0  0
  161.7650  205.8790  142.8530 C   0  0  0  0  0  2  0  0  0  0  0  0
  161.2200  205.8660  141.4300 C   0  0  0  0  0  2  0  0  0  0  0  0
  163.3710  207.4560  141.1500 O   0  0  0  0  0  0  0  0  0  0  0  0
  162.2230  206.8810  140.3670 S   0  0  0  0  0  0  0  0  0  0  0  0
  162.7630  206.0470  139.2420 O   0  0  0  0  0  0  0  0  0  0  0  0
  161.7920  209.4900  139.5350 C   0  0  0  0  0  0  0  0  0  0  0  0
  162.9540  209.7610  139.9370 O   0  0  0  0  0  0  0  0  0  0  0  0
  161.2700  208.1690  139.7120 N   0  0  0  0  0  2  0  0  0  0  0  0
  160.9060  210.5910  138.9720 C   0  0  2  0  0  0  0  0  0  0  0  0
  160.3530  213.2880  139.1420 O   0  0  0  0  0  1  0  0  0  0  0  0
  160.9330  211.8950  141.0600 C   0  0  1  0  0  3  0  0  0  0  0  0
  158.5260  212.8980  140.7950 C   0  0  0  0  0  1  0  0  0  0  0  0
  159.8990  212.5450  140.2380 C   0  0  1  0  0  0  0  0  0  0  0  0
  160.4940  211.6140  142.4890 C   0  0  0  0  0  1  0  0  0  0  0  0
  160.1090  211.0800  140.1300 N   0  0  0  0  0  0  0  0  0  0  0  0
  158.5310  210.6040  138.0220 C   0  0  0  0  0  2  0  0  0  0  0  0
  158.8070  209.3590  138.6140 O   0  0  0  0  0  0  0  0  0  0  0  0
  159.8820  209.9950  137.9610 C   0  0  2  0  0  3  0  0  0  0  0  0
  161.6940  211.6360  138.3920 O   0  0  0  0  0  0  0  0  0  0  0  0
  162.1900  211.2090  137.2440 O   0  0  0  0  0  1  0  0  0  0  0  0
  161.3760  207.9470  148.6560 C   0  0  1  0  0  3  0  0  0  0  0  0
  160.8060  207.7030  149.9090 O   0  0  0  0  0  0  0  0  0  0  0  0
  159.1410  203.5470  150.9960 C   0  0  0  0  0  1  0  0  0  0  0  0
  161.3110  204.0630  151.9290 C   0  0  2  0  0  3  0  0  0  0  0  0
  160.0830  204.6110  151.3150 N   0  0  0  0  0  0  0  0  0  0  0  0
  161.8590  206.5780  151.8170 C   0  0  1  0  0  3  0  0  0  0  0  0
  162.3360  205.1690  152.2380 C   0  0  0  0  0  2  0  0  0  0  0  0
  160.3940  205.3400  150.0860 C   0  0  0  0  0  2  0  0  0  0  0  0
  161.3690  206.5000  150.3480 C   0  0  1  0  0  3  0  0  0  0  0  0
  161.0700  206.7110  154.0990 C   0  0  0  0  0  2  0  0  0  0  0  0
  160.9540  208.5680  152.7540 C   0  0  0  0  0  2  0  0  0  0  0  0
  160.4760  209.0360  154.1080 C   0  0  0  0  0  2  0  0  0  0  0  0
  160.6100  207.8300  155.0080 C   0  0  2  0  0  3  0  0  0  0  0  0
  160.8150  207.1160  152.7160 N   0  0  1  0  0  0  0  0  0  0  0  0
  161.5950  208.0580  156.0060 O   0  0  0  0  0  0  0  0  0  0  0  0
  161.6210  209.2180  156.7840 C   0  0  0  0  0  0  0  0  0  0  0  0
  162.8710  209.8140  157.1080 N   0  0  0  0  0  1  0  0  0  0  0  0
  160.5520  209.7390  157.2070 O   0  0  0  0  0  0  0  0  0  0  0  0
  162.5180  202.0080  151.7190 O   0  0  0  0  0  1  0  0  0  0  0  0
  161.9610  202.9690  151.1250 C   0  0  0  0  0  0  0  0  0  0  0  0
  161.9370  202.9980  149.7360 O   0  0  0  0  0  0  0  0  0  0  0  0
  162.4650  209.0090  148.7920 C   0  0  0  0  0  2  0  0  0  0  0  0
  162.5600  211.4150  148.2400 C   0  0  0  0  0  1  0  0  0  0  0  0
  161.8560  210.3700  149.0860 C   0  0  2  0  0  3  0  0  0  0  0  0
  162.0200  210.7040  150.5610 C   0  0  0  0  0  2  0  0  0  0  0  0
  160.9970  211.7370  150.9910 C   0  0  0  0  0  1  0  0  0  0  0  0
  2  4  1  0  0  0  0
  3  1  1  0  0  0  0
  4  1  1  0  0  0  0
  4 30  1  6  0  0  0
  5  2  1  0  0  0  0
  5  3  1  0  0  0  0
  6  2  1  0  0  0  0
  7  6  1  0  0  0  0
  9  8  1  1  0  0  0
  9  7  1  0  0  0  0
 10  9  1  0  0  0  0
 11 10  1  0  0  0  0
 13 12  2  0  0  0  0
 13 11  1  0  0  0  0
 14 13  2  0  0  0  0
 15 17  1  0  0  0  0
 15 16  2  0  0  0  0
 17 13  1  0  0  0  0
 18 28  1  6  0  0  0
 18 15  1  0  0  0  0
 18 24  1  0  0  0  0
 19 22  1  0  0  0  0
 20 23  1  1  0  0  0
 22 21  1  1  0  0  0
 22 20  1  0  0  0  0
 24 22  1  0  0  0  0
 24 20  1  0  0  0  0
 25 26  1  0  0  0  0
 27 25  1  0  0  0  0
 27 26  1  0  0  0  0
 27 18  1  1  0  0  0
 29 28  1  0  0  0  0
 30 51  1  1  0  0  0
 30 31  1  0  0  0  0
 32 34  1  0  0  0  0
 33 49  1  6  0  0  0
 33 36  1  0  0  0  0
 34 33  1  0  0  0  0
 35 36  1  1  0  0  0
 35 43  1  0  0  0  0
 37 38  1  0  0  0  0
 37 34  1  0  0  0  0
 38 31  1  1  0  0  0
 38 35  1  0  0  0  0
 39 42  1  0  0  0  0
 40 41  1  0  0  0  0
 41 42  1  0  0  0  0
 42 44  1  1  0  0  0
 43 40  1  1  0  0  0
 43 39  1  0  0  0  0
 44 45  1  0  0  0  0
 45 46  1  0  0  0  0
 45 47  2  0  0  0  0
 49 48  1  0  0  0  0
 50 49  2  0  0  0  0
 51 53  1  0  0  0  0
 53 52  1  6  0  0  0
 53 54  1  0  0  0  0
 54 55  1  0  0  0  0
M  END
>  <MODEL>
6

>  <REMARK>
 VINA RESULT:      -0.5      5.222      9.376
  Name = 
  21 active torsions:
  status: ('A' for Active; 'I' for Inactive)
    1  A    between atoms: C_1  and  C_21
    2  A    between atoms: C_1  and  O_29
    3  A    between atoms: C_1  and  C_38
    4  A    between atoms: C_1  and  N_53
    5  A    between atoms: C_2  and  C_19
    6  A    between atoms: C_2  and  O_28
    7  A    between atoms: C_2  and  C_44
    8  A    between atoms: C_4  and  C_40
    9  A    between atoms: C_8  and  S_20
   10  A    between atoms: C_8  and  C_43
   11  A    between atoms: C_10  and  O_32
   12  A    between atoms: C_16  and  C_17
   13  A    between atoms: C_19  and  C_40
   14  A    between atoms: S_20  and  N_42
   15  A    between atoms: N_27  and  C_31
   16  A    between atoms: O_28  and  C_49
   17  A    between atoms: C_31  and  C_54
   18  A    between atoms: O_32  and  C_48
   19  A    between atoms: C_33  and  N_52
   20  A    between atoms: C_43  and  C_51
   21  A    between atoms: C_51  and  C_54
                            x       y       z     vdW  Elec       q    Type
                         _______ _______ _______ _____ _____    ______ ____

>  <TORSDO>
F 21

$$$$
=
 OpenBabel11062408583D

 55 59  0  0  1  0  0  0  0  0999 V2000
  160.7480  206.8340  153.8950 O   0  0  0  0  0  0  0  0  0  0  0  0
  162.3110  208.0630  152.6620 N   0  0  0  0  0  0  0  0  0  0  0  0
  161.6750  205.9100  153.4050 C   0  0  0  0  0  2  0  0  0  0  0  0
  160.9240  207.9770  153.0970 C   0  0  2  0  0  3  0  0  0  0  0  0
  162.7700  206.6890  152.7270 C   0  0  0  0  0  2  0  0  0  0  0  0
  162.2980  208.4700  151.2630 C   0  0  0  0  0  2  0  0  0  0  0  0
  161.1030  207.8570  150.5410 C   0  0  0  0  0  2  0  0  0  0  0  0
  160.5470  206.4710  148.4940 C   0  0  0  0  0  1  0  0  0  0  0  0
  161.5240  206.6940  149.6450 C   0  0  2  0  0  3  0  0  0  0  0  0
  161.6920  205.4190  150.4690 C   0  0  0  0  0  2  0  0  0  0  0  0
  160.4780  204.5040  150.3710 C   0  0  0  0  0  2  0  0  0  0  0  0
  162.1330  202.6920  151.4710 O   0  0  0  0  0  0  0  0  0  0  0  0
  160.9640  202.8000  150.5320 S   0  0  0  0  0  0  0  0  0  0  0  0
  159.8180  202.0010  151.0790 O   0  0  0  0  0  0  0  0  0  0  0  0
  160.5430  202.2480  147.8480 C   0  0  0  0  0  0  0  0  0  0  0  0
  159.3830  202.7200  147.9810 O   0  0  0  0  0  0  0  0  0  0  0  0
  161.4100  202.1670  148.9840 N   0  0  0  0  0  2  0  0  0  0  0  0
  160.9760  201.6590  146.5140 C   0  0  2  0  0  0  0  0  0  0  0  0
  162.6010  203.5940  147.6200 O   0  0  0  0  0  1  0  0  0  0  0  0
  160.7120  204.0790  146.1530 C   0  0  1  0  0  3  0  0  0  0  0  0
  163.1760  204.5170  145.3750 C   0  0  0  0  0  1  0  0  0  0  0  0
  162.1620  203.8930  146.3250 C   0  0  1  0  0  0  0  0  0  0  0  0
  160.3410  204.9360  144.9510 C   0  0  0  0  0  1  0  0  0  0  0  0
  161.3570  202.8280  145.6760 N   0  0  0  0  0  0  0  0  0  0  0  0
  160.0420  200.5210  144.4220 C   0  0  0  0  0  2  0  0  0  0  0  0
  159.3510  201.7210  144.6680 O   0  0  0  0  0  0  0  0  0  0  0  0
  159.7620  200.9910  145.8010 C   0  0  2  0  0  3  0  0  0  0  0  0
  162.0700  200.7520  146.6860 O   0  0  0  0  0  0  0  0  0  0  0  0
  161.5890  199.5350  146.8690 O   0  0  0  0  0  1  0  0  0  0  0  0
  160.4880  209.2380  153.8480 C   0  0  1  0  0  3  0  0  0  0  0  0
  159.8080  210.0850  152.9690 O   0  0  0  0  0  0  0  0  0  0  0  0
  156.1050  212.5920  154.0780 C   0  0  0  0  0  1  0  0  0  0  0  0
  158.2090  213.7820  154.1320 C   0  0  2  0  0  3  0  0  0  0  0  0
  157.4950  212.5860  153.6400 N   0  0  0  0  0  0  0  0  0  0  0  0
  160.0880  212.5200  152.9020 C   0  0  1  0  0  3  0  0  0  0  0  0
  159.6900  213.7750  153.7130 C   0  0  0  0  0  2  0  0  0  0  0  0
  158.1290  211.3610  154.1250 C   0  0  0  0  0  2  0  0  0  0  0  0
  159.5980  211.2720  153.6800 C   0  0  1  0  0  3  0  0  0  0  0  0
  159.8190  213.8470  150.8990 C   0  0  0  0  0  2  0  0  0  0  0  0
  160.3550  211.6230  150.7160 C   0  0  0  0  0  2  0  0  0  0  0  0
  160.3650  212.1450  149.2980 C   0  0  0  0  0  2  0  0  0  0  0  0
  160.0720  213.6210  149.4240 C   0  0  2  0  0  3  0  0  0  0  0  0
  159.5630  212.5480  151.5200 N   0  0  1  0  0  0  0  0  0  0  0  0
  161.1960  214.3900  149.0180 O   0  0  0  0  0  0  0  0  0  0  0  0
  161.8750  214.1520  147.8200 C   0  0  0  0  0  0  0  0  0  0  0  0
  161.2240  214.4210  146.5850 N   0  0  0  0  0  1  0  0  0  0  0  0
  163.0520  213.6990  147.8210 O   0  0  0  0  0  0  0  0  0  0  0  0
  159.1340  213.9530  156.3330 O   0  0  0  0  0  1  0  0  0  0  0  0
  158.0970  213.9920  155.6190 C   0  0  0  0  0  0  0  0  0  0  0  0
  156.8650  214.2470  156.2090 O   0  0  0  0  0  0  0  0  0  0  0  0
  159.5870  208.9140  155.0390 C   0  0  0  0  0  2  0  0  0  0  0  0
  159.9580  210.9190  156.4320 C   0  0  0  0  0  1  0  0  0  0  0  0
  160.1990  209.4240  156.3330 C   0  0  2  0  0  3  0  0  0  0  0  0
  161.6940  209.1400  156.3480 C   0  0  0  0  0  2  0  0  0  0  0  0
  162.4720  210.3990  156.6760 C   0  0  0  0  0  1  0  0  0  0  0  0
  2  5  1  0  0  0  0
  2  4  1  0  0  0  0
  3  1  1  0  0  0  0
  4 30  1  1  0  0  0
  4  1  1  0  0  0  0
  5  3  1  0  0  0  0
  6  2  1  0  0  0  0
  7  6  1  0  0  0  0
  9  8  1  6  0  0  0
  9 10  1  0  0  0  0
  9  7  1  0  0  0  0
 11 10  1  0  0  0  0
 11 13  1  0  0  0  0
 13 14  2  0  0  0  0
 13 12  2  0  0  0  0
 15 16  2  0  0  0  0
 15 17  1  0  0  0  0
 17 13  1  0  0  0  0
 18 28  1  1  0  0  0
 18 15  1  0  0  0  0
 20 23  1  6  0  0  0
 20 22  1  0  0  0  0
 22 21  1  6  0  0  0
 22 19  1  0  0  0  0
 24 20  1  0  0  0  0
 24 22  1  0  0  0  0
 24 18  1  0  0  0  0
 25 26  1  0  0  0  0
 25 27  1  0  0  0  0
 26 27  1  0  0  0  0
 27 18  1  1  0  0  0
 28 29  1  0  0  0  0
 30 51  1  1  0  0  0
 31 30  1  0  0  0  0
 33 49  1  1  0  0  0
 34 32  1  0  0  0  0
 34 37  1  0  0  0  0
 34 33  1  0  0  0  0
 35 38  1  0  0  0  0
 35 36  1  1  0  0  0
 36 33  1  0  0  0  0
 38 31  1  6  0  0  0
 38 37  1  0  0  0  0
 39 43  1  0  0  0  0
 41 42  1  0  0  0  0
 41 40  1  0  0  0  0
 42 44  1  1  0  0  0
 42 39  1  0  0  0  0
 43 40  1  6  0  0  0
 43 35  1  0  0  0  0
 45 47  2  0  0  0  0
 45 44  1  0  0  0  0
 46 45  1  0  0  0  0
 49 50  2  0  0  0  0
 49 48  1  0  0  0  0
 51 53  1  0  0  0  0
 53 54  1  0  0  0  0
 53 52  1  6  0  0  0
 54 55  1  0  0  0  0
M  END
>  <MODEL>
7

>  <REMARK>
 VINA RESULT:      -0.4      1.514      2.529
  Name = 
  21 active torsions:
  status: ('A' for Active; 'I' for Inactive)
    1  A    between atoms: C_1  and  C_21
    2  A    between atoms: C_1  and  O_29
    3  A    between atoms: C_1  and  C_38
    4  A    between atoms: C_1  and  N_53
    5  A    between atoms: C_2  and  C_19
    6  A    between atoms: C_2  and  O_28
    7  A    between atoms: C_2  and  C_44
    8  A    between atoms: C_4  and  C_40
    9  A    between atoms: C_8  and  S_20
   10  A    between atoms: C_8  and  C_43
   11  A    between atoms: C_10  and  O_32
   12  A    between atoms: C_16  and  C_17
   13  A    between atoms: C_19  and  C_40
   14  A    between atoms: S_20  and  N_42
   15  A    between atoms: N_27  and  C_31
   16  A    between atoms: O_28  and  C_49
   17  A    between atoms: C_31  and  C_54
   18  A    between atoms: O_32  and  C_48
   19  A    between atoms: C_33  and  N_52
   20  A    between atoms: C_43  and  C_51
   21  A    between atoms: C_51  and  C_54
                            x       y       z     vdW  Elec       q    Type
                         _______ _______ _______ _____ _____    ______ ____

>  <TORSDO>
F 21

$$$$
=
 OpenBabel11062408583D

 55 59  0  0  1  0  0  0  0  0999 V2000
  160.1920  207.9710  152.7790 O   0  0  0  0  0  0  0  0  0  0  0  0
  162.0430  209.1640  151.9870 N   0  0  0  0  0  0  0  0  0  0  0  0
  161.0170  207.0390  152.1450 C   0  0  0  0  0  2  0  0  0  0  0  0
  160.6200  209.2190  152.2940 C   0  0  2  0  0  3  0  0  0  0  0  0
  162.2820  207.7540  151.7500 C   0  0  0  0  0  2  0  0  0  0  0  0
  162.2390  209.8750  150.7300 C   0  0  0  0  0  2  0  0  0  0  0  0
  163.0410  209.0200  149.7550 C   0  0  0  0  0  2  0  0  0  0  0  0
  161.6270  210.3430  148.1210 C   0  0  0  0  0  1  0  0  0  0  0  0
  162.4650  209.0870  148.3420 C   0  0  2  0  0  3  0  0  0  0  0  0
  161.6510  207.8310  148.0380 C   0  0  0  0  0  2  0  0  0  0  0  0
  162.5310  206.5990  147.8730 C   0  0  0  0  0  2  0  0  0  0  0  0
  160.6240  206.0700  146.0520 O   0  0  0  0  0  0  0  0  0  0  0  0
  161.9970  205.6300  146.4800 S   0  0  0  0  0  0  0  0  0  0  0  0
  162.9540  205.8220  145.3400 O   0  0  0  0  0  0  0  0  0  0  0  0
  160.9680  203.4190  147.7980 C   0  0  0  0  0  0  0  0  0  0  0  0
  160.1470  204.1920  148.3570 O   0  0  0  0  0  0  0  0  0  0  0  0
  161.9550  203.9540  146.9100 N   0  0  0  0  0  2  0  0  0  0  0  0
  160.9870  201.9410  148.1580 C   0  0  2  0  0  0  0  0  0  0  0  0
  162.4310  200.1440  146.6430 O   0  0  0  0  0  1  0  0  0  0  0  0
  160.8150  201.7190  145.7130 C   0  0  1  0  0  3  0  0  0  0  0  0
  160.3530  199.1390  145.6970 C   0  0  0  0  0  1  0  0  0  0  0  0
  161.1270  200.3580  146.1800 C   0  0  1  0  0  0  0  0  0  0  0  0
  159.6610  201.7780  144.7230 C   0  0  0  0  0  1  0  0  0  0  0  0
  160.3030  201.2560  147.0280 N   0  0  0  0  0  0  0  0  0  0  0  0
  160.0340  202.8250  150.3620 C   0  0  0  0  0  2  0  0  0  0  0  0
  160.8690  201.7200  150.6060 O   0  0  0  0  0  0  0  0  0  0  0  0
  160.1090  201.6820  149.4190 C   0  0  2  0  0  3  0  0  0  0  0  0
  162.3290  201.4730  148.3270 O   0  0  0  0  0  0  0  0  0  0  0  0
  162.2980  200.1810  148.6050 O   0  0  0  0  0  1  0  0  0  0  0  0
  160.3000  210.3310  153.2960 C   0  0  1  0  0  3  0  0  0  0  0  0
  159.2840  211.1390  152.7770 O   0  0  0  0  0  0  0  0  0  0  0  0
  155.1600  212.2030  154.5350 C   0  0  0  0  0  1  0  0  0  0  0  0
  156.9460  213.7330  155.0980 C   0  0  2  0  0  3  0  0  0  0  0  0
  156.4980  212.6610  154.1850 N   0  0  0  0  0  0  0  0  0  0  0  0
  159.0100  213.4380  153.5860 C   0  0  1  0  0  3  0  0  0  0  0  0
  158.3740  214.2040  154.7680 C   0  0  0  0  0  2  0  0  0  0  0  0
  157.4080  211.5170  154.2340 C   0  0  0  0  0  2  0  0  0  0  0  0
  158.8420  211.9200  153.8510 C   0  0  1  0  0  3  0  0  0  0  0  0
  159.4890  214.3250  151.3880 C   0  0  0  0  0  2  0  0  0  0  0  0
  157.9590  212.6290  151.6110 C   0  0  0  0  0  2  0  0  0  0  0  0
  158.0740  212.8580  150.1220 C   0  0  0  0  0  2  0  0  0  0  0  0
  159.1260  213.9310  149.9730 C   0  0  2  0  0  3  0  0  0  0  0  0
  158.4390  213.8340  152.2800 N   0  0  1  0  0  0  0  0  0  0  0  0
  160.2780  213.4150  149.3190 O   0  0  0  0  0  0  0  0  0  0  0  0
  160.8440  214.0300  148.2000 C   0  0  0  0  0  0  0  0  0  0  0  0
  162.2530  214.2150  148.1450 N   0  0  0  0  0  1  0  0  0  0  0  0
  160.1240  214.4270  147.2440 O   0  0  0  0  0  0  0  0  0  0  0  0
  155.9230  213.8660  157.2570 O   0  0  0  0  0  1  0  0  0  0  0  0
  156.8470  213.3740  156.5570 C   0  0  0  0  0  0  0  0  0  0  0  0
  157.7510  212.4920  157.1350 O   0  0  0  0  0  0  0  0  0  0  0  0
  159.8650  209.7760  154.6510 C   0  0  0  0  0  2  0  0  0  0  0  0
  161.0890  207.9670  155.8040 C   0  0  0  0  0  1  0  0  0  0  0  0
  161.0730  209.4570  155.5160 C   0  0  2  0  0  3  0  0  0  0  0  0
  160.9970  210.2350  156.8210 C   0  0  0  0  0  2  0  0  0  0  0  0
  161.3670  211.6880  156.5970 C   0  0  0  0  0  1  0  0  0  0  0  0
  2  4  1  0  0  0  0
  3  1  1  0  0  0  0
  4  1  1  0  0  0  0
  4 30  1  1  0  0  0
  5  2  1  0  0  0  0
  5  3  1  0  0  0  0
  6  2  1  0  0  0  0
  7  6  1  0  0  0  0
  9  8  1  1  0  0  0
  9  7  1  0  0  0  0
 10  9  1  0  0  0  0
 11 10  1  0  0  0  0
 12 13  2  0  0  0  0
 13 17  1  0  0  0  0
 13 11  1  0  0  0  0
 14 13  2  0  0  0  0
 15 16  2  0  0  0  0
 17 15  1  0  0  0  0
 18 15  1  6  0  0  0
 18 28  1  0  0  0  0
 20 23  1  6  0  0  0
 20 22  1  0  0  0  0
 20 24  1  0  0  0  0
 22 21  1  6  0  0  0
 22 19  1  0  0  0  0
 22 24  1  0  0  0  0
 24 18  1  0  0  0  0
 25 26  1  0  0  0  0
 27 18  1  6  0  0  0
 27 25  1  0  0  0  0
 27 26  1  0  0  0  0
 28 29  1  0  0  0  0
 30 51  1  1  0  0  0
 31 30  1  0  0  0  0
 33 49  1  1  0  0  0
 34 37  1  0  0  0  0
 34 32  1  0  0  0  0
 34 33  1  0  0  0  0
 35 38  1  0  0  0  0
 35 36  1  1  0  0  0
 36 33  1  0  0  0  0
 38 31  1  6  0  0  0
 38 37  1  0  0  0  0
 40 43  1  0  0  0  0
 41 40  1  0  0  0  0
 42 44  1  1  0  0  0
 42 41  1  0  0  0  0
 42 39  1  0  0  0  0
 43 39  1  6  0  0  0
 43 35  1  0  0  0  0
 45 44  1  0  0  0  0
 46 45  1  0  0  0  0
 47 45  2  0  0  0  0
 49 50  2  0  0  0  0
 49 48  1  0  0  0  0
 51 53  1  0  0  0  0
 53 52  1  1  0  0  0
 53 54  1  0  0  0  0
 55 54  1  0  0  0  0
M  END
>  <MODEL>
8

>  <REMARK>
 VINA RESULT:      -0.2      1.615      2.650
  Name = 
  21 active torsions:
  status: ('A' for Active; 'I' for Inactive)
    1  A    between atoms: C_1  and  C_21
    2  A    between atoms: C_1  and  O_29
    3  A    between atoms: C_1  and  C_38
    4  A    between atoms: C_1  and  N_53
    5  A    between atoms: C_2  and  C_19
    6  A    between atoms: C_2  and  O_28
    7  A    between atoms: C_2  and  C_44
    8  A    between atoms: C_4  and  C_40
    9  A    between atoms: C_8  and  S_20
   10  A    between atoms: C_8  and  C_43
   11  A    between atoms: C_10  and  O_32
   12  A    between atoms: C_16  and  C_17
   13  A    between atoms: C_19  and  C_40
   14  A    between atoms: S_20  and  N_42
   15  A    between atoms: N_27  and  C_31
   16  A    between atoms: O_28  and  C_49
   17  A    between atoms: C_31  and  C_54
   18  A    between atoms: O_32  and  C_48
   19  A    between atoms: C_33  and  N_52
   20  A    between atoms: C_43  and  C_51
   21  A    between atoms: C_51  and  C_54
                            x       y       z     vdW  Elec       q    Type
                         _______ _______ _______ _____ _____    ______ ____

>  <TORSDO>
F 21

$$$$
=
 OpenBabel11062408583D

 55 59  0  0  1  0  0  0  0  0999 V2000
  162.1760  211.0000  151.0330 O   0  0  0  0  0  0  0  0  0  0  0  0
  160.6950  209.1930  150.8940 N   0  0  0  0  0  0  0  0  0  0  0  0
  162.9000  209.9410  150.4800 C   0  0  0  0  0  2  0  0  0  0  0  0
  161.0570  210.3970  151.6310 C   0  0  2  0  0  3  0  0  0  0  0  0
  161.9350  208.8090  150.2480 C   0  0  0  0  0  2  0  0  0  0  0  0
  160.3610  208.1720  151.8780 C   0  0  0  0  0  2  0  0  0  0  0  0
  161.4990  207.1660  152.0100 C   0  0  0  0  0  2  0  0  0  0  0  0
  161.5800  205.3780  153.8020 C   0  0  0  0  0  1  0  0  0  0  0  0
  160.9920  205.7980  152.4590 C   0  0  2  0  0  3  0  0  0  0  0  0
  161.2770  204.7450  151.3890 C   0  0  0  0  0  2  0  0  0  0  0  0
  160.7600  203.3670  151.7820 C   0  0  0  0  0  2  0  0  0  0  0  0
  162.8110  201.6310  151.6640 O   0  0  0  0  0  0  0  0  0  0  0  0
  161.6170  202.0960  150.8780 S   0  0  0  0  0  0  0  0  0  0  0  0
  160.6940  200.9350  150.6500 O   0  0  0  0  0  0  0  0  0  0  0  0
  161.2200  203.0460  148.3040 C   0  0  0  0  0  0  0  0  0  0  0  0
  159.9920  202.8110  148.4570 O   0  0  0  0  0  0  0  0  0  0  0  0
  162.1410  202.7150  149.3490 N   0  0  0  0  0  2  0  0  0  0  0  0
  161.7340  203.5690  146.9710 C   0  0  2  0  0  0  0  0  0  0  0  0
  162.6330  205.3390  145.0570 O   0  0  0  0  0  1  0  0  0  0  0  0
  161.5870  206.0190  147.1540 C   0  0  1  0  0  3  0  0  0  0  0  0
  160.3840  206.4000  144.8570 C   0  0  0  0  0  1  0  0  0  0  0  0
  161.4670  205.7540  145.7110 C   0  0  1  0  0  0  0  0  0  0  0  0
  160.5370  206.9790  147.6910 C   0  0  0  0  0  1  0  0  0  0  0  0
  160.9170  204.7790  146.6850 N   0  0  0  0  0  0  0  0  0  0  0  0
  159.9810  202.1990  145.7080 C   0  0  0  0  0  2  0  0  0  0  0  0
  160.8980  201.3420  146.3400 O   0  0  0  0  0  0  0  0  0  0  0  0
  161.4160  202.5520  145.8340 C   0  0  2  0  0  3  0  0  0  0  0  0
  163.1300  203.8780  147.0470 O   0  0  0  0  0  0  0  0  0  0  0  0
  163.7000  203.5610  145.8980 O   0  0  0  0  0  1  0  0  0  0  0  0
  159.8870  211.3810  151.7160 C   0  0  1  0  0  3  0  0  0  0  0  0
  159.1710  211.1440  152.8920 O   0  0  0  0  0  0  0  0  0  0  0  0
  159.3060  208.8620  156.8920 C   0  0  0  0  0  1  0  0  0  0  0  0
  160.9380  210.6310  156.6590 C   0  0  2  0  0  3  0  0  0  0  0  0
  159.6700  210.0640  156.1540 N   0  0  0  0  0  0  0  0  0  0  0  0
  160.3830  212.2360  154.7230 C   0  0  1  0  0  3  0  0  0  0  0  0
  161.3600  211.8810  155.8670 C   0  0  0  0  0  2  0  0  0  0  0  0
  159.7770  209.7240  154.7360 C   0  0  0  0  0  2  0  0  0  0  0  0
  160.1370  210.9540  153.8860 C   0  0  1  0  0  3  0  0  0  0  0  0
  157.9910  211.9380  154.9130 C   0  0  0  0  0  2  0  0  0  0  0  0
  159.1610  212.8240  156.6770 C   0  0  0  0  0  2  0  0  0  0  0  0
  157.7410  212.6940  157.1760 C   0  0  0  0  0  2  0  0  0  0  0  0
  156.9840  212.0550  156.0370 C   0  0  2  0  0  3  0  0  0  0  0  0
  159.1170  212.8190  155.2190 N   0  0  1  0  0  0  0  0  0  0  0  0
  156.5340  210.7570  156.4010 O   0  0  0  0  0  0  0  0  0  0  0  0
  155.2500  210.2950  156.1010 C   0  0  0  0  0  0  0  0  0  0  0  0
  154.2690  210.2470  157.1290 N   0  0  0  0  0  1  0  0  0  0  0  0
  154.9530  209.9170  154.9350 O   0  0  0  0  0  0  0  0  0  0  0  0
  163.2050  210.0150  157.1150 O   0  0  0  0  0  1  0  0  0  0  0  0
  162.0730  209.6430  156.7050 C   0  0  0  0  0  0  0  0  0  0  0  0
  161.8820  208.3220  156.3190 O   0  0  0  0  0  0  0  0  0  0  0  0
  160.3580  212.8350  151.6920 C   0  0  0  0  0  2  0  0  0  0  0  0
  157.9460  213.1630  151.2760 C   0  0  0  0  0  1  0  0  0  0  0  0
  159.3310  213.7230  151.0100 C   0  0  2  0  0  3  0  0  0  0  0  0
  159.5930  213.7630  149.5120 C   0  0  0  0  0  2  0  0  0  0  0  0
  161.0720  213.5920  149.2250 C   0  0  0  0  0  1  0  0  0  0  0  0
  1  4  1  0  0  0  0
  2  4  1  0  0  0  0
  2  6  1  0  0  0  0
  3  1  1  0  0  0  0
  4 30  1  6  0  0  0
  5  3  1  0  0  0  0
  5  2  1  0  0  0  0
  6  7  1  0  0  0  0
  7  9  1  0  0  0  0
  9  8  1  1  0  0  0
 10 11  1  0  0  0  0
 10  9  1  0  0  0  0
 13 12  2  0  0  0  0
 13 11  1  0  0  0  0
 14 13  2  0  0  0  0
 15 16  2  0  0  0  0
 15 17  1  0  0  0  0
 17 13  1  0  0  0  0
 18 28  1  1  0  0  0
 18 15  1  0  0  0  0
 19 22  1  0  0  0  0
 20 23  1  6  0  0  0
 22 21  1  6  0  0  0
 22 24  1  0  0  0  0
 22 20  1  0  0  0  0
 24 18  1  0  0  0  0
 24 20  1  0  0  0  0
 25 27  1  0  0  0  0
 25 26  1  0  0  0  0
 27 26  1  0  0  0  0
 27 18  1  1  0  0  0
 29 28  1  0  0  0  0
 30 51  1  1  0  0  0
 30 31  1  0  0  0  0
 33 49  1  6  0  0  0
 34 33  1  0  0  0  0
 34 32  1  0  0  0  0
 35 43  1  0  0  0  0
 35 36  1  1  0  0  0
 36 33  1  0  0  0  0
 37 34  1  0  0  0  0
 38 31  1  6  0  0  0
 38 35  1  0  0  0  0
 38 37  1  0  0  0  0
 39 42  1  0  0  0  0
 40 41  1  0  0  0  0
 42 44  1  1  0  0  0
 42 41  1  0  0  0  0
 43 39  1  1  0  0  0
 43 40  1  0  0  0  0
 45 44  1  0  0  0  0
 45 46  1  0  0  0  0
 47 45  2  0  0  0  0
 49 48  1  0  0  0  0
 50 49  2  0  0  0  0
 53 52  1  6  0  0  0
 53 51  1  0  0  0  0
 54 53  1  0  0  0  0
 55 54  1  0  0  0  0
M  END
>  <MODEL>
9

>  <REMARK>
 VINA RESULT:      -0.0      2.263      5.388
  Name = 
  21 active torsions:
  status: ('A' for Active; 'I' for Inactive)
    1  A    between atoms: C_1  and  C_21
    2  A    between atoms: C_1  and  O_29
    3  A    between atoms: C_1  and  C_38
    4  A    between atoms: C_1  and  N_53
    5  A    between atoms: C_2  and  C_19
    6  A    between atoms: C_2  and  O_28
    7  A    between atoms: C_2  and  C_44
    8  A    between atoms: C_4  and  C_40
    9  A    between atoms: C_8  and  S_20
   10  A    between atoms: C_8  and  C_43
   11  A    between atoms: C_10  and  O_32
   12  A    between atoms: C_16  and  C_17
   13  A    between atoms: C_19  and  C_40
   14  A    between atoms: S_20  and  N_42
   15  A    between atoms: N_27  and  C_31
   16  A    between atoms: O_28  and  C_49
   17  A    between atoms: C_31  and  C_54
   18  A    between atoms: O_32  and  C_48
   19  A    between atoms: C_33  and  N_52
   20  A    between atoms: C_43  and  C_51
   21  A    between atoms: C_51  and  C_54
                            x       y       z     vdW  Elec       q    Type
                         _______ _______ _______ _____ _____    ______ ____

>  <TORSDO>
F 21

$$$$
