=
 OpenBabel11052422253D

 31 35  0  0  1  0  0  0  0  0999 V2000
  161.1350  212.5670  150.0930 C   0  0  0  0  0  0  0  0  0  0  0  0
  161.4510  208.8340  150.9030 C   0  0  0  0  0  0  0  0  0  0  0  0
  161.0800  208.6650  152.2000 C   0  0  0  0  0  0  0  0  0  0  0  0
  160.5410  209.5910  154.4030 C   0  0  0  0  0  0  0  0  0  0  0  0
  161.5040  210.1590  150.2020 C   0  0  0  0  0  0  0  0  0  0  0  0
  161.7550  212.6140  148.8440 C   0  0  0  0  0  3  0  0  0  0  0  0
  160.6760  209.7760  153.0890 C   0  0  0  0  0  3  0  0  0  0  0  0
  162.1070  207.7090  148.7240 C   0  0  1  0  0  3  0  0  0  0  0  0
  160.6620  213.7020  150.6580 F   0  0  0  0  0  0  0  0  0  0  0  0
  161.8950  206.2760  152.1180 C   0  0  0  0  0  3  0  0  0  0  0  0
  160.1530  210.7340  155.2690 C   0  0  0  0  0  1  0  0  0  0  0  0
  162.5680  209.0250  148.2960 N   0  0  0  0  0  2  0  0  0  0  0  0
  161.9340  207.6780  150.1750 N   0  0  0  0  0  0  0  0  0  0  0  0
  161.0160  211.3490  150.7660 C   0  0  0  0  0  3  0  0  0  0  0  0
  160.8550  208.2870  155.0180 C   0  0  0  0  0  3  0  0  0  0  0  0
  162.0990  210.2170  148.9260 C   0  0  0  0  0  0  0  0  0  0  0  0
  162.2360  211.4400  148.2620 C   0  0  0  0  0  3  0  0  0  0  0  0
  162.2960  206.4750  150.8660 C   0  0  0  0  0  3  0  0  0  0  0  0
  160.9720  207.2580  152.7680 C   0  0  1  0  0  3  0  0  0  0  0  0
  161.0970  207.2100  154.2660 C   0  0  0  0  0  3  0  0  0  0  0  0
  159.8110  206.2820  145.9570 C   0  0  0  0  0  1  0  0  0  0  0  0
  160.3210  205.9890  148.4330 C   0  0  0  0  0  2  0  0  0  0  0  0
  160.8700  206.2230  147.0430 C   0  0  2  0  0  0  0  0  0  0  0  0
  160.7830  207.3840  148.0330 C   0  0  2  0  0  3  0  0  0  0  0  0
  162.2520  205.6050  146.7440 C   0  0  1  0  0  3  0  0  0  0  0  0
  162.3000  204.0610  146.7360 C   0  0  0  0  0  0  0  0  0  0  0  0
  163.6170  203.6500  146.5310 O   0  0  0  0  0  1  0  0  0  0  0  0
  161.4380  203.4790  145.6260 C   0  0  0  0  0  1  0  0  0  0  0  0
  161.8340  203.4960  148.0650 C   0  0  0  0  0  1  0  0  0  0  0  0
  161.9330  205.6700  144.6160 O   0  0  0  0  0  1  0  0  0  0  0  0
  162.7520  206.1220  145.5430 O   0  0  0  0  0  0  0  0  0  0  0  0
  1  9  1  0  0  0  0
  1 14  1  0  0  0  0
  2  3  2  0  0  0  0
  3 19  1  0  0  0  0
  3  7  1  0  0  0  0
  4 15  1  0  0  0  0
  4 11  1  0  0  0  0
  5 14  2  0  0  0  0
  5  2  1  0  0  0  0
  6  1  2  0  0  0  0
  7  4  2  0  0  0  0
  8 12  1  6  0  0  0
  8 13  1  0  0  0  0
 12 16  1  0  0  0  0
 13 18  1  0  0  0  0
 13  2  1  0  0  0  0
 16  5  1  0  0  0  0
 17  6  1  0  0  0  0
 17 16  2  0  0  0  0
 18 10  2  0  0  0  0
 19 10  1  6  0  0  0
 19 20  1  0  0  0  0
 20 15  2  0  0  0  0
 23 21  1  6  0  0  0
 23 24  1  0  0  0  0
 23 22  1  0  0  0  0
 24 22  1  1  0  0  0
 24  8  1  0  0  0  0
 25 31  1  6  0  0  0
 25 23  1  0  0  0  0
 26 25  1  0  0  0  0
 26 29  1  0  0  0  0
 27 26  1  0  0  0  0
 28 26  1  0  0  0  0
 30 31  1  0  0  0  0
M  END
>  <MODEL>
1

>  <REMARK>
 VINA RESULT:      -6.5      0.000      0.000
  Name = 
  4 active torsions:
  status: ('A' for Active; 'I' for Inactive)
    1  A    between atoms: C_1  and  C_19
    2  A    between atoms: O_7  and  C_19
    3  A    between atoms: C_15  and  C_23
    4  A    between atoms: C_19  and  C_22
                            x       y       z     vdW  Elec       q    Type
                         _______ _______ _______ _____ _____    ______ ____

>  <TORSDO>
F 4

$$$$
=
 OpenBabel11052422253D

 31 35  0  0  1  0  0  0  0  0999 V2000
  160.3840  203.1550  150.7920 C   0  0  0  0  0  0  0  0  0  0  0  0
  161.3500  206.8500  151.1040 C   0  0  0  0  0  0  0  0  0  0  0  0
  161.2990  207.3920  149.8580 C   0  0  0  0  0  0  0  0  0  0  0  0
  161.1450  207.1400  147.4260 C   0  0  0  0  0  0  0  0  0  0  0  0
  161.0750  205.4090  151.4130 C   0  0  0  0  0  0  0  0  0  0  0  0
  160.7010  202.6950  152.0700 C   0  0  0  0  0  3  0  0  0  0  0  0
  160.9610  206.6220  148.6410 C   0  0  0  0  0  3  0  0  0  0  0  0
  161.6480  207.2770  153.5880 C   0  0  1  0  0  3  0  0  0  0  0  0
  159.9040  202.2950  149.8620 F   0  0  0  0  0  0  0  0  0  0  0  0
  162.3780  209.5010  150.7360 C   0  0  0  0  0  3  0  0  0  0  0  0
  160.8140  206.3310  146.2250 C   0  0  0  0  0  1  0  0  0  0  0  0
  161.8290  205.8350  153.7150 N   0  0  0  0  0  2  0  0  0  0  0  0
  161.8050  207.6890  152.1950 N   0  0  0  0  0  0  0  0  0  0  0  0
  160.5740  204.5000  150.4670 C   0  0  0  0  0  3  0  0  0  0  0  0
  161.7520  208.4740  147.2580 C   0  0  0  0  0  3  0  0  0  0  0  0
  161.3610  204.9370  152.7100 C   0  0  0  0  0  0  0  0  0  0  0  0
  161.1890  203.5860  153.0270 C   0  0  0  0  0  3  0  0  0  0  0  0
  162.4630  208.9360  151.9360 C   0  0  0  0  0  3  0  0  0  0  0  0
  161.5020  208.8900  149.6860 C   0  0  1  0  0  3  0  0  0  0  0  0
  161.9600  209.2750  148.3070 C   0  0  0  0  0  3  0  0  0  0  0  0
  159.0250  208.5170  156.1470 C   0  0  0  0  0  1  0  0  0  0  0  0
  160.0330  209.1550  153.8980 C   0  0  0  0  0  2  0  0  0  0  0  0
  160.2740  208.6120  155.2890 C   0  0  2  0  0  0  0  0  0  0  0  0
  160.2580  207.6610  154.0930 C   0  0  2  0  0  3  0  0  0  0  0  0
  161.6300  208.9700  155.9340 C   0  0  1  0  0  3  0  0  0  0  0  0
  162.0310  210.4600  155.8530 C   0  0  0  0  0  0  0  0  0  0  0  0
  162.3420  210.7730  154.5300 O   0  0  0  0  0  1  0  0  0  0  0  0
  163.2460  210.7610  156.7150 C   0  0  0  0  0  1  0  0  0  0  0  0
  160.8850  211.3540  156.2890 C   0  0  0  0  0  1  0  0  0  0  0  0
  161.6720  207.2080  157.1700 O   0  0  0  0  0  1  0  0  0  0  0  0
  161.6560  208.5220  157.2600 O   0  0  0  0  0  0  0  0  0  0  0  0
  1  6  1  0  0  0  0
  2  5  1  0  0  0  0
  2 13  1  0  0  0  0
  3  2  2  0  0  0  0
  4  7  2  0  0  0  0
  5 16  2  0  0  0  0
  6 17  2  0  0  0  0
  7  3  1  0  0  0  0
  8 12  1  6  0  0  0
  8 24  1  0  0  0  0
  9  1  1  0  0  0  0
 10 18  2  0  0  0  0
 11  4  1  0  0  0  0
 13  8  1  0  0  0  0
 14  1  2  0  0  0  0
 14  5  1  0  0  0  0
 15  4  1  0  0  0  0
 15 20  2  0  0  0  0
 16 17  1  0  0  0  0
 16 12  1  0  0  0  0
 18 13  1  0  0  0  0
 19 20  1  6  0  0  0
 19  3  1  0  0  0  0
 19 10  1  0  0  0  0
 22 23  1  0  0  0  0
 23 25  1  0  0  0  0
 23 21  1  1  0  0  0
 24 22  1  6  0  0  0
 24 23  1  0  0  0  0
 25 31  1  1  0  0  0
 26 25  1  0  0  0  0
 26 29  1  0  0  0  0
 26 28  1  0  0  0  0
 27 26  1  0  0  0  0
 30 31  1  0  0  0  0
M  END
>  <MODEL>
2

>  <REMARK>
 VINA RESULT:      -5.8      4.438      8.311
  Name = 
  4 active torsions:
  status: ('A' for Active; 'I' for Inactive)
    1  A    between atoms: C_1  and  C_19
    2  A    between atoms: O_7  and  C_19
    3  A    between atoms: C_15  and  C_23
    4  A    between atoms: C_19  and  C_22
                            x       y       z     vdW  Elec       q    Type
                         _______ _______ _______ _____ _____    ______ ____

>  <TORSDO>
F 4

$$$$
=
 OpenBabel11052422253D

 31 35  0  0  1  0  0  0  0  0999 V2000
  161.3030  204.9600  145.2730 C   0  0  0  0  0  0  0  0  0  0  0  0
  160.9600  204.4710  149.0590 C   0  0  0  0  0  0  0  0  0  0  0  0
  161.2000  203.1590  149.3240 C   0  0  0  0  0  0  0  0  0  0  0  0
  161.4960  200.8480  148.5670 C   0  0  0  0  0  0  0  0  0  0  0  0
  160.9600  205.0710  147.6850 C   0  0  0  0  0  0  0  0  0  0  0  0
  160.8130  206.2590  145.1340 C   0  0  0  0  0  3  0  0  0  0  0  0
  161.4940  202.1520  148.2820 C   0  0  0  0  0  3  0  0  0  0  0  0
  160.5470  206.7850  150.0170 C   0  0  1  0  0  3  0  0  0  0  0  0
  161.6990  204.2650  144.1810 F   0  0  0  0  0  0  0  0  0  0  0  0
  160.4320  203.5060  151.7050 C   0  0  0  0  0  3  0  0  0  0  0  0
  161.7770  199.8630  147.4910 C   0  0  0  0  0  1  0  0  0  0  0  0
  160.1130  207.1570  148.6760 N   0  0  0  0  0  2  0  0  0  0  0  0
  160.5710  205.3310  150.1590 N   0  0  0  0  0  0  0  0  0  0  0  0
  161.3700  204.3710  146.5380 C   0  0  0  0  0  3  0  0  0  0  0  0
  161.1410  200.3700  149.9160 C   0  0  0  0  0  3  0  0  0  0  0  0
  160.4970  206.3940  147.5330 C   0  0  0  0  0  0  0  0  0  0  0  0
  160.4110  206.9740  146.2630 C   0  0  0  0  0  3  0  0  0  0  0  0
  160.1580  204.7730  151.4140 C   0  0  0  0  0  3  0  0  0  0  0  0
  161.2690  202.6910  150.7700 C   0  0  1  0  0  3  0  0  0  0  0  0
  160.9930  201.2220  150.9340 C   0  0  0  0  0  3  0  0  0  0  0  0
  163.1470  209.2470  151.4810 C   0  0  0  0  0  1  0  0  0  0  0  0
  162.4970  206.7890  151.5780 C   0  0  0  0  0  2  0  0  0  0  0  0
  162.0260  208.2260  151.5350 C   0  0  2  0  0  0  0  0  0  0  0  0
  161.9390  207.3580  150.2800 C   0  0  2  0  0  3  0  0  0  0  0  0
  160.7290  208.5400  152.3110 C   0  0  1  0  0  3  0  0  0  0  0  0
  160.8500  208.5010  153.8500 C   0  0  0  0  0  0  0  0  0  0  0  0
  162.1000  208.9960  154.2180 O   0  0  0  0  0  1  0  0  0  0  0  0
  160.7180  207.0840  154.3860 C   0  0  0  0  0  1  0  0  0  0  0  0
  159.7910  209.3710  154.5000 C   0  0  0  0  0  1  0  0  0  0  0  0
  161.2550  210.5670  151.8130 O   0  0  0  0  0  1  0  0  0  0  0  0
  160.2100  209.7690  151.8860 O   0  0  0  0  0  0  0  0  0  0  0  0
  1 14  1  0  0  0  0
  2  3  2  0  0  0  0
  2 13  1  0  0  0  0
  3 19  1  0  0  0  0
  4 15  1  0  0  0  0
  5  2  1  0  0  0  0
  6  1  2  0  0  0  0
  6 17  1  0  0  0  0
  7  4  2  0  0  0  0
  7  3  1  0  0  0  0
  8 12  1  6  0  0  0
  8 13  1  0  0  0  0
  8 24  1  0  0  0  0
  9  1  1  0  0  0  0
 11  4  1  0  0  0  0
 13 18  1  0  0  0  0
 14  5  2  0  0  0  0
 15 20  2  0  0  0  0
 16  5  1  0  0  0  0
 16 12  1  0  0  0  0
 17 16  2  0  0  0  0
 18 10  2  0  0  0  0
 19 20  1  6  0  0  0
 19 10  1  0  0  0  0
 23 21  1  1  0  0  0
 23 22  1  0  0  0  0
 23 25  1  0  0  0  0
 24 23  1  0  0  0  0
 24 22  1  1  0  0  0
 25 31  1  1  0  0  0
 25 26  1  0  0  0  0
 26 27  1  0  0  0  0
 26 28  1  0  0  0  0
 26 29  1  0  0  0  0
 30 31  1  0  0  0  0
M  END
>  <MODEL>
3

>  <REMARK>
 VINA RESULT:      -5.4      3.849      7.315
  Name = 
  4 active torsions:
  status: ('A' for Active; 'I' for Inactive)
    1  A    between atoms: C_1  and  C_19
    2  A    between atoms: O_7  and  C_19
    3  A    between atoms: C_15  and  C_23
    4  A    between atoms: C_19  and  C_22
                            x       y       z     vdW  Elec       q    Type
                         _______ _______ _______ _____ _____    ______ ____

>  <TORSDO>
F 4

$$$$
=
 OpenBabel11052422253D

 31 35  0  0  1  0  0  0  0  0999 V2000
  160.6940  203.0760  151.9530 C   0  0  0  0  0  0  0  0  0  0  0  0
  161.3440  206.5390  150.4450 C   0  0  0  0  0  0  0  0  0  0  0  0
  161.6080  207.3890  151.4730 C   0  0  0  0  0  0  0  0  0  0  0  0
  161.6300  207.8970  153.8700 C   0  0  0  0  0  0  0  0  0  0  0  0
  161.0000  205.0890  150.6110 C   0  0  0  0  0  0  0  0  0  0  0  0
  160.2220  202.3910  150.8330 C   0  0  0  0  0  3  0  0  0  0  0  0
  161.5900  206.9850  152.8960 C   0  0  0  0  0  3  0  0  0  0  0  0
  161.2630  206.2210  147.9280 C   0  0  1  0  0  3  0  0  0  0  0  0
  160.7700  202.4470  153.1490 F   0  0  0  0  0  0  0  0  0  0  0  0
  161.5020  209.3440  149.8780 C   0  0  0  0  0  3  0  0  0  0  0  0
  161.5910  207.4570  155.2880 C   0  0  0  0  0  1  0  0  0  0  0  0
  160.5020  205.0070  148.2030 N   0  0  0  0  0  2  0  0  0  0  0  0
  161.2820  207.0870  149.1040 N   0  0  0  0  0  0  0  0  0  0  0  0
  161.0750  204.4150  151.8410 C   0  0  0  0  0  3  0  0  0  0  0  0
  161.6290  209.3380  153.5550 C   0  0  0  0  0  3  0  0  0  0  0  0
  160.5510  204.3740  149.4820 C   0  0  0  0  0  0  0  0  0  0  0  0
  160.1510  203.0400  149.6000 C   0  0  0  0  0  3  0  0  0  0  0  0
  161.1980  208.5030  148.8950 C   0  0  0  0  0  3  0  0  0  0  0  0
  162.0420  208.8150  151.1700 C   0  0  1  0  0  3  0  0  0  0  0  0
  161.7760  209.7710  152.3000 C   0  0  0  0  0  3  0  0  0  0  0  0
  164.0530  204.0330  146.3820 C   0  0  0  0  0  1  0  0  0  0  0  0
  162.9710  206.3200  146.1090 C   0  0  0  0  0  2  0  0  0  0  0  0
  162.7710  204.8450  146.3800 C   0  0  2  0  0  0  0  0  0  0  0  0
  162.6900  205.8480  147.5300 C   0  0  2  0  0  3  0  0  0  0  0  0
  161.4630  204.2250  145.8420 C   0  0  1  0  0  3  0  0  0  0  0  0
  160.8200  204.9650  144.6490 C   0  0  0  0  0  0  0  0  0  0  0  0
  159.9250  204.1060  144.0120 O   0  0  0  0  0  1  0  0  0  0  0  0
  161.8640  205.4070  143.6350 C   0  0  0  0  0  1  0  0  0  0  0  0
  160.0470  206.1830  145.1180 C   0  0  0  0  0  1  0  0  0  0  0  0
  160.9170  202.2160  146.3910 O   0  0  0  0  0  1  0  0  0  0  0  0
  161.6710  202.8750  145.5350 O   0  0  0  0  0  0  0  0  0  0  0  0
  1  9  1  0  0  0  0
  2  5  1  0  0  0  0
  2  3  2  0  0  0  0
  3  7  1  0  0  0  0
  4 11  1  0  0  0  0
  5 14  2  0  0  0  0
  6  1  2  0  0  0  0
  7  4  2  0  0  0  0
  8 12  1  1  0  0  0
  8 13  1  0  0  0  0
 12 16  1  0  0  0  0
 13  2  1  0  0  0  0
 14  1  1  0  0  0  0
 15  4  1  0  0  0  0
 16 17  2  0  0  0  0
 16  5  1  0  0  0  0
 17  6  1  0  0  0  0
 18 13  1  0  0  0  0
 18 10  2  0  0  0  0
 19 10  1  6  0  0  0
 19  3  1  0  0  0  0
 19 20  1  0  0  0  0
 20 15  2  0  0  0  0
 22 23  1  0  0  0  0
 23 21  1  6  0  0  0
 23 24  1  0  0  0  0
 24 22  1  6  0  0  0
 24  8  1  0  0  0  0
 25 31  1  6  0  0  0
 25 23  1  0  0  0  0
 26 29  1  0  0  0  0
 26 25  1  0  0  0  0
 27 26  1  0  0  0  0
 28 26  1  0  0  0  0
 31 30  1  0  0  0  0
M  END
>  <MODEL>
4

>  <REMARK>
 VINA RESULT:      -5.1      2.788      4.965
  Name = 
  4 active torsions:
  status: ('A' for Active; 'I' for Inactive)
    1  A    between atoms: C_1  and  C_19
    2  A    between atoms: O_7  and  C_19
    3  A    between atoms: C_15  and  C_23
    4  A    between atoms: C_19  and  C_22
                            x       y       z     vdW  Elec       q    Type
                         _______ _______ _______ _____ _____    ______ ____

>  <TORSDO>
F 4

$$$$
=
 OpenBabel11052422253D

 31 35  0  0  1  0  0  0  0  0999 V2000
  161.8360  211.5100  148.7730 C   0  0  0  0  0  0  0  0  0  0  0  0
  161.2970  208.6380  151.2520 C   0  0  0  0  0  0  0  0  0  0  0  0
  161.5660  207.4770  150.5970 C   0  0  0  0  0  0  0  0  0  0  0  0
  161.9840  206.2460  148.5210 C   0  0  0  0  0  0  0  0  0  0  0  0
  161.3540  209.9980  150.6240 C   0  0  0  0  0  0  0  0  0  0  0  0
  161.3100  212.5800  149.4970 C   0  0  0  0  0  3  0  0  0  0  0  0
  161.9530  207.4110  149.1710 C   0  0  0  0  0  3  0  0  0  0  0  0
  160.7510  209.7390  153.4740 C   0  0  1  0  0  3  0  0  0  0  0  0
  162.3170  211.7090  147.5230 F   0  0  0  0  0  0  0  0  0  0  0  0
  160.6530  206.1670  152.5540 C   0  0  0  0  0  3  0  0  0  0  0  0
  162.3580  206.2190  147.0840 C   0  0  0  0  0  1  0  0  0  0  0  0
  160.3810  210.9130  152.6910 N   0  0  0  0  0  2  0  0  0  0  0  0
  160.8170  208.5560  152.6180 N   0  0  0  0  0  0  0  0  0  0  0  0
  161.8520  210.2300  149.3320 C   0  0  0  0  0  3  0  0  0  0  0  0
  161.5690  204.9980  149.1880 C   0  0  0  0  0  3  0  0  0  0  0  0
  160.8550  211.0950  151.3570 C   0  0  0  0  0  0  0  0  0  0  0  0
  160.8210  212.3720  150.7880 C   0  0  0  0  0  3  0  0  0  0  0  0
  160.3530  207.3120  153.1580 C   0  0  0  0  0  3  0  0  0  0  0  0
  161.5690  206.1670  151.3710 C   0  0  1  0  0  3  0  0  0  0  0  0
  161.3340  204.9620  150.5020 C   0  0  0  0  0  3  0  0  0  0  0  0
  163.1950  211.1010  156.1450 C   0  0  0  0  0  1  0  0  0  0  0  0
  162.3680  208.8960  155.1790 C   0  0  0  0  0  2  0  0  0  0  0  0
  162.0150  210.2960  155.6310 C   0  0  2  0  0  0  0  0  0  0  0  0
  162.1060  209.9780  154.1400 C   0  0  2  0  0  3  0  0  0  0  0  0
  160.6210  210.4740  156.2690 C   0  0  1  0  0  3  0  0  0  0  0  0
  159.9980  211.8800  156.1220 C   0  0  0  0  0  0  0  0  0  0  0  0
  160.4330  212.4440  154.9220 O   0  0  0  0  0  1  0  0  0  0  0  0
  160.4120  212.7980  157.2610 C   0  0  0  0  0  1  0  0  0  0  0  0
  158.4830  211.8010  156.0800 C   0  0  0  0  0  1  0  0  0  0  0  0
  159.6810  208.5960  156.7450 O   0  0  0  0  0  1  0  0  0  0  0  0
  159.7490  209.4930  155.7820 O   0  0  0  0  0  0  0  0  0  0  0  0
  1 14  2  0  0  0  0
  1  6  1  0  0  0  0
  2 13  1  0  0  0  0
  3  2  2  0  0  0  0
  3 19  1  0  0  0  0
  4  7  2  0  0  0  0
  4 15  1  0  0  0  0
  5  2  1  0  0  0  0
  5 16  2  0  0  0  0
  6 17  2  0  0  0  0
  7  3  1  0  0  0  0
  8 12  1  6  0  0  0
  8 24  1  0  0  0  0
  9  1  1  0  0  0  0
 10 18  2  0  0  0  0
 11  4  1  0  0  0  0
 13 18  1  0  0  0  0
 13  8  1  0  0  0  0
 14  5  1  0  0  0  0
 15 20  2  0  0  0  0
 16 12  1  0  0  0  0
 17 16  1  0  0  0  0
 19 20  1  6  0  0  0
 19 10  1  0  0  0  0
 22 23  1  0  0  0  0
 23 21  1  1  0  0  0
 23 25  1  0  0  0  0
 24 22  1  1  0  0  0
 24 23  1  0  0  0  0
 25 31  1  6  0  0  0
 26 25  1  0  0  0  0
 26 28  1  0  0  0  0
 27 26  1  0  0  0  0
 29 26  1  0  0  0  0
 31 30  1  0  0  0  0
M  END
>  <MODEL>
5

>  <REMARK>
 VINA RESULT:      -4.1      4.008      7.557
  Name = 
  4 active torsions:
  status: ('A' for Active; 'I' for Inactive)
    1  A    between atoms: C_1  and  C_19
    2  A    between atoms: O_7  and  C_19
    3  A    between atoms: C_15  and  C_23
    4  A    between atoms: C_19  and  C_22
                            x       y       z     vdW  Elec       q    Type
                         _______ _______ _______ _____ _____    ______ ____

>  <TORSDO>
F 4

$$$$
=
 OpenBabel11052422253D

 31 35  0  0  1  0  0  0  0  0999 V2000
  161.2220  204.7090  153.1470 C   0  0  0  0  0  0  0  0  0  0  0  0
  161.3880  207.2190  150.2550 C   0  0  0  0  0  0  0  0  0  0  0  0
  161.6710  208.4370  150.7880 C   0  0  0  0  0  0  0  0  0  0  0  0
  161.8850  209.9220  152.7250 C   0  0  0  0  0  0  0  0  0  0  0  0
  161.2010  205.9660  151.0570 C   0  0  0  0  0  0  0  0  0  0  0  0
  160.7070  203.5910  152.4900 C   0  0  0  0  0  3  0  0  0  0  0  0
  161.8340  208.6810  152.2370 C   0  0  0  0  0  3  0  0  0  0  0  0
  161.0850  205.8510  148.1380 C   0  0  1  0  0  3  0  0  0  0  0  0
  161.4770  204.6570  154.4760 F   0  0  0  0  0  0  0  0  0  0  0  0
  161.2220  209.5160  148.5490 C   0  0  0  0  0  3  0  0  0  0  0  0
  162.0300  210.1300  154.1890 C   0  0  0  0  0  1  0  0  0  0  0  0
  160.4740  204.8400  148.9940 N   0  0  0  0  0  2  0  0  0  0  0  0
  161.1400  207.1370  148.8290 N   0  0  0  0  0  0  0  0  0  0  0  0
  161.4620  205.8870  152.4350 C   0  0  0  0  0  3  0  0  0  0  0  0
  161.7160  211.0880  151.8380 C   0  0  0  0  0  3  0  0  0  0  0  0
  160.7100  204.8180  150.4020 C   0  0  0  0  0  0  0  0  0  0  0  0
  160.4520  203.6460  151.1200 C   0  0  0  0  0  3  0  0  0  0  0  0
  160.9010  208.3220  148.0580 C   0  0  0  0  0  3  0  0  0  0  0  0
  161.9360  209.6140  149.8610 C   0  0  1  0  0  3  0  0  0  0  0  0
  161.6960  210.9490  150.5100 C   0  0  0  0  0  3  0  0  0  0  0  0
  163.7590  203.6070  146.4720 C   0  0  0  0  0  1  0  0  0  0  0  0
  162.8650  205.9890  146.3930 C   0  0  0  0  0  2  0  0  0  0  0  0
  162.5430  204.5150  146.5100 C   0  0  2  0  0  0  0  0  0  0  0  0
  162.4940  205.4050  147.7510 C   0  0  2  0  0  3  0  0  0  0  0  0
  161.2140  204.0560  145.8720 C   0  0  1  0  0  3  0  0  0  0  0  0
  160.7240  204.9040  144.6780 C   0  0  0  0  0  0  0  0  0  0  0  0
  161.8270  205.3070  143.9260 O   0  0  0  0  0  1  0  0  0  0  0  0
  159.9790  206.1460  145.1410 C   0  0  0  0  0  1  0  0  0  0  0  0
  159.8120  204.0930  143.7750 C   0  0  0  0  0  1  0  0  0  0  0  0
  160.8740  202.0510  146.5790 O   0  0  0  0  0  1  0  0  0  0  0  0
  161.3010  202.7050  145.5180 O   0  0  0  0  0  0  0  0  0  0  0  0
  1  9  1  0  0  0  0
  2  3  2  0  0  0  0
  2  5  1  0  0  0  0
  3  7  1  0  0  0  0
  4 11  1  0  0  0  0
  5 14  1  0  0  0  0
  6  1  1  0  0  0  0
  7  4  2  0  0  0  0
  8 13  1  0  0  0  0
  8 12  1  1  0  0  0
 12 16  1  0  0  0  0
 13  2  1  0  0  0  0
 14  1  2  0  0  0  0
 15  4  1  0  0  0  0
 16  5  2  0  0  0  0
 16 17  1  0  0  0  0
 17  6  2  0  0  0  0
 18 10  2  0  0  0  0
 18 13  1  0  0  0  0
 19 10  1  6  0  0  0
 19 20  1  0  0  0  0
 19  3  1  0  0  0  0
 20 15  2  0  0  0  0
 22 23  1  0  0  0  0
 23 21  1  6  0  0  0
 23 24  1  0  0  0  0
 24 22  1  6  0  0  0
 24  8  1  0  0  0  0
 25 31  1  6  0  0  0
 25 23  1  0  0  0  0
 26 28  1  0  0  0  0
 26 25  1  0  0  0  0
 27 26  1  0  0  0  0
 29 26  1  0  0  0  0
 31 30  1  0  0  0  0
M  END
>  <MODEL>
6

>  <REMARK>
 VINA RESULT:      -3.7      2.460      4.763
  Name = 
  4 active torsions:
  status: ('A' for Active; 'I' for Inactive)
    1  A    between atoms: C_1  and  C_19
    2  A    between atoms: O_7  and  C_19
    3  A    between atoms: C_15  and  C_23
    4  A    between atoms: C_19  and  C_22
                            x       y       z     vdW  Elec       q    Type
                         _______ _______ _______ _____ _____    ______ ____

>  <TORSDO>
F 4

$$$$
=
 OpenBabel11052422253D

 31 35  0  0  1  0  0  0  0  0999 V2000
  162.2040  208.0790  148.7520 C   0  0  0  0  0  0  0  0  0  0  0  0
  160.8800  211.4780  149.9280 C   0  0  0  0  0  0  0  0  0  0  0  0
  160.5600  212.1980  148.8200 C   0  0  0  0  0  0  0  0  0  0  0  0
  160.6400  212.5270  146.3940 C   0  0  0  0  0  0  0  0  0  0  0  0
  161.4690  210.0990  149.9030 C   0  0  0  0  0  0  0  0  0  0  0  0
  162.6950  207.5630  149.9510 C   0  0  0  0  0  3  0  0  0  0  0  0
  160.7540  211.7060  147.4390 C   0  0  0  0  0  3  0  0  0  0  0  0
  160.8180  211.3530  152.4630 C   0  0  1  0  0  3  0  0  0  0  0  0
  162.3250  207.3660  147.6070 F   0  0  0  0  0  0  0  0  0  0  0  0
  160.2200  214.2480  150.2550 C   0  0  0  0  0  3  0  0  0  0  0  0
  160.8600  212.0040  145.0210 C   0  0  0  0  0  1  0  0  0  0  0  0
  161.7860  210.2700  152.3370 N   0  0  0  0  0  2  0  0  0  0  0  0
  160.7470  212.1200  151.2210 N   0  0  0  0  0  0  0  0  0  0  0  0
  161.6010  209.3390  148.7290 C   0  0  0  0  0  3  0  0  0  0  0  0
  160.3810  213.9660  146.5900 C   0  0  0  0  0  3  0  0  0  0  0  0
  161.9410  209.5510  151.1130 C   0  0  0  0  0  0  0  0  0  0  0  0
  162.5630  208.2990  151.1300 C   0  0  0  0  0  3  0  0  0  0  0  0
  160.5820  213.5410  151.3200 C   0  0  0  0  0  3  0  0  0  0  0  0
  159.8760  213.5470  148.9780 C   0  0  1  0  0  3  0  0  0  0  0  0
  160.0670  214.4530  147.7930 C   0  0  0  0  0  3  0  0  0  0  0  0
  157.8500  210.3530  154.7340 C   0  0  0  0  0  1  0  0  0  0  0  0
  158.3960  211.8760  152.7690 C   0  0  0  0  0  2  0  0  0  0  0  0
  158.8450  211.3060  154.0960 C   0  0  2  0  0  0  0  0  0  0  0  0
  159.4450  210.7710  152.7970 C   0  0  2  0  0  3  0  0  0  0  0  0
  159.7010  212.2370  154.9820 C   0  0  1  0  0  3  0  0  0  0  0  0
  159.0060  213.5360  155.4450 C   0  0  0  0  0  0  0  0  0  0  0  0
  157.8310  213.2050  156.1190 O   0  0  0  0  0  1  0  0  0  0  0  0
  158.6490  214.4300  154.2690 C   0  0  0  0  0  1  0  0  0  0  0  0
  159.8920  214.3140  156.4020 C   0  0  0  0  0  1  0  0  0  0  0  0
  161.4530  211.2680  155.7730 O   0  0  0  0  0  1  0  0  0  0  0  0
  160.1970  211.5220  156.0780 O   0  0  0  0  0  0  0  0  0  0  0  0
  1  6  1  0  0  0  0
  2 13  1  0  0  0  0
  3 19  1  0  0  0  0
  3  2  2  0  0  0  0
  4 15  1  0  0  0  0
  4  7  2  0  0  0  0
  5  2  1  0  0  0  0
  5 16  2  0  0  0  0
  6 17  2  0  0  0  0
  7  3  1  0  0  0  0
  8 12  1  6  0  0  0
  8 24  1  0  0  0  0
  9  1  1  0  0  0  0
 10 18  2  0  0  0  0
 11  4  1  0  0  0  0
 13 18  1  0  0  0  0
 13  8  1  0  0  0  0
 14  1  2  0  0  0  0
 14  5  1  0  0  0  0
 15 20  2  0  0  0  0
 16 17  1  0  0  0  0
 16 12  1  0  0  0  0
 19 20  1  6  0  0  0
 19 10  1  0  0  0  0
 22 23  1  0  0  0  0
 23 21  1  1  0  0  0
 23 25  1  0  0  0  0
 24 22  1  6  0  0  0
 24 23  1  0  0  0  0
 25 26  1  0  0  0  0
 25 31  1  1  0  0  0
 26 27  1  0  0  0  0
 26 29  1  0  0  0  0
 28 26  1  0  0  0  0
 30 31  1  0  0  0  0
M  END
>  <MODEL>
7

>  <REMARK>
 VINA RESULT:      -3.6      4.751      8.626
  Name = 
  4 active torsions:
  status: ('A' for Active; 'I' for Inactive)
    1  A    between atoms: C_1  and  C_19
    2  A    between atoms: O_7  and  C_19
    3  A    between atoms: C_15  and  C_23
    4  A    between atoms: C_19  and  C_22
                            x       y       z     vdW  Elec       q    Type
                         _______ _______ _______ _____ _____    ______ ____

>  <TORSDO>
F 4

$$$$
=
 OpenBabel11052422253D

 31 35  0  0  1  0  0  0  0  0999 V2000
  161.6880  204.4770  146.7070 C   0  0  0  0  0  0  0  0  0  0  0  0
  161.3860  206.7970  149.7420 C   0  0  0  0  0  0  0  0  0  0  0  0
  161.5110  206.0290  150.8570 C   0  0  0  0  0  0  0  0  0  0  0  0
  161.5800  203.8320  151.9380 C   0  0  0  0  0  0  0  0  0  0  0  0
  161.4100  206.2670  148.3400 C   0  0  0  0  0  0  0  0  0  0  0  0
  161.3150  205.3450  145.6800 C   0  0  0  0  0  3  0  0  0  0  0  0
  161.6890  204.5610  150.8260 C   0  0  0  0  0  3  0  0  0  0  0  0
  161.2050  209.1470  148.7990 C   0  0  1  0  0  3  0  0  0  0  0  0
  161.9950  203.1890  146.4270 F   0  0  0  0  0  0  0  0  0  0  0  0
  160.8300  207.9980  152.2850 C   0  0  0  0  0  3  0  0  0  0  0  0
  161.7460  202.3570  151.8670 C   0  0  0  0  0  1  0  0  0  0  0  0
  160.7780  208.5110  147.5580 N   0  0  0  0  0  2  0  0  0  0  0  0
  161.1000  208.2080  149.9140 N   0  0  0  0  0  0  0  0  0  0  0  0
  161.7300  204.9350  148.0260 C   0  0  0  0  0  3  0  0  0  0  0  0
  161.2120  204.4610  153.2200 C   0  0  0  0  0  3  0  0  0  0  0  0
  161.0660  207.1390  147.2880 C   0  0  0  0  0  0  0  0  0  0  0  0
  161.0050  206.6740  145.9710 C   0  0  0  0  0  3  0  0  0  0  0  0
  160.6660  208.7200  151.1810 C   0  0  0  0  0  3  0  0  0  0  0  0
  161.5690  206.6980  152.2220 C   0  0  1  0  0  3  0  0  0  0  0  0
  161.1640  205.7890  153.3490 C   0  0  0  0  0  3  0  0  0  0  0  0
  164.0820  211.3910  147.5110 C   0  0  0  0  0  1  0  0  0  0  0  0
  162.9390  210.7120  149.6820 C   0  0  0  0  0  2  0  0  0  0  0  0
  162.7770  211.0880  148.2250 C   0  0  2  0  0  0  0  0  0  0  0  0
  162.6490  209.6260  148.6540 C   0  0  2  0  0  3  0  0  0  0  0  0
  161.4960  211.8690  147.8620 C   0  0  1  0  0  3  0  0  0  0  0  0
  161.1410  213.0370  148.8080 C   0  0  0  0  0  0  0  0  0  0  0  0
  161.2260  212.5930  150.1270 O   0  0  0  0  0  1  0  0  0  0  0  0
  159.7290  213.5460  148.5640 C   0  0  0  0  0  1  0  0  0  0  0  0
  162.1140  214.1890  148.6380 C   0  0  0  0  0  1  0  0  0  0  0  0
  160.4270  211.9500  145.9950 O   0  0  0  0  0  1  0  0  0  0  0  0
  161.5720  212.3120  146.5360 O   0  0  0  0  0  0  0  0  0  0  0  0
  1 14  1  0  0  0  0
  2 13  1  0  0  0  0
  2  3  2  0  0  0  0
  3 19  1  0  0  0  0
  4 15  1  0  0  0  0
  5  2  1  0  0  0  0
  6 17  1  0  0  0  0
  6  1  2  0  0  0  0
  7  3  1  0  0  0  0
  7  4  2  0  0  0  0
  8 12  1  6  0  0  0
  8 13  1  0  0  0  0
  9  1  1  0  0  0  0
 11  4  1  0  0  0  0
 13 18  1  0  0  0  0
 14  5  2  0  0  0  0
 15 20  2  0  0  0  0
 16 12  1  0  0  0  0
 16  5  1  0  0  0  0
 17 16  2  0  0  0  0
 18 10  2  0  0  0  0
 19 10  1  6  0  0  0
 19 20  1  0  0  0  0
 23 21  1  6  0  0  0
 23 24  1  0  0  0  0
 23 22  1  0  0  0  0
 24  8  1  0  0  0  0
 24 22  1  1  0  0  0
 25 31  1  6  0  0  0
 25 23  1  0  0  0  0
 25 26  1  0  0  0  0
 26 27  1  0  0  0  0
 28 26  1  0  0  0  0
 29 26  1  0  0  0  0
 30 31  1  0  0  0  0
M  END
>  <MODEL>
8

>  <REMARK>
 VINA RESULT:      -3.6      3.426      6.345
  Name = 
  4 active torsions:
  status: ('A' for Active; 'I' for Inactive)
    1  A    between atoms: C_1  and  C_19
    2  A    between atoms: O_7  and  C_19
    3  A    between atoms: C_15  and  C_23
    4  A    between atoms: C_19  and  C_22
                            x       y       z     vdW  Elec       q    Type
                         _______ _______ _______ _____ _____    ______ ____

>  <TORSDO>
F 4

$$$$
