=
 OpenBabel11052422573D

 28 32  0  0  1  0  0  0  0  0999 V2000
  161.9710  209.6090  150.3630 C   0  0  1  0  0  3  0  0  0  0  0  0
  161.4040  205.0620  147.8810 C   0  0  0  0  0  3  0  0  0  0  0  0
  161.0020  206.4120  154.0540 C   0  0  0  0  0  1  0  0  0  0  0  0
  160.9530  203.5290  149.7110 C   0  0  0  0  0  0  0  0  0  0  0  0
  161.3000  205.9110  150.2450 C   0  0  0  0  0  0  0  0  0  0  0  0
  161.0500  202.7060  147.4360 C   0  0  0  0  0  0  0  0  0  0  0  0
  161.2220  204.8290  149.2510 C   0  0  0  0  0  0  0  0  0  0  0  0
  160.8440  204.3240  152.0330 C   0  0  0  0  0  3  0  0  0  0  0  0
  160.8680  202.4710  148.8020 C   0  0  0  0  0  3  0  0  0  0  0  0
  161.4440  207.9950  152.1580 C   0  0  0  0  0  0  0  0  0  0  0  0
  161.5440  207.1390  149.8910 N   0  0  0  0  0  0  0  0  0  0  0  0
  160.7690  203.2940  151.0820 O   0  0  0  0  0  0  0  0  0  0  0  0
  161.5770  210.3270  152.7190 C   0  0  0  0  0  3  0  0  0  0  0  0
  161.1810  206.6590  152.6290 N   0  0  0  0  0  0  0  0  0  0  0  0
  161.5540  209.0820  153.0940 N   0  0  0  0  0  0  0  0  0  0  0  0
  160.9600  201.5800  146.4710 C   0  0  0  0  0  1  0  0  0  0  0  0
  161.3180  204.0000  146.9760 C   0  0  0  0  0  3  0  0  0  0  0  0
  161.0960  205.5900  151.6700 C   0  0  0  0  0  0  0  0  0  0  0  0
  161.4010  210.6990  151.2760 C   0  0  0  0  0  2  0  0  0  0  0  0
  161.6090  208.2230  150.8370 C   0  0  0  0  0  0  0  0  0  0  0  0
  161.5990  209.8300  148.9990 O   0  0  0  0  0  0  0  0  0  0  0  0
  161.8580  211.0000  148.2690 C   0  0  0  0  0  0  0  0  0  0  0  0
  162.4570  213.3300  146.8250 C   0  0  0  0  0  0  0  0  0  0  0  0
  160.8610  211.6490  147.5220 C   0  0  0  0  0  3  0  0  0  0  0  0
  163.1530  211.5280  148.2870 C   0  0  0  0  0  3  0  0  0  0  0  0
  163.4530  212.6890  147.5680 C   0  0  0  0  0  3  0  0  0  0  0  0
  162.7480  214.4530  146.1280 F   0  0  0  0  0  0  0  0  0  0  0  0
  161.1600  212.8090  146.8030 C   0  0  0  0  0  3  0  0  0  0  0  0
  1 21  1  6  0  0  0
  1 20  1  0  0  0  0
  1 19  1  0  0  0  0
  2  7  1  0  0  0  0
  4 12  1  0  0  0  0
  5 18  1  0  0  0  0
  6  9  2  0  0  0  0
  7  4  2  0  0  0  0
  7  5  1  0  0  0  0
  9  4  1  0  0  0  0
 10 14  1  0  0  0  0
 10 15  1  0  0  0  0
 11  5  2  0  0  0  0
 11 20  1  0  0  0  0
 12  8  1  0  0  0  0
 13 15  2  0  0  0  0
 14  3  1  0  0  0  0
 16  6  1  0  0  0  0
 17  6  1  0  0  0  0
 17  2  2  0  0  0  0
 18  8  2  0  0  0  0
 18 14  1  0  0  0  0
 19 13  1  0  0  0  0
 20 10  2  0  0  0  0
 22 25  1  0  0  0  0
 22 21  1  0  0  0  0
 23 26  1  0  0  0  0
 24 22  2  0  0  0  0
 26 25  2  0  0  0  0
 27 23  1  0  0  0  0
 28 23  2  0  0  0  0
 28 24  1  0  0  0  0
M  END
>  <MODEL>
1

>  <REMARK>
 VINA RESULT:      -9.1      0.000      0.000
  Name = 
  2 active torsions:
  status: ('A' for Active; 'I' for Inactive)
    1  A    between atoms: C_1  and  O_2
    2  A    between atoms: O_2  and  C_3
                            x       y       z     vdW  Elec       q    Type
                         _______ _______ _______ _____ _____    ______ ____

>  <TORSDO>
F 2

$$$$
=
 OpenBabel11052422573D

 28 32  0  0  1  0  0  0  0  0999 V2000
  160.7740  211.3420  152.4240 C   0  0  1  0  0  3  0  0  0  0  0  0
  161.0710  207.0100  149.5430 C   0  0  0  0  0  3  0  0  0  0  0  0
  160.9920  207.7210  155.8330 C   0  0  0  0  0  1  0  0  0  0  0  0
  161.1950  205.2720  151.2360 C   0  0  0  0  0  0  0  0  0  0  0  0
  161.0090  207.6160  151.9810 C   0  0  0  0  0  0  0  0  0  0  0  0
  161.2540  204.6840  148.8880 C   0  0  0  0  0  0  0  0  0  0  0  0
  161.0930  206.6310  150.8910 C   0  0  0  0  0  0  0  0  0  0  0  0
  161.1370  205.8280  153.6290 C   0  0  0  0  0  3  0  0  0  0  0  0
  161.2760  204.3030  150.2330 C   0  0  0  0  0  3  0  0  0  0  0  0
  160.8400  209.5100  154.0800 C   0  0  0  0  0  0  0  0  0  0  0  0
  160.9110  208.8900  151.7370 N   0  0  0  0  0  0  0  0  0  0  0  0
  161.2160  204.8910  152.5860 O   0  0  0  0  0  0  0  0  0  0  0  0
  160.4630  211.7490  154.8650 C   0  0  0  0  0  3  0  0  0  0  0  0
  160.9580  208.1170  154.4310 N   0  0  0  0  0  0  0  0  0  0  0  0
  160.7800  210.5120  155.1110 N   0  0  0  0  0  0  0  0  0  0  0  0
  161.3400  203.6510  147.8230 C   0  0  0  0  0  1  0  0  0  0  0  0
  161.1520  206.0360  148.5430 C   0  0  0  0  0  3  0  0  0  0  0  0
  161.0360  207.1410  153.3780 C   0  0  0  0  0  0  0  0  0  0  0  0
  160.0540  212.1790  153.4860 C   0  0  0  0  0  2  0  0  0  0  0  0
  160.8090  209.8760  152.7800 C   0  0  0  0  0  0  0  0  0  0  0  0
  160.2210  211.5700  151.1230 O   0  0  0  0  0  0  0  0  0  0  0  0
  160.8980  212.1720  150.0520 C   0  0  0  0  0  0  0  0  0  0  0  0
  162.2130  213.4460  147.9260 C   0  0  0  0  0  0  0  0  0  0  0  0
  161.9320  211.5180  149.3610 C   0  0  0  0  0  3  0  0  0  0  0  0
  160.5300  213.4660  149.6670 C   0  0  0  0  0  3  0  0  0  0  0  0
  161.1840  214.1020  148.6080 C   0  0  0  0  0  3  0  0  0  0  0  0
  162.8470  214.0620  146.9010 F   0  0  0  0  0  0  0  0  0  0  0  0
  162.5870  212.1530  148.3020 C   0  0  0  0  0  3  0  0  0  0  0  0
  1 21  1  6  0  0  0
  1 20  1  0  0  0  0
  1 19  1  0  0  0  0
  2  7  1  0  0  0  0
  4 12  1  0  0  0  0
  5 18  1  0  0  0  0
  6  9  2  0  0  0  0
  7  4  2  0  0  0  0
  7  5  1  0  0  0  0
  9  4  1  0  0  0  0
 10 14  1  0  0  0  0
 10 15  1  0  0  0  0
 11  5  2  0  0  0  0
 11 20  1  0  0  0  0
 12  8  1  0  0  0  0
 13 15  2  0  0  0  0
 14  3  1  0  0  0  0
 16  6  1  0  0  0  0
 17  6  1  0  0  0  0
 17  2  2  0  0  0  0
 18  8  2  0  0  0  0
 18 14  1  0  0  0  0
 19 13  1  0  0  0  0
 20 10  2  0  0  0  0
 22 21  1  0  0  0  0
 23 28  2  0  0  0  0
 23 26  1  0  0  0  0
 24 22  2  0  0  0  0
 25 22  1  0  0  0  0
 26 25  2  0  0  0  0
 27 23  1  0  0  0  0
 28 24  1  0  0  0  0
M  END
>  <MODEL>
2

>  <REMARK>
 VINA RESULT:      -8.9      1.697      2.490
  Name = 
  2 active torsions:
  status: ('A' for Active; 'I' for Inactive)
    1  A    between atoms: C_1  and  O_2
    2  A    between atoms: O_2  and  C_3
                            x       y       z     vdW  Elec       q    Type
                         _______ _______ _______ _____ _____    ______ ____

>  <TORSDO>
F 2

$$$$
=
 OpenBabel11052422573D

 28 32  0  0  1  0  0  0  0  0999 V2000
  161.0360  204.1880  150.1780 C   0  0  1  0  0  3  0  0  0  0  0  0
  161.8730  209.1210  148.7170 C   0  0  0  0  0  3  0  0  0  0  0  0
  160.9470  206.6810  154.4860 C   0  0  0  0  0  1  0  0  0  0  0  0
  161.8040  210.3050  150.8380 C   0  0  0  0  0  0  0  0  0  0  0  0
  161.4900  207.8590  150.8570 C   0  0  0  0  0  0  0  0  0  0  0  0
  162.1740  211.5240  148.7790 C   0  0  0  0  0  0  0  0  0  0  0  0
  161.7250  209.1050  150.1100 C   0  0  0  0  0  0  0  0  0  0  0  0
  161.4310  209.1030  152.9480 C   0  0  0  0  0  3  0  0  0  0  0  0
  162.0270  211.5110  150.1700 C   0  0  0  0  0  3  0  0  0  0  0  0
  161.0440  205.4600  152.2960 C   0  0  0  0  0  0  0  0  0  0  0  0
  161.4080  206.7110  150.2500 N   0  0  0  0  0  0  0  0  0  0  0  0
  161.6570  210.2900  152.2330 O   0  0  0  0  0  0  0  0  0  0  0  0
  160.9290  203.0630  152.4010 C   0  0  0  0  0  3  0  0  0  0  0  0
  161.1120  206.6940  153.0380 N   0  0  0  0  0  0  0  0  0  0  0  0
  160.7910  204.2200  152.9790 N   0  0  0  0  0  0  0  0  0  0  0  0
  162.4120  212.8090  148.0700 C   0  0  0  0  0  1  0  0  0  0  0  0
  162.0970  210.3310  148.0540 C   0  0  0  0  0  3  0  0  0  0  0  0
  161.3460  207.9200  152.3240 C   0  0  0  0  0  0  0  0  0  0  0  0
  161.4500  202.9620  150.9970 C   0  0  0  0  0  2  0  0  0  0  0  0
  161.1970  205.4730  150.9540 C   0  0  0  0  0  0  0  0  0  0  0  0
  161.7210  204.2270  148.9210 O   0  0  0  0  0  0  0  0  0  0  0  0
  161.3780  203.4690  147.7910 C   0  0  0  0  0  0  0  0  0  0  0  0
  160.6640  201.8960  145.5800 C   0  0  0  0  0  0  0  0  0  0  0  0
  161.4500  203.9960  146.4900 C   0  0  0  0  0  3  0  0  0  0  0  0
  160.9480  202.1500  147.9720 C   0  0  0  0  0  3  0  0  0  0  0  0
  160.5920  201.3650  146.8710 C   0  0  0  0  0  3  0  0  0  0  0  0
  160.3180  201.1360  144.5150 F   0  0  0  0  0  0  0  0  0  0  0  0
  161.0930  203.2120  145.3900 C   0  0  0  0  0  3  0  0  0  0  0  0
  1 21  1  6  0  0  0
  1 20  1  0  0  0  0
  1 19  1  0  0  0  0
  2  7  1  0  0  0  0
  4 12  1  0  0  0  0
  5 18  1  0  0  0  0
  6  9  2  0  0  0  0
  7  4  2  0  0  0  0
  7  5  1  0  0  0  0
  9  4  1  0  0  0  0
 10 15  1  0  0  0  0
 10 14  1  0  0  0  0
 11  5  2  0  0  0  0
 11 20  1  0  0  0  0
 12  8  1  0  0  0  0
 13 15  2  0  0  0  0
 14  3  1  0  0  0  0
 16  6  1  0  0  0  0
 17  2  2  0  0  0  0
 17  6  1  0  0  0  0
 18  8  2  0  0  0  0
 18 14  1  0  0  0  0
 19 13  1  0  0  0  0
 20 10  2  0  0  0  0
 22 25  1  0  0  0  0
 22 21  1  0  0  0  0
 23 26  1  0  0  0  0
 24 22  2  0  0  0  0
 26 25  2  0  0  0  0
 27 23  1  0  0  0  0
 28 23  2  0  0  0  0
 28 24  1  0  0  0  0
M  END
>  <MODEL>
3

>  <REMARK>
 VINA RESULT:      -8.5      2.883      7.282
  Name = 
  2 active torsions:
  status: ('A' for Active; 'I' for Inactive)
    1  A    between atoms: C_1  and  O_2
    2  A    between atoms: O_2  and  C_3
                            x       y       z     vdW  Elec       q    Type
                         _______ _______ _______ _____ _____    ______ ____

>  <TORSDO>
F 2

$$$$
=
 OpenBabel11052422573D

 28 32  0  0  1  0  0  0  0  0999 V2000
  161.6500  205.6880  148.6070 C   0  0  1  0  0  3  0  0  0  0  0  0
  160.8260  206.6240  153.6670 C   0  0  0  0  0  3  0  0  0  0  0  0
  162.2640  210.6160  148.9680 C   0  0  0  0  0  1  0  0  0  0  0  0
  161.1520  209.0270  153.8070 C   0  0  0  0  0  0  0  0  0  0  0  0
  161.3870  207.9440  151.6030 C   0  0  0  0  0  0  0  0  0  0  0  0
  160.6100  207.7590  155.7970 C   0  0  0  0  0  0  0  0  0  0  0  0
  161.1170  207.8460  153.0470 C   0  0  0  0  0  0  0  0  0  0  0  0
  161.7010  210.3490  151.8100 C   0  0  0  0  0  3  0  0  0  0  0  0
  160.8990  208.9800  155.1800 C   0  0  0  0  0  3  0  0  0  0  0  0
  161.9020  208.1360  148.8250 C   0  0  0  0  0  0  0  0  0  0  0  0
  161.3690  206.8930  150.8380 N   0  0  0  0  0  0  0  0  0  0  0  0
  161.4410  210.2520  153.1860 O   0  0  0  0  0  0  0  0  0  0  0  0
  161.9500  207.1730  146.6250 C   0  0  0  0  0  3  0  0  0  0  0  0
  161.9510  209.3440  149.6090 N   0  0  0  0  0  0  0  0  0  0  0  0
  162.1850  208.1790  147.4150 N   0  0  0  0  0  0  0  0  0  0  0  0
  160.3420  207.7110  157.2580 C   0  0  0  0  0  1  0  0  0  0  0  0
  160.5740  206.5830  155.0410 C   0  0  0  0  0  3  0  0  0  0  0  0
  161.6840  209.2670  151.0190 C   0  0  0  0  0  0  0  0  0  0  0  0
  161.2840  205.9300  147.1390 C   0  0  0  0  0  2  0  0  0  0  0  0
  161.6120  206.9590  149.4200 C   0  0  0  0  0  0  0  0  0  0  0  0
  160.8410  204.6550  149.1790 O   0  0  0  0  0  0  0  0  0  0  0  0
  160.9530  203.2870  148.8890 C   0  0  0  0  0  0  0  0  0  0  0  0
  161.2020  200.5700  148.2330 C   0  0  0  0  0  0  0  0  0  0  0  0
  160.8210  202.3010  149.8810 C   0  0  0  0  0  3  0  0  0  0  0  0
  161.2080  202.9000  147.5690 C   0  0  0  0  0  3  0  0  0  0  0  0
  161.3330  201.5460  147.2400 C   0  0  0  0  0  3  0  0  0  0  0  0
  161.3230  199.2600  147.9140 F   0  0  0  0  0  0  0  0  0  0  0  0
  160.9460  200.9480  149.5530 C   0  0  0  0  0  3  0  0  0  0  0  0
  1 21  1  1  0  0  0
  1 20  1  0  0  0  0
  2 17  1  0  0  0  0
  3 14  1  0  0  0  0
  4  9  2  0  0  0  0
  5  7  1  0  0  0  0
  6 16  1  0  0  0  0
  7  2  2  0  0  0  0
  7  4  1  0  0  0  0
  8 12  1  0  0  0  0
  9  6  1  0  0  0  0
 10 20  2  0  0  0  0
 10 14  1  0  0  0  0
 11  5  2  0  0  0  0
 12  4  1  0  0  0  0
 13 19  1  0  0  0  0
 13 15  2  0  0  0  0
 14 18  1  0  0  0  0
 15 10  1  0  0  0  0
 17  6  2  0  0  0  0
 18  5  1  0  0  0  0
 18  8  2  0  0  0  0
 19  1  1  0  0  0  0
 20 11  1  0  0  0  0
 22 21  1  0  0  0  0
 22 24  1  0  0  0  0
 23 28  1  0  0  0  0
 25 22  2  0  0  0  0
 26 25  1  0  0  0  0
 26 23  2  0  0  0  0
 27 23  1  0  0  0  0
 28 24  2  0  0  0  0
M  END
>  <MODEL>
4

>  <REMARK>
 VINA RESULT:      -7.7      3.465      7.971
  Name = 
  2 active torsions:
  status: ('A' for Active; 'I' for Inactive)
    1  A    between atoms: C_1  and  O_2
    2  A    between atoms: O_2  and  C_3
                            x       y       z     vdW  Elec       q    Type
                         _______ _______ _______ _____ _____    ______ ____

>  <TORSDO>
F 2

$$$$
=
 OpenBabel11052422573D

 28 32  0  0  1  0  0  0  0  0999 V2000
  161.2960  204.2380  149.9690 C   0  0  1  0  0  3  0  0  0  0  0  0
  161.9950  209.2570  148.7530 C   0  0  0  0  0  3  0  0  0  0  0  0
  160.6310  206.5670  154.3190 C   0  0  0  0  0  1  0  0  0  0  0  0
  161.6450  210.3590  150.8890 C   0  0  0  0  0  0  0  0  0  0  0  0
  161.4700  207.9010  150.8030 C   0  0  0  0  0  0  0  0  0  0  0  0
  162.1520  211.6700  148.9170 C   0  0  0  0  0  0  0  0  0  0  0  0
  161.7080  209.1840  150.1220 C   0  0  0  0  0  0  0  0  0  0  0  0
  161.1300  209.0650  152.9130 C   0  0  0  0  0  3  0  0  0  0  0  0
  161.8660  211.5990  150.2850 C   0  0  0  0  0  3  0  0  0  0  0  0
  161.0170  205.4320  152.1140 C   0  0  0  0  0  0  0  0  0  0  0  0
  161.5150  206.7730  150.1560 N   0  0  0  0  0  0  0  0  0  0  0  0
  161.3590  210.2870  152.2610 O   0  0  0  0  0  0  0  0  0  0  0  0
  161.0290  203.0300  152.1350 C   0  0  0  0  0  3  0  0  0  0  0  0
  160.9400  206.6400  152.8970 N   0  0  0  0  0  0  0  0  0  0  0  0
  160.7670  204.1560  152.7310 N   0  0  0  0  0  0  0  0  0  0  0  0
  162.3870  212.9900  148.2760 C   0  0  0  0  0  1  0  0  0  0  0  0
  162.2160  210.5010  148.1530 C   0  0  0  0  0  3  0  0  0  0  0  0
  161.1750  207.9020  152.2480 C   0  0  0  0  0  0  0  0  0  0  0  0
  161.6930  203.0070  150.7890 C   0  0  0  0  0  2  0  0  0  0  0  0
  161.3040  205.5010  150.7960 C   0  0  0  0  0  0  0  0  0  0  0  0
  162.1010  204.3580  148.7920 O   0  0  0  0  0  0  0  0  0  0  0  0
  161.6140  204.3500  147.4760 C   0  0  0  0  0  0  0  0  0  0  0  0
  160.6470  204.4170  144.8430 C   0  0  0  0  0  0  0  0  0  0  0  0
  161.4270  203.1580  146.7570 C   0  0  0  0  0  3  0  0  0  0  0  0
  161.3120  205.5720  146.8650 C   0  0  0  0  0  3  0  0  0  0  0  0
  160.8300  205.6070  145.5530 C   0  0  0  0  0  3  0  0  0  0  0  0
  160.1810  204.4510  143.5720 F   0  0  0  0  0  0  0  0  0  0  0  0
  160.9450  203.1920  145.4450 C   0  0  0  0  0  3  0  0  0  0  0  0
  1 21  1  6  0  0  0
  1 19  1  0  0  0  0
  1 20  1  0  0  0  0
  2  7  1  0  0  0  0
  4 12  1  0  0  0  0
  5 18  1  0  0  0  0
  6  9  2  0  0  0  0
  7  5  1  0  0  0  0
  7  4  2  0  0  0  0
  9  4  1  0  0  0  0
 10 15  1  0  0  0  0
 10 14  1  0  0  0  0
 11 20  1  0  0  0  0
 11  5  2  0  0  0  0
 12  8  1  0  0  0  0
 13 15  2  0  0  0  0
 14  3  1  0  0  0  0
 16  6  1  0  0  0  0
 17  2  2  0  0  0  0
 17  6  1  0  0  0  0
 18 14  1  0  0  0  0
 18  8  2  0  0  0  0
 19 13  1  0  0  0  0
 20 10  2  0  0  0  0
 22 21  1  0  0  0  0
 23 28  2  0  0  0  0
 23 26  1  0  0  0  0
 24 22  2  0  0  0  0
 25 22  1  0  0  0  0
 26 25  2  0  0  0  0
 27 23  1  0  0  0  0
 28 24  1  0  0  0  0
M  END
>  <MODEL>
5

>  <REMARK>
 VINA RESULT:      -7.7      2.468      6.677
  Name = 
  2 active torsions:
  status: ('A' for Active; 'I' for Inactive)
    1  A    between atoms: C_1  and  O_2
    2  A    between atoms: O_2  and  C_3
                            x       y       z     vdW  Elec       q    Type
                         _______ _______ _______ _____ _____    ______ ____

>  <TORSDO>
F 2

$$$$
=
 OpenBabel11052422573D

 28 32  0  0  1  0  0  0  0  0999 V2000
  159.7670  213.0180  152.4890 C   0  0  1  0  0  3  0  0  0  0  0  0
  161.0230  208.0150  151.7460 C   0  0  0  0  0  3  0  0  0  0  0  0
  159.3750  211.0580  157.0480 C   0  0  0  0  0  1  0  0  0  0  0  0
  160.8390  207.0990  153.9890 C   0  0  0  0  0  0  0  0  0  0  0  0
  160.3330  209.4910  153.6600 C   0  0  0  0  0  0  0  0  0  0  0  0
  161.5030  205.6740  152.1470 C   0  0  0  0  0  0  0  0  0  0  0  0
  160.7400  208.1890  153.1070 C   0  0  0  0  0  0  0  0  0  0  0  0
  160.1670  208.5120  155.8830 C   0  0  0  0  0  3  0  0  0  0  0  0
  161.2210  205.8450  153.5070 C   0  0  0  0  0  3  0  0  0  0  0  0
  159.5430  211.9930  154.7250 C   0  0  0  0  0  0  0  0  0  0  0  0
  160.2180  210.5420  152.9030 N   0  0  0  0  0  0  0  0  0  0  0  0
  160.5550  207.2720  155.3520 O   0  0  0  0  0  0  0  0  0  0  0  0
  158.8470  214.2740  154.4370 C   0  0  0  0  0  3  0  0  0  0  0  0
  159.6580  210.8770  155.6300 N   0  0  0  0  0  0  0  0  0  0  0  0
  159.1720  213.2910  155.2240 N   0  0  0  0  0  0  0  0  0  0  0  0
  161.9090  204.3390  151.6360 C   0  0  0  0  0  1  0  0  0  0  0  0
  161.4040  206.7580  151.2690 C   0  0  0  0  0  3  0  0  0  0  0  0
  160.0490  209.5970  155.1050 C   0  0  0  0  0  0  0  0  0  0  0  0
  158.7600  214.0760  152.9520 C   0  0  0  0  0  2  0  0  0  0  0  0
  159.8050  211.8240  153.4110 C   0  0  0  0  0  0  0  0  0  0  0  0
  159.5330  212.6420  151.1270 O   0  0  0  0  0  0  0  0  0  0  0  0
  160.4210  212.8650  150.0630 C   0  0  0  0  0  0  0  0  0  0  0  0
  162.2150  213.2310  147.9380 C   0  0  0  0  0  0  0  0  0  0  0  0
  160.4690  214.0900  149.3760 C   0  0  0  0  0  3  0  0  0  0  0  0
  161.2790  211.8300  149.6770 C   0  0  0  0  0  3  0  0  0  0  0  0
  162.1740  212.0110  148.6180 C   0  0  0  0  0  3  0  0  0  0  0  0
  163.0810  213.4060  146.9120 F   0  0  0  0  0  0  0  0  0  0  0  0
  161.3620  214.2710  148.3170 C   0  0  0  0  0  3  0  0  0  0  0  0
  1 21  1  6  0  0  0
  1 19  1  0  0  0  0
  1 20  1  0  0  0  0
  2  7  1  0  0  0  0
  4 12  1  0  0  0  0
  5 18  1  0  0  0  0
  6  9  2  0  0  0  0
  7  5  1  0  0  0  0
  7  4  2  0  0  0  0
  9  4  1  0  0  0  0
 10 15  1  0  0  0  0
 10 14  1  0  0  0  0
 11 20  1  0  0  0  0
 11  5  2  0  0  0  0
 12  8  1  0  0  0  0
 13 15  2  0  0  0  0
 14  3  1  0  0  0  0
 16  6  1  0  0  0  0
 17  2  2  0  0  0  0
 17  6  1  0  0  0  0
 18 14  1  0  0  0  0
 18  8  2  0  0  0  0
 19 13  1  0  0  0  0
 20 10  2  0  0  0  0
 22 21  1  0  0  0  0
 23 28  2  0  0  0  0
 23 26  1  0  0  0  0
 24 22  2  0  0  0  0
 25 22  1  0  0  0  0
 26 25  2  0  0  0  0
 27 23  1  0  0  0  0
 28 24  1  0  0  0  0
M  END
>  <MODEL>
6

>  <REMARK>
 VINA RESULT:      -7.3      2.973      4.667
  Name = 
  2 active torsions:
  status: ('A' for Active; 'I' for Inactive)
    1  A    between atoms: C_1  and  O_2
    2  A    between atoms: O_2  and  C_3
                            x       y       z     vdW  Elec       q    Type
                         _______ _______ _______ _____ _____    ______ ____

>  <TORSDO>
F 2

$$$$
=
 OpenBabel11052422573D

 28 32  0  0  1  0  0  0  0  0999 V2000
  160.7080  207.7300  153.6960 C   0  0  1  0  0  3  0  0  0  0  0  0
  161.6250  210.7040  149.5150 C   0  0  0  0  0  3  0  0  0  0  0  0
  159.0790  212.2170  155.1110 C   0  0  0  0  0  1  0  0  0  0  0  0
  160.8020  212.8730  150.2350 C   0  0  0  0  0  0  0  0  0  0  0  0
  160.6680  210.9900  151.8220 C   0  0  0  0  0  0  0  0  0  0  0  0
  161.7240  212.6030  148.0130 C   0  0  0  0  0  0  0  0  0  0  0  0
  161.0420  211.5140  150.4980 C   0  0  0  0  0  0  0  0  0  0  0  0
  159.8600  213.1890  152.4830 C   0  0  0  0  0  3  0  0  0  0  0  0
  161.1430  213.4140  148.9930 C   0  0  0  0  0  3  0  0  0  0  0  0
  159.9530  209.9840  154.3710 C   0  0  0  0  0  0  0  0  0  0  0  0
  160.8620  209.7420  152.1360 N   0  0  0  0  0  0  0  0  0  0  0  0
  160.2200  213.6860  151.2200 O   0  0  0  0  0  0  0  0  0  0  0  0
  159.9760  208.2420  156.0250 C   0  0  0  0  0  3  0  0  0  0  0  0
  159.6950  211.3750  154.0940 N   0  0  0  0  0  0  0  0  0  0  0  0
  159.5810  209.4200  155.6410 N   0  0  0  0  0  0  0  0  0  0  0  0
  162.0860  213.1790  146.6920 C   0  0  0  0  0  1  0  0  0  0  0  0
  161.9640  211.2500  148.2740 C   0  0  0  0  0  3  0  0  0  0  0  0
  160.0600  211.9040  152.8080 C   0  0  0  0  0  0  0  0  0  0  0  0
  160.9220  207.4360  155.1840 C   0  0  0  0  0  2  0  0  0  0  0  0
  160.5240  209.2040  153.4270 C   0  0  0  0  0  0  0  0  0  0  0  0
  161.7530  207.1620  152.8990 O   0  0  0  0  0  0  0  0  0  0  0  0
  161.5660  206.2300  151.8670 C   0  0  0  0  0  0  0  0  0  0  0  0
  161.1840  204.3080  149.8590 C   0  0  0  0  0  0  0  0  0  0  0  0
  161.4240  206.6220  150.5250 C   0  0  0  0  0  3  0  0  0  0  0  0
  161.5160  204.8700  152.1920 C   0  0  0  0  0  3  0  0  0  0  0  0
  161.3250  203.9110  151.1920 C   0  0  0  0  0  3  0  0  0  0  0  0
  160.9980  203.3790  148.8920 F   0  0  0  0  0  0  0  0  0  0  0  0
  161.2330  205.6640  149.5260 C   0  0  0  0  0  3  0  0  0  0  0  0
  1 21  1  6  0  0  0
  1 19  1  0  0  0  0
  2  7  1  0  0  0  0
  4  7  2  0  0  0  0
  4 12  1  0  0  0  0
  5 11  2  0  0  0  0
  5 18  1  0  0  0  0
  6 17  1  0  0  0  0
  6  9  2  0  0  0  0
  7  5  1  0  0  0  0
  8 18  2  0  0  0  0
  9  4  1  0  0  0  0
 10 15  1  0  0  0  0
 11 20  1  0  0  0  0
 12  8  1  0  0  0  0
 14 10  1  0  0  0  0
 14  3  1  0  0  0  0
 15 13  2  0  0  0  0
 16  6  1  0  0  0  0
 17  2  2  0  0  0  0
 18 14  1  0  0  0  0
 19 13  1  0  0  0  0
 20  1  1  0  0  0  0
 20 10  2  0  0  0  0
 22 25  1  0  0  0  0
 22 21  1  0  0  0  0
 23 26  1  0  0  0  0
 24 22  2  0  0  0  0
 26 25  2  0  0  0  0
 27 23  1  0  0  0  0
 28 23  2  0  0  0  0
 28 24  1  0  0  0  0
M  END
>  <MODEL>
7

>  <REMARK>
 VINA RESULT:      -7.2      3.102      7.412
  Name = 
  2 active torsions:
  status: ('A' for Active; 'I' for Inactive)
    1  A    between atoms: C_1  and  O_2
    2  A    between atoms: O_2  and  C_3
                            x       y       z     vdW  Elec       q    Type
                         _______ _______ _______ _____ _____    ______ ____

>  <TORSDO>
F 2

$$$$
=
 OpenBabel11052422573D

 28 32  0  0  1  0  0  0  0  0999 V2000
  162.0200  208.9440  148.5710 C   0  0  1  0  0  3  0  0  0  0  0  0
  161.0340  203.8810  149.3220 C   0  0  0  0  0  3  0  0  0  0  0  0
  161.8160  208.5480  153.5290 C   0  0  0  0  0  1  0  0  0  0  0  0
  160.9610  203.7250  151.7450 C   0  0  0  0  0  0  0  0  0  0  0  0
  161.3790  205.9340  150.7310 C   0  0  0  0  0  0  0  0  0  0  0  0
  160.6270  201.7450  150.3910 C   0  0  0  0  0  0  0  0  0  0  0  0
  161.1230  204.4930  150.5790 C   0  0  0  0  0  0  0  0  0  0  0  0
  161.2940  205.7100  153.1540 C   0  0  0  0  0  3  0  0  0  0  0  0
  160.7140  202.3530  151.6480 C   0  0  0  0  0  3  0  0  0  0  0  0
  161.8660  208.7080  151.0250 C   0  0  0  0  0  0  0  0  0  0  0  0
  161.5370  206.7070  149.6970 N   0  0  0  0  0  0  0  0  0  0  0  0
  161.0480  204.3360  153.0050 O   0  0  0  0  0  0  0  0  0  0  0  0
  162.0800  210.9140  150.0980 C   0  0  0  0  0  3  0  0  0  0  0  0
  161.7130  207.9160  152.2190 N   0  0  0  0  0  0  0  0  0  0  0  0
  162.1430  210.1170  151.1240 N   0  0  0  0  0  0  0  0  0  0  0  0
  160.3650  200.2860  150.2890 C   0  0  0  0  0  1  0  0  0  0  0  0
  160.7870  202.5090  149.2300 C   0  0  0  0  0  3  0  0  0  0  0  0
  161.4570  206.5080  152.0890 C   0  0  0  0  0  0  0  0  0  0  0  0
  161.6250  210.4120  148.7590 C   0  0  0  0  0  2  0  0  0  0  0  0
  161.7710  208.1220  149.8120 C   0  0  0  0  0  0  0  0  0  0  0  0
  161.3890  208.3820  147.4150 O   0  0  0  0  0  0  0  0  0  0  0  0
  161.5900  207.0780  146.9370 C   0  0  0  0  0  0  0  0  0  0  0  0
  161.9220  204.4750  145.9430 C   0  0  0  0  0  0  0  0  0  0  0  0
  162.8100  206.4020  147.1080 C   0  0  0  0  0  3  0  0  0  0  0  0
  160.5420  206.4390  146.2670 C   0  0  0  0  0  3  0  0  0  0  0  0
  160.7060  205.1420  145.7710 C   0  0  0  0  0  3  0  0  0  0  0  0
  162.0810  203.2200  145.4620 F   0  0  0  0  0  0  0  0  0  0  0  0
  162.9750  205.1060  146.6120 C   0  0  0  0  0  3  0  0  0  0  0  0
  1 21  1  6  0  0  0
  1 19  1  0  0  0  0
  1 20  1  0  0  0  0
  2  7  1  0  0  0  0
  4 12  1  0  0  0  0
  5 18  1  0  0  0  0
  6  9  2  0  0  0  0
  7  5  1  0  0  0  0
  7  4  2  0  0  0  0
  9  4  1  0  0  0  0
 10 15  1  0  0  0  0
 10 14  1  0  0  0  0
 11 20  1  0  0  0  0
 11  5  2  0  0  0  0
 12  8  1  0  0  0  0
 13 15  2  0  0  0  0
 14  3  1  0  0  0  0
 16  6  1  0  0  0  0
 17  2  2  0  0  0  0
 17  6  1  0  0  0  0
 18 14  1  0  0  0  0
 18  8  2  0  0  0  0
 19 13  1  0  0  0  0
 20 10  2  0  0  0  0
 22 24  1  0  0  0  0
 22 21  1  0  0  0  0
 23 28  1  0  0  0  0
 25 22  2  0  0  0  0
 26 23  2  0  0  0  0
 26 25  1  0  0  0  0
 27 23  1  0  0  0  0
 28 24  2  0  0  0  0
M  END
>  <MODEL>
8

>  <REMARK>
 VINA RESULT:      -7.0      2.757      4.319
  Name = 
  2 active torsions:
  status: ('A' for Active; 'I' for Inactive)
    1  A    between atoms: C_1  and  O_2
    2  A    between atoms: O_2  and  C_3
                            x       y       z     vdW  Elec       q    Type
                         _______ _______ _______ _____ _____    ______ ____

>  <TORSDO>
F 2

$$$$
=
 OpenBabel11052422573D

 28 32  0  0  1  0  0  0  0  0999 V2000
  161.2430  202.3690  148.1770 C   0  0  1  0  0  3  0  0  0  0  0  0
  162.0460  207.5130  148.4220 C   0  0  0  0  0  3  0  0  0  0  0  0
  160.3070  203.4420  152.9480 C   0  0  0  0  0  1  0  0  0  0  0  0
  161.5620  208.0000  150.7520 C   0  0  0  0  0  0  0  0  0  0  0  0
  161.3810  205.6620  149.9870 C   0  0  0  0  0  0  0  0  0  0  0  0
  162.2030  209.7860  149.2480 C   0  0  0  0  0  0  0  0  0  0  0  0
  161.6690  207.0770  149.6990 C   0  0  0  0  0  0  0  0  0  0  0  0
  160.9090  206.2160  152.3100 C   0  0  0  0  0  3  0  0  0  0  0  0
  161.8280  209.3520  150.5240 C   0  0  0  0  0  3  0  0  0  0  0  0
  160.8310  202.9410  150.5450 C   0  0  0  0  0  0  0  0  0  0  0  0
  161.4620  204.7520  149.0610 N   0  0  0  0  0  0  0  0  0  0  0  0
  161.1860  207.5640  152.0320 O   0  0  0  0  0  0  0  0  0  0  0  0
  160.8290  200.6240  149.9100 C   0  0  0  0  0  3  0  0  0  0  0  0
  160.7080  203.8920  151.6210 N   0  0  0  0  0  0  0  0  0  0  0  0
  160.5340  201.5510  150.7730 N   0  0  0  0  0  0  0  0  0  0  0  0
  162.4860  211.2250  149.0060 C   0  0  0  0  0  1  0  0  0  0  0  0
  162.3110  208.8670  148.1990 C   0  0  0  0  0  3  0  0  0  0  0  0
  160.9920  205.2770  151.3580 C   0  0  0  0  0  0  0  0  0  0  0  0
  161.5800  200.9530  148.6530 C   0  0  0  0  0  2  0  0  0  0  0  0
  161.2030  203.3590  149.3160 C   0  0  0  0  0  0  0  0  0  0  0  0
  162.1240  202.7870  147.1290 O   0  0  0  0  0  0  0  0  0  0  0  0
  161.8100  203.7270  146.1360 C   0  0  0  0  0  0  0  0  0  0  0  0
  161.2530  205.6470  144.1680 C   0  0  0  0  0  0  0  0  0  0  0  0
  160.7260  203.5530  145.2590 C   0  0  0  0  0  3  0  0  0  0  0  0
  162.6090  204.8700  146.0180 C   0  0  0  0  0  3  0  0  0  0  0  0
  162.3320  205.8280  145.0380 C   0  0  0  0  0  3  0  0  0  0  0  0
  160.9850  206.5740  143.2180 F   0  0  0  0  0  0  0  0  0  0  0  0
  160.4490  204.5090  144.2790 C   0  0  0  0  0  3  0  0  0  0  0  0
  1 21  1  6  0  0  0
  1 19  1  0  0  0  0
  1 20  1  0  0  0  0
  2  7  1  0  0  0  0
  4 12  1  0  0  0  0
  5 18  1  0  0  0  0
  6  9  2  0  0  0  0
  7  5  1  0  0  0  0
  7  4  2  0  0  0  0
  9  4  1  0  0  0  0
 10 15  1  0  0  0  0
 10 14  1  0  0  0  0
 11 20  1  0  0  0  0
 11  5  2  0  0  0  0
 12  8  1  0  0  0  0
 13 15  2  0  0  0  0
 14  3  1  0  0  0  0
 16  6  1  0  0  0  0
 17  2  2  0  0  0  0
 17  6  1  0  0  0  0
 18 14  1  0  0  0  0
 18  8  2  0  0  0  0
 19 13  1  0  0  0  0
 20 10  2  0  0  0  0
 22 21  1  0  0  0  0
 23 28  2  0  0  0  0
 23 26  1  0  0  0  0
 24 22  2  0  0  0  0
 25 22  1  0  0  0  0
 26 25  2  0  0  0  0
 27 23  1  0  0  0  0
 28 24  1  0  0  0  0
M  END
>  <MODEL>
9

>  <REMARK>
 VINA RESULT:      -7.0      2.764      6.545
  Name = 
  2 active torsions:
  status: ('A' for Active; 'I' for Inactive)
    1  A    between atoms: C_1  and  O_2
    2  A    between atoms: O_2  and  C_3
                            x       y       z     vdW  Elec       q    Type
                         _______ _______ _______ _____ _____    ______ ____

>  <TORSDO>
F 2

$$$$
