=
 OpenBabel11062410163D

 43 48  0  0  1  0  0  0  0  0999 V2000
  161.7710  206.9320  151.2080 C   0  0  1  0  0  3  0  0  0  0  0  0
  160.5610  201.7830  147.4090 C   0  0  2  0  0  3  0  0  0  0  0  0
  161.6390  205.8680  150.1520 C   0  0  0  0  0  0  0  0  0  0  0  0
  161.3850  204.0360  148.0720 C   0  0  0  0  0  0  0  0  0  0  0  0
  161.1850  201.2880  148.6350 N   0  0  0  0  0  2  0  0  0  0  0  0
  160.6600  200.7290  146.3280 C   0  0  0  0  0  1  0  0  0  0  0  0
  161.2740  203.5940  149.3960 C   0  0  0  0  0  0  0  0  0  0  0  0
  161.2700  203.0560  146.9450 C   0  0  0  0  0  2  0  0  0  0  0  0
  161.0260  202.2370  149.6340 O   0  0  0  0  0  0  0  0  0  0  0  0
  161.2230  204.0290  151.8590 C   0  0  0  0  0  1  0  0  0  0  0  0
  161.3820  204.5090  150.4510 C   0  0  0  0  0  0  0  0  0  0  0  0
  161.7570  206.2560  148.8520 N   0  0  0  0  0  0  0  0  0  0  0  0
  161.6370  205.3800  147.8190 C   0  0  0  0  0  3  0  0  0  0  0  0
  162.7370  208.0320  150.7670 C   0  0  0  0  0  2  0  0  0  0  0  0
  161.5040  210.5790  148.1380 C   0  0  0  0  0  2  0  0  0  0  0  0
  161.4450  211.8060  149.0230 C   0  0  0  0  0  0  0  0  0  0  0  0
  162.3530  210.5260  150.9720 C   0  0  0  0  0  2  0  0  0  0  0  0
  162.3670  209.4590  148.7160 C   0  0  0  0  0  2  0  0  0  0  0  0
  162.0260  209.2560  150.1890 C   0  0  1  0  0  3  0  0  0  0  0  0
  161.7810  211.7520  150.3170 C   0  0  0  0  0  3  0  0  0  0  0  0
  160.9710  213.0200  148.5190 O   0  0  0  0  0  0  0  0  0  0  0  0
  159.8790  213.0950  147.6140 C   0  0  0  0  0  1  0  0  0  0  0  0
  160.4260  207.5110  151.6400 C   0  0  0  0  0  2  0  0  0  0  0  0
  159.6280  210.1150  152.5300 O   0  0  0  0  0  0  0  0  0  0  0  0
  160.1020  209.3240  153.3870 C   0  0  0  0  0  0  0  0  0  0  0  0
  160.4890  207.9960  153.0110 N   0  0  0  0  0  2  0  0  0  0  0  0
  160.6050  211.2610  154.8700 C   0  0  2  0  0  3  0  0  0  0  0  0
  161.6050  209.4220  155.3590 C   0  0  0  0  0  2  0  0  0  0  0  0
  160.2390  209.7850  154.8070 C   0  0  2  0  0  3  0  0  0  0  0  0
  161.9650  210.8930  155.4400 C   0  0  0  0  0  2  0  0  0  0  0  0
  159.7660  212.0150  155.9070 C   0  0  2  0  0  3  0  0  0  0  0  0
  156.8840  212.0230  155.1260 C   0  0  0  0  0  2  0  0  0  0  0  0
  157.8240  213.0220  154.6110 N   0  0  0  0  0  0  0  0  0  0  0  0
  158.7120  211.0930  156.5330 C   0  0  0  0  0  2  0  0  0  0  0  0
  159.1000  213.1890  155.2460 C   0  0  0  0  0  0  0  0  0  0  0  0
  159.7090  214.2890  155.1690 O   0  0  0  0  0  0  0  0  0  0  0  0
  157.6130  210.7490  155.5310 C   0  0  0  0  0  2  0  0  0  0  0  0
  157.5770  213.6800  153.3300 C   0  0  0  0  0  3  0  0  0  0  0  0
  155.6370  213.9340  151.6710 C   0  0  0  0  0  2  0  0  0  0  0  0
  158.0020  213.5720  150.8400 C   0  0  0  0  0  2  0  0  0  0  0  0
  156.7400  214.4420  150.7460 C   0  0  0  0  0  2  0  0  0  0  0  0
  158.1550  212.8500  152.1840 C   0  0  0  0  0  2  0  0  0  0  0  0
  156.0830  213.9890  153.1370 C   0  0  0  0  0  2  0  0  0  0  0  0
  1 14  1  6  0  0  0
  1 23  1  0  0  0  0
  2  6  1  6  0  0  0
  2  5  1  0  0  0  0
  3 11  1  0  0  0  0
  3  1  1  0  0  0  0
  4  7  1  0  0  0  0
  5  9  1  0  0  0  0
  7  9  1  0  0  0  0
  7 11  2  0  0  0  0
  8  2  1  0  0  0  0
  8  4  1  0  0  0  0
 11 10  1  0  0  0  0
 12  3  2  0  0  0  0
 13  4  2  0  0  0  0
 13 12  1  0  0  0  0
 15 18  1  0  0  0  0
 15 16  1  0  0  0  0
 16 20  2  0  0  0  0
 18 19  1  0  0  0  0
 19 14  1  1  0  0  0
 19 17  1  0  0  0  0
 20 17  1  0  0  0  0
 21 16  1  0  0  0  0
 22 21  1  0  0  0  0
 23 26  1  0  0  0  0
 24 25  2  0  0  0  0
 26 25  1  0  0  0  0
 27 30  1  1  0  0  0
 27 31  1  0  0  0  0
 28 30  1  0  0  0  0
 29 25  1  6  0  0  0
 29 27  1  0  0  0  0
 29 28  1  0  0  0  0
 31 34  1  6  0  0  0
 32 37  1  0  0  0  0
 33 32  1  0  0  0  0
 33 35  1  0  0  0  0
 35 31  1  0  0  0  0
 36 35  2  0  0  0  0
 37 34  1  0  0  0  0
 38 33  1  0  0  0  0
 39 43  1  0  0  0  0
 40 42  1  0  0  0  0
 41 40  1  0  0  0  0
 41 39  1  0  0  0  0
 42 38  1  0  0  0  0
 43 38  1  0  0  0  0
M  END
>  <MODEL>
1

>  <REMARK>
 VINA RESULT:      -6.3      0.000      0.000
  Name = 
  9 active torsions:
  status: ('A' for Active; 'I' for Inactive)
    1  A    between atoms: C_1  and  C_34
    2  A    between atoms: C_1  and  C_35
    3  A    between atoms: C_3  and  C_4
    4  A    between atoms: C_6  and  C_12
    5  A    between atoms: C_8  and  C_34
    6  A    between atoms: C_11  and  N_14
    7  A    between atoms: N_13  and  C_38
    8  A    between atoms: C_19  and  O_25
    9  A    between atoms: C_34  and  C_38
                            x       y       z     vdW  Elec       q    Type
                         _______ _______ _______ _____ _____    ______ ____

>  <TORSDO>
F 9

$$$$
=
 OpenBabel11062410163D

 43 48  0  0  1  0  0  0  0  0999 V2000
  161.0500  207.5230  151.5130 C   0  0  1  0  0  3  0  0  0  0  0  0
  160.7260  201.7310  148.5550 C   0  0  2  0  0  3  0  0  0  0  0  0
  161.0890  206.3080  150.6270 C   0  0  0  0  0  0  0  0  0  0  0  0
  161.1190  204.1720  148.8430 C   0  0  0  0  0  0  0  0  0  0  0  0
  161.4800  201.5500  149.7950 N   0  0  0  0  0  2  0  0  0  0  0  0
  160.9880  200.5650  147.6270 C   0  0  0  0  0  1  0  0  0  0  0  0
  161.1470  203.9190  150.2190 C   0  0  0  0  0  0  0  0  0  0  0  0
  161.1560  203.0310  147.8730 C   0  0  0  0  0  2  0  0  0  0  0  0
  161.1760  202.5900  150.6600 O   0  0  0  0  0  0  0  0  0  0  0  0
  161.1040  204.6990  152.5960 C   0  0  0  0  0  1  0  0  0  0  0  0
  161.1130  204.9850  151.1280 C   0  0  0  0  0  0  0  0  0  0  0  0
  161.0800  206.5130  149.2810 N   0  0  0  0  0  0  0  0  0  0  0  0
  161.0950  205.4870  148.3900 C   0  0  0  0  0  3  0  0  0  0  0  0
  160.4720  207.1870  152.8880 C   0  0  0  0  0  2  0  0  0  0  0  0
  161.4380  208.5660  156.3630 C   0  0  0  0  0  2  0  0  0  0  0  0
  160.8360  209.9500  156.2330 C   0  0  0  0  0  0  0  0  0  0  0  0
  159.9200  209.4090  153.9680 C   0  0  0  0  0  2  0  0  0  0  0  0
  160.8820  207.5680  155.3500 C   0  0  0  0  0  2  0  0  0  0  0  0
  160.8570  208.2030  153.9640 C   0  0  1  0  0  3  0  0  0  0  0  0
  160.1990  210.3330  155.1200 C   0  0  0  0  0  3  0  0  0  0  0  0
  160.9900  210.8880  157.2560 O   0  0  0  0  0  0  0  0  0  0  0  0
  160.9050  212.2870  157.0270 C   0  0  0  0  0  1  0  0  0  0  0  0
  162.4060  208.2150  151.6330 C   0  0  0  0  0  2  0  0  0  0  0  0
  161.4910  210.9270  151.7740 O   0  0  0  0  0  0  0  0  0  0  0  0
  162.0570  210.5550  150.7120 C   0  0  0  0  0  0  0  0  0  0  0  0
  162.5660  209.2210  150.5920 N   0  0  0  0  0  2  0  0  0  0  0  0
  160.8500  212.0560  149.1320 C   0  0  2  0  0  3  0  0  0  0  0  0
  162.3680  210.8060  148.2630 C   0  0  0  0  0  2  0  0  0  0  0  0
  162.2060  211.5330  149.5850 C   0  0  2  0  0  3  0  0  0  0  0  0
  161.0250  211.3420  147.8020 C   0  0  0  0  0  2  0  0  0  0  0  0
  160.8590  213.5760  148.9390 C   0  0  2  0  0  3  0  0  0  0  0  0
  159.0460  214.3660  146.7020 C   0  0  0  0  0  2  0  0  0  0  0  0
  160.4310  213.9530  146.4620 N   0  0  0  0  0  0  0  0  0  0  0  0
  159.4570  214.1620  149.1470 C   0  0  0  0  0  2  0  0  0  0  0  0
  161.3560  213.8980  147.5580 C   0  0  0  0  0  0  0  0  0  0  0  0
  162.5920  214.0210  147.3530 O   0  0  0  0  0  0  0  0  0  0  0  0
  158.5220  213.7760  148.0040 C   0  0  0  0  0  2  0  0  0  0  0  0
  160.8190  213.3760  145.1770 C   0  0  0  0  0  3  0  0  0  0  0  0
  161.0580  214.1540  142.7440 C   0  0  0  0  0  2  0  0  0  0  0  0
  160.0760  211.8810  143.2780 C   0  0  0  0  0  2  0  0  0  0  0  0
  161.1250  212.6540  142.4660 C   0  0  0  0  0  2  0  0  0  0  0  0
  159.6580  212.5840  144.5750 C   0  0  0  0  0  2  0  0  0  0  0  0
  161.3550  214.4530  144.2170 C   0  0  0  0  0  2  0  0  0  0  0  0
  1 23  1  1  0  0  0
  1 14  1  0  0  0  0
  2  6  1  6  0  0  0
  2  5  1  0  0  0  0
  3 11  1  0  0  0  0
  3  1  1  0  0  0  0
  4  7  1  0  0  0  0
  5  9  1  0  0  0  0
  7  9  1  0  0  0  0
  7 11  2  0  0  0  0
  8  2  1  0  0  0  0
  8  4  1  0  0  0  0
 11 10  1  0  0  0  0
 12  3  2  0  0  0  0
 13  4  2  0  0  0  0
 13 12  1  0  0  0  0
 16 15  1  0  0  0  0
 16 21  1  0  0  0  0
 17 20  1  0  0  0  0
 18 15  1  0  0  0  0
 19 14  1  6  0  0  0
 19 17  1  0  0  0  0
 19 18  1  0  0  0  0
 20 16  2  0  0  0  0
 22 21  1  0  0  0  0
 25 24  2  0  0  0  0
 26 25  1  0  0  0  0
 26 23  1  0  0  0  0
 27 30  1  6  0  0  0
 27 29  1  0  0  0  0
 28 29  1  0  0  0  0
 29 25  1  1  0  0  0
 30 28  1  0  0  0  0
 31 27  1  0  0  0  0
 31 34  1  6  0  0  0
 32 37  1  0  0  0  0
 33 32  1  0  0  0  0
 33 35  1  0  0  0  0
 35 31  1  0  0  0  0
 36 35  2  0  0  0  0
 37 34  1  0  0  0  0
 38 33  1  0  0  0  0
 39 43  1  0  0  0  0
 40 42  1  0  0  0  0
 41 39  1  0  0  0  0
 41 40  1  0  0  0  0
 42 38  1  0  0  0  0
 43 38  1  0  0  0  0
M  END
>  <MODEL>
2

>  <REMARK>
 VINA RESULT:      -6.2      2.450      6.153
  Name = 
  9 active torsions:
  status: ('A' for Active; 'I' for Inactive)
    1  A    between atoms: C_1  and  C_34
    2  A    between atoms: C_1  and  C_35
    3  A    between atoms: C_3  and  C_4
    4  A    between atoms: C_6  and  C_12
    5  A    between atoms: C_8  and  C_34
    6  A    between atoms: C_11  and  N_14
    7  A    between atoms: N_13  and  C_38
    8  A    between atoms: C_19  and  O_25
    9  A    between atoms: C_34  and  C_38
                            x       y       z     vdW  Elec       q    Type
                         _______ _______ _______ _____ _____    ______ ____

>  <TORSDO>
F 9

$$$$
=
 OpenBabel11062410163D

 43 48  0  0  1  0  0  0  0  0999 V2000
  159.0820  213.2060  152.0820 C   0  0  1  0  0  3  0  0  0  0  0  0
  158.6090  213.5050  145.5940 C   0  0  2  0  0  3  0  0  0  0  0  0
  158.7350  213.3790  150.6280 C   0  0  0  0  0  0  0  0  0  0  0  0
  157.9190  213.6490  147.9810 C   0  0  0  0  0  0  0  0  0  0  0  0
  159.8030  214.2530  145.9830 N   0  0  0  0  0  2  0  0  0  0  0  0
  158.1990  213.8960  144.1910 C   0  0  0  0  0  1  0  0  0  0  0  0
  159.2850  213.6800  148.2860 C   0  0  0  0  0  0  0  0  0  0  0  0
  157.4660  213.8140  146.5620 C   0  0  0  0  0  2  0  0  0  0  0  0
  160.2050  213.8350  147.2430 O   0  0  0  0  0  0  0  0  0  0  0  0
  161.1740  213.5220  149.9190 C   0  0  0  0  0  1  0  0  0  0  0  0
  159.7100  213.5260  149.6130 C   0  0  0  0  0  0  0  0  0  0  0  0
  157.4160  213.3710  150.2920 N   0  0  0  0  0  0  0  0  0  0  0  0
  156.9920  213.5020  149.0080 C   0  0  0  0  0  3  0  0  0  0  0  0
  158.5990  214.3950  152.9120 C   0  0  0  0  0  2  0  0  0  0  0  0
  157.8630  213.1070  156.4770 C   0  0  0  0  0  2  0  0  0  0  0  0
  156.5130  212.4730  156.2140 C   0  0  0  0  0  0  0  0  0  0  0  0
  156.6560  213.0210  153.7770 C   0  0  0  0  0  2  0  0  0  0  0  0
  158.6760  213.3450  155.2070 C   0  0  0  0  0  2  0  0  0  0  0  0
  157.7900  213.9790  154.1410 C   0  0  1  0  0  3  0  0  0  0  0  0
  155.9570  212.4910  154.9970 C   0  0  0  0  0  3  0  0  0  0  0  0
  155.7810  211.9060  157.2610 O   0  0  0  0  0  0  0  0  0  0  0  0
  154.7380  210.9670  157.0410 C   0  0  0  0  0  1  0  0  0  0  0  0
  158.5820  211.8840  152.6590 C   0  0  0  0  0  2  0  0  0  0  0  0
  159.4260  210.2810  154.8800 O   0  0  0  0  0  0  0  0  0  0  0  0
  160.0300  210.1290  153.7860 C   0  0  0  0  0  0  0  0  0  0  0  0
  159.6340  210.8770  152.6300 N   0  0  0  0  0  2  0  0  0  0  0  0
  160.9660  208.1850  152.5390 C   0  0  2  0  0  3  0  0  0  0  0  0
  160.9390  208.0000  154.6810 C   0  0  0  0  0  2  0  0  0  0  0  0
  161.1570  209.1420  153.7070 C   0  0  2  0  0  3  0  0  0  0  0  0
  160.7660  207.0410  153.5180 C   0  0  0  0  0  2  0  0  0  0  0  0
  162.2580  207.9970  151.7370 C   0  0  2  0  0  3  0  0  0  0  0  0
  161.6480  207.1670  148.9340 C   0  0  0  0  0  2  0  0  0  0  0  0
  161.7410  206.1910  150.0240 N   0  0  0  0  0  0  0  0  0  0  0  0
  162.3020  208.9520  150.5370 C   0  0  0  0  0  2  0  0  0  0  0  0
  162.3470  206.5720  151.2670 C   0  0  0  0  0  0  0  0  0  0  0  0
  162.8670  205.7010  152.0140 O   0  0  0  0  0  0  0  0  0  0  0  0
  161.2890  208.5460  149.4700 C   0  0  0  0  0  2  0  0  0  0  0  0
  161.0220  204.9220  149.9430 C   0  0  0  0  0  3  0  0  0  0  0  0
  161.1510  202.5970  151.0200 C   0  0  0  0  0  2  0  0  0  0  0  0
  160.6510  202.8450  148.5490 C   0  0  0  0  0  2  0  0  0  0  0  0
  160.2080  202.2210  149.8800 C   0  0  0  0  0  2  0  0  0  0  0  0
  161.4690  204.1320  148.7130 C   0  0  0  0  0  2  0  0  0  0  0  0
  161.1630  204.1140  151.2440 C   0  0  0  0  0  2  0  0  0  0  0  0
  1 23  1  1  0  0  0
  1 14  1  0  0  0  0
  2  6  1  6  0  0  0
  2  5  1  0  0  0  0
  2  8  1  0  0  0  0
  3  1  1  0  0  0  0
  4  7  2  0  0  0  0
  4 13  1  0  0  0  0
  5  9  1  0  0  0  0
  7 11  1  0  0  0  0
  8  4  1  0  0  0  0
  9  7  1  0  0  0  0
 11 10  1  0  0  0  0
 11  3  2  0  0  0  0
 12  3  1  0  0  0  0
 13 12  2  0  0  0  0
 16 15  1  0  0  0  0
 16 21  1  0  0  0  0
 17 19  1  0  0  0  0
 17 20  1  0  0  0  0
 18 15  1  0  0  0  0
 19 14  1  6  0  0  0
 19 18  1  0  0  0  0
 20 16  2  0  0  0  0
 22 21  1  0  0  0  0
 25 24  2  0  0  0  0
 26 23  1  0  0  0  0
 26 25  1  0  0  0  0
 27 30  1  1  0  0  0
 27 29  1  0  0  0  0
 29 25  1  1  0  0  0
 29 28  1  0  0  0  0
 30 28  1  0  0  0  0
 31 34  1  6  0  0  0
 31 27  1  0  0  0  0
 32 37  1  0  0  0  0
 32 33  1  0  0  0  0
 33 35  1  0  0  0  0
 35 31  1  0  0  0  0
 35 36  2  0  0  0  0
 37 34  1  0  0  0  0
 38 33  1  0  0  0  0
 38 43  1  0  0  0  0
 39 43  1  0  0  0  0
 40 42  1  0  0  0  0
 40 41  1  0  0  0  0
 41 39  1  0  0  0  0
 42 38  1  0  0  0  0
M  END
>  <MODEL>
3

>  <REMARK>
 VINA RESULT:      -6.0      2.433      8.965
  Name = 
  9 active torsions:
  status: ('A' for Active; 'I' for Inactive)
    1  A    between atoms: C_1  and  C_34
    2  A    between atoms: C_1  and  C_35
    3  A    between atoms: C_3  and  C_4
    4  A    between atoms: C_6  and  C_12
    5  A    between atoms: C_8  and  C_34
    6  A    between atoms: C_11  and  N_14
    7  A    between atoms: N_13  and  C_38
    8  A    between atoms: C_19  and  O_25
    9  A    between atoms: C_34  and  C_38
                            x       y       z     vdW  Elec       q    Type
                         _______ _______ _______ _____ _____    ______ ____

>  <TORSDO>
F 9

$$$$
=
 OpenBabel11062410163D

 43 48  0  0  1  0  0  0  0  0999 V2000
  161.7850  208.8220  152.4200 C   0  0  1  0  0  3  0  0  0  0  0  0
  158.4280  213.4720  155.5040 C   0  0  2  0  0  3  0  0  0  0  0  0
  160.8330  209.8650  152.9390 C   0  0  0  0  0  0  0  0  0  0  0  0
  159.0400  211.8430  153.7240 C   0  0  0  0  0  0  0  0  0  0  0  0
  158.6500  212.3850  156.4560 N   0  0  0  0  0  2  0  0  0  0  0  0
  157.3060  214.3580  155.9990 C   0  0  0  0  0  1  0  0  0  0  0  0
  159.8410  211.2200  154.6880 C   0  0  0  0  0  0  0  0  0  0  0  0
  158.0560  212.8960  154.1370 C   0  0  0  0  0  2  0  0  0  0  0  0
  159.7240  211.6220  156.0240 O   0  0  0  0  0  0  0  0  0  0  0  0
  161.6390  209.6060  155.3380 C   0  0  0  0  0  1  0  0  0  0  0  0
  160.7610  210.2360  154.3030 C   0  0  0  0  0  0  0  0  0  0  0  0
  160.0240  210.4830  152.0350 N   0  0  0  0  0  0  0  0  0  0  0  0
  159.1400  211.4510  152.3940 C   0  0  0  0  0  3  0  0  0  0  0  0
  161.3420  207.4170  152.8250 C   0  0  0  0  0  2  0  0  0  0  0  0
  161.0330  205.7040  149.3780 C   0  0  0  0  0  2  0  0  0  0  0  0
  161.1940  204.2650  149.8250 C   0  0  0  0  0  0  0  0  0  0  0  0
  161.3190  204.9570  152.2260 C   0  0  0  0  0  2  0  0  0  0  0  0
  160.6630  206.6520  150.5160 C   0  0  0  0  0  2  0  0  0  0  0  0
  161.5550  206.3790  151.7220 C   0  0  1  0  0  3  0  0  0  0  0  0
  161.3770  203.9500  151.1120 C   0  0  0  0  0  3  0  0  0  0  0  0
  161.2210  203.2320  148.8860 O   0  0  0  0  0  0  0  0  0  0  0  0
  160.4700  202.0360  149.0470 C   0  0  0  0  0  1  0  0  0  0  0  0
  162.0110  208.9220  150.9130 C   0  0  0  0  0  2  0  0  0  0  0  0
  161.5820  209.8870  148.2490 O   0  0  0  0  0  0  0  0  0  0  0  0
  161.8810  210.7300  149.1350 C   0  0  0  0  0  0  0  0  0  0  0  0
  162.0760  210.3150  150.4930 N   0  0  0  0  0  2  0  0  0  0  0  0
  161.8450  212.3600  147.2510 C   0  0  2  0  0  3  0  0  0  0  0  0
  163.4740  212.5680  148.6390 C   0  0  0  0  0  2  0  0  0  0  0  0
  162.0130  212.1740  148.7520 C   0  0  2  0  0  3  0  0  0  0  0  0
  163.3040  212.7720  147.1450 C   0  0  0  0  0  2  0  0  0  0  0  0
  160.9220  213.5370  146.9200 C   0  0  2  0  0  3  0  0  0  0  0  0
  158.5940  212.6260  145.2880 C   0  0  0  0  0  2  0  0  0  0  0  0
  159.8770  212.9750  144.6720 N   0  0  0  0  0  0  0  0  0  0  0  0
  159.5170  213.3090  147.4930 C   0  0  0  0  0  2  0  0  0  0  0  0
  160.8510  213.7080  145.4290 C   0  0  0  0  0  0  0  0  0  0  0  0
  161.7090  214.4180  144.8410 O   0  0  0  0  0  0  0  0  0  0  0  0
  158.7850  212.2040  146.7380 C   0  0  0  0  0  2  0  0  0  0  0  0
  160.2660  212.3900  143.3920 C   0  0  0  0  0  3  0  0  0  0  0  0
  162.1330  212.6900  141.6580 C   0  0  0  0  0  2  0  0  0  0  0  0
  159.7420  212.2980  140.9200 C   0  0  0  0  0  2  0  0  0  0  0  0
  161.2040  211.8490  140.7860 C   0  0  0  0  0  2  0  0  0  0  0  0
  159.4240  212.9760  142.2580 C   0  0  0  0  0  2  0  0  0  0  0  0
  161.7770  212.5410  143.1410 C   0  0  0  0  0  2  0  0  0  0  0  0
  1 23  1  6  0  0  0
  1 14  1  0  0  0  0
  1  3  1  0  0  0  0
  2  6  1  1  0  0  0
  2  5  1  0  0  0  0
  3 11  1  0  0  0  0
  4  8  1  0  0  0  0
  4  7  1  0  0  0  0
  7  9  1  0  0  0  0
  8  2  1  0  0  0  0
  9  5  1  0  0  0  0
 11  7  2  0  0  0  0
 11 10  1  0  0  0  0
 12 13  1  0  0  0  0
 12  3  2  0  0  0  0
 13  4  2  0  0  0  0
 15 16  1  0  0  0  0
 15 18  1  0  0  0  0
 16 20  2  0  0  0  0
 18 19  1  0  0  0  0
 19 17  1  0  0  0  0
 19 14  1  1  0  0  0
 20 17  1  0  0  0  0
 21 22  1  0  0  0  0
 21 16  1  0  0  0  0
 24 25  2  0  0  0  0
 25 26  1  0  0  0  0
 26 23  1  0  0  0  0
 27 30  1  6  0  0  0
 27 29  1  0  0  0  0
 28 29  1  0  0  0  0
 29 25  1  6  0  0  0
 30 28  1  0  0  0  0
 31 27  1  0  0  0  0
 31 34  1  6  0  0  0
 32 37  1  0  0  0  0
 33 32  1  0  0  0  0
 33 35  1  0  0  0  0
 35 31  1  0  0  0  0
 36 35  2  0  0  0  0
 37 34  1  0  0  0  0
 38 33  1  0  0  0  0
 39 43  1  0  0  0  0
 40 42  1  0  0  0  0
 41 40  1  0  0  0  0
 41 39  1  0  0  0  0
 42 38  1  0  0  0  0
 43 38  1  0  0  0  0
M  END
>  <MODEL>
4

>  <REMARK>
 VINA RESULT:      -6.0      3.062      9.016
  Name = 
  9 active torsions:
  status: ('A' for Active; 'I' for Inactive)
    1  A    between atoms: C_1  and  C_34
    2  A    between atoms: C_1  and  C_35
    3  A    between atoms: C_3  and  C_4
    4  A    between atoms: C_6  and  C_12
    5  A    between atoms: C_8  and  C_34
    6  A    between atoms: C_11  and  N_14
    7  A    between atoms: N_13  and  C_38
    8  A    between atoms: C_19  and  O_25
    9  A    between atoms: C_34  and  C_38
                            x       y       z     vdW  Elec       q    Type
                         _______ _______ _______ _____ _____    ______ ____

>  <TORSDO>
F 9

$$$$
=
 OpenBabel11062410163D

 43 48  0  0  1  0  0  0  0  0999 V2000
  161.0250  207.0180  152.2460 C   0  0  1  0  0  3  0  0  0  0  0  0
  161.3700  212.5920  148.8970 C   0  0  2  0  0  3  0  0  0  0  0  0
  161.0780  208.4210  151.7070 C   0  0  0  0  0  0  0  0  0  0  0  0
  161.0460  211.0650  150.8350 C   0  0  0  0  0  0  0  0  0  0  0  0
  162.5840  211.8290  148.6080 N   0  0  0  0  0  2  0  0  0  0  0  0
  161.5810  214.0430  148.5220 C   0  0  0  0  0  1  0  0  0  0  0  0
  161.7200  210.0990  150.0790 C   0  0  0  0  0  0  0  0  0  0  0  0
  161.0390  212.4940  150.3870 C   0  0  0  0  0  2  0  0  0  0  0  0
  162.3530  210.4920  148.8930 O   0  0  0  0  0  0  0  0  0  0  0  0
  162.4200  207.7330  149.6590 C   0  0  0  0  0  1  0  0  0  0  0  0
  161.7280  208.7620  150.4970 C   0  0  0  0  0  0  0  0  0  0  0  0
  160.4480  209.3930  152.4230 N   0  0  0  0  0  0  0  0  0  0  0  0
  160.4190  210.6900  152.0190 C   0  0  0  0  0  3  0  0  0  0  0  0
  162.2990  206.2450  151.9040 C   0  0  0  0  0  2  0  0  0  0  0  0
  160.9070  203.8870  149.1800 C   0  0  0  0  0  2  0  0  0  0  0  0
  160.7840  202.6280  150.0130 C   0  0  0  0  0  0  0  0  0  0  0  0
  161.5410  203.8350  152.0700 C   0  0  0  0  0  2  0  0  0  0  0  0
  161.0150  205.1580  150.0200 C   0  0  0  0  0  2  0  0  0  0  0  0
  162.0260  204.9480  151.1420 C   0  0  1  0  0  3  0  0  0  0  0  0
  161.1270  202.6090  151.3060 C   0  0  0  0  0  3  0  0  0  0  0  0
  160.3660  201.4310  149.4270 O   0  0  0  0  0  0  0  0  0  0  0  0
  161.0590  200.8310  148.3410 C   0  0  0  0  0  1  0  0  0  0  0  0
  160.7270  206.9670  153.7420 C   0  0  0  0  0  2  0  0  0  0  0  0
  159.8080  207.7630  156.3370 O   0  0  0  0  0  0  0  0  0  0  0  0
  160.4240  208.6170  155.6470 C   0  0  0  0  0  0  0  0  0  0  0  0
  160.9370  208.2710  154.3550 N   0  0  0  0  0  2  0  0  0  0  0  0
  159.7910  211.0190  155.4510 C   0  0  2  0  0  3  0  0  0  0  0  0
  161.8940  210.6170  155.6470 C   0  0  0  0  0  2  0  0  0  0  0  0
  160.6270  209.9950  156.2050 C   0  0  2  0  0  3  0  0  0  0  0  0
  161.0620  211.6500  154.9100 C   0  0  0  0  0  2  0  0  0  0  0  0
  159.0680  211.9780  156.4020 C   0  0  2  0  0  3  0  0  0  0  0  0
  156.2500  212.4180  155.5170 C   0  0  0  0  0  2  0  0  0  0  0  0
  157.3610  213.2020  154.9700 N   0  0  0  0  0  0  0  0  0  0  0  0
  157.8560  211.2970  157.0500 C   0  0  0  0  0  2  0  0  0  0  0  0
  158.6300  213.1970  155.6390 C   0  0  0  0  0  0  0  0  0  0  0  0
  159.4210  214.1680  155.5100 O   0  0  0  0  0  0  0  0  0  0  0  0
  156.7400  211.0720  156.0340 C   0  0  0  0  0  2  0  0  0  0  0  0
  157.2620  213.7960  153.6390 C   0  0  0  0  0  3  0  0  0  0  0  0
  155.4840  214.0700  151.8110 C   0  0  0  0  0  2  0  0  0  0  0  0
  157.8790  213.5150  151.2030 C   0  0  0  0  0  2  0  0  0  0  0  0
  156.6880  214.4530  150.9560 C   0  0  0  0  0  2  0  0  0  0  0  0
  157.8750  212.8660  152.5930 C   0  0  0  0  0  2  0  0  0  0  0  0
  155.8120  214.1850  153.3040 C   0  0  0  0  0  2  0  0  0  0  0  0
  1 14  1  1  0  0  0
  1 23  1  0  0  0  0
  2  6  1  1  0  0  0
  2  8  1  0  0  0  0
  3  1  1  0  0  0  0
  3 12  1  0  0  0  0
  4 13  1  0  0  0  0
  5  9  1  0  0  0  0
  5  2  1  0  0  0  0
  7 11  1  0  0  0  0
  7  4  2  0  0  0  0
  8  4  1  0  0  0  0
  9  7  1  0  0  0  0
 10 11  1  0  0  0  0
 11  3  2  0  0  0  0
 13 12  2  0  0  0  0
 15 16  1  0  0  0  0
 15 18  1  0  0  0  0
 16 20  2  0  0  0  0
 18 19  1  0  0  0  0
 19 14  1  1  0  0  0
 19 17  1  0  0  0  0
 20 17  1  0  0  0  0
 21 16  1  0  0  0  0
 22 21  1  0  0  0  0
 23 26  1  0  0  0  0
 25 24  2  0  0  0  0
 26 25  1  0  0  0  0
 27 30  1  6  0  0  0
 27 29  1  0  0  0  0
 27 31  1  0  0  0  0
 28 29  1  0  0  0  0
 29 25  1  6  0  0  0
 30 28  1  0  0  0  0
 31 34  1  6  0  0  0
 32 37  1  0  0  0  0
 33 32  1  0  0  0  0
 33 35  1  0  0  0  0
 35 31  1  0  0  0  0
 36 35  2  0  0  0  0
 37 34  1  0  0  0  0
 38 33  1  0  0  0  0
 39 43  1  0  0  0  0
 40 42  1  0  0  0  0
 41 40  1  0  0  0  0
 41 39  1  0  0  0  0
 42 38  1  0  0  0  0
 43 38  1  0  0  0  0
M  END
>  <MODEL>
5

>  <REMARK>
 VINA RESULT:      -5.9      2.092      5.807
  Name = 
  9 active torsions:
  status: ('A' for Active; 'I' for Inactive)
    1  A    between atoms: C_1  and  C_34
    2  A    between atoms: C_1  and  C_35
    3  A    between atoms: C_3  and  C_4
    4  A    between atoms: C_6  and  C_12
    5  A    between atoms: C_8  and  C_34
    6  A    between atoms: C_11  and  N_14
    7  A    between atoms: N_13  and  C_38
    8  A    between atoms: C_19  and  O_25
    9  A    between atoms: C_34  and  C_38
                            x       y       z     vdW  Elec       q    Type
                         _______ _______ _______ _____ _____    ______ ____

>  <TORSDO>
F 9

$$$$
=
 OpenBabel11062410163D

 43 48  0  0  1  0  0  0  0  0999 V2000
  161.2230  213.0630  147.7480 C   0  0  1  0  0  3  0  0  0  0  0  0
  156.3260  213.8090  151.9750 C   0  0  2  0  0  3  0  0  0  0  0  0
  160.2590  213.3890  148.8570 C   0  0  0  0  0  0  0  0  0  0  0  0
  158.6200  213.9840  151.0260 C   0  0  0  0  0  0  0  0  0  0  0  0
  155.8430  214.2350  150.6630 N   0  0  0  0  0  2  0  0  0  0  0  0
  155.4180  214.3600  153.0540 C   0  0  0  0  0  1  0  0  0  0  0  0
  158.0400  213.6770  149.7900 C   0  0  0  0  0  0  0  0  0  0  0  0
  157.7480  214.3260  152.1960 C   0  0  0  0  0  2  0  0  0  0  0  0
  156.6440  213.6680  149.6840 O   0  0  0  0  0  0  0  0  0  0  0  0
  158.2200  212.9950  147.3890 C   0  0  0  0  0  1  0  0  0  0  0  0
  158.8540  213.3580  148.6940 C   0  0  0  0  0  0  0  0  0  0  0  0
  160.7850  213.7090  150.0720 N   0  0  0  0  0  0  0  0  0  0  0  0
  160.0060  214.0030  151.1460 C   0  0  0  0  0  3  0  0  0  0  0  0
  161.7330  214.3320  147.0660 C   0  0  0  0  0  2  0  0  0  0  0  0
  160.6330  213.5760  143.4420 C   0  0  0  0  0  2  0  0  0  0  0  0
  161.9800  213.1770  142.8760 C   0  0  0  0  0  0  0  0  0  0  0  0
  163.0700  213.4350  145.1130 C   0  0  0  0  0  2  0  0  0  0  0  0
  160.5810  213.5280  144.9680 C   0  0  0  0  0  2  0  0  0  0  0  0
  161.8210  214.2010  145.5450 C   0  0  1  0  0  3  0  0  0  0  0  0
  163.0830  213.1710  143.6330 C   0  0  0  0  0  3  0  0  0  0  0  0
  162.1130  212.8650  141.5210 O   0  0  0  0  0  0  0  0  0  0  0  0
  161.7830  211.5870  140.9970 C   0  0  0  0  0  1  0  0  0  0  0  0
  162.3770  212.1740  148.2070 C   0  0  0  0  0  2  0  0  0  0  0  0
  162.2250  210.4980  150.5260 O   0  0  0  0  0  0  0  0  0  0  0  0
  161.9500  209.9800  149.4110 C   0  0  0  0  0  0  0  0  0  0  0  0
  161.9770  210.7740  148.2190 N   0  0  0  0  0  2  0  0  0  0  0  0
  161.9510  207.8170  150.6460 C   0  0  2  0  0  3  0  0  0  0  0  0
  162.6390  207.7340  148.6110 C   0  0  0  0  0  2  0  0  0  0  0  0
  161.5800  208.5280  149.3530 C   0  0  2  0  0  3  0  0  0  0  0  0
  162.9970  207.0100  149.8950 C   0  0  0  0  0  2  0  0  0  0  0  0
  160.8210  206.9110  151.1450 C   0  0  2  0  0  3  0  0  0  0  0  0
  161.7160  204.0650  151.2490 C   0  0  0  0  0  2  0  0  0  0  0  0
  161.1960  204.6640  150.0170 N   0  0  0  0  0  0  0  0  0  0  0  0
  161.2250  206.1930  152.4390 C   0  0  0  0  0  2  0  0  0  0  0  0
  160.4820  205.9070  150.0800 C   0  0  0  0  0  0  0  0  0  0  0  0
  159.6420  206.2030  149.1890 O   0  0  0  0  0  0  0  0  0  0  0  0
  162.2890  205.1320  152.1720 C   0  0  0  0  0  2  0  0  0  0  0  0
  161.5940  204.1380  148.7140 C   0  0  0  0  0  3  0  0  0  0  0  0
  161.1110  204.6280  146.2420 C   0  0  0  0  0  2  0  0  0  0  0  0
  161.2840  202.2410  147.0710 C   0  0  0  0  0  2  0  0  0  0  0  0
  161.7680  203.2660  146.0360 C   0  0  0  0  0  2  0  0  0  0  0  0
  160.8060  202.8700  148.3860 C   0  0  0  0  0  2  0  0  0  0  0  0
  161.4700  205.2090  147.6150 C   0  0  0  0  0  2  0  0  0  0  0  0
  1 14  1  1  0  0  0
  1 23  1  0  0  0  0
  1  3  1  0  0  0  0
  2  8  1  0  0  0  0
  2  6  1  1  0  0  0
  3 12  1  0  0  0  0
  4 13  1  0  0  0  0
  4  8  1  0  0  0  0
  5  2  1  0  0  0  0
  7  4  2  0  0  0  0
  9  7  1  0  0  0  0
  9  5  1  0  0  0  0
 10 11  1  0  0  0  0
 11  3  2  0  0  0  0
 11  7  1  0  0  0  0
 12 13  2  0  0  0  0
 15 18  1  0  0  0  0
 16 15  1  0  0  0  0
 16 20  2  0  0  0  0
 17 19  1  0  0  0  0
 18 19  1  0  0  0  0
 19 14  1  1  0  0  0
 20 17  1  0  0  0  0
 21 16  1  0  0  0  0
 22 21  1  0  0  0  0
 23 26  1  0  0  0  0
 25 24  2  0  0  0  0
 26 25  1  0  0  0  0
 27 30  1  6  0  0  0
 27 31  1  0  0  0  0
 28 29  1  0  0  0  0
 28 30  1  0  0  0  0
 29 25  1  1  0  0  0
 29 27  1  0  0  0  0
 31 34  1  1  0  0  0
 32 37  1  0  0  0  0
 33 35  1  0  0  0  0
 33 32  1  0  0  0  0
 35 31  1  0  0  0  0
 36 35  2  0  0  0  0
 37 34  1  0  0  0  0
 38 33  1  0  0  0  0
 39 43  1  0  0  0  0
 40 42  1  0  0  0  0
 41 39  1  0  0  0  0
 41 40  1  0  0  0  0
 42 38  1  0  0  0  0
 43 38  1  0  0  0  0
M  END
>  <MODEL>
6

>  <REMARK>
 VINA RESULT:      -5.8      2.966      9.283
  Name = 
  9 active torsions:
  status: ('A' for Active; 'I' for Inactive)
    1  A    between atoms: C_1  and  C_34
    2  A    between atoms: C_1  and  C_35
    3  A    between atoms: C_3  and  C_4
    4  A    between atoms: C_6  and  C_12
    5  A    between atoms: C_8  and  C_34
    6  A    between atoms: C_11  and  N_14
    7  A    between atoms: N_13  and  C_38
    8  A    between atoms: C_19  and  O_25
    9  A    between atoms: C_34  and  C_38
                            x       y       z     vdW  Elec       q    Type
                         _______ _______ _______ _____ _____    ______ ____

>  <TORSDO>
F 9

$$$$
=
 OpenBabel11062410163D

 43 48  0  0  1  0  0  0  0  0999 V2000
  161.3610  209.0680  151.0830 C   0  0  1  0  0  3  0  0  0  0  0  0
  160.4200  202.6940  150.1400 C   0  0  2  0  0  3  0  0  0  0  0  0
  161.2530  207.6370  150.6290 C   0  0  0  0  0  0  0  0  0  0  0  0
  161.0120  205.0540  149.6200 C   0  0  0  0  0  0  0  0  0  0  0  0
  161.2330  202.8440  151.3460 N   0  0  0  0  0  2  0  0  0  0  0  0
  160.5350  201.2760  149.6240 C   0  0  0  0  0  1  0  0  0  0  0  0
  161.1060  205.2470  151.0040 C   0  0  0  0  0  0  0  0  0  0  0  0
  160.9020  203.6670  149.0640 C   0  0  0  0  0  2  0  0  0  0  0  0
  161.0630  204.1270  151.8440 O   0  0  0  0  0  0  0  0  0  0  0  0
  161.2690  206.7360  153.0080 C   0  0  0  0  0  1  0  0  0  0  0  0
  161.2090  206.5430  151.5250 C   0  0  0  0  0  0  0  0  0  0  0  0
  161.1770  207.4070  149.2900 N   0  0  0  0  0  0  0  0  0  0  0  0
  161.0590  206.1560  148.7730 C   0  0  0  0  0  3  0  0  0  0  0  0
  161.3380  209.1680  152.6080 C   0  0  0  0  0  2  0  0  0  0  0  0
  158.4970  211.7740  152.8360 C   0  0  0  0  0  2  0  0  0  0  0  0
  158.3150  211.7790  154.3400 C   0  0  0  0  0  0  0  0  0  0  0  0
  160.2060  210.1680  154.6400 C   0  0  0  0  0  2  0  0  0  0  0  0
  159.8340  211.1850  152.3910 C   0  0  0  0  0  2  0  0  0  0  0  0
  160.0980  209.8850  153.1430 C   0  0  1  0  0  3  0  0  0  0  0  0
  159.0610  211.0050  155.1370 C   0  0  0  0  0  3  0  0  0  0  0  0
  157.3110  212.5520  154.9280 O   0  0  0  0  0  0  0  0  0  0  0  0
  156.0240  212.7000  154.3460 C   0  0  0  0  0  1  0  0  0  0  0  0
  162.5720  209.7880  150.4950 C   0  0  0  0  0  2  0  0  0  0  0  0
  161.7790  210.4950  147.8340 O   0  0  0  0  0  0  0  0  0  0  0  0
  161.8500  211.4180  148.6880 C   0  0  0  0  0  0  0  0  0  0  0  0
  162.2090  211.1240  150.0430 N   0  0  0  0  0  2  0  0  0  0  0  0
  161.8510  213.0390  146.7960 C   0  0  2  0  0  3  0  0  0  0  0  0
  162.6680  213.7610  148.6490 C   0  0  0  0  0  2  0  0  0  0  0  0
  161.5360  212.8240  148.2690 C   0  0  2  0  0  3  0  0  0  0  0  0
  162.9710  213.9910  147.1810 C   0  0  0  0  0  2  0  0  0  0  0  0
  160.7250  213.7860  146.0740 C   0  0  2  0  0  3  0  0  0  0  0  0
  159.1020  211.9040  144.4190 C   0  0  0  0  0  2  0  0  0  0  0  0
  160.3360  212.5090  143.9100 N   0  0  0  0  0  0  0  0  0  0  0  0
  159.3520  213.2480  146.4960 C   0  0  0  0  0  2  0  0  0  0  0  0
  160.9040  213.6380  144.5890 C   0  0  0  0  0  0  0  0  0  0  0  0
  161.6340  214.4530  143.9650 O   0  0  0  0  0  0  0  0  0  0  0  0
  159.1130  211.8470  145.9410 C   0  0  0  0  0  2  0  0  0  0  0  0
  161.1140  211.8400  142.8710 C   0  0  0  0  0  3  0  0  0  0  0  0
  162.6700  212.5040  140.9420 C   0  0  0  0  0  2  0  0  0  0  0  0
  160.9860  210.6340  140.6510 C   0  0  0  0  0  2  0  0  0  0  0  0
  162.4580  211.0530  140.5170 C   0  0  0  0  0  2  0  0  0  0  0  0
  160.2110  211.4330  141.7060 C   0  0  0  0  0  2  0  0  0  0  0  0
  162.3050  212.7030  142.4180 C   0  0  0  0  0  2  0  0  0  0  0  0
  1 23  1  1  0  0  0
  1 14  1  0  0  0  0
  2  6  1  6  0  0  0
  2  5  1  0  0  0  0
  3  1  1  0  0  0  0
  3 11  1  0  0  0  0
  4  7  1  0  0  0  0
  5  9  1  0  0  0  0
  7 11  2  0  0  0  0
  7  9  1  0  0  0  0
  8  4  1  0  0  0  0
  8  2  1  0  0  0  0
 11 10  1  0  0  0  0
 12  3  2  0  0  0  0
 13 12  1  0  0  0  0
 13  4  2  0  0  0  0
 15 16  1  0  0  0  0
 16 21  1  0  0  0  0
 16 20  2  0  0  0  0
 17 20  1  0  0  0  0
 18 15  1  0  0  0  0
 18 19  1  0  0  0  0
 19 14  1  6  0  0  0
 19 17  1  0  0  0  0
 22 21  1  0  0  0  0
 24 25  2  0  0  0  0
 25 26  1  0  0  0  0
 26 23  1  0  0  0  0
 27 30  1  1  0  0  0
 27 29  1  0  0  0  0
 29 28  1  0  0  0  0
 29 25  1  1  0  0  0
 30 28  1  0  0  0  0
 31 34  1  1  0  0  0
 31 27  1  0  0  0  0
 32 37  1  0  0  0  0
 33 32  1  0  0  0  0
 33 35  1  0  0  0  0
 35 31  1  0  0  0  0
 36 35  2  0  0  0  0
 37 34  1  0  0  0  0
 38 33  1  0  0  0  0
 39 43  1  0  0  0  0
 40 42  1  0  0  0  0
 41 40  1  0  0  0  0
 41 39  1  0  0  0  0
 42 38  1  0  0  0  0
 43 38  1  0  0  0  0
M  END
>  <MODEL>
7

>  <REMARK>
 VINA RESULT:      -5.8      3.409      7.367
  Name = 
  9 active torsions:
  status: ('A' for Active; 'I' for Inactive)
    1  A    between atoms: C_1  and  C_34
    2  A    between atoms: C_1  and  C_35
    3  A    between atoms: C_3  and  C_4
    4  A    between atoms: C_6  and  C_12
    5  A    between atoms: C_8  and  C_34
    6  A    between atoms: C_11  and  N_14
    7  A    between atoms: N_13  and  C_38
    8  A    between atoms: C_19  and  O_25
    9  A    between atoms: C_34  and  C_38
                            x       y       z     vdW  Elec       q    Type
                         _______ _______ _______ _____ _____    ______ ____

>  <TORSDO>
F 9

$$$$
=
 OpenBabel11062410163D

 43 48  0  0  1  0  0  0  0  0999 V2000
  161.5160  207.0920  150.4990 C   0  0  1  0  0  3  0  0  0  0  0  0
  160.6980  210.2240  156.1500 C   0  0  2  0  0  3  0  0  0  0  0  0
  161.1710  207.9770  151.6670 C   0  0  0  0  0  0  0  0  0  0  0  0
  160.5410  209.7580  153.7100 C   0  0  0  0  0  0  0  0  0  0  0  0
  160.2920  208.8340  156.3550 N   0  0  0  0  0  2  0  0  0  0  0  0
  160.1300  211.0870  157.2560 C   0  0  0  0  0  1  0  0  0  0  0  0
  160.8660  208.4340  154.0280 C   0  0  0  0  0  0  0  0  0  0  0  0
  160.1800  210.7220  154.8000 C   0  0  0  0  0  2  0  0  0  0  0  0
  160.8750  208.0470  155.3730 O   0  0  0  0  0  0  0  0  0  0  0  0
  161.5850  206.1310  153.3670 C   0  0  0  0  0  1  0  0  0  0  0  0
  161.2030  207.5320  153.0100 C   0  0  0  0  0  0  0  0  0  0  0  0
  160.8330  209.2680  151.3980 N   0  0  0  0  0  0  0  0  0  0  0  0
  160.5220  210.1570  152.3780 C   0  0  0  0  0  3  0  0  0  0  0  0
  160.2550  206.5750  149.8060 C   0  0  0  0  0  2  0  0  0  0  0  0
  160.7380  202.7820  150.3480 C   0  0  0  0  0  2  0  0  0  0  0  0
  161.2270  202.4160  148.9620 C   0  0  0  0  0  0  0  0  0  0  0  0
  161.1730  204.8110  148.2390 C   0  0  0  0  0  2  0  0  0  0  0  0
  160.8540  204.2730  150.6550 C   0  0  0  0  0  2  0  0  0  0  0  0
  160.3220  205.0830  149.4780 C   0  0  1  0  0  3  0  0  0  0  0  0
  161.3660  203.3390  148.0030 C   0  0  0  0  0  3  0  0  0  0  0  0
  161.4840  201.0830  148.6320 O   0  0  0  0  0  0  0  0  0  0  0  0
  161.2100  200.5500  147.3440 C   0  0  0  0  0  1  0  0  0  0  0  0
  162.4640  207.7610  149.5070 C   0  0  0  0  0  2  0  0  0  0  0  0
  161.2480  209.4310  147.5210 O   0  0  0  0  0  0  0  0  0  0  0  0
  161.7480  209.9930  148.5310 C   0  0  0  0  0  0  0  0  0  0  0  0
  162.3420  209.2110  149.5740 N   0  0  0  0  0  2  0  0  0  0  0  0
  162.1310  212.1400  147.3260 C   0  0  2  0  0  3  0  0  0  0  0  0
  162.9460  212.0210  149.3120 C   0  0  0  0  0  2  0  0  0  0  0  0
  161.6990  211.4880  148.6320 C   0  0  2  0  0  3  0  0  0  0  0  0
  163.3690  212.6870  148.0160 C   0  0  0  0  0  2  0  0  0  0  0  0
  161.1890  213.2760  146.9150 C   0  0  2  0  0  3  0  0  0  0  0  0
  159.1670  212.3100  144.9420 C   0  0  0  0  0  2  0  0  0  0  0  0
  160.4980  212.7600  144.5240 N   0  0  0  0  0  0  0  0  0  0  0  0
  159.7360  212.9420  147.2780 C   0  0  0  0  0  2  0  0  0  0  0  0
  161.3110  213.5120  145.4360 C   0  0  0  0  0  0  0  0  0  0  0  0
  162.1960  214.2960  145.0010 O   0  0  0  0  0  0  0  0  0  0  0  0
  159.1850  211.8330  146.3870 C   0  0  0  0  0  2  0  0  0  0  0  0
  161.0950  212.2580  143.2890 C   0  0  0  0  0  3  0  0  0  0  0  0
  162.6980  213.1060  141.4750 C   0  0  0  0  0  2  0  0  0  0  0  0
  160.6630  211.7330  140.8530 C   0  0  0  0  0  2  0  0  0  0  0  0
  162.1840  211.8880  140.7120 C   0  0  0  0  0  2  0  0  0  0  0  0
  160.0950  212.3530  142.1360 C   0  0  0  0  0  2  0  0  0  0  0  0
  162.4220  212.9700  142.9760 C   0  0  0  0  0  2  0  0  0  0  0  0
  1 23  1  6  0  0  0
  1  3  1  0  0  0  0
  2  5  1  0  0  0  0
  2  6  1  1  0  0  0
  3 11  1  0  0  0  0
  4  7  1  0  0  0  0
  4  8  1  0  0  0  0
  7  9  1  0  0  0  0
  8  2  1  0  0  0  0
  9  5  1  0  0  0  0
 11 10  1  0  0  0  0
 11  7  2  0  0  0  0
 12  3  2  0  0  0  0
 12 13  1  0  0  0  0
 13  4  2  0  0  0  0
 14  1  1  0  0  0  0
 15 18  1  0  0  0  0
 16 15  1  0  0  0  0
 17 19  1  0  0  0  0
 19 14  1  1  0  0  0
 19 18  1  0  0  0  0
 20 17  1  0  0  0  0
 20 16  2  0  0  0  0
 21 16  1  0  0  0  0
 22 21  1  0  0  0  0
 23 26  1  0  0  0  0
 24 25  2  0  0  0  0
 25 26  1  0  0  0  0
 27 30  1  1  0  0  0
 27 29  1  0  0  0  0
 29 25  1  6  0  0  0
 29 28  1  0  0  0  0
 30 28  1  0  0  0  0
 31 34  1  6  0  0  0
 31 27  1  0  0  0  0
 32 37  1  0  0  0  0
 33 32  1  0  0  0  0
 33 35  1  0  0  0  0
 35 31  1  0  0  0  0
 36 35  2  0  0  0  0
 37 34  1  0  0  0  0
 38 33  1  0  0  0  0
 39 43  1  0  0  0  0
 40 42  1  0  0  0  0
 41 40  1  0  0  0  0
 41 39  1  0  0  0  0
 42 38  1  0  0  0  0
 43 38  1  0  0  0  0
M  END
>  <MODEL>
8

>  <REMARK>
 VINA RESULT:      -5.6      3.151      8.714
  Name = 
  9 active torsions:
  status: ('A' for Active; 'I' for Inactive)
    1  A    between atoms: C_1  and  C_34
    2  A    between atoms: C_1  and  C_35
    3  A    between atoms: C_3  and  C_4
    4  A    between atoms: C_6  and  C_12
    5  A    between atoms: C_8  and  C_34
    6  A    between atoms: C_11  and  N_14
    7  A    between atoms: N_13  and  C_38
    8  A    between atoms: C_19  and  O_25
    9  A    between atoms: C_34  and  C_38
                            x       y       z     vdW  Elec       q    Type
                         _______ _______ _______ _____ _____    ______ ____

>  <TORSDO>
F 9

$$$$
=
 OpenBabel11062410163D

 43 48  0  0  1  0  0  0  0  0999 V2000
  161.5940  211.0820  149.3650 C   0  0  1  0  0  3  0  0  0  0  0  0
  159.0860  211.1080  155.3740 C   0  0  2  0  0  3  0  0  0  0  0  0
  161.2370  210.9650  150.8220 C   0  0  0  0  0  0  0  0  0  0  0  0
  160.6560  210.5810  153.5170 C   0  0  0  0  0  0  0  0  0  0  0  0
  159.1450  212.4950  154.9160 N   0  0  0  0  0  2  0  0  0  0  0  0
  158.9400  211.0770  156.8800 C   0  0  0  0  0  1  0  0  0  0  0  0
  160.0780  211.6580  152.8350 C   0  0  0  0  0  0  0  0  0  0  0  0
  160.3660  210.3750  154.9720 C   0  0  0  0  0  2  0  0  0  0  0  0
  159.2100  212.5090  153.5310 O   0  0  0  0  0  0  0  0  0  0  0  0
  159.6930  212.9850  150.7490 C   0  0  0  0  0  1  0  0  0  0  0  0
  160.3480  211.8520  151.4740 C   0  0  0  0  0  0  0  0  0  0  0  0
  161.7920  209.9390  151.5240 N   0  0  0  0  0  0  0  0  0  0  0  0
  161.5240  209.7300  152.8400 C   0  0  0  0  0  3  0  0  0  0  0  0
  161.8610  212.5350  148.9750 C   0  0  0  0  0  2  0  0  0  0  0  0
  159.7980  212.2970  145.7190 C   0  0  0  0  0  2  0  0  0  0  0  0
  160.8300  212.8470  144.7560 C   0  0  0  0  0  0  0  0  0  0  0  0
  162.5250  213.0470  146.5860 C   0  0  0  0  0  2  0  0  0  0  0  0
  160.3960  211.8280  147.0430 C   0  0  0  0  0  2  0  0  0  0  0  0
  161.3680  212.8790  147.5690 C   0  0  1  0  0  3  0  0  0  0  0  0
  162.0410  213.2320  145.1750 C   0  0  0  0  0  3  0  0  0  0  0  0
  160.5150  213.0250  143.4080 O   0  0  0  0  0  0  0  0  0  0  0  0
  160.4510  211.9430  142.4900 C   0  0  0  0  0  1  0  0  0  0  0  0
  162.7550  210.1750  148.9630 C   0  0  0  0  0  2  0  0  0  0  0  0
  162.9420  207.4750  149.9040 O   0  0  0  0  0  0  0  0  0  0  0  0
  162.4200  207.6650  148.7740 C   0  0  0  0  0  0  0  0  0  0  0  0
  162.2680  208.9950  148.2620 N   0  0  0  0  0  2  0  0  0  0  0  0
  161.7040  206.8610  146.5280 C   0  0  2  0  0  3  0  0  0  0  0  0
  160.4560  206.2710  148.1760 C   0  0  0  0  0  2  0  0  0  0  0  0
  161.9460  206.4830  147.9820 C   0  0  2  0  0  3  0  0  0  0  0  0
  160.2150  206.6290  146.7210 C   0  0  0  0  0  2  0  0  0  0  0  0
  162.2950  205.8280  145.5630 C   0  0  2  0  0  3  0  0  0  0  0  0
  160.6730  203.3220  145.5750 C   0  0  0  0  0  2  0  0  0  0  0  0
  161.7310  203.5590  146.5600 N   0  0  0  0  0  0  0  0  0  0  0  0
  161.2860  205.4620  144.4670 C   0  0  0  0  0  2  0  0  0  0  0  0
  162.6920  204.6000  146.3330 C   0  0  0  0  0  0  0  0  0  0  0  0
  163.8360  204.5350  146.8560 O   0  0  0  0  0  0  0  0  0  0  0  0
  160.1330  204.6370  145.0310 C   0  0  0  0  0  2  0  0  0  0  0  0
  161.6820  202.9130  147.8690 C   0  0  0  0  0  3  0  0  0  0  0  0
  160.4170  200.9790  148.9840 C   0  0  0  0  0  2  0  0  0  0  0  0
  160.8530  203.1290  150.2480 C   0  0  0  0  0  2  0  0  0  0  0  0
  160.9720  201.5990  150.2630 C   0  0  0  0  0  2  0  0  0  0  0  0
  160.8310  203.7330  148.8380 C   0  0  0  0  0  2  0  0  0  0  0  0
  161.2050  201.4540  147.7570 C   0  0  0  0  0  2  0  0  0  0  0  0
  1 23  1  1  0  0  0
  1  3  1  0  0  0  0
  2  6  1  1  0  0  0
  3 11  2  0  0  0  0
  3 12  1  0  0  0  0
  4  8  1  0  0  0  0
  5  2  1  0  0  0  0
  7  4  2  0  0  0  0
  7  9  1  0  0  0  0
  8  2  1  0  0  0  0
  9  5  1  0  0  0  0
 10 11  1  0  0  0  0
 11  7  1  0  0  0  0
 12 13  2  0  0  0  0
 13  4  1  0  0  0  0
 14  1  1  0  0  0  0
 15 18  1  0  0  0  0
 16 20  2  0  0  0  0
 16 15  1  0  0  0  0
 17 19  1  0  0  0  0
 18 19  1  0  0  0  0
 19 14  1  1  0  0  0
 20 17  1  0  0  0  0
 21 16  1  0  0  0  0
 22 21  1  0  0  0  0
 25 24  2  0  0  0  0
 26 25  1  0  0  0  0
 26 23  1  0  0  0  0
 27 30  1  1  0  0  0
 27 29  1  0  0  0  0
 29 28  1  0  0  0  0
 29 25  1  1  0  0  0
 30 28  1  0  0  0  0
 31 34  1  6  0  0  0
 31 35  1  0  0  0  0
 31 27  1  0  0  0  0
 32 33  1  0  0  0  0
 33 38  1  0  0  0  0
 34 37  1  0  0  0  0
 35 33  1  0  0  0  0
 35 36  2  0  0  0  0
 37 32  1  0  0  0  0
 38 42  1  0  0  0  0
 39 41  1  0  0  0  0
 40 41  1  0  0  0  0
 42 40  1  0  0  0  0
 43 38  1  0  0  0  0
 43 39  1  0  0  0  0
M  END
>  <MODEL>
9

>  <REMARK>
 VINA RESULT:      -5.0      2.405      9.597
  Name = 
  9 active torsions:
  status: ('A' for Active; 'I' for Inactive)
    1  A    between atoms: C_1  and  C_34
    2  A    between atoms: C_1  and  C_35
    3  A    between atoms: C_3  and  C_4
    4  A    between atoms: C_6  and  C_12
    5  A    between atoms: C_8  and  C_34
    6  A    between atoms: C_11  and  N_14
    7  A    between atoms: N_13  and  C_38
    8  A    between atoms: C_19  and  O_25
    9  A    between atoms: C_34  and  C_38
                            x       y       z     vdW  Elec       q    Type
                         _______ _______ _______ _____ _____    ______ ____

>  <TORSDO>
F 9

$$$$
