=
 OpenBabel11062407473D

 34 37  0  0  1  0  0  0  0  0999 V2000
  159.9810  209.5770  154.8470 C   0  0  2  0  0  3  0  0  0  0  0  0
  160.8370  209.5270  152.4150 C   0  0  2  0  0  3  0  0  0  0  0  0
  160.5850  209.9890  151.1210 O   0  0  0  0  0  1  0  0  0  0  0  0
  160.8060  208.2920  154.9980 C   0  0  0  0  0  2  0  0  0  0  0  0
  160.4640  206.2240  153.9330 O   0  0  0  0  0  0  0  0  0  0  0  0
  160.8540  207.9940  152.4060 C   0  0  2  0  0  3  0  0  0  0  0  0
  159.7690  210.0550  153.3850 C   0  0  2  0  0  3  0  0  0  0  0  0
  160.6940  207.4140  153.7900 C   0  0  0  0  0  0  0  0  0  0  0  0
  159.5520  211.2940  156.6480 C   0  0  0  0  0  2  0  0  0  0  0  0
  161.8320  210.9740  155.9790 C   0  0  0  0  0  0  0  0  0  0  0  0
  160.2740  212.4960  157.2540 C   0  0  1  0  0  3  0  0  0  0  0  0
  162.0740  212.1780  157.2610 S   0  0  0  0  0  0  0  0  0  0  0  0
  160.4700  210.6240  155.7490 N   0  0  0  0  0  0  0  0  0  0  0  0
  159.9780  213.7340  156.4310 C   0  0  0  0  0  1  0  0  0  0  0  0
  163.0340  210.6380  154.9170 S   0  0  0  0  0  0  0  0  0  0  0  0
  160.4670  212.3120  153.0410 O   0  0  0  0  0  0  0  0  0  0  0  0
  158.1700  212.0280  153.3350 N   0  0  0  0  0  2  0  0  0  0  0  0
  159.5050  211.5280  153.2560 C   0  0  0  0  0  0  0  0  0  0  0  0
  157.8490  213.4330  153.1610 C   0  0  0  0  0  2  0  0  0  0  0  0
  158.8960  214.2470  150.3750 F   0  0  0  0  0  0  0  0  0  0  0  0
  157.1570  213.6250  151.8550 C   0  0  0  0  0  0  0  0  0  0  0  0
  157.9010  213.3080  150.5770 C   0  0  1  0  0  3  0  0  0  0  0  0
  156.0290  214.4460  149.3630 C   0  0  0  0  0  2  0  0  0  0  0  0
  155.1240  214.3350  150.5850 C   0  0  0  0  0  2  0  0  0  0  0  0
  155.9200  214.1500  151.8500 C   0  0  0  0  0  3  0  0  0  0  0  0
  156.9860  213.2620  149.3500 C   0  0  0  0  0  2  0  0  0  0  0  0
  162.1460  207.5080  151.7570 C   0  0  0  0  0  2  0  0  0  0  0  0
  161.2370  204.7720  149.3840 C   0  0  0  0  0  0  0  0  0  0  0  0
  161.3280  205.4010  148.1400 C   0  0  0  0  0  3  0  0  0  0  0  0
  161.8720  206.7790  150.4860 C   0  0  0  0  0  0  0  0  0  0  0  0
  161.6980  206.7460  148.0820 C   0  0  0  0  0  3  0  0  0  0  0  0
  161.5080  205.4680  150.5210 N   0  0  0  0  0  0  0  0  0  0  0  0
  161.9720  207.4440  149.2590 C   0  0  0  0  0  3  0  0  0  0  0  0
  160.8600  203.4030  149.4610 N   0  0  0  0  0  1  0  0  0  0  0  0
  1  4  1  6  0  0  0
  1 13  1  0  0  0  0
  2  3  1  6  0  0  0
  2  7  1  0  0  0  0
  6 27  1  1  0  0  0
  6  2  1  0  0  0  0
  6  8  1  0  0  0  0
  7 18  1  1  0  0  0
  7  1  1  0  0  0  0
  8  5  2  0  0  0  0
  8  4  1  0  0  0  0
  9 11  1  0  0  0  0
 10 12  1  0  0  0  0
 11 14  1  6  0  0  0
 11 12  1  0  0  0  0
 13 10  1  0  0  0  0
 13  9  1  0  0  0  0
 15 10  2  0  0  0  0
 16 18  2  0  0  0  0
 18 17  1  0  0  0  0
 19 17  1  0  0  0  0
 21 19  1  0  0  0  0
 22 20  1  6  0  0  0
 22 21  1  0  0  0  0
 23 24  1  0  0  0  0
 24 25  1  0  0  0  0
 25 21  2  0  0  0  0
 26 23  1  0  0  0  0
 26 22  1  0  0  0  0
 28 34  1  0  0  0  0
 28 32  1  0  0  0  0
 29 28  2  0  0  0  0
 30 32  2  0  0  0  0
 30 27  1  0  0  0  0
 31 29  1  0  0  0  0
 31 33  2  0  0  0  0
 33 30  1  0  0  0  0
M  END
>  <MODEL>
1

>  <REMARK>
 VINA RESULT:      -5.7      0.000      0.000
  Name = 
  6 active torsions:
  status: ('A' for Active; 'I' for Inactive)
    1  A    between atoms: C_3  and  C_13
    2  A    between atoms: C_3  and  N_17
    3  A    between atoms: C_4  and  N_15
    4  A    between atoms: C_12  and  C_28
    5  A    between atoms: C_26  and  C_28
    6  A    between atoms: C_29  and  C_31
                            x       y       z     vdW  Elec       q    Type
                         _______ _______ _______ _____ _____    ______ ____

>  <TORSDO>
F 6

$$$$
=
 OpenBabel11062407473D

 34 37  0  0  1  0  0  0  0  0999 V2000
  160.3660  208.9500  154.3410 C   0  0  2  0  0  3  0  0  0  0  0  0
  161.2760  208.5550  151.9610 C   0  0  2  0  0  3  0  0  0  0  0  0
  161.1540  208.9510  150.6270 O   0  0  0  0  0  1  0  0  0  0  0  0
  160.9380  207.5530  154.6220 C   0  0  0  0  0  2  0  0  0  0  0  0
  160.2600  205.5020  153.6940 O   0  0  0  0  0  0  0  0  0  0  0  0
  161.0140  207.0480  152.0630 C   0  0  2  0  0  3  0  0  0  0  0  0
  160.2910  209.3410  152.8400 C   0  0  2  0  0  3  0  0  0  0  0  0
  160.7070  206.6170  153.4770 C   0  0  0  0  0  0  0  0  0  0  0  0
  162.4100  210.2750  155.0040 C   0  0  0  0  0  2  0  0  0  0  0  0
  160.3540  210.8320  156.1060 C   0  0  0  0  0  0  0  0  0  0  0  0
  162.8580  211.1430  156.1780 C   0  0  1  0  0  3  0  0  0  0  0  0
  161.4160  212.0480  156.8450 S   0  0  0  0  0  0  0  0  0  0  0  0
  161.0080  209.9610  155.1870 N   0  0  0  0  0  0  0  0  0  0  0  0
  163.4530  210.2650  157.2610 C   0  0  0  0  0  1  0  0  0  0  0  0
  158.8820  210.5130  156.7510 S   0  0  0  0  0  0  0  0  0  0  0  0
  161.2530  211.3330  151.9420 O   0  0  0  0  0  0  0  0  0  0  0  0
  159.2270  211.6360  153.0580 N   0  0  0  0  0  2  0  0  0  0  0  0
  160.3030  210.8220  152.5930 C   0  0  0  0  0  0  0  0  0  0  0  0
  159.1580  213.0640  152.8000 C   0  0  0  0  0  2  0  0  0  0  0  0
  158.8820  214.4430  150.0530 F   0  0  0  0  0  0  0  0  0  0  0  0
  157.9700  213.3550  151.9480 C   0  0  0  0  0  0  0  0  0  0  0  0
  158.1270  213.3510  150.4430 C   0  0  1  0  0  3  0  0  0  0  0  0
  155.8480  214.3850  150.3360 C   0  0  0  0  0  2  0  0  0  0  0  0
  155.5500  213.9560  151.7690 C   0  0  0  0  0  2  0  0  0  0  0  0
  156.8130  213.6920  152.5440 C   0  0  0  0  0  3  0  0  0  0  0  0
  156.7870  213.3660  149.7040 C   0  0  0  0  0  2  0  0  0  0  0  0
  162.2170  206.2890  151.5110 C   0  0  0  0  0  2  0  0  0  0  0  0
  161.4810  204.7320  148.1960 C   0  0  0  0  0  0  0  0  0  0  0  0
  161.0590  203.4480  148.5480 C   0  0  0  0  0  3  0  0  0  0  0  0
  161.8010  205.2910  150.4840 C   0  0  0  0  0  0  0  0  0  0  0  0
  161.0120  203.0900  149.8960 C   0  0  0  0  0  3  0  0  0  0  0  0
  161.8420  205.6190  149.1640 N   0  0  0  0  0  0  0  0  0  0  0  0
  161.3850  204.0140  150.8740 C   0  0  0  0  0  3  0  0  0  0  0  0
  161.5370  205.1120  146.8280 N   0  0  0  0  0  1  0  0  0  0  0  0
  1  4  1  6  0  0  0
  1 13  1  0  0  0  0
  2  3  1  6  0  0  0
  2  6  1  0  0  0  0
  2  7  1  0  0  0  0
  6 27  1  1  0  0  0
  6  8  1  0  0  0  0
  7 18  1  1  0  0  0
  7  1  1  0  0  0  0
  8  5  2  0  0  0  0
  8  4  1  0  0  0  0
  9 13  1  0  0  0  0
  9 11  1  0  0  0  0
 10 15  2  0  0  0  0
 10 12  1  0  0  0  0
 11 12  1  0  0  0  0
 11 14  1  1  0  0  0
 13 10  1  0  0  0  0
 16 18  2  0  0  0  0
 18 17  1  0  0  0  0
 19 17  1  0  0  0  0
 21 25  2  0  0  0  0
 21 19  1  0  0  0  0
 22 20  1  6  0  0  0
 22 21  1  0  0  0  0
 23 24  1  0  0  0  0
 24 25  1  0  0  0  0
 26 23  1  0  0  0  0
 26 22  1  0  0  0  0
 28 29  2  0  0  0  0
 28 32  1  0  0  0  0
 29 31  1  0  0  0  0
 30 33  1  0  0  0  0
 30 27  1  0  0  0  0
 31 33  2  0  0  0  0
 32 30  2  0  0  0  0
 34 28  1  0  0  0  0
M  END
>  <MODEL>
2

>  <REMARK>
 VINA RESULT:      -5.5      1.382      2.067
  Name = 
  6 active torsions:
  status: ('A' for Active; 'I' for Inactive)
    1  A    between atoms: C_3  and  C_13
    2  A    between atoms: C_3  and  N_17
    3  A    between atoms: C_4  and  N_15
    4  A    between atoms: C_12  and  C_28
    5  A    between atoms: C_26  and  C_28
    6  A    between atoms: C_29  and  C_31
                            x       y       z     vdW  Elec       q    Type
                         _______ _______ _______ _____ _____    ______ ____

>  <TORSDO>
F 6

$$$$
=
 OpenBabel11062407473D

 34 37  0  0  1  0  0  0  0  0999 V2000
  160.3010  208.8120  154.3920 C   0  0  2  0  0  3  0  0  0  0  0  0
  161.0440  209.1770  151.9490 C   0  0  2  0  0  3  0  0  0  0  0  0
  160.6980  209.7960  150.7460 O   0  0  0  0  0  1  0  0  0  0  0  0
  161.2270  207.5890  154.3250 C   0  0  0  0  0  2  0  0  0  0  0  0
  160.9920  205.6720  152.9840 O   0  0  0  0  0  0  0  0  0  0  0  0
  161.1750  207.6670  151.7170 C   0  0  2  0  0  3  0  0  0  0  0  0
  159.9860  209.4730  153.0230 C   0  0  2  0  0  3  0  0  0  0  0  0
  161.1250  206.8850  153.0070 C   0  0  0  0  0  0  0  0  0  0  0  0
  159.8760  210.1040  156.5190 C   0  0  0  0  0  2  0  0  0  0  0  0
  162.0690  210.2810  155.5640 C   0  0  0  0  0  0  0  0  0  0  0  0
  160.4940  211.2880  157.2610 C   0  0  1  0  0  3  0  0  0  0  0  0
  162.3050  211.2730  157.0170 S   0  0  0  0  0  0  0  0  0  0  0  0
  160.7520  209.7560  155.4180 N   0  0  0  0  0  0  0  0  0  0  0  0
  159.9170  212.5810  156.7220 C   0  0  0  0  0  1  0  0  0  0  0  0
  163.1540  210.3320  154.3370 S   0  0  0  0  0  0  0  0  0  0  0  0
  160.4650  211.8060  152.8560 O   0  0  0  0  0  0  0  0  0  0  0  0
  158.2720  211.2940  153.4630 N   0  0  0  0  0  2  0  0  0  0  0  0
  159.6060  210.9230  153.1180 C   0  0  0  0  0  0  0  0  0  0  0  0
  157.8330  212.6780  153.5160 C   0  0  0  0  0  2  0  0  0  0  0  0
  155.3410  211.2090  154.5900 F   0  0  0  0  0  0  0  0  0  0  0  0
  157.0040  212.8880  154.7370 C   0  0  0  0  0  0  0  0  0  0  0  0
  156.3560  211.6910  155.3980 C   0  0  1  0  0  3  0  0  0  0  0  0
  155.0360  213.3280  156.7590 C   0  0  0  0  0  2  0  0  0  0  0  0
  156.0090  214.4500  156.4160 C   0  0  0  0  0  2  0  0  0  0  0  0
  156.7920  214.1430  155.1670 C   0  0  0  0  0  3  0  0  0  0  0  0
  155.7960  212.0090  156.7860 C   0  0  0  0  0  2  0  0  0  0  0  0
  162.4690  207.3840  150.9590 C   0  0  0  0  0  2  0  0  0  0  0  0
  161.3670  204.7000  148.6070 C   0  0  0  0  0  0  0  0  0  0  0  0
  161.6700  205.2450  147.3570 C   0  0  0  0  0  3  0  0  0  0  0  0
  162.2030  206.6420  149.6940 C   0  0  0  0  0  0  0  0  0  0  0  0
  162.2480  206.5130  147.2870 C   0  0  0  0  0  3  0  0  0  0  0  0
  161.6370  205.4040  149.7400 N   0  0  0  0  0  0  0  0  0  0  0  0
  162.5170  207.2200  148.4600 C   0  0  0  0  0  3  0  0  0  0  0  0
  160.7760  203.4100  148.6960 N   0  0  0  0  0  1  0  0  0  0  0  0
  1  4  1  6  0  0  0
  1 13  1  0  0  0  0
  2  3  1  6  0  0  0
  2  7  1  0  0  0  0
  5  8  2  0  0  0  0
  6 27  1  1  0  0  0
  6  2  1  0  0  0  0
  6  8  1  0  0  0  0
  7 18  1  1  0  0  0
  7  1  1  0  0  0  0
  8  4  1  0  0  0  0
  9 11  1  0  0  0  0
 10 12  1  0  0  0  0
 11 14  1  6  0  0  0
 12 11  1  0  0  0  0
 13 10  1  0  0  0  0
 13  9  1  0  0  0  0
 15 10  2  0  0  0  0
 16 18  2  0  0  0  0
 17 19  1  0  0  0  0
 18 17  1  0  0  0  0
 19 21  1  0  0  0  0
 21 25  2  0  0  0  0
 21 22  1  0  0  0  0
 22 20  1  6  0  0  0
 22 26  1  0  0  0  0
 23 26  1  0  0  0  0
 24 23  1  0  0  0  0
 25 24  1  0  0  0  0
 28 34  1  0  0  0  0
 28 32  1  0  0  0  0
 29 28  2  0  0  0  0
 30 32  2  0  0  0  0
 30 27  1  0  0  0  0
 31 29  1  0  0  0  0
 31 33  2  0  0  0  0
 33 30  1  0  0  0  0
M  END
>  <MODEL>
3

>  <REMARK>
 VINA RESULT:      -5.0      2.042      2.767
  Name = 
  6 active torsions:
  status: ('A' for Active; 'I' for Inactive)
    1  A    between atoms: C_3  and  C_13
    2  A    between atoms: C_3  and  N_17
    3  A    between atoms: C_4  and  N_15
    4  A    between atoms: C_12  and  C_28
    5  A    between atoms: C_26  and  C_28
    6  A    between atoms: C_29  and  C_31
                            x       y       z     vdW  Elec       q    Type
                         _______ _______ _______ _____ _____    ______ ____

>  <TORSDO>
F 6

$$$$
=
 OpenBabel11062407473D

 34 37  0  0  1  0  0  0  0  0999 V2000
  162.4440  209.7900  149.3000 C   0  0  2  0  0  3  0  0  0  0  0  0
  161.2710  207.9780  150.7100 C   0  0  2  0  0  3  0  0  0  0  0  0
  161.2200  207.3920  151.9770 O   0  0  0  0  0  1  0  0  0  0  0  0
  161.9570  208.9560  148.1070 C   0  0  0  0  0  2  0  0  0  0  0  0
  162.5880  206.7670  147.5230 O   0  0  0  0  0  0  0  0  0  0  0  0
  161.5940  206.8980  149.6710 C   0  0  2  0  0  3  0  0  0  0  0  0
  162.3260  209.0940  150.6830 C   0  0  2  0  0  3  0  0  0  0  0  0
  162.0810  207.4870  148.3690 C   0  0  0  0  0  0  0  0  0  0  0  0
  160.6600  211.4350  150.0010 C   0  0  0  0  0  2  0  0  0  0  0  0
  162.4780  212.2990  148.6970 C   0  0  0  0  0  0  0  0  0  0  0  0
  160.1640  212.8130  149.5660 C   0  0  1  0  0  3  0  0  0  0  0  0
  161.5810  213.8050  148.9770 S   0  0  0  0  0  0  0  0  0  0  0  0
  161.8730  211.1400  149.2640 N   0  0  0  0  0  0  0  0  0  0  0  0
  159.1510  212.6580  148.4500 C   0  0  0  0  0  1  0  0  0  0  0  0
  163.6490  212.2290  147.5530 S   0  0  0  0  0  0  0  0  0  0  0  0
  163.2530  210.7030  152.1830 O   0  0  0  0  0  0  0  0  0  0  0  0
  160.9930  210.2320  152.5190 N   0  0  0  0  0  2  0  0  0  0  0  0
  162.2340  210.0460  151.8410 C   0  0  0  0  0  0  0  0  0  0  0  0
  160.8310  211.1790  153.6080 C   0  0  0  0  0  2  0  0  0  0  0  0
  163.3360  210.7030  155.3460 F   0  0  0  0  0  0  0  0  0  0  0  0
  161.0200  210.4750  154.9090 C   0  0  0  0  0  0  0  0  0  0  0  0
  162.0820  210.9730  155.8650 C   0  0  1  0  0  3  0  0  0  0  0  0
  161.7220  208.8570  157.1560 C   0  0  0  0  0  2  0  0  0  0  0  0
  160.3850  208.6210  156.4600 C   0  0  0  0  0  2  0  0  0  0  0  0
  160.2980  209.3700  155.1570 C   0  0  0  0  0  3  0  0  0  0  0  0
  161.9630  210.3570  157.2610 C   0  0  0  0  0  2  0  0  0  0  0  0
  160.3600  206.0280  149.4470 C   0  0  0  0  0  2  0  0  0  0  0  0
  160.9940  202.3690  149.0410 C   0  0  0  0  0  0  0  0  0  0  0  0
  161.1820  201.9430  150.3580 C   0  0  0  0  0  3  0  0  0  0  0  0
  160.6390  204.6010  149.7780 C   0  0  0  0  0  0  0  0  0  0  0  0
  161.0960  202.8730  151.3960 C   0  0  0  0  0  3  0  0  0  0  0  0
  160.7290  203.6790  148.7810 N   0  0  0  0  0  0  0  0  0  0  0  0
  160.8240  204.2110  151.1090 C   0  0  0  0  0  3  0  0  0  0  0  0
  161.0790  201.4360  147.9730 N   0  0  0  0  0  1  0  0  0  0  0  0
  1  4  1  6  0  0  0
  1  7  1  0  0  0  0
  2  3  1  1  0  0  0
  4  8  1  0  0  0  0
  5  8  2  0  0  0  0
  6 27  1  6  0  0  0
  6  2  1  0  0  0  0
  7  2  1  0  0  0  0
  7 18  1  1  0  0  0
  8  6  1  0  0  0  0
 10 12  1  0  0  0  0
 10 13  1  0  0  0  0
 11 14  1  6  0  0  0
 11  9  1  0  0  0  0
 12 11  1  0  0  0  0
 13  1  1  0  0  0  0
 13  9  1  0  0  0  0
 15 10  2  0  0  0  0
 17 19  1  0  0  0  0
 18 16  2  0  0  0  0
 18 17  1  0  0  0  0
 19 21  1  0  0  0  0
 21 25  2  0  0  0  0
 21 22  1  0  0  0  0
 22 20  1  6  0  0  0
 22 26  1  0  0  0  0
 23 26  1  0  0  0  0
 24 23  1  0  0  0  0
 25 24  1  0  0  0  0
 27 30  1  0  0  0  0
 28 29  1  0  0  0  0
 29 31  2  0  0  0  0
 30 33  2  0  0  0  0
 32 28  2  0  0  0  0
 32 30  1  0  0  0  0
 33 31  1  0  0  0  0
 34 28  1  0  0  0  0
M  END
>  <MODEL>
4

>  <REMARK>
 VINA RESULT:      -4.5      3.364      6.070
  Name = 
  6 active torsions:
  status: ('A' for Active; 'I' for Inactive)
    1  A    between atoms: C_3  and  C_13
    2  A    between atoms: C_3  and  N_17
    3  A    between atoms: C_4  and  N_15
    4  A    between atoms: C_12  and  C_28
    5  A    between atoms: C_26  and  C_28
    6  A    between atoms: C_29  and  C_31
                            x       y       z     vdW  Elec       q    Type
                         _______ _______ _______ _____ _____    ______ ____

>  <TORSDO>
F 6

$$$$
=
 OpenBabel11062407473D

 34 37  0  0  1  0  0  0  0  0999 V2000
  162.3310  209.8850  149.5270 C   0  0  2  0  0  3  0  0  0  0  0  0
  161.2820  208.0140  150.9580 C   0  0  2  0  0  3  0  0  0  0  0  0
  161.3380  207.3790  152.2000 O   0  0  0  0  0  1  0  0  0  0  0  0
  161.7460  209.0960  148.3470 C   0  0  0  0  0  2  0  0  0  0  0  0
  162.3270  206.9340  147.6260 O   0  0  0  0  0  0  0  0  0  0  0  0
  161.5170  206.9770  149.8540 C   0  0  2  0  0  3  0  0  0  0  0  0
  162.3310  209.1340  150.8860 C   0  0  2  0  0  3  0  0  0  0  0  0
  161.8920  207.6180  148.5390 C   0  0  0  0  0  0  0  0  0  0  0  0
  160.6660  211.5140  150.5020 C   0  0  0  0  0  2  0  0  0  0  0  0
  162.2730  212.4020  148.9580 C   0  0  0  0  0  0  0  0  0  0  0  0
  160.1100  212.8950  150.1620 C   0  0  1  0  0  3  0  0  0  0  0  0
  161.4240  213.9010  149.3860 S   0  0  0  0  0  0  0  0  0  0  0  0
  161.7590  211.2330  149.5930 N   0  0  0  0  0  0  0  0  0  0  0  0
  158.9450  212.7520  149.2030 C   0  0  0  0  0  1  0  0  0  0  0  0
  163.2650  212.3500  147.6550 S   0  0  0  0  0  0  0  0  0  0  0  0
  163.3730  210.7030  152.3530 O   0  0  0  0  0  0  0  0  0  0  0  0
  161.1630  210.1760  152.8860 N   0  0  0  0  0  2  0  0  0  0  0  0
  162.3370  210.0400  152.0840 C   0  0  0  0  0  0  0  0  0  0  0  0
  161.0930  211.0780  154.0220 C   0  0  0  0  0  2  0  0  0  0  0  0
  159.2210  209.3490  155.7610 F   0  0  0  0  0  0  0  0  0  0  0  0
  159.6690  211.2530  154.4270 C   0  0  0  0  0  0  0  0  0  0  0  0
  159.2220  210.7320  155.7750 C   0  0  1  0  0  3  0  0  0  0  0  0
  156.8740  211.1380  155.0020 C   0  0  0  0  0  2  0  0  0  0  0  0
  157.3640  212.0540  153.8860 C   0  0  0  0  0  2  0  0  0  0  0  0
  158.8080  211.7950  153.5500 C   0  0  0  0  0  3  0  0  0  0  0  0
  157.8350  211.2380  156.1790 C   0  0  0  0  0  2  0  0  0  0  0  0
  160.2690  206.1120  149.7010 C   0  0  0  0  0  2  0  0  0  0  0  0
  160.8710  202.4590  149.2040 C   0  0  0  0  0  0  0  0  0  0  0  0
  161.1390  202.0140  150.5010 C   0  0  0  0  0  3  0  0  0  0  0  0
  160.5650  204.6800  149.9930 C   0  0  0  0  0  0  0  0  0  0  0  0
  161.1190  202.9290  151.5550 C   0  0  0  0  0  3  0  0  0  0  0  0
  160.5920  203.7720  148.9790 N   0  0  0  0  0  0  0  0  0  0  0  0
  160.8310  204.2710  151.3040 C   0  0  0  0  0  3  0  0  0  0  0  0
  160.8900  201.5410  148.1200 N   0  0  0  0  0  1  0  0  0  0  0  0
  1  4  1  6  0  0  0
  1 13  1  0  0  0  0
  1  7  1  0  0  0  0
  2  3  1  1  0  0  0
  4  8  1  0  0  0  0
  5  8  2  0  0  0  0
  6 27  1  6  0  0  0
  6  2  1  0  0  0  0
  7  2  1  0  0  0  0
  7 18  1  1  0  0  0
  8  6  1  0  0  0  0
 10 12  1  0  0  0  0
 10 13  1  0  0  0  0
 11 14  1  6  0  0  0
 11  9  1  0  0  0  0
 12 11  1  0  0  0  0
 13  9  1  0  0  0  0
 15 10  2  0  0  0  0
 17 19  1  0  0  0  0
 18 16  2  0  0  0  0
 18 17  1  0  0  0  0
 19 21  1  0  0  0  0
 21 22  1  0  0  0  0
 22 20  1  6  0  0  0
 22 26  1  0  0  0  0
 23 26  1  0  0  0  0
 24 23  1  0  0  0  0
 25 24  1  0  0  0  0
 25 21  2  0  0  0  0
 27 30  1  0  0  0  0
 28 29  1  0  0  0  0
 29 31  2  0  0  0  0
 30 33  2  0  0  0  0
 32 28  2  0  0  0  0
 32 30  1  0  0  0  0
 33 31  1  0  0  0  0
 34 28  1  0  0  0  0
M  END
>  <MODEL>
5

>  <REMARK>
 VINA RESULT:      -4.4      3.178      5.226
  Name = 
  6 active torsions:
  status: ('A' for Active; 'I' for Inactive)
    1  A    between atoms: C_3  and  C_13
    2  A    between atoms: C_3  and  N_17
    3  A    between atoms: C_4  and  N_15
    4  A    between atoms: C_12  and  C_28
    5  A    between atoms: C_26  and  C_28
    6  A    between atoms: C_29  and  C_31
                            x       y       z     vdW  Elec       q    Type
                         _______ _______ _______ _____ _____    ______ ____

>  <TORSDO>
F 6

$$$$
=
 OpenBabel11062407473D

 34 37  0  0  1  0  0  0  0  0999 V2000
  161.2720  211.8360  151.4870 C   0  0  2  0  0  3  0  0  0  0  0  0
  161.1980  210.8110  149.1220 C   0  0  2  0  0  3  0  0  0  0  0  0
  161.7690  209.8410  148.2940 O   0  0  0  0  0  1  0  0  0  0  0  0
  160.6010  213.0420  150.8150 C   0  0  0  0  0  2  0  0  0  0  0  0
  161.4920  214.4530  149.1590 O   0  0  0  0  0  0  0  0  0  0  0  0
  161.3690  212.1880  148.4710 C   0  0  2  0  0  3  0  0  0  0  0  0
  161.8550  210.7780  150.5100 C   0  0  2  0  0  3  0  0  0  0  0  0
  161.1740  213.3140  149.4580 C   0  0  0  0  0  0  0  0  0  0  0  0
  158.9760  211.2430  152.3530 C   0  0  0  0  0  2  0  0  0  0  0  0
  160.8470  210.5630  153.6910 C   0  0  0  0  0  0  0  0  0  0  0  0
  158.3400  210.8590  153.6870 C   0  0  1  0  0  3  0  0  0  0  0  0
  159.5310  209.8720  154.6610 S   0  0  0  0  0  0  0  0  0  0  0  0
  160.4130  211.2710  152.5310 N   0  0  0  0  0  0  0  0  0  0  0  0
  157.9700  212.1130  154.4540 C   0  0  0  0  0  1  0  0  0  0  0  0
  162.3550  210.7070  154.3160 S   0  0  0  0  0  0  0  0  0  0  0  0
  163.0610  209.0290  151.5990 O   0  0  0  0  0  0  0  0  0  0  0  0
  160.8310  208.5370  151.1230 N   0  0  0  0  0  2  0  0  0  0  0  0
  161.9670  209.4000  151.0980 C   0  0  0  0  0  0  0  0  0  0  0  0
  160.8650  207.2170  151.7280 C   0  0  0  0  0  2  0  0  0  0  0  0
  162.3350  204.5120  151.5130 F   0  0  0  0  0  0  0  0  0  0  0  0
  160.8930  206.1820  150.6550 C   0  0  0  0  0  0  0  0  0  0  0  0
  161.0520  204.7280  151.0420 C   0  0  1  0  0  3  0  0  0  0  0  0
  161.4380  204.2620  148.6120 C   0  0  0  0  0  2  0  0  0  0  0  0
  160.8310  205.6060  148.2230 C   0  0  0  0  0  2  0  0  0  0  0  0
  160.8560  206.5790  149.3720 C   0  0  0  0  0  3  0  0  0  0  0  0
  160.7650  203.7680  149.8850 C   0  0  0  0  0  2  0  0  0  0  0  0
  160.3990  212.3170  147.3000 C   0  0  0  0  0  2  0  0  0  0  0  0
  161.1300  212.5850  143.6480 C   0  0  0  0  0  0  0  0  0  0  0  0
  162.4360  213.0790  143.6320 C   0  0  0  0  0  3  0  0  0  0  0  0
  161.1240  212.5780  146.0240 C   0  0  0  0  0  0  0  0  0  0  0  0
  163.0880  213.3250  144.8420 C   0  0  0  0  0  3  0  0  0  0  0  0
  160.5060  212.3480  144.8330 N   0  0  0  0  0  0  0  0  0  0  0  0
  162.4310  213.0750  146.0480 C   0  0  0  0  0  3  0  0  0  0  0  0
  160.4520  212.3320  142.4250 N   0  0  0  0  0  1  0  0  0  0  0  0
  1  4  1  6  0  0  0
  1 13  1  0  0  0  0
  2  3  1  6  0  0  0
  2  7  1  0  0  0  0
  5  8  2  0  0  0  0
  6 27  1  6  0  0  0
  6  2  1  0  0  0  0
  6  8  1  0  0  0  0
  7 18  1  1  0  0  0
  7  1  1  0  0  0  0
  8  4  1  0  0  0  0
  9 13  1  0  0  0  0
  9 11  1  0  0  0  0
 10 15  2  0  0  0  0
 10 12  1  0  0  0  0
 11 14  1  1  0  0  0
 11 12  1  0  0  0  0
 13 10  1  0  0  0  0
 17 19  1  0  0  0  0
 18 17  1  0  0  0  0
 18 16  2  0  0  0  0
 21 22  1  0  0  0  0
 21 19  1  0  0  0  0
 22 20  1  6  0  0  0
 23 26  1  0  0  0  0
 24 23  1  0  0  0  0
 24 25  1  0  0  0  0
 25 21  2  0  0  0  0
 26 22  1  0  0  0  0
 28 32  1  0  0  0  0
 29 28  2  0  0  0  0
 29 31  1  0  0  0  0
 30 33  1  0  0  0  0
 30 27  1  0  0  0  0
 31 33  2  0  0  0  0
 32 30  2  0  0  0  0
 34 28  1  0  0  0  0
M  END
>  <MODEL>
6

>  <REMARK>
 VINA RESULT:      -4.3      4.543      7.177
  Name = 
  6 active torsions:
  status: ('A' for Active; 'I' for Inactive)
    1  A    between atoms: C_3  and  C_13
    2  A    between atoms: C_3  and  N_17
    3  A    between atoms: C_4  and  N_15
    4  A    between atoms: C_12  and  C_28
    5  A    between atoms: C_26  and  C_28
    6  A    between atoms: C_29  and  C_31
                            x       y       z     vdW  Elec       q    Type
                         _______ _______ _______ _____ _____    ______ ____

>  <TORSDO>
F 6

$$$$
=
 OpenBabel11062407473D

 34 37  0  0  1  0  0  0  0  0999 V2000
  160.2820  208.5120  153.3980 C   0  0  2  0  0  3  0  0  0  0  0  0
  161.5860  208.2250  151.1920 C   0  0  2  0  0  3  0  0  0  0  0  0
  161.7520  208.7420  149.9050 O   0  0  0  0  0  1  0  0  0  0  0  0
  160.6670  207.0450  153.6340 C   0  0  0  0  0  2  0  0  0  0  0  0
  160.0000  205.1600  152.3950 O   0  0  0  0  0  0  0  0  0  0  0  0
  161.1790  206.7510  151.0910 C   0  0  2  0  0  3  0  0  0  0  0  0
  160.5250  209.0330  151.9560 C   0  0  2  0  0  3  0  0  0  0  0  0
  160.5760  206.2370  152.3760 C   0  0  0  0  0  0  0  0  0  0  0  0
  162.2460  209.2930  154.7800 C   0  0  0  0  0  2  0  0  0  0  0  0
  160.1700  210.4540  155.0940 C   0  0  0  0  0  0  0  0  0  0  0  0
  162.4750  210.0950  156.0600 C   0  0  1  0  0  3  0  0  0  0  0  0
  161.1970  211.3950  156.1940 S   0  0  0  0  0  0  0  0  0  0  0  0
  160.8380  209.3760  154.4440 N   0  0  0  0  0  0  0  0  0  0  0  0
  162.3900  209.1720  157.2590 C   0  0  0  0  0  1  0  0  0  0  0  0
  158.5380  210.5840  155.1640 S   0  0  0  0  0  0  0  0  0  0  0  0
  161.8750  210.9910  151.7420 O   0  0  0  0  0  0  0  0  0  0  0  0
  159.5800  211.3890  151.8830 N   0  0  0  0  0  2  0  0  0  0  0  0
  160.7130  210.5200  151.8670 C   0  0  0  0  0  0  0  0  0  0  0  0
  159.6970  212.8300  151.7450 C   0  0  0  0  0  2  0  0  0  0  0  0
  161.2110  214.1940  149.4270 F   0  0  0  0  0  0  0  0  0  0  0  0
  159.2660  213.2310  150.3750 C   0  0  0  0  0  0  0  0  0  0  0  0
  160.2750  213.1910  149.2480 C   0  0  1  0  0  3  0  0  0  0  0  0
  158.5970  214.4530  147.8810 C   0  0  0  0  0  2  0  0  0  0  0  0
  157.4780  214.0760  148.8460 C   0  0  0  0  0  2  0  0  0  0  0  0
  158.0170  213.6930  150.1990 C   0  0  0  0  0  3  0  0  0  0  0  0
  159.6310  213.3350  147.8670 C   0  0  0  0  0  2  0  0  0  0  0  0
  162.3940  205.9190  150.6900 C   0  0  0  0  0  2  0  0  0  0  0  0
  161.3030  202.8840  148.8060 C   0  0  0  0  0  0  0  0  0  0  0  0
  161.4370  203.2850  147.4750 C   0  0  0  0  0  3  0  0  0  0  0  0
  162.0710  205.0040  149.5580 C   0  0  0  0  0  0  0  0  0  0  0  0
  161.8960  204.5720  147.1930 C   0  0  0  0  0  3  0  0  0  0  0  0
  161.6190  203.7450  149.8120 N   0  0  0  0  0  0  0  0  0  0  0  0
  162.2160  205.4410  148.2370 C   0  0  0  0  0  3  0  0  0  0  0  0
  160.8340  201.5770  149.1110 N   0  0  0  0  0  1  0  0  0  0  0  0
  1  4  1  6  0  0  0
  1 13  1  0  0  0  0
  2  3  1  6  0  0  0
  2  7  1  0  0  0  0
  6 27  1  1  0  0  0
  6  2  1  0  0  0  0
  6  8  1  0  0  0  0
  7 18  1  1  0  0  0
  7  1  1  0  0  0  0
  8  5  2  0  0  0  0
  8  4  1  0  0  0  0
  9 11  1  0  0  0  0
 10 15  2  0  0  0  0
 10 12  1  0  0  0  0
 11 12  1  0  0  0  0
 11 14  1  1  0  0  0
 13  9  1  0  0  0  0
 13 10  1  0  0  0  0
 16 18  2  0  0  0  0
 18 17  1  0  0  0  0
 19 17  1  0  0  0  0
 21 19  1  0  0  0  0
 22 20  1  1  0  0  0
 22 21  1  0  0  0  0
 23 24  1  0  0  0  0
 24 25  1  0  0  0  0
 25 21  2  0  0  0  0
 26 23  1  0  0  0  0
 26 22  1  0  0  0  0
 28 34  1  0  0  0  0
 28 32  1  0  0  0  0
 29 28  2  0  0  0  0
 30 32  2  0  0  0  0
 30 27  1  0  0  0  0
 31 29  1  0  0  0  0
 31 33  2  0  0  0  0
 33 30  1  0  0  0  0
M  END
>  <MODEL>
7

>  <REMARK>
 VINA RESULT:      -3.5      1.852      2.555
  Name = 
  6 active torsions:
  status: ('A' for Active; 'I' for Inactive)
    1  A    between atoms: C_3  and  C_13
    2  A    between atoms: C_3  and  N_17
    3  A    between atoms: C_4  and  N_15
    4  A    between atoms: C_12  and  C_28
    5  A    between atoms: C_26  and  C_28
    6  A    between atoms: C_29  and  C_31
                            x       y       z     vdW  Elec       q    Type
                         _______ _______ _______ _____ _____    ______ ____

>  <TORSDO>
F 6

$$$$
=
 OpenBabel11062407473D

 34 37  0  0  1  0  0  0  0  0999 V2000
  160.0790  209.7260  153.3490 C   0  0  2  0  0  3  0  0  0  0  0  0
  160.8240  211.4400  151.5730 C   0  0  2  0  0  3  0  0  0  0  0  0
  160.4230  212.5720  150.8600 O   0  0  0  0  0  1  0  0  0  0  0  0
  161.1750  208.8460  152.7330 C   0  0  0  0  0  2  0  0  0  0  0  0
  161.2600  207.9560  150.5580 O   0  0  0  0  0  0  0  0  0  0  0  0
  161.1820  210.3250  150.5830 C   0  0  2  0  0  3  0  0  0  0  0  0
  159.7050  210.9870  152.5240 C   0  0  2  0  0  3  0  0  0  0  0  0
  161.2130  208.9670  151.2410 C   0  0  0  0  0  0  0  0  0  0  0  0
  159.2990  209.8950  155.7450 C   0  0  0  0  0  2  0  0  0  0  0  0
  161.6420  210.2170  155.3430 C   0  0  0  0  0  0  0  0  0  0  0  0
  159.8070  210.4930  157.0560 C   0  0  1  0  0  3  0  0  0  0  0  0
  161.6300  210.3600  157.1130 S   0  0  0  0  0  0  0  0  0  0  0  0
  160.3580  210.0020  154.7620 N   0  0  0  0  0  0  0  0  0  0  0  0
  159.4000  211.9500  157.1420 C   0  0  0  0  0  1  0  0  0  0  0  0
  162.9460  210.7030  154.4780 S   0  0  0  0  0  0  0  0  0  0  0  0
  159.8650  212.7900  154.0810 O   0  0  0  0  0  0  0  0  0  0  0  0
  157.7220  212.3970  153.2480 N   0  0  0  0  0  2  0  0  0  0  0  0
  159.1150  212.1000  153.3410 C   0  0  0  0  0  0  0  0  0  0  0  0
  157.1060  213.4960  153.9710 C   0  0  0  0  0  2  0  0  0  0  0  0
  155.2170  211.0730  154.2580 F   0  0  0  0  0  0  0  0  0  0  0  0
  156.3490  212.9580  155.1370 C   0  0  0  0  0  0  0  0  0  0  0  0
  156.1150  211.4660  155.2350 C   0  0  1  0  0  3  0  0  0  0  0  0
  154.4990  211.9750  157.0790 C   0  0  0  0  0  2  0  0  0  0  0  0
  155.0890  213.3700  157.2570 C   0  0  0  0  0  2  0  0  0  0  0  0
  155.8270  213.8210  156.0240 C   0  0  0  0  0  3  0  0  0  0  0  0
  155.5980  211.0320  156.6080 C   0  0  0  0  0  2  0  0  0  0  0  0
  162.5230  210.6440  149.9290 C   0  0  0  0  0  2  0  0  0  0  0  0
  160.9520  212.2100  146.9240 C   0  0  0  0  0  0  0  0  0  0  0  0
  161.9660  213.0450  146.4480 C   0  0  0  0  0  3  0  0  0  0  0  0
  162.3420  211.4800  148.7080 C   0  0  0  0  0  0  0  0  0  0  0  0
  163.1860  213.0910  147.1250 C   0  0  0  0  0  3  0  0  0  0  0  0
  161.1590  211.4520  148.0350 N   0  0  0  0  0  0  0  0  0  0  0  0
  163.3800  212.3060  148.2620 C   0  0  0  0  0  3  0  0  0  0  0  0
  159.7030  212.1530  146.2480 N   0  0  0  0  0  1  0  0  0  0  0  0
  1  4  1  6  0  0  0
  1 13  1  0  0  0  0
  2  3  1  6  0  0  0
  2  7  1  0  0  0  0
  5  8  2  0  0  0  0
  6 27  1  1  0  0  0
  6  8  1  0  0  0  0
  6  2  1  0  0  0  0
  7 18  1  1  0  0  0
  7  1  1  0  0  0  0
  8  4  1  0  0  0  0
  9 11  1  0  0  0  0
 10 12  1  0  0  0  0
 11 12  1  0  0  0  0
 11 14  1  6  0  0  0
 13 10  1  0  0  0  0
 13  9  1  0  0  0  0
 15 10  2  0  0  0  0
 17 18  1  0  0  0  0
 17 19  1  0  0  0  0
 18 16  2  0  0  0  0
 19 21  1  0  0  0  0
 21 22  1  0  0  0  0
 21 25  2  0  0  0  0
 22 20  1  6  0  0  0
 22 26  1  0  0  0  0
 23 24  1  0  0  0  0
 25 24  1  0  0  0  0
 26 23  1  0  0  0  0
 28 32  1  0  0  0  0
 29 28  2  0  0  0  0
 29 31  1  0  0  0  0
 30 27  1  0  0  0  0
 31 33  2  0  0  0  0
 32 30  2  0  0  0  0
 33 30  1  0  0  0  0
 34 28  1  0  0  0  0
M  END
>  <MODEL>
8

>  <REMARK>
 VINA RESULT:      -2.9      3.460      4.558
  Name = 
  6 active torsions:
  status: ('A' for Active; 'I' for Inactive)
    1  A    between atoms: C_3  and  C_13
    2  A    between atoms: C_3  and  N_17
    3  A    between atoms: C_4  and  N_15
    4  A    between atoms: C_12  and  C_28
    5  A    between atoms: C_26  and  C_28
    6  A    between atoms: C_29  and  C_31
                            x       y       z     vdW  Elec       q    Type
                         _______ _______ _______ _____ _____    ______ ____

>  <TORSDO>
F 6

$$$$
=
 OpenBabel11062407473D

 34 37  0  0  1  0  0  0  0  0999 V2000
  160.7780  209.8980  153.2240 C   0  0  2  0  0  3  0  0  0  0  0  0
  160.0020  212.0660  152.0630 C   0  0  2  0  0  3  0  0  0  0  0  0
  158.8830  212.8470  151.7640 O   0  0  0  0  0  1  0  0  0  0  0  0
  162.0100  210.0400  152.3200 C   0  0  0  0  0  2  0  0  0  0  0  0
  162.0990  209.9240  149.9730 O   0  0  0  0  0  0  0  0  0  0  0  0
  160.6980  211.6680  150.7570 C   0  0  2  0  0  3  0  0  0  0  0  0
  159.5830  210.8200  152.8590 C   0  0  2  0  0  3  0  0  0  0  0  0
  161.6400  210.5030  150.9440 C   0  0  0  0  0  0  0  0  0  0  0  0
  161.5040  211.2150  155.2530 C   0  0  0  0  0  2  0  0  0  0  0  0
  161.0660  208.8790  155.5770 C   0  0  0  0  0  0  0  0  0  0  0  0
  162.1050  210.9260  156.6270 C   0  0  1  0  0  3  0  0  0  0  0  0
  161.4530  209.3350  157.2480 S   0  0  0  0  0  0  0  0  0  0  0  0
  161.1560  209.9490  154.6390 N   0  0  0  0  0  0  0  0  0  0  0  0
  163.6140  210.8500  156.5160 C   0  0  0  0  0  1  0  0  0  0  0  0
  161.0210  207.3010  155.1350 S   0  0  0  0  0  0  0  0  0  0  0  0
  157.8600  210.2280  154.4030 O   0  0  0  0  0  0  0  0  0  0  0  0
  158.7310  212.3750  154.6770 N   0  0  0  0  0  2  0  0  0  0  0  0
  158.6640  211.1150  154.0100 C   0  0  0  0  0  0  0  0  0  0  0  0
  157.9080  212.6940  155.8300 C   0  0  0  0  0  2  0  0  0  0  0  0
  154.9530  212.2580  156.6060 F   0  0  0  0  0  0  0  0  0  0  0  0
  156.6510  213.3530  155.3730 C   0  0  0  0  0  0  0  0  0  0  0  0
  155.5040  213.5010  156.3480 C   0  0  1  0  0  3  0  0  0  0  0  0
  154.0950  214.1570  154.3830 C   0  0  0  0  0  2  0  0  0  0  0  0
  155.3380  214.4390  153.5440 C   0  0  0  0  0  2  0  0  0  0  0  0
  156.5470  213.7240  154.0860 C   0  0  0  0  0  3  0  0  0  0  0  0
  154.4110  214.4470  155.8430 C   0  0  0  0  0  2  0  0  0  0  0  0
  161.4350  212.8780  150.1900 C   0  0  0  0  0  2  0  0  0  0  0  0
  160.2620  212.6420  146.6520 C   0  0  0  0  0  0  0  0  0  0  0  0
  161.4420  212.8220  145.9250 C   0  0  0  0  0  3  0  0  0  0  0  0
  161.4510  212.8510  148.6990 C   0  0  0  0  0  0  0  0  0  0  0  0
  162.6420  213.0210  146.6100 C   0  0  0  0  0  3  0  0  0  0  0  0
  160.2910  212.6610  148.0120 N   0  0  0  0  0  0  0  0  0  0  0  0
  162.6510  213.0370  148.0050 C   0  0  0  0  0  3  0  0  0  0  0  0
  159.0320  212.4400  145.9700 N   0  0  0  0  0  1  0  0  0  0  0  0
  1  4  1  6  0  0  0
  1 13  1  0  0  0  0
  2  3  1  6  0  0  0
  2  7  1  0  0  0  0
  5  8  2  0  0  0  0
  6 27  1  1  0  0  0
  6  8  1  0  0  0  0
  6  2  1  0  0  0  0
  7  1  1  0  0  0  0
  7 18  1  1  0  0  0
  8  4  1  0  0  0  0
  9 11  1  0  0  0  0
 10 12  1  0  0  0  0
 11 14  1  6  0  0  0
 11 12  1  0  0  0  0
 13  9  1  0  0  0  0
 13 10  1  0  0  0  0
 15 10  2  0  0  0  0
 17 19  1  0  0  0  0
 18 16  2  0  0  0  0
 18 17  1  0  0  0  0
 21 19  1  0  0  0  0
 21 22  1  0  0  0  0
 22 20  1  6  0  0  0
 23 26  1  0  0  0  0
 24 25  1  0  0  0  0
 24 23  1  0  0  0  0
 25 21  2  0  0  0  0
 26 22  1  0  0  0  0
 28 32  1  0  0  0  0
 29 31  1  0  0  0  0
 29 28  2  0  0  0  0
 30 27  1  0  0  0  0
 31 33  2  0  0  0  0
 32 30  2  0  0  0  0
 33 30  1  0  0  0  0
 34 28  1  0  0  0  0
M  END
>  <MODEL>
9

>  <REMARK>
 VINA RESULT:      -2.9      3.600      4.938
  Name = 
  6 active torsions:
  status: ('A' for Active; 'I' for Inactive)
    1  A    between atoms: C_3  and  C_13
    2  A    between atoms: C_3  and  N_17
    3  A    between atoms: C_4  and  N_15
    4  A    between atoms: C_12  and  C_28
    5  A    between atoms: C_26  and  C_28
    6  A    between atoms: C_29  and  C_31
                            x       y       z     vdW  Elec       q    Type
                         _______ _______ _______ _____ _____    ______ ____

>  <TORSDO>
F 6

$$$$
