=
 OpenBabel11052423203D

 27 30  0  0  1  0  0  0  0  0999 V2000
  160.3350  205.3200  151.1370 C   0  0  0  0  0  2  0  0  0  0  0  0
  161.4170  205.9590  148.9430 N   0  0  0  0  0  0  0  0  0  0  0  0
  160.8200  208.1270  150.2410 C   0  0  0  0  0  2  0  0  0  0  0  0
  162.8520  207.9760  148.5580 C   0  0  1  0  0  3  0  0  0  0  0  0
  160.8070  208.9070  153.9290 C   0  0  0  0  0  2  0  0  0  0  0  0
  162.8440  209.4890  148.7010 C   0  0  0  0  0  1  0  0  0  0  0  0
  161.3240  207.9230  154.9840 C   0  0  0  0  0  2  0  0  0  0  0  0
  163.2880  207.3540  149.8770 C   0  0  0  0  0  2  0  0  0  0  0  0
  161.3530  204.9810  150.0450 C   0  0  2  0  0  3  0  0  0  0  0  0
  160.9710  206.3080  152.0990 C   0  0  2  0  0  3  0  0  0  0  0  0
  161.8340  207.2760  149.4520 C   0  0  2  0  0  0  0  0  0  0  0  0
  161.4760  208.7440  152.5720 C   0  0  0  0  0  2  0  0  0  0  0  0
  161.5810  206.4930  154.4960 C   0  0  0  0  0  2  0  0  0  0  0  0
  160.5270  205.9890  153.5200 C   0  0  0  0  0  2  0  0  0  0  0  0
  160.6660  207.7700  151.7270 C   0  0  1  0  0  3  0  0  0  0  0  0
  160.9850  201.2100  150.0580 C   0  0  0  0  0  3  0  0  0  0  0  0
  161.2510  203.5670  149.5530 C   0  0  0  0  0  0  0  0  0  0  0  0
  161.3860  203.2520  148.1930 C   0  0  0  0  0  3  0  0  0  0  0  0
  161.3150  201.9220  147.7680 C   0  0  0  0  0  3  0  0  0  0  0  0
  161.1140  200.9020  148.7010 C   0  0  0  0  0  3  0  0  0  0  0  0
  161.0560  202.5390  150.4830 C   0  0  0  0  0  3  0  0  0  0  0  0
  159.8360  206.0990  148.1220 S   0  0  0  0  0  0  0  0  0  0  0  0
  159.7440  205.7740  145.3690 C   0  0  0  0  0  1  0  0  0  0  0  0
  160.5300  206.4640  146.4710 C   0  0  2  0  0  3  0  0  0  0  0  0
  162.0060  206.1010  146.4050 C   0  0  0  0  0  2  0  0  0  0  0  0
  163.4910  204.2820  145.5670 C   0  0  0  0  0  1  0  0  0  0  0  0
  162.2960  205.1600  145.2470 C   0  0  0  0  0  2  0  0  0  0  0  0
  2 11  1  0  0  0  0
  2  9  1  0  0  0  0
  4  6  1  1  0  0  0
  4 11  1  0  0  0  0
  4  8  1  0  0  0  0
  5  7  1  0  0  0  0
  9 17  1  6  0  0  0
  9  1  1  0  0  0  0
 10  1  1  6  0  0  0
 10 14  1  0  0  0  0
 11  8  1  1  0  0  0
 11  3  1  0  0  0  0
 12  5  1  0  0  0  0
 13  7  1  0  0  0  0
 14 13  1  0  0  0  0
 15  3  1  6  0  0  0
 15 10  1  0  0  0  0
 15 12  1  0  0  0  0
 16 21  1  0  0  0  0
 17 21  2  0  0  0  0
 18 17  1  0  0  0  0
 19 18  2  0  0  0  0
 19 20  1  0  0  0  0
 20 16  2  0  0  0  0
 22  2  1  0  0  0  0
 24 23  1  6  0  0  0
 24 22  1  0  0  0  0
 25 24  1  0  0  0  0
 27 26  1  0  0  0  0
 27 25  1  0  0  0  0
M  END
>  <MODEL>
1

>  <REMARK>
 VINA RESULT:      -5.1      0.000      0.000
  Name = 
  5 active torsions:
  status: ('A' for Active; 'I' for Inactive)
    1  A    between atoms: N_2  and  S_6
    2  A    between atoms: S_6  and  C_21
    3  A    between atoms: C_9  and  C_15
    4  A    between atoms: C_16  and  C_17
    5  A    between atoms: C_17  and  C_21
                            x       y       z     vdW  Elec       q    Type
                         _______ _______ _______ _____ _____    ______ ____

>  <TORSDO>
F 5

$$$$
=
 OpenBabel11052423203D

 27 30  0  0  1  0  0  0  0  0999 V2000
  160.0240  209.8030  152.0770 C   0  0  0  0  0  2  0  0  0  0  0  0
  160.3250  211.4470  153.9740 N   0  0  0  0  0  0  0  0  0  0  0  0
  160.2480  209.0450  154.9560 C   0  0  0  0  0  2  0  0  0  0  0  0
  161.5970  211.0170  156.0890 C   0  0  1  0  0  3  0  0  0  0  0  0
  161.4870  205.7520  153.6040 C   0  0  0  0  0  2  0  0  0  0  0  0
  161.6730  210.0470  157.2570 C   0  0  0  0  0  1  0  0  0  0  0  0
  162.3040  205.6430  152.3130 C   0  0  0  0  0  2  0  0  0  0  0  0
  162.4340  210.4750  154.9380 C   0  0  0  0  0  2  0  0  0  0  0  0
  160.6100  211.1310  152.5610 C   0  0  2  0  0  3  0  0  0  0  0  0
  160.9690  208.6840  152.4800 C   0  0  2  0  0  3  0  0  0  0  0  0
  160.9200  210.4290  154.8550 C   0  0  2  0  0  0  0  0  0  0  0  0
  161.6600  207.0850  154.3180 C   0  0  0  0  0  2  0  0  0  0  0  0
  162.3490  206.9030  151.4420 C   0  0  0  0  0  2  0  0  0  0  0  0
  161.0180  207.6390  151.3740 C   0  0  0  0  0  2  0  0  0  0  0  0
  160.5920  208.0560  153.8330 C   0  0  1  0  0  3  0  0  0  0  0  0
  160.6170  213.3420  149.4840 C   0  0  0  0  0  3  0  0  0  0  0  0
  160.3160  212.2820  151.6450 C   0  0  0  0  0  0  0  0  0  0  0  0
  159.5530  213.3810  152.0690 C   0  0  0  0  0  3  0  0  0  0  0  0
  159.3200  214.4520  151.2010 C   0  0  0  0  0  3  0  0  0  0  0  0
  159.8520  214.4320  149.9090 C   0  0  0  0  0  3  0  0  0  0  0  0
  160.8510  212.2710  150.3520 C   0  0  0  0  0  3  0  0  0  0  0  0
  158.5650  211.5470  154.2630 S   0  0  0  0  0  0  0  0  0  0  0  0
  158.4520  212.3930  156.9020 C   0  0  0  0  0  1  0  0  0  0  0  0
  158.6660  212.9010  155.4860 C   0  0  2  0  0  3  0  0  0  0  0  0
  157.6910  214.0180  155.1480 C   0  0  0  0  0  2  0  0  0  0  0  0
  156.1780  214.4250  153.2070 C   0  0  0  0  0  1  0  0  0  0  0  0
  156.4980  213.4960  154.3630 C   0  0  0  0  0  2  0  0  0  0  0  0
  1 10  1  0  0  0  0
  1  9  1  0  0  0  0
  2 22  1  0  0  0  0
  2 11  1  0  0  0  0
  4  6  1  1  0  0  0
  5 12  1  0  0  0  0
  7  5  1  0  0  0  0
  8  4  1  0  0  0  0
  9 17  1  6  0  0  0
  9  2  1  0  0  0  0
 10 14  1  6  0  0  0
 10 15  1  0  0  0  0
 11  8  1  6  0  0  0
 11  3  1  0  0  0  0
 11  4  1  0  0  0  0
 13  7  1  0  0  0  0
 14 13  1  0  0  0  0
 15 12  1  1  0  0  0
 15  3  1  0  0  0  0
 16 20  2  0  0  0  0
 16 21  1  0  0  0  0
 17 18  1  0  0  0  0
 19 18  2  0  0  0  0
 20 19  1  0  0  0  0
 21 17  2  0  0  0  0
 22 24  1  0  0  0  0
 24 23  1  1  0  0  0
 25 24  1  0  0  0  0
 26 27  1  0  0  0  0
 27 25  1  0  0  0  0
M  END
>  <MODEL>
2

>  <REMARK>
 VINA RESULT:      -5.0      4.320      8.940
  Name = 
  5 active torsions:
  status: ('A' for Active; 'I' for Inactive)
    1  A    between atoms: N_2  and  S_6
    2  A    between atoms: S_6  and  C_21
    3  A    between atoms: C_9  and  C_15
    4  A    between atoms: C_16  and  C_17
    5  A    between atoms: C_17  and  C_21
                            x       y       z     vdW  Elec       q    Type
                         _______ _______ _______ _____ _____    ______ ____

>  <TORSDO>
F 5

$$$$
=
 OpenBabel11052423203D

 27 30  0  0  1  0  0  0  0  0999 V2000
  161.7330  210.4930  151.2980 C   0  0  0  0  0  2  0  0  0  0  0  0
  160.2900  210.1240  153.3400 N   0  0  0  0  0  0  0  0  0  0  0  0
  160.2770  212.6540  152.7550 C   0  0  0  0  0  2  0  0  0  0  0  0
  158.2470  211.4440  153.9410 C   0  0  1  0  0  3  0  0  0  0  0  0
  160.4010  214.4530  149.4450 C   0  0  0  0  0  2  0  0  0  0  0  0
  157.7780  212.8690  154.1810 C   0  0  0  0  0  1  0  0  0  0  0  0
  160.3380  213.7180  148.1020 C   0  0  0  0  0  2  0  0  0  0  0  0
  158.1700  211.1400  152.4510 C   0  0  0  0  0  2  0  0  0  0  0  0
  160.7780  209.5730  152.0620 C   0  0  2  0  0  3  0  0  0  0  0  0
  160.9090  211.4960  150.5100 C   0  0  2  0  0  3  0  0  0  0  0  0
  159.5210  211.3570  153.1060 C   0  0  2  0  0  0  0  0  0  0  0  0
  159.6900  213.7150  150.5710 C   0  0  0  0  0  2  0  0  0  0  0  0
  160.5130  212.1970  148.1630 C   0  0  0  0  0  2  0  0  0  0  0  0
  161.5710  211.7500  149.1620 C   0  0  0  0  0  2  0  0  0  0  0  0
  160.6840  212.8080  151.2830 C   0  0  1  0  0  3  0  0  0  0  0  0
  162.6930  206.3810  151.3580 C   0  0  0  0  0  3  0  0  0  0  0  0
  161.2840  208.1680  152.1980 C   0  0  0  0  0  0  0  0  0  0  0  0
  160.8090  207.3110  153.2020 C   0  0  0  0  0  3  0  0  0  0  0  0
  161.2790  205.9970  153.2860 C   0  0  0  0  0  3  0  0  0  0  0  0
  162.2210  205.5320  152.3640 C   0  0  0  0  0  3  0  0  0  0  0  0
  162.2230  207.6940  151.2740 C   0  0  0  0  0  3  0  0  0  0  0  0
  161.6500  210.4600  154.4500 S   0  0  0  0  0  0  0  0  0  0  0  0
  160.4430  210.8070  156.9230 C   0  0  0  0  0  1  0  0  0  0  0  0
  160.8520  209.7360  155.9260 C   0  0  2  0  0  3  0  0  0  0  0  0
  161.7470  208.6910  156.5750 C   0  0  0  0  0  2  0  0  0  0  0  0
  159.7410  207.2200  156.3990 C   0  0  0  0  0  1  0  0  0  0  0  0
  160.9310  207.6060  157.2580 C   0  0  0  0  0  2  0  0  0  0  0  0
  1  9  1  0  0  0  0
  2 22  1  0  0  0  0
  3 11  1  0  0  0  0
  4  6  1  6  0  0  0
  5 12  1  0  0  0  0
  7 13  1  0  0  0  0
  7  5  1  0  0  0  0
  8  4  1  0  0  0  0
  9 17  1  1  0  0  0
  9  2  1  0  0  0  0
 10 14  1  6  0  0  0
 10 15  1  0  0  0  0
 10  1  1  0  0  0  0
 11  8  1  6  0  0  0
 11  2  1  0  0  0  0
 11  4  1  0  0  0  0
 13 14  1  0  0  0  0
 15 12  1  6  0  0  0
 15  3  1  0  0  0  0
 16 20  1  0  0  0  0
 17 18  2  0  0  0  0
 18 19  1  0  0  0  0
 20 19  2  0  0  0  0
 21 16  2  0  0  0  0
 21 17  1  0  0  0  0
 22 24  1  0  0  0  0
 24 25  1  0  0  0  0
 24 23  1  1  0  0  0
 25 27  1  0  0  0  0
 26 27  1  0  0  0  0
M  END
>  <MODEL>
3

>  <REMARK>
 VINA RESULT:      -4.9      4.157      7.735
  Name = 
  5 active torsions:
  status: ('A' for Active; 'I' for Inactive)
    1  A    between atoms: N_2  and  S_6
    2  A    between atoms: S_6  and  C_21
    3  A    between atoms: C_9  and  C_15
    4  A    between atoms: C_16  and  C_17
    5  A    between atoms: C_17  and  C_21
                            x       y       z     vdW  Elec       q    Type
                         _______ _______ _______ _____ _____    ______ ____

>  <TORSDO>
F 5

$$$$
=
 OpenBabel11052423203D

 27 30  0  0  1  0  0  0  0  0999 V2000
  161.7320  204.9190  151.3490 C   0  0  0  0  0  2  0  0  0  0  0  0
  161.3580  207.0280  150.0060 N   0  0  0  0  0  0  0  0  0  0  0  0
  162.0720  205.1250  148.3900 C   0  0  0  0  0  2  0  0  0  0  0  0
  160.5090  207.1260  147.6500 C   0  0  1  0  0  3  0  0  0  0  0  0
  161.3750  201.4210  148.4290 C   0  0  0  0  0  2  0  0  0  0  0  0
  160.8010  206.5950  146.2560 C   0  0  0  0  0  1  0  0  0  0  0  0
  160.4290  200.7680  149.4420 C   0  0  0  0  0  2  0  0  0  0  0  0
  159.6540  206.1140  148.3990 C   0  0  0  0  0  2  0  0  0  0  0  0
  160.9530  206.2250  151.1750 C   0  0  2  0  0  3  0  0  0  0  0  0
  161.1080  203.8630  150.4530 C   0  0  2  0  0  3  0  0  0  0  0  0
  161.1170  206.2770  148.7630 C   0  0  2  0  0  0  0  0  0  0  0  0
  161.0280  202.8710  148.1250 C   0  0  0  0  0  2  0  0  0  0  0  0
  160.0010  201.6490  150.6210 C   0  0  0  0  0  2  0  0  0  0  0  0
  161.1260  202.5180  151.1670 C   0  0  0  0  0  2  0  0  0  0  0  0
  161.7910  203.7810  149.0770 C   0  0  1  0  0  3  0  0  0  0  0  0
  161.1140  207.1700  154.8410 C   0  0  0  0  0  3  0  0  0  0  0  0
  160.8700  207.0410  152.4310 C   0  0  0  0  0  0  0  0  0  0  0  0
  160.4260  208.3720  152.4130 C   0  0  0  0  0  3  0  0  0  0  0  0
  160.3320  209.0980  153.6040 C   0  0  0  0  0  3  0  0  0  0  0  0
  160.6760  208.4970  154.8170 C   0  0  0  0  0  3  0  0  0  0  0  0
  161.2070  206.4430  153.6510 C   0  0  0  0  0  3  0  0  0  0  0  0
  163.0810  207.4880  150.1130 S   0  0  0  0  0  0  0  0  0  0  0  0
  162.1840  209.9290  151.0750 C   0  0  0  0  0  1  0  0  0  0  0  0
  162.8000  209.2750  149.8510 C   0  0  2  0  0  3  0  0  0  0  0  0
  161.9550  209.5200  148.6100 C   0  0  0  0  0  2  0  0  0  0  0  0
  162.8030  211.8040  148.0790 C   0  0  0  0  0  1  0  0  0  0  0  0
  161.5860  210.9870  148.4700 C   0  0  0  0  0  2  0  0  0  0  0  0
  2 22  1  0  0  0  0
  2  9  1  0  0  0  0
  3 15  1  0  0  0  0
  4  6  1  6  0  0  0
  4  8  1  0  0  0  0
  4 11  1  0  0  0  0
  5  7  1  0  0  0  0
  7 13  1  0  0  0  0
  8 11  1  0  0  0  0
  9  1  1  0  0  0  0
  9 17  1  1  0  0  0
 10 14  1  1  0  0  0
 10  1  1  0  0  0  0
 11  3  1  6  0  0  0
 11  2  1  0  0  0  0
 12  5  1  0  0  0  0
 13 14  1  0  0  0  0
 15 12  1  6  0  0  0
 15 10  1  0  0  0  0
 17 21  1  0  0  0  0
 18 17  2  0  0  0  0
 18 19  1  0  0  0  0
 19 20  2  0  0  0  0
 20 16  1  0  0  0  0
 21 16  2  0  0  0  0
 24 22  1  0  0  0  0
 24 23  1  1  0  0  0
 25 24  1  0  0  0  0
 26 27  1  0  0  0  0
 27 25  1  0  0  0  0
M  END
>  <MODEL>
4

>  <REMARK>
 VINA RESULT:      -4.0      1.549      5.881
  Name = 
  5 active torsions:
  status: ('A' for Active; 'I' for Inactive)
    1  A    between atoms: N_2  and  S_6
    2  A    between atoms: S_6  and  C_21
    3  A    between atoms: C_9  and  C_15
    4  A    between atoms: C_16  and  C_17
    5  A    between atoms: C_17  and  C_21
                            x       y       z     vdW  Elec       q    Type
                         _______ _______ _______ _____ _____    ______ ____

>  <TORSDO>
F 5

$$$$
=
 OpenBabel11052423203D

 27 30  0  0  1  0  0  0  0  0999 V2000
  161.5780  210.8460  151.4160 C   0  0  0  0  0  2  0  0  0  0  0  0
  159.7640  211.0530  153.1640 N   0  0  0  0  0  0  0  0  0  0  0  0
  160.1690  213.3870  152.1030 C   0  0  0  0  0  2  0  0  0  0  0  0
  157.8280  212.6400  153.0770 C   0  0  1  0  0  3  0  0  0  0  0  0
  161.0950  214.4090  148.5950 C   0  0  0  0  0  2  0  0  0  0  0  0
  157.5050  214.1180  152.9350 C   0  0  0  0  0  1  0  0  0  0  0  0
  161.1790  213.4090  147.4370 C   0  0  0  0  0  2  0  0  0  0  0  0
  157.9760  212.0280  151.6910 C   0  0  0  0  0  2  0  0  0  0  0  0
  160.3960  210.1990  152.1410 C   0  0  2  0  0  3  0  0  0  0  0  0
  161.0360  211.7210  150.2990 C   0  0  2  0  0  3  0  0  0  0  0  0
  159.2070  212.2660  152.5450 C   0  0  2  0  0  0  0  0  0  0  0  0
  160.1120  213.9960  149.6800 C   0  0  0  0  0  2  0  0  0  0  0  0
  161.1490  211.9280  147.8290 C   0  0  0  0  0  2  0  0  0  0  0  0
  161.9510  211.6190  149.0860 C   0  0  0  0  0  2  0  0  0  0  0  0
  160.8440  213.1830  150.7390 C   0  0  1  0  0  3  0  0  0  0  0  0
  161.3430  206.5300  152.1740 C   0  0  0  0  0  3  0  0  0  0  0  0
  160.6910  208.8180  152.6480 C   0  0  0  0  0  0  0  0  0  0  0  0
  160.5420  208.4860  154.0030 C   0  0  0  0  0  3  0  0  0  0  0  0
  160.7970  207.1830  154.4410 C   0  0  0  0  0  3  0  0  0  0  0  0
  161.1980  206.2060  153.5260 C   0  0  0  0  0  3  0  0  0  0  0  0
  161.0870  207.8320  151.7360 C   0  0  0  0  0  3  0  0  0  0  0  0
  160.9390  211.5040  154.4330 S   0  0  0  0  0  0  0  0  0  0  0  0
  160.3390  212.7860  156.8180 C   0  0  0  0  0  1  0  0  0  0  0  0
  159.6900  212.1260  155.6130 C   0  0  2  0  0  3  0  0  0  0  0  0
  158.7380  211.0190  156.0370 C   0  0  0  0  0  2  0  0  0  0  0  0
  156.2530  211.1540  155.8740 C   0  0  0  0  0  1  0  0  0  0  0  0
  157.4740  211.5820  156.6660 C   0  0  0  0  0  2  0  0  0  0  0  0
  1  9  1  0  0  0  0
  2 22  1  0  0  0  0
  3 11  1  0  0  0  0
  4  6  1  6  0  0  0
  5 12  1  0  0  0  0
  7 13  1  0  0  0  0
  7  5  1  0  0  0  0
  8  4  1  0  0  0  0
  9 17  1  1  0  0  0
  9  2  1  0  0  0  0
 10 14  1  6  0  0  0
 10 15  1  0  0  0  0
 10  1  1  0  0  0  0
 11  8  1  6  0  0  0
 11  4  1  0  0  0  0
 11  2  1  0  0  0  0
 13 14  1  0  0  0  0
 15 12  1  6  0  0  0
 15  3  1  0  0  0  0
 16 20  1  0  0  0  0
 17 18  2  0  0  0  0
 18 19  1  0  0  0  0
 20 19  2  0  0  0  0
 21 16  2  0  0  0  0
 21 17  1  0  0  0  0
 22 24  1  0  0  0  0
 24 25  1  0  0  0  0
 24 23  1  1  0  0  0
 25 27  1  0  0  0  0
 26 27  1  0  0  0  0
M  END
>  <MODEL>
5

>  <REMARK>
 VINA RESULT:      -3.7      4.544      8.451
  Name = 
  5 active torsions:
  status: ('A' for Active; 'I' for Inactive)
    1  A    between atoms: N_2  and  S_6
    2  A    between atoms: S_6  and  C_21
    3  A    between atoms: C_9  and  C_15
    4  A    between atoms: C_16  and  C_17
    5  A    between atoms: C_17  and  C_21
                            x       y       z     vdW  Elec       q    Type
                         _______ _______ _______ _____ _____    ______ ____

>  <TORSDO>
F 5

$$$$
=
 OpenBabel11052423203D

 27 30  0  0  1  0  0  0  0  0999 V2000
  161.6270  210.5240  151.6120 C   0  0  0  0  0  2  0  0  0  0  0  0
  159.8810  210.5220  153.4400 N   0  0  0  0  0  0  0  0  0  0  0  0
  160.1620  212.9480  152.5580 C   0  0  0  0  0  2  0  0  0  0  0  0
  157.8900  212.0380  153.5580 C   0  0  1  0  0  3  0  0  0  0  0  0
  160.9080  214.2820  149.1130 C   0  0  0  0  0  2  0  0  0  0  0  0
  157.5110  213.5100  153.5500 C   0  0  0  0  0  1  0  0  0  0  0  0
  160.9770  213.3820  147.8750 C   0  0  0  0  0  2  0  0  0  0  0  0
  158.0020  211.5450  152.1220 C   0  0  0  0  0  2  0  0  0  0  0  0
  160.4990  209.7770  152.3280 C   0  0  2  0  0  3  0  0  0  0  0  0
  161.0110  211.4660  150.5920 C   0  0  2  0  0  3  0  0  0  0  0  0
  159.2590  211.7590  152.9440 C   0  0  2  0  0  0  0  0  0  0  0  0
  159.9850  213.7470  150.1980 C   0  0  0  0  0  2  0  0  0  0  0  0
  161.0140  211.8740  148.1460 C   0  0  0  0  0  2  0  0  0  0  0  0
  161.8780  211.4950  149.3410 C   0  0  0  0  0  2  0  0  0  0  0  0
  160.7880  212.8790  151.1580 C   0  0  1  0  0  3  0  0  0  0  0  0
  161.5090  206.1380  152.0200 C   0  0  0  0  0  3  0  0  0  0  0  0
  160.8620  208.3720  152.7090 C   0  0  0  0  0  0  0  0  0  0  0  0
  160.8380  207.9440  154.0440 C   0  0  0  0  0  3  0  0  0  0  0  0
  161.1540  206.6210  154.3650 C   0  0  0  0  0  3  0  0  0  0  0  0
  161.4890  205.7180  153.3530 C   0  0  0  0  0  3  0  0  0  0  0  0
  161.1930  207.4610  151.6980 C   0  0  0  0  0  3  0  0  0  0  0  0
  161.0910  210.9130  154.6960 S   0  0  0  0  0  0  0  0  0  0  0  0
  158.6900  209.9410  155.6860 C   0  0  0  0  0  1  0  0  0  0  0  0
  159.9660  210.6480  156.1110 C   0  0  2  0  0  3  0  0  0  0  0  0
  159.6600  211.9580  156.8200 C   0  0  0  0  0  2  0  0  0  0  0  0
  159.8590  214.4430  156.7590 C   0  0  0  0  0  1  0  0  0  0  0  0
  160.2040  213.1490  156.0480 C   0  0  0  0  0  2  0  0  0  0  0  0
  1  9  1  0  0  0  0
  2 22  1  0  0  0  0
  3 11  1  0  0  0  0
  4  6  1  6  0  0  0
  5 12  1  0  0  0  0
  7 13  1  0  0  0  0
  7  5  1  0  0  0  0
  8  4  1  0  0  0  0
  9 17  1  1  0  0  0
  9  2  1  0  0  0  0
 10 14  1  6  0  0  0
 10 15  1  0  0  0  0
 10  1  1  0  0  0  0
 11  8  1  6  0  0  0
 11  2  1  0  0  0  0
 11  4  1  0  0  0  0
 13 14  1  0  0  0  0
 15 12  1  6  0  0  0
 15  3  1  0  0  0  0
 16 20  1  0  0  0  0
 17 18  2  0  0  0  0
 18 19  1  0  0  0  0
 20 19  2  0  0  0  0
 21 16  2  0  0  0  0
 21 17  1  0  0  0  0
 22 24  1  0  0  0  0
 24 23  1  6  0  0  0
 24 25  1  0  0  0  0
 27 26  1  0  0  0  0
 27 25  1  0  0  0  0
M  END
>  <MODEL>
6

>  <REMARK>
 VINA RESULT:      -3.4      4.359      8.226
  Name = 
  5 active torsions:
  status: ('A' for Active; 'I' for Inactive)
    1  A    between atoms: N_2  and  S_6
    2  A    between atoms: S_6  and  C_21
    3  A    between atoms: C_9  and  C_15
    4  A    between atoms: C_16  and  C_17
    5  A    between atoms: C_17  and  C_21
                            x       y       z     vdW  Elec       q    Type
                         _______ _______ _______ _____ _____    ______ ____

>  <TORSDO>
F 5

$$$$
=
 OpenBabel11052423203D

 27 30  0  0  1  0  0  0  0  0999 V2000
  160.9940  209.4290  150.2180 C   0  0  0  0  0  2  0  0  0  0  0  0
  161.1430  211.3190  151.8900 N   0  0  0  0  0  0  0  0  0  0  0  0
  160.3610  209.1740  153.1240 C   0  0  0  0  0  2  0  0  0  0  0  0
  161.7540  211.0830  154.3080 C   0  0  1  0  0  3  0  0  0  0  0  0
  161.2210  205.5400  152.6070 C   0  0  0  0  0  2  0  0  0  0  0  0
  161.3530  210.3380  155.5710 C   0  0  0  0  0  1  0  0  0  0  0  0
  162.2890  205.0770  151.6110 C   0  0  0  0  0  2  0  0  0  0  0  0
  162.7220  210.2220  153.5090 C   0  0  0  0  0  2  0  0  0  0  0  0
  161.6940  210.7160  150.6620 C   0  0  2  0  0  3  0  0  0  0  0  0
  161.5750  208.2680  151.0060 C   0  0  2  0  0  3  0  0  0  0  0  0
  161.2950  210.3960  153.0260 C   0  0  2  0  0  0  0  0  0  0  0  0
  161.4730  206.9370  153.1580 C   0  0  0  0  0  2  0  0  0  0  0  0
  162.7890  206.1380  150.6260 C   0  0  0  0  0  2  0  0  0  0  0  0
  161.6850  207.0470  150.1030 C   0  0  0  0  0  2  0  0  0  0  0  0
  160.7650  207.9580  152.2780 C   0  0  1  0  0  3  0  0  0  0  0  0
  161.0490  213.6880  148.4030 C   0  0  0  0  0  3  0  0  0  0  0  0
  161.8620  211.7160  149.5560 C   0  0  0  0  0  0  0  0  0  0  0  0
  162.9010  211.6060  148.6190 C   0  0  0  0  0  3  0  0  0  0  0  0
  163.0140  212.5370  147.5830 C   0  0  0  0  0  3  0  0  0  0  0  0
  162.0890  213.5780  147.4750 C   0  0  0  0  0  3  0  0  0  0  0  0
  160.9340  212.7570  149.4390 C   0  0  0  0  0  3  0  0  0  0  0  0
  159.4190  211.7400  151.6760 S   0  0  0  0  0  0  0  0  0  0  0  0
  158.8160  213.0940  154.0200 C   0  0  0  0  0  1  0  0  0  0  0  0
  159.4900  213.2710  152.6700 C   0  0  2  0  0  3  0  0  0  0  0  0
  158.8970  214.4470  151.9080 C   0  0  0  0  0  2  0  0  0  0  0  0
  156.4490  214.4360  151.4300 C   0  0  0  0  0  1  0  0  0  0  0  0
  157.8150  213.9930  150.9410 C   0  0  0  0  0  2  0  0  0  0  0  0
  1  9  1  0  0  0  0
  1 10  1  0  0  0  0
  2 11  1  0  0  0  0
  4  6  1  1  0  0  0
  5 12  1  0  0  0  0
  7  5  1  0  0  0  0
  8  4  1  0  0  0  0
  9 17  1  6  0  0  0
  9  2  1  0  0  0  0
 10 14  1  6  0  0  0
 10 15  1  0  0  0  0
 11  3  1  1  0  0  0
 11  8  1  0  0  0  0
 11  4  1  0  0  0  0
 13  7  1  0  0  0  0
 14 13  1  0  0  0  0
 15  3  1  1  0  0  0
 15 12  1  0  0  0  0
 16 21  1  0  0  0  0
 18 17  1  0  0  0  0
 19 18  2  0  0  0  0
 20 19  1  0  0  0  0
 20 16  2  0  0  0  0
 21 17  2  0  0  0  0
 22  2  1  0  0  0  0
 22 24  1  0  0  0  0
 24 23  1  1  0  0  0
 25 24  1  0  0  0  0
 27 26  1  0  0  0  0
 27 25  1  0  0  0  0
M  END
>  <MODEL>
7

>  <REMARK>
 VINA RESULT:      -2.7      3.743      7.887
  Name = 
  5 active torsions:
  status: ('A' for Active; 'I' for Inactive)
    1  A    between atoms: N_2  and  S_6
    2  A    between atoms: S_6  and  C_21
    3  A    between atoms: C_9  and  C_15
    4  A    between atoms: C_16  and  C_17
    5  A    between atoms: C_17  and  C_21
                            x       y       z     vdW  Elec       q    Type
                         _______ _______ _______ _____ _____    ______ ____

>  <TORSDO>
F 5

$$$$
=
 OpenBabel11052423203D

 27 30  0  0  1  0  0  0  0  0999 V2000
  161.1910  211.1690  140.3100 C   0  0  0  0  0  2  0  0  0  0  0  0
  158.9140  212.1670  139.8530 N   0  0  0  0  0  0  0  0  0  0  0  0
  159.6770  210.8380  137.7580 C   0  0  0  0  0  2  0  0  0  0  0  0
  157.1350  211.1460  138.4140 C   0  0  1  0  0  3  0  0  0  0  0  0
  161.7020  207.6790  137.4050 C   0  0  0  0  0  2  0  0  0  0  0  0
  156.9000  210.6110  137.0110 C   0  0  0  0  0  1  0  0  0  0  0  0
  162.1380  206.8370  138.6090 C   0  0  0  0  0  2  0  0  0  0  0  0
  157.7130  210.0350  139.2800 C   0  0  0  0  0  2  0  0  0  0  0  0
  159.8270  211.5960  140.8600 C   0  0  2  0  0  3  0  0  0  0  0  0
  161.0530  209.7840  139.7020 C   0  0  2  0  0  3  0  0  0  0  0  0
  158.6060  211.1690  138.8160 C   0  0  2  0  0  0  0  0  0  0  0  0
  160.4140  208.4540  137.6440 C   0  0  0  0  0  2  0  0  0  0  0  0
  161.9590  207.4920  139.9830 C   0  0  0  0  0  2  0  0  0  0  0  0
  162.3080  208.9740  139.9960 C   0  0  0  0  0  2  0  0  0  0  0  0
  160.7530  209.8330  138.1930 C   0  0  1  0  0  3  0  0  0  0  0  0
  161.0740  212.9710  144.1630 C   0  0  0  0  0  3  0  0  0  0  0  0
  159.9210  212.4410  142.0960 C   0  0  0  0  0  0  0  0  0  0  0  0
  158.9570  213.4160  142.3930 C   0  0  0  0  0  3  0  0  0  0  0  0
  159.0550  214.1670  143.5680 C   0  0  0  0  0  3  0  0  0  0  0  0
  160.1140  213.9450  144.4520 C   0  0  0  0  0  3  0  0  0  0  0  0
  160.9750  212.2180  142.9890 C   0  0  0  0  0  3  0  0  0  0  0  0
  159.6240  213.6250  139.1010 S   0  0  0  0  0  0  0  0  0  0  0  0
  161.9560  214.3080  140.4370 C   0  0  0  0  0  1  0  0  0  0  0  0
  161.3500  213.2310  139.5540 C   0  0  2  0  0  3  0  0  0  0  0  0
  162.1990  212.9890  138.3160 C   0  0  0  0  0  2  0  0  0  0  0  0
  164.3770  211.9160  138.8860 C   0  0  0  0  0  1  0  0  0  0  0  0
  163.6740  213.2290  138.5980 C   0  0  0  0  0  2  0  0  0  0  0  0
  1  9  1  0  0  0  0
  2  9  1  0  0  0  0
  3 15  1  0  0  0  0
  4  6  1  6  0  0  0
  4 11  1  0  0  0  0
  4  8  1  0  0  0  0
  5 12  1  0  0  0  0
  5  7  1  0  0  0  0
  7 13  1  0  0  0  0
  9 17  1  1  0  0  0
 10 14  1  6  0  0  0
 10  1  1  0  0  0  0
 11  3  1  6  0  0  0
 11  8  1  0  0  0  0
 11  2  1  0  0  0  0
 13 14  1  0  0  0  0
 15 12  1  1  0  0  0
 15 10  1  0  0  0  0
 16 20  1  0  0  0  0
 17 18  2  0  0  0  0
 17 21  1  0  0  0  0
 18 19  1  0  0  0  0
 19 20  2  0  0  0  0
 21 16  2  0  0  0  0
 22 24  1  0  0  0  0
 22  2  1  0  0  0  0
 24 23  1  6  0  0  0
 25 27  1  0  0  0  0
 25 24  1  0  0  0  0
 27 26  1  0  0  0  0
M  END
>  <MODEL>
8

>  <REMARK>
 VINA RESULT:      -2.2      9.529     12.675
  Name = 
  5 active torsions:
  status: ('A' for Active; 'I' for Inactive)
    1  A    between atoms: N_2  and  S_6
    2  A    between atoms: S_6  and  C_21
    3  A    between atoms: C_9  and  C_15
    4  A    between atoms: C_16  and  C_17
    5  A    between atoms: C_17  and  C_21
                            x       y       z     vdW  Elec       q    Type
                         _______ _______ _______ _____ _____    ______ ____

>  <TORSDO>
F 5

$$$$
