=
 OpenBabel11062410063D

 43 46  0  0  1  0  0  0  0  0999 V2000
  161.4070  208.8840  150.2310 C   0  0  1  0  0  3  0  0  0  0  0  0
  163.0920  205.9420  148.5140 C   0  0  0  0  0  3  0  0  0  0  0  0
  162.3520  205.8330  147.3330 C   0  0  0  0  0  0  0  0  0  0  0  0
  160.4290  206.6180  145.8680 C   0  0  0  0  0  2  0  0  0  0  0  0
  162.7790  206.9200  149.4600 C   0  0  0  0  0  0  0  0  0  0  0  0
  162.7840  204.8200  146.3090 C   0  0  0  0  0  2  0  0  0  0  0  0
  160.9770  207.7010  148.0430 C   0  0  0  0  0  3  0  0  0  0  0  0
  163.5270  207.0010  150.6290 O   0  0  0  0  0  1  0  0  0  0  0  0
  161.7230  204.5440  145.2380 C   0  0  2  0  0  3  0  0  0  0  0  0
  161.7240  207.8160  149.2230 C   0  0  0  0  0  0  0  0  0  0  0  0
  161.1170  205.8540  144.7370 C   0  0  0  0  0  2  0  0  0  0  0  0
  161.2940  206.7340  147.0880 C   0  0  0  0  0  0  0  0  0  0  0  0
  160.6450  203.5910  145.7420 C   0  0  0  0  0  2  0  0  0  0  0  0
  161.2660  202.4710  146.5540 C   0  0  0  0  0  2  0  0  0  0  0  0
  160.4590  202.2600  147.8190 C   0  0  0  0  0  2  0  0  0  0  0  0
  161.2410  200.9810  148.8420 S   0  0  0  0  0  0  0  0  0  0  0  0
  160.8970  201.8760  150.3830 C   0  0  0  0  0  2  0  0  0  0  0  0
  160.8130  203.3600  150.0970 C   0  0  0  0  0  1  0  0  0  0  0  0
  160.8740  208.3030  151.5130 C   0  0  0  0  0  0  0  0  0  0  0  0
  159.9600  207.4900  151.4950 O   0  0  0  0  0  0  0  0  0  0  0  0
  161.4110  208.8130  152.8200 C   0  0  1  0  0  3  0  0  0  0  0  0
  159.1240  212.2440  154.0800 C   0  0  0  0  0  0  0  0  0  0  0  0
  161.0970  210.8520  154.2870 C   0  0  0  0  0  0  0  0  0  0  0  0
  158.6240  211.3950  153.0900 C   0  0  0  0  0  3  0  0  0  0  0  0
  158.2030  213.6480  154.5730 Cl  0  0  0  0  0  0  0  0  0  0  0  0
  160.6010  209.9950  153.2880 C   0  0  0  0  0  0  0  0  0  0  0  0
  160.3560  211.9710  154.6770 C   0  0  0  0  0  3  0  0  0  0  0  0
  159.3600  210.2770  152.6930 C   0  0  0  0  0  3  0  0  0  0  0  0
  162.6390  210.5540  155.0740 Cl  0  0  0  0  0  0  0  0  0  0  0  0
  161.5650  207.7100  153.8870 C   0  0  0  0  0  3  0  0  0  0  0  0
  160.2540  207.4400  154.6190 C   0  0  0  0  0  2  0  0  0  0  0  0
  160.4350  207.6500  156.1100 C   0  0  0  0  0  1  0  0  0  0  0  0
  161.1300  205.2510  153.4190 C   0  0  0  0  0  1  0  0  0  0  0  0
  162.1160  206.4040  153.3060 C   0  0  0  0  0  2  0  0  0  0  0  0
  162.5950  209.8200  150.4440 C   0  0  0  0  0  2  0  0  0  0  0  0
  162.4260  212.4880  147.6820 C   0  0  0  0  0  2  0  0  0  0  0  0
  161.0070  213.0170  147.9190 C   0  0  1  0  0  0  0  0  0  0  0  0
  160.9490  214.3250  147.4800 F   0  0  0  0  0  0  0  0  0  0  0  0
  160.8910  211.6100  150.0260 C   0  0  0  0  0  2  0  0  0  0  0  0
  162.6400  211.1150  148.3200 C   0  0  0  0  0  2  0  0  0  0  0  0
  162.3410  211.1810  149.8120 C   0  0  2  0  0  3  0  0  0  0  0  0
  159.9990  212.2020  147.1260 C   0  0  0  0  0  1  0  0  0  0  0  0
  160.6600  212.9900  149.4120 C   0  0  0  0  0  2  0  0  0  0  0  0
  1 35  1  1  0  0  0
  1 19  1  0  0  0  0
  2  5  1  0  0  0  0
  3  2  2  0  0  0  0
  4 12  1  0  0  0  0
  5  8  1  0  0  0  0
  6  3  1  0  0  0  0
  7 10  1  0  0  0  0
  9 13  1  1  0  0  0
  9  6  1  0  0  0  0
 10  5  2  0  0  0  0
 10  1  1  0  0  0  0
 11  9  1  0  0  0  0
 11  4  1  0  0  0  0
 12  3  1  0  0  0  0
 12  7  2  0  0  0  0
 13 14  1  0  0  0  0
 14 15  1  0  0  0  0
 15 16  1  0  0  0  0
 16 17  1  0  0  0  0
 18 17  1  0  0  0  0
 20 19  2  0  0  0  0
 21 19  1  6  0  0  0
 21 26  1  0  0  0  0
 21 30  1  0  0  0  0
 22 25  1  0  0  0  0
 22 27  1  0  0  0  0
 23 27  2  0  0  0  0
 23 29  1  0  0  0  0
 24 22  2  0  0  0  0
 26 23  1  0  0  0  0
 28 24  1  0  0  0  0
 28 26  2  0  0  0  0
 30 31  1  0  0  0  0
 31 32  1  0  0  0  0
 34 33  1  0  0  0  0
 34 30  1  0  0  0  0
 36 37  1  0  0  0  0
 36 40  1  0  0  0  0
 37 42  1  6  0  0  0
 37 43  1  0  0  0  0
 38 37  1  0  0  0  0
 40 41  1  0  0  0  0
 41 39  1  0  0  0  0
 41 35  1  6  0  0  0
 43 39  1  0  0  0  0
M  END
>  <MODEL>
1

>  <REMARK>
 VINA RESULT:      -3.8      0.000      0.000
  Name = 
  14 active torsions:
  status: ('A' for Active; 'I' for Inactive)
    1  A    between atoms: C_1  and  C_34
    2  A    between atoms: C_1  and  C_35
    3  A    between atoms: C_2  and  C_27
    4  A    between atoms: C_8  and  C_30
    5  A    between atoms: C_8  and  C_34
    6  A    between atoms: C_11  and  C_22
    7  A    between atoms: C_11  and  C_36
    8  A    between atoms: C_13  and  C_27
    9  A    between atoms: C_21  and  C_30
   10  A    between atoms: C_26  and  S_31
   11  A    between atoms: C_27  and  C_30
   12  A    between atoms: C_29  and  S_31
   13  A    between atoms: C_29  and  C_36
   14  A    between atoms: C_34  and  C_38
                            x       y       z     vdW  Elec       q    Type
                         _______ _______ _______ _____ _____    ______ ____

>  <TORSDO>
F 14

$$$$
=
 OpenBabel11062410063D

 43 46  0  0  1  0  0  0  0  0999 V2000
  161.4220  210.6940  152.1500 C   0  0  1  0  0  3  0  0  0  0  0  0
  161.9440  209.5310  148.5700 C   0  0  0  0  0  3  0  0  0  0  0  0
  161.6240  208.1730  148.6570 C   0  0  0  0  0  0  0  0  0  0  0  0
  160.9350  206.1660  150.0560 C   0  0  0  0  0  2  0  0  0  0  0  0
  161.8930  210.3460  149.7020 C   0  0  0  0  0  0  0  0  0  0  0  0
  161.6110  207.3590  147.3920 C   0  0  0  0  0  2  0  0  0  0  0  0
  161.1880  208.4450  151.0280 C   0  0  0  0  0  3  0  0  0  0  0  0
  162.2230  211.6920  149.5880 O   0  0  0  0  0  1  0  0  0  0  0  0
  161.5960  205.8470  147.6400 C   0  0  2  0  0  3  0  0  0  0  0  0
  161.5020  209.8090  150.9390 C   0  0  0  0  0  0  0  0  0  0  0  0
  160.5840  205.4940  148.7290 C   0  0  0  0  0  2  0  0  0  0  0  0
  161.2250  207.6290  149.8960 C   0  0  0  0  0  0  0  0  0  0  0  0
  162.9840  205.3150  147.9820 C   0  0  0  0  0  2  0  0  0  0  0  0
  163.5460  204.5210  146.8190 C   0  0  0  0  0  2  0  0  0  0  0  0
  162.6690  204.7230  145.6000 C   0  0  0  0  0  2  0  0  0  0  0  0
  161.4390  203.3920  145.4980 S   0  0  0  0  0  0  0  0  0  0  0  0
  160.3290  204.3770  144.4530 C   0  0  0  0  0  2  0  0  0  0  0  0
  161.0960  205.5330  143.8510 C   0  0  0  0  0  1  0  0  0  0  0  0
  160.0300  211.2220  152.3670 C   0  0  0  0  0  0  0  0  0  0  0  0
  159.0810  210.4550  152.4600 O   0  0  0  0  0  0  0  0  0  0  0  0
  159.8080  212.7080  152.3650 C   0  0  1  0  0  3  0  0  0  0  0  0
  157.6840  213.7920  148.7730 C   0  0  0  0  0  0  0  0  0  0  0  0
  159.6900  213.8870  150.1270 C   0  0  0  0  0  0  0  0  0  0  0  0
  157.0500  213.0320  149.7580 C   0  0  0  0  0  3  0  0  0  0  0  0
  156.8260  214.2120  147.3060 Cl  0  0  0  0  0  0  0  0  0  0  0  0
  159.0590  213.1180  151.1230 C   0  0  0  0  0  0  0  0  0  0  0  0
  159.0000  214.2190  148.9590 C   0  0  0  0  0  3  0  0  0  0  0  0
  157.7340  212.6940  150.9270 C   0  0  0  0  0  3  0  0  0  0  0  0
  161.3430  214.4530  150.3120 Cl  0  0  0  0  0  0  0  0  0  0  0  0
  159.1710  213.2300  153.6690 C   0  0  0  0  0  3  0  0  0  0  0  0
  157.7060  212.8220  153.7890 C   0  0  0  0  0  2  0  0  0  0  0  0
  156.8230  214.0550  153.8350 C   0  0  0  0  0  1  0  0  0  0  0  0
  159.6750  213.6810  156.1180 C   0  0  0  0  0  1  0  0  0  0  0  0
  159.9400  212.7850  154.9170 C   0  0  0  0  0  2  0  0  0  0  0  0
  162.0030  210.0050  153.3830 C   0  0  0  0  0  2  0  0  0  0  0  0
  160.4170  206.8280  154.8530 C   0  0  0  0  0  2  0  0  0  0  0  0
  159.9900  207.3640  156.2250 C   0  0  1  0  0  0  0  0  0  0  0  0
  158.9100  206.6230  156.6660 F   0  0  0  0  0  0  0  0  0  0  0  0
  160.6340  209.6930  155.4580 C   0  0  0  0  0  2  0  0  0  0  0  0
  161.4770  207.7150  154.1970 C   0  0  0  0  0  2  0  0  0  0  0  0
  160.9580  209.1410  154.0720 C   0  0  2  0  0  3  0  0  0  0  0  0
  161.1180  207.2070  157.2300 C   0  0  0  0  0  1  0  0  0  0  0  0
  159.5630  208.8320  156.1260 C   0  0  0  0  0  2  0  0  0  0  0  0
  1 19  1  0  0  0  0
  1 35  1  1  0  0  0
  2  3  2  0  0  0  0
  2  5  1  0  0  0  0
  3 12  1  0  0  0  0
  5 10  2  0  0  0  0
  6  9  1  0  0  0  0
  6  3  1  0  0  0  0
  8  5  1  0  0  0  0
  9 13  1  1  0  0  0
  9 11  1  0  0  0  0
 10  7  1  0  0  0  0
 10  1  1  0  0  0  0
 11  4  1  0  0  0  0
 12  4  1  0  0  0  0
 12  7  2  0  0  0  0
 14 13  1  0  0  0  0
 15 14  1  0  0  0  0
 16 15  1  0  0  0  0
 17 16  1  0  0  0  0
 18 17  1  0  0  0  0
 19 20  2  0  0  0  0
 21 19  1  1  0  0  0
 21 30  1  0  0  0  0
 22 27  2  0  0  0  0
 22 24  1  0  0  0  0
 23 29  1  0  0  0  0
 23 26  2  0  0  0  0
 24 28  2  0  0  0  0
 25 22  1  0  0  0  0
 26 21  1  0  0  0  0
 27 23  1  0  0  0  0
 28 26  1  0  0  0  0
 30 31  1  0  0  0  0
 30 34  1  0  0  0  0
 31 32  1  0  0  0  0
 34 33  1  0  0  0  0
 36 37  1  0  0  0  0
 37 38  1  0  0  0  0
 37 42  1  1  0  0  0
 39 43  1  0  0  0  0
 40 36  1  0  0  0  0
 41 35  1  1  0  0  0
 41 40  1  0  0  0  0
 41 39  1  0  0  0  0
 43 37  1  0  0  0  0
M  END
>  <MODEL>
2

>  <REMARK>
 VINA RESULT:      -3.8      2.996      5.838
  Name = 
  14 active torsions:
  status: ('A' for Active; 'I' for Inactive)
    1  A    between atoms: C_1  and  C_34
    2  A    between atoms: C_1  and  C_35
    3  A    between atoms: C_2  and  C_27
    4  A    between atoms: C_8  and  C_30
    5  A    between atoms: C_8  and  C_34
    6  A    between atoms: C_11  and  C_22
    7  A    between atoms: C_11  and  C_36
    8  A    between atoms: C_13  and  C_27
    9  A    between atoms: C_21  and  C_30
   10  A    between atoms: C_26  and  S_31
   11  A    between atoms: C_27  and  C_30
   12  A    between atoms: C_29  and  S_31
   13  A    between atoms: C_29  and  C_36
   14  A    between atoms: C_34  and  C_38
                            x       y       z     vdW  Elec       q    Type
                         _______ _______ _______ _____ _____    ______ ____

>  <TORSDO>
F 14

$$$$
=
 OpenBabel11062410063D

 43 46  0  0  1  0  0  0  0  0999 V2000
  162.0830  207.0650  149.5040 C   0  0  1  0  0  3  0  0  0  0  0  0
  161.6730  210.8220  149.9060 C   0  0  0  0  0  3  0  0  0  0  0  0
  161.0800  210.9150  151.1680 C   0  0  0  0  0  0  0  0  0  0  0  0
  160.1230  209.7820  153.2330 C   0  0  0  0  0  2  0  0  0  0  0  0
  161.9860  209.5760  149.3580 C   0  0  0  0  0  0  0  0  0  0  0  0
  160.8430  212.2830  151.7480 C   0  0  0  0  0  2  0  0  0  0  0  0
  161.1200  208.4960  151.3470 C   0  0  0  0  0  3  0  0  0  0  0  0
  162.5680  209.5120  148.0980 O   0  0  0  0  0  1  0  0  0  0  0  0
  159.8900  212.2800  152.9480 C   0  0  2  0  0  3  0  0  0  0  0  0
  161.7210  208.4030  150.0830 C   0  0  0  0  0  0  0  0  0  0  0  0
  160.2450  211.1470  153.9090 C   0  0  0  0  0  2  0  0  0  0  0  0
  160.8170  209.7400  151.9030 C   0  0  0  0  0  0  0  0  0  0  0  0
  158.4310  212.1990  152.5120 C   0  0  0  0  0  2  0  0  0  0  0  0
  157.6830  213.4470  152.9370 C   0  0  0  0  0  2  0  0  0  0  0  0
  156.5950  213.0710  153.9220 C   0  0  0  0  0  2  0  0  0  0  0  0
  156.9650  213.7840  155.5510 S   0  0  0  0  0  0  0  0  0  0  0  0
  157.3910  212.1680  156.2600 C   0  0  0  0  0  2  0  0  0  0  0  0
  156.6170  211.0830  155.5440 C   0  0  0  0  0  1  0  0  0  0  0  0
  161.0460  206.0210  149.8170 C   0  0  0  0  0  0  0  0  0  0  0  0
  159.9230  206.0960  149.3380 O   0  0  0  0  0  0  0  0  0  0  0  0
  161.3790  204.9410  150.8080 C   0  0  1  0  0  3  0  0  0  0  0  0
  161.1730  206.5950  154.7840 C   0  0  0  0  0  0  0  0  0  0  0  0
  162.4880  205.9130  152.8670 C   0  0  0  0  0  0  0  0  0  0  0  0
  160.0080  206.1730  154.1410 C   0  0  0  0  0  3  0  0  0  0  0  0
  161.0840  207.2860  156.3900 Cl  0  0  0  0  0  0  0  0  0  0  0  0
  161.3170  205.4890  152.2110 C   0  0  0  0  0  0  0  0  0  0  0  0
  162.4090  206.4630  154.1480 C   0  0  0  0  0  3  0  0  0  0  0  0
  160.0780  205.6250  152.8590 C   0  0  0  0  0  3  0  0  0  0  0  0
  164.0680  205.7670  152.1140 Cl  0  0  0  0  0  0  0  0  0  0  0  0
  160.5490  203.6560  150.6100 C   0  0  0  0  0  3  0  0  0  0  0  0
  160.7820  203.0340  149.2370 C   0  0  0  0  0  2  0  0  0  0  0  0
  159.9850  201.7510  149.1030 C   0  0  0  0  0  1  0  0  0  0  0  0
  162.2480  202.1270  151.7190 C   0  0  0  0  0  1  0  0  0  0  0  0
  160.8060  202.6160  151.7040 C   0  0  0  0  0  2  0  0  0  0  0  0
  162.3990  207.1710  148.0130 C   0  0  0  0  0  2  0  0  0  0  0  0
  159.9280  205.6710  145.4810 C   0  0  0  0  0  2  0  0  0  0  0  0
  160.8700  204.7250  144.7290 C   0  0  1  0  0  0  0  0  0  0  0  0
  160.1240  203.6830  144.2130 F   0  0  0  0  0  0  0  0  0  0  0  0
  162.6680  205.2370  146.4430 C   0  0  0  0  0  2  0  0  0  0  0  0
  160.6920  206.7460  146.2550 C   0  0  0  0  0  2  0  0  0  0  0  0
  161.6730  206.0950  147.2210 C   0  0  2  0  0  3  0  0  0  0  0  0
  161.5380  205.4510  143.5730 C   0  0  0  0  0  1  0  0  0  0  0  0
  161.9260  204.1430  145.6750 C   0  0  0  0  0  2  0  0  0  0  0  0
  1 35  1  6  0  0  0
  1 19  1  0  0  0  0
  1 10  1  0  0  0  0
  2  3  1  0  0  0  0
  3  6  1  0  0  0  0
  3 12  2  0  0  0  0
  4 11  1  0  0  0  0
  5  2  2  0  0  0  0
  5 10  1  0  0  0  0
  6  9  1  0  0  0  0
  7 12  1  0  0  0  0
  8  5  1  0  0  0  0
  9 13  1  6  0  0  0
  9 11  1  0  0  0  0
 10  7  2  0  0  0  0
 12  4  1  0  0  0  0
 13 14  1  0  0  0  0
 14 15  1  0  0  0  0
 15 16  1  0  0  0  0
 16 17  1  0  0  0  0
 18 17  1  0  0  0  0
 20 19  2  0  0  0  0
 21 19  1  6  0  0  0
 21 26  1  0  0  0  0
 22 25  1  0  0  0  0
 23 27  2  0  0  0  0
 24 22  2  0  0  0  0
 26 28  2  0  0  0  0
 26 23  1  0  0  0  0
 27 22  1  0  0  0  0
 28 24  1  0  0  0  0
 29 23  1  0  0  0  0
 30 21  1  0  0  0  0
 30 34  1  0  0  0  0
 31 30  1  0  0  0  0
 32 31  1  0  0  0  0
 34 33  1  0  0  0  0
 36 40  1  0  0  0  0
 37 42  1  6  0  0  0
 37 36  1  0  0  0  0
 37 43  1  0  0  0  0
 38 37  1  0  0  0  0
 39 41  1  0  0  0  0
 40 41  1  0  0  0  0
 41 35  1  6  0  0  0
 43 39  1  0  0  0  0
M  END
>  <MODEL>
3

>  <REMARK>
 VINA RESULT:      -3.1      3.478      7.651
  Name = 
  14 active torsions:
  status: ('A' for Active; 'I' for Inactive)
    1  A    between atoms: C_1  and  C_34
    2  A    between atoms: C_1  and  C_35
    3  A    between atoms: C_2  and  C_27
    4  A    between atoms: C_8  and  C_30
    5  A    between atoms: C_8  and  C_34
    6  A    between atoms: C_11  and  C_22
    7  A    between atoms: C_11  and  C_36
    8  A    between atoms: C_13  and  C_27
    9  A    between atoms: C_21  and  C_30
   10  A    between atoms: C_26  and  S_31
   11  A    between atoms: C_27  and  C_30
   12  A    between atoms: C_29  and  S_31
   13  A    between atoms: C_29  and  C_36
   14  A    between atoms: C_34  and  C_38
                            x       y       z     vdW  Elec       q    Type
                         _______ _______ _______ _____ _____    ______ ____

>  <TORSDO>
F 14

$$$$
=
 OpenBabel11062410063D

 43 46  0  0  1  0  0  0  0  0999 V2000
  160.5120  209.6150  151.9460 C   0  0  1  0  0  3  0  0  0  0  0  0
  161.7300  206.0570  152.4920 C   0  0  0  0  0  3  0  0  0  0  0  0
  161.5710  205.4980  151.2210 C   0  0  0  0  0  0  0  0  0  0  0  0
  160.8160  205.7210  148.8040 C   0  0  0  0  0  2  0  0  0  0  0  0
  161.3740  207.3860  152.7330 C   0  0  0  0  0  0  0  0  0  0  0  0
  162.0490  204.0900  150.9940 C   0  0  0  0  0  2  0  0  0  0  0  0
  160.7010  207.6160  150.4170 C   0  0  0  0  0  3  0  0  0  0  0  0
  161.5370  207.9140  154.0090 O   0  0  0  0  0  1  0  0  0  0  0  0
  161.5180  203.4670  149.6980 C   0  0  2  0  0  3  0  0  0  0  0  0
  160.8680  208.1790  151.6910 C   0  0  0  0  0  0  0  0  0  0  0  0
  161.6350  204.4580  148.5410 C   0  0  0  0  0  2  0  0  0  0  0  0
  161.0670  206.2920  150.1690 C   0  0  0  0  0  0  0  0  0  0  0  0
  160.0860  202.9670  149.8560 C   0  0  0  0  0  2  0  0  0  0  0  0
  159.9870  201.5100  149.4520 C   0  0  0  0  0  2  0  0  0  0  0  0
  161.3370  201.0320  148.9570 C   0  0  0  0  0  2  0  0  0  0  0  0
  161.1680  200.3110  147.3000 S   0  0  0  0  0  0  0  0  0  0  0  0
  160.2430  201.7420  146.6750 C   0  0  0  0  0  2  0  0  0  0  0  0
  161.0560  202.4410  145.6070 C   0  0  0  0  0  1  0  0  0  0  0  0
  160.0340  209.8310  153.3570 C   0  0  0  0  0  0  0  0  0  0  0  0
  159.4680  208.9340  153.9660 O   0  0  0  0  0  0  0  0  0  0  0  0
  160.1720  211.1970  153.9690 C   0  0  1  0  0  3  0  0  0  0  0  0
  156.3280  213.1470  153.9030 C   0  0  0  0  0  0  0  0  0  0  0  0
  158.6470  213.0670  153.2050 C   0  0  0  0  0  0  0  0  0  0  0  0
  156.5140  211.9930  154.6670 C   0  0  0  0  0  3  0  0  0  0  0  0
  154.7600  213.9240  153.8610 Cl  0  0  0  0  0  0  0  0  0  0  0  0
  158.8400  211.9010  153.9690 C   0  0  0  0  0  0  0  0  0  0  0  0
  157.3930  213.6820  153.1760 C   0  0  0  0  0  3  0  0  0  0  0  0
  157.7630  211.3700  154.6980 C   0  0  0  0  0  3  0  0  0  0  0  0
  159.9530  213.7840  152.2750 Cl  0  0  0  0  0  0  0  0  0  0  0  0
  160.8600  211.1770  155.3500 C   0  0  0  0  0  3  0  0  0  0  0  0
  162.3170  210.7370  155.2540 C   0  0  0  0  0  2  0  0  0  0  0  0
  162.9420  210.6940  156.6350 C   0  0  0  0  0  1  0  0  0  0  0  0
  159.8220  212.4920  157.2610 C   0  0  0  0  0  1  0  0  0  0  0  0
  160.7690  212.5260  156.0700 C   0  0  0  0  0  2  0  0  0  0  0  0
  161.6510  210.5520  151.5470 C   0  0  0  0  0  2  0  0  0  0  0  0
  160.3770  212.6760  148.6090 C   0  0  0  0  0  2  0  0  0  0  0  0
  161.7110  213.0020  147.9270 C   0  0  1  0  0  0  0  0  0  0  0  0
  161.4740  213.2200  146.5840 F   0  0  0  0  0  0  0  0  0  0  0  0
  162.8560  211.3920  149.5170 C   0  0  0  0  0  2  0  0  0  0  0  0
  160.5690  212.2230  150.0570 C   0  0  0  0  0  2  0  0  0  0  0  0
  161.4980  211.0180  150.1070 C   0  0  2  0  0  3  0  0  0  0  0  0
  162.3120  214.2660  148.5180 C   0  0  0  0  0  1  0  0  0  0  0  0
  162.6900  211.8310  148.0630 C   0  0  0  0  0  2  0  0  0  0  0  0
  1 35  1  1  0  0  0
  1 19  1  0  0  0  0
  2  5  1  0  0  0  0
  3  2  2  0  0  0  0
  4 12  1  0  0  0  0
  5  8  1  0  0  0  0
  6  3  1  0  0  0  0
  7 10  1  0  0  0  0
  9 13  1  1  0  0  0
  9  6  1  0  0  0  0
 10  1  1  0  0  0  0
 10  5  2  0  0  0  0
 11  4  1  0  0  0  0
 11  9  1  0  0  0  0
 12  7  2  0  0  0  0
 12  3  1  0  0  0  0
 14 13  1  0  0  0  0
 15 14  1  0  0  0  0
 16 15  1  0  0  0  0
 17 16  1  0  0  0  0
 18 17  1  0  0  0  0
 19 20  2  0  0  0  0
 21 19  1  1  0  0  0
 21 26  1  0  0  0  0
 21 30  1  0  0  0  0
 22 24  1  0  0  0  0
 23 26  2  0  0  0  0
 24 28  2  0  0  0  0
 25 22  1  0  0  0  0
 26 28  1  0  0  0  0
 27 23  1  0  0  0  0
 27 22  2  0  0  0  0
 29 23  1  0  0  0  0
 30 34  1  0  0  0  0
 31 30  1  0  0  0  0
 31 32  1  0  0  0  0
 34 33  1  0  0  0  0
 36 40  1  0  0  0  0
 37 43  1  0  0  0  0
 37 42  1  1  0  0  0
 37 36  1  0  0  0  0
 38 37  1  0  0  0  0
 39 41  1  0  0  0  0
 40 41  1  0  0  0  0
 41 35  1  1  0  0  0
 43 39  1  0  0  0  0
M  END
>  <MODEL>
4

>  <REMARK>
 VINA RESULT:      -3.0      1.965      3.586
  Name = 
  14 active torsions:
  status: ('A' for Active; 'I' for Inactive)
    1  A    between atoms: C_1  and  C_34
    2  A    between atoms: C_1  and  C_35
    3  A    between atoms: C_2  and  C_27
    4  A    between atoms: C_8  and  C_30
    5  A    between atoms: C_8  and  C_34
    6  A    between atoms: C_11  and  C_22
    7  A    between atoms: C_11  and  C_36
    8  A    between atoms: C_13  and  C_27
    9  A    between atoms: C_21  and  C_30
   10  A    between atoms: C_26  and  S_31
   11  A    between atoms: C_27  and  C_30
   12  A    between atoms: C_29  and  S_31
   13  A    between atoms: C_29  and  C_36
   14  A    between atoms: C_34  and  C_38
                            x       y       z     vdW  Elec       q    Type
                         _______ _______ _______ _____ _____    ______ ____

>  <TORSDO>
F 14

$$$$
=
 OpenBabel11062410063D

 43 46  0  0  1  0  0  0  0  0999 V2000
  162.0210  209.7410  149.7930 C   0  0  1  0  0  3  0  0  0  0  0  0
  163.0300  212.7880  147.7600 C   0  0  0  0  0  3  0  0  0  0  0  0
  161.8730  213.0380  147.0180 C   0  0  0  0  0  0  0  0  0  0  0  0
  159.5030  212.3920  146.3640 C   0  0  0  0  0  2  0  0  0  0  0  0
  163.0860  211.7130  148.6500 C   0  0  0  0  0  0  0  0  0  0  0  0
  161.8360  214.2580  146.1390 C   0  0  0  0  0  2  0  0  0  0  0  0
  160.8090  211.1260  148.0650 C   0  0  0  0  0  3  0  0  0  0  0  0
  164.2520  211.4850  149.3710 O   0  0  0  0  0  1  0  0  0  0  0  0
  160.6880  214.2450  145.1240 C   0  0  2  0  0  3  0  0  0  0  0  0
  161.9680  210.8810  148.8170 C   0  0  0  0  0  0  0  0  0  0  0  0
  159.3870  213.8050  145.7950 C   0  0  0  0  0  2  0  0  0  0  0  0
  160.7450  212.2070  147.1850 C   0  0  0  0  0  0  0  0  0  0  0  0
  161.0110  213.3720  143.9170 C   0  0  0  0  0  2  0  0  0  0  0  0
  162.4770  213.4930  143.5530 C   0  0  0  0  0  2  0  0  0  0  0  0
  162.6200  213.5470  142.0460 C   0  0  0  0  0  2  0  0  0  0  0  0
  162.0320  211.9930  141.3150 S   0  0  0  0  0  0  0  0  0  0  0  0
  160.9840  212.8530  140.1080 C   0  0  0  0  0  2  0  0  0  0  0  0
  161.4590  214.2810  139.9540 C   0  0  0  0  0  1  0  0  0  0  0  0
  161.9740  210.2220  151.2180 C   0  0  0  0  0  0  0  0  0  0  0  0
  163.0000  210.5480  151.7990 O   0  0  0  0  0  0  0  0  0  0  0  0
  160.6620  210.1980  151.9510 C   0  0  1  0  0  3  0  0  0  0  0  0
  160.8470  207.6460  155.4210 C   0  0  0  0  0  0  0  0  0  0  0  0
  160.9650  209.8590  154.4410 C   0  0  0  0  0  0  0  0  0  0  0  0
  160.6480  207.0920  154.1540 C   0  0  0  0  0  3  0  0  0  0  0  0
  160.8990  206.6100  156.8300 Cl  0  0  0  0  0  0  0  0  0  0  0  0
  160.7610  209.3080  153.1630 C   0  0  0  0  0  0  0  0  0  0  0  0
  161.0060  209.0260  155.5620 C   0  0  0  0  0  3  0  0  0  0  0  0
  160.6020  207.9180  153.0300 C   0  0  0  0  0  3  0  0  0  0  0  0
  161.1740  211.5880  154.6750 Cl  0  0  0  0  0  0  0  0  0  0  0  0
  160.1140  211.6060  152.2630 C   0  0  0  0  0  3  0  0  0  0  0  0
  160.6260  212.6480  151.2730 C   0  0  0  0  0  2  0  0  0  0  0  0
  159.4610  213.3870  150.6440 C   0  0  0  0  0  1  0  0  0  0  0  0
  158.0520  212.0170  153.6900 C   0  0  0  0  0  1  0  0  0  0  0  0
  158.5840  211.6430  152.3140 C   0  0  0  0  0  2  0  0  0  0  0  0
  160.9590  208.6880  149.4800 C   0  0  0  0  0  2  0  0  0  0  0  0
  161.1920  204.9130  148.7970 C   0  0  0  0  0  2  0  0  0  0  0  0
  161.8770  204.9400  147.4260 C   0  0  1  0  0  0  0  0  0  0  0  0
  162.5840  203.7640  147.2660 F   0  0  0  0  0  0  0  0  0  0  0  0
  162.1960  207.4420  147.6920 C   0  0  0  0  0  2  0  0  0  0  0  0
  160.5520  206.2580  149.1440 C   0  0  0  0  0  2  0  0  0  0  0  0
  161.5980  207.3620  149.0940 C   0  0  2  0  0  3  0  0  0  0  0  0
  160.8400  205.0270  146.3180 C   0  0  0  0  0  1  0  0  0  0  0  0
  162.8590  206.1130  147.3310 C   0  0  0  0  0  2  0  0  0  0  0  0
  1 35  1  6  0  0  0
  1 19  1  0  0  0  0
  2  5  1  0  0  0  0
  3 12  1  0  0  0  0
  3  2  2  0  0  0  0
  4 12  1  0  0  0  0
  5 10  2  0  0  0  0
  5  8  1  0  0  0  0
  6  3  1  0  0  0  0
  7 10  1  0  0  0  0
  9 13  1  6  0  0  0
  9 11  1  0  0  0  0
  9  6  1  0  0  0  0
 10  1  1  0  0  0  0
 11  4  1  0  0  0  0
 12  7  2  0  0  0  0
 14 13  1  0  0  0  0
 15 14  1  0  0  0  0
 16 15  1  0  0  0  0
 17 16  1  0  0  0  0
 18 17  1  0  0  0  0
 19 20  2  0  0  0  0
 21 19  1  1  0  0  0
 21 30  1  0  0  0  0
 21 26  1  0  0  0  0
 22 27  1  0  0  0  0
 22 25  1  0  0  0  0
 23 29  1  0  0  0  0
 23 27  2  0  0  0  0
 24 22  2  0  0  0  0
 26 23  1  0  0  0  0
 28 26  2  0  0  0  0
 28 24  1  0  0  0  0
 30 34  1  0  0  0  0
 31 30  1  0  0  0  0
 32 31  1  0  0  0  0
 34 33  1  0  0  0  0
 36 40  1  0  0  0  0
 37 42  1  6  0  0  0
 37 36  1  0  0  0  0
 38 37  1  0  0  0  0
 39 41  1  0  0  0  0
 41 40  1  0  0  0  0
 41 35  1  6  0  0  0
 43 37  1  0  0  0  0
 43 39  1  0  0  0  0
M  END
>  <MODEL>
5

>  <REMARK>
 VINA RESULT:      -2.9      3.694      7.332
  Name = 
  14 active torsions:
  status: ('A' for Active; 'I' for Inactive)
    1  A    between atoms: C_1  and  C_34
    2  A    between atoms: C_1  and  C_35
    3  A    between atoms: C_2  and  C_27
    4  A    between atoms: C_8  and  C_30
    5  A    between atoms: C_8  and  C_34
    6  A    between atoms: C_11  and  C_22
    7  A    between atoms: C_11  and  C_36
    8  A    between atoms: C_13  and  C_27
    9  A    between atoms: C_21  and  C_30
   10  A    between atoms: C_26  and  S_31
   11  A    between atoms: C_27  and  C_30
   12  A    between atoms: C_29  and  S_31
   13  A    between atoms: C_29  and  C_36
   14  A    between atoms: C_34  and  C_38
                            x       y       z     vdW  Elec       q    Type
                         _______ _______ _______ _____ _____    ______ ____

>  <TORSDO>
F 14

$$$$
=
 OpenBabel11062410063D

 43 46  0  0  1  0  0  0  0  0999 V2000
  161.8110  206.5790  149.4780 C   0  0  1  0  0  3  0  0  0  0  0  0
  161.7500  210.2420  150.4890 C   0  0  0  0  0  3  0  0  0  0  0  0
  161.2580  210.1740  151.7950 C   0  0  0  0  0  0  0  0  0  0  0  0
  160.3560  208.7960  153.7320 C   0  0  0  0  0  2  0  0  0  0  0  0
  161.9170  209.0800  149.7310 C   0  0  0  0  0  0  0  0  0  0  0  0
  161.1800  211.4440  152.5970 C   0  0  0  0  0  2  0  0  0  0  0  0
  161.1040  207.7610  151.5930 C   0  0  0  0  0  3  0  0  0  0  0  0
  162.4030  209.1780  148.4320 O   0  0  0  0  0  1  0  0  0  0  0  0
  160.3160  211.3180  153.8570 C   0  0  2  0  0  3  0  0  0  0  0  0
  161.6060  207.8290  150.2860 C   0  0  0  0  0  0  0  0  0  0  0  0
  160.6410  210.0220  154.5990 C   0  0  0  0  0  2  0  0  0  0  0  0
  160.9480  208.9180  152.3590 C   0  0  0  0  0  0  0  0  0  0  0  0
  158.8290  211.4150  153.5360 C   0  0  0  0  0  2  0  0  0  0  0  0
  158.2660  212.7320  154.0320 C   0  0  0  0  0  2  0  0  0  0  0  0
  157.8170  212.5780  155.4710 C   0  0  0  0  0  2  0  0  0  0  0  0
  156.0850  213.0950  155.6360 S   0  0  0  0  0  0  0  0  0  0  0  0
  155.5770  211.4920  156.3200 C   0  0  0  0  0  2  0  0  0  0  0  0
  155.5930  210.4490  155.2250 C   0  0  0  0  0  1  0  0  0  0  0  0
  160.5760  205.7190  149.4550 C   0  0  0  0  0  0  0  0  0  0  0  0
  159.5600  206.1030  148.8920 O   0  0  0  0  0  0  0  0  0  0  0  0
  160.5770  204.4260  150.2220 C   0  0  1  0  0  3  0  0  0  0  0  0
  161.0360  201.1390  147.4690 C   0  0  0  0  0  0  0  0  0  0  0  0
  160.2060  202.0070  149.5740 C   0  0  0  0  0  0  0  0  0  0  0  0
  161.5940  202.3840  147.1720 C   0  0  0  0  0  3  0  0  0  0  0  0
  161.2050  199.8130  146.3390 Cl  0  0  0  0  0  0  0  0  0  0  0  0
  160.7630  203.2650  149.2790 C   0  0  0  0  0  0  0  0  0  0  0  0
  160.3450  200.9520  148.6680 C   0  0  0  0  0  3  0  0  0  0  0  0
  161.4570  203.4440  148.0700 C   0  0  0  0  0  3  0  0  0  0  0  0
  159.3300  201.7160  151.0690 Cl  0  0  0  0  0  0  0  0  0  0  0  0
  161.5650  204.4220  151.4070 C   0  0  0  0  0  3  0  0  0  0  0  0
  160.8480  204.2550  152.7430 C   0  0  0  0  0  2  0  0  0  0  0  0
  161.2080  205.3960  153.6750 C   0  0  0  0  0  1  0  0  0  0  0  0
  162.3290  202.0800  152.0270 C   0  0  0  0  0  1  0  0  0  0  0  0
  162.6530  203.3540  151.2610 C   0  0  0  0  0  2  0  0  0  0  0  0
  162.3470  206.8980  148.0840 C   0  0  0  0  0  2  0  0  0  0  0  0
  160.0630  205.6270  145.2670 C   0  0  0  0  0  2  0  0  0  0  0  0
  161.1220  205.0980  144.2940 C   0  0  1  0  0  0  0  0  0  0  0  0
  160.5550  204.0930  143.5340 F   0  0  0  0  0  0  0  0  0  0  0  0
  162.8840  205.5040  146.0720 C   0  0  0  0  0  2  0  0  0  0  0  0
  160.6560  206.6030  146.2840 C   0  0  0  0  0  2  0  0  0  0  0  0
  161.7910  205.9330  147.0480 C   0  0  2  0  0  3  0  0  0  0  0  0
  161.5810  206.2030  143.3570 C   0  0  0  0  0  1  0  0  0  0  0  0
  162.3170  204.5130  145.0560 C   0  0  0  0  0  2  0  0  0  0  0  0
  1 35  1  6  0  0  0
  1 10  1  0  0  0  0
  2  3  1  0  0  0  0
  3 12  2  0  0  0  0
  3  6  1  0  0  0  0
  4 11  1  0  0  0  0
  5 10  1  0  0  0  0
  5  2  2  0  0  0  0
  6  9  1  0  0  0  0
  7 12  1  0  0  0  0
  8  5  1  0  0  0  0
  9 13  1  6  0  0  0
  9 11  1  0  0  0  0
 10  7  2  0  0  0  0
 12  4  1  0  0  0  0
 13 14  1  0  0  0  0
 14 15  1  0  0  0  0
 15 16  1  0  0  0  0
 16 17  1  0  0  0  0
 18 17  1  0  0  0  0
 19  1  1  0  0  0  0
 20 19  2  0  0  0  0
 21 19  1  6  0  0  0
 21 30  1  0  0  0  0
 22 27  1  0  0  0  0
 23 29  1  0  0  0  0
 24 22  2  0  0  0  0
 24 28  1  0  0  0  0
 25 22  1  0  0  0  0
 26 23  1  0  0  0  0
 26 21  1  0  0  0  0
 27 23  2  0  0  0  0
 28 26  2  0  0  0  0
 30 31  1  0  0  0  0
 31 32  1  0  0  0  0
 34 30  1  0  0  0  0
 34 33  1  0  0  0  0
 36 40  1  0  0  0  0
 37 42  1  6  0  0  0
 37 43  1  0  0  0  0
 37 36  1  0  0  0  0
 38 37  1  0  0  0  0
 39 41  1  0  0  0  0
 40 41  1  0  0  0  0
 41 35  1  1  0  0  0
 43 39  1  0  0  0  0
M  END
>  <MODEL>
6

>  <REMARK>
 VINA RESULT:      -2.8      4.171      8.604
  Name = 
  14 active torsions:
  status: ('A' for Active; 'I' for Inactive)
    1  A    between atoms: C_1  and  C_34
    2  A    between atoms: C_1  and  C_35
    3  A    between atoms: C_2  and  C_27
    4  A    between atoms: C_8  and  C_30
    5  A    between atoms: C_8  and  C_34
    6  A    between atoms: C_11  and  C_22
    7  A    between atoms: C_11  and  C_36
    8  A    between atoms: C_13  and  C_27
    9  A    between atoms: C_21  and  C_30
   10  A    between atoms: C_26  and  S_31
   11  A    between atoms: C_27  and  C_30
   12  A    between atoms: C_29  and  S_31
   13  A    between atoms: C_29  and  C_36
   14  A    between atoms: C_34  and  C_38
                            x       y       z     vdW  Elec       q    Type
                         _______ _______ _______ _____ _____    ______ ____

>  <TORSDO>
F 14

$$$$
=
 OpenBabel11062410063D

 43 46  0  0  1  0  0  0  0  0999 V2000
  161.8430  206.3770  149.5490 C   0  0  1  0  0  3  0  0  0  0  0  0
  161.7970  209.9860  150.7370 C   0  0  0  0  0  3  0  0  0  0  0  0
  161.3900  209.8490  152.0660 C   0  0  0  0  0  0  0  0  0  0  0  0
  160.6320  208.3660  153.9870 C   0  0  0  0  0  2  0  0  0  0  0  0
  161.9310  208.8650  149.9150 C   0  0  0  0  0  0  0  0  0  0  0  0
  161.3450  211.0780  152.9320 C   0  0  0  0  0  2  0  0  0  0  0  0
  161.2560  207.4460  151.7590 C   0  0  0  0  0  3  0  0  0  0  0  0
  162.3320  209.0320  148.5940 O   0  0  0  0  0  1  0  0  0  0  0  0
  160.5660  210.8780  154.2360 C   0  0  2  0  0  3  0  0  0  0  0  0
  161.6730  207.5840  150.4270 C   0  0  0  0  0  0  0  0  0  0  0  0
  160.9540  209.5540  154.8930 C   0  0  0  0  0  2  0  0  0  0  0  0
  161.1340  208.5630  152.5870 C   0  0  0  0  0  0  0  0  0  0  0  0
  159.0600  210.9650  154.0150 C   0  0  0  0  0  2  0  0  0  0  0  0
  158.7560  211.7530  152.7560 C   0  0  0  0  0  2  0  0  0  0  0  0
  158.2890  213.1450  153.1340 C   0  0  0  0  0  2  0  0  0  0  0  0
  158.7400  214.3230  151.8280 S   0  0  0  0  0  0  0  0  0  0  0  0
  157.4560  213.7050  150.7040 C   0  0  0  0  0  2  0  0  0  0  0  0
  157.9810  213.7130  149.2850 C   0  0  0  0  0  1  0  0  0  0  0  0
  160.5940  205.5400  149.4990 C   0  0  0  0  0  0  0  0  0  0  0  0
  159.5760  205.9700  148.9740 O   0  0  0  0  0  0  0  0  0  0  0  0
  160.5840  204.2080  150.1960 C   0  0  1  0  0  3  0  0  0  0  0  0
  161.0390  201.0710  147.2730 C   0  0  0  0  0  0  0  0  0  0  0  0
  160.1980  201.8310  149.4140 C   0  0  0  0  0  0  0  0  0  0  0  0
  161.6110  202.3250  147.0480 C   0  0  0  0  0  3  0  0  0  0  0  0
  161.2060  199.8070  146.0740 Cl  0  0  0  0  0  0  0  0  0  0  0  0
  160.7690  203.0980  149.1930 C   0  0  0  0  0  0  0  0  0  0  0  0
  160.3350  200.8260  148.4540 C   0  0  0  0  0  3  0  0  0  0  0  0
  161.4750  203.3350  148.0020 C   0  0  0  0  0  3  0  0  0  0  0  0
  159.3060  201.4680  150.8840 Cl  0  0  0  0  0  0  0  0  0  0  0  0
  161.5660  204.1350  151.3830 C   0  0  0  0  0  3  0  0  0  0  0  0
  160.8380  203.9550  152.7120 C   0  0  0  0  0  2  0  0  0  0  0  0
  161.2050  205.0760  153.6640 C   0  0  0  0  0  1  0  0  0  0  0  0
  162.3250  201.8080  152.0630 C   0  0  0  0  0  1  0  0  0  0  0  0
  162.6160  203.0340  151.2100 C   0  0  0  0  0  2  0  0  0  0  0  0
  162.3630  206.7630  148.1650 C   0  0  0  0  0  2  0  0  0  0  0  0
  160.0530  205.6590  145.2990 C   0  0  0  0  0  2  0  0  0  0  0  0
  161.1020  205.1510  144.3030 C   0  0  1  0  0  0  0  0  0  0  0  0
  160.5150  204.1900  143.5020 F   0  0  0  0  0  0  0  0  0  0  0  0
  162.8710  205.4460  146.0950 C   0  0  0  0  0  2  0  0  0  0  0  0
  160.6660  206.5780  146.3560 C   0  0  0  0  0  2  0  0  0  0  0  0
  161.7880  205.8550  147.0890 C   0  0  2  0  0  3  0  0  0  0  0  0
  161.5810  206.2860  143.4140 C   0  0  0  0  0  1  0  0  0  0  0  0
  162.2850  204.5110  145.0380 C   0  0  0  0  0  2  0  0  0  0  0  0
  1 35  1  6  0  0  0
  1 10  1  0  0  0  0
  2  3  1  0  0  0  0
  3 12  2  0  0  0  0
  3  6  1  0  0  0  0
  4 11  1  0  0  0  0
  5 10  1  0  0  0  0
  5  2  2  0  0  0  0
  6  9  1  0  0  0  0
  7 12  1  0  0  0  0
  8  5  1  0  0  0  0
  9 13  1  6  0  0  0
  9 11  1  0  0  0  0
 10  7  2  0  0  0  0
 12  4  1  0  0  0  0
 14 15  1  0  0  0  0
 14 13  1  0  0  0  0
 16 15  1  0  0  0  0
 17 16  1  0  0  0  0
 18 17  1  0  0  0  0
 19  1  1  0  0  0  0
 20 19  2  0  0  0  0
 21 19  1  6  0  0  0
 21 30  1  0  0  0  0
 22 27  1  0  0  0  0
 23 29  1  0  0  0  0
 24 22  2  0  0  0  0
 24 28  1  0  0  0  0
 25 22  1  0  0  0  0
 26 23  1  0  0  0  0
 26 21  1  0  0  0  0
 27 23  2  0  0  0  0
 28 26  2  0  0  0  0
 30 31  1  0  0  0  0
 31 32  1  0  0  0  0
 34 30  1  0  0  0  0
 34 33  1  0  0  0  0
 36 40  1  0  0  0  0
 37 42  1  6  0  0  0
 37 43  1  0  0  0  0
 37 36  1  0  0  0  0
 38 37  1  0  0  0  0
 39 41  1  0  0  0  0
 40 41  1  0  0  0  0
 41 35  1  1  0  0  0
 43 39  1  0  0  0  0
M  END
>  <MODEL>
7

>  <REMARK>
 VINA RESULT:      -2.8      4.073      8.561
  Name = 
  14 active torsions:
  status: ('A' for Active; 'I' for Inactive)
    1  A    between atoms: C_1  and  C_34
    2  A    between atoms: C_1  and  C_35
    3  A    between atoms: C_2  and  C_27
    4  A    between atoms: C_8  and  C_30
    5  A    between atoms: C_8  and  C_34
    6  A    between atoms: C_11  and  C_22
    7  A    between atoms: C_11  and  C_36
    8  A    between atoms: C_13  and  C_27
    9  A    between atoms: C_21  and  C_30
   10  A    between atoms: C_26  and  S_31
   11  A    between atoms: C_27  and  C_30
   12  A    between atoms: C_29  and  S_31
   13  A    between atoms: C_29  and  C_36
   14  A    between atoms: C_34  and  C_38
                            x       y       z     vdW  Elec       q    Type
                         _______ _______ _______ _____ _____    ______ ____

>  <TORSDO>
F 14

$$$$
=
 OpenBabel11062410063D

 43 46  0  0  1  0  0  0  0  0999 V2000
  161.9800  207.1150  149.4200 C   0  0  1  0  0  3  0  0  0  0  0  0
  161.7230  210.8440  150.1030 C   0  0  0  0  0  3  0  0  0  0  0  0
  161.0490  210.8690  151.3270 C   0  0  0  0  0  0  0  0  0  0  0  0
  159.8970  209.6290  153.2230 C   0  0  0  0  0  2  0  0  0  0  0  0
  162.0130  209.6300  149.4760 C   0  0  0  0  0  0  0  0  0  0  0  0
  160.8380  212.1970  152.0000 C   0  0  0  0  0  2  0  0  0  0  0  0
  160.9600  208.4440  151.3070 C   0  0  0  0  0  3  0  0  0  0  0  0
  162.6790  209.6350  148.2550 O   0  0  0  0  0  1  0  0  0  0  0  0
  159.8040  212.1500  153.1310 C   0  0  2  0  0  3  0  0  0  0  0  0
  161.6430  208.4190  150.0830 C   0  0  0  0  0  0  0  0  0  0  0  0
  160.0370  210.9270  154.0170 C   0  0  0  0  0  2  0  0  0  0  0  0
  160.6790  209.6550  151.9430 C   0  0  0  0  0  0  0  0  0  0  0  0
  158.3770  212.1820  152.5950 C   0  0  0  0  0  2  0  0  0  0  0  0
  158.3050  213.0180  151.3330 C   0  0  0  0  0  2  0  0  0  0  0  0
  156.9890  213.7690  151.3000 C   0  0  0  0  0  2  0  0  0  0  0  0
  156.3040  213.7410  149.6190 S   0  0  0  0  0  0  0  0  0  0  0  0
  157.8750  214.2620  148.8740 C   0  0  0  0  0  2  0  0  0  0  0  0
  158.0430  213.5900  147.5290 C   0  0  0  0  0  1  0  0  0  0  0  0
  160.9750  206.0440  149.7480 C   0  0  0  0  0  0  0  0  0  0  0  0
  159.8360  206.1040  149.3080 O   0  0  0  0  0  0  0  0  0  0  0  0
  161.3620  204.9550  150.7090 C   0  0  1  0  0  3  0  0  0  0  0  0
  161.1840  206.5170  154.7240 C   0  0  0  0  0  0  0  0  0  0  0  0
  162.4800  205.9160  152.7670 C   0  0  0  0  0  0  0  0  0  0  0  0
  160.0190  206.0730  154.0940 C   0  0  0  0  0  3  0  0  0  0  0  0
  161.1040  207.1710  156.3450 Cl  0  0  0  0  0  0  0  0  0  0  0  0
  161.3100  205.4710  152.1250 C   0  0  0  0  0  0  0  0  0  0  0  0
  162.4100  206.4370  154.0620 C   0  0  0  0  0  3  0  0  0  0  0  0
  160.0800  205.5540  152.7990 C   0  0  0  0  0  3  0  0  0  0  0  0
  164.0490  205.8360  151.9810 Cl  0  0  0  0  0  0  0  0  0  0  0  0
  160.5680  203.6490  150.5000 C   0  0  0  0  0  3  0  0  0  0  0  0
  160.8300  203.0390  149.1260 C   0  0  0  0  0  2  0  0  0  0  0  0
  160.0810  201.7270  148.9860 C   0  0  0  0  0  1  0  0  0  0  0  0
  162.3050  202.1840  151.6370 C   0  0  0  0  0  1  0  0  0  0  0  0
  160.8450  202.6110  151.5920 C   0  0  0  0  0  2  0  0  0  0  0  0
  162.2000  207.2920  147.9190 C   0  0  0  0  0  2  0  0  0  0  0  0
  159.8580  205.6590  145.3470 C   0  0  0  0  0  2  0  0  0  0  0  0
  160.8520  204.7250  144.6480 C   0  0  1  0  0  0  0  0  0  0  0  0
  160.1550  203.6490  144.1350 F   0  0  0  0  0  0  0  0  0  0  0  0
  162.5770  205.3310  146.4050 C   0  0  0  0  0  2  0  0  0  0  0  0
  160.5650  206.7740  146.1180 C   0  0  0  0  0  2  0  0  0  0  0  0
  161.5330  206.1760  147.1300 C   0  0  2  0  0  3  0  0  0  0  0  0
  161.5350  205.4440  143.4970 C   0  0  0  0  0  1  0  0  0  0  0  0
  161.8940  204.1980  145.6420 C   0  0  0  0  0  2  0  0  0  0  0  0
  1 35  1  6  0  0  0
  1 19  1  0  0  0  0
  1 10  1  0  0  0  0
  2  3  1  0  0  0  0
  3 12  2  0  0  0  0
  3  6  1  0  0  0  0
  4 11  1  0  0  0  0
  5 10  1  0  0  0  0
  5  2  2  0  0  0  0
  6  9  1  0  0  0  0
  7 12  1  0  0  0  0
  8  5  1  0  0  0  0
  9 13  1  6  0  0  0
  9 11  1  0  0  0  0
 10  7  2  0  0  0  0
 12  4  1  0  0  0  0
 14 13  1  0  0  0  0
 15 14  1  0  0  0  0
 16 15  1  0  0  0  0
 17 16  1  0  0  0  0
 18 17  1  0  0  0  0
 20 19  2  0  0  0  0
 21 19  1  6  0  0  0
 21 26  1  0  0  0  0
 22 25  1  0  0  0  0
 23 27  1  0  0  0  0
 24 22  1  0  0  0  0
 26 23  2  0  0  0  0
 26 28  1  0  0  0  0
 27 22  2  0  0  0  0
 28 24  2  0  0  0  0
 29 23  1  0  0  0  0
 30 21  1  0  0  0  0
 30 34  1  0  0  0  0
 31 30  1  0  0  0  0
 32 31  1  0  0  0  0
 34 33  1  0  0  0  0
 36 40  1  0  0  0  0
 37 42  1  6  0  0  0
 37 36  1  0  0  0  0
 37 43  1  0  0  0  0
 38 37  1  0  0  0  0
 39 41  1  0  0  0  0
 40 41  1  0  0  0  0
 41 35  1  6  0  0  0
 43 39  1  0  0  0  0
M  END
>  <MODEL>
8

>  <REMARK>
 VINA RESULT:      -2.7      3.336      7.585
  Name = 
  14 active torsions:
  status: ('A' for Active; 'I' for Inactive)
    1  A    between atoms: C_1  and  C_34
    2  A    between atoms: C_1  and  C_35
    3  A    between atoms: C_2  and  C_27
    4  A    between atoms: C_8  and  C_30
    5  A    between atoms: C_8  and  C_34
    6  A    between atoms: C_11  and  C_22
    7  A    between atoms: C_11  and  C_36
    8  A    between atoms: C_13  and  C_27
    9  A    between atoms: C_21  and  C_30
   10  A    between atoms: C_26  and  S_31
   11  A    between atoms: C_27  and  C_30
   12  A    between atoms: C_29  and  S_31
   13  A    between atoms: C_29  and  C_36
   14  A    between atoms: C_34  and  C_38
                            x       y       z     vdW  Elec       q    Type
                         _______ _______ _______ _____ _____    ______ ____

>  <TORSDO>
F 14

$$$$
=
 OpenBabel11062410063D

 43 46  0  0  1  0  0  0  0  0999 V2000
  161.8530  207.1850  149.6240 C   0  0  1  0  0  3  0  0  0  0  0  0
  161.7320  210.9830  149.5990 C   0  0  0  0  0  3  0  0  0  0  0  0
  161.0650  211.2600  150.7950 C   0  0  0  0  0  0  0  0  0  0  0  0
  159.8770  210.4370  152.8870 C   0  0  0  0  0  2  0  0  0  0  0  0
  161.9770  209.6640  149.2100 C   0  0  0  0  0  0  0  0  0  0  0  0
  160.9040  212.6970  151.2090 C   0  0  0  0  0  2  0  0  0  0  0  0
  160.8890  208.8790  151.2270 C   0  0  0  0  0  3  0  0  0  0  0  0
  162.6370  209.4180  148.0110 O   0  0  0  0  0  1  0  0  0  0  0  0
  159.8740  212.8990  152.3260 C   0  0  2  0  0  3  0  0  0  0  0  0
  161.5660  208.6020  150.0310 C   0  0  0  0  0  0  0  0  0  0  0  0
  160.0670  211.8550  153.4250 C   0  0  0  0  0  2  0  0  0  0  0  0
  160.6540  210.1960  151.6260 C   0  0  0  0  0  0  0  0  0  0  0  0
  158.4470  212.8820  151.7890 C   0  0  0  0  0  2  0  0  0  0  0  0
  158.3160  213.8160  150.6030 C   0  0  0  0  0  2  0  0  0  0  0  0
  157.0670  213.4650  149.8200 C   0  0  0  0  0  2  0  0  0  0  0  0
  157.3100  213.8550  148.0640 S   0  0  0  0  0  0  0  0  0  0  0  0
  159.1180  213.8580  148.2230 C   0  0  0  0  0  2  0  0  0  0  0  0
  159.7120  212.8670  147.2450 C   0  0  0  0  0  1  0  0  0  0  0  0
  160.6260  206.3190  149.7100 C   0  0  0  0  0  0  0  0  0  0  0  0
  159.6530  206.5460  149.0050 O   0  0  0  0  0  0  0  0  0  0  0  0
  160.5760  205.2330  150.7490 C   0  0  1  0  0  3  0  0  0  0  0  0
  161.2890  201.3990  148.9100 C   0  0  0  0  0  0  0  0  0  0  0  0
  160.9630  202.7360  150.9040 C   0  0  0  0  0  0  0  0  0  0  0  0
  161.1910  202.5460  148.1200 C   0  0  0  0  0  3  0  0  0  0  0  0
  161.5570  199.8410  148.1580 Cl  0  0  0  0  0  0  0  0  0  0  0  0
  160.8590  203.8950  150.1140 C   0  0  0  0  0  0  0  0  0  0  0  0
  161.1770  201.4950  150.2980 C   0  0  0  0  0  3  0  0  0  0  0  0
  160.9740  203.7890  148.7180 C   0  0  0  0  0  3  0  0  0  0  0  0
  160.8320  202.8000  152.6550 Cl  0  0  0  0  0  0  0  0  0  0  0  0
  161.4550  205.5290  151.9810 C   0  0  0  0  0  3  0  0  0  0  0  0
  162.8660  205.9530  151.5850 C   0  0  0  0  0  2  0  0  0  0  0  0
  163.8900  205.0950  152.3030 C   0  0  0  0  0  1  0  0  0  0  0  0
  161.0730  206.2780  154.3780 C   0  0  0  0  0  1  0  0  0  0  0  0
  160.8350  206.5810  152.9060 C   0  0  0  0  0  2  0  0  0  0  0  0
  162.5370  207.1250  148.2590 C   0  0  0  0  0  2  0  0  0  0  0  0
  160.1290  205.7550  145.5960 C   0  0  0  0  0  2  0  0  0  0  0  0
  161.1200  204.9660  144.7330 C   0  0  1  0  0  0  0  0  0  0  0  0
  160.4360  203.9400  144.1090 F   0  0  0  0  0  0  0  0  0  0  0  0
  162.9070  205.4030  146.4770 C   0  0  0  0  0  2  0  0  0  0  0  0
  160.8330  206.7860  146.4790 C   0  0  0  0  0  2  0  0  0  0  0  0
  161.8710  206.0980  147.3560 C   0  0  2  0  0  3  0  0  0  0  0  0
  161.7180  205.8610  143.6610 C   0  0  0  0  0  1  0  0  0  0  0  0
  162.2270  204.3540  145.5980 C   0  0  0  0  0  2  0  0  0  0  0  0
  1 35  1  6  0  0  0
  1 19  1  0  0  0  0
  1 10  1  0  0  0  0
  2  3  1  0  0  0  0
  3  6  1  0  0  0  0
  3 12  2  0  0  0  0
  4 11  1  0  0  0  0
  5  2  2  0  0  0  0
  5 10  1  0  0  0  0
  6  9  1  0  0  0  0
  7 12  1  0  0  0  0
  8  5  1  0  0  0  0
  9 13  1  6  0  0  0
  9 11  1  0  0  0  0
 10  7  2  0  0  0  0
 12  4  1  0  0  0  0
 14 13  1  0  0  0  0
 15 14  1  0  0  0  0
 16 17  1  0  0  0  0
 16 15  1  0  0  0  0
 18 17  1  0  0  0  0
 20 19  2  0  0  0  0
 21 19  1  6  0  0  0
 21 30  1  0  0  0  0
 22 27  1  0  0  0  0
 23 29  1  0  0  0  0
 24 28  1  0  0  0  0
 24 22  2  0  0  0  0
 25 22  1  0  0  0  0
 26 21  1  0  0  0  0
 26 23  1  0  0  0  0
 27 23  2  0  0  0  0
 28 26  2  0  0  0  0
 30 34  1  0  0  0  0
 31 30  1  0  0  0  0
 31 32  1  0  0  0  0
 34 33  1  0  0  0  0
 36 40  1  0  0  0  0
 37 42  1  6  0  0  0
 37 36  1  0  0  0  0
 37 43  1  0  0  0  0
 38 37  1  0  0  0  0
 39 41  1  0  0  0  0
 40 41  1  0  0  0  0
 41 35  1  6  0  0  0
 43 39  1  0  0  0  0
M  END
>  <MODEL>
9

>  <REMARK>
 VINA RESULT:      -2.4      3.849      8.198
  Name = 
  14 active torsions:
  status: ('A' for Active; 'I' for Inactive)
    1  A    between atoms: C_1  and  C_34
    2  A    between atoms: C_1  and  C_35
    3  A    between atoms: C_2  and  C_27
    4  A    between atoms: C_8  and  C_30
    5  A    between atoms: C_8  and  C_34
    6  A    between atoms: C_11  and  C_22
    7  A    between atoms: C_11  and  C_36
    8  A    between atoms: C_13  and  C_27
    9  A    between atoms: C_21  and  C_30
   10  A    between atoms: C_26  and  S_31
   11  A    between atoms: C_27  and  C_30
   12  A    between atoms: C_29  and  S_31
   13  A    between atoms: C_29  and  C_36
   14  A    between atoms: C_34  and  C_38
                            x       y       z     vdW  Elec       q    Type
                         _______ _______ _______ _____ _____    ______ ____

>  <TORSDO>
F 14

$$$$
