=
 OpenBabel11052423133D

 27 32  0  0  1  0  0  0  0  0999 V2000
  162.0000  210.3230  153.9050 C   0  0  0  0  0  2  0  0  0  0  0  0
  160.0560  211.4100  152.7150 C   0  0  0  0  0  0  0  0  0  0  0  0
  158.9820  210.5710  154.7810 O   0  0  0  0  0  0  0  0  0  0  0  0
  157.0780  214.3880  152.1830 C   0  0  0  0  0  3  0  0  0  0  0  0
  156.1310  214.3540  153.1560 C   0  0  0  0  0  0  0  0  0  0  0  0
  160.0540  212.2910  151.6780 N   0  0  0  0  0  0  0  0  0  0  0  0
  156.9630  212.4440  154.5620 C   0  0  0  0  0  3  0  0  0  0  0  0
  160.8510  208.1150  156.7920 C   0  0  0  0  0  0  0  0  0  0  0  0
  156.0760  213.4340  154.2820 C   0  0  0  0  0  0  0  0  0  0  0  0
  160.6940  206.9580  157.2610 O   0  0  0  0  0  0  0  0  0  0  0  0
  158.0070  212.4160  153.5630 C   0  0  0  0  0  0  0  0  0  0  0  0
  161.0830  210.4000  152.7580 N   0  0  0  0  0  0  0  0  0  0  0  0
  155.0960  214.4200  154.1000 C   0  0  0  0  0  2  0  0  0  0  0  0
  158.0540  213.3580  152.4220 C   0  0  0  0  0  0  0  0  0  0  0  0
  161.3080  210.4580  155.1870 N   0  0  2  0  0  0  0  0  0  0  0  0
  159.0250  211.4560  153.6880 C   0  0  0  0  0  0  0  0  0  0  0  0
  159.6870  208.9600  156.4320 C   0  0  0  0  0  2  0  0  0  0  0  0
  159.1020  213.2430  151.5170 C   0  0  0  0  0  3  0  0  0  0  0  0
  162.1510  208.6470  156.5830 N   0  0  0  0  0  2  0  0  0  0  0  0
  162.2630  210.0610  156.2400 C   0  0  0  0  0  2  0  0  0  0  0  0
  160.0400  209.6940  155.1380 C   0  0  1  0  0  3  0  0  0  0  0  0
  161.8350  207.8990  149.3950 C   0  0  0  0  0  3  0  0  0  0  0  0
  161.3260  209.5550  151.6130 C   0  0  0  0  0  0  0  0  0  0  0  0
  160.9610  208.1970  151.6320 C   0  0  0  0  0  3  0  0  0  0  0  0
  161.2120  207.3750  150.5290 C   0  0  0  0  0  3  0  0  0  0  0  0
  162.2100  209.2440  149.3630 C   0  0  0  0  0  3  0  0  0  0  0  0
  161.9590  210.0660  150.4660 C   0  0  0  0  0  3  0  0  0  0  0  0
  2 12  1  0  0  0  0
  2 16  1  0  0  0  0
  3 21  1  0  0  0  0
  4 14  1  0  0  0  0
  4  5  2  0  0  0  0
  5 13  1  0  0  0  0
  5  9  1  0  0  0  0
  6  2  2  0  0  0  0
  8 10  2  0  0  0  0
  9  7  2  0  0  0  0
 11 16  2  0  0  0  0
 11  7  1  0  0  0  0
 12  1  1  0  0  0  0
 13  9  1  0  0  0  0
 14 11  1  0  0  0  0
 15  1  1  6  0  0  0
 15 20  1  0  0  0  0
 16  3  1  0  0  0  0
 17  8  1  0  0  0  0
 18  6  1  0  0  0  0
 18 14  2  0  0  0  0
 19  8  1  0  0  0  0
 20 19  1  0  0  0  0
 21 15  1  0  0  0  0
 21 17  1  1  0  0  0
 22 25  1  0  0  0  0
 23 24  1  0  0  0  0
 23 12  1  0  0  0  0
 25 24  2  0  0  0  0
 26 22  2  0  0  0  0
 26 27  1  0  0  0  0
 27 23  2  0  0  0  0
M  END
>  <MODEL>
1

>  <REMARK>
 VINA RESULT:      -6.8      0.000      0.000
  Name = 
  1 active torsions:
  status: ('A' for Active; 'I' for Inactive)
    1  A    between atoms: C_9  and  N_15
                            x       y       z     vdW  Elec       q    Type
                         _______ _______ _______ _____ _____    ______ ____

>  <TORSDO>
F 1

$$$$
=
 OpenBabel11052423133D

 27 32  0  0  1  0  0  0  0  0999 V2000
  162.6120  209.4400  150.1300 C   0  0  0  0  0  2  0  0  0  0  0  0
  161.6360  209.8490  152.4220 C   0  0  0  0  0  0  0  0  0  0  0  0
  160.6940  207.6320  151.8570 O   0  0  0  0  0  0  0  0  0  0  0  0
  161.2280  209.1410  156.5880 C   0  0  0  0  0  3  0  0  0  0  0  0
  160.6870  207.9240  156.8560 C   0  0  0  0  0  0  0  0  0  0  0  0
  162.0020  210.7500  153.3750 N   0  0  0  0  0  0  0  0  0  0  0  0
  160.3510  207.0310  154.5320 C   0  0  0  0  0  3  0  0  0  0  0  0
  160.8940  206.5430  148.3430 C   0  0  0  0  0  0  0  0  0  0  0  0
  160.2720  206.9250  155.8840 C   0  0  0  0  0  0  0  0  0  0  0  0
  160.1250  206.1540  147.4270 O   0  0  0  0  0  0  0  0  0  0  0  0
  160.9190  208.3080  154.1650 C   0  0  0  0  0  0  0  0  0  0  0  0
  161.7610  210.2240  151.0360 N   0  0  0  0  0  0  0  0  0  0  0  0
  160.1400  206.6990  157.2610 C   0  0  0  0  0  2  0  0  0  0  0  0
  161.3390  209.3170  155.1640 C   0  0  0  0  0  0  0  0  0  0  0  0
  162.4280  207.9980  150.2930 N   0  0  2  0  0  0  0  0  0  0  0  0
  161.0850  208.5990  152.8010 C   0  0  0  0  0  0  0  0  0  0  0  0
  160.5010  206.4390  149.7690 C   0  0  0  0  0  2  0  0  0  0  0  0
  161.8730  210.5150  154.7030 C   0  0  0  0  0  3  0  0  0  0  0  0
  162.1610  207.1080  148.0410 N   0  0  0  0  0  2  0  0  0  0  0  0
  163.0850  207.3430  149.1460 C   0  0  0  0  0  2  0  0  0  0  0  0
  160.9870  207.7080  150.4690 C   0  0  1  0  0  3  0  0  0  0  0  0
  160.0230  213.8390  149.6060 C   0  0  0  0  0  3  0  0  0  0  0  0
  161.1820  211.4570  150.5580 C   0  0  0  0  0  0  0  0  0  0  0  0
  160.2150  212.1400  151.3190 C   0  0  0  0  0  3  0  0  0  0  0  0
  159.6420  213.3240  150.8470 C   0  0  0  0  0  3  0  0  0  0  0  0
  160.9760  213.1680  148.8350 C   0  0  0  0  0  3  0  0  0  0  0  0
  161.5490  211.9840  149.3070 C   0  0  0  0  0  3  0  0  0  0  0  0
  1 15  1  0  0  0  0
  1 12  1  0  0  0  0
  2 16  2  0  0  0  0
  2  6  1  0  0  0  0
  3 16  1  0  0  0  0
  4  5  1  0  0  0  0
  5 13  1  0  0  0  0
  6 18  2  0  0  0  0
  7  9  1  0  0  0  0
  8 17  1  0  0  0  0
  9  5  2  0  0  0  0
  9 13  1  0  0  0  0
 10  8  2  0  0  0  0
 11  7  2  0  0  0  0
 11 14  1  0  0  0  0
 12  2  1  0  0  0  0
 14  4  2  0  0  0  0
 15 20  1  6  0  0  0
 15 21  1  0  0  0  0
 16 11  1  0  0  0  0
 18 14  1  0  0  0  0
 19  8  1  0  0  0  0
 19 20  1  0  0  0  0
 21 17  1  6  0  0  0
 21  3  1  0  0  0  0
 22 25  1  0  0  0  0
 23 12  1  0  0  0  0
 23 24  1  0  0  0  0
 25 24  2  0  0  0  0
 26 27  1  0  0  0  0
 26 22  2  0  0  0  0
 27 23  2  0  0  0  0
M  END
>  <MODEL>
2

>  <REMARK>
 VINA RESULT:      -6.0      2.871      6.160
  Name = 
  1 active torsions:
  status: ('A' for Active; 'I' for Inactive)
    1  A    between atoms: C_9  and  N_15
                            x       y       z     vdW  Elec       q    Type
                         _______ _______ _______ _____ _____    ______ ____

>  <TORSDO>
F 1

$$$$
=
 OpenBabel11052423133D

 27 32  0  0  1  0  0  0  0  0999 V2000
  161.4890  210.1930  154.2140 C   0  0  0  0  0  2  0  0  0  0  0  0
  161.4020  210.3790  151.6980 C   0  0  0  0  0  0  0  0  0  0  0  0
  159.4990  211.8070  152.3770 O   0  0  0  0  0  0  0  0  0  0  0  0
  161.8160  212.4150  147.9950 C   0  0  0  0  0  3  0  0  0  0  0  0
  160.9000  213.4050  147.8430 C   0  0  0  0  0  0  0  0  0  0  0  0
  162.3460  210.0620  150.7690 N   0  0  0  0  0  0  0  0  0  0  0  0
  159.6330  213.2160  150.0050 C   0  0  0  0  0  3  0  0  0  0  0  0
  158.3100  211.5150  155.8520 C   0  0  0  0  0  0  0  0  0  0  0  0
  159.8670  213.7850  148.7940 C   0  0  0  0  0  0  0  0  0  0  0  0
  157.2420  211.2720  156.4710 O   0  0  0  0  0  0  0  0  0  0  0  0
  160.5730  212.1440  150.2400 C   0  0  0  0  0  0  0  0  0  0  0  0
  161.3140  209.5760  152.8910 N   0  0  0  0  0  0  0  0  0  0  0  0
  160.0090  214.4530  147.5700 C   0  0  0  0  0  2  0  0  0  0  0  0
  161.6220  211.7670  149.2660 C   0  0  0  0  0  0  0  0  0  0  0  0
  160.7600  211.4550  154.3460 N   0  0  2  0  0  0  0  0  0  0  0  0
  160.4910  211.4360  151.4500 C   0  0  0  0  0  0  0  0  0  0  0  0
  158.2900  212.0110  154.4550 C   0  0  0  0  0  2  0  0  0  0  0  0
  162.4750  210.7190  149.5910 C   0  0  0  0  0  3  0  0  0  0  0  0
  159.5730  211.3110  156.4690 N   0  0  0  0  0  2  0  0  0  0  0  0
  160.7580  211.8080  155.7790 C   0  0  0  0  0  2  0  0  0  0  0  0
  159.4300  211.3170  153.7090 C   0  0  1  0  0  3  0  0  0  0  0  0
  161.0480  205.3350  152.6190 C   0  0  0  0  0  3  0  0  0  0  0  0
  161.2100  208.1390  152.7990 C   0  0  0  0  0  0  0  0  0  0  0  0
  161.1650  207.3460  153.9600 C   0  0  0  0  0  3  0  0  0  0  0  0
  161.0820  205.9530  153.8710 C   0  0  0  0  0  3  0  0  0  0  0  0
  161.0990  206.1080  151.4570 C   0  0  0  0  0  3  0  0  0  0  0  0
  161.1830  207.5000  151.5470 C   0  0  0  0  0  3  0  0  0  0  0  0
  2 12  1  0  0  0  0
  3 21  1  0  0  0  0
  4 14  1  0  0  0  0
  5  4  2  0  0  0  0
  5  9  1  0  0  0  0
  6  2  2  0  0  0  0
  7 11  1  0  0  0  0
  8 19  1  0  0  0  0
  8 10  2  0  0  0  0
  9  7  2  0  0  0  0
 11 16  2  0  0  0  0
 12  1  1  0  0  0  0
 13  5  1  0  0  0  0
 13  9  1  0  0  0  0
 14 18  2  0  0  0  0
 14 11  1  0  0  0  0
 15  1  1  1  0  0  0
 15 20  1  0  0  0  0
 16  2  1  0  0  0  0
 16  3  1  0  0  0  0
 17  8  1  0  0  0  0
 18  6  1  0  0  0  0
 20 19  1  0  0  0  0
 21 15  1  0  0  0  0
 21 17  1  1  0  0  0
 22 25  1  0  0  0  0
 23 12  1  0  0  0  0
 23 24  1  0  0  0  0
 25 24  2  0  0  0  0
 26 27  1  0  0  0  0
 26 22  2  0  0  0  0
 27 23  2  0  0  0  0
M  END
>  <MODEL>
3

>  <REMARK>
 VINA RESULT:      -5.9      2.432      4.245
  Name = 
  1 active torsions:
  status: ('A' for Active; 'I' for Inactive)
    1  A    between atoms: C_9  and  N_15
                            x       y       z     vdW  Elec       q    Type
                         _______ _______ _______ _____ _____    ______ ____

>  <TORSDO>
F 1

$$$$
=
 OpenBabel11052423133D

 27 32  0  0  1  0  0  0  0  0999 V2000
  161.6550  210.9340  137.3880 C   0  0  0  0  0  2  0  0  0  0  0  0
  159.3830  210.1600  138.1700 C   0  0  0  0  0  0  0  0  0  0  0  0
  159.6370  212.3000  139.3860 O   0  0  0  0  0  0  0  0  0  0  0  0
  155.1480  210.3480  138.3990 C   0  0  0  0  0  3  0  0  0  0  0  0
  154.7120  211.4540  139.0540 C   0  0  0  0  0  0  0  0  0  0  0  0
  158.5610  209.2080  137.6490 N   0  0  0  0  0  0  0  0  0  0  0  0
  156.8960  212.5550  139.6300 C   0  0  0  0  0  3  0  0  0  0  0  0
  163.0040  213.7890  139.5240 C   0  0  0  0  0  0  0  0  0  0  0  0
  155.5400  212.5000  139.6360 C   0  0  0  0  0  0  0  0  0  0  0  0
  163.8300  214.1850  140.3860 O   0  0  0  0  0  0  0  0  0  0  0  0
  157.4380  211.4020  138.9470 C   0  0  0  0  0  0  0  0  0  0  0  0
  160.8070  209.9590  138.0900 N   0  0  0  0  0  0  0  0  0  0  0  0
  154.1410  212.5550  139.7080 C   0  0  0  0  0  2  0  0  0  0  0  0
  156.5860  210.3450  138.3560 C   0  0  0  0  0  0  0  0  0  0  0  0
  161.3150  212.3170  137.7210 N   0  0  2  0  0  0  0  0  0  0  0  0
  158.8330  211.2870  138.8330 C   0  0  0  0  0  0  0  0  0  0  0  0
  161.5590  213.6860  139.8390 C   0  0  0  0  0  2  0  0  0  0  0  0
  157.2100  209.2770  137.7220 C   0  0  0  0  0  3  0  0  0  0  0  0
  163.4310  213.4140  138.2230 N   0  0  0  0  0  2  0  0  0  0  0  0
  162.4070  213.1680  137.2130 C   0  0  0  0  0  2  0  0  0  0  0  0
  161.0370  212.4130  139.1720 C   0  0  1  0  0  3  0  0  0  0  0  0
  162.5160  206.3110  139.4710 C   0  0  0  0  0  3  0  0  0  0  0  0
  161.3990  208.7270  138.5570 C   0  0  0  0  0  0  0  0  0  0  0  0
  161.7740  207.7200  137.6490 C   0  0  0  0  0  3  0  0  0  0  0  0
  162.3310  206.5210  138.1030 C   0  0  0  0  0  3  0  0  0  0  0  0
  162.1410  207.2990  140.3860 C   0  0  0  0  0  3  0  0  0  0  0  0
  161.5850  208.4970  139.9310 C   0  0  0  0  0  3  0  0  0  0  0  0
  1 15  1  0  0  0  0
  1 12  1  0  0  0  0
  2 16  1  0  0  0  0
  4  5  2  0  0  0  0
  5  9  1  0  0  0  0
  5 13  1  0  0  0  0
  6 18  1  0  0  0  0
  6  2  2  0  0  0  0
  7  9  2  0  0  0  0
  8 17  1  0  0  0  0
  8 10  2  0  0  0  0
  9 13  1  0  0  0  0
 11  7  1  0  0  0  0
 12  2  1  0  0  0  0
 12 23  1  0  0  0  0
 14  4  1  0  0  0  0
 14 11  1  0  0  0  0
 15 20  1  1  0  0  0
 15 21  1  0  0  0  0
 16 11  2  0  0  0  0
 16  3  1  0  0  0  0
 18 14  2  0  0  0  0
 19  8  1  0  0  0  0
 20 19  1  0  0  0  0
 21  3  1  0  0  0  0
 21 17  1  6  0  0  0
 22 26  1  0  0  0  0
 23 27  1  0  0  0  0
 24 25  1  0  0  0  0
 24 23  2  0  0  0  0
 25 22  2  0  0  0  0
 27 26  2  0  0  0  0
M  END
>  <MODEL>
4

>  <REMARK>
 VINA RESULT:      -5.6     14.097     15.137
  Name = 
  1 active torsions:
  status: ('A' for Active; 'I' for Inactive)
    1  A    between atoms: C_9  and  N_15
                            x       y       z     vdW  Elec       q    Type
                         _______ _______ _______ _____ _____    ______ ____

>  <TORSDO>
F 1

$$$$
=
 OpenBabel11052423133D

 27 32  0  0  1  0  0  0  0  0999 V2000
  162.2600  210.0890  151.8030 C   0  0  0  0  0  2  0  0  0  0  0  0
  161.2170  207.8370  152.2640 C   0  0  0  0  0  0  0  0  0  0  0  0
  161.0950  207.9570  149.7960 O   0  0  0  0  0  0  0  0  0  0  0  0
  161.1030  203.5930  152.2230 C   0  0  0  0  0  3  0  0  0  0  0  0
  161.0180  203.0890  150.9650 C   0  0  0  0  0  0  0  0  0  0  0  0
  161.2550  207.0750  153.3910 N   0  0  0  0  0  0  0  0  0  0  0  0
  160.9960  205.2030  149.6070 C   0  0  0  0  0  3  0  0  0  0  0  0
  161.6360  211.2450  148.2250 C   0  0  0  0  0  0  0  0  0  0  0  0
  160.9670  203.8510  149.7270 C   0  0  0  0  0  0  0  0  0  0  0  0
  161.0440  212.0300  147.4390 O   0  0  0  0  0  0  0  0  0  0  0  0
  161.0860  205.8150  150.9130 C   0  0  0  0  0  0  0  0  0  0  0  0
  161.1960  209.2710  152.4030 N   0  0  0  0  0  0  0  0  0  0  0  0
  160.9300  202.4490  149.7210 C   0  0  0  0  0  2  0  0  0  0  0  0
  161.1380  205.0310  152.1670 C   0  0  0  0  0  0  0  0  0  0  0  0
  162.5870  209.6750  150.4390 N   0  0  2  0  0  0  0  0  0  0  0  0
  161.1330  207.2170  150.9910 C   0  0  0  0  0  0  0  0  0  0  0  0
  161.3120  209.7990  148.2530 C   0  0  0  0  0  2  0  0  0  0  0  0
  161.2230  205.7200  153.3700 C   0  0  0  0  0  3  0  0  0  0  0  0
  162.6290  211.7230  149.1200 N   0  0  0  0  0  2  0  0  0  0  0  0
  163.4220  210.7380  149.8490 C   0  0  0  0  0  2  0  0  0  0  0  0
  161.3340  209.3550  149.7150 C   0  0  1  0  0  3  0  0  0  0  0  0
  158.3550  211.1800  154.9350 C   0  0  0  0  0  3  0  0  0  0  0  0
  160.2240  209.9080  153.2590 C   0  0  0  0  0  0  0  0  0  0  0  0
  159.3050  210.8370  152.7370 C   0  0  0  0  0  3  0  0  0  0  0  0
  158.3750  211.4660  153.5690 C   0  0  0  0  0  3  0  0  0  0  0  0
  159.2650  210.2660  155.4710 C   0  0  0  0  0  3  0  0  0  0  0  0
  160.1950  209.6360  154.6380 C   0  0  0  0  0  3  0  0  0  0  0  0
  1 12  1  0  0  0  0
  2 12  1  0  0  0  0
  2  6  1  0  0  0  0
  3 16  1  0  0  0  0
  5  4  2  0  0  0  0
  7  9  2  0  0  0  0
  7 11  1  0  0  0  0
  8 17  1  0  0  0  0
  8 19  1  0  0  0  0
  9  5  1  0  0  0  0
 10  8  2  0  0  0  0
 11 16  1  0  0  0  0
 11 14  2  0  0  0  0
 12 23  1  0  0  0  0
 13  9  1  0  0  0  0
 13  5  1  0  0  0  0
 14  4  1  0  0  0  0
 14 18  1  0  0  0  0
 15 20  1  6  0  0  0
 15  1  1  0  0  0  0
 16  2  2  0  0  0  0
 18  6  2  0  0  0  0
 19 20  1  0  0  0  0
 21 17  1  6  0  0  0
 21  3  1  0  0  0  0
 21 15  1  0  0  0  0
 22 26  1  0  0  0  0
 23 27  1  0  0  0  0
 24 23  2  0  0  0  0
 24 25  1  0  0  0  0
 25 22  2  0  0  0  0
 27 26  2  0  0  0  0
M  END
>  <MODEL>
5

>  <REMARK>
 VINA RESULT:      -5.5      3.053      7.809
  Name = 
  1 active torsions:
  status: ('A' for Active; 'I' for Inactive)
    1  A    between atoms: C_9  and  N_15
                            x       y       z     vdW  Elec       q    Type
                         _______ _______ _______ _____ _____    ______ ____

>  <TORSDO>
F 1

$$$$
=
 OpenBabel11052423133D

 27 32  0  0  1  0  0  0  0  0999 V2000
  161.3840  211.1660  138.2670 C   0  0  0  0  0  2  0  0  0  0  0  0
  159.1450  210.0010  138.2150 C   0  0  0  0  0  0  0  0  0  0  0  0
  158.7740  211.7370  139.9390 O   0  0  0  0  0  0  0  0  0  0  0  0
  154.9940  209.7270  137.3680 C   0  0  0  0  0  3  0  0  0  0  0  0
  154.2520  210.5650  138.1360 C   0  0  0  0  0  0  0  0  0  0  0  0
  158.6250  209.1580  137.2820 N   0  0  0  0  0  0  0  0  0  0  0  0
  156.0450  211.6610  139.5130 C   0  0  0  0  0  3  0  0  0  0  0  0
  161.7430  213.4330  141.3110 C   0  0  0  0  0  0  0  0  0  0  0  0
  154.7490  211.4810  139.1510 C   0  0  0  0  0  0  0  0  0  0  0  0
  162.2780  213.6500  142.4290 O   0  0  0  0  0  0  0  0  0  0  0  0
  156.9030  210.7960  138.7350 C   0  0  0  0  0  0  0  0  0  0  0  0
  160.5640  209.9620  138.4620 N   0  0  0  0  0  0  0  0  0  0  0  0
  153.3800  211.3850  138.8670 C   0  0  0  0  0  2  0  0  0  0  0  0
  156.3860  209.8690  137.7030 C   0  0  0  0  0  0  0  0  0  0  0  0
  160.7630  212.3670  138.8260 N   0  0  2  0  0  0  0  0  0  0  0  0
  158.2880  210.8450  138.9650 C   0  0  0  0  0  0  0  0  0  0  0  0
  160.2990  213.1150  141.2020 C   0  0  0  0  0  2  0  0  0  0  0  0
  157.2990  209.0800  137.0130 C   0  0  0  0  0  3  0  0  0  0  0  0
  162.5090  213.4730  140.1160 N   0  0  0  0  0  2  0  0  0  0  0  0
  161.7930  213.4220  138.8450 C   0  0  0  0  0  2  0  0  0  0  0  0
  160.1500  212.0330  140.1330 C   0  0  1  0  0  3  0  0  0  0  0  0
  162.5370  206.2870  139.3180 C   0  0  0  0  0  3  0  0  0  0  0  0
  161.2210  208.7090  138.7530 C   0  0  0  0  0  0  0  0  0  0  0  0
  161.4080  208.2870  140.0820 C   0  0  0  0  0  3  0  0  0  0  0  0
  162.0600  207.0820  140.3620 C   0  0  0  0  0  3  0  0  0  0  0  0
  162.3660  206.6960  137.9940 C   0  0  0  0  0  3  0  0  0  0  0  0
  161.7140  207.9010  137.7140 C   0  0  0  0  0  3  0  0  0  0  0  0
  1 12  1  0  0  0  0
  2 12  1  0  0  0  0
  2 16  1  0  0  0  0
  3 21  1  0  0  0  0
  4 14  1  0  0  0  0
  4  5  2  0  0  0  0
  5 13  1  0  0  0  0
  5  9  1  0  0  0  0
  6  2  2  0  0  0  0
  8 10  2  0  0  0  0
  9  7  2  0  0  0  0
 11 16  2  0  0  0  0
 11  7  1  0  0  0  0
 12 23  1  0  0  0  0
 13  9  1  0  0  0  0
 14 11  1  0  0  0  0
 15  1  1  1  0  0  0
 15 20  1  0  0  0  0
 15 21  1  0  0  0  0
 16  3  1  0  0  0  0
 17  8  1  0  0  0  0
 18  6  1  0  0  0  0
 18 14  2  0  0  0  0
 19  8  1  0  0  0  0
 20 19  1  0  0  0  0
 21 17  1  1  0  0  0
 22 25  1  0  0  0  0
 23 24  1  0  0  0  0
 24 25  2  0  0  0  0
 26 22  2  0  0  0  0
 27 26  1  0  0  0  0
 27 23  2  0  0  0  0
M  END
>  <MODEL>
6

>  <REMARK>
 VINA RESULT:      -5.4     13.036     14.797
  Name = 
  1 active torsions:
  status: ('A' for Active; 'I' for Inactive)
    1  A    between atoms: C_9  and  N_15
                            x       y       z     vdW  Elec       q    Type
                         _______ _______ _______ _____ _____    ______ ____

>  <TORSDO>
F 1

$$$$
=
 OpenBabel11052423133D

 27 32  0  0  1  0  0  0  0  0999 V2000
  162.5950  210.3800  139.5790 C   0  0  0  0  0  2  0  0  0  0  0  0
  162.2200  212.3240  141.1450 C   0  0  0  0  0  0  0  0  0  0  0  0
  159.9200  211.4640  140.8450 O   0  0  0  0  0  0  0  0  0  0  0  0
  161.2420  214.0980  144.8770 C   0  0  0  0  0  3  0  0  0  0  0  0
  159.9420  213.9050  145.2170 C   0  0  0  0  0  0  0  0  0  0  0  0
  163.1150  213.0140  141.9050 N   0  0  0  0  0  0  0  0  0  0  0  0
  159.1270  212.5760  143.2470 C   0  0  0  0  0  3  0  0  0  0  0  0
  159.3310  209.1160  138.0680 C   0  0  0  0  0  0  0  0  0  0  0  0
  158.9410  213.1840  144.4460 C   0  0  0  0  0  0  0  0  0  0  0  0
  158.5880  209.0080  137.0590 O   0  0  0  0  0  0  0  0  0  0  0  0
  160.4960  212.7400  142.8140 C   0  0  0  0  0  0  0  0  0  0  0  0
  162.6490  211.8210  139.8650 N   0  0  0  0  0  0  0  0  0  0  0  0
  158.6250  213.7730  145.6790 C   0  0  0  0  0  2  0  0  0  0  0  0
  161.5070  213.4740  143.6070 C   0  0  0  0  0  0  0  0  0  0  0  0
  161.3420  209.7660  140.0190 N   0  0  2  0  0  0  0  0  0  0  0  0
  160.8820  212.1700  141.5890 C   0  0  0  0  0  0  0  0  0  0  0  0
  158.9490  209.9750  139.2140 C   0  0  0  0  0  2  0  0  0  0  0  0
  162.7960  213.5740  143.0970 C   0  0  0  0  0  3  0  0  0  0  0  0
  160.5690  208.4240  138.1380 N   0  0  0  0  0  2  0  0  0  0  0  0
  161.2790  208.4220  139.4130 C   0  0  0  0  0  2  0  0  0  0  0  0
  160.2170  210.6750  139.7010 C   0  0  1  0  0  3  0  0  0  0  0  0
  164.5020  214.4420  137.0680 C   0  0  0  0  0  3  0  0  0  0  0  0
  163.2780  212.6990  138.9080 C   0  0  0  0  0  0  0  0  0  0  0  0
  164.6760  212.8580  138.8880 C   0  0  0  0  0  3  0  0  0  0  0  0
  165.2840  213.7210  137.9720 C   0  0  0  0  0  3  0  0  0  0  0  0
  163.1120  214.3020  137.0790 C   0  0  0  0  0  3  0  0  0  0  0  0
  162.5050  213.4380  137.9950 C   0  0  0  0  0  3  0  0  0  0  0  0
  1 12  1  0  0  0  0
  1 15  1  0  0  0  0
  2 16  2  0  0  0  0
  2  6  1  0  0  0  0
  3 16  1  0  0  0  0
  4  5  1  0  0  0  0
  5 13  1  0  0  0  0
  6 18  2  0  0  0  0
  7  9  1  0  0  0  0
  8 19  1  0  0  0  0
  8 17  1  0  0  0  0
  9  5  2  0  0  0  0
  9 13  1  0  0  0  0
 10  8  2  0  0  0  0
 11  7  2  0  0  0  0
 11 14  1  0  0  0  0
 12  2  1  0  0  0  0
 14  4  2  0  0  0  0
 15 20  1  6  0  0  0
 16 11  1  0  0  0  0
 18 14  1  0  0  0  0
 19 20  1  0  0  0  0
 21 17  1  1  0  0  0
 21 15  1  0  0  0  0
 21  3  1  0  0  0  0
 22 26  2  0  0  0  0
 22 25  1  0  0  0  0
 23 12  1  0  0  0  0
 24 23  1  0  0  0  0
 25 24  2  0  0  0  0
 26 27  1  0  0  0  0
 27 23  2  0  0  0  0
M  END
>  <MODEL>
7

>  <REMARK>
 VINA RESULT:      -5.2     10.742     13.656
  Name = 
  1 active torsions:
  status: ('A' for Active; 'I' for Inactive)
    1  A    between atoms: C_9  and  N_15
                            x       y       z     vdW  Elec       q    Type
                         _______ _______ _______ _____ _____    ______ ____

>  <TORSDO>
F 1

$$$$
=
 OpenBabel11052423133D

 27 32  0  0  1  0  0  0  0  0999 V2000
  162.6730  210.7730  150.8520 C   0  0  0  0  0  2  0  0  0  0  0  0
  161.7040  208.4930  151.3360 C   0  0  0  0  0  0  0  0  0  0  0  0
  161.1540  208.7800  148.9410 O   0  0  0  0  0  0  0  0  0  0  0  0
  161.5420  204.2610  151.0320 C   0  0  0  0  0  3  0  0  0  0  0  0
  161.2330  203.8430  149.7780 C   0  0  0  0  0  0  0  0  0  0  0  0
  161.9300  207.6570  152.3860 N   0  0  0  0  0  0  0  0  0  0  0  0
  160.9960  206.0440  148.5890 C   0  0  0  0  0  3  0  0  0  0  0  0
  161.4460  212.1670  147.5230 C   0  0  0  0  0  0  0  0  0  0  0  0
  160.9750  204.6870  148.6210 C   0  0  0  0  0  0  0  0  0  0  0  0
  160.7330  213.0020  146.9070 O   0  0  0  0  0  0  0  0  0  0  0  0
  161.3180  206.5670  149.8970 C   0  0  0  0  0  0  0  0  0  0  0  0
  161.7220  209.9140  151.5730 N   0  0  0  0  0  0  0  0  0  0  0  0
  160.9220  203.2890  148.5280 C   0  0  0  0  0  2  0  0  0  0  0  0
  161.5810  205.6990  151.0670 C   0  0  0  0  0  0  0  0  0  0  0  0
  162.7520  210.4520  149.4270 N   0  0  2  0  0  0  0  0  0  0  0  0
  161.3930  207.9600  150.0600 C   0  0  0  0  0  0  0  0  0  0  0  0
  161.1170  210.7220  147.5100 C   0  0  0  0  0  2  0  0  0  0  0  0
  161.8810  206.3060  152.2810 C   0  0  0  0  0  3  0  0  0  0  0  0
  162.5850  212.5850  148.2610 N   0  0  0  0  0  2  0  0  0  0  0  0
  163.4820  211.5550  148.7730 C   0  0  0  0  0  2  0  0  0  0  0  0
  161.3900  210.1800  148.9140 C   0  0  1  0  0  3  0  0  0  0  0  0
  159.3710  211.6510  154.6690 C   0  0  0  0  0  3  0  0  0  0  0  0
  160.9200  210.4900  152.6260 C   0  0  0  0  0  0  0  0  0  0  0  0
  159.5900  210.8790  152.3860 C   0  0  0  0  0  3  0  0  0  0  0  0
  158.8200  211.4530  153.4020 C   0  0  0  0  0  3  0  0  0  0  0  0
  160.6930  211.2770  154.9210 C   0  0  0  0  0  3  0  0  0  0  0  0
  161.4630  210.7030  153.9050 C   0  0  0  0  0  3  0  0  0  0  0  0
  1 12  1  0  0  0  0
  2 12  1  0  0  0  0
  2  6  1  0  0  0  0
  3 16  1  0  0  0  0
  4 14  1  0  0  0  0
  5  4  2  0  0  0  0
  7  9  2  0  0  0  0
  7 11  1  0  0  0  0
  8 19  1  0  0  0  0
  9  5  1  0  0  0  0
 10  8  2  0  0  0  0
 11 16  1  0  0  0  0
 11 14  2  0  0  0  0
 12 23  1  0  0  0  0
 13  9  1  0  0  0  0
 13  5  1  0  0  0  0
 14 18  1  0  0  0  0
 15 20  1  6  0  0  0
 15  1  1  0  0  0  0
 16  2  2  0  0  0  0
 17  8  1  0  0  0  0
 18  6  2  0  0  0  0
 19 20  1  0  0  0  0
 21 17  1  6  0  0  0
 21  3  1  0  0  0  0
 21 15  1  0  0  0  0
 22 26  1  0  0  0  0
 23 27  1  0  0  0  0
 24 23  2  0  0  0  0
 24 25  1  0  0  0  0
 25 22  2  0  0  0  0
 27 26  2  0  0  0  0
M  END
>  <MODEL>
8

>  <REMARK>
 VINA RESULT:      -5.0      3.215      7.910
  Name = 
  1 active torsions:
  status: ('A' for Active; 'I' for Inactive)
    1  A    between atoms: C_9  and  N_15
                            x       y       z     vdW  Elec       q    Type
                         _______ _______ _______ _____ _____    ______ ____

>  <TORSDO>
F 1

$$$$
