=
 OpenBabel11052422183D

 25 27  0  0  1  0  0  0  0  0999 V2000
  161.7480  204.7470  150.0080 C   0  0  1  0  0  3  0  0  0  0  0  0
  160.7350  205.8010  150.3630 C   0  0  2  0  0  3  0  0  0  0  0  0
  161.9800  203.9650  151.1650 O   0  0  0  0  0  0  0  0  0  0  0  0
  161.5830  204.7020  152.2560 N   0  0  0  0  0  2  0  0  0  0  0  0
  160.8510  207.0420  152.3130 C   0  0  0  0  0  0  0  0  0  0  0  0
  160.8610  207.2740  153.5510 O   0  0  0  0  0  0  0  0  0  0  0  0
  162.4500  207.3330  149.5500 O   0  0  0  0  0  1  0  0  0  0  0  0
  160.8950  208.0840  151.2680 C   0  0  2  0  0  3  0  0  0  0  0  0
  161.1200  207.2540  149.9860 C   0  0  2  0  0  3  0  0  0  0  0  0
  160.7710  205.7360  151.7810 N   0  0  0  0  0  0  0  0  0  0  0  0
  161.6220  204.1480  147.5310 N   0  0  0  0  0  0  0  0  0  0  0  0
  162.1700  204.8130  144.8950 O   0  0  0  0  0  0  0  0  0  0  0  0
  161.0880  203.3260  146.4430 C   0  0  0  0  0  2  0  0  0  0  0  0
  160.9460  204.1850  145.1870 C   0  0  0  0  0  2  0  0  0  0  0  0
  162.3630  205.7920  145.8890 C   0  0  0  0  0  2  0  0  0  0  0  0
  161.2320  203.8900  148.8890 C   0  0  0  0  0  0  0  0  0  0  0  0
  160.4090  202.9690  149.1450 O   0  0  0  0  0  0  0  0  0  0  0  0
  162.6730  205.1190  147.2260 C   0  0  0  0  0  2  0  0  0  0  0  0
  162.1990  209.3200  151.6070 S   0  0  0  0  0  0  0  0  0  0  0  0
  160.9780  210.6260  151.9400 C   0  0  0  0  0  2  0  0  0  0  0  0
  160.7350  210.7350  153.4100 C   0  0  0  0  0  0  0  0  0  0  0  0
  162.0030  210.4840  154.4220 S   0  0  0  0  0  0  0  0  0  0  0  0
  159.4100  210.9840  153.9190 N   0  0  0  0  0  0  0  0  0  0  0  0
  158.3970  211.6100  153.0840 C   0  0  0  0  0  1  0  0  0  0  0  0
  159.0330  210.6250  155.2800 C   0  0  0  0  0  1  0  0  0  0  0  0
  1 16  1  6  0  0  0
  1  2  1  0  0  0  0
  1  3  1  0  0  0  0
  2 10  1  1  0  0  0
  3  4  1  0  0  0  0
  5  6  2  0  0  0  0
  8 19  1  1  0  0  0
  8  5  1  0  0  0  0
  9  7  1  1  0  0  0
  9  2  1  0  0  0  0
  9  8  1  0  0  0  0
 10  4  1  0  0  0  0
 10  5  1  0  0  0  0
 11 16  1  0  0  0  0
 12 14  1  0  0  0  0
 12 15  1  0  0  0  0
 13 11  1  0  0  0  0
 14 13  1  0  0  0  0
 15 18  1  0  0  0  0
 16 17  2  0  0  0  0
 18 11  1  0  0  0  0
 19 20  1  0  0  0  0
 20 21  1  0  0  0  0
 21 23  1  0  0  0  0
 21 22  2  0  0  0  0
 23 25  1  0  0  0  0
 24 23  1  0  0  0  0
M  END
>  <MODEL>
1

>  <REMARK>
 VINA RESULT:      -6.4      0.000      0.000
  Name = 
  5 active torsions:
  status: ('A' for Active; 'I' for Inactive)
    1  A    between atoms: C_1  and  C_18
    2  A    between atoms: N_2  and  C_21
    3  A    between atoms: S_6  and  C_15
    4  A    between atoms: S_6  and  C_20
    5  A    between atoms: C_15  and  C_21
                            x       y       z     vdW  Elec       q    Type
                         _______ _______ _______ _____ _____    ______ ____

>  <TORSDO>
F 5

$$$$
=
 OpenBabel11052422183D

 25 27  0  0  1  0  0  0  0  0999 V2000
  160.5620  205.6150  150.6560 C   0  0  1  0  0  3  0  0  0  0  0  0
  161.8110  206.4340  150.8320 C   0  0  2  0  0  3  0  0  0  0  0  0
  160.1790  205.7000  149.2950 O   0  0  0  0  0  0  0  0  0  0  0  0
  160.7750  206.8190  148.7610 N   0  0  0  0  0  2  0  0  0  0  0  0
  162.0570  208.5510  149.9300 C   0  0  0  0  0  0  0  0  0  0  0  0
  162.1400  209.4400  149.0410 O   0  0  0  0  0  0  0  0  0  0  0  0
  160.4990  207.5620  152.5510 O   0  0  0  0  0  1  0  0  0  0  0  0
  162.2390  208.7960  151.3750 C   0  0  2  0  0  3  0  0  0  0  0  0
  161.7810  207.4590  151.9950 C   0  0  2  0  0  3  0  0  0  0  0  0
  161.8010  207.1950  149.6330 N   0  0  0  0  0  0  0  0  0  0  0  0
  161.0980  203.1990  150.0370 N   0  0  0  0  0  0  0  0  0  0  0  0
  161.3740  201.2520  148.0810 O   0  0  0  0  0  0  0  0  0  0  0  0
  161.3160  201.8030  150.4210 C   0  0  0  0  0  2  0  0  0  0  0  0
  160.7950  200.8880  149.3110 C   0  0  0  0  0  2  0  0  0  0  0  0
  160.8030  202.4890  147.7230 C   0  0  0  0  0  2  0  0  0  0  0  0
  160.8200  204.1880  151.0400 C   0  0  0  0  0  0  0  0  0  0  0  0
  160.7400  203.8510  152.2540 O   0  0  0  0  0  0  0  0  0  0  0  0
  161.3280  203.5880  148.6460 C   0  0  0  0  0  2  0  0  0  0  0  0
  161.2860  210.2530  151.9340 S   0  0  0  0  0  0  0  0  0  0  0  0
  162.2150  210.3560  153.4930 C   0  0  0  0  0  2  0  0  0  0  0  0
  161.2990  210.1240  154.6510 C   0  0  0  0  0  0  0  0  0  0  0  0
  159.8120  210.8170  154.6070 S   0  0  0  0  0  0  0  0  0  0  0  0
  161.7410  209.3740  155.7990 N   0  0  0  0  0  0  0  0  0  0  0  0
  162.6400  209.9700  156.7760 C   0  0  0  0  0  1  0  0  0  0  0  0
  161.3150  208.0000  156.0270 C   0  0  0  0  0  1  0  0  0  0  0  0
  1  2  1  0  0  0  0
  1 16  1  6  0  0  0
  2 10  1  6  0  0  0
  2  9  1  0  0  0  0
  3  1  1  0  0  0  0
  4  3  1  0  0  0  0
  4 10  1  0  0  0  0
  5  8  1  0  0  0  0
  6  5  2  0  0  0  0
  8 19  1  1  0  0  0
  8  9  1  0  0  0  0
  9  7  1  6  0  0  0
 10  5  1  0  0  0  0
 11 13  1  0  0  0  0
 11 16  1  0  0  0  0
 12 14  1  0  0  0  0
 14 13  1  0  0  0  0
 15 12  1  0  0  0  0
 15 18  1  0  0  0  0
 16 17  2  0  0  0  0
 18 11  1  0  0  0  0
 19 20  1  0  0  0  0
 20 21  1  0  0  0  0
 21 23  1  0  0  0  0
 22 21  2  0  0  0  0
 23 25  1  0  0  0  0
 23 24  1  0  0  0  0
M  END
>  <MODEL>
2

>  <REMARK>
 VINA RESULT:      -6.0      2.384      3.358
  Name = 
  5 active torsions:
  status: ('A' for Active; 'I' for Inactive)
    1  A    between atoms: C_1  and  C_18
    2  A    between atoms: N_2  and  C_21
    3  A    between atoms: S_6  and  C_15
    4  A    between atoms: S_6  and  C_20
    5  A    between atoms: C_15  and  C_21
                            x       y       z     vdW  Elec       q    Type
                         _______ _______ _______ _____ _____    ______ ____

>  <TORSDO>
F 5

$$$$
=
 OpenBabel11052422183D

 25 27  0  0  1  0  0  0  0  0999 V2000
  162.2540  207.3460  151.3130 C   0  0  1  0  0  3  0  0  0  0  0  0
  161.0210  207.9260  151.9490 C   0  0  2  0  0  3  0  0  0  0  0  0
  162.6080  206.1840  152.0400 O   0  0  0  0  0  0  0  0  0  0  0  0
  162.0170  206.2670  153.2790 N   0  0  0  0  0  2  0  0  0  0  0  0
  160.7840  208.1560  154.2400 C   0  0  0  0  0  0  0  0  0  0  0  0
  160.6950  207.8060  155.4470 O   0  0  0  0  0  0  0  0  0  0  0  0
  162.3860  209.9410  152.1120 O   0  0  0  0  0  1  0  0  0  0  0  0
  160.6370  209.5460  153.7620 C   0  0  2  0  0  3  0  0  0  0  0  0
  161.0900  209.4370  152.2900 C   0  0  2  0  0  3  0  0  0  0  0  0
  161.0150  207.2390  153.1920 N   0  0  0  0  0  0  0  0  0  0  0  0
  161.4120  205.7380  149.5210 N   0  0  0  0  0  0  0  0  0  0  0  0
  160.5510  203.1950  148.8250 O   0  0  0  0  0  0  0  0  0  0  0  0
  161.1830  205.4030  148.1140 C   0  0  0  0  0  2  0  0  0  0  0  0
  161.3670  203.8980  147.9190 C   0  0  0  0  0  2  0  0  0  0  0  0
  161.1160  203.3880  150.1010 C   0  0  0  0  0  2  0  0  0  0  0  0
  161.9850  207.0060  149.8770 C   0  0  0  0  0  0  0  0  0  0  0  0
  162.3160  207.8250  148.9750 O   0  0  0  0  0  0  0  0  0  0  0  0
  160.9000  204.8330  150.5500 C   0  0  0  0  0  2  0  0  0  0  0  0
  161.6220  210.7110  154.7700 S   0  0  0  0  0  0  0  0  0  0  0  0
  160.2750  211.9310  154.8110 C   0  0  0  0  0  2  0  0  0  0  0  0
  159.2960  211.5750  155.8830 C   0  0  0  0  0  0  0  0  0  0  0  0
  159.8740  210.8970  157.2610 S   0  0  0  0  0  0  0  0  0  0  0  0
  157.8810  211.7600  155.6750 N   0  0  0  0  0  0  0  0  0  0  0  0
  156.9740  211.8910  156.8050 C   0  0  0  0  0  1  0  0  0  0  0  0
  157.3050  211.8180  154.3390 C   0  0  0  0  0  1  0  0  0  0  0  0
  1 16  1  6  0  0  0
  1  2  1  0  0  0  0
  1  3  1  0  0  0  0
  2  9  1  0  0  0  0
  2 10  1  1  0  0  0
  3  4  1  0  0  0  0
  5  6  2  0  0  0  0
  8  5  1  0  0  0  0
  8 19  1  1  0  0  0
  9  7  1  1  0  0  0
  9  8  1  0  0  0  0
 10  4  1  0  0  0  0
 10  5  1  0  0  0  0
 11 16  1  0  0  0  0
 11 18  1  0  0  0  0
 12 15  1  0  0  0  0
 13 11  1  0  0  0  0
 14 13  1  0  0  0  0
 14 12  1  0  0  0  0
 15 18  1  0  0  0  0
 17 16  2  0  0  0  0
 19 20  1  0  0  0  0
 20 21  1  0  0  0  0
 21 22  2  0  0  0  0
 23 21  1  0  0  0  0
 23 24  1  0  0  0  0
 25 23  1  0  0  0  0
M  END
>  <MODEL>
3

>  <REMARK>
 VINA RESULT:      -6.0      1.967      3.238
  Name = 
  5 active torsions:
  status: ('A' for Active; 'I' for Inactive)
    1  A    between atoms: C_1  and  C_18
    2  A    between atoms: N_2  and  C_21
    3  A    between atoms: S_6  and  C_15
    4  A    between atoms: S_6  and  C_20
    5  A    between atoms: C_15  and  C_21
                            x       y       z     vdW  Elec       q    Type
                         _______ _______ _______ _____ _____    ______ ____

>  <TORSDO>
F 5

$$$$
=
 OpenBabel11052422183D

 25 27  0  0  1  0  0  0  0  0999 V2000
  161.7760  204.8310  149.9910 C   0  0  1  0  0  3  0  0  0  0  0  0
  160.7840  205.9250  150.2720 C   0  0  2  0  0  3  0  0  0  0  0  0
  161.9960  204.1270  151.2010 O   0  0  0  0  0  0  0  0  0  0  0  0
  161.6150  204.9460  152.2380 N   0  0  0  0  0  2  0  0  0  0  0  0
  160.9260  207.2970  152.1320 C   0  0  0  0  0  0  0  0  0  0  0  0
  160.9420  207.6150  153.3510 O   0  0  0  0  0  0  0  0  0  0  0  0
  162.5250  207.3650  149.3540 O   0  0  0  0  0  1  0  0  0  0  0  0
  160.9870  208.2630  151.0160 C   0  0  2  0  0  3  0  0  0  0  0  0
  161.1950  207.3410  149.7950 C   0  0  2  0  0  3  0  0  0  0  0  0
  160.8210  205.9590  151.6920 N   0  0  0  0  0  0  0  0  0  0  0  0
  161.6350  204.0630  147.5620 N   0  0  0  0  0  0  0  0  0  0  0  0
  162.1890  204.5330  144.8860 O   0  0  0  0  0  0  0  0  0  0  0  0
  161.0830  203.1780  146.5350 C   0  0  0  0  0  2  0  0  0  0  0  0
  160.9530  203.9490  145.2220 C   0  0  0  0  0  2  0  0  0  0  0  0
  162.4010  205.5750  145.8090 C   0  0  0  0  0  2  0  0  0  0  0  0
  161.2430  203.9070  148.9350 C   0  0  0  0  0  0  0  0  0  0  0  0
  160.4040  203.0210  149.2560 O   0  0  0  0  0  0  0  0  0  0  0  0
  162.7020  204.9910  147.1890 C   0  0  0  0  0  2  0  0  0  0  0  0
  162.3140  209.4950  151.2670 S   0  0  0  0  0  0  0  0  0  0  0  0
  161.1310  210.8760  151.2790 C   0  0  0  0  0  2  0  0  0  0  0  0
  161.2720  211.6810  150.0280 C   0  0  0  0  0  0  0  0  0  0  0  0
  162.1630  211.0510  148.8020 S   0  0  0  0  0  0  0  0  0  0  0  0
  160.7000  213.0000  149.9360 N   0  0  0  0  0  0  0  0  0  0  0  0
  161.0740  213.9000  148.8550 C   0  0  0  0  0  1  0  0  0  0  0  0
  159.7350  213.4860  150.9130 C   0  0  0  0  0  1  0  0  0  0  0  0
  1 16  1  6  0  0  0
  1  2  1  0  0  0  0
  1  3  1  0  0  0  0
  2 10  1  1  0  0  0
  3  4  1  0  0  0  0
  5  6  2  0  0  0  0
  8 19  1  1  0  0  0
  8  5  1  0  0  0  0
  9  7  1  1  0  0  0
  9  2  1  0  0  0  0
  9  8  1  0  0  0  0
 10  5  1  0  0  0  0
 10  4  1  0  0  0  0
 11 16  1  0  0  0  0
 12 14  1  0  0  0  0
 12 15  1  0  0  0  0
 13 11  1  0  0  0  0
 14 13  1  0  0  0  0
 15 18  1  0  0  0  0
 16 17  2  0  0  0  0
 18 11  1  0  0  0  0
 19 20  1  0  0  0  0
 21 20  1  0  0  0  0
 22 21  2  0  0  0  0
 23 21  1  0  0  0  0
 23 25  1  0  0  0  0
 24 23  1  0  0  0  0
M  END
>  <MODEL>
4

>  <REMARK>
 VINA RESULT:      -5.7      1.667      2.243
  Name = 
  5 active torsions:
  status: ('A' for Active; 'I' for Inactive)
    1  A    between atoms: C_1  and  C_18
    2  A    between atoms: N_2  and  C_21
    3  A    between atoms: S_6  and  C_15
    4  A    between atoms: S_6  and  C_20
    5  A    between atoms: C_15  and  C_21
                            x       y       z     vdW  Elec       q    Type
                         _______ _______ _______ _____ _____    ______ ____

>  <TORSDO>
F 5

$$$$
=
 OpenBabel11052422183D

 25 27  0  0  1  0  0  0  0  0999 V2000
  161.0350  206.0550  148.6580 C   0  0  1  0  0  3  0  0  0  0  0  0
  162.0860  206.4090  149.6730 C   0  0  2  0  0  3  0  0  0  0  0  0
  160.9950  207.0950  147.6980 O   0  0  0  0  0  0  0  0  0  0  0  0
  161.5580  208.2130  148.2670 N   0  0  0  0  0  2  0  0  0  0  0  0
  162.2780  208.5260  150.5900 C   0  0  0  0  0  0  0  0  0  0  0  0
  162.4650  209.7720  150.6260 O   0  0  0  0  0  0  0  0  0  0  0  0
  160.2560  206.1300  151.2610 O   0  0  0  0  0  1  0  0  0  0  0  0
  162.0620  207.6800  151.7810 C   0  0  2  0  0  3  0  0  0  0  0  0
  161.6380  206.3340  151.1550 C   0  0  2  0  0  3  0  0  0  0  0  0
  162.2780  207.7870  149.3870 N   0  0  0  0  0  0  0  0  0  0  0  0
  160.9820  203.5050  148.6090 N   0  0  0  0  0  0  0  0  0  0  0  0
  160.4630  201.1140  149.9150 O   0  0  0  0  0  0  0  0  0  0  0  0
  161.3420  202.2340  147.9780 C   0  0  0  0  0  2  0  0  0  0  0  0
  161.5790  201.1820  149.0620 C   0  0  0  0  0  2  0  0  0  0  0  0
  160.4620  202.3050  150.6680 C   0  0  0  0  0  2  0  0  0  0  0  0
  161.3690  204.7470  148.0020 C   0  0  0  0  0  0  0  0  0  0  0  0
  162.0420  204.7450  146.9340 O   0  0  0  0  0  0  0  0  0  0  0  0
  160.0910  203.4840  149.7700 C   0  0  0  0  0  2  0  0  0  0  0  0
  160.8230  208.4120  152.9090 S   0  0  0  0  0  0  0  0  0  0  0  0
  161.3800  207.3890  154.3050 C   0  0  0  0  0  2  0  0  0  0  0  0
  160.8790  207.9620  155.5910 C   0  0  0  0  0  0  0  0  0  0  0  0
  160.1150  206.9550  156.6380 S   0  0  0  0  0  0  0  0  0  0  0  0
  161.0020  209.3720  155.8640 N   0  0  0  0  0  0  0  0  0  0  0  0
  162.3100  209.9890  156.0210 C   0  0  0  0  0  1  0  0  0  0  0  0
  159.8320  210.2300  155.9970 C   0  0  0  0  0  1  0  0  0  0  0  0
  1 16  1  6  0  0  0
  1  2  1  0  0  0  0
  2 10  1  6  0  0  0
  2  9  1  0  0  0  0
  3  4  1  0  0  0  0
  3  1  1  0  0  0  0
  4 10  1  0  0  0  0
  5  6  2  0  0  0  0
  5  8  1  0  0  0  0
  8 19  1  1  0  0  0
  9  7  1  6  0  0  0
  9  8  1  0  0  0  0
 10  5  1  0  0  0  0
 11 18  1  0  0  0  0
 12 15  1  0  0  0  0
 13 11  1  0  0  0  0
 13 14  1  0  0  0  0
 14 12  1  0  0  0  0
 16 11  1  0  0  0  0
 17 16  2  0  0  0  0
 18 15  1  0  0  0  0
 19 20  1  0  0  0  0
 20 21  1  0  0  0  0
 21 23  1  0  0  0  0
 21 22  2  0  0  0  0
 23 25  1  0  0  0  0
 23 24  1  0  0  0  0
M  END
>  <MODEL>
5

>  <REMARK>
 VINA RESULT:      -5.5      2.462      3.673
  Name = 
  5 active torsions:
  status: ('A' for Active; 'I' for Inactive)
    1  A    between atoms: C_1  and  C_18
    2  A    between atoms: N_2  and  C_21
    3  A    between atoms: S_6  and  C_15
    4  A    between atoms: S_6  and  C_20
    5  A    between atoms: C_15  and  C_21
                            x       y       z     vdW  Elec       q    Type
                         _______ _______ _______ _____ _____    ______ ____

>  <TORSDO>
F 5

$$$$
=
 OpenBabel11052422183D

 25 27  0  0  1  0  0  0  0  0999 V2000
  161.6270  203.4070  149.1800 C   0  0  1  0  0  3  0  0  0  0  0  0
  160.6100  204.2720  149.8720 C   0  0  2  0  0  3  0  0  0  0  0  0
  161.9370  202.3300  150.0460 O   0  0  0  0  0  0  0  0  0  0  0  0
  161.5810  202.7010  151.3210 N   0  0  0  0  0  2  0  0  0  0  0  0
  160.7990  204.8930  152.0940 C   0  0  0  0  0  0  0  0  0  0  0  0
  160.8680  204.7540  153.3440 O   0  0  0  0  0  0  0  0  0  0  0  0
  162.2440  206.0380  149.4700 O   0  0  0  0  0  1  0  0  0  0  0  0
  160.7640  206.1960  151.3990 C   0  0  2  0  0  3  0  0  0  0  0  0
  160.9410  205.7850  149.9210 C   0  0  2  0  0  3  0  0  0  0  0  0
  160.7210  203.7980  151.2060 N   0  0  0  0  0  0  0  0  0  0  0  0
  161.3300  203.5910  146.6520 N   0  0  0  0  0  0  0  0  0  0  0  0
  161.6100  205.0800  144.3290 O   0  0  0  0  0  0  0  0  0  0  0  0
  160.7580  203.1010  145.3970 C   0  0  0  0  0  2  0  0  0  0  0  0
  160.4560  204.2890  144.4840 C   0  0  0  0  0  2  0  0  0  0  0  0
  161.8250  205.7170  145.5670 C   0  0  0  0  0  2  0  0  0  0  0  0
  161.0730  202.8950  147.8820 C   0  0  0  0  0  0  0  0  0  0  0  0
  160.3340  201.8720  147.8860 O   0  0  0  0  0  0  0  0  0  0  0  0
  162.2880  204.6950  146.6040 C   0  0  0  0  0  2  0  0  0  0  0  0
  162.0550  207.3270  152.0280 S   0  0  0  0  0  0  0  0  0  0  0  0
  160.8310  208.5970  152.4710 C   0  0  0  0  0  2  0  0  0  0  0  0
  160.9710  208.9610  153.9140 C   0  0  0  0  0  0  0  0  0  0  0  0
  160.8310  207.7630  155.0280 S   0  0  0  0  0  0  0  0  0  0  0  0
  161.1500  210.3340  154.3110 N   0  0  0  0  0  0  0  0  0  0  0  0
  160.4560  211.4070  153.6160 C   0  0  0  0  0  1  0  0  0  0  0  0
  162.0280  210.7040  155.4130 C   0  0  0  0  0  1  0  0  0  0  0  0
  1 16  1  6  0  0  0
  1  2  1  0  0  0  0
  1  3  1  0  0  0  0
  2  9  1  0  0  0  0
  2 10  1  1  0  0  0
  3  4  1  0  0  0  0
  5  6  2  0  0  0  0
  8 19  1  1  0  0  0
  8  5  1  0  0  0  0
  9  7  1  1  0  0  0
  9  8  1  0  0  0  0
 10  4  1  0  0  0  0
 10  5  1  0  0  0  0
 11 16  1  0  0  0  0
 12 14  1  0  0  0  0
 12 15  1  0  0  0  0
 13 11  1  0  0  0  0
 14 13  1  0  0  0  0
 15 18  1  0  0  0  0
 16 17  2  0  0  0  0
 18 11  1  0  0  0  0
 19 20  1  0  0  0  0
 20 21  1  0  0  0  0
 21 23  1  0  0  0  0
 21 22  2  0  0  0  0
 23 25  1  0  0  0  0
 24 23  1  0  0  0  0
M  END
>  <MODEL>
6

>  <REMARK>
 VINA RESULT:      -5.4      1.618      1.841
  Name = 
  5 active torsions:
  status: ('A' for Active; 'I' for Inactive)
    1  A    between atoms: C_1  and  C_18
    2  A    between atoms: N_2  and  C_21
    3  A    between atoms: S_6  and  C_15
    4  A    between atoms: S_6  and  C_20
    5  A    between atoms: C_15  and  C_21
                            x       y       z     vdW  Elec       q    Type
                         _______ _______ _______ _____ _____    ______ ____

>  <TORSDO>
F 5

$$$$
=
 OpenBabel11052422183D

 25 27  0  0  1  0  0  0  0  0999 V2000
  161.8820  209.3550  152.4130 C   0  0  1  0  0  3  0  0  0  0  0  0
  160.8310  208.5560  151.6940 C   0  0  2  0  0  3  0  0  0  0  0  0
  162.5440  210.1600  151.4540 O   0  0  0  0  0  0  0  0  0  0  0  0
  162.3260  209.6030  150.2160 N   0  0  0  0  0  2  0  0  0  0  0  0
  161.2370  207.4690  149.6910 C   0  0  0  0  0  0  0  0  0  0  0  0
  161.5320  207.3340  148.4740 O   0  0  0  0  0  0  0  0  0  0  0  0
  161.9760  206.6540  152.7020 O   0  0  0  0  0  1  0  0  0  0  0  0
  160.8220  206.3630  150.5770 C   0  0  2  0  0  3  0  0  0  0  0  0
  160.8430  207.0310  151.9690 C   0  0  2  0  0  3  0  0  0  0  0  0
  161.2490  208.7200  150.3460 N   0  0  0  0  0  0  0  0  0  0  0  0
  161.0210  209.6940  154.7910 N   0  0  0  0  0  0  0  0  0  0  0  0
  160.3480  208.6060  157.2520 O   0  0  0  0  0  0  0  0  0  0  0  0
  160.3720  210.5260  155.8060 C   0  0  0  0  0  2  0  0  0  0  0  0
  159.5440  209.6360  156.7320 C   0  0  0  0  0  2  0  0  0  0  0  0
  160.6160  207.7310  156.1810 C   0  0  0  0  0  2  0  0  0  0  0  0
  161.2490  210.2110  153.4710 C   0  0  0  0  0  0  0  0  0  0  0  0
  160.8680  211.3770  153.1750 O   0  0  0  0  0  0  0  0  0  0  0  0
  161.5720  208.3990  155.1930 C   0  0  0  0  0  2  0  0  0  0  0  0
  161.9320  204.9200  150.4150 S   0  0  0  0  0  0  0  0  0  0  0  0
  160.6590  203.9420  149.5620 C   0  0  0  0  0  2  0  0  0  0  0  0
  161.2120  203.3770  148.2930 C   0  0  0  0  0  0  0  0  0  0  0  0
  161.9270  204.4100  147.2370 S   0  0  0  0  0  0  0  0  0  0  0  0
  161.0540  201.9790  147.9810 N   0  0  0  0  0  0  0  0  0  0  0  0
  160.8200  201.5430  146.6130 C   0  0  0  0  0  1  0  0  0  0  0  0
  161.1170  200.9530  149.0130 C   0  0  0  0  0  1  0  0  0  0  0  0
  1 16  1  1  0  0  0
  2 10  1  6  0  0  0
  2  9  1  0  0  0  0
  2  1  1  0  0  0  0
  3  1  1  0  0  0  0
  4 10  1  0  0  0  0
  4  3  1  0  0  0  0
  5 10  1  0  0  0  0
  5  8  1  0  0  0  0
  6  5  2  0  0  0  0
  8 19  1  1  0  0  0
  8  9  1  0  0  0  0
  9  7  1  6  0  0  0
 11 18  1  0  0  0  0
 11 13  1  0  0  0  0
 13 14  1  0  0  0  0
 14 12  1  0  0  0  0
 15 12  1  0  0  0  0
 16 11  1  0  0  0  0
 17 16  2  0  0  0  0
 18 15  1  0  0  0  0
 20 19  1  0  0  0  0
 21 20  1  0  0  0  0
 22 21  2  0  0  0  0
 23 21  1  0  0  0  0
 23 25  1  0  0  0  0
 24 23  1  0  0  0  0
M  END
>  <MODEL>
7

>  <REMARK>
 VINA RESULT:      -5.4      2.927      8.265
  Name = 
  5 active torsions:
  status: ('A' for Active; 'I' for Inactive)
    1  A    between atoms: C_1  and  C_18
    2  A    between atoms: N_2  and  C_21
    3  A    between atoms: S_6  and  C_15
    4  A    between atoms: S_6  and  C_20
    5  A    between atoms: C_15  and  C_21
                            x       y       z     vdW  Elec       q    Type
                         _______ _______ _______ _____ _____    ______ ____

>  <TORSDO>
F 5

$$$$
=
 OpenBabel11052422183D

 25 27  0  0  1  0  0  0  0  0999 V2000
  161.9720  208.0850  151.1280 C   0  0  1  0  0  3  0  0  0  0  0  0
  160.8280  207.3330  150.5070 C   0  0  2  0  0  3  0  0  0  0  0  0
  162.6750  208.7380  150.0860 O   0  0  0  0  0  0  0  0  0  0  0  0
  162.3660  208.1000  148.9080 N   0  0  0  0  0  2  0  0  0  0  0  0
  161.0650  206.0450  148.5990 C   0  0  0  0  0  0  0  0  0  0  0  0
  161.3070  205.7780  147.3910 O   0  0  0  0  0  0  0  0  0  0  0  0
  161.8210  205.4220  151.6510 O   0  0  0  0  0  1  0  0  0  0  0  0
  160.5760  205.0630  149.5890 C   0  0  2  0  0  3  0  0  0  0  0  0
  160.7060  205.8430  150.9150 C   0  0  2  0  0  3  0  0  0  0  0  0
  161.2160  207.3400  149.1410 N   0  0  0  0  0  0  0  0  0  0  0  0
  161.1810  208.6960  153.4750 N   0  0  0  0  0  0  0  0  0  0  0  0
  160.4060  207.8780  156.0090 O   0  0  0  0  0  0  0  0  0  0  0  0
  160.6470  209.6720  154.4270 C   0  0  0  0  0  2  0  0  0  0  0  0
  159.7260  208.9580  155.4170 C   0  0  0  0  0  2  0  0  0  0  0  0
  160.5560  206.9020  155.0040 C   0  0  0  0  0  2  0  0  0  0  0  0
  161.4570  209.0850  152.1210 C   0  0  0  0  0  0  0  0  0  0  0  0
  161.2160  210.2650  151.7410 O   0  0  0  0  0  0  0  0  0  0  0  0
  161.5760  207.3770  153.9700 C   0  0  0  0  0  2  0  0  0  0  0  0
  161.5400  203.5110  149.5280 S   0  0  0  0  0  0  0  0  0  0  0  0
  160.2320  202.6480  148.6070 C   0  0  0  0  0  2  0  0  0  0  0  0
  160.8380  201.7430  147.5830 C   0  0  0  0  0  0  0  0  0  0  0  0
  161.5780  200.3750  148.1060 S   0  0  0  0  0  0  0  0  0  0  0  0
  160.8320  202.1050  146.1880 N   0  0  0  0  0  0  0  0  0  0  0  0
  160.0740  201.3270  145.2200 C   0  0  0  0  0  1  0  0  0  0  0  0
  161.5810  203.2520  145.6920 C   0  0  0  0  0  1  0  0  0  0  0  0
  1 16  1  1  0  0  0
  2 10  1  6  0  0  0
  2  9  1  0  0  0  0
  2  1  1  0  0  0  0
  3  1  1  0  0  0  0
  4 10  1  0  0  0  0
  4  3  1  0  0  0  0
  5 10  1  0  0  0  0
  5  8  1  0  0  0  0
  6  5  2  0  0  0  0
  8 19  1  1  0  0  0
  8  9  1  0  0  0  0
  9  7  1  6  0  0  0
 11 18  1  0  0  0  0
 11 13  1  0  0  0  0
 13 14  1  0  0  0  0
 14 12  1  0  0  0  0
 15 12  1  0  0  0  0
 16 11  1  0  0  0  0
 17 16  2  0  0  0  0
 18 15  1  0  0  0  0
 20 19  1  0  0  0  0
 21 22  2  0  0  0  0
 21 20  1  0  0  0  0
 23 21  1  0  0  0  0
 24 23  1  0  0  0  0
 25 23  1  0  0  0  0
M  END
>  <MODEL>
8

>  <REMARK>
 VINA RESULT:      -5.4      3.114      8.121
  Name = 
  5 active torsions:
  status: ('A' for Active; 'I' for Inactive)
    1  A    between atoms: C_1  and  C_18
    2  A    between atoms: N_2  and  C_21
    3  A    between atoms: S_6  and  C_15
    4  A    between atoms: S_6  and  C_20
    5  A    between atoms: C_15  and  C_21
                            x       y       z     vdW  Elec       q    Type
                         _______ _______ _______ _____ _____    ______ ____

>  <TORSDO>
F 5

$$$$
=
 OpenBabel11052422183D

 25 27  0  0  1  0  0  0  0  0999 V2000
  161.9160  205.8160  150.6200 C   0  0  1  0  0  3  0  0  0  0  0  0
  160.8380  206.7690  151.0580 C   0  0  2  0  0  3  0  0  0  0  0  0
  162.1020  204.8690  151.6570 O   0  0  0  0  0  0  0  0  0  0  0  0
  161.6010  205.4140  152.8170 N   0  0  0  0  0  2  0  0  0  0  0  0
  160.7690  207.6920  153.1790 C   0  0  0  0  0  0  0  0  0  0  0  0
  160.6850  207.7280  154.4360 O   0  0  0  0  0  0  0  0  0  0  0  0
  162.5380  208.4620  150.6180 O   0  0  0  0  0  1  0  0  0  0  0  0
  160.8390  208.8860  152.3120 C   0  0  2  0  0  3  0  0  0  0  0  0
  161.1860  208.2740  150.9380 C   0  0  2  0  0  3  0  0  0  0  0  0
  160.7800  206.4840  152.4480 N   0  0  0  0  0  0  0  0  0  0  0  0
  161.0280  203.7770  149.3680 N   0  0  0  0  0  0  0  0  0  0  0  0
  160.3430  201.0900  149.3880 O   0  0  0  0  0  0  0  0  0  0  0  0
  160.6710  203.1050  148.1180 C   0  0  0  0  0  2  0  0  0  0  0  0
  160.9750  201.6120  148.2440 C   0  0  0  0  0  2  0  0  0  0  0  0
  161.0320  201.6160  150.4980 C   0  0  0  0  0  2  0  0  0  0  0  0
  161.5140  205.1280  149.3480 C   0  0  0  0  0  0  0  0  0  0  0  0
  161.6560  205.7320  148.2480 O   0  0  0  0  0  0  0  0  0  0  0  0
  160.7310  203.1080  150.6350 C   0  0  0  0  0  2  0  0  0  0  0  0
  162.0640  210.0940  152.9320 S   0  0  0  0  0  0  0  0  0  0  0  0
  160.7680  211.1620  153.6300 C   0  0  0  0  0  2  0  0  0  0  0  0
  160.9400  211.2740  155.1100 C   0  0  0  0  0  0  0  0  0  0  0  0
  162.2930  210.6300  155.7800 S   0  0  0  0  0  0  0  0  0  0  0  0
  159.9100  211.8660  155.9260 N   0  0  0  0  0  0  0  0  0  0  0  0
  159.6630  213.3000  155.8870 C   0  0  0  0  0  1  0  0  0  0  0  0
  159.0840  211.0640  156.8180 C   0  0  0  0  0  1  0  0  0  0  0  0
  1 16  1  6  0  0  0
  1  2  1  0  0  0  0
  1  3  1  0  0  0  0
  2 10  1  1  0  0  0
  3  4  1  0  0  0  0
  5  6  2  0  0  0  0
  8 19  1  1  0  0  0
  8  5  1  0  0  0  0
  9  7  1  1  0  0  0
  9  2  1  0  0  0  0
  9  8  1  0  0  0  0
 10  4  1  0  0  0  0
 10  5  1  0  0  0  0
 11 18  1  0  0  0  0
 12 15  1  0  0  0  0
 13 14  1  0  0  0  0
 13 11  1  0  0  0  0
 14 12  1  0  0  0  0
 15 18  1  0  0  0  0
 16 11  1  0  0  0  0
 17 16  2  0  0  0  0
 19 20  1  0  0  0  0
 20 21  1  0  0  0  0
 21 22  2  0  0  0  0
 21 23  1  0  0  0  0
 23 25  1  0  0  0  0
 24 23  1  0  0  0  0
M  END
>  <MODEL>
9

>  <REMARK>
 VINA RESULT:      -5.3      1.854      2.659
  Name = 
  5 active torsions:
  status: ('A' for Active; 'I' for Inactive)
    1  A    between atoms: C_1  and  C_18
    2  A    between atoms: N_2  and  C_21
    3  A    between atoms: S_6  and  C_15
    4  A    between atoms: S_6  and  C_20
    5  A    between atoms: C_15  and  C_21
                            x       y       z     vdW  Elec       q    Type
                         _______ _______ _______ _____ _____    ______ ____

>  <TORSDO>
F 5

$$$$
