=
 OpenBabel11052422193D

 25 29  0  0  1  0  0  0  0  0999 V2000
  161.3010  206.1320  148.2350 C   0  0  1  0  0  0  0  0  0  0  0  0
  161.4940  207.1540  149.3280 C   0  0  0  0  0  0  0  0  0  0  0  0
  160.7680  204.3680  149.9610 C   0  0  0  0  0  2  0  0  0  0  0  0
  162.2190  206.2500  147.0230 C   0  0  0  0  0  2  0  0  0  0  0  0
  162.7030  204.4010  145.2490 C   0  0  0  0  0  2  0  0  0  0  0  0
  160.8430  205.4220  150.9780 N   0  0  0  0  0  2  0  0  0  0  0  0
  162.3930  204.7950  146.6120 C   0  0  1  0  0  0  0  0  0  0  0  0
  163.7830  204.5000  146.2500 N   0  0  0  0  0  2  0  0  0  0  0  0
  161.2760  207.7530  151.6810 C   0  0  0  0  0  0  0  0  0  0  0  0
  160.9830  207.4020  153.1010 C   0  0  0  0  0  1  0  0  0  0  0  0
  161.8470  208.4780  149.0330 C   0  0  0  0  0  3  0  0  0  0  0  0
  161.6740  204.7660  148.8070 C   0  0  1  0  0  3  0  0  0  0  0  0
  161.8620  203.8210  147.6430 C   0  0  0  0  0  2  0  0  0  0  0  0
  161.6480  209.0630  151.3720 C   0  0  0  0  0  3  0  0  0  0  0  0
  161.9360  209.4320  150.0480 C   0  0  0  0  0  0  0  0  0  0  0  0
  161.1880  206.7900  150.6640 C   0  0  0  0  0  0  0  0  0  0  0  0
  162.3080  210.7730  149.7060 N   0  0  0  0  0  0  0  0  0  0  0  0
  162.2390  211.2410  148.5010 C   0  0  0  0  0  3  0  0  0  0  0  0
  161.8840  213.3160  147.1220 C   0  0  2  0  0  3  0  0  0  0  0  0
  162.6490  212.6500  148.2200 C   0  0  1  0  0  3  0  0  0  0  0  0
  161.5680  213.5100  148.4810 O   0  0  0  0  0  0  0  0  0  0  0  0
  160.7800  212.9710  145.2380 C   0  0  0  0  0  1  0  0  0  0  0  0
  160.9240  212.4830  146.5370 O   0  0  0  0  0  0  0  0  0  0  0  0
  159.8380  206.1570  147.7620 C   0  0  0  0  0  2  0  0  0  0  0  0
  159.7630  206.3880  146.3990 F   0  0  0  0  0  0  0  0  0  0  0  0
  1 24  1  6  0  0  0
  1 12  1  0  0  0  0
  1  2  1  0  0  0  0
  2 16  1  0  0  0  0
  3  6  1  0  0  0  0
  4  1  1  0  0  0  0
  5  8  1  0  0  0  0
  7  5  1  6  0  0  0
  7  4  1  0  0  0  0
  7 13  1  0  0  0  0
  8  7  1  0  0  0  0
  9 10  1  0  0  0  0
 11  2  2  0  0  0  0
 11 15  1  0  0  0  0
 12 13  1  6  0  0  0
 12  3  1  0  0  0  0
 14  9  1  0  0  0  0
 15 14  2  0  0  0  0
 16  6  1  0  0  0  0
 16  9  2  0  0  0  0
 17 15  1  0  0  0  0
 18 17  2  0  0  0  0
 19 23  1  6  0  0  0
 19 20  1  0  0  0  0
 19 21  1  0  0  0  0
 20 21  1  0  0  0  0
 20 18  1  6  0  0  0
 22 23  1  0  0  0  0
 25 24  1  0  0  0  0
M  END
>  <MODEL>
1

>  <REMARK>
 VINA RESULT:      -7.6      0.000      0.000
  Name = 
  4 active torsions:
  status: ('A' for Active; 'I' for Inactive)
    1  A    between atoms: C_1  and  C_17
    2  A    between atoms: C_2  and  O_12
    3  A    between atoms: N_6  and  C_23
    4  A    between atoms: C_15  and  C_21
                            x       y       z     vdW  Elec       q    Type
                         _______ _______ _______ _____ _____    ______ ____

>  <TORSDO>
F 4

$$$$
=
 OpenBabel11052422193D

 25 29  0  0  1  0  0  0  0  0999 V2000
  161.0280  209.3700  152.6520 C   0  0  1  0  0  0  0  0  0  0  0  0
  161.0560  208.0850  151.8620 C   0  0  0  0  0  0  0  0  0  0  0  0
  160.7820  208.0610  154.7970 C   0  0  0  0  0  2  0  0  0  0  0  0
  160.3310  210.5570  151.9960 C   0  0  0  0  0  2  0  0  0  0  0  0
  159.4740  212.7140  153.1860 C   0  0  0  0  0  2  0  0  0  0  0  0
  160.9390  206.8380  154.0020 N   0  0  0  0  0  2  0  0  0  0  0  0
  159.7470  211.2870  153.1970 C   0  0  1  0  0  0  0  0  0  0  0  0
  158.3820  211.7550  152.9310 N   0  0  0  0  0  2  0  0  0  0  0  0
  161.2000  205.6510  151.8490 C   0  0  0  0  0  0  0  0  0  0  0  0
  161.2120  204.3350  152.5510 C   0  0  0  0  0  1  0  0  0  0  0  0
  161.1780  208.0910  150.4660 C   0  0  0  0  0  3  0  0  0  0  0  0
  160.1790  209.1290  153.8990 C   0  0  1  0  0  3  0  0  0  0  0  0
  159.8240  210.4800  154.4760 C   0  0  0  0  0  2  0  0  0  0  0  0
  161.3020  205.6750  150.4560 C   0  0  0  0  0  3  0  0  0  0  0  0
  161.2900  206.8930  149.7570 C   0  0  0  0  0  0  0  0  0  0  0  0
  161.0840  206.8530  152.5640 C   0  0  0  0  0  0  0  0  0  0  0  0
  161.4040  206.9420  148.3300 N   0  0  0  0  0  0  0  0  0  0  0  0
  161.8310  205.9470  147.6200 C   0  0  0  0  0  3  0  0  0  0  0  0
  161.7840  204.7860  145.3870 C   0  0  2  0  0  3  0  0  0  0  0  0
  161.9260  206.0730  146.1350 C   0  0  1  0  0  3  0  0  0  0  0  0
  160.7060  205.6790  145.5550 O   0  0  0  0  0  0  0  0  0  0  0  0
  160.8950  202.7640  145.4500 C   0  0  0  0  0  1  0  0  0  0  0  0
  161.6040  203.6810  146.2260 O   0  0  0  0  0  0  0  0  0  0  0  0
  162.4640  209.7740  153.0250 C   0  0  0  0  0  2  0  0  0  0  0  0
  163.1160  210.3400  151.9430 F   0  0  0  0  0  0  0  0  0  0  0  0
  1 24  1  1  0  0  0
  1 12  1  0  0  0  0
  2 16  1  0  0  0  0
  2  1  1  0  0  0  0
  4  1  1  0  0  0  0
  5  7  1  0  0  0  0
  6  3  1  0  0  0  0
  7  4  1  6  0  0  0
  7 13  1  0  0  0  0
  8  5  1  0  0  0  0
  8  7  1  0  0  0  0
  9 10  1  0  0  0  0
  9 16  2  0  0  0  0
 11  2  2  0  0  0  0
 12 13  1  1  0  0  0
 12  3  1  0  0  0  0
 14  9  1  0  0  0  0
 15 14  2  0  0  0  0
 15 11  1  0  0  0  0
 16  6  1  0  0  0  0
 17 15  1  0  0  0  0
 18 17  2  0  0  0  0
 19 21  1  0  0  0  0
 19 20  1  0  0  0  0
 19 23  1  1  0  0  0
 20 18  1  1  0  0  0
 21 20  1  0  0  0  0
 22 23  1  0  0  0  0
 25 24  1  0  0  0  0
M  END
>  <MODEL>
2

>  <REMARK>
 VINA RESULT:      -7.4      3.833      6.942
  Name = 
  4 active torsions:
  status: ('A' for Active; 'I' for Inactive)
    1  A    between atoms: C_1  and  C_17
    2  A    between atoms: C_2  and  O_12
    3  A    between atoms: N_6  and  C_23
    4  A    between atoms: C_15  and  C_21
                            x       y       z     vdW  Elec       q    Type
                         _______ _______ _______ _____ _____    ______ ____

>  <TORSDO>
F 4

$$$$
=
 OpenBabel11052422193D

 25 29  0  0  1  0  0  0  0  0999 V2000
  160.7110  209.8740  153.5060 C   0  0  1  0  0  0  0  0  0  0  0  0
  160.8390  208.6090  152.6950 C   0  0  0  0  0  0  0  0  0  0  0  0
  160.5030  208.5130  155.6210 C   0  0  0  0  0  2  0  0  0  0  0  0
  159.9530  211.0270  152.8540 C   0  0  0  0  0  2  0  0  0  0  0  0
  158.9340  213.1020  154.0620 C   0  0  0  0  0  2  0  0  0  0  0  0
  160.7550  207.3170  154.8090 N   0  0  0  0  0  2  0  0  0  0  0  0
  159.2980  211.6960  154.0540 C   0  0  1  0  0  0  0  0  0  0  0  0
  157.9120  212.0800  153.7650 N   0  0  0  0  0  2  0  0  0  0  0  0
  161.1390  206.1900  152.6430 C   0  0  0  0  0  0  0  0  0  0  0  0
  161.2210  204.8650  153.3220 C   0  0  0  0  0  1  0  0  0  0  0  0
  160.9910  208.6490  151.3020 C   0  0  0  0  0  3  0  0  0  0  0  0
  159.8520  209.5560  154.7280 C   0  0  1  0  0  3  0  0  0  0  0  0
  159.3990  210.8710  155.3210 C   0  0  0  0  0  2  0  0  0  0  0  0
  161.2700  206.2460  151.2530 C   0  0  0  0  0  3  0  0  0  0  0  0
  161.1950  207.4740  150.5760 C   0  0  0  0  0  0  0  0  0  0  0  0
  160.9310  207.3690  153.3760 C   0  0  0  0  0  0  0  0  0  0  0  0
  161.3370  207.5570  149.1520 N   0  0  0  0  0  0  0  0  0  0  0  0
  161.4670  206.5170  148.3930 C   0  0  0  0  0  3  0  0  0  0  0  0
  161.6010  205.4040  146.1390 C   0  0  2  0  0  3  0  0  0  0  0  0
  161.6140  206.6820  146.9160 C   0  0  1  0  0  3  0  0  0  0  0  0
  160.4530  206.2100  146.2760 O   0  0  0  0  0  0  0  0  0  0  0  0
  161.4010  203.2050  146.0520 C   0  0  0  0  0  1  0  0  0  0  0  0
  161.4710  204.2710  146.9490 O   0  0  0  0  0  0  0  0  0  0  0  0
  162.1100  210.3620  153.9190 C   0  0  0  0  0  2  0  0  0  0  0  0
  162.9710  210.3720  152.8350 F   0  0  0  0  0  0  0  0  0  0  0  0
  1 24  1  1  0  0  0
  1 12  1  0  0  0  0
  2 16  1  0  0  0  0
  2  1  1  0  0  0  0
  4  1  1  0  0  0  0
  6  3  1  0  0  0  0
  7  4  1  6  0  0  0
  7  5  1  0  0  0  0
  7 13  1  0  0  0  0
  8  7  1  0  0  0  0
  8  5  1  0  0  0  0
  9 10  1  0  0  0  0
  9 16  2  0  0  0  0
 11  2  2  0  0  0  0
 12 13  1  1  0  0  0
 12  3  1  0  0  0  0
 14  9  1  0  0  0  0
 15 14  2  0  0  0  0
 15 11  1  0  0  0  0
 16  6  1  0  0  0  0
 17 15  1  0  0  0  0
 18 17  2  0  0  0  0
 19 21  1  0  0  0  0
 19 20  1  0  0  0  0
 19 23  1  1  0  0  0
 20 18  1  1  0  0  0
 21 20  1  0  0  0  0
 22 23  1  0  0  0  0
 25 24  1  0  0  0  0
M  END
>  <MODEL>
3

>  <REMARK>
 VINA RESULT:      -7.1      3.837      7.253
  Name = 
  4 active torsions:
  status: ('A' for Active; 'I' for Inactive)
    1  A    between atoms: C_1  and  C_17
    2  A    between atoms: C_2  and  O_12
    3  A    between atoms: N_6  and  C_23
    4  A    between atoms: C_15  and  C_21
                            x       y       z     vdW  Elec       q    Type
                         _______ _______ _______ _____ _____    ______ ____

>  <TORSDO>
F 4

$$$$
=
 OpenBabel11052422193D

 25 29  0  0  1  0  0  0  0  0999 V2000
  160.7440  210.1510  154.7830 C   0  0  1  0  0  0  0  0  0  0  0  0
  160.9910  209.2120  153.6290 C   0  0  0  0  0  0  0  0  0  0  0  0
  160.2590  208.1870  156.2930 C   0  0  0  0  0  2  0  0  0  0  0  0
  160.0730  211.4790  154.4480 C   0  0  0  0  0  2  0  0  0  0  0  0
  158.8820  213.0880  156.1200 C   0  0  0  0  0  2  0  0  0  0  0  0
  160.6290  207.3100  155.1770 N   0  0  0  0  0  2  0  0  0  0  0  0
  159.2540  211.7480  155.7020 C   0  0  1  0  0  0  0  0  0  0  0  0
  157.9180  212.2560  155.3740 N   0  0  0  0  0  2  0  0  0  0  0  0
  161.3150  206.9300  152.8320 C   0  0  0  0  0  0  0  0  0  0  0  0
  161.3130  205.4550  153.0480 C   0  0  0  0  0  1  0  0  0  0  0  0
  161.3320  209.6950  152.3570 C   0  0  0  0  0  3  0  0  0  0  0  0
  159.7280  209.4870  155.7110 C   0  0  1  0  0  3  0  0  0  0  0  0
  159.1880  210.5550  156.6330 C   0  0  0  0  0  2  0  0  0  0  0  0
  161.6340  207.4280  151.5670 C   0  0  0  0  0  3  0  0  0  0  0  0
  161.6430  208.8110  151.3220 C   0  0  0  0  0  0  0  0  0  0  0  0
  160.9980  207.8160  153.8750 C   0  0  0  0  0  0  0  0  0  0  0  0
  161.9770  209.3440  150.0350 N   0  0  0  0  0  0  0  0  0  0  0  0
  161.9320  210.6080  149.7600 C   0  0  0  0  0  3  0  0  0  0  0  0
  161.6310  212.3670  147.9850 C   0  0  2  0  0  3  0  0  0  0  0  0
  162.2920  211.0900  148.3920 C   0  0  1  0  0  3  0  0  0  0  0  0
  162.9450  212.3320  148.4920 O   0  0  0  0  0  0  0  0  0  0  0  0
  160.2050  214.0090  148.3780 C   0  0  0  0  0  1  0  0  0  0  0  0
  160.7690  212.8760  148.9630 O   0  0  0  0  0  0  0  0  0  0  0  0
  162.0690  210.4260  155.5130 C   0  0  0  0  0  2  0  0  0  0  0  0
  163.0510  210.8260  154.6220 F   0  0  0  0  0  0  0  0  0  0  0  0
  1 24  1  1  0  0  0
  1 12  1  0  0  0  0
  2 16  1  0  0  0  0
  2  1  1  0  0  0  0
  4  1  1  0  0  0  0
  6  3  1  0  0  0  0
  7  4  1  6  0  0  0
  7  5  1  0  0  0  0
  7 13  1  0  0  0  0
  8  7  1  0  0  0  0
  8  5  1  0  0  0  0
  9 10  1  0  0  0  0
  9 16  2  0  0  0  0
 11  2  2  0  0  0  0
 12  3  1  1  0  0  0
 12 13  1  0  0  0  0
 14  9  1  0  0  0  0
 15 14  2  0  0  0  0
 15 11  1  0  0  0  0
 16  6  1  0  0  0  0
 17 15  1  0  0  0  0
 18 17  2  0  0  0  0
 19 20  1  0  0  0  0
 19 21  1  0  0  0  0
 19 23  1  1  0  0  0
 20 21  1  0  0  0  0
 20 18  1  1  0  0  0
 22 23  1  0  0  0  0
 25 24  1  0  0  0  0
M  END
>  <MODEL>
4

>  <REMARK>
 VINA RESULT:      -6.4      3.913      7.000
  Name = 
  4 active torsions:
  status: ('A' for Active; 'I' for Inactive)
    1  A    between atoms: C_1  and  C_17
    2  A    between atoms: C_2  and  O_12
    3  A    between atoms: N_6  and  C_23
    4  A    between atoms: C_15  and  C_21
                            x       y       z     vdW  Elec       q    Type
                         _______ _______ _______ _____ _____    ______ ____

>  <TORSDO>
F 4

$$$$
=
 OpenBabel11052422193D

 25 29  0  0  1  0  0  0  0  0999 V2000
  161.5770  207.1570  151.7890 C   0  0  1  0  0  0  0  0  0  0  0  0
  161.2450  206.0470  150.8230 C   0  0  0  0  0  0  0  0  0  0  0  0
  161.2610  205.5780  153.7330 C   0  0  0  0  0  2  0  0  0  0  0  0
  161.0960  208.5540  151.4110 C   0  0  0  0  0  2  0  0  0  0  0  0
  160.8530  210.6030  153.0070 C   0  0  0  0  0  2  0  0  0  0  0  0
  161.0680  204.5030  152.7540 N   0  0  0  0  0  2  0  0  0  0  0  0
  160.8060  209.1710  152.7720 C   0  0  1  0  0  0  0  0  0  0  0  0
  159.5580  209.9410  152.7600 N   0  0  0  0  0  2  0  0  0  0  0  0
  160.8510  203.6730  150.4350 C   0  0  0  0  0  0  0  0  0  0  0  0
  160.6430  202.2810  150.9290 C   0  0  0  0  0  1  0  0  0  0  0  0
  161.2290  206.2670  149.4390 C   0  0  0  0  0  3  0  0  0  0  0  0
  160.8210  206.8820  153.0880 C   0  0  1  0  0  3  0  0  0  0  0  0
  160.8290  208.1580  153.8980 C   0  0  0  0  0  2  0  0  0  0  0  0
  160.8190  203.9130  149.0600 C   0  0  0  0  0  3  0  0  0  0  0  0
  161.0060  205.2100  148.5540 C   0  0  0  0  0  0  0  0  0  0  0  0
  161.0710  204.7340  151.3280 C   0  0  0  0  0  0  0  0  0  0  0  0
  160.9880  205.4780  147.1470 N   0  0  0  0  0  0  0  0  0  0  0  0
  162.0590  205.5150  146.4200 C   0  0  0  0  0  3  0  0  0  0  0  0
  161.1520  204.8200  144.1780 C   0  0  2  0  0  3  0  0  0  0  0  0
  161.9620  205.8050  144.9580 C   0  0  1  0  0  3  0  0  0  0  0  0
  160.6180  206.0470  144.6190 O   0  0  0  0  0  0  0  0  0  0  0  0
  159.6970  203.1560  144.1510 C   0  0  0  0  0  1  0  0  0  0  0  0
  160.6410  203.7820  144.9650 O   0  0  0  0  0  0  0  0  0  0  0  0
  163.0960  207.1950  152.0250 C   0  0  0  0  0  2  0  0  0  0  0  0
  163.6940  206.0240  151.5930 F   0  0  0  0  0  0  0  0  0  0  0  0
  1 24  1  1  0  0  0
  1 12  1  0  0  0  0
  2 16  1  0  0  0  0
  2  1  1  0  0  0  0
  4  1  1  0  0  0  0
  6  3  1  0  0  0  0
  7  4  1  6  0  0  0
  7  5  1  0  0  0  0
  7 13  1  0  0  0  0
  8  7  1  0  0  0  0
  8  5  1  0  0  0  0
  9 10  1  0  0  0  0
  9 16  2  0  0  0  0
 11  2  2  0  0  0  0
 12  3  1  1  0  0  0
 12 13  1  0  0  0  0
 14  9  1  0  0  0  0
 15 14  2  0  0  0  0
 15 11  1  0  0  0  0
 16  6  1  0  0  0  0
 17 15  1  0  0  0  0
 18 17  2  0  0  0  0
 19 21  1  0  0  0  0
 19 20  1  0  0  0  0
 19 23  1  1  0  0  0
 20 18  1  1  0  0  0
 21 20  1  0  0  0  0
 22 23  1  0  0  0  0
 25 24  1  0  0  0  0
M  END
>  <MODEL>
5

>  <REMARK>
 VINA RESULT:      -5.9      3.771      6.462
  Name = 
  4 active torsions:
  status: ('A' for Active; 'I' for Inactive)
    1  A    between atoms: C_1  and  C_17
    2  A    between atoms: C_2  and  O_12
    3  A    between atoms: N_6  and  C_23
    4  A    between atoms: C_15  and  C_21
                            x       y       z     vdW  Elec       q    Type
                         _______ _______ _______ _____ _____    ______ ____

>  <TORSDO>
F 4

$$$$
=
 OpenBabel11052422193D

 25 29  0  0  1  0  0  0  0  0999 V2000
  161.2140  205.2470  148.0920 C   0  0  1  0  0  0  0  0  0  0  0  0
  161.3710  205.4890  149.5730 C   0  0  0  0  0  0  0  0  0  0  0  0
  160.6470  202.8270  148.5340 C   0  0  0  0  0  2  0  0  0  0  0  0
  162.1650  206.0090  147.1750 C   0  0  0  0  0  2  0  0  0  0  0  0
  162.7100  205.4510  144.6860 C   0  0  0  0  0  2  0  0  0  0  0  0
  160.6870  203.1390  149.9670 N   0  0  0  0  0  2  0  0  0  0  0  0
  162.3590  205.0260  146.0290 C   0  0  1  0  0  0  0  0  0  0  0  0
  163.7610  204.9680  145.6010 N   0  0  0  0  0  2  0  0  0  0  0  0
  161.0850  204.6830  151.8560 C   0  0  0  0  0  0  0  0  0  0  0  0
  160.7560  203.6070  152.8340 C   0  0  0  0  0  1  0  0  0  0  0  0
  161.7220  206.7510  150.0720 C   0  0  0  0  0  3  0  0  0  0  0  0
  161.5820  203.7890  147.8200 C   0  0  1  0  0  3  0  0  0  0  0  0
  161.8080  203.6480  146.3320 C   0  0  0  0  0  2  0  0  0  0  0  0
  161.4560  205.9410  152.3360 C   0  0  0  0  0  3  0  0  0  0  0  0
  161.7780  206.9810  151.4480 C   0  0  0  0  0  0  0  0  0  0  0  0
  161.0320  204.4470  150.4730 C   0  0  0  0  0  0  0  0  0  0  0  0
  162.1500  208.2820  151.9170 N   0  0  0  0  0  0  0  0  0  0  0  0
  161.4220  208.9750  152.7320 C   0  0  0  0  0  3  0  0  0  0  0  0
  160.8910  211.0700  154.0220 C   0  0  2  0  0  3  0  0  0  0  0  0
  161.8740  210.3280  153.1750 C   0  0  1  0  0  3  0  0  0  0  0  0
  161.9680  210.3510  154.5790 O   0  0  0  0  0  0  0  0  0  0  0  0
  159.0680  211.0430  155.2720 C   0  0  0  0  0  1  0  0  0  0  0  0
  159.7030  210.3620  154.2330 O   0  0  0  0  0  0  0  0  0  0  0  0
  159.7650  205.5440  147.6740 C   0  0  0  0  0  2  0  0  0  0  0  0
  159.7270  206.2150  146.4640 F   0  0  0  0  0  0  0  0  0  0  0  0
  1 24  1  6  0  0  0
  1  2  1  0  0  0  0
  2 11  2  0  0  0  0
  2 16  1  0  0  0  0
  3  6  1  0  0  0  0
  4  1  1  0  0  0  0
  5  8  1  0  0  0  0
  6 16  1  0  0  0  0
  7  5  1  6  0  0  0
  7 13  1  0  0  0  0
  7  4  1  0  0  0  0
  8  7  1  0  0  0  0
  9 14  1  0  0  0  0
  9 10  1  0  0  0  0
 11 15  1  0  0  0  0
 12 13  1  6  0  0  0
 12  1  1  0  0  0  0
 12  3  1  0  0  0  0
 15 17  1  0  0  0  0
 15 14  2  0  0  0  0
 16  9  2  0  0  0  0
 17 18  2  0  0  0  0
 19 23  1  1  0  0  0
 19 21  1  0  0  0  0
 20 18  1  1  0  0  0
 20 19  1  0  0  0  0
 20 21  1  0  0  0  0
 23 22  1  0  0  0  0
 25 24  1  0  0  0  0
M  END
>  <MODEL>
6

>  <REMARK>
 VINA RESULT:      -5.7      3.495      4.061
  Name = 
  4 active torsions:
  status: ('A' for Active; 'I' for Inactive)
    1  A    between atoms: C_1  and  C_17
    2  A    between atoms: C_2  and  O_12
    3  A    between atoms: N_6  and  C_23
    4  A    between atoms: C_15  and  C_21
                            x       y       z     vdW  Elec       q    Type
                         _______ _______ _______ _____ _____    ______ ____

>  <TORSDO>
F 4

$$$$
=
 OpenBabel11052422193D

 25 29  0  0  1  0  0  0  0  0999 V2000
  160.8930  208.8770  153.3040 C   0  0  1  0  0  0  0  0  0  0  0  0
  161.1970  207.9610  152.1440 C   0  0  0  0  0  0  0  0  0  0  0  0
  162.0450  210.7830  152.1170 C   0  0  0  0  0  2  0  0  0  0  0  0
  160.9390  208.2510  154.6940 C   0  0  0  0  0  2  0  0  0  0  0  0
  161.1320  209.5180  156.9660 C   0  0  0  0  0  2  0  0  0  0  0  0
  162.2080  209.8920  150.9630 N   0  0  0  0  0  2  0  0  0  0  0  0
  161.4300  209.4110  155.5490 C   0  0  1  0  0  0  0  0  0  0  0  0
  162.4310  208.9720  156.5280 N   0  0  0  0  0  2  0  0  0  0  0  0
  161.9900  207.6930  149.8540 C   0  0  0  0  0  0  0  0  0  0  0  0
  162.6210  208.2310  148.6150 C   0  0  0  0  0  1  0  0  0  0  0  0
  160.8030  206.6150  152.1550 C   0  0  0  0  0  3  0  0  0  0  0  0
  162.0020  209.9240  153.3700 C   0  0  1  0  0  3  0  0  0  0  0  0
  161.9250  210.5840  154.7280 C   0  0  0  0  0  2  0  0  0  0  0  0
  161.6090  206.3500  149.8900 C   0  0  0  0  0  3  0  0  0  0  0  0
  161.0150  205.8040  151.0390 C   0  0  0  0  0  0  0  0  0  0  0  0
  161.7820  208.5120  150.9760 C   0  0  0  0  0  0  0  0  0  0  0  0
  160.6060  204.4320  151.0940 N   0  0  0  0  0  0  0  0  0  0  0  0
  160.7860  203.6010  150.1180 C   0  0  0  0  0  3  0  0  0  0  0  0
  160.5930  201.3310  149.0490 C   0  0  2  0  0  3  0  0  0  0  0  0
  160.3280  202.1850  150.2470 C   0  0  1  0  0  3  0  0  0  0  0  0
  161.4410  201.3270  150.1740 O   0  0  0  0  0  0  0  0  0  0  0  0
  160.8300  201.3390  146.8520 C   0  0  0  0  0  1  0  0  0  0  0  0
  161.2110  202.0260  148.0040 O   0  0  0  0  0  0  0  0  0  0  0  0
  159.5190  209.5320  153.0920 C   0  0  0  0  0  2  0  0  0  0  0  0
  159.2460  210.4460  154.0960 F   0  0  0  0  0  0  0  0  0  0  0  0
  1 24  1  6  0  0  0
  1 12  1  0  0  0  0
  1  4  1  0  0  0  0
  2 11  1  0  0  0  0
  2  1  1  0  0  0  0
  6 16  1  0  0  0  0
  6  3  1  0  0  0  0
  7  4  1  6  0  0  0
  7  8  1  0  0  0  0
  7  5  1  0  0  0  0
  8  5  1  0  0  0  0
  9 14  2  0  0  0  0
  9 16  1  0  0  0  0
 10  9  1  0  0  0  0
 12  3  1  6  0  0  0
 12 13  1  0  0  0  0
 13  7  1  0  0  0  0
 14 15  1  0  0  0  0
 15 17  1  0  0  0  0
 15 11  2  0  0  0  0
 16  2  2  0  0  0  0
 18 17  2  0  0  0  0
 19 23  1  6  0  0  0
 19 21  1  0  0  0  0
 19 20  1  0  0  0  0
 20 18  1  6  0  0  0
 21 20  1  0  0  0  0
 22 23  1  0  0  0  0
 24 25  1  0  0  0  0
M  END
>  <MODEL>
7

>  <REMARK>
 VINA RESULT:      -5.5      4.540      8.191
  Name = 
  4 active torsions:
  status: ('A' for Active; 'I' for Inactive)
    1  A    between atoms: C_1  and  C_17
    2  A    between atoms: C_2  and  O_12
    3  A    between atoms: N_6  and  C_23
    4  A    between atoms: C_15  and  C_21
                            x       y       z     vdW  Elec       q    Type
                         _______ _______ _______ _____ _____    ______ ____

>  <TORSDO>
F 4

$$$$
=
 OpenBabel11052422193D

 25 29  0  0  1  0  0  0  0  0999 V2000
  161.9380  206.5120  150.6370 C   0  0  1  0  0  0  0  0  0  0  0  0
  161.6120  207.9450  150.9790 C   0  0  0  0  0  0  0  0  0  0  0  0
  162.4860  207.1880  148.2680 C   0  0  0  0  0  2  0  0  0  0  0  0
  161.0850  205.4420  151.3120 C   0  0  0  0  0  2  0  0  0  0  0  0
  160.8320  202.9550  150.5680 C   0  0  0  0  0  2  0  0  0  0  0  0
  162.2810  208.5810  148.6780 N   0  0  0  0  0  2  0  0  0  0  0  0
  161.0350  204.3560  150.2460 C   0  0  1  0  0  0  0  0  0  0  0  0
  159.6910  203.7800  150.1270 N   0  0  0  0  0  2  0  0  0  0  0  0
  161.6510  210.2980  150.3420 C   0  0  0  0  0  0  0  0  0  0  0  0
  161.8830  211.3820  149.3450 C   0  0  0  0  0  1  0  0  0  0  0  0
  161.1890  208.3090  152.2650 C   0  0  0  0  0  3  0  0  0  0  0  0
  161.6240  206.3070  149.1560 C   0  0  1  0  0  3  0  0  0  0  0  0
  161.5680  204.8170  148.9050 C   0  0  0  0  0  2  0  0  0  0  0  0
  161.2110  210.6410  151.6230 C   0  0  0  0  0  3  0  0  0  0  0  0
  160.9760  209.6500  152.5900 C   0  0  0  0  0  0  0  0  0  0  0  0
  161.8630  208.9500  150.0110 C   0  0  0  0  0  0  0  0  0  0  0  0
  160.5350  209.9800  153.9120 N   0  0  0  0  0  0  0  0  0  0  0  0
  160.4520  209.1100  154.8670 C   0  0  0  0  0  3  0  0  0  0  0  0
  161.0600  209.6730  157.2440 C   0  0  2  0  0  3  0  0  0  0  0  0
  159.9790  209.5280  156.2210 C   0  0  1  0  0  3  0  0  0  0  0  0
  160.5360  210.7790  156.5440 O   0  0  0  0  0  0  0  0  0  0  0  0
  163.1570  210.3690  157.2610 C   0  0  0  0  0  1  0  0  0  0  0  0
  162.3320  209.3700  156.7470 O   0  0  0  0  0  0  0  0  0  0  0  0
  163.4200  206.2370  150.9370 C   0  0  0  0  0  2  0  0  0  0  0  0
  163.5740  205.6570  152.1840 F   0  0  0  0  0  0  0  0  0  0  0  0
  1 24  1  1  0  0  0
  1  2  1  0  0  0  0
  1  4  1  0  0  0  0
  2 11  1  0  0  0  0
  3  6  1  0  0  0  0
  6 16  1  0  0  0  0
  7 13  1  6  0  0  0
  7  5  1  0  0  0  0
  7  4  1  0  0  0  0
  8  7  1  0  0  0  0
  8  5  1  0  0  0  0
  9 14  2  0  0  0  0
 10  9  1  0  0  0  0
 11 15  2  0  0  0  0
 12  3  1  6  0  0  0
 12  1  1  0  0  0  0
 13 12  1  0  0  0  0
 14 15  1  0  0  0  0
 15 17  1  0  0  0  0
 16  9  1  0  0  0  0
 16  2  2  0  0  0  0
 17 18  2  0  0  0  0
 19 23  1  6  0  0  0
 20 18  1  6  0  0  0
 20 21  1  0  0  0  0
 20 19  1  0  0  0  0
 21 19  1  0  0  0  0
 23 22  1  0  0  0  0
 24 25  1  0  0  0  0
M  END
>  <MODEL>
8

>  <REMARK>
 VINA RESULT:      -5.3      3.671      5.995
  Name = 
  4 active torsions:
  status: ('A' for Active; 'I' for Inactive)
    1  A    between atoms: C_1  and  C_17
    2  A    between atoms: C_2  and  O_12
    3  A    between atoms: N_6  and  C_23
    4  A    between atoms: C_15  and  C_21
                            x       y       z     vdW  Elec       q    Type
                         _______ _______ _______ _____ _____    ______ ____

>  <TORSDO>
F 4

$$$$
=
 OpenBabel11052422193D

 25 29  0  0  1  0  0  0  0  0999 V2000
  160.2840  210.9720  154.0570 C   0  0  1  0  0  0  0  0  0  0  0  0
  160.4010  209.4700  154.1390 C   0  0  0  0  0  0  0  0  0  0  0  0
  159.2890  211.0340  156.3760 C   0  0  0  0  0  2  0  0  0  0  0  0
  159.9370  211.5530  152.6900 C   0  0  0  0  0  2  0  0  0  0  0  0
  159.0090  213.9410  152.2030 C   0  0  0  0  0  2  0  0  0  0  0  0
  159.5380  209.5910  156.4600 N   0  0  0  0  0  2  0  0  0  0  0  0
  159.1130  212.7760  153.0640 C   0  0  1  0  0  0  0  0  0  0  0  0
  157.9420  212.9230  152.1930 N   0  0  0  0  0  2  0  0  0  0  0  0
  160.2820  207.4430  155.4890 C   0  0  0  0  0  0  0  0  0  0  0  0
  159.9500  206.7290  156.7550 C   0  0  0  0  0  1  0  0  0  0  0  0
  160.9220  208.7210  153.0750 C   0  0  0  0  0  3  0  0  0  0  0  0
  159.0900  211.3900  154.9130 C   0  0  1  0  0  3  0  0  0  0  0  0
  158.7300  212.8070  154.5290 C   0  0  0  0  0  2  0  0  0  0  0  0
  160.7840  206.7090  154.4120 C   0  0  0  0  0  3  0  0  0  0  0  0
  161.1050  207.3420  153.2000 C   0  0  0  0  0  0  0  0  0  0  0  0
  160.0930  208.8280  155.3660 C   0  0  0  0  0  0  0  0  0  0  0  0
  161.6320  206.6110  152.0860 N   0  0  0  0  0  0  0  0  0  0  0  0
  160.9670  206.4100  150.9940 C   0  0  0  0  0  3  0  0  0  0  0  0
  161.2580  204.1750  149.8750 C   0  0  2  0  0  3  0  0  0  0  0  0
  161.5810  205.6340  149.8750 C   0  0  1  0  0  3  0  0  0  0  0  0
  160.5630  205.0970  149.0670 O   0  0  0  0  0  0  0  0  0  0  0  0
  161.0080  202.6040  151.4090 C   0  0  0  0  0  1  0  0  0  0  0  0
  160.4440  203.7920  150.9470 O   0  0  0  0  0  0  0  0  0  0  0  0
  161.5850  211.6160  154.5620 C   0  0  0  0  0  2  0  0  0  0  0  0
  162.5580  210.6580  154.7870 F   0  0  0  0  0  0  0  0  0  0  0  0
  1  2  1  0  0  0  0
  1 24  1  1  0  0  0
  1 12  1  0  0  0  0
  2 16  1  0  0  0  0
  3  6  1  0  0  0  0
  4  7  1  0  0  0  0
  4  1  1  0  0  0  0
  7  5  1  6  0  0  0
  7 13  1  0  0  0  0
  8  5  1  0  0  0  0
  8  7  1  0  0  0  0
  9 10  1  0  0  0  0
 11 15  1  0  0  0  0
 11  2  2  0  0  0  0
 12 13  1  1  0  0  0
 12  3  1  0  0  0  0
 14  9  1  0  0  0  0
 15 14  2  0  0  0  0
 16  9  2  0  0  0  0
 16  6  1  0  0  0  0
 17 15  1  0  0  0  0
 18 17  2  0  0  0  0
 19 20  1  0  0  0  0
 19 23  1  1  0  0  0
 20 18  1  1  0  0  0
 21 19  1  0  0  0  0
 21 20  1  0  0  0  0
 23 22  1  0  0  0  0
 24 25  1  0  0  0  0
M  END
>  <MODEL>
9

>  <REMARK>
 VINA RESULT:      -5.3      4.723      8.293
  Name = 
  4 active torsions:
  status: ('A' for Active; 'I' for Inactive)
    1  A    between atoms: C_1  and  C_17
    2  A    between atoms: C_2  and  O_12
    3  A    between atoms: N_6  and  C_23
    4  A    between atoms: C_15  and  C_21
                            x       y       z     vdW  Elec       q    Type
                         _______ _______ _______ _____ _____    ______ ____

>  <TORSDO>
F 4

$$$$
