=
 OpenBabel11062409553D

 43 48  0  0  1  0  0  0  0  0999 V2000
  161.5630  204.2160  147.5610 C   0  0  0  0  0  0  0  0  0  0  0  0
  161.2780  208.2020  150.7870 C   0  0  0  0  0  0  0  0  0  0  0  0
  161.8430  210.4210  149.1170 C   0  0  0  0  0  0  0  0  0  0  0  0
  161.2460  205.6550  149.6060 C   0  0  0  0  0  0  0  0  0  0  0  0
  161.9230  205.4290  146.8150 C   0  0  0  0  0  3  0  0  0  0  0  0
  161.5620  203.1080  146.9660 O   0  0  0  0  0  0  0  0  0  0  0  0
  161.6060  206.7810  148.8360 C   0  0  0  0  0  0  0  0  0  0  0  0
  161.2090  204.2690  149.0210 C   0  0  0  0  0  2  0  0  0  0  0  0
  161.9440  206.6200  147.4090 C   0  0  0  0  0  3  0  0  0  0  0  0
  161.9550  209.2150  148.6470 N   0  0  0  0  0  0  0  0  0  0  0  0
  161.6200  208.0580  149.4270 C   0  0  0  0  0  0  0  0  0  0  0  0
  160.9190  207.0800  151.5400 C   0  0  0  0  0  3  0  0  0  0  0  0
  161.3570  209.5500  151.4480 C   0  0  2  0  0  3  0  0  0  0  0  0
  161.3740  210.6250  150.4570 N   0  0  0  0  0  2  0  0  0  0  0  0
  160.9010  205.8160  150.9510 C   0  0  0  0  0  3  0  0  0  0  0  0
  162.1570  211.5750  148.2600 C   0  0  0  0  0  0  0  0  0  0  0  0
  163.3250  212.0450  148.2360 O   0  0  0  0  0  0  0  0  0  0  0  0
  161.1000  212.2220  147.4300 C   0  0  0  0  0  2  0  0  0  0  0  0
  161.7240  213.1310  146.3830 C   0  0  2  0  0  3  0  0  0  0  0  0
  161.7360  214.4450  146.8480 O   0  0  0  0  0  1  0  0  0  0  0  0
  160.9240  213.0660  145.0940 C   0  0  0  0  0  2  0  0  0  0  0  0
  161.7860  213.3200  143.9490 N   0  0  0  0  0  0  0  0  0  0  0  0
  162.6170  213.2830  141.8780 N   0  0  0  0  0  0  0  0  0  0  0  0
  162.8770  214.1010  143.9380 C   0  0  0  0  0  3  0  0  0  0  0  0
  161.6460  212.8420  142.7000 C   0  0  0  0  0  0  0  0  0  0  0  0
  163.3890  214.0750  142.6520 C   0  0  0  0  0  3  0  0  0  0  0  0
  160.5430  211.9140  142.2760 C   0  0  1  0  0  3  0  0  0  0  0  0
  159.3270  212.5730  142.3150 F   0  0  0  0  0  0  0  0  0  0  0  0
  160.7800  211.3820  140.9400 N   0  0  0  0  0  0  0  0  0  0  0  0
  159.6360  211.5060  137.4750 C   0  0  0  0  0  1  0  0  0  0  0  0
  161.5840  209.9330  138.8790 S   0  0  0  0  0  0  0  0  0  0  0  0
  160.3170  211.1870  138.7550 C   0  0  0  0  0  0  0  0  0  0  0  0
  161.7230  210.3090  140.6630 C   0  0  0  0  0  2  0  0  0  0  0  0
  160.0310  211.8070  139.8440 N   0  0  0  0  0  0  0  0  0  0  0  0
  162.6110  209.6270  152.3060 C   0  0  0  0  0  2  0  0  0  0  0  0
  162.3310  210.2950  153.5010 O   0  0  0  0  0  0  0  0  0  0  0  0
  161.1730  208.7730  154.9070 C   0  0  0  0  0  2  0  0  0  0  0  0
  159.9960  209.0170  155.8190 C   0  0  2  0  0  3  0  0  0  0  0  0
  160.3030  210.9710  154.5540 C   0  0  0  0  0  2  0  0  0  0  0  0
  161.0590  209.8530  153.8680 C   0  0  1  0  0  3  0  0  0  0  0  0
  159.6580  210.4340  155.7480 N   0  0  0  0  0  2  0  0  0  0  0  0
  161.6200  208.0290  157.2610 O   0  0  0  0  0  1  0  0  0  0  0  0
  160.3640  208.6360  157.2400 C   0  0  0  0  0  2  0  0  0  0  0  0
  1  8  1  0  0  0  0
  2 13  1  0  0  0  0
  2 12  1  0  0  0  0
  3 14  1  0  0  0  0
  4 15  1  0  0  0  0
  5  9  2  0  0  0  0
  5  1  1  0  0  0  0
  6  1  2  0  0  0  0
  7 11  1  0  0  0  0
  7  4  2  0  0  0  0
  8  4  1  0  0  0  0
  9  7  1  0  0  0  0
 10  3  2  0  0  0  0
 10 11  1  0  0  0  0
 11  2  2  0  0  0  0
 13 35  1  6  0  0  0
 14 13  1  0  0  0  0
 15 12  2  0  0  0  0
 16  3  1  0  0  0  0
 17 16  2  0  0  0  0
 18 16  1  0  0  0  0
 19 20  1  1  0  0  0
 19 18  1  0  0  0  0
 21 19  1  0  0  0  0
 22 21  1  0  0  0  0
 23 26  1  0  0  0  0
 23 25  2  0  0  0  0
 24 22  1  0  0  0  0
 25 22  1  0  0  0  0
 26 24  2  0  0  0  0
 27 28  1  6  0  0  0
 27 25  1  0  0  0  0
 29 27  1  0  0  0  0
 30 32  1  0  0  0  0
 31 33  1  0  0  0  0
 32 31  1  0  0  0  0
 32 34  2  0  0  0  0
 33 29  1  0  0  0  0
 34 29  1  0  0  0  0
 35 36  1  0  0  0  0
 37 38  1  0  0  0  0
 38 43  1  1  0  0  0
 39 41  1  0  0  0  0
 40 36  1  1  0  0  0
 40 39  1  0  0  0  0
 40 37  1  0  0  0  0
 41 38  1  0  0  0  0
 43 42  1  0  0  0  0
M  END
>  <MODEL>
1

>  <REMARK>
 VINA RESULT:      -7.9      0.000      0.000
  Name = 
  11 active torsions:
  status: ('A' for Active; 'I' for Inactive)
    1  A    between atoms: C_1  and  O_32
    2  A    between atoms: C_1  and  C_34
    3  A    between atoms: C_2  and  C_6
    4  A    between atoms: C_2  and  C_13
    5  A    between atoms: C_3  and  N_4
    6  A    between atoms: C_3  and  C_12
    7  A    between atoms: C_6  and  C_12
    8  A    between atoms: N_11  and  C_14
    9  A    between atoms: C_14  and  C_22
   10  A    between atoms: C_19  and  C_37
   11  A    between atoms: O_32  and  C_35
                            x       y       z     vdW  Elec       q    Type
                         _______ _______ _______ _____ _____    ______ ____

>  <TORSDO>
F 11

$$$$
=
 OpenBabel11062409553D

 43 48  0  0  1  0  0  0  0  0999 V2000
  161.6720  204.5530  147.5080 C   0  0  0  0  0  0  0  0  0  0  0  0
  161.2320  208.3440  150.9450 C   0  0  0  0  0  0  0  0  0  0  0  0
  161.9100  210.6520  149.4460 C   0  0  0  0  0  0  0  0  0  0  0  0
  161.2480  205.8720  149.6140 C   0  0  0  0  0  0  0  0  0  0  0  0
  162.0830  205.8050  146.8570 C   0  0  0  0  0  3  0  0  0  0  0  0
  161.6960  203.4830  146.8490 O   0  0  0  0  0  0  0  0  0  0  0  0
  161.6610  207.0370  148.9340 C   0  0  0  0  0  0  0  0  0  0  0  0
  161.2350  204.5240  148.9450 C   0  0  0  0  0  2  0  0  0  0  0  0
  162.0800  206.9580  147.5220 C   0  0  0  0  0  3  0  0  0  0  0  0
  162.0390  209.4740  148.9120 N   0  0  0  0  0  0  0  0  0  0  0  0
  161.6510  208.2770  149.6010 C   0  0  0  0  0  0  0  0  0  0  0  0
  160.8220  207.1830  151.6070 C   0  0  0  0  0  3  0  0  0  0  0  0
  161.2840  209.6490  151.6880 C   0  0  2  0  0  3  0  0  0  0  0  0
  161.3650  210.7810  150.7660 N   0  0  0  0  0  2  0  0  0  0  0  0
  160.8280  205.9570  150.9440 C   0  0  0  0  0  3  0  0  0  0  0  0
  162.2820  211.8510  148.6790 C   0  0  0  0  0  0  0  0  0  0  0  0
  163.3460  211.8660  148.0060 O   0  0  0  0  0  0  0  0  0  0  0  0
  161.4250  213.0720  148.7050 C   0  0  0  0  0  2  0  0  0  0  0  0
  160.5540  213.1400  147.4610 C   0  0  2  0  0  3  0  0  0  0  0  0
  160.3880  211.8610  146.9320 O   0  0  0  0  0  1  0  0  0  0  0  0
  161.2060  214.0290  146.4160 C   0  0  0  0  0  2  0  0  0  0  0  0
  160.3980  214.0690  145.2070 N   0  0  0  0  0  0  0  0  0  0  0  0
  159.8060  214.0110  143.0560 N   0  0  0  0  0  0  0  0  0  0  0  0
  159.0660  214.2290  145.1510 C   0  0  0  0  0  3  0  0  0  0  0  0
  160.8200  213.9360  143.9370 C   0  0  0  0  0  0  0  0  0  0  0  0
  158.7030  214.1930  143.8150 C   0  0  0  0  0  3  0  0  0  0  0  0
  162.2580  213.7390  143.5490 C   0  0  1  0  0  3  0  0  0  0  0  0
  162.8920  212.9250  144.4710 F   0  0  0  0  0  0  0  0  0  0  0  0
  162.3740  213.1650  142.2140 N   0  0  0  0  0  0  0  0  0  0  0  0
  161.6710  210.1940  140.2140 C   0  0  0  0  0  1  0  0  0  0  0  0
  163.0420  212.6630  139.7050 S   0  0  0  0  0  0  0  0  0  0  0  0
  162.1280  211.5120  140.7210 C   0  0  0  0  0  0  0  0  0  0  0  0
  163.0970  213.8110  141.1280 C   0  0  0  0  0  2  0  0  0  0  0  0
  161.8790  211.8960  141.9220 N   0  0  0  0  0  0  0  0  0  0  0  0
  162.4860  209.6610  152.6200 C   0  0  0  0  0  2  0  0  0  0  0  0
  162.2930  210.6010  153.6360 O   0  0  0  0  0  0  0  0  0  0  0  0
  161.1720  208.9180  154.8800 C   0  0  0  0  0  2  0  0  0  0  0  0
  160.3030  209.0520  156.1060 C   0  0  2  0  0  3  0  0  0  0  0  0
  160.7360  211.2250  155.3290 C   0  0  0  0  0  2  0  0  0  0  0  0
  161.0680  210.2590  154.2110 C   0  0  1  0  0  3  0  0  0  0  0  0
  160.2670  210.4610  156.4810 N   0  0  0  0  0  2  0  0  0  0  0  0
  160.2880  206.9600  157.2530 O   0  0  0  0  0  1  0  0  0  0  0  0
  160.8820  208.2220  157.2360 C   0  0  0  0  0  2  0  0  0  0  0  0
  1  8  1  0  0  0  0
  2 12  1  0  0  0  0
  2 13  1  0  0  0  0
  3 14  1  0  0  0  0
  4 15  1  0  0  0  0
  5  1  1  0  0  0  0
  5  9  2  0  0  0  0
  6  1  2  0  0  0  0
  7 11  1  0  0  0  0
  7  4  2  0  0  0  0
  8  4  1  0  0  0  0
  9  7  1  0  0  0  0
 10  3  2  0  0  0  0
 10 11  1  0  0  0  0
 11  2  2  0  0  0  0
 13 35  1  1  0  0  0
 14 13  1  0  0  0  0
 15 12  2  0  0  0  0
 16 18  1  0  0  0  0
 16  3  1  0  0  0  0
 17 16  2  0  0  0  0
 19 20  1  6  0  0  0
 19 18  1  0  0  0  0
 21 19  1  0  0  0  0
 22 21  1  0  0  0  0
 23 26  1  0  0  0  0
 23 25  2  0  0  0  0
 24 22  1  0  0  0  0
 25 22  1  0  0  0  0
 26 24  2  0  0  0  0
 27 25  1  0  0  0  0
 27 28  1  1  0  0  0
 29 27  1  0  0  0  0
 30 32  1  0  0  0  0
 31 32  1  0  0  0  0
 31 33  1  0  0  0  0
 32 34  2  0  0  0  0
 33 29  1  0  0  0  0
 34 29  1  0  0  0  0
 35 36  1  0  0  0  0
 37 38  1  0  0  0  0
 38 41  1  0  0  0  0
 38 43  1  1  0  0  0
 39 41  1  0  0  0  0
 40 36  1  1  0  0  0
 40 37  1  0  0  0  0
 40 39  1  0  0  0  0
 43 42  1  0  0  0  0
M  END
>  <MODEL>
2

>  <REMARK>
 VINA RESULT:      -7.8      1.450      1.966
  Name = 
  11 active torsions:
  status: ('A' for Active; 'I' for Inactive)
    1  A    between atoms: C_1  and  O_32
    2  A    between atoms: C_1  and  C_34
    3  A    between atoms: C_2  and  C_6
    4  A    between atoms: C_2  and  C_13
    5  A    between atoms: C_3  and  N_4
    6  A    between atoms: C_3  and  C_12
    7  A    between atoms: C_6  and  C_12
    8  A    between atoms: N_11  and  C_14
    9  A    between atoms: C_14  and  C_22
   10  A    between atoms: C_19  and  C_37
   11  A    between atoms: O_32  and  C_35
                            x       y       z     vdW  Elec       q    Type
                         _______ _______ _______ _____ _____    ______ ____

>  <TORSDO>
F 11

$$$$
=
 OpenBabel11062409553D

 43 48  0  0  1  0  0  0  0  0999 V2000
  161.8330  203.9090  146.2500 C   0  0  0  0  0  0  0  0  0  0  0  0
  160.8930  206.2960  150.7000 C   0  0  0  0  0  0  0  0  0  0  0  0
  161.6470  208.9740  150.1640 C   0  0  0  0  0  0  0  0  0  0  0  0
  161.1390  204.4290  148.6180 C   0  0  0  0  0  0  0  0  0  0  0  0
  162.2680  205.3060  146.1170 C   0  0  0  0  0  3  0  0  0  0  0  0
  161.9650  203.1290  145.2740 O   0  0  0  0  0  0  0  0  0  0  0  0
  161.5820  205.7540  148.4270 C   0  0  0  0  0  0  0  0  0  0  0  0
  161.2440  203.3910  147.5330 C   0  0  0  0  0  2  0  0  0  0  0  0
  162.1520  206.1620  147.1290 C   0  0  0  0  0  3  0  0  0  0  0  0
  161.8750  208.0500  149.2790 N   0  0  0  0  0  0  0  0  0  0  0  0
  161.4560  206.6910  149.4700 C   0  0  0  0  0  0  0  0  0  0  0  0
  160.4540  204.9800  150.8760 C   0  0  0  0  0  3  0  0  0  0  0  0
  160.8180  207.2670  151.8450 C   0  0  2  0  0  3  0  0  0  0  0  0
  160.9600  208.6460  151.3790 N   0  0  0  0  0  2  0  0  0  0  0  0
  160.5740  204.0540  149.8400 C   0  0  0  0  0  3  0  0  0  0  0  0
  162.0580  210.3620  149.8990 C   0  0  0  0  0  0  0  0  0  0  0  0
  162.4850  211.0850  150.8370 O   0  0  0  0  0  0  0  0  0  0  0  0
  161.9520  210.9420  148.5280 C   0  0  0  0  0  2  0  0  0  0  0  0
  162.0660  212.4570  148.5800 C   0  0  2  0  0  3  0  0  0  0  0  0
  160.8340  213.0110  148.9250 O   0  0  0  0  0  1  0  0  0  0  0  0
  162.4890  212.9940  147.2230 C   0  0  0  0  0  2  0  0  0  0  0  0
  161.4200  212.8190  146.2530 N   0  0  0  0  0  0  0  0  0  0  0  0
  160.3120  212.7450  144.3160 N   0  0  0  0  0  0  0  0  0  0  0  0
  160.1680  212.4140  146.5190 C   0  0  0  0  0  3  0  0  0  0  0  0
  161.4840  213.0080  144.9220 C   0  0  0  0  0  0  0  0  0  0  0  0
  159.4840  212.3700  145.3160 C   0  0  0  0  0  3  0  0  0  0  0  0
  162.7180  213.4700  144.2010 C   0  0  1  0  0  3  0  0  0  0  0  0
  163.8350  212.8320  144.7130 F   0  0  0  0  0  0  0  0  0  0  0  0
  162.6180  213.2270  142.7680 N   0  0  0  0  0  0  0  0  0  0  0  0
  161.8600  210.6880  140.2570 C   0  0  0  0  0  1  0  0  0  0  0  0
  162.8000  213.3970  140.1350 S   0  0  0  0  0  0  0  0  0  0  0  0
  162.2570  211.9200  140.9820 C   0  0  0  0  0  0  0  0  0  0  0  0
  163.0180  214.2010  141.7630 C   0  0  0  0  0  2  0  0  0  0  0  0
  162.2230  211.9890  142.2660 N   0  0  0  0  0  0  0  0  0  0  0  0
  161.9120  206.9540  152.8540 C   0  0  0  0  0  2  0  0  0  0  0  0
  161.3690  206.2830  153.9530 O   0  0  0  0  0  0  0  0  0  0  0  0
  161.4940  208.6030  154.4370 C   0  0  0  0  0  2  0  0  0  0  0  0
  160.6670  209.4300  155.3900 C   0  0  2  0  0  3  0  0  0  0  0  0
  160.1100  207.1800  155.7670 C   0  0  0  0  0  2  0  0  0  0  0  0
  161.4120  207.2110  154.9950 C   0  0  1  0  0  3  0  0  0  0  0  0
  159.6730  208.5530  155.9990 N   0  0  0  0  0  2  0  0  0  0  0  0
  160.8960  211.1790  153.7840 O   0  0  0  0  0  1  0  0  0  0  0  0
  159.9840  210.5520  154.6330 C   0  0  0  0  0  2  0  0  0  0  0  0
  1  8  1  0  0  0  0
  2 12  1  0  0  0  0
  2 13  1  0  0  0  0
  3 14  1  0  0  0  0
  4 15  1  0  0  0  0
  5  1  1  0  0  0  0
  5  9  2  0  0  0  0
  6  1  2  0  0  0  0
  7  4  2  0  0  0  0
  7 11  1  0  0  0  0
  8  4  1  0  0  0  0
  9  7  1  0  0  0  0
 10 11  1  0  0  0  0
 10  3  2  0  0  0  0
 11  2  2  0  0  0  0
 13 35  1  1  0  0  0
 14 13  1  0  0  0  0
 15 12  2  0  0  0  0
 16  3  1  0  0  0  0
 16 17  2  0  0  0  0
 18 19  1  0  0  0  0
 18 16  1  0  0  0  0
 19 20  1  6  0  0  0
 21 19  1  0  0  0  0
 22 24  1  0  0  0  0
 22 21  1  0  0  0  0
 23 25  2  0  0  0  0
 23 26  1  0  0  0  0
 25 22  1  0  0  0  0
 26 24  2  0  0  0  0
 27 28  1  1  0  0  0
 27 25  1  0  0  0  0
 29 27  1  0  0  0  0
 30 32  1  0  0  0  0
 31 32  1  0  0  0  0
 31 33  1  0  0  0  0
 32 34  2  0  0  0  0
 33 29  1  0  0  0  0
 34 29  1  0  0  0  0
 35 36  1  0  0  0  0
 37 40  1  0  0  0  0
 37 38  1  0  0  0  0
 38 43  1  6  0  0  0
 38 41  1  0  0  0  0
 39 41  1  0  0  0  0
 40 36  1  6  0  0  0
 40 39  1  0  0  0  0
 42 43  1  0  0  0  0
M  END
>  <MODEL>
3

>  <REMARK>
 VINA RESULT:      -7.3      1.924      2.829
  Name = 
  11 active torsions:
  status: ('A' for Active; 'I' for Inactive)
    1  A    between atoms: C_1  and  O_32
    2  A    between atoms: C_1  and  C_34
    3  A    between atoms: C_2  and  C_6
    4  A    between atoms: C_2  and  C_13
    5  A    between atoms: C_3  and  N_4
    6  A    between atoms: C_3  and  C_12
    7  A    between atoms: C_6  and  C_12
    8  A    between atoms: N_11  and  C_14
    9  A    between atoms: C_14  and  C_22
   10  A    between atoms: C_19  and  C_37
   11  A    between atoms: O_32  and  C_35
                            x       y       z     vdW  Elec       q    Type
                         _______ _______ _______ _____ _____    ______ ____

>  <TORSDO>
F 11

$$$$
=
 OpenBabel11062409553D

 43 48  0  0  1  0  0  0  0  0999 V2000
  161.0620  201.9090  146.7380 C   0  0  0  0  0  0  0  0  0  0  0  0
  160.9460  205.4560  150.4500 C   0  0  0  0  0  0  0  0  0  0  0  0
  161.7660  207.8160  149.1100 C   0  0  0  0  0  0  0  0  0  0  0  0
  160.7650  203.0950  148.9430 C   0  0  0  0  0  0  0  0  0  0  0  0
  161.5520  203.1730  146.1730 C   0  0  0  0  0  3  0  0  0  0  0  0
  160.9990  200.8920  146.0030 O   0  0  0  0  0  0  0  0  0  0  0  0
  161.2500  204.2750  148.3420 C   0  0  0  0  0  0  0  0  0  0  0  0
  160.6440  201.8040  148.1790 C   0  0  0  0  0  2  0  0  0  0  0  0
  161.6410  204.2720  146.9200 C   0  0  0  0  0  3  0  0  0  0  0  0
  161.8020  206.6740  148.4900 N   0  0  0  0  0  0  0  0  0  0  0  0
  161.3390  205.4590  149.0970 C   0  0  0  0  0  0  0  0  0  0  0  0
  160.4630  204.2820  151.0350 C   0  0  0  0  0  3  0  0  0  0  0  0
  161.1020  206.6960  151.2860 C   0  0  2  0  0  3  0  0  0  0  0  0
  161.2520  207.8850  150.4470 N   0  0  0  0  0  2  0  0  0  0  0  0
  160.3710  203.1100  150.2840 C   0  0  0  0  0  3  0  0  0  0  0  0
  162.2120  209.0390  148.4250 C   0  0  0  0  0  0  0  0  0  0  0  0
  163.3460  209.0790  147.8800 O   0  0  0  0  0  0  0  0  0  0  0  0
  161.3460  210.2530  148.3880 C   0  0  0  0  0  2  0  0  0  0  0  0
  162.0910  211.4570  148.9420 C   0  0  2  0  0  3  0  0  0  0  0  0
  161.2440  212.1970  149.7660 O   0  0  0  0  0  1  0  0  0  0  0  0
  162.5740  212.3400  147.8050 C   0  0  0  0  0  2  0  0  0  0  0  0
  161.4540  212.7560  146.9750 N   0  0  0  0  0  0  0  0  0  0  0  0
  160.2760  213.5220  145.2410 N   0  0  0  0  0  0  0  0  0  0  0  0
  160.1560  212.7060  147.3150 C   0  0  0  0  0  3  0  0  0  0  0  0
  161.5010  213.2460  145.7230 C   0  0  0  0  0  0  0  0  0  0  0  0
  159.4290  213.1820  146.2370 C   0  0  0  0  0  3  0  0  0  0  0  0
  162.7760  213.4700  144.9590 C   0  0  1  0  0  3  0  0  0  0  0  0
  163.7470  212.5810  145.3850 F   0  0  0  0  0  0  0  0  0  0  0  0
  162.5660  213.3300  143.5240 N   0  0  0  0  0  0  0  0  0  0  0  0
  161.2870  211.0930  140.9380 C   0  0  0  0  0  1  0  0  0  0  0  0
  162.6390  213.6240  140.8970 S   0  0  0  0  0  0  0  0  0  0  0  0
  161.9120  212.2030  141.7000 C   0  0  0  0  0  0  0  0  0  0  0  0
  163.0650  214.2870  142.5470 C   0  0  0  0  0  2  0  0  0  0  0  0
  161.9530  212.2000  142.9850 N   0  0  0  0  0  0  0  0  0  0  0  0
  162.3160  206.5540  152.1920 C   0  0  0  0  0  2  0  0  0  0  0  0
  161.9080  206.2310  153.4890 O   0  0  0  0  0  0  0  0  0  0  0  0
  160.5120  207.0270  155.2350 C   0  0  0  0  0  2  0  0  0  0  0  0
  160.2480  208.4440  155.6810 C   0  0  2  0  0  3  0  0  0  0  0  0
  161.4850  208.5680  153.6890 C   0  0  0  0  0  2  0  0  0  0  0  0
  160.9190  207.1670  153.7960 C   0  0  1  0  0  3  0  0  0  0  0  0
  161.0590  209.3330  154.8560 N   0  0  0  0  0  2  0  0  0  0  0  0
  161.8970  209.1550  157.2520 O   0  0  0  0  0  1  0  0  0  0  0  0
  160.6230  208.5980  157.1430 C   0  0  0  0  0  2  0  0  0  0  0  0
  1  8  1  0  0  0  0
  2 12  1  0  0  0  0
  2 13  1  0  0  0  0
  3 14  1  0  0  0  0
  4 15  1  0  0  0  0
  5  1  1  0  0  0  0
  5  9  2  0  0  0  0
  6  1  2  0  0  0  0
  7  4  2  0  0  0  0
  7 11  1  0  0  0  0
  8  4  1  0  0  0  0
  9  7  1  0  0  0  0
 10 11  1  0  0  0  0
 10  3  2  0  0  0  0
 11  2  2  0  0  0  0
 13 35  1  1  0  0  0
 14 13  1  0  0  0  0
 15 12  2  0  0  0  0
 16  3  1  0  0  0  0
 17 16  2  0  0  0  0
 18 16  1  0  0  0  0
 18 19  1  0  0  0  0
 19 20  1  1  0  0  0
 21 19  1  0  0  0  0
 22 24  1  0  0  0  0
 22 21  1  0  0  0  0
 23 25  2  0  0  0  0
 23 26  1  0  0  0  0
 25 22  1  0  0  0  0
 26 24  2  0  0  0  0
 27 28  1  1  0  0  0
 27 25  1  0  0  0  0
 29 27  1  0  0  0  0
 30 32  1  0  0  0  0
 31 32  1  0  0  0  0
 31 33  1  0  0  0  0
 32 34  2  0  0  0  0
 33 29  1  0  0  0  0
 34 29  1  0  0  0  0
 35 36  1  0  0  0  0
 37 38  1  0  0  0  0
 38 43  1  1  0  0  0
 39 40  1  0  0  0  0
 39 41  1  0  0  0  0
 40 36  1  1  0  0  0
 40 37  1  0  0  0  0
 41 38  1  0  0  0  0
 43 42  1  0  0  0  0
M  END
>  <MODEL>
4

>  <REMARK>
 VINA RESULT:      -7.1      2.133      3.176
  Name = 
  11 active torsions:
  status: ('A' for Active; 'I' for Inactive)
    1  A    between atoms: C_1  and  O_32
    2  A    between atoms: C_1  and  C_34
    3  A    between atoms: C_2  and  C_6
    4  A    between atoms: C_2  and  C_13
    5  A    between atoms: C_3  and  N_4
    6  A    between atoms: C_3  and  C_12
    7  A    between atoms: C_6  and  C_12
    8  A    between atoms: N_11  and  C_14
    9  A    between atoms: C_14  and  C_22
   10  A    between atoms: C_19  and  C_37
   11  A    between atoms: O_32  and  C_35
                            x       y       z     vdW  Elec       q    Type
                         _______ _______ _______ _____ _____    ______ ____

>  <TORSDO>
F 11

$$$$
=
 OpenBabel11062409553D

 43 48  0  0  1  0  0  0  0  0999 V2000
  155.1050  214.0170  156.1160 C   0  0  0  0  0  0  0  0  0  0  0  0
  158.2620  213.2260  152.1440 C   0  0  0  0  0  0  0  0  0  0  0  0
  160.3010  211.6020  153.2570 C   0  0  0  0  0  0  0  0  0  0  0  0
  156.1550  214.0120  153.8240 C   0  0  0  0  0  0  0  0  0  0  0  0
  156.2570  213.2450  156.6000 C   0  0  0  0  0  3  0  0  0  0  0  0
  154.1930  214.3280  156.9230 O   0  0  0  0  0  0  0  0  0  0  0  0
  157.2370  213.2750  154.3530 C   0  0  0  0  0  0  0  0  0  0  0  0
  155.0000  214.4530  154.6820 C   0  0  0  0  0  2  0  0  0  0  0  0
  157.2480  212.9020  155.7800 C   0  0  0  0  0  3  0  0  0  0  0  0
  159.3830  212.1050  154.0270 N   0  0  0  0  0  0  0  0  0  0  0  0
  158.2920  212.8800  153.5090 C   0  0  0  0  0  0  0  0  0  0  0  0
  157.1830  213.9530  151.6300 C   0  0  0  0  0  3  0  0  0  0  0  0
  159.4160  212.8710  151.2480 C   0  0  2  0  0  3  0  0  0  0  0  0
  160.2420  211.8190  151.8400 N   0  0  0  0  0  2  0  0  0  0  0  0
  156.1360  214.3400  152.4660 C   0  0  0  0  0  3  0  0  0  0  0  0
  161.3730  210.7770  153.8340 C   0  0  0  0  0  0  0  0  0  0  0  0
  161.7410  210.9610  155.0240 O   0  0  0  0  0  0  0  0  0  0  0  0
  162.0580  209.7320  153.0180 C   0  0  0  0  0  2  0  0  0  0  0  0
  161.1160  208.5730  152.7360 C   0  0  2  0  0  3  0  0  0  0  0  0
  160.7270  207.9790  153.9360 O   0  0  0  0  0  1  0  0  0  0  0  0
  161.8120  207.5350  151.8710 C   0  0  0  0  0  2  0  0  0  0  0  0
  161.8310  207.9650  150.4810 N   0  0  0  0  0  0  0  0  0  0  0  0
  161.6660  207.9340  148.2560 N   0  0  0  0  0  0  0  0  0  0  0  0
  162.0980  209.2040  150.0390 C   0  0  0  0  0  3  0  0  0  0  0  0
  161.5700  207.2200  149.3920 C   0  0  0  0  0  0  0  0  0  0  0  0
  161.9950  209.1800  148.6590 C   0  0  0  0  0  3  0  0  0  0  0  0
  161.2240  205.7590  149.4400 C   0  0  1  0  0  3  0  0  0  0  0  0
  159.9510  205.5880  149.9540 F   0  0  0  0  0  0  0  0  0  0  0  0
  161.3170  205.1470  148.1210 N   0  0  0  0  0  0  0  0  0  0  0  0
  160.8170  205.7480  144.5550 C   0  0  0  0  0  1  0  0  0  0  0  0
  161.5160  203.4400  146.1110 S   0  0  0  0  0  0  0  0  0  0  0  0
  161.0840  205.1590  145.8920 C   0  0  0  0  0  0  0  0  0  0  0  0
  161.6110  203.7370  147.9130 C   0  0  0  0  0  2  0  0  0  0  0  0
  161.0230  205.8660  146.9640 N   0  0  0  0  0  0  0  0  0  0  0  0
  160.2670  214.1060  150.9950 C   0  0  0  0  0  2  0  0  0  0  0  0
  160.2190  214.4480  149.6400 O   0  0  0  0  0  0  0  0  0  0  0  0
  159.5450  213.1370  147.7800 C   0  0  0  0  0  2  0  0  0  0  0  0
  160.3880  212.4700  146.7220 C   0  0  2  0  0  3  0  0  0  0  0  0
  161.8580  213.2790  148.3650 C   0  0  0  0  0  2  0  0  0  0  0  0
  160.4660  213.2540  148.9610 C   0  0  1  0  0  3  0  0  0  0  0  0
  161.7850  212.7930  146.9910 N   0  0  0  0  0  2  0  0  0  0  0  0
  161.0300  213.7190  144.7920 O   0  0  0  0  0  1  0  0  0  0  0  0
  159.9860  212.9810  145.3510 C   0  0  0  0  0  2  0  0  0  0  0  0
  1  5  1  0  0  0  0
  1  6  2  0  0  0  0
  2 11  1  0  0  0  0
  3 16  1  0  0  0  0
  3 10  2  0  0  0  0
  4  7  1  0  0  0  0
  4  8  1  0  0  0  0
  7  9  1  0  0  0  0
  8  1  1  0  0  0  0
  9  5  2  0  0  0  0
 11 10  1  0  0  0  0
 11  7  2  0  0  0  0
 12  2  2  0  0  0  0
 12 15  1  0  0  0  0
 13 35  1  1  0  0  0
 13 14  1  0  0  0  0
 13  2  1  0  0  0  0
 14  3  1  0  0  0  0
 15  4  2  0  0  0  0
 16 17  2  0  0  0  0
 18 16  1  0  0  0  0
 19 18  1  0  0  0  0
 19 20  1  1  0  0  0
 21 19  1  0  0  0  0
 22 21  1  0  0  0  0
 23 26  1  0  0  0  0
 23 25  2  0  0  0  0
 24 22  1  0  0  0  0
 25 27  1  0  0  0  0
 25 22  1  0  0  0  0
 26 24  2  0  0  0  0
 27 28  1  6  0  0  0
 29 27  1  0  0  0  0
 30 32  1  0  0  0  0
 31 33  1  0  0  0  0
 32 31  1  0  0  0  0
 32 34  2  0  0  0  0
 33 29  1  0  0  0  0
 34 29  1  0  0  0  0
 36 35  1  0  0  0  0
 37 40  1  0  0  0  0
 38 43  1  6  0  0  0
 38 41  1  0  0  0  0
 38 37  1  0  0  0  0
 39 40  1  0  0  0  0
 40 36  1  6  0  0  0
 41 39  1  0  0  0  0
 42 43  1  0  0  0  0
M  END
>  <MODEL>
5

>  <REMARK>
 VINA RESULT:      -7.0      4.072      9.277
  Name = 
  11 active torsions:
  status: ('A' for Active; 'I' for Inactive)
    1  A    between atoms: C_1  and  O_32
    2  A    between atoms: C_1  and  C_34
    3  A    between atoms: C_2  and  C_6
    4  A    between atoms: C_2  and  C_13
    5  A    between atoms: C_3  and  N_4
    6  A    between atoms: C_3  and  C_12
    7  A    between atoms: C_6  and  C_12
    8  A    between atoms: N_11  and  C_14
    9  A    between atoms: C_14  and  C_22
   10  A    between atoms: C_19  and  C_37
   11  A    between atoms: O_32  and  C_35
                            x       y       z     vdW  Elec       q    Type
                         _______ _______ _______ _____ _____    ______ ____

>  <TORSDO>
F 11

$$$$
=
 OpenBabel11062409553D

 43 48  0  0  1  0  0  0  0  0999 V2000
  161.9650  204.1500  146.4170 C   0  0  0  0  0  0  0  0  0  0  0  0
  160.8870  206.6660  150.7630 C   0  0  0  0  0  0  0  0  0  0  0  0
  161.5580  209.3480  150.1360 C   0  0  0  0  0  0  0  0  0  0  0  0
  161.2220  204.7330  148.7550 C   0  0  0  0  0  0  0  0  0  0  0  0
  162.3550  205.5550  146.2360 C   0  0  0  0  0  3  0  0  0  0  0  0
  162.1360  203.3390  145.4720 O   0  0  0  0  0  0  0  0  0  0  0  0
  161.6230  206.0650  148.5200 C   0  0  0  0  0  0  0  0  0  0  0  0
  161.3770  203.6600  147.7110 C   0  0  0  0  0  2  0  0  0  0  0  0
  162.1970  206.4430  147.2150 C   0  0  0  0  0  3  0  0  0  0  0  0
  161.8280  208.3990  149.2890 N   0  0  0  0  0  0  0  0  0  0  0  0
  161.4530  207.0340  149.5260 C   0  0  0  0  0  0  0  0  0  0  0  0
  160.4900  205.3440  150.9830 C   0  0  0  0  0  3  0  0  0  0  0  0
  160.7650  207.6760  151.8690 C   0  0  2  0  0  3  0  0  0  0  0  0
  160.8660  209.0410  151.3540 N   0  0  0  0  0  2  0  0  0  0  0  0
  160.6550  204.3850  149.9840 C   0  0  0  0  0  3  0  0  0  0  0  0
  161.9260  210.7380  149.8240 C   0  0  0  0  0  0  0  0  0  0  0  0
  162.7980  210.9790  148.9490 O   0  0  0  0  0  0  0  0  0  0  0  0
  161.2950  211.8770  150.5520 C   0  0  0  0  0  2  0  0  0  0  0  0
  160.4020  212.6780  149.6180 C   0  0  2  0  0  3  0  0  0  0  0  0
  161.0870  212.9600  148.4370 O   0  0  0  0  0  1  0  0  0  0  0  0
  159.9930  213.9820  150.2800 C   0  0  0  0  0  2  0  0  0  0  0  0
  158.5490  214.0300  150.4580 N   0  0  0  0  0  0  0  0  0  0  0  0
  156.5320  213.9410  151.4080 N   0  0  0  0  0  0  0  0  0  0  0  0
  157.6450  214.3300  149.5130 C   0  0  0  0  0  3  0  0  0  0  0  0
  157.8580  213.8040  151.5900 C   0  0  0  0  0  0  0  0  0  0  0  0
  156.3950  214.2730  150.1060 C   0  0  0  0  0  3  0  0  0  0  0  0
  158.4930  213.4300  152.8990 C   0  0  1  0  0  3  0  0  0  0  0  0
  159.3150  214.4530  153.3370 F   0  0  0  0  0  0  0  0  0  0  0  0
  157.4880  213.1290  153.9100 N   0  0  0  0  0  0  0  0  0  0  0  0
  155.4960  210.4430  155.3740 C   0  0  0  0  0  1  0  0  0  0  0  0
  155.5810  213.2890  155.7360 S   0  0  0  0  0  0  0  0  0  0  0  0
  156.0990  211.7460  154.9980 C   0  0  0  0  0  0  0  0  0  0  0  0
  156.8080  214.1530  154.6900 C   0  0  0  0  0  2  0  0  0  0  0  0
  157.0370  211.8280  154.1230 N   0  0  0  0  0  0  0  0  0  0  0  0
  161.8550  207.4380  152.9030 C   0  0  0  0  0  2  0  0  0  0  0  0
  161.3420  206.7060  153.9770 O   0  0  0  0  0  0  0  0  0  0  0  0
  161.7800  208.9510  154.6080 C   0  0  0  0  0  2  0  0  0  0  0  0
  161.0080  209.8520  155.5400 C   0  0  2  0  0  3  0  0  0  0  0  0
  160.0810  207.7040  155.7350 C   0  0  0  0  0  2  0  0  0  0  0  0
  161.4350  207.5650  155.0730 C   0  0  1  0  0  3  0  0  0  0  0  0
  159.8410  209.1160  156.0140 N   0  0  0  0  0  2  0  0  0  0  0  0
  160.3090  212.1270  155.7090 O   0  0  0  0  0  1  0  0  0  0  0  0
  160.5750  211.1030  154.8000 C   0  0  0  0  0  2  0  0  0  0  0  0
  1  8  1  0  0  0  0
  2 12  1  0  0  0  0
  2 13  1  0  0  0  0
  3 14  1  0  0  0  0
  4 15  1  0  0  0  0
  5  1  1  0  0  0  0
  5  9  2  0  0  0  0
  6  1  2  0  0  0  0
  7  4  2  0  0  0  0
  7 11  1  0  0  0  0
  8  4  1  0  0  0  0
  9  7  1  0  0  0  0
 10 11  1  0  0  0  0
 10  3  2  0  0  0  0
 11  2  2  0  0  0  0
 13 35  1  1  0  0  0
 14 13  1  0  0  0  0
 15 12  2  0  0  0  0
 16  3  1  0  0  0  0
 16 18  1  0  0  0  0
 17 16  2  0  0  0  0
 19 20  1  6  0  0  0
 19 21  1  0  0  0  0
 19 18  1  0  0  0  0
 21 22  1  0  0  0  0
 22 25  1  0  0  0  0
 23 25  2  0  0  0  0
 24 26  2  0  0  0  0
 24 22  1  0  0  0  0
 25 27  1  0  0  0  0
 26 23  1  0  0  0  0
 27 28  1  1  0  0  0
 27 29  1  0  0  0  0
 29 34  1  0  0  0  0
 29 33  1  0  0  0  0
 32 30  1  0  0  0  0
 32 31  1  0  0  0  0
 33 31  1  0  0  0  0
 34 32  2  0  0  0  0
 35 36  1  0  0  0  0
 37 40  1  0  0  0  0
 37 38  1  0  0  0  0
 38 43  1  6  0  0  0
 38 41  1  0  0  0  0
 39 41  1  0  0  0  0
 40 36  1  6  0  0  0
 40 39  1  0  0  0  0
 43 42  1  0  0  0  0
M  END
>  <MODEL>
6

>  <REMARK>
 VINA RESULT:      -6.8      5.598      7.522
  Name = 
  11 active torsions:
  status: ('A' for Active; 'I' for Inactive)
    1  A    between atoms: C_1  and  O_32
    2  A    between atoms: C_1  and  C_34
    3  A    between atoms: C_2  and  C_6
    4  A    between atoms: C_2  and  C_13
    5  A    between atoms: C_3  and  N_4
    6  A    between atoms: C_3  and  C_12
    7  A    between atoms: C_6  and  C_12
    8  A    between atoms: N_11  and  C_14
    9  A    between atoms: C_14  and  C_22
   10  A    between atoms: C_19  and  C_37
   11  A    between atoms: O_32  and  C_35
                            x       y       z     vdW  Elec       q    Type
                         _______ _______ _______ _____ _____    ______ ____

>  <TORSDO>
F 11

$$$$
=
 OpenBabel11062409553D

 43 48  0  0  1  0  0  0  0  0999 V2000
  161.6310  203.8230  146.3840 C   0  0  0  0  0  0  0  0  0  0  0  0
  161.1080  207.2510  150.1720 C   0  0  0  0  0  0  0  0  0  0  0  0
  161.8340  209.6940  148.9320 C   0  0  0  0  0  0  0  0  0  0  0  0
  161.1530  204.9250  148.6000 C   0  0  0  0  0  0  0  0  0  0  0  0
  162.0640  205.1310  145.8750 C   0  0  0  0  0  3  0  0  0  0  0  0
  161.6700  202.8240  145.6220 O   0  0  0  0  0  0  0  0  0  0  0  0
  161.5880  206.1510  148.0520 C   0  0  0  0  0  0  0  0  0  0  0  0
  161.1540  203.6510  147.7990 C   0  0  0  0  0  2  0  0  0  0  0  0
  162.0450  206.2110  146.6520 C   0  0  0  0  0  3  0  0  0  0  0  0
  161.9750  208.5750  148.2860 N   0  0  0  0  0  0  0  0  0  0  0  0
  161.5640  207.3170  148.8400 C   0  0  0  0  0  0  0  0  0  0  0  0
  160.6750  206.0320  150.7030 C   0  0  0  0  0  3  0  0  0  0  0  0
  161.1430  208.4750  151.0450 C   0  0  2  0  0  3  0  0  0  0  0  0
  161.2540  209.6930  150.2440 N   0  0  0  0  0  2  0  0  0  0  0  0
  160.6960  204.8780  149.9200 C   0  0  0  0  0  3  0  0  0  0  0  0
  162.2320  210.9620  148.3000 C   0  0  0  0  0  0  0  0  0  0  0  0
  163.4470  211.2040  148.0790 O   0  0  0  0  0  0  0  0  0  0  0  0
  161.2110  211.9880  147.9360 C   0  0  0  0  0  2  0  0  0  0  0  0
  161.7940  213.3870  148.0560 C   0  0  2  0  0  3  0  0  0  0  0  0
  161.4650  213.9300  149.2980 O   0  0  0  0  0  1  0  0  0  0  0  0
  161.2370  214.2790  146.9600 C   0  0  0  0  0  2  0  0  0  0  0  0
  161.7460  213.8640  145.6620 N   0  0  0  0  0  0  0  0  0  0  0  0
  161.8760  213.4710  143.4690 N   0  0  0  0  0  0  0  0  0  0  0  0
  162.9610  213.3500  145.4160 C   0  0  0  0  0  3  0  0  0  0  0  0
  161.1130  213.9310  144.4770 C   0  0  0  0  0  0  0  0  0  0  0  0
  163.0380  213.1080  144.0550 C   0  0  0  0  0  3  0  0  0  0  0  0
  159.7130  214.4480  144.3030 C   0  0  1  0  0  3  0  0  0  0  0  0
  159.2740  214.2050  143.0140 F   0  0  0  0  0  0  0  0  0  0  0  0
  158.8000  213.8420  145.2640 N   0  0  0  0  0  0  0  0  0  0  0  0
  157.3360  214.2340  148.5860 C   0  0  0  0  0  1  0  0  0  0  0  0
  157.2260  212.1780  146.5860 S   0  0  0  0  0  0  0  0  0  0  0  0
  157.7570  213.7510  147.2460 C   0  0  0  0  0  0  0  0  0  0  0  0
  158.1990  212.5300  145.0780 C   0  0  0  0  0  2  0  0  0  0  0  0
  158.5240  214.4500  146.4870 N   0  0  0  0  0  0  0  0  0  0  0  0
  162.3190  208.3850  152.0050 C   0  0  0  0  0  2  0  0  0  0  0  0
  162.3380  209.5050  152.8410 O   0  0  0  0  0  0  0  0  0  0  0  0
  161.1480  208.2270  154.4490 C   0  0  0  0  0  2  0  0  0  0  0  0
  160.4240  208.6840  155.6910 C   0  0  2  0  0  3  0  0  0  0  0  0
  161.0400  210.6140  154.5030 C   0  0  0  0  0  2  0  0  0  0  0  0
  161.1420  209.4370  153.5570 C   0  0  1  0  0  3  0  0  0  0  0  0
  160.5960  210.1280  155.8060 N   0  0  0  0  0  2  0  0  0  0  0  0
  160.4630  206.7080  157.0270 O   0  0  0  0  0  1  0  0  0  0  0  0
  161.0050  207.9880  156.9060 C   0  0  0  0  0  2  0  0  0  0  0  0
  1  8  1  0  0  0  0
  2 12  1  0  0  0  0
  2 13  1  0  0  0  0
  3 14  1  0  0  0  0
  4 15  1  0  0  0  0
  5  1  1  0  0  0  0
  5  9  2  0  0  0  0
  6  1  2  0  0  0  0
  7  4  2  0  0  0  0
  7 11  1  0  0  0  0
  8  4  1  0  0  0  0
  9  7  1  0  0  0  0
 10 11  1  0  0  0  0
 10  3  2  0  0  0  0
 11  2  2  0  0  0  0
 13 35  1  1  0  0  0
 14 13  1  0  0  0  0
 15 12  2  0  0  0  0
 16  3  1  0  0  0  0
 17 16  2  0  0  0  0
 18 19  1  0  0  0  0
 18 16  1  0  0  0  0
 19 20  1  1  0  0  0
 21 19  1  0  0  0  0
 22 21  1  0  0  0  0
 23 26  1  0  0  0  0
 23 25  2  0  0  0  0
 24 22  1  0  0  0  0
 25 22  1  0  0  0  0
 26 24  2  0  0  0  0
 27 28  1  6  0  0  0
 27 25  1  0  0  0  0
 27 29  1  0  0  0  0
 29 34  1  0  0  0  0
 31 32  1  0  0  0  0
 32 30  1  0  0  0  0
 33 29  1  0  0  0  0
 33 31  1  0  0  0  0
 34 32  2  0  0  0  0
 35 36  1  0  0  0  0
 37 38  1  0  0  0  0
 38 41  1  0  0  0  0
 38 43  1  1  0  0  0
 39 41  1  0  0  0  0
 40 36  1  1  0  0  0
 40 37  1  0  0  0  0
 40 39  1  0  0  0  0
 43 42  1  0  0  0  0
M  END
>  <MODEL>
7

>  <REMARK>
 VINA RESULT:      -6.5      2.582      3.407
  Name = 
  11 active torsions:
  status: ('A' for Active; 'I' for Inactive)
    1  A    between atoms: C_1  and  O_32
    2  A    between atoms: C_1  and  C_34
    3  A    between atoms: C_2  and  C_6
    4  A    between atoms: C_2  and  C_13
    5  A    between atoms: C_3  and  N_4
    6  A    between atoms: C_3  and  C_12
    7  A    between atoms: C_6  and  C_12
    8  A    between atoms: N_11  and  C_14
    9  A    between atoms: C_14  and  C_22
   10  A    between atoms: C_19  and  C_37
   11  A    between atoms: O_32  and  C_35
                            x       y       z     vdW  Elec       q    Type
                         _______ _______ _______ _____ _____    ______ ____

>  <TORSDO>
F 11

$$$$
=
 OpenBabel11062409553D

 43 48  0  0  1  0  0  0  0  0999 V2000
  162.2610  211.1720  148.7820 C   0  0  0  0  0  0  0  0  0  0  0  0
  161.0080  206.7670  151.1060 C   0  0  0  0  0  0  0  0  0  0  0  0
  160.9150  207.4890  153.8450 C   0  0  0  0  0  0  0  0  0  0  0  0
  161.6250  208.7770  149.2460 C   0  0  0  0  0  0  0  0  0  0  0  0
  162.2630  211.4080  150.2320 C   0  0  0  0  0  3  0  0  0  0  0  0
  162.5400  212.1210  148.0060 O   0  0  0  0  0  0  0  0  0  0  0  0
  161.6510  209.0670  150.6270 C   0  0  0  0  0  0  0  0  0  0  0  0
  161.9450  209.8200  148.2090 C   0  0  0  0  0  2  0  0  0  0  0  0
  161.9820  210.4280  151.0890 C   0  0  0  0  0  3  0  0  0  0  0  0
  161.3320  208.3490  152.9640 N   0  0  0  0  0  0  0  0  0  0  0  0
  161.3400  208.0600  151.5590 C   0  0  0  0  0  0  0  0  0  0  0  0
  160.9810  206.4920  149.7350 C   0  0  0  0  0  3  0  0  0  0  0  0
  160.7420  205.6650  152.0930 C   0  0  2  0  0  3  0  0  0  0  0  0
  160.4440  206.2030  153.4200 N   0  0  0  0  0  2  0  0  0  0  0  0
  161.2860  207.4930  148.8130 C   0  0  0  0  0  3  0  0  0  0  0  0
  160.8870  207.8530  155.2700 C   0  0  0  0  0  0  0  0  0  0  0  0
  161.8090  207.4730  156.0380 O   0  0  0  0  0  0  0  0  0  0  0  0
  159.7590  208.6510  155.8340 C   0  0  0  0  0  2  0  0  0  0  0  0
  160.0690  210.1380  155.7610 C   0  0  2  0  0  3  0  0  0  0  0  0
  161.4420  210.3410  155.8980 O   0  0  0  0  0  1  0  0  0  0  0  0
  159.3440  210.8760  156.8730 C   0  0  0  0  0  2  0  0  0  0  0  0
  159.3450  212.3080  156.6150 N   0  0  0  0  0  0  0  0  0  0  0  0
  158.7960  214.3100  155.7950 N   0  0  0  0  0  0  0  0  0  0  0  0
  160.1600  213.2130  157.1810 C   0  0  0  0  0  3  0  0  0  0  0  0
  158.5310  212.9900  155.7900 C   0  0  0  0  0  0  0  0  0  0  0  0
  159.8160  214.4530  156.6690 C   0  0  0  0  0  3  0  0  0  0  0  0
  157.4620  212.3510  154.9510 C   0  0  1  0  0  3  0  0  0  0  0  0
  156.2370  212.4470  155.5890 F   0  0  0  0  0  0  0  0  0  0  0  0
  157.3860  212.9610  153.6300 N   0  0  0  0  0  0  0  0  0  0  0  0
  159.1840  213.4080  150.4850 C   0  0  0  0  0  1  0  0  0  0  0  0
  156.7190  214.4340  151.5370 S   0  0  0  0  0  0  0  0  0  0  0  0
  158.2160  213.4610  151.6090 C   0  0  0  0  0  0  0  0  0  0  0  0
  156.3150  213.8610  153.2260 C   0  0  0  0  0  2  0  0  0  0  0  0
  158.4050  212.7990  152.6940 N   0  0  0  0  0  0  0  0  0  0  0  0
  161.9510  204.7470  152.1740 C   0  0  0  0  0  2  0  0  0  0  0  0
  162.2040  204.1790  150.9220 O   0  0  0  0  0  0  0  0  0  0  0  0
  160.9750  203.1690  149.1600 C   0  0  0  0  0  2  0  0  0  0  0  0
  160.4210  201.7700  149.0590 C   0  0  2  0  0  3  0  0  0  0  0  0
  161.2060  202.0410  151.2540 C   0  0  0  0  0  2  0  0  0  0  0  0
  161.0690  203.4180  150.6390 C   0  0  1  0  0  3  0  0  0  0  0  0
  160.8020  201.0460  150.2660 N   0  0  0  0  0  2  0  0  0  0  0  0
  161.0900  201.9920  146.7790 O   0  0  0  0  0  1  0  0  0  0  0  0
  160.9910  201.0820  147.8330 C   0  0  0  0  0  2  0  0  0  0  0  0
  1  5  1  0  0  0  0
  2 11  1  0  0  0  0
  2 13  1  0  0  0  0
  3 16  1  0  0  0  0
  4  7  1  0  0  0  0
  5  9  2  0  0  0  0
  6  1  2  0  0  0  0
  7  9  1  0  0  0  0
  7 11  2  0  0  0  0
  8  1  1  0  0  0  0
  8  4  1  0  0  0  0
 10  3  2  0  0  0  0
 11 10  1  0  0  0  0
 12  2  2  0  0  0  0
 13 35  1  1  0  0  0
 13 14  1  0  0  0  0
 14  3  1  0  0  0  0
 15  4  2  0  0  0  0
 15 12  1  0  0  0  0
 16 18  1  0  0  0  0
 16 17  2  0  0  0  0
 19 18  1  0  0  0  0
 19 20  1  1  0  0  0
 19 21  1  0  0  0  0
 22 21  1  0  0  0  0
 22 24  1  0  0  0  0
 23 26  1  0  0  0  0
 25 23  2  0  0  0  0
 25 22  1  0  0  0  0
 26 24  2  0  0  0  0
 27 28  1  1  0  0  0
 27 25  1  0  0  0  0
 29 27  1  0  0  0  0
 30 32  1  0  0  0  0
 31 32  1  0  0  0  0
 31 33  1  0  0  0  0
 32 34  2  0  0  0  0
 33 29  1  0  0  0  0
 34 29  1  0  0  0  0
 36 35  1  0  0  0  0
 37 40  1  0  0  0  0
 38 43  1  6  0  0  0
 38 37  1  0  0  0  0
 38 41  1  0  0  0  0
 40 36  1  6  0  0  0
 40 39  1  0  0  0  0
 41 39  1  0  0  0  0
 42 43  1  0  0  0  0
M  END
>  <MODEL>
8

>  <REMARK>
 VINA RESULT:      -6.3      5.878      9.814
  Name = 
  11 active torsions:
  status: ('A' for Active; 'I' for Inactive)
    1  A    between atoms: C_1  and  O_32
    2  A    between atoms: C_1  and  C_34
    3  A    between atoms: C_2  and  C_6
    4  A    between atoms: C_2  and  C_13
    5  A    between atoms: C_3  and  N_4
    6  A    between atoms: C_3  and  C_12
    7  A    between atoms: C_6  and  C_12
    8  A    between atoms: N_11  and  C_14
    9  A    between atoms: C_14  and  C_22
   10  A    between atoms: C_19  and  C_37
   11  A    between atoms: O_32  and  C_35
                            x       y       z     vdW  Elec       q    Type
                         _______ _______ _______ _____ _____    ______ ____

>  <TORSDO>
F 11

$$$$
=
 OpenBabel11062409553D

 43 48  0  0  1  0  0  0  0  0999 V2000
  162.0920  207.4920  137.8870 C   0  0  0  0  0  0  0  0  0  0  0  0
  161.5470  212.4900  138.9340 C   0  0  0  0  0  0  0  0  0  0  0  0
  160.7760  212.4950  141.6620 C   0  0  0  0  0  0  0  0  0  0  0  0
  162.0440  210.0070  137.7230 C   0  0  0  0  0  0  0  0  0  0  0  0
  161.6090  207.6160  139.2690 C   0  0  0  0  0  3  0  0  0  0  0  0
  162.3020  206.3480  137.4110 O   0  0  0  0  0  0  0  0  0  0  0  0
  161.5750  210.0570  139.0520 C   0  0  0  0  0  0  0  0  0  0  0  0
  162.3300  208.7030  137.0290 C   0  0  0  0  0  2  0  0  0  0  0  0
  161.3670  208.8080  139.8090 C   0  0  0  0  0  3  0  0  0  0  0  0
  160.8800  211.3680  141.0220 N   0  0  0  0  0  0  0  0  0  0  0  0
  161.3280  211.3020  139.6600 C   0  0  0  0  0  0  0  0  0  0  0  0
  162.0150  212.4290  137.6180 C   0  0  0  0  0  3  0  0  0  0  0  0
  161.2200  213.8230  139.5480 C   0  0  2  0  0  3  0  0  0  0  0  0
  161.1130  213.7240  141.0030 N   0  0  0  0  0  2  0  0  0  0  0  0
  162.2640  211.1940  137.0190 C   0  0  0  0  0  3  0  0  0  0  0  0
  160.3540  212.5030  143.0710 C   0  0  0  0  0  0  0  0  0  0  0  0
  159.9880  211.4340  143.6270 O   0  0  0  0  0  0  0  0  0  0  0  0
  160.3280  213.7730  143.8550 C   0  0  0  0  0  2  0  0  0  0  0  0
  161.0560  213.5980  145.1780 C   0  0  2  0  0  3  0  0  0  0  0  0
  162.3580  213.1560  144.9450 O   0  0  0  0  0  1  0  0  0  0  0  0
  160.3320  212.5790  146.0400 C   0  0  0  0  0  2  0  0  0  0  0  0
  160.3030  213.0180  147.4270 N   0  0  0  0  0  0  0  0  0  0  0  0
  160.8460  213.2700  149.5770 N   0  0  0  0  0  0  0  0  0  0  0  0
  159.4190  213.8700  147.9690 C   0  0  0  0  0  3  0  0  0  0  0  0
  161.1530  212.6740  148.4110 C   0  0  0  0  0  0  0  0  0  0  0  0
  159.7590  214.0240  149.3020 C   0  0  0  0  0  3  0  0  0  0  0  0
  162.3040  211.7250  148.2300 C   0  0  1  0  0  3  0  0  0  0  0  0
  163.4790  212.3150  148.6620 F   0  0  0  0  0  0  0  0  0  0  0  0
  162.0800  210.4750  148.9460 N   0  0  0  0  0  0  0  0  0  0  0  0
  161.9390  208.9700  152.2690 C   0  0  0  0  0  1  0  0  0  0  0  0
  161.7740  207.9310  149.5980 S   0  0  0  0  0  0  0  0  0  0  0  0
  161.9580  209.2330  150.8080 C   0  0  0  0  0  0  0  0  0  0  0  0
  161.9270  209.1900  148.2810 C   0  0  0  0  0  2  0  0  0  0  0  0
  162.1000  210.4210  150.3380 N   0  0  0  0  0  0  0  0  0  0  0  0
  159.9110  214.3440  138.9740 C   0  0  0  0  0  2  0  0  0  0  0  0
  158.8770  214.1520  139.8950 O   0  0  0  0  0  0  0  0  0  0  0  0
  157.9640  212.4290  138.5410 C   0  0  0  0  0  2  0  0  0  0  0  0
  156.5830  211.8230  138.5640 C   0  0  2  0  0  3  0  0  0  0  0  0
  156.5430  213.6800  140.0000 C   0  0  0  0  0  2  0  0  0  0  0  0
  157.7700  213.8020  139.1200 C   0  0  1  0  0  3  0  0  0  0  0  0
  155.8300  212.4590  139.6390 N   0  0  0  0  0  2  0  0  0  0  0  0
  157.9890  209.9920  139.1660 O   0  0  0  0  0  1  0  0  0  0  0  0
  156.6840  210.3290  138.8060 C   0  0  0  0  0  2  0  0  0  0  0  0
  1  5  1  0  0  0  0
  2 13  1  0  0  0  0
  2 11  1  0  0  0  0
  3 16  1  0  0  0  0
  4  7  1  0  0  0  0
  5  9  2  0  0  0  0
  6  1  2  0  0  0  0
  7 11  2  0  0  0  0
  7  9  1  0  0  0  0
  8  4  1  0  0  0  0
  8  1  1  0  0  0  0
 10  3  2  0  0  0  0
 11 10  1  0  0  0  0
 12  2  2  0  0  0  0
 13 35  1  6  0  0  0
 13 14  1  0  0  0  0
 14  3  1  0  0  0  0
 15 12  1  0  0  0  0
 15  4  2  0  0  0  0
 16 17  2  0  0  0  0
 16 18  1  0  0  0  0
 18 19  1  0  0  0  0
 19 20  1  6  0  0  0
 19 21  1  0  0  0  0
 21 22  1  0  0  0  0
 22 24  1  0  0  0  0
 22 25  1  0  0  0  0
 24 26  2  0  0  0  0
 25 23  2  0  0  0  0
 26 23  1  0  0  0  0
 27 25  1  0  0  0  0
 27 28  1  1  0  0  0
 27 29  1  0  0  0  0
 29 34  1  0  0  0  0
 31 32  1  0  0  0  0
 32 30  1  0  0  0  0
 33 29  1  0  0  0  0
 33 31  1  0  0  0  0
 34 32  2  0  0  0  0
 35 36  1  0  0  0  0
 37 38  1  0  0  0  0
 37 40  1  0  0  0  0
 38 43  1  1  0  0  0
 38 41  1  0  0  0  0
 40 36  1  1  0  0  0
 40 39  1  0  0  0  0
 41 39  1  0  0  0  0
 43 42  1  0  0  0  0
M  END
>  <MODEL>
9

>  <REMARK>
 VINA RESULT:      -5.9      4.339     11.278
  Name = 
  11 active torsions:
  status: ('A' for Active; 'I' for Inactive)
    1  A    between atoms: C_1  and  O_32
    2  A    between atoms: C_1  and  C_34
    3  A    between atoms: C_2  and  C_6
    4  A    between atoms: C_2  and  C_13
    5  A    between atoms: C_3  and  N_4
    6  A    between atoms: C_3  and  C_12
    7  A    between atoms: C_6  and  C_12
    8  A    between atoms: N_11  and  C_14
    9  A    between atoms: C_14  and  C_22
   10  A    between atoms: C_19  and  C_37
   11  A    between atoms: O_32  and  C_35
                            x       y       z     vdW  Elec       q    Type
                         _______ _______ _______ _____ _____    ______ ____

>  <TORSDO>
F 11

$$$$
