=
 OpenBabel11062408153D

 32 38  0  0  1  0  0  0  0  0999 V2000
  161.6730  210.6250  149.7530 C   0  0  2  0  0  3  0  0  0  0  0  0
  160.1950  211.6920  151.4530 C   0  0  2  0  0  3  0  0  0  0  0  0
  162.8670  210.8110  148.8130 C   0  0  0  0  0  2  0  0  0  0  0  0
  161.3020  211.9460  150.4350 C   0  0  2  0  0  3  0  0  0  0  0  0
  159.6850  213.0230  151.9780 C   0  0  2  0  0  3  0  0  0  0  0  0
  160.7360  211.0580  156.4430 C   0  0  0  0  0  2  0  0  0  0  0  0
  160.6260  210.7200  152.5730 C   0  0  1  0  0  3  0  0  0  0  0  0
  159.0830  212.4690  155.3860 O   0  0  0  0  0  0  0  0  0  0  0  0
  159.8050  212.6050  154.1820 C   0  0  2  0  0  3  0  0  0  0  0  0
  160.9710  213.0860  149.4340 C   0  0  2  0  0  3  0  0  0  0  0  0
  158.9020  212.8130  153.1210 O   0  0  0  0  0  0  0  0  0  0  0  0
  159.4890  213.4860  149.4430 C   0  0  0  0  0  2  0  0  0  0  0  0
  161.4250  212.7630  148.0070 C   0  0  0  0  0  2  0  0  0  0  0  0
  161.9020  209.9380  152.2080 C   0  0  0  0  0  2  0  0  0  0  0  0
  161.9040  209.4590  150.7390 C   0  0  1  0  0  3  0  0  0  0  0  0
  160.7820  211.4000  153.9430 C   0  0  1  0  0  3  0  0  0  0  0  0
  158.9560  213.8020  150.8600 C   0  0  1  0  0  3  0  0  0  0  0  0
  162.8180  212.1270  148.0180 C   0  0  0  0  0  2  0  0  0  0  0  0
  160.0300  212.4200  156.4210 C   0  0  0  0  0  2  0  0  0  0  0  0
  160.6870  210.3740  155.0740 C   0  0  0  0  0  2  0  0  0  0  0  0
  161.3850  204.7330  150.5430 C   0  0  0  0  0  1  0  0  0  0  0  0
  163.4210  205.5120  152.4370 O   0  0  0  0  0  1  0  0  0  0  0  0
  160.5080  206.7050  148.5770 C   0  0  0  0  0  2  0  0  0  0  0  0
  161.5500  207.0170  152.6520 C   0  0  0  0  0  2  0  0  0  0  0  0
  160.8940  208.3060  150.5230 C   0  0  2  0  0  3  0  0  0  0  0  0
  162.2220  206.0030  150.3940 C   0  0  1  0  0  3  0  0  0  0  0  0
  160.4300  207.7320  151.8720 C   0  0  0  0  0  2  0  0  0  0  0  0
  161.4500  207.1350  149.6900 C   0  0  0  0  0  0  0  0  0  0  0  0
  161.8210  207.3810  148.2400 C   0  0  0  0  0  2  0  0  0  0  0  0
  162.6970  206.4990  151.7660 C   0  0  2  0  0  3  0  0  0  0  0  0
  157.4310  213.6750  150.9030 C   0  0  0  0  0  2  0  0  0  0  0  0
  156.8330  213.4290  149.5250 C   0  0  0  0  0  1  0  0  0  0  0  0
  1  3  1  1  0  0  0
  1  4  1  0  0  0  0
  1 15  1  0  0  0  0
  2  5  1  0  0  0  0
  2  7  1  0  0  0  0
  4  2  1  0  0  0  0
  5 11  1  0  0  0  0
  7 16  1  0  0  0  0
  8 19  1  0  0  0  0
  9  8  1  0  0  0  0
 10 12  1  0  0  0  0
 10  4  1  0  0  0  0
 11  9  1  0  0  0  0
 12 17  1  0  0  0  0
 13 18  1  0  0  0  0
 13 10  1  0  0  0  0
 14  7  1  0  0  0  0
 15 14  1  0  0  0  0
 16  9  1  0  0  0  0
 16 20  1  0  0  0  0
 17 31  1  0  0  0  0
 17  5  1  0  0  0  0
 18  3  1  0  0  0  0
 19  6  1  0  0  0  0
 20  6  1  0  0  0  0
 23 28  1  0  0  0  0
 25 15  1  0  0  0  0
 25 27  1  0  0  0  0
 26 21  1  0  0  0  0
 26 30  1  0  0  0  0
 27 24  1  0  0  0  0
 28 26  1  0  0  0  0
 28 25  1  0  0  0  0
 29 23  1  0  0  0  0
 29 28  1  0  0  0  0
 30 22  1  0  0  0  0
 30 24  1  0  0  0  0
 32 31  1  0  0  0  0
M  END
>  <MODEL>
1

>  <REMARK>
 VINA RESULT:      -5.2      0.000      0.000
  Name = 
  2 active torsions:
  status: ('A' for Active; 'I' for Inactive)
    1  A    between atoms: C_13  and  C_29
    2  A    between atoms: C_16  and  C_27
                            x       y       z     vdW  Elec       q    Type
                         _______ _______ _______ _____ _____    ______ ____

>  <TORSDO>
F 2

$$$$
=
 OpenBabel11062408153D

 32 38  0  0  1  0  0  0  0  0999 V2000
  160.1010  210.1270  154.9400 C   0  0  2  0  0  3  0  0  0  0  0  0
  160.6450  209.2610  152.6670 C   0  0  2  0  0  3  0  0  0  0  0  0
  160.6050  210.3490  156.3690 C   0  0  0  0  0  2  0  0  0  0  0  0
  161.1280  209.3480  154.1110 C   0  0  2  0  0  3  0  0  0  0  0  0
  161.5520  208.3180  151.8950 C   0  0  2  0  0  3  0  0  0  0  0  0
  162.0630  212.2010  148.8020 C   0  0  0  0  0  2  0  0  0  0  0  0
  160.4990  210.6470  152.0020 C   0  0  1  0  0  3  0  0  0  0  0  0
  161.8870  209.7910  148.7320 O   0  0  0  0  0  0  0  0  0  0  0  0
  162.0060  209.6300  150.1280 C   0  0  2  0  0  3  0  0  0  0  0  0
  161.4970  207.9700  154.7240 C   0  0  2  0  0  3  0  0  0  0  0  0
  161.3230  208.4620  150.5190 O   0  0  0  0  0  0  0  0  0  0  0  0
  160.9840  206.7840  153.8950 C   0  0  0  0  0  2  0  0  0  0  0  0
  161.0420  207.8360  156.1800 C   0  0  0  0  0  2  0  0  0  0  0  0
  160.4900  211.7910  153.0340 C   0  0  0  0  0  2  0  0  0  0  0  0
  159.6520  211.4530  154.2860 C   0  0  1  0  0  3  0  0  0  0  0  0
  161.5470  210.9120  150.9100 C   0  0  1  0  0  3  0  0  0  0  0  0
  161.3860  206.8680  152.4050 C   0  0  1  0  0  3  0  0  0  0  0  0
  161.3320  209.1250  156.9540 C   0  0  0  0  0  2  0  0  0  0  0  0
  162.7090  210.8740  148.3800 C   0  0  0  0  0  2  0  0  0  0  0  0
  161.0710  212.0060  149.9520 C   0  0  0  0  0  2  0  0  0  0  0  0
  155.3410  212.6240  155.9250 C   0  0  0  0  0  1  0  0  0  0  0  0
  157.3750  214.4530  156.8510 O   0  0  0  0  0  1  0  0  0  0  0  0
  156.1940  210.0550  154.8340 C   0  0  0  0  0  2  0  0  0  0  0  0
  157.7900  213.9470  154.5310 C   0  0  0  0  0  2  0  0  0  0  0  0
  158.1380  211.4600  153.9670 C   0  0  2  0  0  3  0  0  0  0  0  0
  156.7980  212.2140  156.1400 C   0  0  1  0  0  3  0  0  0  0  0  0
  157.6970  212.8430  153.4600 C   0  0  0  0  0  2  0  0  0  0  0  0
  157.2420  211.1030  155.1700 C   0  0  0  0  0  0  0  0  0  0  0  0
  157.3380  209.7110  155.7650 C   0  0  0  0  0  2  0  0  0  0  0  0
  157.7280  213.4240  155.9770 C   0  0  2  0  0  3  0  0  0  0  0  0
  160.4540  206.0080  151.5460 C   0  0  0  0  0  2  0  0  0  0  0  0
  161.1280  204.7300  151.0670 C   0  0  0  0  0  1  0  0  0  0  0  0
  1  3  1  1  0  0  0
  2  4  1  0  0  0  0
  3 18  1  0  0  0  0
  4 10  1  0  0  0  0
  4  1  1  0  0  0  0
  5 17  1  0  0  0  0
  5  2  1  0  0  0  0
  6 20  1  0  0  0  0
  7  2  1  0  0  0  0
  7 14  1  0  0  0  0
  8  9  1  0  0  0  0
  9 11  1  0  0  0  0
  9 16  1  0  0  0  0
 10 13  1  0  0  0  0
 11  5  1  0  0  0  0
 12 10  1  0  0  0  0
 13 18  1  0  0  0  0
 14 15  1  0  0  0  0
 15  1  1  0  0  0  0
 16  7  1  0  0  0  0
 17 12  1  0  0  0  0
 19  8  1  0  0  0  0
 19  6  1  0  0  0  0
 20 16  1  0  0  0  0
 21 26  1  0  0  0  0
 23 28  1  0  0  0  0
 23 29  1  0  0  0  0
 24 30  1  0  0  0  0
 25 15  1  0  0  0  0
 25 28  1  0  0  0  0
 27 25  1  0  0  0  0
 27 24  1  0  0  0  0
 28 29  1  0  0  0  0
 28 26  1  0  0  0  0
 30 26  1  0  0  0  0
 30 22  1  0  0  0  0
 31 17  1  0  0  0  0
 32 31  1  0  0  0  0
M  END
>  <MODEL>
2

>  <REMARK>
 VINA RESULT:      -5.2      2.452      7.490
  Name = 
  2 active torsions:
  status: ('A' for Active; 'I' for Inactive)
    1  A    between atoms: C_13  and  C_29
    2  A    between atoms: C_16  and  C_27
                            x       y       z     vdW  Elec       q    Type
                         _______ _______ _______ _____ _____    ______ ____

>  <TORSDO>
F 2

$$$$
=
 OpenBabel11062408153D

 32 38  0  0  1  0  0  0  0  0999 V2000
  160.6820  210.0640  155.1340 C   0  0  2  0  0  3  0  0  0  0  0  0
  160.9050  208.5860  153.1390 C   0  0  2  0  0  3  0  0  0  0  0  0
  161.3420  210.5720  156.4190 C   0  0  0  0  0  2  0  0  0  0  0  0
  161.5320  208.9720  154.4750 C   0  0  2  0  0  3  0  0  0  0  0  0
  161.6240  207.3680  152.5860 C   0  0  2  0  0  3  0  0  0  0  0  0
  162.2590  210.2380  148.5530 C   0  0  0  0  0  2  0  0  0  0  0  0
  160.8490  209.7650  152.1440 C   0  0  1  0  0  3  0  0  0  0  0  0
  161.8130  207.9340  149.1320 O   0  0  0  0  0  0  0  0  0  0  0  0
  162.0480  208.1180  150.5110 C   0  0  2  0  0  3  0  0  0  0  0  0
  161.8030  207.7580  155.4040 C   0  0  2  0  0  3  0  0  0  0  0  0
  161.2800  207.1870  151.2390 O   0  0  0  0  0  0  0  0  0  0  0  0
  161.0850  206.4780  154.9510 C   0  0  0  0  0  2  0  0  0  0  0  0
  161.4790  208.0580  156.8710 C   0  0  0  0  0  2  0  0  0  0  0  0
  161.0660  211.1240  152.8360 C   0  0  0  0  0  2  0  0  0  0  0  0
  160.3210  211.2280  154.1850 C   0  0  1  0  0  3  0  0  0  0  0  0
  161.8100  209.6050  150.9550 C   0  0  1  0  0  3  0  0  0  0  0  0
  161.3480  206.1290  153.4690 C   0  0  1  0  0  3  0  0  0  0  0  0
  161.9830  209.4520  157.2570 C   0  0  0  0  0  2  0  0  0  0  0  0
  162.7110  208.7750  148.4550 C   0  0  0  0  0  2  0  0  0  0  0  0
  161.3670  210.4730  149.7760 C   0  0  0  0  0  2  0  0  0  0  0  0
  156.2450  212.7630  156.1020 C   0  0  0  0  0  1  0  0  0  0  0  0
  158.4790  214.4330  156.8490 O   0  0  0  0  0  1  0  0  0  0  0  0
  156.8110  210.1200  155.0000 C   0  0  0  0  0  2  0  0  0  0  0  0
  158.6850  213.8670  154.5150 C   0  0  0  0  0  2  0  0  0  0  0  0
  158.7930  211.3530  153.9730 C   0  0  2  0  0  3  0  0  0  0  0  0
  157.6760  212.2400  156.2210 C   0  0  1  0  0  3  0  0  0  0  0  0
  158.4280  212.7610  153.4740 C   0  0  0  0  0  2  0  0  0  0  0  0
  157.9600  211.0840  155.2430 C   0  0  0  0  0  0  0  0  0  0  0  0
  157.9880  209.6960  155.8550 C   0  0  0  0  0  2  0  0  0  0  0  0
  158.6850  213.3680  155.9710 C   0  0  2  0  0  3  0  0  0  0  0  0
  160.2500  205.2100  152.9290 C   0  0  0  0  0  2  0  0  0  0  0  0
  160.8160  203.9770  152.2380 C   0  0  0  0  0  1  0  0  0  0  0  0
  1  3  1  1  0  0  0
  2  4  1  0  0  0  0
  3 18  1  0  0  0  0
  4  1  1  0  0  0  0
  4 10  1  0  0  0  0
  5  2  1  0  0  0  0
  5 17  1  0  0  0  0
  6 20  1  0  0  0  0
  7 14  1  0  0  0  0
  7  2  1  0  0  0  0
  8  9  1  0  0  0  0
  9 16  1  0  0  0  0
  9 11  1  0  0  0  0
 10 13  1  0  0  0  0
 11  5  1  0  0  0  0
 12 10  1  0  0  0  0
 13 18  1  0  0  0  0
 14 15  1  0  0  0  0
 15  1  1  0  0  0  0
 16  7  1  0  0  0  0
 17 12  1  0  0  0  0
 19  6  1  0  0  0  0
 19  8  1  0  0  0  0
 20 16  1  0  0  0  0
 21 26  1  0  0  0  0
 23 28  1  0  0  0  0
 23 29  1  0  0  0  0
 24 30  1  0  0  0  0
 25 15  1  0  0  0  0
 25 28  1  0  0  0  0
 27 25  1  0  0  0  0
 27 24  1  0  0  0  0
 28 29  1  0  0  0  0
 28 26  1  0  0  0  0
 30 26  1  0  0  0  0
 30 22  1  0  0  0  0
 31 17  1  0  0  0  0
 32 31  1  0  0  0  0
M  END
>  <MODEL>
3

>  <REMARK>
 VINA RESULT:      -4.2      2.148      7.646
  Name = 
  2 active torsions:
  status: ('A' for Active; 'I' for Inactive)
    1  A    between atoms: C_13  and  C_29
    2  A    between atoms: C_16  and  C_27
                            x       y       z     vdW  Elec       q    Type
                         _______ _______ _______ _____ _____    ______ ____

>  <TORSDO>
F 2

$$$$
=
 OpenBabel11062408153D

 32 38  0  0  1  0  0  0  0  0999 V2000
  160.2980  209.1280  155.2430 C   0  0  2  0  0  3  0  0  0  0  0  0
  160.7610  208.2880  152.9420 C   0  0  2  0  0  3  0  0  0  0  0  0
  160.8420  209.3070  156.6630 C   0  0  0  0  0  2  0  0  0  0  0  0
  161.2800  208.3340  154.3760 C   0  0  2  0  0  3  0  0  0  0  0  0
  161.6200  207.3330  152.1310 C   0  0  2  0  0  3  0  0  0  0  0  0
  162.1780  211.2570  149.0980 C   0  0  0  0  0  2  0  0  0  0  0  0
  160.6420  209.6910  152.3060 C   0  0  1  0  0  3  0  0  0  0  0  0
  161.9260  208.8550  148.9890 O   0  0  0  0  0  0  0  0  0  0  0  0
  162.0730  208.6640  150.3780 C   0  0  2  0  0  3  0  0  0  0  0  0
  161.6200  206.9330  154.9540 C   0  0  2  0  0  3  0  0  0  0  0  0
  161.3630  207.5100  150.7650 O   0  0  0  0  0  0  0  0  0  0  0  0
  161.0510  205.7790  154.1160 C   0  0  0  0  0  2  0  0  0  0  0  0
  161.1960  206.7850  156.4180 C   0  0  0  0  0  2  0  0  0  0  0  0
  160.6930  210.8150  153.3580 C   0  0  0  0  0  2  0  0  0  0  0  0
  159.8750  210.4790  154.6250 C   0  0  1  0  0  3  0  0  0  0  0  0
  161.6720  209.9440  151.1940 C   0  0  1  0  0  3  0  0  0  0  0  0
  161.4200  205.8800  152.6180 C   0  0  1  0  0  3  0  0  0  0  0  0
  161.5440  208.0500  157.2080 C   0  0  0  0  0  2  0  0  0  0  0  0
  162.7720  209.9190  148.6370 C   0  0  0  0  0  2  0  0  0  0  0  0
  161.2080  211.0700  150.2680 C   0  0  0  0  0  2  0  0  0  0  0  0
  156.1770  213.3710  153.8490 C   0  0  0  0  0  1  0  0  0  0  0  0
  158.6300  214.4530  152.7760 O   0  0  0  0  0  1  0  0  0  0  0  0
  156.3640  211.2020  155.7930 C   0  0  0  0  0  2  0  0  0  0  0  0
  158.5550  212.0920  152.3000 C   0  0  0  0  0  2  0  0  0  0  0  0
  158.3550  210.5390  154.3430 C   0  0  2  0  0  3  0  0  0  0  0  0
  157.5520  213.0750  154.4460 C   0  0  1  0  0  3  0  0  0  0  0  0
  158.0880  210.7260  152.8400 C   0  0  0  0  0  2  0  0  0  0  0  0
  157.6230  211.6750  155.0850 C   0  0  0  0  0  0  0  0  0  0  0  0
  157.5680  211.6400  156.6010 C   0  0  0  0  0  2  0  0  0  0  0  0
  158.6420  213.1920  153.3720 C   0  0  2  0  0  3  0  0  0  0  0  0
  160.4430  205.0650  151.7670 C   0  0  0  0  0  2  0  0  0  0  0  0
  161.1220  203.8960  151.0670 C   0  0  0  0  0  1  0  0  0  0  0  0
  1  3  1  1  0  0  0
  2  4  1  0  0  0  0
  3 18  1  0  0  0  0
  4 10  1  0  0  0  0
  4  1  1  0  0  0  0
  5 17  1  0  0  0  0
  5  2  1  0  0  0  0
  6 20  1  0  0  0  0
  7  2  1  0  0  0  0
  7 14  1  0  0  0  0
  8  9  1  0  0  0  0
  9 11  1  0  0  0  0
  9 16  1  0  0  0  0
 10 13  1  0  0  0  0
 11  5  1  0  0  0  0
 12 10  1  0  0  0  0
 13 18  1  0  0  0  0
 14 15  1  0  0  0  0
 15  1  1  0  0  0  0
 16  7  1  0  0  0  0
 17 12  1  0  0  0  0
 19  8  1  0  0  0  0
 19  6  1  0  0  0  0
 20 16  1  0  0  0  0
 21 26  1  0  0  0  0
 22 30  1  0  0  0  0
 23 29  1  0  0  0  0
 24 27  1  0  0  0  0
 24 30  1  0  0  0  0
 25 15  1  0  0  0  0
 25 28  1  0  0  0  0
 26 28  1  0  0  0  0
 27 25  1  0  0  0  0
 28 23  1  0  0  0  0
 28 29  1  0  0  0  0
 30 26  1  0  0  0  0
 31 17  1  0  0  0  0
 32 31  1  0  0  0  0
M  END
>  <MODEL>
4

>  <REMARK>
 VINA RESULT:      -3.6      2.215      7.585
  Name = 
  2 active torsions:
  status: ('A' for Active; 'I' for Inactive)
    1  A    between atoms: C_13  and  C_29
    2  A    between atoms: C_16  and  C_27
                            x       y       z     vdW  Elec       q    Type
                         _______ _______ _______ _____ _____    ______ ____

>  <TORSDO>
F 2

$$$$
=
 OpenBabel11062408153D

 32 38  0  0  1  0  0  0  0  0999 V2000
  160.3120  209.0820  153.8380 C   0  0  2  0  0  3  0  0  0  0  0  0
  160.7630  208.8990  151.3930 C   0  0  2  0  0  3  0  0  0  0  0  0
  160.8470  208.8310  155.2500 C   0  0  0  0  0  2  0  0  0  0  0  0
  161.2680  208.5170  152.7810 C   0  0  2  0  0  3  0  0  0  0  0  0
  161.5870  208.1700  150.3460 C   0  0  2  0  0  3  0  0  0  0  0  0
  162.3550  212.7550  148.5310 C   0  0  0  0  0  2  0  0  0  0  0  0
  160.7140  210.4270  151.1750 C   0  0  1  0  0  3  0  0  0  0  0  0
  161.9960  210.4930  147.7540 O   0  0  0  0  0  0  0  0  0  0  0  0
  162.1190  209.9150  149.0350 C   0  0  2  0  0  3  0  0  0  0  0  0
  161.5380  206.9970  152.9440 C   0  0  2  0  0  3  0  0  0  0  0  0
  161.3540  208.7330  149.0840 O   0  0  0  0  0  0  0  0  0  0  0  0
  160.9270  206.1510  151.8180 C   0  0  0  0  0  2  0  0  0  0  0  0
  161.0910  206.4650  154.3090 C   0  0  0  0  0  2  0  0  0  0  0  0
  160.8040  211.2080  152.5000 C   0  0  0  0  0  2  0  0  0  0  0  0
  159.9570  210.5700  153.6230 C   0  0  1  0  0  3  0  0  0  0  0  0
  161.7670  210.9330  150.1770 C   0  0  1  0  0  3  0  0  0  0  0  0
  161.3170  206.6490  150.4070 C   0  0  1  0  0  3  0  0  0  0  0  0
  161.4860  207.4420  155.4200 C   0  0  0  0  0  2  0  0  0  0  0  0
  162.8940  211.5730  147.7130 C   0  0  0  0  0  2  0  0  0  0  0  0
  161.3640  212.2930  149.6030 C   0  0  0  0  0  2  0  0  0  0  0  0
  156.0400  212.8180  155.1200 C   0  0  0  0  0  1  0  0  0  0  0  0
  158.4130  214.4140  155.5210 O   0  0  0  0  0  1  0  0  0  0  0  0
  156.3710  209.9630  154.6140 C   0  0  0  0  0  2  0  0  0  0  0  0
  158.5550  213.3480  153.3640 C   0  0  0  0  0  2  0  0  0  0  0  0
  158.4440  210.7760  153.3710 C   0  0  2  0  0  3  0  0  0  0  0  0
  157.4220  212.2130  155.3650 C   0  0  1  0  0  3  0  0  0  0  0  0
  158.1970  212.0700  152.5790 C   0  0  0  0  0  2  0  0  0  0  0  0
  157.6000  210.8550  154.6590 C   0  0  0  0  0  0  0  0  0  0  0  0
  157.5130  209.6330  155.5530 C   0  0  0  0  0  2  0  0  0  0  0  0
  158.5220  213.1730  154.8920 C   0  0  2  0  0  3  0  0  0  0  0  0
  160.3140  206.1510  149.3630 C   0  0  0  0  0  2  0  0  0  0  0  0
  160.9870  205.3730  148.2410 C   0  0  0  0  0  1  0  0  0  0  0  0
  1  3  1  1  0  0  0
  2  4  1  0  0  0  0
  3 18  1  0  0  0  0
  4 10  1  0  0  0  0
  4  1  1  0  0  0  0
  5 17  1  0  0  0  0
  5  2  1  0  0  0  0
  6 20  1  0  0  0  0
  7  2  1  0  0  0  0
  7 14  1  0  0  0  0
  8  9  1  0  0  0  0
  9 11  1  0  0  0  0
  9 16  1  0  0  0  0
 10 13  1  0  0  0  0
 11  5  1  0  0  0  0
 12 10  1  0  0  0  0
 13 18  1  0  0  0  0
 14 15  1  0  0  0  0
 15  1  1  0  0  0  0
 16  7  1  0  0  0  0
 17 12  1  0  0  0  0
 19  8  1  0  0  0  0
 19  6  1  0  0  0  0
 20 16  1  0  0  0  0
 21 26  1  0  0  0  0
 23 28  1  0  0  0  0
 23 29  1  0  0  0  0
 24 30  1  0  0  0  0
 25 15  1  0  0  0  0
 25 28  1  0  0  0  0
 27 24  1  0  0  0  0
 27 25  1  0  0  0  0
 28 26  1  0  0  0  0
 28 29  1  0  0  0  0
 30 26  1  0  0  0  0
 30 22  1  0  0  0  0
 31 17  1  0  0  0  0
 32 31  1  0  0  0  0
M  END
>  <MODEL>
5

>  <REMARK>
 VINA RESULT:      -3.5      2.385      7.176
  Name = 
  2 active torsions:
  status: ('A' for Active; 'I' for Inactive)
    1  A    between atoms: C_13  and  C_29
    2  A    between atoms: C_16  and  C_27
                            x       y       z     vdW  Elec       q    Type
                         _______ _______ _______ _____ _____    ______ ____

>  <TORSDO>
F 2

$$$$
=
 OpenBabel11062408153D

 32 38  0  0  1  0  0  0  0  0999 V2000
  160.0850  211.6890  152.4010 C   0  0  2  0  0  3  0  0  0  0  0  0
  161.3840  210.7860  150.4750 C   0  0  2  0  0  3  0  0  0  0  0  0
  158.7970  212.3840  152.8500 C   0  0  0  0  0  2  0  0  0  0  0  0
  160.1530  211.5940  150.8730 C   0  0  2  0  0  3  0  0  0  0  0  0
  161.5660  210.8670  148.9690 C   0  0  2  0  0  3  0  0  0  0  0  0
  161.5330  205.8830  149.2350 C   0  0  0  0  0  2  0  0  0  0  0  0
  161.3440  209.3370  151.0070 C   0  0  1  0  0  3  0  0  0  0  0  0
  162.6330  207.6650  148.0250 O   0  0  0  0  0  0  0  0  0  0  0  0
  161.7840  208.6760  148.5200 C   0  0  2  0  0  3  0  0  0  0  0  0
  160.0640  212.9740  150.1660 C   0  0  2  0  0  3  0  0  0  0  0  0
  162.4870  209.8960  148.5510 O   0  0  0  0  0  0  0  0  0  0  0  0
  161.3770  213.3910  149.4880 C   0  0  0  0  0  2  0  0  0  0  0  0
  159.5740  214.0820  151.1020 C   0  0  0  0  0  2  0  0  0  0  0  0
  160.2950  209.1530  152.1200 C   0  0  0  0  0  2  0  0  0  0  0  0
  160.2760  210.3330  153.1170 C   0  0  1  0  0  3  0  0  0  0  0  0
  161.1480  208.2880  149.9010 C   0  0  1  0  0  3  0  0  0  0  0  0
  161.9440  212.3050  148.5460 C   0  0  1  0  0  3  0  0  0  0  0  0
  158.4110  213.5810  151.9640 C   0  0  0  0  0  2  0  0  0  0  0  0
  161.8410  206.5150  147.8700 C   0  0  0  0  0  2  0  0  0  0  0  0
  161.6280  206.9110  150.3660 C   0  0  0  0  0  2  0  0  0  0  0  0
  162.0690  208.8330  157.2610 C   0  0  0  0  0  1  0  0  0  0  0  0
  160.1610  206.9570  156.1750 O   0  0  0  0  0  1  0  0  0  0  0  0
  162.0940  211.5470  156.1870 C   0  0  0  0  0  2  0  0  0  0  0  0
  161.5460  207.7760  154.3800 C   0  0  0  0  0  2  0  0  0  0  0  0
  161.5310  210.3250  154.0210 C   0  0  2  0  0  3  0  0  0  0  0  0
  160.8970  209.2530  156.3740 C   0  0  1  0  0  3  0  0  0  0  0  0
  162.3090  209.0090  153.8580 C   0  0  0  0  0  2  0  0  0  0  0  0
  161.2230  210.4950  155.5220 C   0  0  0  0  0  0  0  0  0  0  0  0
  160.6120  211.7980  156.0010 C   0  0  0  0  0  2  0  0  0  0  0  0
  160.4850  208.1020  155.4460 C   0  0  2  0  0  3  0  0  0  0  0  0
  163.4430  212.5160  148.3210 C   0  0  0  0  0  2  0  0  0  0  0  0
  163.7650  213.9300  147.8590 C   0  0  0  0  0  1  0  0  0  0  0  0
  1  3  1  6  0  0  0
  1 15  1  0  0  0  0
  2  4  1  0  0  0  0
  2  7  1  0  0  0  0
  4  1  1  0  0  0  0
  5  2  1  0  0  0  0
  6 20  1  0  0  0  0
  7 14  1  0  0  0  0
  8  9  1  0  0  0  0
  9 11  1  0  0  0  0
  9 16  1  0  0  0  0
 10  4  1  0  0  0  0
 10 13  1  0  0  0  0
 11  5  1  0  0  0  0
 12 10  1  0  0  0  0
 13 18  1  0  0  0  0
 14 15  1  0  0  0  0
 15 25  1  0  0  0  0
 16 20  1  0  0  0  0
 16  7  1  0  0  0  0
 17  5  1  0  0  0  0
 17 12  1  0  0  0  0
 18  3  1  0  0  0  0
 19  8  1  0  0  0  0
 19  6  1  0  0  0  0
 24 30  1  0  0  0  0
 25 28  1  0  0  0  0
 26 21  1  0  0  0  0
 27 25  1  0  0  0  0
 27 24  1  0  0  0  0
 28 29  1  0  0  0  0
 28 23  1  0  0  0  0
 28 26  1  0  0  0  0
 29 23  1  0  0  0  0
 30 22  1  0  0  0  0
 30 26  1  0  0  0  0
 31 17  1  0  0  0  0
 32 31  1  0  0  0  0
M  END
>  <MODEL>
6

>  <REMARK>
 VINA RESULT:      -3.2      2.136      5.829
  Name = 
  2 active torsions:
  status: ('A' for Active; 'I' for Inactive)
    1  A    between atoms: C_13  and  C_29
    2  A    between atoms: C_16  and  C_27
                            x       y       z     vdW  Elec       q    Type
                         _______ _______ _______ _____ _____    ______ ____

>  <TORSDO>
F 2

$$$$
=
 OpenBabel11062408153D

 32 38  0  0  1  0  0  0  0  0999 V2000
  160.5330  210.3400  152.3770 C   0  0  2  0  0  3  0  0  0  0  0  0
  160.1140  211.5840  154.4970 C   0  0  2  0  0  3  0  0  0  0  0  0
  160.4590  208.9880  151.6620 C   0  0  0  0  0  2  0  0  0  0  0  0
  160.1510  210.2000  153.8550 C   0  0  2  0  0  3  0  0  0  0  0  0
  159.9400  211.4310  155.9980 C   0  0  2  0  0  3  0  0  0  0  0  0
  156.0270  214.4520  155.3120 C   0  0  0  0  0  2  0  0  0  0  0  0
  159.0620  212.5120  153.8520 C   0  0  1  0  0  3  0  0  0  0  0  0
  157.7870  214.0390  156.9170 O   0  0  0  0  0  0  0  0  0  0  0  0
  158.2230  212.8480  156.3020 C   0  0  2  0  0  3  0  0  0  0  0  0
  161.0350  209.1840  154.6270 C   0  0  2  0  0  3  0  0  0  0  0  0
  159.5960  212.6670  156.5620 O   0  0  0  0  0  0  0  0  0  0  0  0
  161.9550  209.8480  155.6620 C   0  0  0  0  0  2  0  0  0  0  0  0
  161.8500  208.2860  153.6910 C   0  0  0  0  0  2  0  0  0  0  0  0
  158.5760  211.9860  152.4880 C   0  0  0  0  0  2  0  0  0  0  0  0
  159.7270  211.4230  151.6260 C   0  0  1  0  0  3  0  0  0  0  0  0
  157.8680  212.8110  154.7730 C   0  0  1  0  0  3  0  0  0  0  0  0
  161.1990  210.7910  156.6260 C   0  0  1  0  0  3  0  0  0  0  0  0
  160.9910  207.8210  152.5120 C   0  0  0  0  0  2  0  0  0  0  0  0
  156.3930  214.0890  156.7580 C   0  0  0  0  0  2  0  0  0  0  0  0
  157.1520  214.0910  154.3380 C   0  0  0  0  0  2  0  0  0  0  0  0
  160.4460  214.4530  148.0290 C   0  0  0  0  0  1  0  0  0  0  0  0
  157.6370  213.9350  148.4510 O   0  0  0  0  0  1  0  0  0  0  0  0
  162.3790  212.6260  149.2320 C   0  0  0  0  0  2  0  0  0  0  0  0
  158.7060  214.1870  150.5960 C   0  0  0  0  0  2  0  0  0  0  0  0
  160.6340  212.5560  151.0910 C   0  0  2  0  0  3  0  0  0  0  0  0
  159.9160  213.1360  148.5950 C   0  0  1  0  0  3  0  0  0  0  0  0
  160.0100  213.9320  151.3770 C   0  0  0  0  0  2  0  0  0  0  0  0
  160.9060  212.4790  149.5750 C   0  0  0  0  0  0  0  0  0  0  0  0
  161.6830  211.2960  149.0310 C   0  0  0  0  0  2  0  0  0  0  0  0
  158.5750  213.3570  149.3070 C   0  0  2  0  0  3  0  0  0  0  0  0
  162.1620  211.7990  157.2590 C   0  0  0  0  0  2  0  0  0  0  0  0
  163.6010  211.3010  157.2590 C   0  0  0  0  0  1  0  0  0  0  0  0
  1  3  1  6  0  0  0
  1  4  1  0  0  0  0
  2  5  1  0  0  0  0
  3 18  1  0  0  0  0
  4  2  1  0  0  0  0
  4 10  1  0  0  0  0
  5 11  1  0  0  0  0
  5 17  1  0  0  0  0
  6 19  1  0  0  0  0
  7  2  1  0  0  0  0
  7 16  1  0  0  0  0
  9 11  1  0  0  0  0
  9  8  1  0  0  0  0
 10 12  1  0  0  0  0
 12 17  1  0  0  0  0
 13 10  1  0  0  0  0
 14  7  1  0  0  0  0
 15  1  1  0  0  0  0
 15 14  1  0  0  0  0
 16  9  1  0  0  0  0
 17 31  1  0  0  0  0
 18 13  1  0  0  0  0
 19  8  1  0  0  0  0
 20 16  1  0  0  0  0
 20  6  1  0  0  0  0
 21 26  1  0  0  0  0
 22 30  1  0  0  0  0
 23 28  1  0  0  0  0
 24 27  1  0  0  0  0
 25 27  1  0  0  0  0
 25 15  1  0  0  0  0
 26 30  1  0  0  0  0
 26 28  1  0  0  0  0
 28 25  1  0  0  0  0
 29 23  1  0  0  0  0
 29 28  1  0  0  0  0
 30 24  1  0  0  0  0
 31 32  1  0  0  0  0
M  END
>  <MODEL>
7

>  <REMARK>
 VINA RESULT:      -2.6      2.463      6.102
  Name = 
  2 active torsions:
  status: ('A' for Active; 'I' for Inactive)
    1  A    between atoms: C_13  and  C_29
    2  A    between atoms: C_16  and  C_27
                            x       y       z     vdW  Elec       q    Type
                         _______ _______ _______ _____ _____    ______ ____

>  <TORSDO>
F 2

$$$$
=
 OpenBabel11062408153D

 32 38  0  0  1  0  0  0  0  0999 V2000
  161.0440  211.3540  150.8240 C   0  0  2  0  0  3  0  0  0  0  0  0
  159.1450  212.5490  151.9090 C   0  0  2  0  0  3  0  0  0  0  0  0
  162.3800  211.4950  150.0900 C   0  0  0  0  0  2  0  0  0  0  0  0
  160.4050  212.7250  151.0670 C   0  0  2  0  0  3  0  0  0  0  0  0
  158.4020  213.8730  151.9760 C   0  0  2  0  0  3  0  0  0  0  0  0
  158.7150  213.1900  156.9100 C   0  0  0  0  0  2  0  0  0  0  0  0
  159.4370  211.9440  153.3000 C   0  0  1  0  0  3  0  0  0  0  0  0
  157.1750  214.0450  155.2540 O   0  0  0  0  0  0  0  0  0  0  0  0
  158.1100  214.0050  154.2000 C   0  0  2  0  0  3  0  0  0  0  0  0
  160.1680  213.5350  149.7640 C   0  0  2  0  0  3  0  0  0  0  0  0
  157.4270  213.8180  152.9810 O   0  0  0  0  0  0  0  0  0  0  0  0
  158.6820  213.6950  149.4130 C   0  0  0  0  0  2  0  0  0  0  0  0
  160.9370  212.9600  148.5690 C   0  0  0  0  0  2  0  0  0  0  0  0
  160.8360  211.3030  153.3750 C   0  0  0  0  0  2  0  0  0  0  0  0
  161.1890  210.5000  152.1040 C   0  0  1  0  0  3  0  0  0  0  0  0
  159.2370  212.9410  154.4520 C   0  0  1  0  0  3  0  0  0  0  0  0
  157.8400  214.2480  150.5850 C   0  0  1  0  0  3  0  0  0  0  0  0
  162.3570  212.5660  148.9850 C   0  0  0  0  0  2  0  0  0  0  0  0
  157.8890  214.3850  156.4140 C   0  0  0  0  0  2  0  0  0  0  0  0
  159.0200  212.2060  155.7760 C   0  0  0  0  0  2  0  0  0  0  0  0
  160.8820  206.0120  153.6530 C   0  0  0  0  0  1  0  0  0  0  0  0
  161.9740  207.7700  155.6660 O   0  0  0  0  0  1  0  0  0  0  0  0
  160.8280  206.9500  150.8900 C   0  0  0  0  0  2  0  0  0  0  0  0
  160.1460  208.8940  154.5690 C   0  0  0  0  0  2  0  0  0  0  0  0
  160.3730  209.1880  152.0230 C   0  0  2  0  0  3  0  0  0  0  0  0
  161.6850  207.2690  153.3180 C   0  0  1  0  0  3  0  0  0  0  0  0
  159.4180  209.0680  153.2220 C   0  0  0  0  0  2  0  0  0  0  0  0
  161.2370  207.9130  151.9920 C   0  0  0  0  0  0  0  0  0  0  0  0
  162.1530  207.6790  150.8060 C   0  0  0  0  0  2  0  0  0  0  0  0
  161.5610  208.3030  154.4450 C   0  0  2  0  0  3  0  0  0  0  0  0
  156.3610  213.9020  150.3960 C   0  0  0  0  0  2  0  0  0  0  0  0
  155.8060  214.4360  149.0830 C   0  0  0  0  0  1  0  0  0  0  0  0
  1  3  1  1  0  0  0
  1  4  1  0  0  0  0
  1 15  1  0  0  0  0
  2  5  1  0  0  0  0
  2  7  1  0  0  0  0
  4  2  1  0  0  0  0
  5 11  1  0  0  0  0
  7 14  1  0  0  0  0
  7 16  1  0  0  0  0
  8 19  1  0  0  0  0
  9 16  1  0  0  0  0
  9  8  1  0  0  0  0
 10  4  1  0  0  0  0
 11  9  1  0  0  0  0
 12 10  1  0  0  0  0
 12 17  1  0  0  0  0
 13 18  1  0  0  0  0
 13 10  1  0  0  0  0
 15 14  1  0  0  0  0
 16 20  1  0  0  0  0
 17  5  1  0  0  0  0
 18  3  1  0  0  0  0
 19  6  1  0  0  0  0
 20  6  1  0  0  0  0
 23 28  1  0  0  0  0
 25 15  1  0  0  0  0
 25 27  1  0  0  0  0
 26 21  1  0  0  0  0
 26 30  1  0  0  0  0
 27 24  1  0  0  0  0
 28 25  1  0  0  0  0
 28 26  1  0  0  0  0
 29 23  1  0  0  0  0
 29 28  1  0  0  0  0
 30 24  1  0  0  0  0
 30 22  1  0  0  0  0
 31 17  1  0  0  0  0
 32 31  1  0  0  0  0
M  END
>  <MODEL>
8

>  <REMARK>
 VINA RESULT:      -2.2      1.604      2.240
  Name = 
  2 active torsions:
  status: ('A' for Active; 'I' for Inactive)
    1  A    between atoms: C_13  and  C_29
    2  A    between atoms: C_16  and  C_27
                            x       y       z     vdW  Elec       q    Type
                         _______ _______ _______ _____ _____    ______ ____

>  <TORSDO>
F 2

$$$$
