=
 OpenBabel11062409123D

 37 41  0  0  1  0  0  0  0  0999 V2000
  160.9580  212.2550  156.7650 C   0  0  0  0  0  2  0  0  0  0  0  0
  159.6260  208.5100  154.5310 C   0  0  0  0  0  2  0  0  0  0  0  0
  161.1830  206.9030  150.8340 C   0  0  0  0  0  2  0  0  0  0  0  0
  159.3500  210.6880  155.6330 C   0  0  2  0  0  3  0  0  0  0  0  0
  160.4500  208.1110  153.3460 C   0  0  2  0  0  0  0  0  0  0  0  0
  160.2970  209.6480  155.1680 N   0  0  2  0  0  0  0  0  0  0  0  0
  161.0190  206.6870  153.2950 C   0  0  0  0  0  2  0  0  0  0  0  0
  161.1260  210.2260  154.1750 N   0  0  1  0  0  0  0  0  0  0  0  0
  162.7840  210.1320  156.4190 S   0  0  0  0  0  0  0  0  0  0  0  0
  162.3810  210.7480  154.7400 C   0  0  0  0  0  2  0  0  0  0  0  0
  161.0410  208.4300  150.8480 C   0  0  1  0  0  3  0  0  0  0  0  0
  161.5040  209.1690  153.2500 C   0  0  2  0  0  3  0  0  0  0  0  0
  159.8150  211.2750  156.9650 C   0  0  0  0  0  2  0  0  0  0  0  0
  161.9030  206.4340  152.0860 C   0  0  1  0  0  3  0  0  0  0  0  0
  162.2870  211.6820  157.2600 C   0  0  0  0  0  2  0  0  0  0  0  0
  160.4610  209.0510  152.1390 C   0  0  2  0  0  3  0  0  0  0  0  0
  157.8910  210.2280  155.7870 C   0  0  0  0  0  2  0  0  0  0  0  0
  157.0350  210.9660  154.9280 O   0  0  0  0  0  0  0  0  0  0  0  0
  157.5670  211.8450  154.0190 N   0  0  0  0  0  2  0  0  0  0  0  0
  157.2700  213.0540  154.0740 O   0  0  0  0  0  1  0  0  0  0  0  0
  162.2430  209.1890  150.2650 C   0  0  2  0  0  3  0  0  0  0  0  0
  162.0390  211.4670  148.7370 S   0  0  0  0  0  1  0  0  0  0  0  0
  161.9910  210.6850  150.3760 C   0  0  0  0  0  2  0  0  0  0  0  0
  162.4580  208.8410  148.9250 O   0  0  0  0  0  0  0  0  0  0  0  0
  161.5700  207.7930  148.6670 C   0  0  0  0  0  2  0  0  0  0  0  0
  162.0670  206.9760  147.5220 C   0  0  0  0  0  3  0  0  0  0  0  0
  161.2120  206.3880  146.6850 C   0  0  0  0  0  3  0  0  0  0  0  0
  162.9760  204.8290  145.9330 C   0  0  0  0  0  1  0  0  0  0  0  0
  161.7050  205.5620  145.5440 C   0  0  0  0  0  2  0  0  0  0  0  0
  162.2280  204.9510  152.0020 C   0  0  0  0  0  2  0  0  0  0  0  0
  160.7460  202.9020  151.9840 C   0  0  0  0  0  2  0  0  0  0  0  0
  161.1640  204.1850  151.2260 C   0  0  2  0  0  3  0  0  0  0  0  0
  161.6750  203.9350  149.7970 C   0  0  0  0  0  2  0  0  0  0  0  0
  160.4260  202.9170  147.4710 Cl  0  0  0  0  0  0  0  0  0  0  0  0
  160.7130  201.6750  149.8340 C   0  0  0  0  0  3  0  0  0  0  0  0
  160.9580  202.7880  149.1370 C   0  0  0  0  0  0  0  0  0  0  0  0
  161.1490  201.6080  151.2660 C   0  0  0  0  0  2  0  0  0  0  0  0
  1 13  1  0  0  0  0
  1 15  1  0  0  0  0
  3 11  1  0  0  0  0
  3 14  1  0  0  0  0
  4 17  1  1  0  0  0
  4 13  1  0  0  0  0
  5  7  1  6  0  0  0
  5  2  1  0  0  0  0
  6  2  1  6  0  0  0
  6  4  1  0  0  0  0
  8 10  1  1  0  0  0
  8  6  1  0  0  0  0
  9 15  1  0  0  0  0
 10  9  1  0  0  0  0
 11 21  1  1  0  0  0
 11 16  1  0  0  0  0
 12  5  1  0  0  0  0
 12  8  1  0  0  0  0
 14  7  1  0  0  0  0
 16 12  1  0  0  0  0
 16  5  1  0  0  0  0
 18 17  1  0  0  0  0
 19 20  1  0  0  0  0
 19 18  1  0  0  0  0
 21 23  1  0  0  0  0
 22 23  1  0  0  0  0
 24 21  1  0  0  0  0
 25 24  1  0  0  0  0
 26 25  1  0  0  0  0
 27 26  2  0  0  0  0
 29 28  1  0  0  0  0
 29 27  1  0  0  0  0
 30 14  1  0  0  0  0
 32 31  1  0  0  0  0
 32 30  1  0  0  0  0
 33 32  1  0  0  0  0
 34 36  1  0  0  0  0
 35 37  1  0  0  0  0
 36 33  1  0  0  0  0
 36 35  2  0  0  0  0
 37 31  1  0  0  0  0
M  END
>  <MODEL>
1

>  <REMARK>
 VINA RESULT:      -6.4      0.000      0.000
  Name = 
  11 active torsions:
  status: ('A' for Active; 'I' for Inactive)
    1  A    between atoms: C_1  and  C_17
    2  A    between atoms: C_5  and  C_23
    3  A    between atoms: C_6  and  C_37
    4  A    between atoms: C_9  and  C_16
    5  A    between atoms: C_16  and  O_24
    6  A    between atoms: C_17  and  O_26
    7  A    between atoms: N_22  and  O_24
    8  A    between atoms: O_26  and  C_33
    9  A    between atoms: C_27  and  C_33
   10  A    between atoms: C_31  and  C_37
   11  A    between atoms: C_33  and  C_34
                            x       y       z     vdW  Elec       q    Type
                         _______ _______ _______ _____ _____    ______ ____

>  <TORSDO>
F 11

$$$$
=
 OpenBabel11062409123D

 37 41  0  0  1  0  0  0  0  0999 V2000
  158.2660  211.2210  156.1640 C   0  0  0  0  0  2  0  0  0  0  0  0
  162.0120  210.7880  153.6010 C   0  0  0  0  0  2  0  0  0  0  0  0
  162.5840  208.3360  150.0900 C   0  0  0  0  0  2  0  0  0  0  0  0
  160.6920  210.7770  155.6730 C   0  0  2  0  0  3  0  0  0  0  0  0
  161.8750  209.9770  152.3500 C   0  0  2  0  0  0  0  0  0  0  0  0
  160.6770  210.9040  154.1970 N   0  0  2  0  0  0  0  0  0  0  0  0
  162.2870  210.6130  151.0160 C   0  0  0  0  0  2  0  0  0  0  0  0
  159.9150  209.8300  153.6750 N   0  0  1  0  0  0  0  0  0  0  0  0
  158.1830  212.0090  153.4560 S   0  0  0  0  0  0  0  0  0  0  0  0
  158.5070  210.2050  153.4620 C   0  0  0  0  0  2  0  0  0  0  0  0
  161.7880  207.6560  151.2100 C   0  0  1  0  0  3  0  0  0  0  0  0
  160.4540  209.5070  152.3630 C   0  0  2  0  0  3  0  0  0  0  0  0
  159.6860  211.7420  156.3010 C   0  0  0  0  0  2  0  0  0  0  0  0
  162.0230  209.7210  149.8160 C   0  0  1  0  0  3  0  0  0  0  0  0
  157.4640  212.0270  155.1400 C   0  0  0  0  0  2  0  0  0  0  0  0
  161.5810  208.4830  152.5000 C   0  0  2  0  0  3  0  0  0  0  0  0
  162.0600  211.0000  156.3390 C   0  0  0  0  0  2  0  0  0  0  0  0
  162.3490  209.9590  157.2600 O   0  0  0  0  0  0  0  0  0  0  0  0
  162.3340  208.6520  156.8440 N   0  0  0  0  0  2  0  0  0  0  0  0
  161.3980  207.9010  157.1830 O   0  0  0  0  0  1  0  0  0  0  0  0
  160.5390  206.8980  150.7370 C   0  0  2  0  0  3  0  0  0  0  0  0
  161.5140  205.4910  152.8910 S   0  0  0  0  0  1  0  0  0  0  0  0
  160.5300  205.5110  151.3630 C   0  0  0  0  0  2  0  0  0  0  0  0
  160.5120  206.7900  149.3410 O   0  0  0  0  0  0  0  0  0  0  0  0
  160.5740  205.4190  149.0740 C   0  0  0  0  0  2  0  0  0  0  0  0
  161.2750  205.1850  147.7780 C   0  0  0  0  0  3  0  0  0  0  0  0
  161.0010  205.9370  146.7120 C   0  0  0  0  0  3  0  0  0  0  0  0
  162.9610  204.8940  145.6260 C   0  0  0  0  0  1  0  0  0  0  0  0
  161.6930  205.6990  145.4100 C   0  0  0  0  0  2  0  0  0  0  0  0
  162.6670  210.3330  148.5820 C   0  0  0  0  0  2  0  0  0  0  0  0
  162.7380  212.5320  147.3350 C   0  0  0  0  0  2  0  0  0  0  0  0
  161.8350  211.4810  148.0240 C   0  0  2  0  0  3  0  0  0  0  0  0
  160.9530  212.0480  149.1480 C   0  0  0  0  0  2  0  0  0  0  0  0
  158.8390  213.9300  149.1550 Cl  0  0  0  0  0  0  0  0  0  0  0  0
  161.3660  214.3300  148.3400 C   0  0  0  0  0  3  0  0  0  0  0  0
  160.4990  213.4530  148.8520 C   0  0  0  0  0  0  0  0  0  0  0  0
  162.7680  213.8830  148.0600 C   0  0  0  0  0  2  0  0  0  0  0  0
  1 13  1  0  0  0  0
  3 11  1  0  0  0  0
  4 13  1  0  0  0  0
  4 17  1  1  0  0  0
  5  7  1  6  0  0  0
  5 12  1  0  0  0  0
  5 16  1  0  0  0  0
  5  2  1  0  0  0  0
  6  2  1  6  0  0  0
  6  4  1  0  0  0  0
  8 10  1  6  0  0  0
  8  6  1  0  0  0  0
  9 10  1  0  0  0  0
  9 15  1  0  0  0  0
 11 21  1  6  0  0  0
 11 16  1  0  0  0  0
 12 16  1  0  0  0  0
 12  8  1  0  0  0  0
 14  3  1  0  0  0  0
 14  7  1  0  0  0  0
 15  1  1  0  0  0  0
 17 18  1  0  0  0  0
 19 20  1  0  0  0  0
 19 18  1  0  0  0  0
 21 23  1  0  0  0  0
 23 22  1  0  0  0  0
 24 21  1  0  0  0  0
 25 24  1  0  0  0  0
 26 25  1  0  0  0  0
 27 26  2  0  0  0  0
 29 28  1  0  0  0  0
 29 27  1  0  0  0  0
 30 14  1  0  0  0  0
 31 32  1  0  0  0  0
 31 37  1  0  0  0  0
 32 30  1  0  0  0  0
 32 33  1  0  0  0  0
 35 36  2  0  0  0  0
 36 33  1  0  0  0  0
 36 34  1  0  0  0  0
 37 35  1  0  0  0  0
M  END
>  <MODEL>
2

>  <REMARK>
 VINA RESULT:      -5.0      3.236      5.870
  Name = 
  11 active torsions:
  status: ('A' for Active; 'I' for Inactive)
    1  A    between atoms: C_1  and  C_17
    2  A    between atoms: C_5  and  C_23
    3  A    between atoms: C_6  and  C_37
    4  A    between atoms: C_9  and  C_16
    5  A    between atoms: C_16  and  O_24
    6  A    between atoms: C_17  and  O_26
    7  A    between atoms: N_22  and  O_24
    8  A    between atoms: O_26  and  C_33
    9  A    between atoms: C_27  and  C_33
   10  A    between atoms: C_31  and  C_37
   11  A    between atoms: C_33  and  C_34
                            x       y       z     vdW  Elec       q    Type
                         _______ _______ _______ _____ _____    ______ ____

>  <TORSDO>
F 11

$$$$
=
 OpenBabel11062409123D

 37 41  0  0  1  0  0  0  0  0999 V2000
  161.5790  208.5420  156.7120 C   0  0  0  0  0  2  0  0  0  0  0  0
  160.8170  209.7300  152.3760 C   0  0  0  0  0  2  0  0  0  0  0  0
  158.5700  213.1040  150.8810 C   0  0  0  0  0  2  0  0  0  0  0  0
  160.8390  208.2380  154.3280 C   0  0  2  0  0  3  0  0  0  0  0  0
  160.1250  211.0390  152.1540 C   0  0  2  0  0  0  0  0  0  0  0  0
  161.0740  209.6080  153.8150 N   0  0  2  0  0  0  0  0  0  0  0  0
  160.7930  212.0740  151.2390 C   0  0  0  0  0  2  0  0  0  0  0  0
  160.1560  210.4760  154.4560 N   0  0  1  0  0  0  0  0  0  0  0  0
  162.5640  211.0100  155.7640 S   0  0  0  0  0  0  0  0  0  0  0  0
  160.7370  211.1050  155.6540 C   0  0  0  0  0  2  0  0  0  0  0  0
  157.9280  212.4020  152.0840 C   0  0  1  0  0  3  0  0  0  0  0  0
  159.8580  211.5590  153.5320 C   0  0  2  0  0  3  0  0  0  0  0  0
  161.8860  207.8770  155.3810 C   0  0  0  0  0  2  0  0  0  0  0  0
  160.0350  213.3880  151.1620 C   0  0  1  0  0  3  0  0  0  0  0  0
  162.5610  209.6750  157.0180 C   0  0  0  0  0  2  0  0  0  0  0  0
  158.6800  211.1710  152.6370 C   0  0  2  0  0  3  0  0  0  0  0  0
  160.8210  207.1300  153.2610 C   0  0  0  0  0  2  0  0  0  0  0  0
  162.1260  206.8950  152.7540 O   0  0  0  0  0  0  0  0  0  0  0  0
  162.2990  206.1250  151.6320 N   0  0  0  0  0  2  0  0  0  0  0  0
  161.3050  205.7160  151.0000 O   0  0  0  0  0  1  0  0  0  0  0  0
  157.3860  213.3520  153.1630 C   0  0  2  0  0  3  0  0  0  0  0  0
  154.8070  214.2620  152.8680 S   0  0  0  0  0  1  0  0  0  0  0  0
  156.5760  214.4530  152.4970 C   0  0  0  0  0  2  0  0  0  0  0  0
  158.4290  213.9140  153.9110 O   0  0  0  0  0  0  0  0  0  0  0  0
  157.8200  214.4510  155.0490 C   0  0  0  0  0  2  0  0  0  0  0  0
  156.7490  213.5330  155.5340 C   0  0  0  0  0  3  0  0  0  0  0  0
  156.9530  212.7490  156.5920 C   0  0  0  0  0  3  0  0  0  0  0  0
  155.4490  210.8940  155.9560 C   0  0  0  0  0  1  0  0  0  0  0  0
  155.8880  211.8210  157.0740 C   0  0  0  0  0  2  0  0  0  0  0  0
  160.6400  214.2540  150.0690 C   0  0  0  0  0  2  0  0  0  0  0  0
  162.1680  213.2870  148.3010 C   0  0  0  0  0  2  0  0  0  0  0  0
  160.7010  213.5180  148.7360 C   0  0  2  0  0  3  0  0  0  0  0  0
  159.8510  214.2810  147.7070 C   0  0  0  0  0  2  0  0  0  0  0  0
  159.0160  213.6560  145.0770 Cl  0  0  0  0  0  0  0  0  0  0  0  0
  161.5380  213.8530  145.9750 C   0  0  0  0  0  3  0  0  0  0  0  0
  160.2450  213.9460  146.2940 C   0  0  0  0  0  0  0  0  0  0  0  0
  162.5640  214.0720  147.0450 C   0  0  0  0  0  2  0  0  0  0  0  0
  1 15  1  0  0  0  0
  3 14  1  0  0  0  0
  3 11  1  0  0  0  0
  4 17  1  6  0  0  0
  4 13  1  0  0  0  0
  5  7  1  6  0  0  0
  5  2  1  0  0  0  0
  5 16  1  0  0  0  0
  5 12  1  0  0  0  0
  6  2  1  6  0  0  0
  6  4  1  0  0  0  0
  6  8  1  0  0  0  0
  8 10  1  1  0  0  0
  9 15  1  0  0  0  0
 10  9  1  0  0  0  0
 11 16  1  0  0  0  0
 11 21  1  1  0  0  0
 12  8  1  0  0  0  0
 13  1  1  0  0  0  0
 14  7  1  0  0  0  0
 16 12  1  0  0  0  0
 18 17  1  0  0  0  0
 19 18  1  0  0  0  0
 20 19  1  0  0  0  0
 21 24  1  0  0  0  0
 23 22  1  0  0  0  0
 23 21  1  0  0  0  0
 24 25  1  0  0  0  0
 25 26  1  0  0  0  0
 26 27  2  0  0  0  0
 27 29  1  0  0  0  0
 28 29  1  0  0  0  0
 30 14  1  0  0  0  0
 31 32  1  0  0  0  0
 32 30  1  0  0  0  0
 33 32  1  0  0  0  0
 34 36  1  0  0  0  0
 35 36  2  0  0  0  0
 35 37  1  0  0  0  0
 36 33  1  0  0  0  0
 37 31  1  0  0  0  0
M  END
>  <MODEL>
3

>  <REMARK>
 VINA RESULT:      -4.5      4.227      8.239
  Name = 
  11 active torsions:
  status: ('A' for Active; 'I' for Inactive)
    1  A    between atoms: C_1  and  C_17
    2  A    between atoms: C_5  and  C_23
    3  A    between atoms: C_6  and  C_37
    4  A    between atoms: C_9  and  C_16
    5  A    between atoms: C_16  and  O_24
    6  A    between atoms: C_17  and  O_26
    7  A    between atoms: N_22  and  O_24
    8  A    between atoms: O_26  and  C_33
    9  A    between atoms: C_27  and  C_33
   10  A    between atoms: C_31  and  C_37
   11  A    between atoms: C_33  and  C_34
                            x       y       z     vdW  Elec       q    Type
                         _______ _______ _______ _____ _____    ______ ____

>  <TORSDO>
F 11

$$$$
=
 OpenBabel11062409123D

 37 41  0  0  1  0  0  0  0  0999 V2000
  159.9650  211.2350  155.7600 C   0  0  0  0  0  2  0  0  0  0  0  0
  162.5680  209.7320  152.3320 C   0  0  0  0  0  2  0  0  0  0  0  0
  162.0780  206.1450  149.9720 C   0  0  0  0  0  2  0  0  0  0  0  0
  162.0850  210.5360  154.6020 C   0  0  2  0  0  3  0  0  0  0  0  0
  162.0710  208.5270  151.5940 C   0  0  2  0  0  0  0  0  0  0  0  0
  161.5300  210.1160  153.2940 N   0  0  2  0  0  0  0  0  0  0  0  0
  161.9150  208.6140  150.0700 C   0  0  0  0  0  2  0  0  0  0  0  0
  160.7400  208.9600  153.5070 N   0  0  1  0  0  0  0  0  0  0  0  0
  158.8430  210.9830  153.1840 S   0  0  0  0  0  0  0  0  0  0  0  0
  159.3190  209.2930  153.7090 C   0  0  0  0  0  2  0  0  0  0  0  0
  161.8050  205.9570  151.4690 C   0  0  1  0  0  3  0  0  0  0  0  0
  160.8010  208.1570  152.2950 C   0  0  2  0  0  3  0  0  0  0  0  0
  161.2830  211.7060  155.1700 C   0  0  0  0  0  2  0  0  0  0  0  0
  161.3260  207.3580  149.4520 C   0  0  1  0  0  3  0  0  0  0  0  0
  158.7760  211.6460  154.8900 C   0  0  0  0  0  2  0  0  0  0  0  0
  161.9960  207.2050  152.3610 C   0  0  2  0  0  3  0  0  0  0  0  0
  163.5730  210.9250  154.5910 C   0  0  0  0  0  2  0  0  0  0  0  0
  163.9720  211.4270  155.8580 O   0  0  0  0  0  0  0  0  0  0  0  0
  165.3050  211.5710  156.1490 N   0  0  0  0  0  2  0  0  0  0  0  0
  165.9630  212.4860  155.6160 O   0  0  0  0  0  1  0  0  0  0  0  0
  160.5490  205.1340  151.7920 C   0  0  2  0  0  3  0  0  0  0  0  0
  160.8050  205.4710  154.5100 S   0  0  0  0  0  1  0  0  0  0  0  0
  160.7800  204.3540  153.0770 C   0  0  0  0  0  2  0  0  0  0  0  0
  160.2420  204.2510  150.7480 O   0  0  0  0  0  0  0  0  0  0  0  0
  160.8620  203.0460  151.0880 C   0  0  0  0  0  2  0  0  0  0  0  0
  160.8570  202.1240  149.9150 C   0  0  0  0  0  3  0  0  0  0  0  0
  160.9060  202.6040  148.6720 C   0  0  0  0  0  3  0  0  0  0  0  0
  161.4990  200.3440  147.8650 C   0  0  0  0  0  1  0  0  0  0  0  0
  160.8910  201.6850  147.4960 C   0  0  0  0  0  2  0  0  0  0  0  0
  161.4230  207.4490  147.9380 C   0  0  0  0  0  2  0  0  0  0  0  0
  162.6930  205.4320  147.0950 C   0  0  0  0  0  2  0  0  0  0  0  0
  161.3010  206.0800  147.2820 C   0  0  2  0  0  3  0  0  0  0  0  0
  160.4910  206.2210  145.9820 C   0  0  0  0  0  2  0  0  0  0  0  0
  159.4120  204.3210  144.1850 Cl  0  0  0  0  0  0  0  0  0  0  0  0
  161.9920  204.6350  144.8580 C   0  0  0  0  0  3  0  0  0  0  0  0
  160.7450  205.0790  145.0350 C   0  0  0  0  0  0  0  0  0  0  0  0
  163.1060  205.2810  145.6250 C   0  0  0  0  0  2  0  0  0  0  0  0
  3 11  1  0  0  0  0
  4 17  1  6  0  0  0
  4 13  1  0  0  0  0
  5  7  1  6  0  0  0
  5 12  1  0  0  0  0
  5  2  1  0  0  0  0
  5 16  1  0  0  0  0
  6  2  1  6  0  0  0
  6  8  1  0  0  0  0
  6  4  1  0  0  0  0
  8 10  1  6  0  0  0
  9 10  1  0  0  0  0
  9 15  1  0  0  0  0
 11 21  1  6  0  0  0
 11 16  1  0  0  0  0
 12 16  1  0  0  0  0
 12  8  1  0  0  0  0
 13  1  1  0  0  0  0
 14  3  1  0  0  0  0
 14  7  1  0  0  0  0
 15  1  1  0  0  0  0
 17 18  1  0  0  0  0
 18 19  1  0  0  0  0
 20 19  1  0  0  0  0
 21 23  1  0  0  0  0
 23 22  1  0  0  0  0
 24 25  1  0  0  0  0
 24 21  1  0  0  0  0
 26 25  1  0  0  0  0
 27 26  2  0  0  0  0
 29 28  1  0  0  0  0
 29 27  1  0  0  0  0
 30 14  1  0  0  0  0
 31 32  1  0  0  0  0
 32 30  1  0  0  0  0
 33 32  1  0  0  0  0
 34 36  1  0  0  0  0
 35 36  2  0  0  0  0
 35 37  1  0  0  0  0
 36 33  1  0  0  0  0
 37 31  1  0  0  0  0
M  END
>  <MODEL>
4

>  <REMARK>
 VINA RESULT:      -3.9      2.780      4.881
  Name = 
  11 active torsions:
  status: ('A' for Active; 'I' for Inactive)
    1  A    between atoms: C_1  and  C_17
    2  A    between atoms: C_5  and  C_23
    3  A    between atoms: C_6  and  C_37
    4  A    between atoms: C_9  and  C_16
    5  A    between atoms: C_16  and  O_24
    6  A    between atoms: C_17  and  O_26
    7  A    between atoms: N_22  and  O_24
    8  A    between atoms: O_26  and  C_33
    9  A    between atoms: C_27  and  C_33
   10  A    between atoms: C_31  and  C_37
   11  A    between atoms: C_33  and  C_34
                            x       y       z     vdW  Elec       q    Type
                         _______ _______ _______ _____ _____    ______ ____

>  <TORSDO>
F 11

$$$$
=
 OpenBabel11062409123D

 37 41  0  0  1  0  0  0  0  0999 V2000
  157.7490  211.8290  156.9050 C   0  0  0  0  0  2  0  0  0  0  0  0
  161.4700  211.1630  154.3560 C   0  0  0  0  0  2  0  0  0  0  0  0
  162.4570  207.7460  151.9030 C   0  0  0  0  0  2  0  0  0  0  0  0
  160.2070  211.6730  156.4010 C   0  0  2  0  0  3  0  0  0  0  0  0
  161.4750  209.9430  153.4880 C   0  0  2  0  0  0  0  0  0  0  0  0
  160.1470  211.2510  154.9820 N   0  0  2  0  0  0  0  0  0  0  0  0
  161.7360  210.1130  151.9860 C   0  0  0  0  0  2  0  0  0  0  0  0
  159.6010  209.9440  154.9390 N   0  0  1  0  0  0  0  0  0  0  0  0
  157.4750  211.5520  154.1110 S   0  0  0  0  0  0  0  0  0  0  0  0
  158.1440  209.9610  154.7260 C   0  0  0  0  0  2  0  0  0  0  0  0
  161.8250  207.3900  153.2540 C   0  0  1  0  0  3  0  0  0  0  0  0
  160.1730  209.2670  153.7850 C   0  0  2  0  0  3  0  0  0  0  0  0
  159.0420  212.6060  156.7290 C   0  0  0  0  0  2  0  0  0  0  0  0
  161.6330  208.8150  151.2050 C   0  0  1  0  0  3  0  0  0  0  0  0
  156.7900  212.0540  155.7340 C   0  0  0  0  0  2  0  0  0  0  0  0
  161.4800  208.5790  154.1800 C   0  0  2  0  0  3  0  0  0  0  0  0
  161.5160  212.3590  156.8270 C   0  0  0  0  0  2  0  0  0  0  0  0
  162.4860  211.3990  157.2170 O   0  0  0  0  0  0  0  0  0  0  0  0
  163.8130  211.7440  157.2610 N   0  0  0  0  0  2  0  0  0  0  0  0
  164.5690  211.4280  156.3210 O   0  0  0  0  0  1  0  0  0  0  0  0
  160.7400  206.3040  153.1860 C   0  0  2  0  0  3  0  0  0  0  0  0
  159.9730  206.8180  155.7770 S   0  0  0  0  0  1  0  0  0  0  0  0
  160.6130  205.6410  154.5490 C   0  0  0  0  0  2  0  0  0  0  0  0
  161.0490  205.3420  152.2160 O   0  0  0  0  0  0  0  0  0  0  0  0
  160.9240  204.1100  152.8640 C   0  0  0  0  0  2  0  0  0  0  0  0
  161.2350  203.0020  151.9130 C   0  0  0  0  0  3  0  0  0  0  0  0
  160.6360  202.9390  150.7240 C   0  0  0  0  0  3  0  0  0  0  0  0
  159.6730  201.3840  149.0630 C   0  0  0  0  0  1  0  0  0  0  0  0
  160.9370  201.8280  149.7740 C   0  0  0  0  0  2  0  0  0  0  0  0
  162.1280  209.0410  149.7850 C   0  0  0  0  0  2  0  0  0  0  0  0
  160.5800  207.0560  149.5360 C   0  0  0  0  0  2  0  0  0  0  0  0
  161.4470  208.1040  148.7960 C   0  0  2  0  0  3  0  0  0  0  0  0
  162.5140  207.4970  147.8700 C   0  0  0  0  0  2  0  0  0  0  0  0
  162.3400  205.9230  145.5250 Cl  0  0  0  0  0  0  0  0  0  0  0  0
  161.3770  205.3230  147.9570 C   0  0  0  0  0  3  0  0  0  0  0  0
  162.0420  206.2210  147.2270 C   0  0  0  0  0  0  0  0  0  0  0  0
  161.1060  205.6220  149.4010 C   0  0  0  0  0  2  0  0  0  0  0  0
  3 11  1  0  0  0  0
  4 13  1  0  0  0  0
  4 17  1  6  0  0  0
  5  7  1  6  0  0  0
  5 12  1  0  0  0  0
  5 16  1  0  0  0  0
  5  2  1  0  0  0  0
  6  2  1  1  0  0  0
  6  4  1  0  0  0  0
  8 10  1  6  0  0  0
  8  6  1  0  0  0  0
  9 10  1  0  0  0  0
  9 15  1  0  0  0  0
 11 21  1  6  0  0  0
 11 16  1  0  0  0  0
 12 16  1  0  0  0  0
 12  8  1  0  0  0  0
 13  1  1  0  0  0  0
 14  3  1  0  0  0  0
 14  7  1  0  0  0  0
 15  1  1  0  0  0  0
 17 18  1  0  0  0  0
 18 19  1  0  0  0  0
 20 19  1  0  0  0  0
 21 23  1  0  0  0  0
 23 22  1  0  0  0  0
 24 25  1  0  0  0  0
 24 21  1  0  0  0  0
 26 25  1  0  0  0  0
 27 26  2  0  0  0  0
 28 29  1  0  0  0  0
 29 27  1  0  0  0  0
 30 14  1  0  0  0  0
 32 31  1  0  0  0  0
 32 30  1  0  0  0  0
 33 32  1  0  0  0  0
 34 36  1  0  0  0  0
 35 37  1  0  0  0  0
 36 33  1  0  0  0  0
 36 35  2  0  0  0  0
 37 31  1  0  0  0  0
M  END
>  <MODEL>
5

>  <REMARK>
 VINA RESULT:      -3.8      2.628      4.663
  Name = 
  11 active torsions:
  status: ('A' for Active; 'I' for Inactive)
    1  A    between atoms: C_1  and  C_17
    2  A    between atoms: C_5  and  C_23
    3  A    between atoms: C_6  and  C_37
    4  A    between atoms: C_9  and  C_16
    5  A    between atoms: C_16  and  O_24
    6  A    between atoms: C_17  and  O_26
    7  A    between atoms: N_22  and  O_24
    8  A    between atoms: O_26  and  C_33
    9  A    between atoms: C_27  and  C_33
   10  A    between atoms: C_31  and  C_37
   11  A    between atoms: C_33  and  C_34
                            x       y       z     vdW  Elec       q    Type
                         _______ _______ _______ _____ _____    ______ ____

>  <TORSDO>
F 11

$$$$
=
 OpenBabel11062409123D

 37 41  0  0  1  0  0  0  0  0999 V2000
  160.2130  210.2830  157.0200 C   0  0  0  0  0  2  0  0  0  0  0  0
  162.7350  210.3790  153.2230 C   0  0  0  0  0  2  0  0  0  0  0  0
  162.2630  208.0170  149.6360 C   0  0  0  0  0  2  0  0  0  0  0  0
  162.3090  210.1900  155.6350 C   0  0  2  0  0  3  0  0  0  0  0  0
  162.2460  209.5500  152.0760 C   0  0  2  0  0  0  0  0  0  0  0  0
  161.7210  210.3060  154.2800 N   0  0  2  0  0  0  0  0  0  0  0  0
  162.0340  210.2320  150.7180 C   0  0  0  0  0  2  0  0  0  0  0  0
  160.9710  209.1300  154.0290 N   0  0  1  0  0  0  0  0  0  0  0  0
  159.0080  211.0360  154.5830 S   0  0  0  0  0  0  0  0  0  0  0  0
  159.5510  209.2970  154.3780 C   0  0  0  0  0  2  0  0  0  0  0  0
  162.0490  207.2350  150.9380 C   0  0  1  0  0  3  0  0  0  0  0  0
  161.0130  208.8810  152.5960 C   0  0  2  0  0  3  0  0  0  0  0  0
  161.4950  211.0030  156.6410 C   0  0  0  0  0  2  0  0  0  0  0  0
  161.4590  209.3050  149.6610 C   0  0  1  0  0  3  0  0  0  0  0  0
  158.9830  210.9600  156.4130 C   0  0  0  0  0  2  0  0  0  0  0  0
  162.2360  208.0310  152.2500 C   0  0  2  0  0  3  0  0  0  0  0  0
  163.7840  210.6100  155.7500 C   0  0  0  0  0  2  0  0  0  0  0  0
  163.9170  211.7680  156.5610 O   0  0  0  0  0  0  0  0  0  0  0  0
  165.1650  212.2330  156.8930 N   0  0  0  0  0  2  0  0  0  0  0  0
  166.0490  212.3240  156.0190 O   0  0  0  0  0  1  0  0  0  0  0  0
  160.8290  206.3020  150.9310 C   0  0  2  0  0  3  0  0  0  0  0  0
  161.8170  205.5240  153.3770 S   0  0  0  0  0  1  0  0  0  0  0  0
  161.1430  205.0630  151.7540 C   0  0  0  0  0  2  0  0  0  0  0  0
  160.4850  205.9320  149.6240 O   0  0  0  0  0  0  0  0  0  0  0  0
  161.2240  204.7760  149.3610 C   0  0  0  0  0  2  0  0  0  0  0  0
  161.2270  204.4970  147.8940 C   0  0  0  0  0  3  0  0  0  0  0  0
  162.2370  204.9050  147.1270 C   0  0  0  0  0  3  0  0  0  0  0  0
  161.0870  205.3650  144.9880 C   0  0  0  0  0  1  0  0  0  0  0  0
  162.2370  204.6370  145.6580 C   0  0  0  0  0  2  0  0  0  0  0  0
  161.5000  209.9970  148.3080 C   0  0  0  0  0  2  0  0  0  0  0  0
  160.4850  212.2070  147.6130 C   0  0  0  0  0  2  0  0  0  0  0  0
  161.5830  211.5110  148.4530 C   0  0  2  0  0  3  0  0  0  0  0  0
  163.0140  211.9650  148.1190 C   0  0  0  0  0  2  0  0  0  0  0  0
  164.3380  214.4530  148.3680 Cl  0  0  0  0  0  0  0  0  0  0  0  0
  162.1300  213.9270  146.9350 C   0  0  0  0  0  3  0  0  0  0  0  0
  163.0680  213.4210  147.7400 C   0  0  0  0  0  0  0  0  0  0  0  0
  161.0380  213.0280  146.4420 C   0  0  0  0  0  2  0  0  0  0  0  0
  3 14  1  0  0  0  0
  3 11  1  0  0  0  0
  4 17  1  6  0  0  0
  4 13  1  0  0  0  0
  5  7  1  6  0  0  0
  5 16  1  0  0  0  0
  5 12  1  0  0  0  0
  5  2  1  0  0  0  0
  6  2  1  6  0  0  0
  6  4  1  0  0  0  0
  8  6  1  0  0  0  0
  8 10  1  6  0  0  0
  9 15  1  0  0  0  0
 10  9  1  0  0  0  0
 11 21  1  6  0  0  0
 11 16  1  0  0  0  0
 12  8  1  0  0  0  0
 13  1  1  0  0  0  0
 14  7  1  0  0  0  0
 15  1  1  0  0  0  0
 16 12  1  0  0  0  0
 17 18  1  0  0  0  0
 18 19  1  0  0  0  0
 20 19  1  0  0  0  0
 21 23  1  0  0  0  0
 23 22  1  0  0  0  0
 24 21  1  0  0  0  0
 25 24  1  0  0  0  0
 26 25  1  0  0  0  0
 27 26  2  0  0  0  0
 28 29  1  0  0  0  0
 29 27  1  0  0  0  0
 30 32  1  0  0  0  0
 30 14  1  0  0  0  0
 31 32  1  0  0  0  0
 33 32  1  0  0  0  0
 35 36  2  0  0  0  0
 36 33  1  0  0  0  0
 36 34  1  0  0  0  0
 37 35  1  0  0  0  0
 37 31  1  0  0  0  0
M  END
>  <MODEL>
6

>  <REMARK>
 VINA RESULT:      -3.6      3.626      6.068
  Name = 
  11 active torsions:
  status: ('A' for Active; 'I' for Inactive)
    1  A    between atoms: C_1  and  C_17
    2  A    between atoms: C_5  and  C_23
    3  A    between atoms: C_6  and  C_37
    4  A    between atoms: C_9  and  C_16
    5  A    between atoms: C_16  and  O_24
    6  A    between atoms: C_17  and  O_26
    7  A    between atoms: N_22  and  O_24
    8  A    between atoms: O_26  and  C_33
    9  A    between atoms: C_27  and  C_33
   10  A    between atoms: C_31  and  C_37
   11  A    between atoms: C_33  and  C_34
                            x       y       z     vdW  Elec       q    Type
                         _______ _______ _______ _____ _____    ______ ____

>  <TORSDO>
F 11

$$$$
