=
 OpenBabel11062408113D

 34 38  0  0  1  0  0  0  0  0999 V2000
  161.9140  208.7140  139.3060 C   0  0  1  0  0  3  0  0  0  0  0  0
  161.8310  210.5960  137.7980 C   0  0  1  0  0  3  0  0  0  0  0  0
  160.8860  210.8840  140.1540 C   0  0  1  0  0  3  0  0  0  0  0  0
  162.5270  208.2570  137.9810 C   0  0  2  0  0  3  0  0  0  0  0  0
  162.3910  209.4260  137.0110 C   0  0  0  0  0  2  0  0  0  0  0  0
  163.0500  211.9030  139.5430 C   0  0  0  0  0  3  0  0  0  0  0  0
  161.0980  209.9400  138.9600 C   0  0  2  0  0  3  0  0  0  0  0  0
  161.8510  207.1510  137.4590 O   0  0  0  0  0  1  0  0  0  0  0  0
  162.9260  211.4020  138.2420 O   0  0  0  0  0  0  0  0  0  0  0  0
  162.1320  211.6640  140.4910 C   0  0  0  0  0  0  0  0  0  0  0  0
  158.3440  211.0940  139.7800 C   0  0  1  0  0  3  0  0  0  0  0  0
  155.9710  211.4260  139.6960 O   0  0  0  0  0  1  0  0  0  0  0  0
  157.2590  213.4160  139.9820 C   0  0  0  0  0  2  0  0  0  0  0  0
  157.8060  214.4020  137.8470 O   0  0  0  0  0  1  0  0  0  0  0  0
  159.6920  211.8300  139.9200 C   0  0  2  0  0  3  0  0  0  0  0  0
  157.1900  212.0190  139.3650 C   0  0  1  0  0  3  0  0  0  0  0  0
  159.6580  213.9650  139.3210 C   0  0  0  0  0  2  0  0  0  0  0  0
  158.1830  214.3480  139.1900 C   0  0  2  0  0  3  0  0  0  0  0  0
  159.8970  212.6760  138.8210 O   0  0  0  0  0  0  0  0  0  0  0  0
  158.4340  209.9530  138.7760 C   0  0  0  0  0  1  0  0  0  0  0  0
  162.2990  212.1470  141.9120 C   0  0  2  0  0  3  0  0  0  0  0  0
  160.9620  212.6250  142.4540 C   0  0  2  0  0  3  0  0  0  0  0  0
  162.0350  213.6340  142.1000 C   0  0  0  0  0  2  0  0  0  0  0  0
  160.9350  212.4280  143.9580 C   0  0  0  0  0  2  0  0  0  0  0  0
  159.5070  212.4900  144.4770 C   0  0  0  0  0  2  0  0  0  0  0  0
  159.2660  213.7600  145.3140 C   0  0  2  0  0  3  0  0  0  0  0  0
  159.2530  213.5100  146.7610 N   0  0  0  0  0  0  0  0  0  0  0  0
  157.6920  212.7790  147.1630 S   0  0  0  0  0  0  0  0  0  0  0  0
  156.8710  213.5940  145.7560 C   0  0  0  0  0  2  0  0  0  0  0  0
  157.9180  214.3590  144.9730 C   0  0  0  0  0  2  0  0  0  0  0  0
  160.6000  212.8030  148.5320 O   0  0  0  0  0  1  0  0  0  0  0  0
  160.3160  212.6030  147.1800 C   0  0  0  0  0  2  0  0  0  0  0  0
  161.1010  207.7310  139.8820 O   0  0  0  0  0  0  0  0  0  0  0  0
  161.9690  206.9550  140.6490 C   0  0  0  0  0  1  0  0  0  0  0  0
  1 33  1  6  0  0  0
  2  5  1  6  0  0  0
  2  9  1  0  0  0  0
  2  7  1  0  0  0  0
  3 10  1  6  0  0  0
  4  8  1  6  0  0  0
  4  1  1  0  0  0  0
  5  4  1  0  0  0  0
  6 10  2  0  0  0  0
  7  1  1  0  0  0  0
  7  3  1  0  0  0  0
  9  6  1  0  0  0  0
 10 21  1  0  0  0  0
 11 15  1  0  0  0  0
 14 18  1  0  0  0  0
 15  3  1  0  0  0  0
 16 12  1  0  0  0  0
 16 11  1  0  0  0  0
 16 13  1  0  0  0  0
 18 17  1  0  0  0  0
 18 13  1  0  0  0  0
 19 17  1  0  0  0  0
 19 15  1  0  0  0  0
 20 11  1  0  0  0  0
 21 23  1  0  0  0  0
 21 22  1  0  0  0  0
 22 24  1  0  0  0  0
 23 22  1  0  0  0  0
 24 25  1  0  0  0  0
 25 26  1  0  0  0  0
 26 27  1  0  0  0  0
 27 28  1  0  0  0  0
 27 32  1  0  0  0  0
 29 28  1  0  0  0  0
 30 26  1  0  0  0  0
 30 29  1  0  0  0  0
 32 31  1  0  0  0  0
 33 34  1  0  0  0  0
M  END
>  <MODEL>
1

>  <REMARK>
 VINA RESULT:      -4.6      0.000      0.000
  Name = 
  7 active torsions:
  status: ('A' for Active; 'I' for Inactive)
    1  A    between atoms: C_1  and  O_24
    2  A    between atoms: C_3  and  C_13
    3  A    between atoms: C_3  and  C_17
    4  A    between atoms: C_4  and  C_21
    5  A    between atoms: C_5  and  C_31
    6  A    between atoms: N_14  and  C_34
    7  A    between atoms: C_17  and  C_18
                            x       y       z     vdW  Elec       q    Type
                         _______ _______ _______ _____ _____    ______ ____

>  <TORSDO>
F 7

$$$$
=
 OpenBabel11062408113D

 34 38  0  0  1  0  0  0  0  0999 V2000
  156.0490  212.3450  155.0140 C   0  0  1  0  0  3  0  0  0  0  0  0
  157.8970  213.4080  156.1450 C   0  0  1  0  0  3  0  0  0  0  0  0
  158.4090  211.8010  154.2270 C   0  0  1  0  0  3  0  0  0  0  0  0
  155.4560  213.2300  156.1120 C   0  0  2  0  0  3  0  0  0  0  0  0
  156.6340  213.8280  156.8750 C   0  0  0  0  0  2  0  0  0  0  0  0
  158.6410  214.2380  153.9100 C   0  0  0  0  0  3  0  0  0  0  0  0
  157.4930  212.1350  155.4140 C   0  0  2  0  0  3  0  0  0  0  0  0
  154.6710  212.4890  156.9980 O   0  0  0  0  0  1  0  0  0  0  0  0
  158.2600  214.4530  155.2390 O   0  0  0  0  0  0  0  0  0  0  0  0
  158.6990  213.0100  153.3740 C   0  0  0  0  0  0  0  0  0  0  0  0
  160.6530  210.7390  153.5330 C   0  0  1  0  0  3  0  0  0  0  0  0
  162.8700  209.9830  153.0220 O   0  0  0  0  0  1  0  0  0  0  0  0
  162.4310  210.3270  155.3440 C   0  0  0  0  0  2  0  0  0  0  0  0
  161.6200  208.3010  156.3770 O   0  0  0  0  0  1  0  0  0  0  0  0
  159.7160  211.1310  154.6940 C   0  0  2  0  0  3  0  0  0  0  0  0
  161.8640  209.9110  153.9870 C   0  0  1  0  0  3  0  0  0  0  0  0
  160.2510  210.2600  156.6610 C   0  0  0  0  0  2  0  0  0  0  0  0
  161.6620  209.6910  156.5070 C   0  0  2  0  0  3  0  0  0  0  0  0
  159.4760  210.0220  155.5170 O   0  0  0  0  0  0  0  0  0  0  0  0
  159.9100  209.9600  152.4560 C   0  0  0  0  0  1  0  0  0  0  0  0
  159.0440  212.7830  151.9210 C   0  0  2  0  0  3  0  0  0  0  0  0
  159.2080  214.1180  151.2160 C   0  0  2  0  0  3  0  0  0  0  0  0
  157.9840  213.2690  150.9450 C   0  0  0  0  0  2  0  0  0  0  0  0
  160.1920  213.9610  150.0720 C   0  0  0  0  0  2  0  0  0  0  0  0
  159.5300  214.3110  148.7480 C   0  0  0  0  0  2  0  0  0  0  0  0
  159.5870  213.1320  147.7590 C   0  0  2  0  0  3  0  0  0  0  0  0
  160.4850  213.3680  146.6230 N   0  0  0  0  0  0  0  0  0  0  0  0
  159.6520  214.4530  145.4990 S   0  0  0  0  0  0  0  0  0  0  0  0
  158.0150  213.8700  146.0440 C   0  0  0  0  0  2  0  0  0  0  0  0
  158.2150  212.8790  147.1730 C   0  0  0  0  0  2  0  0  0  0  0  0
  162.7450  213.0200  147.0960 O   0  0  0  0  0  1  0  0  0  0  0  0
  161.7430  213.9890  147.0250 C   0  0  0  0  0  2  0  0  0  0  0  0
  155.3860  211.1180  154.9060 O   0  0  0  0  0  0  0  0  0  0  0  0
  156.0930  210.2570  155.7460 C   0  0  0  0  0  1  0  0  0  0  0  0
  1 33  1  1  0  0  0
  1  7  1  0  0  0  0
  1  4  1  0  0  0  0
  2  5  1  6  0  0  0
  3 10  1  1  0  0  0
  3 15  1  0  0  0  0
  3  7  1  0  0  0  0
  4  5  1  0  0  0  0
  4  8  1  1  0  0  0
  6  9  1  0  0  0  0
  7  2  1  0  0  0  0
  9  2  1  0  0  0  0
 10  6  2  0  0  0  0
 11 16  1  0  0  0  0
 11 15  1  0  0  0  0
 12 16  1  0  0  0  0
 13 18  1  0  0  0  0
 14 18  1  0  0  0  0
 15 19  1  0  0  0  0
 16 13  1  0  0  0  0
 18 17  1  0  0  0  0
 19 17  1  0  0  0  0
 20 11  1  0  0  0  0
 21 10  1  0  0  0  0
 22 21  1  0  0  0  0
 23 22  1  0  0  0  0
 23 21  1  0  0  0  0
 24 22  1  0  0  0  0
 25 24  1  0  0  0  0
 26 25  1  0  0  0  0
 27 32  1  0  0  0  0
 27 26  1  0  0  0  0
 28 29  1  0  0  0  0
 28 27  1  0  0  0  0
 29 30  1  0  0  0  0
 30 26  1  0  0  0  0
 32 31  1  0  0  0  0
 33 34  1  0  0  0  0
M  END
>  <MODEL>
2

>  <REMARK>
 VINA RESULT:      -4.3      7.253     14.135
  Name = 
  7 active torsions:
  status: ('A' for Active; 'I' for Inactive)
    1  A    between atoms: C_1  and  O_24
    2  A    between atoms: C_3  and  C_13
    3  A    between atoms: C_3  and  C_17
    4  A    between atoms: C_4  and  C_21
    5  A    between atoms: C_5  and  C_31
    6  A    between atoms: N_14  and  C_34
    7  A    between atoms: C_17  and  C_18
                            x       y       z     vdW  Elec       q    Type
                         _______ _______ _______ _____ _____    ______ ____

>  <TORSDO>
F 7

$$$$
=
 OpenBabel11062408113D

 34 38  0  0  1  0  0  0  0  0999 V2000
  162.2630  205.8270  145.5570 C   0  0  1  0  0  3  0  0  0  0  0  0
  160.0300  205.1430  146.1650 C   0  0  1  0  0  3  0  0  0  0  0  0
  161.9290  204.6980  147.8140 C   0  0  1  0  0  3  0  0  0  0  0  0
  161.3440  206.2000  144.3920 C   0  0  2  0  0  3  0  0  0  0  0  0
  159.9530  205.6860  144.7500 C   0  0  0  0  0  2  0  0  0  0  0  0
  160.3010  206.5030  148.2420 C   0  0  0  0  0  3  0  0  0  0  0  0
  161.4990  204.7840  146.3420 C   0  0  2  0  0  3  0  0  0  0  0  0
  161.7580  205.5980  143.2010 O   0  0  0  0  0  1  0  0  0  0  0  0
  159.6190  206.1760  147.0650 O   0  0  0  0  0  0  0  0  0  0  0  0
  161.4120  205.8580  148.6270 C   0  0  0  0  0  0  0  0  0  0  0  0
  161.6450  202.1570  147.4850 C   0  0  1  0  0  3  0  0  0  0  0  0
  161.5980  199.7630  147.3770 O   0  0  0  0  0  1  0  0  0  0  0  0
  161.2750  200.6810  149.5570 C   0  0  0  0  0  2  0  0  0  0  0  0
  158.9280  201.0380  150.0010 O   0  0  0  0  0  1  0  0  0  0  0  0
  161.5130  203.3560  148.4460 C   0  0  2  0  0  3  0  0  0  0  0  0
  161.0580  200.8570  148.0530 C   0  0  1  0  0  3  0  0  0  0  0  0
  160.3680  202.9440  150.3000 C   0  0  0  0  0  2  0  0  0  0  0  0
  160.2160  201.4240  150.3800 C   0  0  2  0  0  3  0  0  0  0  0  0
  160.2190  203.4030  148.9830 O   0  0  0  0  0  0  0  0  0  0  0  0
  160.9790  202.4420  146.1450 C   0  0  0  0  0  1  0  0  0  0  0  0
  162.1850  206.2560  149.8620 C   0  0  2  0  0  3  0  0  0  0  0  0
  161.3280  207.1530  150.7390 C   0  0  2  0  0  3  0  0  0  0  0  0
  162.4830  207.7440  149.9590 C   0  0  0  0  0  2  0  0  0  0  0  0
  161.7410  206.9740  152.1880 C   0  0  0  0  0  2  0  0  0  0  0  0
  160.8850  207.8430  153.0970 C   0  0  0  0  0  2  0  0  0  0  0  0
  161.5850  209.1740  153.4280 C   0  0  2  0  0  3  0  0  0  0  0  0
  161.3830  209.6100  154.8150 N   0  0  0  0  0  0  0  0  0  0  0  0
  159.7490  210.2790  154.9320 S   0  0  0  0  0  0  0  0  0  0  0  0
  159.7460  210.7580  153.1760 C   0  0  0  0  0  2  0  0  0  0  0  0
  161.0400  210.2800  152.5500 C   0  0  0  0  0  2  0  0  0  0  0  0
  162.3160  208.9060  156.8360 O   0  0  0  0  0  1  0  0  0  0  0  0
  161.5080  208.5120  155.7680 C   0  0  0  0  0  2  0  0  0  0  0  0
  163.4890  205.3120  145.1210 O   0  0  0  0  0  0  0  0  0  0  0  0
  163.9120  204.4780  146.1560 C   0  0  0  0  0  1  0  0  0  0  0  0
  1 33  1  6  0  0  0
  1  7  1  0  0  0  0
  2  5  1  6  0  0  0
  2  7  1  0  0  0  0
  2  9  1  0  0  0  0
  3 15  1  0  0  0  0
  3 10  1  1  0  0  0
  4  8  1  6  0  0  0
  4  5  1  0  0  0  0
  4  1  1  0  0  0  0
  6 10  2  0  0  0  0
  7  3  1  0  0  0  0
  9  6  1  0  0  0  0
 10 21  1  0  0  0  0
 11 16  1  0  0  0  0
 11 15  1  0  0  0  0
 12 16  1  0  0  0  0
 13 18  1  0  0  0  0
 14 18  1  0  0  0  0
 15 19  1  0  0  0  0
 16 13  1  0  0  0  0
 17 18  1  0  0  0  0
 19 17  1  0  0  0  0
 20 11  1  0  0  0  0
 21 23  1  0  0  0  0
 21 22  1  0  0  0  0
 22 24  1  0  0  0  0
 23 22  1  0  0  0  0
 24 25  1  0  0  0  0
 25 26  1  0  0  0  0
 26 27  1  0  0  0  0
 27 28  1  0  0  0  0
 27 32  1  0  0  0  0
 29 28  1  0  0  0  0
 30 29  1  0  0  0  0
 30 26  1  0  0  0  0
 32 31  1  0  0  0  0
 33 34  1  0  0  0  0
M  END
>  <MODEL>
3

>  <REMARK>
 VINA RESULT:      -3.6      7.901     11.053
  Name = 
  7 active torsions:
  status: ('A' for Active; 'I' for Inactive)
    1  A    between atoms: C_1  and  O_24
    2  A    between atoms: C_3  and  C_13
    3  A    between atoms: C_3  and  C_17
    4  A    between atoms: C_4  and  C_21
    5  A    between atoms: C_5  and  C_31
    6  A    between atoms: N_14  and  C_34
    7  A    between atoms: C_17  and  C_18
                            x       y       z     vdW  Elec       q    Type
                         _______ _______ _______ _____ _____    ______ ____

>  <TORSDO>
F 7

$$$$
=
 OpenBabel11062408113D

 34 38  0  0  1  0  0  0  0  0999 V2000
  162.3600  205.8660  145.9900 C   0  0  1  0  0  3  0  0  0  0  0  0
  160.0370  205.5020  146.5360 C   0  0  1  0  0  3  0  0  0  0  0  0
  161.7880  205.1310  148.3600 C   0  0  1  0  0  3  0  0  0  0  0  0
  161.5490  206.1450  144.7230 C   0  0  2  0  0  3  0  0  0  0  0  0
  160.0950  205.8280  145.0560 C   0  0  0  0  0  2  0  0  0  0  0  0
  160.3400  207.1290  148.4070 C   0  0  0  0  0  3  0  0  0  0  0  0
  161.4480  205.0330  146.8650 C   0  0  2  0  0  3  0  0  0  0  0  0
  161.9600  205.3310  143.6640 O   0  0  0  0  0  1  0  0  0  0  0  0
  159.6910  206.6950  147.2460 O   0  0  0  0  0  0  0  0  0  0  0  0
  161.3530  206.4460  148.9570 C   0  0  0  0  0  0  0  0  0  0  0  0
  161.2470  204.1440  150.6790 C   0  0  1  0  0  3  0  0  0  0  0  0
  160.4590  203.2530  152.7610 O   0  0  0  0  0  1  0  0  0  0  0  0
  159.6990  202.0960  150.8150 C   0  0  0  0  0  2  0  0  0  0  0  0
  161.2070  200.3010  150.2360 O   0  0  0  0  0  1  0  0  0  0  0  0
  161.1980  203.9470  149.1500 C   0  0  2  0  0  3  0  0  0  0  0  0
  160.8310  202.8920  151.4650 C   0  0  1  0  0  3  0  0  0  0  0  0
  160.7200  201.8840  148.4900 C   0  0  0  0  0  2  0  0  0  0  0  0
  160.2160  201.1440  149.7300 C   0  0  2  0  0  3  0  0  0  0  0  0
  161.7960  202.7280  148.8010 O   0  0  0  0  0  0  0  0  0  0  0  0
  162.6360  204.5650  151.1420 C   0  0  0  0  0  1  0  0  0  0  0  0
  162.0970  206.9490  150.1720 C   0  0  2  0  0  3  0  0  0  0  0  0
  161.1950  207.8600  150.9870 C   0  0  2  0  0  3  0  0  0  0  0  0
  162.3320  208.4520  150.1800 C   0  0  0  0  0  2  0  0  0  0  0  0
  161.6000  207.7870  152.4470 C   0  0  0  0  0  2  0  0  0  0  0  0
  160.7510  208.7320  153.2830 C   0  0  0  0  0  2  0  0  0  0  0  0
  161.3150  210.1650  153.2640 C   0  0  2  0  0  3  0  0  0  0  0  0
  161.3430  210.7980  154.5880 N   0  0  0  0  0  0  0  0  0  0  0  0
  159.6910  211.3030  154.9730 S   0  0  0  0  0  0  0  0  0  0  0  0
  159.2640  211.4860  153.2130 C   0  0  0  0  0  2  0  0  0  0  0  0
  160.4560  211.0490  152.3860 C   0  0  0  0  0  2  0  0  0  0  0  0
  162.9330  210.4300  156.2570 O   0  0  0  0  0  1  0  0  0  0  0  0
  161.8090  209.8900  155.6310 C   0  0  0  0  0  2  0  0  0  0  0  0
  163.5460  205.1750  145.7200 O   0  0  0  0  0  0  0  0  0  0  0  0
  163.1840  203.8280  145.7360 C   0  0  0  0  0  1  0  0  0  0  0  0
  1 33  1  6  0  0  0
  1  7  1  0  0  0  0
  2  5  1  6  0  0  0
  2  7  1  0  0  0  0
  2  9  1  0  0  0  0
  3 10  1  1  0  0  0
  3 15  1  0  0  0  0
  4  8  1  6  0  0  0
  4  5  1  0  0  0  0
  4  1  1  0  0  0  0
  6 10  2  0  0  0  0
  7  3  1  0  0  0  0
  9  6  1  0  0  0  0
 10 21  1  0  0  0  0
 11 20  1  0  0  0  0
 11 16  1  0  0  0  0
 13 16  1  0  0  0  0
 15 11  1  0  0  0  0
 16 12  1  0  0  0  0
 17 19  1  0  0  0  0
 17 18  1  0  0  0  0
 18 14  1  0  0  0  0
 18 13  1  0  0  0  0
 19 15  1  0  0  0  0
 21 23  1  0  0  0  0
 21 22  1  0  0  0  0
 22 24  1  0  0  0  0
 23 22  1  0  0  0  0
 24 25  1  0  0  0  0
 26 25  1  0  0  0  0
 26 27  1  0  0  0  0
 27 28  1  0  0  0  0
 27 32  1  0  0  0  0
 29 28  1  0  0  0  0
 30 29  1  0  0  0  0
 30 26  1  0  0  0  0
 32 31  1  0  0  0  0
 33 34  1  0  0  0  0
M  END
>  <MODEL>
4

>  <REMARK>
 VINA RESULT:      -3.1      7.896     11.209
  Name = 
  7 active torsions:
  status: ('A' for Active; 'I' for Inactive)
    1  A    between atoms: C_1  and  O_24
    2  A    between atoms: C_3  and  C_13
    3  A    between atoms: C_3  and  C_17
    4  A    between atoms: C_4  and  C_21
    5  A    between atoms: C_5  and  C_31
    6  A    between atoms: N_14  and  C_34
    7  A    between atoms: C_17  and  C_18
                            x       y       z     vdW  Elec       q    Type
                         _______ _______ _______ _____ _____    ______ ____

>  <TORSDO>
F 7

$$$$
=
 OpenBabel11062408113D

 34 38  0  0  1  0  0  0  0  0999 V2000
  159.3820  212.2860  156.1550 C   0  0  1  0  0  3  0  0  0  0  0  0
  157.6820  212.0710  154.4550 C   0  0  1  0  0  3  0  0  0  0  0  0
  160.0860  211.4470  153.8560 C   0  0  1  0  0  3  0  0  0  0  0  0
  158.0600  212.7360  156.7800 C   0  0  2  0  0  3  0  0  0  0  0  0
  157.0120  212.6790  155.6730 C   0  0  0  0  0  2  0  0  0  0  0  0
  158.3890  209.6880  154.2090 C   0  0  0  0  0  3  0  0  0  0  0  0
  159.1600  212.3730  154.6610 C   0  0  2  0  0  3  0  0  0  0  0  0
  158.1410  214.0460  157.2610 O   0  0  0  0  0  1  0  0  0  0  0  0
  157.4170  210.6660  154.4520 O   0  0  0  0  0  0  0  0  0  0  0  0
  159.6680  210.0010  153.9530 C   0  0  0  0  0  0  0  0  0  0  0  0
  161.1750  211.0470  151.5550 C   0  0  1  0  0  3  0  0  0  0  0  0
  161.9180  210.5980  149.3200 O   0  0  0  0  0  1  0  0  0  0  0  0
  160.1690  212.2140  149.4970 C   0  0  0  0  0  2  0  0  0  0  0  0
  161.0730  214.4430  149.7050 O   0  0  0  0  0  1  0  0  0  0  0  0
  160.1880  211.8920  152.3850 C   0  0  2  0  0  3  0  0  0  0  0  0
  161.4130  211.6040  150.1440 C   0  0  1  0  0  3  0  0  0  0  0  0
  159.5140  213.7660  151.4090 C   0  0  0  0  0  2  0  0  0  0  0  0
  159.9410  213.6620  149.9440 C   0  0  2  0  0  3  0  0  0  0  0  0
  160.5000  213.2540  152.2650 O   0  0  0  0  0  0  0  0  0  0  0  0
  162.5210  210.9140  152.2550 C   0  0  0  0  0  1  0  0  0  0  0  0
  160.7300  208.9450  153.7580 C   0  0  2  0  0  3  0  0  0  0  0  0
  160.3670  207.6980  154.5460 C   0  0  2  0  0  3  0  0  0  0  0  0
  161.4940  208.5890  155.0240 C   0  0  0  0  0  2  0  0  0  0  0  0
  160.9480  206.4820  153.8510 C   0  0  0  0  0  2  0  0  0  0  0  0
  161.0160  206.7080  152.3490 C   0  0  0  0  0  2  0  0  0  0  0  0
  161.9870  205.7230  151.6720 C   0  0  2  0  0  3  0  0  0  0  0  0
  162.1060  205.9240  150.2230 N   0  0  0  0  0  0  0  0  0  0  0  0
  160.6600  205.2370  149.4670 S   0  0  0  0  0  0  0  0  0  0  0  0
  160.4400  204.0380  150.8200 C   0  0  0  0  0  2  0  0  0  0  0  0
  161.5030  204.3020  151.8670 C   0  0  0  0  0  2  0  0  0  0  0  0
  162.6660  207.4560  148.5530 O   0  0  0  0  0  1  0  0  0  0  0  0
  162.1960  207.3350  149.8610 C   0  0  0  0  0  2  0  0  0  0  0  0
  160.4540  213.0980  156.5390 O   0  0  0  0  0  0  0  0  0  0  0  0
  161.2990  212.2550  157.2610 C   0  0  0  0  0  1  0  0  0  0  0  0
  1 33  1  1  0  0  0
  1  4  1  0  0  0  0
  2  7  1  0  0  0  0
  2  5  1  1  0  0  0
  3 10  1  6  0  0  0
  3  7  1  0  0  0  0
  4  8  1  6  0  0  0
  5  4  1  0  0  0  0
  6  9  1  0  0  0  0
  7  1  1  0  0  0  0
  9  2  1  0  0  0  0
 10  6  2  0  0  0  0
 11 20  1  0  0  0  0
 11 15  1  0  0  0  0
 12 16  1  0  0  0  0
 13 18  1  0  0  0  0
 13 16  1  0  0  0  0
 14 18  1  0  0  0  0
 15  3  1  0  0  0  0
 16 11  1  0  0  0  0
 17 19  1  0  0  0  0
 18 17  1  0  0  0  0
 19 15  1  0  0  0  0
 21 10  1  0  0  0  0
 21 22  1  0  0  0  0
 21 23  1  0  0  0  0
 22 23  1  0  0  0  0
 24 22  1  0  0  0  0
 25 24  1  0  0  0  0
 26 30  1  0  0  0  0
 26 25  1  0  0  0  0
 27 26  1  0  0  0  0
 28 27  1  0  0  0  0
 28 29  1  0  0  0  0
 29 30  1  0  0  0  0
 31 32  1  0  0  0  0
 32 27  1  0  0  0  0
 33 34  1  0  0  0  0
M  END
>  <MODEL>
5

>  <REMARK>
 VINA RESULT:      -2.7      9.371     13.774
  Name = 
  7 active torsions:
  status: ('A' for Active; 'I' for Inactive)
    1  A    between atoms: C_1  and  O_24
    2  A    between atoms: C_3  and  C_13
    3  A    between atoms: C_3  and  C_17
    4  A    between atoms: C_4  and  C_21
    5  A    between atoms: C_5  and  C_31
    6  A    between atoms: N_14  and  C_34
    7  A    between atoms: C_17  and  C_18
                            x       y       z     vdW  Elec       q    Type
                         _______ _______ _______ _____ _____    ______ ____

>  <TORSDO>
F 7

$$$$
=
 OpenBabel11062408113D

 34 38  0  0  1  0  0  0  0  0999 V2000
  161.9200  210.4710  155.4150 C   0  0  1  0  0  3  0  0  0  0  0  0
  159.7270  211.2460  154.7720 C   0  0  1  0  0  3  0  0  0  0  0  0
  161.2460  210.2630  152.9680 C   0  0  1  0  0  3  0  0  0  0  0  0
  161.2470  211.0150  156.6760 C   0  0  2  0  0  3  0  0  0  0  0  0
  159.8980  211.5800  156.2420 C   0  0  0  0  0  2  0  0  0  0  0  0
  159.3240  208.9710  153.8240 C   0  0  0  0  0  3  0  0  0  0  0  0
  161.1530  211.0840  154.2630 C   0  0  2  0  0  3  0  0  0  0  0  0
  162.0010  212.0370  157.2580 O   0  0  0  0  0  1  0  0  0  0  0  0
  158.9810  210.0300  154.6720 O   0  0  0  0  0  0  0  0  0  0  0  0
  160.3980  209.0160  153.0230 C   0  0  0  0  0  0  0  0  0  0  0  0
  161.7710  210.8110  150.5050 C   0  0  1  0  0  3  0  0  0  0  0  0
  161.9920  211.2090  148.1510 O   0  0  0  0  0  1  0  0  0  0  0  0
  160.0840  212.2200  149.1710 C   0  0  0  0  0  2  0  0  0  0  0  0
  160.5960  214.4530  149.9330 O   0  0  0  0  0  1  0  0  0  0  0  0
  160.8900  211.1150  151.7340 C   0  0  2  0  0  3  0  0  0  0  0  0
  161.5400  211.7840  149.3390 C   0  0  1  0  0  3  0  0  0  0  0  0
  159.6660  212.9570  151.5740 C   0  0  0  0  0  2  0  0  0  0  0  0
  159.7190  213.3790  150.1050 C   0  0  2  0  0  3  0  0  0  0  0  0
  160.9120  212.4880  152.0160 O   0  0  0  0  0  0  0  0  0  0  0  0
  163.2510  210.8290  150.8620 C   0  0  0  0  0  1  0  0  0  0  0  0
  160.8070  207.8470  152.1590 C   0  0  2  0  0  3  0  0  0  0  0  0
  161.3010  206.7080  153.0340 C   0  0  2  0  0  3  0  0  0  0  0  0
  162.2900  207.5150  152.2200 C   0  0  0  0  0  2  0  0  0  0  0  0
  161.0330  205.3890  152.3350 C   0  0  0  0  0  2  0  0  0  0  0  0
  161.5770  205.4180  150.9150 C   0  0  0  0  0  2  0  0  0  0  0  0
  160.4500  205.2750  149.8750 C   0  0  2  0  0  3  0  0  0  0  0  0
  160.5660  204.0640  149.0540 N   0  0  0  0  0  0  0  0  0  0  0  0
  161.8300  204.3540  147.8490 S   0  0  0  0  0  0  0  0  0  0  0  0
  161.5330  206.1510  147.8710 C   0  0  0  0  0  2  0  0  0  0  0  0
  160.4760  206.4460  148.9160 C   0  0  0  0  0  2  0  0  0  0  0  0
  160.6100  201.7310  149.1290 O   0  0  0  0  0  1  0  0  0  0  0  0
  160.9290  202.8890  149.8390 C   0  0  0  0  0  2  0  0  0  0  0  0
  163.2730  210.8210  155.3430 O   0  0  0  0  0  0  0  0  0  0  0  0
  163.7470  210.6800  156.6470 C   0  0  0  0  0  1  0  0  0  0  0  0
  1 33  1  6  0  0  0
  1  4  1  0  0  0  0
  2  5  1  1  0  0  0
  3 10  1  1  0  0  0
  3  7  1  0  0  0  0
  4  8  1  6  0  0  0
  5  4  1  0  0  0  0
  6  9  1  0  0  0  0
  7  2  1  0  0  0  0
  7  1  1  0  0  0  0
  9  2  1  0  0  0  0
 10  6  2  0  0  0  0
 11 20  1  0  0  0  0
 11 15  1  0  0  0  0
 12 16  1  0  0  0  0
 13 16  1  0  0  0  0
 13 18  1  0  0  0  0
 14 18  1  0  0  0  0
 15 19  1  0  0  0  0
 15  3  1  0  0  0  0
 16 11  1  0  0  0  0
 17 19  1  0  0  0  0
 18 17  1  0  0  0  0
 21 23  1  0  0  0  0
 21 10  1  0  0  0  0
 21 22  1  0  0  0  0
 23 22  1  0  0  0  0
 24 22  1  0  0  0  0
 25 24  1  0  0  0  0
 26 25  1  0  0  0  0
 27 32  1  0  0  0  0
 27 26  1  0  0  0  0
 28 29  1  0  0  0  0
 28 27  1  0  0  0  0
 29 30  1  0  0  0  0
 30 26  1  0  0  0  0
 31 32  1  0  0  0  0
 33 34  1  0  0  0  0
M  END
>  <MODEL>
6

>  <REMARK>
 VINA RESULT:      -2.7      8.826     13.259
  Name = 
  7 active torsions:
  status: ('A' for Active; 'I' for Inactive)
    1  A    between atoms: C_1  and  O_24
    2  A    between atoms: C_3  and  C_13
    3  A    between atoms: C_3  and  C_17
    4  A    between atoms: C_4  and  C_21
    5  A    between atoms: C_5  and  C_31
    6  A    between atoms: N_14  and  C_34
    7  A    between atoms: C_17  and  C_18
                            x       y       z     vdW  Elec       q    Type
                         _______ _______ _______ _____ _____    ______ ____

>  <TORSDO>
F 7

$$$$
=
 OpenBabel11062408113D

 34 38  0  0  1  0  0  0  0  0999 V2000
  159.7740  210.8270  153.2420 C   0  0  1  0  0  3  0  0  0  0  0  0
  161.5180  209.6300  154.4040 C   0  0  1  0  0  3  0  0  0  0  0  0
  161.0890  209.0720  151.9480 C   0  0  1  0  0  3  0  0  0  0  0  0
  159.7970  211.3480  154.6800 C   0  0  2  0  0  3  0  0  0  0  0  0
  160.8430  210.5240  155.4260 C   0  0  0  0  0  2  0  0  0  0  0  0
  163.0770  210.3810  152.6020 C   0  0  0  0  0  3  0  0  0  0  0  0
  160.4820  209.4910  153.2960 C   0  0  2  0  0  3  0  0  0  0  0  0
  158.5580  211.1820  155.3050 O   0  0  0  0  0  1  0  0  0  0  0  0
  162.7050  210.2850  153.9480 O   0  0  0  0  0  0  0  0  0  0  0  0
  162.3360  209.8540  151.6170 C   0  0  0  0  0  0  0  0  0  0  0  0
  161.3940  206.9850  150.4660 C   0  0  1  0  0  3  0  0  0  0  0  0
  161.9580  205.0400  149.1830 O   0  0  0  0  0  1  0  0  0  0  0  0
  162.3510  204.8500  151.5310 C   0  0  0  0  0  2  0  0  0  0  0  0
  160.4150  203.9510  152.6580 O   0  0  0  0  0  1  0  0  0  0  0  0
  161.3610  207.5560  151.8980 C   0  0  2  0  0  3  0  0  0  0  0  0
  161.4810  205.4520  150.4270 C   0  0  1  0  0  3  0  0  0  0  0  0
  161.2680  206.0350  153.5080 C   0  0  0  0  0  2  0  0  0  0  0  0
  161.5830  204.6920  152.8470 C   0  0  2  0  0  3  0  0  0  0  0  0
  160.4570  206.8310  152.6870 O   0  0  0  0  0  0  0  0  0  0  0  0
  160.1740  207.4200  149.6650 C   0  0  0  0  0  1  0  0  0  0  0  0
  162.7020  210.0160  150.1610 C   0  0  2  0  0  3  0  0  0  0  0  0
  161.9820  211.2210  149.5800 C   0  0  2  0  0  3  0  0  0  0  0  0
  161.5380  209.8240  149.2000 C   0  0  0  0  0  2  0  0  0  0  0  0
  162.8150  211.8060  148.4560 C   0  0  0  0  0  2  0  0  0  0  0  0
  161.9230  212.2450  147.3050 C   0  0  0  0  0  2  0  0  0  0  0  0
  161.7400  213.7740  147.2840 C   0  0  2  0  0  3  0  0  0  0  0  0
  160.3330  214.1910  147.2270 N   0  0  0  0  0  0  0  0  0  0  0  0
  159.7750  213.9600  145.5630 S   0  0  0  0  0  0  0  0  0  0  0  0
  161.4540  214.1890  144.8960 C   0  0  0  0  0  2  0  0  0  0  0  0
  162.4090  214.3610  146.0600 C   0  0  0  0  0  2  0  0  0  0  0  0
  159.6320  213.8610  149.4290 O   0  0  0  0  0  1  0  0  0  0  0  0
  159.4820  213.4090  148.1180 C   0  0  0  0  0  2  0  0  0  0  0  0
  158.4710  210.6710  152.7560 O   0  0  0  0  0  0  0  0  0  0  0  0
  158.1810  211.8780  152.1200 C   0  0  0  0  0  1  0  0  0  0  0  0
  1 33  1  1  0  0  0
  1  7  1  0  0  0  0
  1  4  1  0  0  0  0
  2  5  1  1  0  0  0
  3 10  1  1  0  0  0
  3  7  1  0  0  0  0
  4  8  1  1  0  0  0
  4  5  1  0  0  0  0
  6  9  1  0  0  0  0
  7  2  1  0  0  0  0
  9  2  1  0  0  0  0
 10  6  2  0  0  0  0
 11 15  1  0  0  0  0
 12 16  1  0  0  0  0
 13 18  1  0  0  0  0
 14 18  1  0  0  0  0
 15  3  1  0  0  0  0
 15 19  1  0  0  0  0
 16 11  1  0  0  0  0
 16 13  1  0  0  0  0
 18 17  1  0  0  0  0
 19 17  1  0  0  0  0
 20 11  1  0  0  0  0
 21 10  1  0  0  0  0
 22 21  1  0  0  0  0
 23 22  1  0  0  0  0
 23 21  1  0  0  0  0
 24 22  1  0  0  0  0
 25 24  1  0  0  0  0
 26 25  1  0  0  0  0
 27 26  1  0  0  0  0
 27 32  1  0  0  0  0
 28 27  1  0  0  0  0
 29 28  1  0  0  0  0
 29 30  1  0  0  0  0
 30 26  1  0  0  0  0
 32 31  1  0  0  0  0
 34 33  1  0  0  0  0
M  END
>  <MODEL>
7

>  <REMARK>
 VINA RESULT:      -2.6      6.995     12.304
  Name = 
  7 active torsions:
  status: ('A' for Active; 'I' for Inactive)
    1  A    between atoms: C_1  and  O_24
    2  A    between atoms: C_3  and  C_13
    3  A    between atoms: C_3  and  C_17
    4  A    between atoms: C_4  and  C_21
    5  A    between atoms: C_5  and  C_31
    6  A    between atoms: N_14  and  C_34
    7  A    between atoms: C_17  and  C_18
                            x       y       z     vdW  Elec       q    Type
                         _______ _______ _______ _____ _____    ______ ____

>  <TORSDO>
F 7

$$$$
=
 OpenBabel11062408113D

 34 38  0  0  1  0  0  0  0  0999 V2000
  162.4300  212.0260  139.0370 C   0  0  1  0  0  3  0  0  0  0  0  0
  160.7330  213.2530  137.8360 C   0  0  1  0  0  3  0  0  0  0  0  0
  160.0540  211.9920  139.9520 C   0  0  1  0  0  3  0  0  0  0  0  0
  163.1080  212.6610  137.8210 C   0  0  2  0  0  3  0  0  0  0  0  0
  162.0110  213.3610  137.0250 C   0  0  0  0  0  2  0  0  0  0  0  0
  160.2500  214.4530  139.9730 C   0  0  0  0  0  3  0  0  0  0  0  0
  160.9530  212.0230  138.7070 C   0  0  2  0  0  3  0  0  0  0  0  0
  163.7130  211.6970  137.0110 O   0  0  0  0  0  1  0  0  0  0  0  0
  160.5950  214.4430  138.6170 O   0  0  0  0  0  0  0  0  0  0  0  0
  160.0140  213.3250  140.6580 C   0  0  0  0  0  0  0  0  0  0  0  0
  158.6090  210.2790  138.6790 C   0  0  1  0  0  3  0  0  0  0  0  0
  157.1800  208.5870  137.7600 O   0  0  0  0  0  1  0  0  0  0  0  0
  156.1050  210.1240  139.2390 C   0  0  0  0  0  2  0  0  0  0  0  0
  155.2100  212.0070  138.0220 O   0  0  0  0  0  1  0  0  0  0  0  0
  158.6320  211.5090  139.6090 C   0  0  2  0  0  3  0  0  0  0  0  0
  157.1990  209.9140  138.1920 C   0  0  1  0  0  3  0  0  0  0  0  0
  156.6780  212.5280  139.8580 C   0  0  0  0  0  2  0  0  0  0  0  0
  155.6250  211.5780  139.2850 C   0  0  2  0  0  3  0  0  0  0  0  0
  157.8400  212.5340  139.0730 O   0  0  0  0  0  0  0  0  0  0  0  0
  159.5020  210.4850  137.4620 C   0  0  0  0  0  1  0  0  0  0  0  0
  159.7070  213.3310  142.1360 C   0  0  2  0  0  3  0  0  0  0  0  0
  160.7280  212.4860  142.8780 C   0  0  2  0  0  3  0  0  0  0  0  0
  159.3150  211.9730  142.6980 C   0  0  0  0  0  2  0  0  0  0  0  0
  160.8920  213.0220  144.2870 C   0  0  0  0  0  2  0  0  0  0  0  0
  159.6550  212.7230  145.1180 C   0  0  0  0  0  2  0  0  0  0  0  0
  159.1390  213.9840  145.8370 C   0  0  2  0  0  3  0  0  0  0  0  0
  158.8990  213.7800  147.2710 N   0  0  0  0  0  0  0  0  0  0  0  0
  157.3760  212.8920  147.4360 S   0  0  0  0  0  0  0  0  0  0  0  0
  156.7350  213.5660  145.8710 C   0  0  0  0  0  2  0  0  0  0  0  0
  157.8180  214.4180  145.2400 C   0  0  0  0  0  2  0  0  0  0  0  0
  160.0400  213.3500  149.2620 O   0  0  0  0  0  1  0  0  0  0  0  0
  159.9600  213.0090  147.9110 C   0  0  0  0  0  2  0  0  0  0  0  0
  162.8810  210.7240  139.2750 O   0  0  0  0  0  0  0  0  0  0  0  0
  162.8160  210.5720  140.6600 C   0  0  0  0  0  1  0  0  0  0  0  0
  1 33  1  6  0  0  0
  2  5  1  6  0  0  0
  2  9  1  0  0  0  0
  2  7  1  0  0  0  0
  3 10  1  6  0  0  0
  4  8  1  6  0  0  0
  4  1  1  0  0  0  0
  5  4  1  0  0  0  0
  6 10  2  0  0  0  0
  7  1  1  0  0  0  0
  7  3  1  0  0  0  0
  9  6  1  0  0  0  0
 10 21  1  0  0  0  0
 11 15  1  0  0  0  0
 12 16  1  0  0  0  0
 13 18  1  0  0  0  0
 14 18  1  0  0  0  0
 15  3  1  0  0  0  0
 16 11  1  0  0  0  0
 16 13  1  0  0  0  0
 18 17  1  0  0  0  0
 19 15  1  0  0  0  0
 19 17  1  0  0  0  0
 20 11  1  0  0  0  0
 21 23  1  0  0  0  0
 21 22  1  0  0  0  0
 22 24  1  0  0  0  0
 23 22  1  0  0  0  0
 24 25  1  0  0  0  0
 25 26  1  0  0  0  0
 26 27  1  0  0  0  0
 27 28  1  0  0  0  0
 27 32  1  0  0  0  0
 29 28  1  0  0  0  0
 30 26  1  0  0  0  0
 30 29  1  0  0  0  0
 32 31  1  0  0  0  0
 33 34  1  0  0  0  0
M  END
>  <MODEL>
8

>  <REMARK>
 VINA RESULT:      -2.5      1.862      2.723
  Name = 
  7 active torsions:
  status: ('A' for Active; 'I' for Inactive)
    1  A    between atoms: C_1  and  O_24
    2  A    between atoms: C_3  and  C_13
    3  A    between atoms: C_3  and  C_17
    4  A    between atoms: C_4  and  C_21
    5  A    between atoms: C_5  and  C_31
    6  A    between atoms: N_14  and  C_34
    7  A    between atoms: C_17  and  C_18
                            x       y       z     vdW  Elec       q    Type
                         _______ _______ _______ _____ _____    ______ ____

>  <TORSDO>
F 7

$$$$
=
 OpenBabel11062408113D

 34 38  0  0  1  0  0  0  0  0999 V2000
  161.7880  210.3450  154.9380 C   0  0  1  0  0  3  0  0  0  0  0  0
  159.8560  210.7950  153.5630 C   0  0  1  0  0  3  0  0  0  0  0  0
  161.7240  209.3430  152.5980 C   0  0  1  0  0  3  0  0  0  0  0  0
  160.8520  211.2380  155.7540 C   0  0  2  0  0  3  0  0  0  0  0  0
  159.6780  211.5860  154.8450 C   0  0  0  0  0  2  0  0  0  0  0  0
  159.5950  208.3220  153.3190 C   0  0  0  0  0  3  0  0  0  0  0  0
  161.3550  210.5300  153.5000 C   0  0  2  0  0  3  0  0  0  0  0  0
  161.4860  212.4190  156.1480 O   0  0  0  0  0  1  0  0  0  0  0  0
  159.1030  209.5840  153.6730 O   0  0  0  0  0  0  0  0  0  0  0  0
  160.8330  208.1490  152.8350 C   0  0  0  0  0  0  0  0  0  0  0  0
  161.8970  208.5470  150.1520 C   0  0  1  0  0  3  0  0  0  0  0  0
  161.7760  207.8910  147.8490 O   0  0  0  0  0  1  0  0  0  0  0  0
  161.2420  210.1790  148.2770 C   0  0  0  0  0  2  0  0  0  0  0  0
  163.2120  211.5670  148.1220 O   0  0  0  0  0  1  0  0  0  0  0  0
  161.7210  209.7430  151.1100 C   0  0  2  0  0  3  0  0  0  0  0  0
  162.0780  208.9660  148.6860 C   0  0  1  0  0  3  0  0  0  0  0  0
  161.9510  211.7360  150.1660 C   0  0  0  0  0  2  0  0  0  0  0  0
  161.9230  211.4990  148.6550 C   0  0  2  0  0  3  0  0  0  0  0  0
  162.6730  210.7320  150.8260 O   0  0  0  0  0  0  0  0  0  0  0  0
  163.0820  207.6800  150.5560 C   0  0  0  0  0  1  0  0  0  0  0  0
  161.3870  206.7810  152.5160 C   0  0  2  0  0  3  0  0  0  0  0  0
  160.8620  205.7660  153.5180 C   0  0  2  0  0  3  0  0  0  0  0  0
  162.3070  206.2150  153.5890 C   0  0  0  0  0  2  0  0  0  0  0  0
  160.7910  204.4030  152.8560 C   0  0  0  0  0  2  0  0  0  0  0  0
  160.7120  204.5470  151.3450 C   0  0  0  0  0  2  0  0  0  0  0  0
  161.8130  203.7330  150.6410 C   0  0  2  0  0  3  0  0  0  0  0  0
  161.5740  203.5490  149.2050 N   0  0  0  0  0  0  0  0  0  0  0  0
  160.3370  202.2960  149.0240 S   0  0  0  0  0  0  0  0  0  0  0  0
  160.8080  201.5090  150.5970 C   0  0  0  0  0  2  0  0  0  0  0  0
  161.8960  202.3450  151.2410 C   0  0  0  0  0  2  0  0  0  0  0  0
  161.3040  204.6770  147.1790 O   0  0  0  0  0  1  0  0  0  0  0  0
  161.1020  204.7680  148.5570 C   0  0  0  0  0  2  0  0  0  0  0  0
  163.1320  210.7010  155.0940 O   0  0  0  0  0  0  0  0  0  0  0  0
  163.3780  210.5690  156.4610 C   0  0  0  0  0  1  0  0  0  0  0  0
  1 33  1  6  0  0  0
  1  4  1  0  0  0  0
  2  9  1  0  0  0  0
  2  5  1  1  0  0  0
  3 10  1  6  0  0  0
  3  7  1  0  0  0  0
  4  8  1  6  0  0  0
  5  4  1  0  0  0  0
  6  9  1  0  0  0  0
  7  2  1  0  0  0  0
  7  1  1  0  0  0  0
 10  6  2  0  0  0  0
 11 20  1  0  0  0  0
 11 15  1  0  0  0  0
 12 16  1  0  0  0  0
 13 18  1  0  0  0  0
 13 16  1  0  0  0  0
 14 18  1  0  0  0  0
 15  3  1  0  0  0  0
 16 11  1  0  0  0  0
 17 19  1  0  0  0  0
 18 17  1  0  0  0  0
 19 15  1  0  0  0  0
 21 10  1  0  0  0  0
 21 22  1  0  0  0  0
 21 23  1  0  0  0  0
 22 23  1  0  0  0  0
 24 22  1  0  0  0  0
 25 24  1  0  0  0  0
 26 30  1  0  0  0  0
 26 25  1  0  0  0  0
 27 26  1  0  0  0  0
 28 27  1  0  0  0  0
 28 29  1  0  0  0  0
 29 30  1  0  0  0  0
 31 32  1  0  0  0  0
 32 27  1  0  0  0  0
 33 34  1  0  0  0  0
M  END
>  <MODEL>
9

>  <REMARK>
 VINA RESULT:      -1.9      8.737     13.261
  Name = 
  7 active torsions:
  status: ('A' for Active; 'I' for Inactive)
    1  A    between atoms: C_1  and  O_24
    2  A    between atoms: C_3  and  C_13
    3  A    between atoms: C_3  and  C_17
    4  A    between atoms: C_4  and  C_21
    5  A    between atoms: C_5  and  C_31
    6  A    between atoms: N_14  and  C_34
    7  A    between atoms: C_17  and  C_18
                            x       y       z     vdW  Elec       q    Type
                         _______ _______ _______ _____ _____    ______ ____

>  <TORSDO>
F 7

$$$$
