=
 OpenBabel11062409083D

 37 41  0  0  1  0  0  0  0  0999 V2000
  161.6730  209.8490  152.7790 C   0  0  2  0  0  3  0  0  0  0  0  0
  160.7270  207.8670  154.5900 N   0  0  0  0  0  0  0  0  0  0  0  0
  161.1310  210.6730  151.6170 C   0  0  0  0  0  2  0  0  0  0  0  0
  161.7610  208.3720  152.4560 C   0  0  0  0  0  0  0  0  0  0  0  0
  160.1050  211.6370  152.2150 C   0  0  1  0  0  0  0  0  0  0  0  0
  159.8000  209.4440  156.0710 N   0  0  0  0  0  1  0  0  0  0  0  0
  160.0990  212.4490  154.6540 C   0  0  0  0  0  1  0  0  0  0  0  0
  160.4670  209.1080  154.8580 C   0  0  0  0  0  0  0  0  0  0  0  0
  160.7910  210.1210  153.9030 N   0  0  0  0  0  0  0  0  0  0  0  0
  161.3360  207.4500  153.3550 C   0  0  0  0  0  0  0  0  0  0  0  0
  158.7620  211.0900  152.7270 C   0  0  1  0  0  3  0  0  0  0  0  0
  159.9490  211.2790  153.6830 C   0  0  2  0  0  0  0  0  0  0  0  0
  157.5310  213.1960  151.8170 C   0  0  0  0  0  2  0  0  0  0  0  0
  157.6900  212.1350  152.8870 C   0  0  0  0  0  0  0  0  0  0  0  0
  157.0600  212.2460  154.0630 C   0  0  0  0  0  3  0  0  0  0  0  0
  155.4960  213.4120  155.4000 O   0  0  0  0  0  0  0  0  0  0  0  0
  155.6780  214.1690  153.1680 C   0  0  0  0  0  3  0  0  0  0  0  0
  156.0550  213.2920  154.2810 C   0  0  0  0  0  0  0  0  0  0  0  0
  156.3400  214.1030  152.0130 C   0  0  0  0  0  3  0  0  0  0  0  0
  161.4550  205.9680  153.0940 C   0  0  0  0  0  0  0  0  0  0  0  0
  160.4430  205.5460  152.2500 F   0  0  0  0  0  0  0  0  0  0  0  0
  162.6710  205.6880  152.4960 F   0  0  0  0  0  0  0  0  0  0  0  0
  161.3560  205.2660  154.2810 F   0  0  0  0  0  0  0  0  0  0  0  0
  160.5660  213.1190  150.7050 O   0  0  0  0  0  1  0  0  0  0  0  0
  160.2470  213.0140  151.9800 O   0  0  0  0  0  0  0  0  0  0  0  0
  162.4360  207.9560  151.1760 C   0  0  0  0  0  2  0  0  0  0  0  0
  161.1160  206.2080  150.2050 O   0  0  0  0  0  0  0  0  0  0  0  0
  160.7660  205.8070  148.9060 C   0  0  1  0  0  3  0  0  0  0  0  0
  161.9680  207.8530  148.7140 C   0  0  0  0  0  2  0  0  0  0  0  0
  161.5400  206.6540  147.9190 C   0  0  2  0  0  3  0  0  0  0  0  0
  161.4240  207.5750  150.1020 C   0  0  2  0  0  3  0  0  0  0  0  0
  161.0600  204.3260  148.7070 C   0  0  0  0  0  2  0  0  0  0  0  0
  160.7330  203.5980  149.8530 O   0  0  0  0  0  1  0  0  0  0  0  0
  160.7480  207.0160  146.7850 O   0  0  0  0  0  0  0  0  0  0  0  0
  160.5880  206.2230  145.6420 C   0  0  0  0  0  0  0  0  0  0  0  0
  159.4280  205.9440  145.2420 O   0  0  0  0  0  1  0  0  0  0  0  0
  161.6860  205.7390  144.9410 O   0  0  0  0  0  0  0  0  0  0  0  0
  1  3  1  6  0  0  0
  1  9  1  0  0  0  0
  2  8  2  0  0  0  0
  3  5  1  0  0  0  0
  4  1  1  0  0  0  0
  4 10  2  0  0  0  0
  5 25  1  6  0  0  0
  5 11  1  0  0  0  0
  5 12  1  0  0  0  0
  8  6  1  0  0  0  0
  9  8  1  0  0  0  0
 10  2  1  0  0  0  0
 11 14  1  1  0  0  0
 11 12  1  0  0  0  0
 12  9  1  0  0  0  0
 12  7  1  1  0  0  0
 13 19  1  0  0  0  0
 13 14  1  0  0  0  0
 14 15  2  0  0  0  0
 15 18  1  0  0  0  0
 17 18  1  0  0  0  0
 18 16  2  0  0  0  0
 19 17  2  0  0  0  0
 20 10  1  0  0  0  0
 20 23  1  0  0  0  0
 21 20  1  0  0  0  0
 22 20  1  0  0  0  0
 24 25  1  0  0  0  0
 26  4  1  0  0  0  0
 28 32  1  1  0  0  0
 28 27  1  0  0  0  0
 29 31  1  0  0  0  0
 30 34  1  6  0  0  0
 30 29  1  0  0  0  0
 30 28  1  0  0  0  0
 31 27  1  0  0  0  0
 31 26  1  1  0  0  0
 32 33  1  0  0  0  0
 35 34  1  0  0  0  0
 36 35  1  0  0  0  0
 37 35  2  0  0  0  0
M  END
>  <MODEL>
1

>  <REMARK>
 VINA RESULT:      -7.1      0.000      0.000
  Name = 
  8 active torsions:
  status: ('A' for Active; 'I' for Inactive)
    1  A    between atoms: C_3  and  C_30
    2  A    between atoms: C_5  and  C_12
    3  A    between atoms: C_6  and  C_31
    4  A    between atoms: C_11  and  O_26
    5  A    between atoms: C_13  and  C_20
    6  A    between atoms: C_14  and  O_27
    7  A    between atoms: C_20  and  C_36
    8  A    between atoms: O_26  and  C_33
                            x       y       z     vdW  Elec       q    Type
                         _______ _______ _______ _____ _____    ______ ____

>  <TORSDO>
F 8

$$$$
=
 OpenBabel11062409083D

 37 41  0  0  1  0  0  0  0  0999 V2000
  161.6000  208.9700  154.0280 C   0  0  2  0  0  3  0  0  0  0  0  0
  160.4430  206.4460  154.6530 N   0  0  0  0  0  0  0  0  0  0  0  0
  161.1930  210.2590  153.3220 C   0  0  0  0  0  2  0  0  0  0  0  0
  161.7030  207.7930  153.0810 C   0  0  0  0  0  0  0  0  0  0  0  0
  160.1220  210.9100  154.1990 C   0  0  1  0  0  0  0  0  0  0  0  0
  159.3840  207.2410  156.5990 N   0  0  0  0  0  1  0  0  0  0  0  0
  159.8690  210.5380  156.7290 C   0  0  0  0  0  1  0  0  0  0  0  0
  160.1710  207.4470  155.4300 C   0  0  0  0  0  0  0  0  0  0  0  0
  160.6060  208.7600  155.0700 N   0  0  0  0  0  0  0  0  0  0  0  0
  161.1730  206.5930  153.4220 C   0  0  0  0  0  0  0  0  0  0  0  0
  158.7260  210.2720  154.2870 C   0  0  1  0  0  3  0  0  0  0  0  0
  159.8080  209.9410  155.3250 C   0  0  2  0  0  0  0  0  0  0  0  0
  157.0740  210.9450  156.1830 C   0  0  0  0  0  2  0  0  0  0  0  0
  157.6550  211.1950  154.8070 C   0  0  0  0  0  0  0  0  0  0  0  0
  157.0830  212.0640  153.9660 C   0  0  0  0  0  3  0  0  0  0  0  0
  155.4350  213.7230  153.6090 O   0  0  0  0  0  0  0  0  0  0  0  0
  155.5880  212.9110  155.8250 C   0  0  0  0  0  3  0  0  0  0  0  0
  155.9920  212.9360  154.4160 C   0  0  0  0  0  0  0  0  0  0  0  0
  156.1130  212.0090  156.6540 C   0  0  0  0  0  3  0  0  0  0  0  0
  161.3010  205.3820  152.5300 C   0  0  0  0  0  0  0  0  0  0  0  0
  161.0220  204.2290  153.2420 F   0  0  0  0  0  0  0  0  0  0  0  0
  160.4090  205.4740  151.4760 F   0  0  0  0  0  0  0  0  0  0  0  0
  162.5890  205.2900  152.0350 F   0  0  0  0  0  0  0  0  0  0  0  0
  160.1990  212.9710  153.5380 O   0  0  0  0  0  1  0  0  0  0  0  0
  160.3050  212.2350  154.6260 O   0  0  0  0  0  0  0  0  0  0  0  0
  162.5040  207.9590  151.8160 C   0  0  0  0  0  2  0  0  0  0  0  0
  161.5550  207.4370  149.6790 O   0  0  0  0  0  0  0  0  0  0  0  0
  161.3580  208.1170  148.4660 C   0  0  1  0  0  3  0  0  0  0  0  0
  162.2160  209.6950  150.0290 C   0  0  0  0  0  2  0  0  0  0  0  0
  162.0430  209.4640  148.5560 C   0  0  2  0  0  3  0  0  0  0  0  0
  161.6390  208.4410  150.6580 C   0  0  2  0  0  3  0  0  0  0  0  0
  161.9050  207.3000  147.3020 C   0  0  0  0  0  2  0  0  0  0  0  0
  160.9150  206.4680  146.7740 O   0  0  0  0  0  1  0  0  0  0  0  0
  161.2750  210.4980  147.9360 O   0  0  0  0  0  0  0  0  0  0  0  0
  161.6580  211.8440  147.8740 C   0  0  0  0  0  0  0  0  0  0  0  0
  162.8810  212.1360  147.8340 O   0  0  0  0  0  0  0  0  0  0  0  0
  160.7120  212.8620  147.8550 O   0  0  0  0  0  1  0  0  0  0  0  0
  1  3  1  6  0  0  0
  1  9  1  0  0  0  0
  2  8  2  0  0  0  0
  3  5  1  0  0  0  0
  4 10  2  0  0  0  0
  4  1  1  0  0  0  0
  5 11  1  0  0  0  0
  5 25  1  1  0  0  0
  5 12  1  0  0  0  0
  8  6  1  0  0  0  0
  9 12  1  0  0  0  0
  9  8  1  0  0  0  0
 10  2  1  0  0  0  0
 11 14  1  1  0  0  0
 11 12  1  0  0  0  0
 12  7  1  1  0  0  0
 13 19  1  0  0  0  0
 14 13  1  0  0  0  0
 15 18  1  0  0  0  0
 15 14  2  0  0  0  0
 16 18  2  0  0  0  0
 17 19  2  0  0  0  0
 18 17  1  0  0  0  0
 20 21  1  0  0  0  0
 20 10  1  0  0  0  0
 22 20  1  0  0  0  0
 23 20  1  0  0  0  0
 24 25  1  0  0  0  0
 26  4  1  0  0  0  0
 27 31  1  0  0  0  0
 28 32  1  6  0  0  0
 28 30  1  0  0  0  0
 28 27  1  0  0  0  0
 29 31  1  0  0  0  0
 30 34  1  1  0  0  0
 30 29  1  0  0  0  0
 31 26  1  1  0  0  0
 33 32  1  0  0  0  0
 35 34  1  0  0  0  0
 36 35  2  0  0  0  0
 37 35  1  0  0  0  0
M  END
>  <MODEL>
2

>  <REMARK>
 VINA RESULT:      -6.4      1.845      3.124
  Name = 
  8 active torsions:
  status: ('A' for Active; 'I' for Inactive)
    1  A    between atoms: C_3  and  C_30
    2  A    between atoms: C_5  and  C_12
    3  A    between atoms: C_6  and  C_31
    4  A    between atoms: C_11  and  O_26
    5  A    between atoms: C_13  and  C_20
    6  A    between atoms: C_14  and  O_27
    7  A    between atoms: C_20  and  C_36
    8  A    between atoms: O_26  and  C_33
                            x       y       z     vdW  Elec       q    Type
                         _______ _______ _______ _____ _____    ______ ____

>  <TORSDO>
F 8

$$$$
=
 OpenBabel11062409083D

 37 41  0  0  1  0  0  0  0  0999 V2000
  161.6610  210.0460  152.3820 C   0  0  2  0  0  3  0  0  0  0  0  0
  161.2930  211.4120  149.9110 N   0  0  0  0  0  0  0  0  0  0  0  0
  161.0200  208.8920  153.1450 C   0  0  0  0  0  2  0  0  0  0  0  0
  160.7490  211.2500  152.2680 C   0  0  0  0  0  0  0  0  0  0  0  0
  161.3200  207.6250  152.3410 C   0  0  1  0  0  0  0  0  0  0  0  0
  162.5350  209.8360  148.6800 N   0  0  0  0  0  1  0  0  0  0  0  0
  163.3140  207.3360  150.7460 C   0  0  0  0  0  1  0  0  0  0  0  0
  161.9530  210.2960  149.8960 C   0  0  0  0  0  0  0  0  0  0  0  0
  162.0310  209.5040  151.0830 N   0  0  0  0  0  0  0  0  0  0  0  0
  160.6220  211.9020  151.0860 C   0  0  0  0  0  0  0  0  0  0  0  0
  160.6160  207.4000  150.9930 C   0  0  1  0  0  3  0  0  0  0  0  0
  162.0030  208.0560  151.0550 C   0  0  2  0  0  0  0  0  0  0  0  0
  160.5640  204.8520  151.5260 C   0  0  0  0  0  2  0  0  0  0  0  0
  160.6460  205.9740  150.5110 C   0  0  0  0  0  0  0  0  0  0  0  0
  160.9730  205.7260  149.2370 C   0  0  0  0  0  3  0  0  0  0  0  0
  161.4210  204.1240  147.5560 O   0  0  0  0  0  0  0  0  0  0  0  0
  160.7340  203.2370  149.6370 C   0  0  0  0  0  3  0  0  0  0  0  0
  161.0770  204.3490  148.7440 C   0  0  0  0  0  0  0  0  0  0  0  0
  160.4640  203.4730  150.9210 C   0  0  0  0  0  3  0  0  0  0  0  0
  159.7660  213.1360  150.9440 C   0  0  0  0  0  0  0  0  0  0  0  0
  160.1550  213.8670  149.8350 F   0  0  0  0  0  0  0  0  0  0  0  0
  158.4380  212.7760  150.7890 F   0  0  0  0  0  0  0  0  0  0  0  0
  159.8960  213.9370  152.0640 F   0  0  0  0  0  0  0  0  0  0  0  0
  161.6140  206.6530  154.2540 O   0  0  0  0  0  1  0  0  0  0  0  0
  161.9490  206.5470  152.9830 O   0  0  0  0  0  0  0  0  0  0  0  0
  160.0870  211.7680  153.5170 C   0  0  0  0  0  2  0  0  0  0  0  0
  157.7880  212.4210  153.3400 O   0  0  0  0  0  0  0  0  0  0  0  0
  156.6050  212.1620  154.0490 C   0  0  1  0  0  3  0  0  0  0  0  0
  158.3070  210.7870  154.9880 C   0  0  0  0  0  2  0  0  0  0  0  0
  156.9550  211.3640  155.2880 C   0  0  2  0  0  3  0  0  0  0  0  0
  158.6300  211.3290  153.6080 C   0  0  2  0  0  3  0  0  0  0  0  0
  155.9050  213.4640  154.4150 C   0  0  0  0  0  2  0  0  0  0  0  0
  156.3800  213.9550  155.6330 O   0  0  0  0  0  1  0  0  0  0  0  0
  155.9860  210.3500  155.5640 O   0  0  0  0  0  0  0  0  0  0  0  0
  154.9200  210.4910  156.4600 C   0  0  0  0  0  0  0  0  0  0  0  0
  154.9050  211.4700  157.2520 O   0  0  0  0  0  1  0  0  0  0  0  0
  153.8780  209.5720  156.4930 O   0  0  0  0  0  0  0  0  0  0  0  0
  1  3  1  1  0  0  0
  2 10  1  0  0  0  0
  4  1  1  0  0  0  0
  4 26  1  0  0  0  0
  5 25  1  1  0  0  0
  5  3  1  0  0  0  0
  6  8  1  0  0  0  0
  8  2  2  0  0  0  0
  8  9  1  0  0  0  0
  9  1  1  0  0  0  0
 10  4  2  0  0  0  0
 11 14  1  6  0  0  0
 11 12  1  0  0  0  0
 11  5  1  0  0  0  0
 12  7  1  6  0  0  0
 12  9  1  0  0  0  0
 12  5  1  0  0  0  0
 14 13  1  0  0  0  0
 15 14  2  0  0  0  0
 16 18  2  0  0  0  0
 17 19  2  0  0  0  0
 18 15  1  0  0  0  0
 18 17  1  0  0  0  0
 19 13  1  0  0  0  0
 20 10  1  0  0  0  0
 20 23  1  0  0  0  0
 21 20  1  0  0  0  0
 22 20  1  0  0  0  0
 25 24  1  0  0  0  0
 27 31  1  0  0  0  0
 27 28  1  0  0  0  0
 28 32  1  1  0  0  0
 28 30  1  0  0  0  0
 29 30  1  0  0  0  0
 30 34  1  6  0  0  0
 31 26  1  1  0  0  0
 31 29  1  0  0  0  0
 32 33  1  0  0  0  0
 34 35  1  0  0  0  0
 35 37  2  0  0  0  0
 35 36  1  0  0  0  0
M  END
>  <MODEL>
3

>  <REMARK>
 VINA RESULT:      -6.4      3.252      8.764
  Name = 
  8 active torsions:
  status: ('A' for Active; 'I' for Inactive)
    1  A    between atoms: C_3  and  C_30
    2  A    between atoms: C_5  and  C_12
    3  A    between atoms: C_6  and  C_31
    4  A    between atoms: C_11  and  O_26
    5  A    between atoms: C_13  and  C_20
    6  A    between atoms: C_14  and  O_27
    7  A    between atoms: C_20  and  C_36
    8  A    between atoms: O_26  and  C_33
                            x       y       z     vdW  Elec       q    Type
                         _______ _______ _______ _____ _____    ______ ____

>  <TORSDO>
F 8

$$$$
=
 OpenBabel11062409083D

 37 41  0  0  1  0  0  0  0  0999 V2000
  161.2790  209.8260  151.9490 C   0  0  2  0  0  3  0  0  0  0  0  0
  161.5010  211.4750  149.6400 N   0  0  0  0  0  0  0  0  0  0  0  0
  160.5030  208.5880  152.3870 C   0  0  0  0  0  2  0  0  0  0  0  0
  160.3860  211.0330  151.7460 C   0  0  0  0  0  0  0  0  0  0  0  0
  161.0370  207.4270  151.5460 C   0  0  1  0  0  0  0  0  0  0  0  0
  163.0630  210.0600  148.5920 N   0  0  0  0  0  1  0  0  0  0  0  0
  163.3770  207.3340  150.4870 C   0  0  0  0  0  1  0  0  0  0  0  0
  162.1790  210.3700  149.6640 C   0  0  0  0  0  0  0  0  0  0  0  0
  161.9810  209.4430  150.7340 N   0  0  0  0  0  0  0  0  0  0  0  0
  160.5410  211.8210  150.6540 C   0  0  0  0  0  0  0  0  0  0  0  0
  160.7030  207.3620  150.0470 C   0  0  1  0  0  3  0  0  0  0  0  0
  162.0080  208.0090  150.5340 C   0  0  2  0  0  0  0  0  0  0  0  0
  161.1830  205.9060  147.9430 C   0  0  0  0  0  2  0  0  0  0  0  0
  160.9000  206.0040  149.4280 C   0  0  0  0  0  0  0  0  0  0  0  0
  160.5960  204.9140  150.1430 C   0  0  0  0  0  3  0  0  0  0  0  0
  160.3890  202.5590  150.2220 O   0  0  0  0  0  0  0  0  0  0  0  0
  161.2490  203.4290  148.1990 C   0  0  0  0  0  3  0  0  0  0  0  0
  160.7120  203.5750  149.5560 C   0  0  0  0  0  0  0  0  0  0  0  0
  161.4990  204.5110  147.4610 C   0  0  0  0  0  3  0  0  0  0  0  0
  159.7080  213.0610  150.4410 C   0  0  0  0  0  0  0  0  0  0  0  0
  158.3610  212.7610  150.5540 F   0  0  0  0  0  0  0  0  0  0  0  0
  160.0260  214.0150  151.3920 F   0  0  0  0  0  0  0  0  0  0  0  0
  159.9360  213.5770  149.1790 F   0  0  0  0  0  0  0  0  0  0  0  0
  161.4740  206.5660  153.4850 O   0  0  0  0  0  1  0  0  0  0  0  0
  161.5180  206.2810  152.1990 O   0  0  0  0  0  0  0  0  0  0  0  0
  159.4140  211.3970  152.8370 C   0  0  0  0  0  2  0  0  0  0  0  0
  158.7300  210.7140  155.0290 O   0  0  0  0  0  0  0  0  0  0  0  0
  159.2270  210.8570  156.3350 C   0  0  1  0  0  3  0  0  0  0  0  0
  160.8590  211.7600  154.8550 C   0  0  0  0  0  2  0  0  0  0  0  0
  160.4260  211.7800  156.2920 C   0  0  2  0  0  3  0  0  0  0  0  0
  159.8490  210.8450  154.1890 C   0  0  2  0  0  3  0  0  0  0  0  0
  158.1480  211.4020  157.2610 C   0  0  0  0  0  2  0  0  0  0  0  0
  156.9850  211.6960  156.5440 O   0  0  0  0  0  1  0  0  0  0  0  0
  161.4670  211.3490  157.1730 O   0  0  0  0  0  0  0  0  0  0  0  0
  162.5050  210.4820  156.8130 C   0  0  0  0  0  0  0  0  0  0  0  0
  163.6670  210.9410  156.6590 O   0  0  0  0  0  1  0  0  0  0  0  0
  162.2770  209.1250  156.6210 O   0  0  0  0  0  0  0  0  0  0  0  0
  1  3  1  6  0  0  0
  2  8  2  0  0  0  0
  2 10  1  0  0  0  0
  4  1  1  0  0  0  0
  4 26  1  0  0  0  0
  5 25  1  1  0  0  0
  5  3  1  0  0  0  0
  6  8  1  0  0  0  0
  8  9  1  0  0  0  0
  9  1  1  0  0  0  0
 10  4  2  0  0  0  0
 11 14  1  6  0  0  0
 11 12  1  0  0  0  0
 11  5  1  0  0  0  0
 12  7  1  6  0  0  0
 12  9  1  0  0  0  0
 12  5  1  0  0  0  0
 13 14  1  0  0  0  0
 14 15  2  0  0  0  0
 17 18  1  0  0  0  0
 18 15  1  0  0  0  0
 18 16  2  0  0  0  0
 19 13  1  0  0  0  0
 19 17  2  0  0  0  0
 20 21  1  0  0  0  0
 20 10  1  0  0  0  0
 20 22  1  0  0  0  0
 23 20  1  0  0  0  0
 25 24  1  0  0  0  0
 27 28  1  0  0  0  0
 28 32  1  1  0  0  0
 29 30  1  0  0  0  0
 30 28  1  0  0  0  0
 30 34  1  1  0  0  0
 31 26  1  6  0  0  0
 31 29  1  0  0  0  0
 31 27  1  0  0  0  0
 33 32  1  0  0  0  0
 35 34  1  0  0  0  0
 36 35  1  0  0  0  0
 37 35  2  0  0  0  0
M  END
>  <MODEL>
4

>  <REMARK>
 VINA RESULT:      -6.3      3.820      8.600
  Name = 
  8 active torsions:
  status: ('A' for Active; 'I' for Inactive)
    1  A    between atoms: C_3  and  C_30
    2  A    between atoms: C_5  and  C_12
    3  A    between atoms: C_6  and  C_31
    4  A    between atoms: C_11  and  O_26
    5  A    between atoms: C_13  and  C_20
    6  A    between atoms: C_14  and  O_27
    7  A    between atoms: C_20  and  C_36
    8  A    between atoms: O_26  and  C_33
                            x       y       z     vdW  Elec       q    Type
                         _______ _______ _______ _____ _____    ______ ____

>  <TORSDO>
F 8

$$$$
=
 OpenBabel11062409083D

 37 41  0  0  1  0  0  0  0  0999 V2000
  161.3450  210.5950  152.9630 C   0  0  2  0  0  3  0  0  0  0  0  0
  160.3600  208.9790  155.0890 N   0  0  0  0  0  0  0  0  0  0  0  0
  160.8530  211.1230  151.6200 C   0  0  0  0  0  2  0  0  0  0  0  0
  161.5270  209.0910  152.9670 C   0  0  0  0  0  0  0  0  0  0  0  0
  159.7410  212.1250  151.9330 C   0  0  1  0  0  0  0  0  0  0  0  0
  159.2510  210.7700  156.1390 N   0  0  0  0  0  1  0  0  0  0  0  0
  159.5140  213.4250  154.1390 C   0  0  0  0  0  1  0  0  0  0  0  0
  160.0220  210.2300  155.0710 C   0  0  0  0  0  0  0  0  0  0  0  0
  160.3690  211.0400  153.9450 N   0  0  0  0  0  0  0  0  0  0  0  0
  161.0790  208.3520  154.0120 C   0  0  0  0  0  0  0  0  0  0  0  0
  158.3910  211.6150  152.4630 C   0  0  1  0  0  3  0  0  0  0  0  0
  159.4930  212.0720  153.4310 C   0  0  2  0  0  0  0  0  0  0  0  0
  156.3960  212.8980  153.5370 C   0  0  0  0  0  2  0  0  0  0  0  0
  157.2610  212.6020  152.3290 C   0  0  0  0  0  0  0  0  0  0  0  0
  156.9040  213.0180  151.1090 C   0  0  0  0  0  3  0  0  0  0  0  0
  155.4150  214.2830  149.7750 O   0  0  0  0  0  0  0  0  0  0  0  0
  155.0740  214.4530  152.1090 C   0  0  0  0  0  3  0  0  0  0  0  0
  155.7680  213.9280  150.9290 C   0  0  0  0  0  0  0  0  0  0  0  0
  155.3870  214.0000  153.3230 C   0  0  0  0  0  3  0  0  0  0  0  0
  161.2870  206.8590  154.0800 C   0  0  0  0  0  0  0  0  0  0  0  0
  161.3670  206.4440  155.3970 F   0  0  0  0  0  0  0  0  0  0  0  0
  160.2270  206.2040  153.4770 F   0  0  0  0  0  0  0  0  0  0  0  0
  162.4630  206.5130  153.4400 F   0  0  0  0  0  0  0  0  0  0  0  0
  160.3880  213.2970  150.2310 O   0  0  0  0  0  1  0  0  0  0  0  0
  159.8360  213.4290  151.4210 O   0  0  0  0  0  0  0  0  0  0  0  0
  162.3150  208.4600  151.8500 C   0  0  0  0  0  2  0  0  0  0  0  0
  161.1900  206.5440  150.9530 O   0  0  0  0  0  0  0  0  0  0  0  0
  160.9560  206.0140  149.6750 C   0  0  1  0  0  3  0  0  0  0  0  0
  162.0190  208.1240  149.3810 C   0  0  0  0  0  2  0  0  0  0  0  0
  161.7310  206.8370  148.6670 C   0  0  2  0  0  3  0  0  0  0  0  0
  161.4060  207.9180  150.7540 C   0  0  2  0  0  3  0  0  0  0  0  0
  161.3680  204.5490  149.6190 C   0  0  0  0  0  2  0  0  0  0  0  0
  160.5150  203.8270  148.7810 O   0  0  0  0  0  1  0  0  0  0  0  0
  160.9910  207.0440  147.4610 O   0  0  0  0  0  0  0  0  0  0  0  0
  161.0420  206.2030  146.3430 C   0  0  0  0  0  0  0  0  0  0  0  0
  160.1190  206.2560  145.4890 O   0  0  0  0  0  0  0  0  0  0  0  0
  162.0910  205.3110  146.1590 O   0  0  0  0  0  1  0  0  0  0  0  0
  1  3  1  6  0  0  0
  1  4  1  0  0  0  0
  1  9  1  0  0  0  0
  3  5  1  0  0  0  0
  4 10  2  0  0  0  0
  5 25  1  6  0  0  0
  5 11  1  0  0  0  0
  5 12  1  0  0  0  0
  8  2  2  0  0  0  0
  8  6  1  0  0  0  0
  9  8  1  0  0  0  0
 10 20  1  0  0  0  0
 10  2  1  0  0  0  0
 11 14  1  6  0  0  0
 11 12  1  0  0  0  0
 12  9  1  0  0  0  0
 12  7  1  1  0  0  0
 14 13  1  0  0  0  0
 15 14  2  0  0  0  0
 16 18  2  0  0  0  0
 17 19  2  0  0  0  0
 18 15  1  0  0  0  0
 18 17  1  0  0  0  0
 19 13  1  0  0  0  0
 20 21  1  0  0  0  0
 22 20  1  0  0  0  0
 23 20  1  0  0  0  0
 24 25  1  0  0  0  0
 26  4  1  0  0  0  0
 28 32  1  1  0  0  0
 28 27  1  0  0  0  0
 29 31  1  0  0  0  0
 30 34  1  6  0  0  0
 30 29  1  0  0  0  0
 30 28  1  0  0  0  0
 31 27  1  0  0  0  0
 31 26  1  1  0  0  0
 33 32  1  0  0  0  0
 35 34  1  0  0  0  0
 36 35  2  0  0  0  0
 37 35  1  0  0  0  0
M  END
>  <MODEL>
5

>  <REMARK>
 VINA RESULT:      -6.2      1.352      1.725
  Name = 
  8 active torsions:
  status: ('A' for Active; 'I' for Inactive)
    1  A    between atoms: C_3  and  C_30
    2  A    between atoms: C_5  and  C_12
    3  A    between atoms: C_6  and  C_31
    4  A    between atoms: C_11  and  O_26
    5  A    between atoms: C_13  and  C_20
    6  A    between atoms: C_14  and  O_27
    7  A    between atoms: C_20  and  C_36
    8  A    between atoms: O_26  and  C_33
                            x       y       z     vdW  Elec       q    Type
                         _______ _______ _______ _____ _____    ______ ____

>  <TORSDO>
F 8

$$$$
=
 OpenBabel11062409083D

 37 41  0  0  1  0  0  0  0  0999 V2000
  161.4540  208.2950  152.0520 C   0  0  2  0  0  3  0  0  0  0  0  0
  161.5640  206.0610  153.8120 N   0  0  0  0  0  0  0  0  0  0  0  0
  160.4480  209.3640  151.6400 C   0  0  0  0  0  2  0  0  0  0  0  0
  161.0490  206.9070  151.6000 C   0  0  0  0  0  0  0  0  0  0  0  0
  160.2410  210.2550  152.8660 C   0  0  1  0  0  0  0  0  0  0  0  0
  162.1090  207.3730  155.6890 N   0  0  0  0  0  1  0  0  0  0  0  0
  161.9520  210.5720  154.7580 C   0  0  0  0  0  1  0  0  0  0  0  0
  161.7640  207.2390  154.3140 C   0  0  0  0  0  0  0  0  0  0  0  0
  161.5690  208.3970  153.4990 N   0  0  0  0  0  0  0  0  0  0  0  0
  161.1480  205.8560  152.4510 C   0  0  0  0  0  0  0  0  0  0  0  0
  159.4750  209.7060  154.0800 C   0  0  1  0  0  3  0  0  0  0  0  0
  161.0070  209.6270  154.0170 C   0  0  2  0  0  0  0  0  0  0  0  0
  159.4660  210.7810  156.4510 C   0  0  0  0  0  2  0  0  0  0  0  0
  158.9660  210.7650  155.0210 C   0  0  0  0  0  0  0  0  0  0  0  0
  157.9230  211.5170  154.6490 C   0  0  0  0  0  3  0  0  0  0  0  0
  156.3530  213.1920  155.2170 O   0  0  0  0  0  0  0  0  0  0  0  0
  157.9950  212.7490  156.8600 C   0  0  0  0  0  3  0  0  0  0  0  0
  157.3560  212.5160  155.5610 C   0  0  0  0  0  0  0  0  0  0  0  0
  158.9960  211.9660  157.2610 C   0  0  0  0  0  3  0  0  0  0  0  0
  160.8050  204.4500  152.0230 C   0  0  0  0  0  0  0  0  0  0  0  0
  159.7220  204.4600  151.1620 F   0  0  0  0  0  0  0  0  0  0  0  0
  161.8810  203.8780  151.3680 F   0  0  0  0  0  0  0  0  0  0  0  0
  160.4790  203.6830  153.1270 F   0  0  0  0  0  0  0  0  0  0  0  0
  160.8300  211.8260  151.4960 O   0  0  0  0  0  1  0  0  0  0  0  0
  160.4400  211.6400  152.7410 O   0  0  0  0  0  0  0  0  0  0  0  0
  160.6520  206.7090  150.1610 C   0  0  0  0  0  2  0  0  0  0  0  0
  162.1410  206.3520  148.3170 O   0  0  0  0  0  0  0  0  0  0  0  0
  162.4000  205.3090  147.4140 C   0  0  1  0  0  3  0  0  0  0  0  0
  160.8330  204.4890  149.0080 C   0  0  0  0  0  2  0  0  0  0  0  0
  161.3720  204.2190  147.6340 C   0  0  2  0  0  3  0  0  0  0  0  0
  161.5810  205.7330  149.4480 C   0  0  2  0  0  3  0  0  0  0  0  0
  162.3570  205.8220  145.9800 C   0  0  0  0  0  2  0  0  0  0  0  0
  161.0480  206.1380  145.6080 O   0  0  0  0  0  1  0  0  0  0  0  0
  161.9450  202.9130  147.5280 O   0  0  0  0  0  0  0  0  0  0  0  0
  161.3030  201.8080  146.9560 C   0  0  0  0  0  0  0  0  0  0  0  0
  160.6200  201.9640  145.9100 O   0  0  0  0  0  0  0  0  0  0  0  0
  161.4070  200.5420  147.5210 O   0  0  0  0  0  1  0  0  0  0  0  0
  1  3  1  1  0  0  0
  1  9  1  0  0  0  0
  2  8  2  0  0  0  0
  3  5  1  0  0  0  0
  4  1  1  0  0  0  0
  4 10  2  0  0  0  0
  5 25  1  6  0  0  0
  5 12  1  0  0  0  0
  5 11  1  0  0  0  0
  8  6  1  0  0  0  0
  9 12  1  0  0  0  0
  9  8  1  0  0  0  0
 10  2  1  0  0  0  0
 11 14  1  1  0  0  0
 12 11  1  0  0  0  0
 12  7  1  1  0  0  0
 13 19  1  0  0  0  0
 14 13  1  0  0  0  0
 15 14  2  0  0  0  0
 15 18  1  0  0  0  0
 16 18  2  0  0  0  0
 17 19  2  0  0  0  0
 18 17  1  0  0  0  0
 20 10  1  0  0  0  0
 20 23  1  0  0  0  0
 21 20  1  0  0  0  0
 22 20  1  0  0  0  0
 24 25  1  0  0  0  0
 26  4  1  0  0  0  0
 27 31  1  0  0  0  0
 28 32  1  6  0  0  0
 28 30  1  0  0  0  0
 28 27  1  0  0  0  0
 29 31  1  0  0  0  0
 30 34  1  1  0  0  0
 30 29  1  0  0  0  0
 31 26  1  6  0  0  0
 33 32  1  0  0  0  0
 35 37  1  0  0  0  0
 35 34  1  0  0  0  0
 36 35  2  0  0  0  0
M  END
>  <MODEL>
6

>  <REMARK>
 VINA RESULT:      -5.5      1.962      3.059
  Name = 
  8 active torsions:
  status: ('A' for Active; 'I' for Inactive)
    1  A    between atoms: C_3  and  C_30
    2  A    between atoms: C_5  and  C_12
    3  A    between atoms: C_6  and  C_31
    4  A    between atoms: C_11  and  O_26
    5  A    between atoms: C_13  and  C_20
    6  A    between atoms: C_14  and  O_27
    7  A    between atoms: C_20  and  C_36
    8  A    between atoms: O_26  and  C_33
                            x       y       z     vdW  Elec       q    Type
                         _______ _______ _______ _____ _____    ______ ____

>  <TORSDO>
F 8

$$$$
=
 OpenBabel11062409083D

 37 41  0  0  1  0  0  0  0  0999 V2000
  160.7290  207.7390  151.4980 C   0  0  2  0  0  3  0  0  0  0  0  0
  161.6760  209.5600  149.5250 N   0  0  0  0  0  0  0  0  0  0  0  0
  161.1180  207.2850  152.9010 C   0  0  0  0  0  2  0  0  0  0  0  0
  161.7370  207.3190  150.4480 C   0  0  0  0  0  0  0  0  0  0  0  0
  160.8820  208.4840  153.8210 C   0  0  1  0  0  0  0  0  0  0  0  0
  160.5780  211.4070  150.4850 N   0  0  0  0  0  1  0  0  0  0  0  0
  159.2190  210.3890  153.3550 C   0  0  0  0  0  1  0  0  0  0  0  0
  160.9470  210.0320  150.4880 C   0  0  0  0  0  0  0  0  0  0  0  0
  160.5770  209.1830  151.5770 N   0  0  0  0  0  0  0  0  0  0  0  0
  162.1410  208.1980  149.4990 C   0  0  0  0  0  0  0  0  0  0  0  0
  161.8150  209.7030  153.7300 C   0  0  1  0  0  3  0  0  0  0  0  0
  160.4970  209.6610  152.9420 C   0  0  2  0  0  0  0  0  0  0  0  0
  162.6770  210.3170  156.1080 C   0  0  0  0  0  2  0  0  0  0  0  0
  161.7670  210.6090  154.9320 C   0  0  0  0  0  0  0  0  0  0  0  0
  160.7760  211.5010  155.0340 C   0  0  0  0  0  3  0  0  0  0  0  0
  159.7000  213.1670  156.3230 O   0  0  0  0  0  0  0  0  0  0  0  0
  161.6860  212.2910  157.2610 C   0  0  0  0  0  3  0  0  0  0  0  0
  160.6560  212.3580  156.2190 C   0  0  0  0  0  0  0  0  0  0  0  0
  162.6430  211.3660  157.1940 C   0  0  0  0  0  3  0  0  0  0  0  0
  163.1030  207.8040  148.4050 C   0  0  0  0  0  0  0  0  0  0  0  0
  164.2090  207.1690  148.9430 F   0  0  0  0  0  0  0  0  0  0  0  0
  162.4860  206.9370  147.5210 F   0  0  0  0  0  0  0  0  0  0  0  0
  163.5330  208.9270  147.7220 F   0  0  0  0  0  0  0  0  0  0  0  0
  160.1000  207.0390  155.2320 O   0  0  0  0  0  1  0  0  0  0  0  0
  160.0580  208.3250  154.9470 O   0  0  0  0  0  0  0  0  0  0  0  0
  162.1820  205.8810  150.4160 C   0  0  0  0  0  2  0  0  0  0  0  0
  160.8890  203.8690  150.5700 O   0  0  0  0  0  0  0  0  0  0  0  0
  160.5050  202.8430  149.6920 C   0  0  1  0  0  3  0  0  0  0  0  0
  161.6280  204.4970  148.3980 C   0  0  0  0  0  2  0  0  0  0  0  0
  161.2130  203.0560  148.3700 C   0  0  2  0  0  3  0  0  0  0  0  0
  161.1450  204.9830  149.7520 C   0  0  2  0  0  3  0  0  0  0  0  0
  160.8430  201.4800  150.2820 C   0  0  0  0  0  2  0  0  0  0  0  0
  161.3010  200.6110  149.2890 O   0  0  0  0  0  1  0  0  0  0  0  0
  160.3670  202.7610  147.2560 O   0  0  0  0  0  0  0  0  0  0  0  0
  160.8230  202.5240  145.9530 C   0  0  0  0  0  0  0  0  0  0  0  0
  161.6680  203.3050  145.4430 O   0  0  0  0  0  1  0  0  0  0  0  0
  160.3590  201.4430  145.2130 O   0  0  0  0  0  0  0  0  0  0  0  0
  1  9  1  0  0  0  0
  1  3  1  1  0  0  0
  2  8  2  0  0  0  0
  3  5  1  0  0  0  0
  4  1  1  0  0  0  0
  5 25  1  1  0  0  0
  6  8  1  0  0  0  0
  8  9  1  0  0  0  0
  9 12  1  0  0  0  0
 10  2  1  0  0  0  0
 10  4  2  0  0  0  0
 11  5  1  0  0  0  0
 11 14  1  1  0  0  0
 12  7  1  1  0  0  0
 12 11  1  0  0  0  0
 12  5  1  0  0  0  0
 13 19  1  0  0  0  0
 14 15  2  0  0  0  0
 14 13  1  0  0  0  0
 15 18  1  0  0  0  0
 18 16  2  0  0  0  0
 18 17  1  0  0  0  0
 19 17  2  0  0  0  0
 20 21  1  0  0  0  0
 20 10  1  0  0  0  0
 22 20  1  0  0  0  0
 23 20  1  0  0  0  0
 25 24  1  0  0  0  0
 26  4  1  0  0  0  0
 28 32  1  1  0  0  0
 28 27  1  0  0  0  0
 29 31  1  0  0  0  0
 30 34  1  6  0  0  0
 30 29  1  0  0  0  0
 30 28  1  0  0  0  0
 31 26  1  1  0  0  0
 31 27  1  0  0  0  0
 33 32  1  0  0  0  0
 35 34  1  0  0  0  0
 36 35  1  0  0  0  0
 37 35  2  0  0  0  0
M  END
>  <MODEL>
7

>  <REMARK>
 VINA RESULT:      -4.3      3.152      4.660
  Name = 
  8 active torsions:
  status: ('A' for Active; 'I' for Inactive)
    1  A    between atoms: C_3  and  C_30
    2  A    between atoms: C_5  and  C_12
    3  A    between atoms: C_6  and  C_31
    4  A    between atoms: C_11  and  O_26
    5  A    between atoms: C_13  and  C_20
    6  A    between atoms: C_14  and  O_27
    7  A    between atoms: C_20  and  C_36
    8  A    between atoms: O_26  and  C_33
                            x       y       z     vdW  Elec       q    Type
                         _______ _______ _______ _____ _____    ______ ____

>  <TORSDO>
F 8

$$$$
=
 OpenBabel11062409083D

 37 41  0  0  1  0  0  0  0  0999 V2000
  161.0240  209.1750  152.7200 C   0  0  2  0  0  3  0  0  0  0  0  0
  161.5870  207.1660  154.6560 N   0  0  0  0  0  0  0  0  0  0  0  0
  159.8260  209.9950  152.2530 C   0  0  0  0  0  2  0  0  0  0  0  0
  160.8840  207.7020  152.3980 C   0  0  0  0  0  0  0  0  0  0  0  0
  159.4740  210.9360  153.4070 C   0  0  1  0  0  0  0  0  0  0  0  0
  161.9030  208.7170  156.3970 N   0  0  0  0  0  1  0  0  0  0  0  0
  161.1250  211.7340  155.2090 C   0  0  0  0  0  1  0  0  0  0  0  0
  161.5670  208.4000  155.0500 C   0  0  0  0  0  0  0  0  0  0  0  0
  161.1420  209.4240  154.1480 N   0  0  0  0  0  0  0  0  0  0  0  0
  161.1950  206.7670  153.3300 C   0  0  0  0  0  0  0  0  0  0  0  0
  158.8470  210.3610  154.6880 C   0  0  1  0  0  3  0  0  0  0  0  0
  160.3650  210.5670  154.5800 C   0  0  2  0  0  0  0  0  0  0  0  0
  158.9820  212.5020  156.1620 C   0  0  0  0  0  2  0  0  0  0  0  0
  158.1610  211.3840  155.5530 C   0  0  0  0  0  0  0  0  0  0  0  0
  156.9030  211.1600  155.9520 C   0  0  0  0  0  3  0  0  0  0  0  0
  155.0520  211.8620  157.2470 O   0  0  0  0  0  0  0  0  0  0  0  0
  156.8980  213.3400  157.2390 C   0  0  0  0  0  3  0  0  0  0  0  0
  156.2210  212.1000  156.8480 C   0  0  0  0  0  0  0  0  0  0  0  0
  158.1700  213.5430  156.8940 C   0  0  0  0  0  3  0  0  0  0  0  0
  161.1190  205.2900  153.0330 C   0  0  0  0  0  0  0  0  0  0  0  0
  161.1510  204.5600  154.2080 F   0  0  0  0  0  0  0  0  0  0  0  0
  159.9400  204.9990  152.3680 F   0  0  0  0  0  0  0  0  0  0  0  0
  162.1930  204.9060  152.2500 F   0  0  0  0  0  0  0  0  0  0  0  0
  159.0390  212.4290  151.8990 O   0  0  0  0  0  1  0  0  0  0  0  0
  159.4040  212.3170  153.1610 O   0  0  0  0  0  0  0  0  0  0  0  0
  160.5080  207.3060  150.9950 C   0  0  0  0  0  2  0  0  0  0  0  0
  162.2460  208.4210  149.7780 O   0  0  0  0  0  0  0  0  0  0  0  0
  162.8710  208.2610  148.5310 C   0  0  1  0  0  3  0  0  0  0  0  0
  161.3910  206.4180  148.8220 C   0  0  0  0  0  2  0  0  0  0  0  0
  162.1410  207.1770  147.7660 C   0  0  2  0  0  3  0  0  0  0  0  0
  161.7350  207.1530  150.1040 C   0  0  2  0  0  3  0  0  0  0  0  0
  162.8660  209.5740  147.7590 C   0  0  0  0  0  2  0  0  0  0  0  0
  162.0250  210.5050  148.3730 O   0  0  0  0  0  1  0  0  0  0  0  0
  163.0400  206.3380  147.0370 O   0  0  0  0  0  0  0  0  0  0  0  0
  162.6430  205.3500  146.1280 C   0  0  0  0  0  0  0  0  0  0  0  0
  162.3470  204.2030  146.5530 O   0  0  0  0  0  1  0  0  0  0  0  0
  162.5710  205.6110  144.7640 O   0  0  0  0  0  0  0  0  0  0  0  0
  1  3  1  1  0  0  0
  1  9  1  0  0  0  0
  2  8  2  0  0  0  0
  3  5  1  0  0  0  0
  4  1  1  0  0  0  0
  4 10  2  0  0  0  0
  5 25  1  6  0  0  0
  5 12  1  0  0  0  0
  5 11  1  0  0  0  0
  8  6  1  0  0  0  0
  9 12  1  0  0  0  0
  9  8  1  0  0  0  0
 10  2  1  0  0  0  0
 11 14  1  1  0  0  0
 12 11  1  0  0  0  0
 12  7  1  1  0  0  0
 13 19  1  0  0  0  0
 14 15  2  0  0  0  0
 14 13  1  0  0  0  0
 15 18  1  0  0  0  0
 18 17  1  0  0  0  0
 18 16  2  0  0  0  0
 19 17  2  0  0  0  0
 20 10  1  0  0  0  0
 20 21  1  0  0  0  0
 22 20  1  0  0  0  0
 23 20  1  0  0  0  0
 24 25  1  0  0  0  0
 26  4  1  0  0  0  0
 27 31  1  0  0  0  0
 28 32  1  6  0  0  0
 28 27  1  0  0  0  0
 29 31  1  0  0  0  0
 30 34  1  1  0  0  0
 30 28  1  0  0  0  0
 30 29  1  0  0  0  0
 31 26  1  1  0  0  0
 32 33  1  0  0  0  0
 35 36  1  0  0  0  0
 35 34  1  0  0  0  0
 37 35  2  0  0  0  0
M  END
>  <MODEL>
8

>  <REMARK>
 VINA RESULT:      -4.3      2.042      2.735
  Name = 
  8 active torsions:
  status: ('A' for Active; 'I' for Inactive)
    1  A    between atoms: C_3  and  C_30
    2  A    between atoms: C_5  and  C_12
    3  A    between atoms: C_6  and  C_31
    4  A    between atoms: C_11  and  O_26
    5  A    between atoms: C_13  and  C_20
    6  A    between atoms: C_14  and  O_27
    7  A    between atoms: C_20  and  C_36
    8  A    between atoms: O_26  and  C_33
                            x       y       z     vdW  Elec       q    Type
                         _______ _______ _______ _____ _____    ______ ____

>  <TORSDO>
F 8

$$$$
=
 OpenBabel11062409083D

 37 41  0  0  1  0  0  0  0  0999 V2000
  161.9310  209.9040  151.6890 C   0  0  2  0  0  3  0  0  0  0  0  0
  161.2280  207.1460  151.7060 N   0  0  0  0  0  0  0  0  0  0  0  0
  161.2270  211.2520  151.5760 C   0  0  0  0  0  2  0  0  0  0  0  0
  161.8550  209.0970  150.4100 C   0  0  0  0  0  0  0  0  0  0  0  0
  160.4060  211.4170  152.8560 C   0  0  1  0  0  0  0  0  0  0  0  0
  160.7190  207.1330  154.0040 N   0  0  0  0  0  1  0  0  0  0  0  0
  160.9350  210.2760  155.0980 C   0  0  0  0  0  1  0  0  0  0  0  0
  161.1100  207.8090  152.8130 C   0  0  0  0  0  0  0  0  0  0  0  0
  161.3070  209.2250  152.8140 N   0  0  0  0  0  0  0  0  0  0  0  0
  161.5530  207.7760  150.4530 C   0  0  0  0  0  0  0  0  0  0  0  0
  159.1560  210.5470  153.0710 C   0  0  1  0  0  3  0  0  0  0  0  0
  160.5190  210.1190  153.6370 C   0  0  2  0  0  0  0  0  0  0  0  0
  158.2790  210.5110  155.5210 C   0  0  0  0  0  2  0  0  0  0  0  0
  158.2090  211.0730  154.1160 C   0  0  0  0  0  0  0  0  0  0  0  0
  157.1850  211.8460  153.7360 C   0  0  0  0  0  3  0  0  0  0  0  0
  155.2240  213.0200  154.3410 O   0  0  0  0  0  0  0  0  0  0  0  0
  156.3980  212.0230  156.1350 C   0  0  0  0  0  3  0  0  0  0  0  0
  156.2030  212.3260  154.7130 C   0  0  0  0  0  0  0  0  0  0  0  0
  157.3810  211.2070  156.5150 C   0  0  0  0  0  3  0  0  0  0  0  0
  161.5190  206.9250  149.2080 C   0  0  0  0  0  0  0  0  0  0  0  0
  161.1100  205.6390  149.5150 F   0  0  0  0  0  0  0  0  0  0  0  0
  160.6310  207.4600  148.2920 F   0  0  0  0  0  0  0  0  0  0  0  0
  162.7790  206.8590  148.6410 F   0  0  0  0  0  0  0  0  0  0  0  0
  160.0520  213.5520  152.9490 O   0  0  0  0  0  1  0  0  0  0  0  0
  160.5920  212.5670  153.6400 O   0  0  0  0  0  0  0  0  0  0  0  0
  162.2350  209.7660  149.1160 C   0  0  0  0  0  2  0  0  0  0  0  0
  160.9960  210.9140  147.4160 O   0  0  0  0  0  0  0  0  0  0  0  0
  160.7440  212.2530  147.0780 C   0  0  1  0  0  3  0  0  0  0  0  0
  161.9510  212.2580  149.1300 C   0  0  0  0  0  2  0  0  0  0  0  0
  161.5870  213.1380  147.9710 C   0  0  2  0  0  3  0  0  0  0  0  0
  161.3070  210.9280  148.7860 C   0  0  2  0  0  3  0  0  0  0  0  0
  161.0570  212.5000  145.6070 C   0  0  0  0  0  2  0  0  0  0  0  0
  159.9910  212.0960  144.8010 O   0  0  0  0  0  1  0  0  0  0  0  0
  160.8790  214.3090  148.3860 O   0  0  0  0  0  0  0  0  0  0  0  0
  159.4860  214.4070  148.4750 C   0  0  0  0  0  0  0  0  0  0  0  0
  158.8020  214.4530  147.4190 O   0  0  0  0  0  0  0  0  0  0  0  0
  158.8430  214.4530  149.7060 O   0  0  0  0  0  1  0  0  0  0  0  0
  1  3  1  6  0  0  0
  1  9  1  0  0  0  0
  2  8  2  0  0  0  0
  3  5  1  0  0  0  0
  4 10  2  0  0  0  0
  4  1  1  0  0  0  0
  5 11  1  0  0  0  0
  5 12  1  0  0  0  0
  5 25  1  1  0  0  0
  8  9  1  0  0  0  0
  8  6  1  0  0  0  0
  9 12  1  0  0  0  0
 10  2  1  0  0  0  0
 11 12  1  0  0  0  0
 11 14  1  1  0  0  0
 12  7  1  1  0  0  0
 13 19  1  0  0  0  0
 14 13  1  0  0  0  0
 15 14  2  0  0  0  0
 15 18  1  0  0  0  0
 16 18  2  0  0  0  0
 17 19  2  0  0  0  0
 18 17  1  0  0  0  0
 20 21  1  0  0  0  0
 20 10  1  0  0  0  0
 22 20  1  0  0  0  0
 23 20  1  0  0  0  0
 24 25  1  0  0  0  0
 26  4  1  0  0  0  0
 27 31  1  0  0  0  0
 28 32  1  6  0  0  0
 28 27  1  0  0  0  0
 28 30  1  0  0  0  0
 30 34  1  1  0  0  0
 30 29  1  0  0  0  0
 31 26  1  6  0  0  0
 31 29  1  0  0  0  0
 33 32  1  0  0  0  0
 34 35  1  0  0  0  0
 35 37  1  0  0  0  0
 36 35  2  0  0  0  0
M  END
>  <MODEL>
9

>  <REMARK>
 VINA RESULT:      -4.2      2.845      4.832
  Name = 
  8 active torsions:
  status: ('A' for Active; 'I' for Inactive)
    1  A    between atoms: C_3  and  C_30
    2  A    between atoms: C_5  and  C_12
    3  A    between atoms: C_6  and  C_31
    4  A    between atoms: C_11  and  O_26
    5  A    between atoms: C_13  and  C_20
    6  A    between atoms: C_14  and  O_27
    7  A    between atoms: C_20  and  C_36
    8  A    between atoms: O_26  and  C_33
                            x       y       z     vdW  Elec       q    Type
                         _______ _______ _______ _____ _____    ______ ____

>  <TORSDO>
F 8

$$$$
