=
 OpenBabel11052421513D

 30 35  0  0  1  0  0  0  0  0999 V2000
  160.7750  207.9740  151.3600 C   0  0  1  0  0  3  0  0  0  0  0  0
  161.2800  205.7140  150.2690 C   0  0  0  0  0  0  0  0  0  0  0  0
  161.6580  206.4130  155.0320 C   0  0  0  0  0  2  0  0  0  0  0  0
  160.9140  208.7170  152.6980 C   0  0  1  0  0  3  0  0  0  0  0  0
  161.6270  208.6080  150.4080 O   0  0  0  0  0  0  0  0  0  0  0  0
  160.7370  212.0520  151.0800 O   0  0  0  0  0  0  0  0  0  0  0  0
  159.5140  210.8220  154.8180 C   0  0  1  0  0  3  0  0  0  0  0  0
  160.9350  210.8200  151.2630 C   0  0  0  0  0  0  0  0  0  0  0  0
  162.3060  210.4910  149.2000 C   0  0  0  0  0  3  0  0  0  0  0  0
  159.7840  209.6340  155.7460 C   0  0  2  0  0  3  0  0  0  0  0  0
  161.4230  207.6530  155.7880 C   0  0  0  0  0  0  0  0  0  0  0  0
  161.6360  209.9940  150.2470 C   0  0  0  0  0  0  0  0  0  0  0  0
  160.3830  210.1590  152.5070 C   0  0  2  0  0  3  0  0  0  0  0  0
  161.4990  204.3770  150.3720 N   0  0  0  0  0  0  0  0  0  0  0  0
  160.4390  210.2360  156.9720 C   0  0  0  0  0  2  0  0  0  0  0  0
  159.4110  212.0430  155.7200 C   0  0  0  0  0  2  0  0  0  0  0  0
  161.2170  206.3970  148.6490 Cl  0  0  0  0  0  0  0  0  0  0  0  0
  160.5920  206.5100  153.9460 C   0  0  1  0  0  3  0  0  0  0  0  0
  161.4810  203.7310  151.5630 C   0  0  0  0  0  3  0  0  0  0  0  0
  161.0620  206.4900  151.4370 C   0  0  0  0  0  0  0  0  0  0  0  0
  160.1810  207.9940  153.8340 C   0  0  1  0  0  3  0  0  0  0  0  0
  161.9280  207.8700  156.9200 O   0  0  0  0  0  0  0  0  0  0  0  0
  160.5830  208.5800  155.1070 N   0  0  0  0  0  0  0  0  0  0  0  0
  159.8060  211.6030  157.1180 C   0  0  0  0  0  2  0  0  0  0  0  0
  162.0140  211.1320  154.2310 C   0  0  0  0  0  1  0  0  0  0  0  0
  161.2080  204.4360  152.7290 C   0  0  0  0  0  3  0  0  0  0  0  0
  160.9860  205.8150  152.6740 C   0  0  0  0  0  0  0  0  0  0  0  0
  160.5720  211.0700  153.7290 C   0  0  2  0  0  3  0  0  0  0  0  0
  161.5580  212.2640  147.6550 C   0  0  0  0  0  1  0  0  0  0  0  0
  162.4310  211.9390  148.8530 C   0  0  0  0  0  2  0  0  0  0  0  0
  1  5  1  6  0  0  0
  1 20  1  0  0  0  0
  1  4  1  0  0  0  0
  2 14  2  0  0  0  0
  2 20  1  0  0  0  0
  3 11  1  0  0  0  0
  4 21  1  0  0  0  0
  6  8  2  0  0  0  0
  7 16  1  0  0  0  0
  7 10  1  0  0  0  0
  8 13  1  0  0  0  0
  9 12  2  0  0  0  0
 10 15  1  0  0  0  0
 11 22  2  0  0  0  0
 12  5  1  0  0  0  0
 12  8  1  0  0  0  0
 13  4  1  0  0  0  0
 13 28  1  0  0  0  0
 14 19  1  0  0  0  0
 15 24  1  0  0  0  0
 16 24  1  0  0  0  0
 17  2  1  0  0  0  0
 18  3  1  0  0  0  0
 19 26  2  0  0  0  0
 20 27  2  0  0  0  0
 21 18  1  0  0  0  0
 21 23  1  0  0  0  0
 23 10  1  0  0  0  0
 23 11  1  0  0  0  0
 27 26  1  0  0  0  0
 27 18  1  0  0  0  0
 28 25  1  0  0  0  0
 28  7  1  0  0  0  0
 29 30  1  0  0  0  0
 30  9  1  0  0  0  0
M  END
>  <MODEL>
1

>  <REMARK>
 VINA RESULT:      -6.1      0.000      0.000
  Name = 
  1 active torsions:
  status: ('A' for Active; 'I' for Inactive)
    1  A    between atoms: C_9  and  C_21
                            x       y       z     vdW  Elec       q    Type
                         _______ _______ _______ _____ _____    ______ ____

>  <TORSDO>
F 1

$$$$
=
 OpenBabel11052421513D

 30 35  0  0  1  0  0  0  0  0999 V2000
  160.0980  212.1770  152.0110 C   0  0  1  0  0  3  0  0  0  0  0  0
  160.8170  212.4860  149.5740 C   0  0  0  0  0  0  0  0  0  0  0  0
  156.6560  214.2550  151.2710 C   0  0  0  0  0  2  0  0  0  0  0  0
  158.8830  212.3610  152.9350 C   0  0  1  0  0  3  0  0  0  0  0  0
  160.3630  210.7810  151.8980 O   0  0  0  0  0  0  0  0  0  0  0  0
  160.1490  209.8930  155.4010 O   0  0  0  0  0  0  0  0  0  0  0  0
  157.8350  213.2620  155.9300 C   0  0  1  0  0  3  0  0  0  0  0  0
  159.9460  210.5060  154.3170 C   0  0  0  0  0  0  0  0  0  0  0  0
  160.8770  208.7090  152.8510 C   0  0  0  0  0  3  0  0  0  0  0  0
  156.9780  214.1780  155.0510 C   0  0  2  0  0  3  0  0  0  0  0  0
  156.1080  214.1360  152.6310 C   0  0  0  0  0  0  0  0  0  0  0  0
  160.4220  209.9560  153.0220 C   0  0  0  0  0  0  0  0  0  0  0  0
  159.2720  211.8600  154.3480 C   0  0  2  0  0  3  0  0  0  0  0  0
  160.6730  213.1000  148.3690 N   0  0  0  0  0  0  0  0  0  0  0  0
  155.5690  214.0280  155.5880 C   0  0  0  0  0  2  0  0  0  0  0  0
  157.0930  213.1370  157.2530 C   0  0  0  0  0  2  0  0  0  0  0  0
  162.1500  211.3500  149.7440 Cl  0  0  0  0  0  0  0  0  0  0  0  0
  158.1500  214.3820  151.5530 C   0  0  1  0  0  3  0  0  0  0  0  0
  159.7370  214.0550  148.1520 C   0  0  0  0  0  3  0  0  0  0  0  0
  159.9440  212.8100  150.6440 C   0  0  0  0  0  0  0  0  0  0  0  0
  158.4020  213.8170  152.9670 C   0  0  1  0  0  3  0  0  0  0  0  0
  154.8810  214.2460  152.8860 O   0  0  0  0  0  0  0  0  0  0  0  0
  157.1000  213.8710  153.6190 N   0  0  0  0  0  0  0  0  0  0  0  0
  155.7420  213.8060  157.0740 C   0  0  0  0  0  2  0  0  0  0  0  0
  156.8800  211.0990  154.8810 C   0  0  0  0  0  1  0  0  0  0  0  0
  158.9000  214.4530  149.1880 C   0  0  0  0  0  3  0  0  0  0  0  0
  159.0040  213.8440  150.4410 C   0  0  0  0  0  0  0  0  0  0  0  0
  158.1160  211.8620  155.3590 C   0  0  2  0  0  3  0  0  0  0  0  0
  161.1850  206.3040  153.3070 C   0  0  0  0  0  1  0  0  0  0  0  0
  161.0200  207.6790  153.9250 C   0  0  0  0  0  2  0  0  0  0  0  0
  1 20  1  6  0  0  0
  1  4  1  0  0  0  0
  2 17  1  0  0  0  0
  2 20  1  0  0  0  0
  3 18  1  0  0  0  0
  3 11  1  0  0  0  0
  4 21  1  0  0  0  0
  4 13  1  0  0  0  0
  5  1  1  0  0  0  0
  5 12  1  0  0  0  0
  7 16  1  0  0  0  0
  8 13  1  0  0  0  0
  8  6  2  0  0  0  0
  9 12  2  0  0  0  0
  9 30  1  0  0  0  0
 10 15  1  0  0  0  0
 10  7  1  0  0  0  0
 11 22  2  0  0  0  0
 11 23  1  0  0  0  0
 12  8  1  0  0  0  0
 13 28  1  0  0  0  0
 14  2  2  0  0  0  0
 15 24  1  0  0  0  0
 18 21  1  0  0  0  0
 19 14  1  0  0  0  0
 19 26  2  0  0  0  0
 21 23  1  0  0  0  0
 23 10  1  0  0  0  0
 24 16  1  0  0  0  0
 25 28  1  0  0  0  0
 26 27  1  0  0  0  0
 27 20  2  0  0  0  0
 27 18  1  0  0  0  0
 28  7  1  0  0  0  0
 29 30  1  0  0  0  0
M  END
>  <MODEL>
2

>  <REMARK>
 VINA RESULT:      -6.0      3.658      6.640
  Name = 
  1 active torsions:
  status: ('A' for Active; 'I' for Inactive)
    1  A    between atoms: C_9  and  C_21
                            x       y       z     vdW  Elec       q    Type
                         _______ _______ _______ _____ _____    ______ ____

>  <TORSDO>
F 1

$$$$
=
 OpenBabel11052421513D

 30 35  0  0  1  0  0  0  0  0999 V2000
  161.9600  208.3580  151.6480 C   0  0  1  0  0  3  0  0  0  0  0  0
  161.4510  208.7710  154.1220 C   0  0  0  0  0  0  0  0  0  0  0  0
  160.1580  204.6960  151.8760 C   0  0  0  0  0  2  0  0  0  0  0  0
  161.6250  207.3920  150.5000 C   0  0  1  0  0  3  0  0  0  0  0  0
  161.4020  209.6320  151.3340 O   0  0  0  0  0  0  0  0  0  0  0  0
  162.5020  209.8860  147.8950 O   0  0  0  0  0  0  0  0  0  0  0  0
  162.7690  205.7740  147.8630 C   0  0  1  0  0  3  0  0  0  0  0  0
  162.1370  209.3770  148.9900 C   0  0  0  0  0  0  0  0  0  0  0  0
  161.2030  211.4940  149.9340 C   0  0  0  0  0  3  0  0  0  0  0  0
  162.1820  204.6100  148.6680 C   0  0  2  0  0  3  0  0  0  0  0  0
  160.3630  204.3350  150.4650 C   0  0  0  0  0  0  0  0  0  0  0  0
  161.5780  210.2170  150.0800 C   0  0  0  0  0  0  0  0  0  0  0  0
  162.3390  207.8960  149.2220 C   0  0  2  0  0  3  0  0  0  0  0  0
  161.0690  208.3090  155.3420 N   0  0  0  0  0  0  0  0  0  0  0  0
  161.3540  203.8250  147.6710 C   0  0  0  0  0  2  0  0  0  0  0  0
  162.8140  205.3030  146.4170 C   0  0  0  0  0  2  0  0  0  0  0  0
  161.9270  210.4620  154.0160 Cl  0  0  0  0  0  0  0  0  0  0  0  0
  161.4330  205.4760  152.1800 C   0  0  1  0  0  3  0  0  0  0  0  0
  160.7660  207.0060  155.5580 C   0  0  0  0  0  3  0  0  0  0  0  0
  161.5020  207.8890  153.0130 C   0  0  0  0  0  0  0  0  0  0  0  0
  162.0180  205.9480  150.8330 C   0  0  1  0  0  3  0  0  0  0  0  0
  159.6580  203.4800  149.8680 O   0  0  0  0  0  0  0  0  0  0  0  0
  161.4240  205.0560  149.8450 N   0  0  0  0  0  0  0  0  0  0  0  0
  162.0880  203.9700  146.3570 C   0  0  0  0  0  2  0  0  0  0  0  0
  160.4990  206.9970  147.6770 C   0  0  0  0  0  1  0  0  0  0  0  0
  160.8630  206.0900  154.5170 C   0  0  0  0  0  3  0  0  0  0  0  0
  161.2410  206.5210  153.2430 C   0  0  0  0  0  0  0  0  0  0  0  0
  161.9990  207.1010  147.9520 C   0  0  2  0  0  3  0  0  0  0  0  0
  161.1620  213.7730  148.9900 C   0  0  0  0  0  1  0  0  0  0  0  0
  161.3140  212.2970  148.6780 C   0  0  0  0  0  2  0  0  0  0  0  0
  1  5  1  6  0  0  0
  1 20  1  0  0  0  0
  2 14  1  0  0  0  0
  3 18  1  0  0  0  0
  4 21  1  0  0  0  0
  4  1  1  0  0  0  0
  6  8  2  0  0  0  0
  7 28  1  0  0  0  0
  7 10  1  0  0  0  0
  8 13  1  0  0  0  0
  8 12  1  0  0  0  0
  9 12  2  0  0  0  0
 10 23  1  0  0  0  0
 11  3  1  0  0  0  0
 12  5  1  0  0  0  0
 13  4  1  0  0  0  0
 14 19  2  0  0  0  0
 15 10  1  0  0  0  0
 16  7  1  0  0  0  0
 17  2  1  0  0  0  0
 18 27  1  0  0  0  0
 20 27  1  0  0  0  0
 20  2  2  0  0  0  0
 21 18  1  0  0  0  0
 22 11  2  0  0  0  0
 23 11  1  0  0  0  0
 23 21  1  0  0  0  0
 24 16  1  0  0  0  0
 24 15  1  0  0  0  0
 25 28  1  0  0  0  0
 26 19  1  0  0  0  0
 27 26  2  0  0  0  0
 28 13  1  0  0  0  0
 30 29  1  0  0  0  0
 30  9  1  0  0  0  0
M  END
>  <MODEL>
3

>  <REMARK>
 VINA RESULT:      -5.4      2.546      6.157
  Name = 
  1 active torsions:
  status: ('A' for Active; 'I' for Inactive)
    1  A    between atoms: C_9  and  C_21
                            x       y       z     vdW  Elec       q    Type
                         _______ _______ _______ _____ _____    ______ ____

>  <TORSDO>
F 1

$$$$
=
 OpenBabel11052421513D

 30 35  0  0  1  0  0  0  0  0999 V2000
  161.1840  210.6910  151.6340 C   0  0  1  0  0  3  0  0  0  0  0  0
  161.6820  210.9800  149.1410 C   0  0  0  0  0  0  0  0  0  0  0  0
  158.2800  213.5570  151.3990 C   0  0  0  0  0  2  0  0  0  0  0  0
  160.1590  211.0940  152.7070 C   0  0  1  0  0  3  0  0  0  0  0  0
  161.0940  209.2810  151.4390 O   0  0  0  0  0  0  0  0  0  0  0  0
  161.0620  208.2440  154.9070 O   0  0  0  0  0  0  0  0  0  0  0  0
  159.6950  212.0180  155.8390 C   0  0  1  0  0  3  0  0  0  0  0  0
  160.8930  208.9560  153.8800 C   0  0  0  0  0  0  0  0  0  0  0  0
  161.1990  207.0900  152.2460 C   0  0  0  0  0  3  0  0  0  0  0  0
  158.9900  213.1640  155.1050 C   0  0  2  0  0  3  0  0  0  0  0  0
  157.8730  213.4820  152.8110 C   0  0  0  0  0  0  0  0  0  0  0  0
  161.0770  208.3950  152.5170 C   0  0  0  0  0  0  0  0  0  0  0  0
  160.5700  210.4250  154.0420 C   0  0  2  0  0  3  0  0  0  0  0  0
  161.5570  211.6870  147.9860 N   0  0  0  0  0  0  0  0  0  0  0  0
  157.6540  213.3130  155.8060 C   0  0  0  0  0  2  0  0  0  0  0  0
  159.0960  211.9850  157.2370 C   0  0  0  0  0  2  0  0  0  0  0  0
  162.7140  209.5560  149.1040 Cl  0  0  0  0  0  0  0  0  0  0  0  0
  159.7820  213.3140  151.5000 C   0  0  1  0  0  3  0  0  0  0  0  0
  160.8590  212.8460  147.9200 C   0  0  0  0  0  3  0  0  0  0  0  0
  161.0360  211.4290  150.3210 C   0  0  0  0  0  0  0  0  0  0  0  0
  160.0460  212.6160  152.8500 C   0  0  1  0  0  3  0  0  0  0  0  0
  156.7440  213.8590  153.2190 O   0  0  0  0  0  0  0  0  0  0  0  0
  158.8760  212.9300  153.6600 N   0  0  0  0  0  0  0  0  0  0  0  0
  157.9330  212.9610  157.2500 C   0  0  0  0  0  2  0  0  0  0  0  0
  158.1400  210.2110  154.8380 C   0  0  0  0  0  1  0  0  0  0  0  0
  160.2610  213.3610  149.0650 C   0  0  0  0  0  3  0  0  0  0  0  0
  160.3540  212.6640  150.2720 C   0  0  0  0  0  0  0  0  0  0  0  0
  159.5680  210.6320  155.1870 C   0  0  2  0  0  3  0  0  0  0  0  0
  161.1750  204.6420  152.5570 C   0  0  0  0  0  1  0  0  0  0  0  0
  161.2090  205.9880  153.2560 C   0  0  0  0  0  2  0  0  0  0  0  0
  1 20  1  6  0  0  0
  1  4  1  0  0  0  0
  2 20  1  0  0  0  0
  3 18  1  0  0  0  0
  3 11  1  0  0  0  0
  4 21  1  0  0  0  0
  4 13  1  0  0  0  0
  5  1  1  0  0  0  0
  5 12  1  0  0  0  0
  7 16  1  0  0  0  0
  8 13  1  0  0  0  0
  8  6  2  0  0  0  0
  9 12  2  0  0  0  0
  9 30  1  0  0  0  0
 10 15  1  0  0  0  0
 10  7  1  0  0  0  0
 11 22  2  0  0  0  0
 11 23  1  0  0  0  0
 12  8  1  0  0  0  0
 13 28  1  0  0  0  0
 14  2  2  0  0  0  0
 15 24  1  0  0  0  0
 16 24  1  0  0  0  0
 17  2  1  0  0  0  0
 18 21  1  0  0  0  0
 19 14  1  0  0  0  0
 19 26  2  0  0  0  0
 21 23  1  0  0  0  0
 23 10  1  0  0  0  0
 25 28  1  0  0  0  0
 26 27  1  0  0  0  0
 27 20  2  0  0  0  0
 27 18  1  0  0  0  0
 28  7  1  0  0  0  0
 29 30  1  0  0  0  0
M  END
>  <MODEL>
4

>  <REMARK>
 VINA RESULT:      -5.0      2.561      5.672
  Name = 
  1 active torsions:
  status: ('A' for Active; 'I' for Inactive)
    1  A    between atoms: C_9  and  C_21
                            x       y       z     vdW  Elec       q    Type
                         _______ _______ _______ _____ _____    ______ ____

>  <TORSDO>
F 1

$$$$
=
 OpenBabel11052421513D

 30 35  0  0  1  0  0  0  0  0999 V2000
  160.9350  208.4780  151.4020 C   0  0  1  0  0  3  0  0  0  0  0  0
  161.3880  210.9530  150.9320 C   0  0  0  0  0  0  0  0  0  0  0  0
  162.7490  207.4660  147.8810 C   0  0  0  0  0  2  0  0  0  0  0  0
  161.2990  207.0750  150.8910 C   0  0  1  0  0  3  0  0  0  0  0  0
  161.4930  208.6370  152.7040 O   0  0  0  0  0  0  0  0  0  0  0  0
  160.4660  205.4740  154.1340 O   0  0  0  0  0  0  0  0  0  0  0  0
  160.2200  204.0170  150.2880 C   0  0  1  0  0  3  0  0  0  0  0  0
  160.8110  206.3330  153.2770 C   0  0  0  0  0  0  0  0  0  0  0  0
  161.7130  207.9720  154.9340 C   0  0  0  0  0  3  0  0  0  0  0  0
  160.7960  204.3820  148.9160 C   0  0  2  0  0  3  0  0  0  0  0  0
  162.5760  206.0130  148.0310 C   0  0  0  0  0  0  0  0  0  0  0  0
  161.3410  207.6590  153.6870 C   0  0  0  0  0  0  0  0  0  0  0  0
  160.6100  206.0340  151.8080 C   0  0  2  0  0  3  0  0  0  0  0  0
  161.7450  211.9460  150.0750 N   0  0  0  0  0  0  0  0  0  0  0  0
  161.6500  203.1940  148.5210 C   0  0  0  0  0  2  0  0  0  0  0  0
  160.2090  202.4960  150.3460 C   0  0  0  0  0  2  0  0  0  0  0  0
  160.9060  211.4280  152.5560 Cl  0  0  0  0  0  0  0  0  0  0  0  0
  161.4640  207.9930  148.5120 C   0  0  1  0  0  3  0  0  0  0  0  0
  162.0500  211.7050  148.7770 C   0  0  0  0  0  3  0  0  0  0  0  0
  161.3660  209.6070  150.4880 C   0  0  0  0  0  0  0  0  0  0  0  0
  160.9060  206.8790  149.4220 C   0  0  1  0  0  3  0  0  0  0  0  0
  163.2990  205.1730  147.4330 O   0  0  0  0  0  0  0  0  0  0  0  0
  161.5260  205.6570  148.9250 N   0  0  0  0  0  0  0  0  0  0  0  0
  160.9430  201.9950  149.1140 C   0  0  0  0  0  2  0  0  0  0  0  0
  162.4890  204.3150  151.4930 C   0  0  0  0  0  1  0  0  0  0  0  0
  161.9800  210.4100  148.2780 C   0  0  0  0  0  3  0  0  0  0  0  0
  161.6280  209.3550  149.1240 C   0  0  0  0  0  0  0  0  0  0  0  0
  160.9830  204.5770  151.5000 C   0  0  2  0  0  3  0  0  0  0  0  0
  160.4510  207.4690  156.9940 C   0  0  0  0  0  1  0  0  0  0  0  0
  161.6260  207.0690  156.1220 C   0  0  0  0  0  2  0  0  0  0  0  0
  1 20  1  6  0  0  0
  1  5  1  0  0  0  0
  2 17  1  0  0  0  0
  3 11  1  0  0  0  0
  3 18  1  0  0  0  0
  4  1  1  0  0  0  0
  4 13  1  0  0  0  0
  5 12  1  0  0  0  0
  7 16  1  0  0  0  0
  7 28  1  0  0  0  0
  8 12  1  0  0  0  0
  8  6  2  0  0  0  0
  9 30  1  0  0  0  0
 10 23  1  0  0  0  0
 10  7  1  0  0  0  0
 11 23  1  0  0  0  0
 12  9  2  0  0  0  0
 13  8  1  0  0  0  0
 14  2  2  0  0  0  0
 15 10  1  0  0  0  0
 15 24  1  0  0  0  0
 18 27  1  0  0  0  0
 18 21  1  0  0  0  0
 19 14  1  0  0  0  0
 20  2  1  0  0  0  0
 21  4  1  0  0  0  0
 22 11  2  0  0  0  0
 23 21  1  0  0  0  0
 24 16  1  0  0  0  0
 25 28  1  0  0  0  0
 26 19  2  0  0  0  0
 26 27  1  0  0  0  0
 27 20  2  0  0  0  0
 28 13  1  0  0  0  0
 30 29  1  0  0  0  0
M  END
>  <MODEL>
5

>  <REMARK>
 VINA RESULT:      -4.8      2.735      7.314
  Name = 
  1 active torsions:
  status: ('A' for Active; 'I' for Inactive)
    1  A    between atoms: C_9  and  C_21
                            x       y       z     vdW  Elec       q    Type
                         _______ _______ _______ _____ _____    ______ ____

>  <TORSDO>
F 1

$$$$
=
 OpenBabel11052421513D

 30 35  0  0  1  0  0  0  0  0999 V2000
  161.4680  210.7070  150.9690 C   0  0  1  0  0  3  0  0  0  0  0  0
  160.9510  212.5640  149.2860 C   0  0  0  0  0  0  0  0  0  0  0  0
  158.5780  212.1530  153.4710 C   0  0  0  0  0  2  0  0  0  0  0  0
  160.9210  210.0690  152.2560 C   0  0  1  0  0  3  0  0  0  0  0  0
  161.3700  209.7470  149.9200 O   0  0  0  0  0  0  0  0  0  0  0  0
  162.7260  206.8800  151.6650 O   0  0  0  0  0  0  0  0  0  0  0  0
  161.6640  208.7430  155.1840 C   0  0  1  0  0  3  0  0  0  0  0  0
  162.1430  207.9800  151.4640 C   0  0  0  0  0  0  0  0  0  0  0  0
  161.8740  207.6570  149.0000 C   0  0  0  0  0  3  0  0  0  0  0  0
  160.6810  209.8360  155.6170 C   0  0  2  0  0  3  0  0  0  0  0  0
  158.7520  211.1320  154.5160 C   0  0  0  0  0  0  0  0  0  0  0  0
  161.8100  208.4330  150.0890 C   0  0  0  0  0  0  0  0  0  0  0  0
  161.8440  208.8850  152.6380 C   0  0  2  0  0  3  0  0  0  0  0  0
  160.3590  213.7490  148.9800 N   0  0  0  0  0  0  0  0  0  0  0  0
  159.7150  209.1430  156.5560 C   0  0  0  0  0  2  0  0  0  0  0  0
  161.6540  207.7070  156.2980 C   0  0  0  0  0  2  0  0  0  0  0  0
  161.9490  211.8190  148.0430 Cl  0  0  0  0  0  0  0  0  0  0  0  0
  160.0110  212.3420  152.9860 C   0  0  1  0  0  3  0  0  0  0  0  0
  159.6400  214.4530  149.8880 C   0  0  0  0  0  3  0  0  0  0  0  0
  160.7920  212.0040  150.5790 C   0  0  0  0  0  0  0  0  0  0  0  0
  160.8070  211.0860  153.3970 C   0  0  1  0  0  3  0  0  0  0  0  0
  157.8530  210.8440  155.3480 O   0  0  0  0  0  0  0  0  0  0  0  0
  160.0270  210.4980  154.4800 N   0  0  0  0  0  0  0  0  0  0  0  0
  160.5450  208.0930  157.2600 C   0  0  0  0  0  2  0  0  0  0  0  0
  159.9220  207.5500  153.6900 C   0  0  0  0  0  1  0  0  0  0  0  0
  159.5100  213.9780  151.1870 C   0  0  0  0  0  3  0  0  0  0  0  0
  160.0920  212.7590  151.5450 C   0  0  0  0  0  0  0  0  0  0  0  0
  161.3540  208.0640  153.8400 C   0  0  2  0  0  3  0  0  0  0  0  0
  161.1170  205.3090  148.9860 C   0  0  0  0  0  1  0  0  0  0  0  0
  162.3210  206.2310  148.9720 C   0  0  0  0  0  2  0  0  0  0  0  0
  1  5  1  6  0  0  0
  1  4  1  0  0  0  0
  2 20  1  0  0  0  0
  3 11  1  0  0  0  0
  4 13  1  0  0  0  0
  4 21  1  0  0  0  0
  5 12  1  0  0  0  0
  7 10  1  0  0  0  0
  7 16  1  0  0  0  0
  8  6  2  0  0  0  0
  8 13  1  0  0  0  0
  9 12  2  0  0  0  0
 10 15  1  0  0  0  0
 11 22  2  0  0  0  0
 12  8  1  0  0  0  0
 13 28  1  0  0  0  0
 14  2  2  0  0  0  0
 14 19  1  0  0  0  0
 15 24  1  0  0  0  0
 16 24  1  0  0  0  0
 17  2  1  0  0  0  0
 18 21  1  0  0  0  0
 18  3  1  0  0  0  0
 19 26  2  0  0  0  0
 20  1  1  0  0  0  0
 20 27  2  0  0  0  0
 21 23  1  0  0  0  0
 23 11  1  0  0  0  0
 23 10  1  0  0  0  0
 25 28  1  0  0  0  0
 26 27  1  0  0  0  0
 27 18  1  0  0  0  0
 28  7  1  0  0  0  0
 30 29  1  0  0  0  0
 30  9  1  0  0  0  0
M  END
>  <MODEL>
6

>  <REMARK>
 VINA RESULT:      -4.7      2.595      5.284
  Name = 
  1 active torsions:
  status: ('A' for Active; 'I' for Inactive)
    1  A    between atoms: C_9  and  C_21
                            x       y       z     vdW  Elec       q    Type
                         _______ _______ _______ _____ _____    ______ ____

>  <TORSDO>
F 1

$$$$
=
 OpenBabel11052421513D

 30 35  0  0  1  0  0  0  0  0999 V2000
  160.4540  209.9170  151.5820 C   0  0  1  0  0  3  0  0  0  0  0  0
  161.9830  208.1090  150.6100 C   0  0  0  0  0  0  0  0  0  0  0  0
  161.2070  208.5410  155.3560 C   0  0  0  0  0  2  0  0  0  0  0  0
  160.0530  210.5540  152.9210 C   0  0  1  0  0  3  0  0  0  0  0  0
  161.1470  210.8970  150.8120 O   0  0  0  0  0  0  0  0  0  0  0  0
  158.8840  213.6800  151.2980 O   0  0  0  0  0  0  0  0  0  0  0  0
  157.5920  211.8010  154.7310 C   0  0  1  0  0  3  0  0  0  0  0  0
  159.5090  212.6070  151.5170 C   0  0  0  0  0  0  0  0  0  0  0  0
  161.2430  212.9810  149.7570 C   0  0  0  0  0  3  0  0  0  0  0  0
  158.1330  210.7400  155.6940 C   0  0  2  0  0  3  0  0  0  0  0  0
  160.3780  209.5370  156.0520 C   0  0  0  0  0  0  0  0  0  0  0  0
  160.6450  212.1900  150.6560 C   0  0  0  0  0  0  0  0  0  0  0  0
  159.0460  211.6940  152.6300 C   0  0  2  0  0  3  0  0  0  0  0  0
  162.6840  206.9530  150.7540 N   0  0  0  0  0  0  0  0  0  0  0  0
  158.2730  211.4530  157.0230 C   0  0  0  0  0  2  0  0  0  0  0  0
  156.8630  212.8190  155.5950 C   0  0  0  0  0  2  0  0  0  0  0  0
  161.9500  208.8350  149.0070 Cl  0  0  0  0  0  0  0  0  0  0  0  0
  160.3980  208.3050  154.0850 C   0  0  1  0  0  3  0  0  0  0  0  0
  162.7060  206.2620  151.9190 C   0  0  0  0  0  3  0  0  0  0  0  0
  161.2780  208.6530  151.7130 C   0  0  0  0  0  0  0  0  0  0  0  0
  159.4700  209.5230  153.8950 C   0  0  1  0  0  3  0  0  0  0  0  0
  160.5480  209.8460  157.2600 O   0  0  0  0  0  0  0  0  0  0  0  0
  159.3790  210.1220  155.2210 N   0  0  0  0  0  0  0  0  0  0  0  0
  157.1430  212.4590  157.0440 C   0  0  0  0  0  2  0  0  0  0  0  0
  159.8350  213.0850  154.6370 C   0  0  0  0  0  1  0  0  0  0  0  0
  161.9780  206.7200  153.0100 C   0  0  0  0  0  3  0  0  0  0  0  0
  161.2510  207.9090  152.9130 C   0  0  0  0  0  0  0  0  0  0  0  0
  158.6450  212.5140  153.8660 C   0  0  2  0  0  3  0  0  0  0  0  0
  160.2060  214.4530  148.0700 C   0  0  0  0  0  1  0  0  0  0  0  0
  160.8550  214.3890  149.4400 C   0  0  0  0  0  2  0  0  0  0  0  0
  1  5  1  6  0  0  0
  1 20  1  0  0  0  0
  1  4  1  0  0  0  0
  2 14  2  0  0  0  0
  2 20  1  0  0  0  0
  3 11  1  0  0  0  0
  4 21  1  0  0  0  0
  6  8  2  0  0  0  0
  7 16  1  0  0  0  0
  7 10  1  0  0  0  0
  8 13  1  0  0  0  0
  9 12  2  0  0  0  0
 10 15  1  0  0  0  0
 11 22  2  0  0  0  0
 12  5  1  0  0  0  0
 12  8  1  0  0  0  0
 13  4  1  0  0  0  0
 13 28  1  0  0  0  0
 14 19  1  0  0  0  0
 15 24  1  0  0  0  0
 16 24  1  0  0  0  0
 17  2  1  0  0  0  0
 18  3  1  0  0  0  0
 19 26  2  0  0  0  0
 20 27  2  0  0  0  0
 21 18  1  0  0  0  0
 21 23  1  0  0  0  0
 23 10  1  0  0  0  0
 23 11  1  0  0  0  0
 27 26  1  0  0  0  0
 27 18  1  0  0  0  0
 28 25  1  0  0  0  0
 28  7  1  0  0  0  0
 29 30  1  0  0  0  0
 30  9  1  0  0  0  0
M  END
>  <MODEL>
7

>  <REMARK>
 VINA RESULT:      -4.5      1.885      2.399
  Name = 
  1 active torsions:
  status: ('A' for Active; 'I' for Inactive)
    1  A    between atoms: C_9  and  C_21
                            x       y       z     vdW  Elec       q    Type
                         _______ _______ _______ _____ _____    ______ ____

>  <TORSDO>
F 1

$$$$
=
 OpenBabel11052421513D

 30 35  0  0  1  0  0  0  0  0999 V2000
  161.9820  207.8970  150.5950 C   0  0  1  0  0  3  0  0  0  0  0  0
  162.2410  209.0060  148.3030 C   0  0  0  0  0  0  0  0  0  0  0  0
  160.2380  211.2940  152.0540 C   0  0  0  0  0  2  0  0  0  0  0  0
  161.2980  208.1030  151.9560 C   0  0  1  0  0  3  0  0  0  0  0  0
  161.3890  206.7650  149.9650 O   0  0  0  0  0  0  0  0  0  0  0  0
  161.4240  204.4860  152.7770 O   0  0  0  0  0  0  0  0  0  0  0  0
  161.5660  207.7950  155.2290 C   0  0  1  0  0  3  0  0  0  0  0  0
  161.3880  205.5640  152.1240 C   0  0  0  0  0  0  0  0  0  0  0  0
  160.8300  204.4950  149.9350 C   0  0  0  0  0  3  0  0  0  0  0  0
  161.2160  209.2820  155.1190 C   0  0  2  0  0  3  0  0  0  0  0  0
  160.0060  210.7770  153.4120 C   0  0  0  0  0  0  0  0  0  0  0  0
  161.1990  205.5640  150.6500 C   0  0  0  0  0  0  0  0  0  0  0  0
  161.6120  206.8750  152.8450 C   0  0  2  0  0  3  0  0  0  0  0  0
  162.2270  210.1190  147.5210 N   0  0  0  0  0  0  0  0  0  0  0  0
  160.1090  209.4980  156.1320 C   0  0  0  0  0  2  0  0  0  0  0  0
  161.1680  207.3730  156.6360 C   0  0  0  0  0  2  0  0  0  0  0  0
  162.7070  207.4920  147.5380 Cl  0  0  0  0  0  0  0  0  0  0  0  0
  161.5650  210.6320  151.6980 C   0  0  1  0  0  3  0  0  0  0  0  0
  161.9690  211.3510  148.0220 C   0  0  0  0  0  3  0  0  0  0  0  0
  161.9380  209.1070  149.6850 C   0  0  0  0  0  0  0  0  0  0  0  0
  161.7350  209.4110  152.6260 C   0  0  1  0  0  3  0  0  0  0  0  0
  159.1340  211.2530  154.1850 O   0  0  0  0  0  0  0  0  0  0  0  0
  160.8520  209.6840  153.7540 N   0  0  0  0  0  0  0  0  0  0  0  0
  160.4230  208.5400  157.2600 C   0  0  0  0  0  2  0  0  0  0  0  0
  159.3740  207.0330  154.0890 C   0  0  0  0  0  1  0  0  0  0  0  0
  161.7300  211.5100  149.3820 C   0  0  0  0  0  3  0  0  0  0  0  0
  161.7240  210.3940  150.2230 C   0  0  0  0  0  0  0  0  0  0  0  0
  160.8900  206.8740  154.2000 C   0  0  2  0  0  3  0  0  0  0  0  0
  160.4720  202.1260  149.3440 C   0  0  0  0  0  1  0  0  0  0  0  0
  160.5830  203.1250  150.4800 C   0  0  0  0  0  2  0  0  0  0  0  0
  1 20  1  6  0  0  0
  1  4  1  0  0  0  0
  2 20  1  0  0  0  0
  3 11  1  0  0  0  0
  4 21  1  0  0  0  0
  4 13  1  0  0  0  0
  5  1  1  0  0  0  0
  5 12  1  0  0  0  0
  7 16  1  0  0  0  0
  8  6  2  0  0  0  0
  8 13  1  0  0  0  0
  9 30  1  0  0  0  0
  9 12  2  0  0  0  0
 10  7  1  0  0  0  0
 10 15  1  0  0  0  0
 11 23  1  0  0  0  0
 11 22  2  0  0  0  0
 12  8  1  0  0  0  0
 13 28  1  0  0  0  0
 14 19  1  0  0  0  0
 14  2  2  0  0  0  0
 15 24  1  0  0  0  0
 16 24  1  0  0  0  0
 17  2  1  0  0  0  0
 18  3  1  0  0  0  0
 18 21  1  0  0  0  0
 19 26  2  0  0  0  0
 20 27  2  0  0  0  0
 21 23  1  0  0  0  0
 23 10  1  0  0  0  0
 25 28  1  0  0  0  0
 26 27  1  0  0  0  0
 27 18  1  0  0  0  0
 28  7  1  0  0  0  0
 29 30  1  0  0  0  0
M  END
>  <MODEL>
8

>  <REMARK>
 VINA RESULT:      -4.4      2.083      5.150
  Name = 
  1 active torsions:
  status: ('A' for Active; 'I' for Inactive)
    1  A    between atoms: C_9  and  C_21
                            x       y       z     vdW  Elec       q    Type
                         _______ _______ _______ _____ _____    ______ ____

>  <TORSDO>
F 1

$$$$
=
 OpenBabel11052421513D

 30 35  0  0  1  0  0  0  0  0999 V2000
  160.3490  210.7980  153.0410 C   0  0  1  0  0  3  0  0  0  0  0  0
  160.3390  208.7130  154.5250 C   0  0  0  0  0  0  0  0  0  0  0  0
  161.6320  208.5530  149.8750 C   0  0  0  0  0  2  0  0  0  0  0  0
  160.4820  211.2210  151.5690 C   0  0  1  0  0  3  0  0  0  0  0  0
  159.0230  211.0950  153.4720 O   0  0  0  0  0  0  0  0  0  0  0  0
  158.7500  214.4530  152.1480 O   0  0  0  0  0  0  0  0  0  0  0  0
  161.7050  213.4430  149.4590 C   0  0  1  0  0  3  0  0  0  0  0  0
  159.1160  213.2520  152.2720 C   0  0  0  0  0  0  0  0  0  0  0  0
  157.2750  212.6060  153.8340 C   0  0  0  0  0  3  0  0  0  0  0  0
  162.2870  212.1530  148.8710 C   0  0  2  0  0  3  0  0  0  0  0  0
  161.6640  209.6580  148.9050 C   0  0  0  0  0  0  0  0  0  0  0  0
  158.4350  212.3350  153.2220 C   0  0  0  0  0  0  0  0  0  0  0  0
  160.3150  212.7590  151.4930 C   0  0  2  0  0  3  0  0  0  0  0  0
  160.6930  207.4190  154.7460 N   0  0  0  0  0  0  0  0  0  0  0  0
  161.9930  212.2340  147.3870 C   0  0  0  0  0  2  0  0  0  0  0  0
  161.6920  214.4530  148.3220 C   0  0  0  0  0  2  0  0  0  0  0  0
  159.5000  209.5500  155.8260 Cl  0  0  0  0  0  0  0  0  0  0  0  0
  162.0650  209.2590  151.1560 C   0  0  1  0  0  3  0  0  0  0  0  0
  161.4180  206.7060  153.8500 C   0  0  0  0  0  3  0  0  0  0  0  0
  160.6920  209.3470  153.3070 C   0  0  0  0  0  0  0  0  0  0  0  0
  161.8130  210.7680  150.9590 C   0  0  1  0  0  3  0  0  0  0  0  0
  161.6030  209.4780  147.6600 O   0  0  0  0  0  0  0  0  0  0  0  0
  161.7560  210.9430  149.5130 N   0  0  0  0  0  0  0  0  0  0  0  0
  162.0730  213.7080  147.0550 C   0  0  0  0  0  2  0  0  0  0  0  0
  159.2580  212.6630  149.1570 C   0  0  0  0  0  1  0  0  0  0  0  0
  161.8420  207.3030  152.6690 C   0  0  0  0  0  3  0  0  0  0  0  0
  161.4930  208.6280  152.3940 C   0  0  0  0  0  0  0  0  0  0  0  0
  160.2970  213.3230  150.0640 C   0  0  2  0  0  3  0  0  0  0  0  0
  155.0340  213.5570  153.4380 C   0  0  0  0  0  1  0  0  0  0  0  0
  156.4940  213.8720  153.7010 C   0  0  0  0  0  2  0  0  0  0  0  0
  1 20  1  6  0  0  0
  1  5  1  0  0  0  0
  2 14  1  0  0  0  0
  2 17  1  0  0  0  0
  3 18  1  0  0  0  0
  4  1  1  0  0  0  0
  6  8  2  0  0  0  0
  7 28  1  0  0  0  0
  8 12  1  0  0  0  0
 10  7  1  0  0  0  0
 10 23  1  0  0  0  0
 11 23  1  0  0  0  0
 11  3  1  0  0  0  0
 12  5  1  0  0  0  0
 12  9  2  0  0  0  0
 13  4  1  0  0  0  0
 13  8  1  0  0  0  0
 15 10  1  0  0  0  0
 16  7  1  0  0  0  0
 18 27  1  0  0  0  0
 19 14  2  0  0  0  0
 20  2  2  0  0  0  0
 21 18  1  0  0  0  0
 21  4  1  0  0  0  0
 22 11  2  0  0  0  0
 23 21  1  0  0  0  0
 24 15  1  0  0  0  0
 24 16  1  0  0  0  0
 25 28  1  0  0  0  0
 26 19  1  0  0  0  0
 27 26  2  0  0  0  0
 27 20  1  0  0  0  0
 28 13  1  0  0  0  0
 29 30  1  0  0  0  0
 30  9  1  0  0  0  0
M  END
>  <MODEL>
9

>  <REMARK>
 VINA RESULT:      -4.0      2.845      6.124
  Name = 
  1 active torsions:
  status: ('A' for Active; 'I' for Inactive)
    1  A    between atoms: C_9  and  C_21
                            x       y       z     vdW  Elec       q    Type
                         _______ _______ _______ _____ _____    ______ ____

>  <TORSDO>
F 1

$$$$
