=
 OpenBabel11062409343D

 34 37  0  0  0  0  0  0  0  0999 V2000
  161.1630  207.0030  151.1020 C   0  0  0  0  0  0  0  0  0  0  0  0
  161.2850  207.5860  154.8740 C   0  0  0  0  0  3  0  0  0  0  0  0
  160.2020  209.9360  154.9090 C   0  0  0  0  0  0  0  0  0  0  0  0
  161.2040  205.5920  153.5050 N   0  0  0  0  0  0  0  0  0  0  0  0
  160.9840  204.8360  149.9250 C   0  0  0  0  0  3  0  0  0  0  0  0
  160.9340  202.7780  151.1940 C   0  0  0  0  0  3  0  0  0  0  0  0
  158.5500  211.2970  153.4910 C   0  0  0  0  0  1  0  0  0  0  0  0
  160.9120  203.4420  149.9660 C   0  0  0  0  0  3  0  0  0  0  0  0
  161.1060  204.9020  152.3430 C   0  0  0  0  0  0  0  0  0  0  0  0
  161.0700  205.5890  151.1060 C   0  0  0  0  0  0  0  0  0  0  0  0
  161.0310  203.5070  152.3800 C   0  0  0  0  0  3  0  0  0  0  0  0
  160.7700  208.7710  155.0010 C   0  0  0  0  0  0  0  0  0  0  0  0
  159.7820  210.6350  156.1560 C   0  0  0  0  0  1  0  0  0  0  0  0
  159.7240  210.3850  153.5750 C   0  0  0  0  0  0  0  0  0  0  0  0
  160.2990  210.0100  152.4180 C   0  0  0  0  0  3  0  0  0  0  0  0
  161.2810  206.9460  153.5440 C   0  0  0  0  0  0  0  0  0  0  0  0
  161.5450  209.1720  152.3010 C   0  0  0  0  0  2  0  0  0  0  0  0
  161.2900  207.6840  152.3280 C   0  0  0  0  0  0  0  0  0  0  0  0
  161.1490  207.7800  149.9300 O   0  0  0  0  0  0  0  0  0  0  0  0
  162.0520  207.6330  148.8400 C   0  0  0  0  0  2  0  0  0  0  0  0
  161.2780  207.4560  147.5410 C   0  0  0  0  0  2  0  0  0  0  0  0
  163.4520  204.7490  146.0260 C   0  0  0  0  0  3  0  0  0  0  0  0
  160.7350  205.3610  146.2560 C   0  0  0  0  0  3  0  0  0  0  0  0
  162.4950  203.9120  145.4430 C   0  0  0  0  0  3  0  0  0  0  0  0
  161.1360  204.2190  145.5550 C   0  0  0  0  0  0  0  0  0  0  0  0
  161.6930  206.2100  146.8270 C   0  0  0  0  0  0  0  0  0  0  0  0
  163.0520  205.8970  146.7150 C   0  0  0  0  0  3  0  0  0  0  0  0
  160.1180  203.3420  144.9070 C   0  0  0  0  0  2  0  0  0  0  0  0
  160.6530  201.2660  146.2660 C   0  0  0  0  0  0  0  0  0  0  0  0
  160.3720  201.8580  147.3450 O   0  0  0  0  0  0  0  0  0  0  0  0
  160.5120  201.9420  145.0140 N   0  0  0  0  0  2  0  0  0  0  0  0
  161.1160  199.8770  146.2900 C   0  0  0  0  0  0  0  0  0  0  0  0
  160.8440  199.0980  145.3390 O   0  0  0  0  0  0  0  0  0  0  0  0
  161.8440  199.4230  147.3390 F   0  0  0  0  0  0  0  0  0  0  0  0
  1 10  2  0  0  0  0
  1 18  1  0  0  0  0
  2 12  2  0  0  0  0
  3 12  2  0  0  0  0
  3 13  1  0  0  0  0
  4 16  1  0  0  0  0
  5  8  2  0  0  0  0
  5 10  1  0  0  0  0
  6 11  2  0  0  0  0
  7 14  1  0  0  0  0
  8  6  1  0  0  0  0
  9 11  1  0  0  0  0
  9  4  2  0  0  0  0
 10  9  1  0  0  0  0
 14  3  1  0  0  0  0
 15 14  2  0  0  0  0
 16  2  1  0  0  0  0
 17 18  1  0  0  0  0
 17 15  1  0  0  0  0
 18 16  2  0  0  0  0
 19  1  1  0  0  0  0
 20 19  1  0  0  0  0
 21 20  1  0  0  0  0
 22 27  1  0  0  0  0
 23 26  1  0  0  0  0
 24 25  1  0  0  0  0
 24 22  2  0  0  0  0
 25 23  2  0  0  0  0
 26 21  1  0  0  0  0
 27 26  2  0  0  0  0
 28 31  1  0  0  0  0
 28 25  1  0  0  0  0
 29 32  1  0  0  0  0
 29 30  2  0  0  0  0
 31 29  1  0  0  0  0
 32 34  1  0  0  0  0
 33 32  2  0  0  0  0
M  END
>  <MODEL>
1

>  <REMARK>
 VINA RESULT:      -9.3      0.000      0.000
  Name = 
  7 active torsions:
  status: ('A' for Active; 'I' for Inactive)
    1  A    between atoms: C_1  and  O_9
    2  A    between atoms: C_7  and  C_11
    3  A    between atoms: C_8  and  O_9
    4  A    between atoms: C_8  and  C_18
    5  A    between atoms: C_18  and  C_30
    6  A    between atoms: C_26  and  C_28
    7  A    between atoms: C_26  and  N_29
                            x       y       z     vdW  Elec       q    Type
                         _______ _______ _______ _____ _____    ______ ____

>  <TORSDO>
F 7

$$$$
=
 OpenBabel11062409343D

 34 37  0  0  0  0  0  0  0  0999 V2000
  161.6110  210.1940  151.1240 C   0  0  0  0  0  0  0  0  0  0  0  0
  159.1480  211.8010  153.5600 C   0  0  0  0  0  3  0  0  0  0  0  0
  160.0450  210.7260  155.7370 C   0  0  0  0  0  0  0  0  0  0  0  0
  160.0090  212.4580  151.3970 N   0  0  0  0  0  0  0  0  0  0  0  0
  162.4200  211.1210  148.9800 C   0  0  0  0  0  3  0  0  0  0  0  0
  161.5840  213.2520  148.1990 C   0  0  0  0  0  3  0  0  0  0  0  0
  162.2680  209.8070  156.6370 C   0  0  0  0  0  1  0  0  0  0  0  0
  162.4010  212.1350  148.0190 C   0  0  0  0  0  3  0  0  0  0  0  0
  160.7970  212.3420  150.3000 C   0  0  0  0  0  0  0  0  0  0  0  0
  161.6310  211.2100  150.1370 C   0  0  0  0  0  0  0  0  0  0  0  0
  160.7830  213.3550  149.3370 C   0  0  0  0  0  3  0  0  0  0  0  0
  159.5070  211.3040  154.7050 C   0  0  0  0  0  0  0  0  0  0  0  0
  159.6050  211.1310  157.1020 C   0  0  0  0  0  1  0  0  0  0  0  0
  161.2750  209.9170  155.5320 C   0  0  0  0  0  0  0  0  0  0  0  0
  161.5500  209.2650  154.3880 C   0  0  0  0  0  3  0  0  0  0  0  0
  159.9720  211.5130  152.3690 C   0  0  0  0  0  0  0  0  0  0  0  0
  160.6310  209.1790  153.1980 C   0  0  0  0  0  2  0  0  0  0  0  0
  160.7600  210.3370  152.2360 C   0  0  0  0  0  0  0  0  0  0  0  0
  162.3900  209.0250  151.0530 O   0  0  0  0  0  0  0  0  0  0  0  0
  162.3420  208.0720  149.9980 C   0  0  0  0  0  2  0  0  0  0  0  0
  160.9760  207.4000  149.9630 C   0  0  0  0  0  2  0  0  0  0  0  0
  161.2520  204.8080  152.7120 C   0  0  0  0  0  3  0  0  0  0  0  0
  160.8460  204.8860  149.9480 C   0  0  0  0  0  3  0  0  0  0  0  0
  161.1120  203.6170  151.9920 C   0  0  0  0  0  3  0  0  0  0  0  0
  160.9120  203.6550  150.6090 C   0  0  0  0  0  0  0  0  0  0  0  0
  161.0010  206.0800  150.6650 C   0  0  0  0  0  0  0  0  0  0  0  0
  161.1990  206.0380  152.0490 C   0  0  0  0  0  3  0  0  0  0  0  0
  160.7930  202.3840  149.8390 C   0  0  0  0  0  2  0  0  0  0  0  0
  160.9400  201.6830  147.4040 C   0  0  0  0  0  0  0  0  0  0  0  0
  161.2230  200.4970  147.7270 O   0  0  0  0  0  0  0  0  0  0  0  0
  160.6790  202.6630  148.4120 N   0  0  0  0  0  2  0  0  0  0  0  0
  160.8670  202.0610  145.9910 C   0  0  0  0  0  0  0  0  0  0  0  0
  160.1660  201.3920  145.1870 O   0  0  0  0  0  0  0  0  0  0  0  0
  161.5540  203.1390  145.5410 F   0  0  0  0  0  0  0  0  0  0  0  0
  1 18  1  0  0  0  0
  2 12  2  0  0  0  0
  3 13  1  0  0  0  0
  4 16  1  0  0  0  0
  5 10  1  0  0  0  0
  6 11  2  0  0  0  0
  8  6  1  0  0  0  0
  8  5  2  0  0  0  0
  9  4  2  0  0  0  0
 10  9  1  0  0  0  0
 10  1  2  0  0  0  0
 11  9  1  0  0  0  0
 12  3  2  0  0  0  0
 14  3  1  0  0  0  0
 14  7  1  0  0  0  0
 15 14  2  0  0  0  0
 16  2  1  0  0  0  0
 17 15  1  0  0  0  0
 18 16  2  0  0  0  0
 18 17  1  0  0  0  0
 19  1  1  0  0  0  0
 20 19  1  0  0  0  0
 21 20  1  0  0  0  0
 21 26  1  0  0  0  0
 23 25  2  0  0  0  0
 23 26  1  0  0  0  0
 24 22  2  0  0  0  0
 25 24  1  0  0  0  0
 26 27  2  0  0  0  0
 27 22  1  0  0  0  0
 28 25  1  0  0  0  0
 29 30  2  0  0  0  0
 29 31  1  0  0  0  0
 31 28  1  0  0  0  0
 32 29  1  0  0  0  0
 33 32  2  0  0  0  0
 34 32  1  0  0  0  0
M  END
>  <MODEL>
2

>  <REMARK>
 VINA RESULT:      -9.3      2.576      5.071
  Name = 
  7 active torsions:
  status: ('A' for Active; 'I' for Inactive)
    1  A    between atoms: C_1  and  O_9
    2  A    between atoms: C_7  and  C_11
    3  A    between atoms: C_8  and  O_9
    4  A    between atoms: C_8  and  C_18
    5  A    between atoms: C_18  and  C_30
    6  A    between atoms: C_26  and  C_28
    7  A    between atoms: C_26  and  N_29
                            x       y       z     vdW  Elec       q    Type
                         _______ _______ _______ _____ _____    ______ ____

>  <TORSDO>
F 7

$$$$
=
 OpenBabel11062409343D

 34 37  0  0  0  0  0  0  0  0999 V2000
  161.5660  206.8730  153.1500 C   0  0  0  0  0  0  0  0  0  0  0  0
  162.0170  210.2400  151.4070 C   0  0  0  0  0  3  0  0  0  0  0  0
  161.9610  209.3890  148.9640 C   0  0  0  0  0  0  0  0  0  0  0  0
  161.1090  209.5920  153.5550 N   0  0  0  0  0  0  0  0  0  0  0  0
  160.5060  206.4500  155.3430 C   0  0  0  0  0  3  0  0  0  0  0  0
  159.6760  208.3040  156.6570 C   0  0  0  0  0  3  0  0  0  0  0  0
  160.9480  207.4310  147.6480 C   0  0  0  0  0  1  0  0  0  0  0  0
  159.8860  206.9330  156.4980 C   0  0  0  0  0  3  0  0  0  0  0  0
  160.7120  208.7130  154.5060 C   0  0  0  0  0  0  0  0  0  0  0  0
  160.9180  207.3250  154.3270 C   0  0  0  0  0  0  0  0  0  0  0  0
  160.0890  209.1920  155.6620 C   0  0  0  0  0  3  0  0  0  0  0  0
  162.0200  209.9170  150.1500 C   0  0  0  0  0  0  0  0  0  0  0  0
  161.8880  210.2870  147.7760 C   0  0  0  0  0  1  0  0  0  0  0  0
  161.6630  207.9370  148.8520 C   0  0  0  0  0  0  0  0  0  0  0  0
  162.0080  207.0370  149.7890 C   0  0  0  0  0  3  0  0  0  0  0  0
  161.7210  209.1980  152.4100 C   0  0  0  0  0  0  0  0  0  0  0  0
  162.8150  207.3380  151.0260 C   0  0  0  0  0  2  0  0  0  0  0  0
  161.9880  207.8180  152.1960 C   0  0  0  0  0  0  0  0  0  0  0  0
  161.8300  205.5180  152.8790 O   0  0  0  0  0  0  0  0  0  0  0  0
  160.8590  204.5610  152.4740 C   0  0  0  0  0  2  0  0  0  0  0  0
  160.5530  204.7220  150.9910 C   0  0  0  0  0  2  0  0  0  0  0  0
  161.1520  201.0480  150.2880 C   0  0  0  0  0  3  0  0  0  0  0  0
  160.7700  203.4150  148.8510 C   0  0  0  0  0  3  0  0  0  0  0  0
  161.1860  201.0300  148.8900 C   0  0  0  0  0  3  0  0  0  0  0  0
  160.9980  202.2140  148.1700 C   0  0  0  0  0  0  0  0  0  0  0  0
  160.7520  203.4370  150.2520 C   0  0  0  0  0  0  0  0  0  0  0  0
  160.9380  202.2510  150.9680 C   0  0  0  0  0  3  0  0  0  0  0  0
  161.0630  202.1980  146.6810 C   0  0  0  0  0  2  0  0  0  0  0  0
  161.0760  204.1430  145.0500 C   0  0  0  0  0  0  0  0  0  0  0  0
  160.0450  203.7080  144.4700 O   0  0  0  0  0  0  0  0  0  0  0  0
  161.6120  203.4530  146.1820 N   0  0  0  0  0  2  0  0  0  0  0  0
  161.7270  205.3650  144.5730 C   0  0  0  0  0  0  0  0  0  0  0  0
  161.4210  205.8550  143.4540 O   0  0  0  0  0  0  0  0  0  0  0  0
  162.6630  205.9780  145.3380 F   0  0  0  0  0  0  0  0  0  0  0  0
  1 10  1  0  0  0  0
  2 16  1  0  0  0  0
  3 12  2  0  0  0  0
  4  9  1  0  0  0  0
  5  8  1  0  0  0  0
  7 14  1  0  0  0  0
  8  6  2  0  0  0  0
  9 11  2  0  0  0  0
 10  9  1  0  0  0  0
 10  5  2  0  0  0  0
 11  6  1  0  0  0  0
 12  2  2  0  0  0  0
 13  3  1  0  0  0  0
 14  3  1  0  0  0  0
 14 15  2  0  0  0  0
 15 17  1  0  0  0  0
 16  4  2  0  0  0  0
 17 18  1  0  0  0  0
 18 16  1  0  0  0  0
 18  1  2  0  0  0  0
 19  1  1  0  0  0  0
 20 19  1  0  0  0  0
 21 20  1  0  0  0  0
 22 27  1  0  0  0  0
 23 26  1  0  0  0  0
 24 22  2  0  0  0  0
 25 23  2  0  0  0  0
 25 24  1  0  0  0  0
 26 27  2  0  0  0  0
 26 21  1  0  0  0  0
 28 25  1  0  0  0  0
 29 31  1  0  0  0  0
 30 29  2  0  0  0  0
 31 28  1  0  0  0  0
 32 29  1  0  0  0  0
 32 34  1  0  0  0  0
 33 32  2  0  0  0  0
M  END
>  <MODEL>
3

>  <REMARK>
 VINA RESULT:      -9.3      2.343      5.097
  Name = 
  7 active torsions:
  status: ('A' for Active; 'I' for Inactive)
    1  A    between atoms: C_1  and  O_9
    2  A    between atoms: C_7  and  C_11
    3  A    between atoms: C_8  and  O_9
    4  A    between atoms: C_8  and  C_18
    5  A    between atoms: C_18  and  C_30
    6  A    between atoms: C_26  and  C_28
    7  A    between atoms: C_26  and  N_29
                            x       y       z     vdW  Elec       q    Type
                         _______ _______ _______ _____ _____    ______ ____

>  <TORSDO>
F 7

$$$$
=
 OpenBabel11062409343D

 34 37  0  0  0  0  0  0  0  0999 V2000
  161.6090  210.3930  151.2980 C   0  0  0  0  0  0  0  0  0  0  0  0
  159.4730  212.4180  153.7310 C   0  0  0  0  0  3  0  0  0  0  0  0
  160.5920  211.6330  155.9290 C   0  0  0  0  0  0  0  0  0  0  0  0
  160.0930  212.7290  151.4130 N   0  0  0  0  0  0  0  0  0  0  0  0
  162.1850  210.9760  148.9660 C   0  0  0  0  0  3  0  0  0  0  0  0
  161.3060  213.0020  147.9800 C   0  0  0  0  0  3  0  0  0  0  0  0
  162.8840  210.7740  156.7020 C   0  0  0  0  0  1  0  0  0  0  0  0
  162.0760  211.8420  147.8750 C   0  0  0  0  0  3  0  0  0  0  0  0
  160.7480  212.4300  150.2650 C   0  0  0  0  0  0  0  0  0  0  0  0
  161.5350  211.2580  150.1770 C   0  0  0  0  0  0  0  0  0  0  0  0
  160.6430  213.2950  149.1730 C   0  0  0  0  0  3  0  0  0  0  0  0
  159.9510  212.0770  154.8890 C   0  0  0  0  0  0  0  0  0  0  0  0
  160.3190  212.2450  157.2610 C   0  0  0  0  0  1  0  0  0  0  0  0
  161.7740  210.7600  155.7090 C   0  0  0  0  0  0  0  0  0  0  0  0
  161.9040  209.9420  154.6490 C   0  0  0  0  0  3  0  0  0  0  0  0
  160.1490  211.9340  152.5110 C   0  0  0  0  0  0  0  0  0  0  0  0
  160.8530  209.7200  153.5930 C   0  0  0  0  0  2  0  0  0  0  0  0
  160.8930  210.7240  152.4650 C   0  0  0  0  0  0  0  0  0  0  0  0
  162.3520  209.1990  151.3130 O   0  0  0  0  0  0  0  0  0  0  0  0
  162.0110  208.0150  150.6020 C   0  0  0  0  0  2  0  0  0  0  0  0
  160.8650  207.2970  151.3010 C   0  0  0  0  0  2  0  0  0  0  0  0
  161.1460  203.5990  152.0760 C   0  0  0  0  0  3  0  0  0  0  0  0
  160.9890  205.2570  149.8310 C   0  0  0  0  0  3  0  0  0  0  0  0
  161.1930  203.0450  150.7930 C   0  0  0  0  0  3  0  0  0  0  0  0
  161.1170  203.8740  149.6700 C   0  0  0  0  0  0  0  0  0  0  0  0
  160.9580  205.8160  151.1160 C   0  0  0  0  0  0  0  0  0  0  0  0
  161.0310  204.9830  152.2380 C   0  0  0  0  0  3  0  0  0  0  0  0
  161.1970  203.2840  148.3030 C   0  0  0  0  0  2  0  0  0  0  0  0
  161.4690  204.0830  145.9090 C   0  0  0  0  0  0  0  0  0  0  0  0
  161.1110  202.9610  145.4570 O   0  0  0  0  0  0  0  0  0  0  0  0
  161.4970  204.3170  147.3200 N   0  0  0  0  0  2  0  0  0  0  0  0
  161.8480  205.1570  144.9890 C   0  0  0  0  0  0  0  0  0  0  0  0
  161.3360  205.2230  143.8410 O   0  0  0  0  0  0  0  0  0  0  0  0
  162.7540  206.0900  145.3720 F   0  0  0  0  0  0  0  0  0  0  0  0
  1 19  1  0  0  0  0
  1 18  1  0  0  0  0
  2 12  2  0  0  0  0
  3 13  1  0  0  0  0
  4 16  1  0  0  0  0
  5 10  1  0  0  0  0
  6 11  2  0  0  0  0
  8  6  1  0  0  0  0
  8  5  2  0  0  0  0
  9  4  2  0  0  0  0
 10  9  1  0  0  0  0
 10  1  2  0  0  0  0
 11  9  1  0  0  0  0
 12  3  2  0  0  0  0
 14  3  1  0  0  0  0
 14  7  1  0  0  0  0
 15 14  2  0  0  0  0
 16  2  1  0  0  0  0
 17 15  1  0  0  0  0
 18 16  2  0  0  0  0
 18 17  1  0  0  0  0
 20 21  1  0  0  0  0
 20 19  1  0  0  0  0
 22 27  1  0  0  0  0
 23 26  1  0  0  0  0
 24 22  2  0  0  0  0
 25 23  2  0  0  0  0
 25 24  1  0  0  0  0
 26 21  1  0  0  0  0
 26 27  2  0  0  0  0
 28 25  1  0  0  0  0
 29 31  1  0  0  0  0
 30 29  2  0  0  0  0
 31 28  1  0  0  0  0
 32 34  1  0  0  0  0
 32 29  1  0  0  0  0
 33 32  2  0  0  0  0
M  END
>  <MODEL>
4

>  <REMARK>
 VINA RESULT:      -9.1      2.959      5.348
  Name = 
  7 active torsions:
  status: ('A' for Active; 'I' for Inactive)
    1  A    between atoms: C_1  and  O_9
    2  A    between atoms: C_7  and  C_11
    3  A    between atoms: C_8  and  O_9
    4  A    between atoms: C_8  and  C_18
    5  A    between atoms: C_18  and  C_30
    6  A    between atoms: C_26  and  C_28
    7  A    between atoms: C_26  and  N_29
                            x       y       z     vdW  Elec       q    Type
                         _______ _______ _______ _____ _____    ______ ____

>  <TORSDO>
F 7

$$$$
=
 OpenBabel11062409343D

 34 37  0  0  0  0  0  0  0  0999 V2000
  161.9810  207.7100  149.9040 C   0  0  0  0  0  0  0  0  0  0  0  0
  161.0360  207.1870  153.5670 C   0  0  0  0  0  3  0  0  0  0  0  0
  160.3690  209.6270  154.1160 C   0  0  0  0  0  0  0  0  0  0  0  0
  161.0690  205.7270  151.6380 N   0  0  0  0  0  0  0  0  0  0  0  0
  161.8380  206.0590  148.0690 C   0  0  0  0  0  3  0  0  0  0  0  0
  161.0880  203.8070  148.5310 C   0  0  0  0  0  3  0  0  0  0  0  0
  159.4570  211.6810  152.8750 C   0  0  0  0  0  1  0  0  0  0  0  0
  161.5440  204.7670  147.6270 C   0  0  0  0  0  3  0  0  0  0  0  0
  161.2250  205.4270  150.3260 C   0  0  0  0  0  0  0  0  0  0  0  0
  161.6750  206.4140  149.4170 C   0  0  0  0  0  0  0  0  0  0  0  0
  160.9300  204.1370  149.8790 C   0  0  0  0  0  3  0  0  0  0  0  0
  160.6950  208.3800  153.9510 C   0  0  0  0  0  0  0  0  0  0  0  0
  159.7010  210.0360  155.3840 C   0  0  0  0  0  1  0  0  0  0  0  0
  160.3950  210.5260  152.9330 C   0  0  0  0  0  0  0  0  0  0  0  0
  161.2300  210.3560  151.8930 C   0  0  0  0  0  3  0  0  0  0  0  0
  161.3390  206.9580  152.1410 C   0  0  0  0  0  0  0  0  0  0  0  0
  162.3090  209.3070  151.8100 C   0  0  0  0  0  2  0  0  0  0  0  0
  161.8320  207.9760  151.2790 C   0  0  0  0  0  0  0  0  0  0  0  0
  162.4450  208.7580  149.0900 O   0  0  0  0  0  0  0  0  0  0  0  0
  161.6240  209.7540  148.4910 C   0  0  0  0  0  2  0  0  0  0  0  0
  162.2950  211.1170  148.5960 C   0  0  0  0  0  2  0  0  0  0  0  0
  159.8750  213.9950  149.0600 C   0  0  0  0  0  3  0  0  0  0  0  0
  160.9570  212.4920  146.9660 C   0  0  0  0  0  3  0  0  0  0  0  0
  159.4880  214.2530  147.7410 C   0  0  0  0  0  3  0  0  0  0  0  0
  160.0260  213.5000  146.6940 C   0  0  0  0  0  0  0  0  0  0  0  0
  161.3340  212.2210  148.2890 C   0  0  0  0  0  0  0  0  0  0  0  0
  160.7950  212.9780  149.3330 C   0  0  0  0  0  3  0  0  0  0  0  0
  159.5900  213.7560  145.2910 C   0  0  0  0  0  2  0  0  0  0  0  0
  160.9310  212.5550  143.5020 C   0  0  0  0  0  0  0  0  0  0  0  0
  160.0800  211.6250  143.4400 O   0  0  0  0  0  0  0  0  0  0  0  0
  160.7250  213.6640  144.3800 N   0  0  0  0  0  2  0  0  0  0  0  0
  162.1320  212.5070  142.6660 C   0  0  0  0  0  0  0  0  0  0  0  0
  162.1120  211.9160  141.5540 O   0  0  0  0  0  0  0  0  0  0  0  0
  163.2740  213.1040  143.0840 F   0  0  0  0  0  0  0  0  0  0  0  0
  1 18  1  0  0  0  0
  2 12  2  0  0  0  0
  3 13  1  0  0  0  0
  4 16  1  0  0  0  0
  5 10  1  0  0  0  0
  6 11  2  0  0  0  0
  7 14  1  0  0  0  0
  8  5  2  0  0  0  0
  8  6  1  0  0  0  0
  9  4  2  0  0  0  0
 10  1  2  0  0  0  0
 10  9  1  0  0  0  0
 11  9  1  0  0  0  0
 12  3  2  0  0  0  0
 14  3  1  0  0  0  0
 15 14  2  0  0  0  0
 16  2  1  0  0  0  0
 17 15  1  0  0  0  0
 18 17  1  0  0  0  0
 18 16  2  0  0  0  0
 19  1  1  0  0  0  0
 20 21  1  0  0  0  0
 20 19  1  0  0  0  0
 22 27  1  0  0  0  0
 23 26  1  0  0  0  0
 24 22  2  0  0  0  0
 25 23  2  0  0  0  0
 25 24  1  0  0  0  0
 26 21  1  0  0  0  0
 26 27  2  0  0  0  0
 28 25  1  0  0  0  0
 29 31  1  0  0  0  0
 30 29  2  0  0  0  0
 31 28  1  0  0  0  0
 32 34  1  0  0  0  0
 32 29  1  0  0  0  0
 33 32  2  0  0  0  0
M  END
>  <MODEL>
5

>  <REMARK>
 VINA RESULT:      -9.0      4.993      6.864
  Name = 
  7 active torsions:
  status: ('A' for Active; 'I' for Inactive)
    1  A    between atoms: C_1  and  O_9
    2  A    between atoms: C_7  and  C_11
    3  A    between atoms: C_8  and  O_9
    4  A    between atoms: C_8  and  C_18
    5  A    between atoms: C_18  and  C_30
    6  A    between atoms: C_26  and  C_28
    7  A    between atoms: C_26  and  N_29
                            x       y       z     vdW  Elec       q    Type
                         _______ _______ _______ _____ _____    ______ ____

>  <TORSDO>
F 7

$$$$
=
 OpenBabel11062409343D

 34 37  0  0  0  0  0  0  0  0999 V2000
  160.9800  207.4190  150.7450 C   0  0  0  0  0  0  0  0  0  0  0  0
  160.4630  203.6660  150.2680 C   0  0  0  0  0  3  0  0  0  0  0  0
  161.3900  203.4800  147.8590 C   0  0  0  0  0  0  0  0  0  0  0  0
  160.7990  205.0600  152.2170 N   0  0  0  0  0  0  0  0  0  0  0  0
  161.4050  208.6170  152.8650 C   0  0  0  0  0  3  0  0  0  0  0  0
  161.4610  207.3910  154.9490 C   0  0  0  0  0  3  0  0  0  0  0  0
  163.0820  204.7040  146.3650 C   0  0  0  0  0  1  0  0  0  0  0  0
  161.5590  208.5970  154.2540 C   0  0  0  0  0  3  0  0  0  0  0  0
  161.0500  206.2210  152.8700 C   0  0  0  0  0  0  0  0  0  0  0  0
  161.1600  207.4350  152.1500 C   0  0  0  0  0  0  0  0  0  0  0  0
  161.2070  206.2060  154.2580 C   0  0  0  0  0  3  0  0  0  0  0  0
  160.8890  203.4660  149.0580 C   0  0  0  0  0  0  0  0  0  0  0  0
  161.6450  202.1840  147.1690 C   0  0  0  0  0  1  0  0  0  0  0  0
  161.9640  204.7520  147.3480 C   0  0  0  0  0  0  0  0  0  0  0  0
  161.5270  205.9660  147.7260 C   0  0  0  0  0  3  0  0  0  0  0  0
  160.6340  205.0030  150.8720 C   0  0  0  0  0  0  0  0  0  0  0  0
  160.3510  206.2200  148.6340 C   0  0  0  0  0  2  0  0  0  0  0  0
  160.6950  206.1980  150.1050 C   0  0  0  0  0  0  0  0  0  0  0  0
  161.0570  208.5690  149.9380 O   0  0  0  0  0  0  0  0  0  0  0  0
  162.1220  209.5120  149.9560 C   0  0  0  0  0  2  0  0  0  0  0  0
  162.3310  210.0920  148.5640 C   0  0  0  0  0  2  0  0  0  0  0  0
  162.7190  213.7650  147.7210 C   0  0  0  0  0  3  0  0  0  0  0  0
  161.1490  212.1580  149.3840 C   0  0  0  0  0  3  0  0  0  0  0  0
  161.7670  214.3500  148.5620 C   0  0  0  0  0  3  0  0  0  0  0  0
  160.9830  213.5470  149.3960 C   0  0  0  0  0  0  0  0  0  0  0  0
  162.1140  211.5710  148.5540 C   0  0  0  0  0  0  0  0  0  0  0  0
  162.8950  212.3780  147.7190 C   0  0  0  0  0  3  0  0  0  0  0  0
  159.9890  214.1740  150.3140 C   0  0  0  0  0  2  0  0  0  0  0  0
  158.3950  213.1200  151.9840 C   0  0  0  0  0  0  0  0  0  0  0  0
  157.4060  213.6980  151.4570 O   0  0  0  0  0  0  0  0  0  0  0  0
  159.7060  213.2900  151.4370 N   0  0  0  0  0  2  0  0  0  0  0  0
  158.2060  212.2630  153.1560 C   0  0  0  0  0  0  0  0  0  0  0  0
  157.5370  212.6710  154.1430 O   0  0  0  0  0  0  0  0  0  0  0  0
  158.7490  211.0220  153.1840 F   0  0  0  0  0  0  0  0  0  0  0  0
  1 10  1  0  0  0  0
  2 16  1  0  0  0  0
  3 12  2  0  0  0  0
  4  9  1  0  0  0  0
  5  8  1  0  0  0  0
  7 14  1  0  0  0  0
  8  6  2  0  0  0  0
  9 11  2  0  0  0  0
 10  5  2  0  0  0  0
 10  9  1  0  0  0  0
 11  6  1  0  0  0  0
 12  2  2  0  0  0  0
 13  3  1  0  0  0  0
 14 15  2  0  0  0  0
 14  3  1  0  0  0  0
 15 17  1  0  0  0  0
 16  4  2  0  0  0  0
 17 18  1  0  0  0  0
 18  1  2  0  0  0  0
 18 16  1  0  0  0  0
 19 20  1  0  0  0  0
 19  1  1  0  0  0  0
 21 20  1  0  0  0  0
 22 24  1  0  0  0  0
 23 25  1  0  0  0  0
 24 25  2  0  0  0  0
 25 28  1  0  0  0  0
 26 21  1  0  0  0  0
 26 23  2  0  0  0  0
 27 22  2  0  0  0  0
 27 26  1  0  0  0  0
 28 31  1  0  0  0  0
 29 32  1  0  0  0  0
 30 29  2  0  0  0  0
 31 29  1  0  0  0  0
 32 34  1  0  0  0  0
 32 33  2  0  0  0  0
M  END
>  <MODEL>
6

>  <REMARK>
 VINA RESULT:      -8.7      4.077      8.607
  Name = 
  7 active torsions:
  status: ('A' for Active; 'I' for Inactive)
    1  A    between atoms: C_1  and  O_9
    2  A    between atoms: C_7  and  C_11
    3  A    between atoms: C_8  and  O_9
    4  A    between atoms: C_8  and  C_18
    5  A    between atoms: C_18  and  C_30
    6  A    between atoms: C_26  and  C_28
    7  A    between atoms: C_26  and  N_29
                            x       y       z     vdW  Elec       q    Type
                         _______ _______ _______ _____ _____    ______ ____

>  <TORSDO>
F 7

$$$$
=
 OpenBabel11062409343D

 34 37  0  0  0  0  0  0  0  0999 V2000
  161.0300  207.5430  150.2470 C   0  0  0  0  0  0  0  0  0  0  0  0
  160.6220  203.7600  149.9280 C   0  0  0  0  0  3  0  0  0  0  0  0
  161.5800  203.4970  147.5380 C   0  0  0  0  0  0  0  0  0  0  0  0
  160.8970  205.2450  151.8180 N   0  0  0  0  0  0  0  0  0  0  0  0
  161.3980  208.8420  152.3190 C   0  0  0  0  0  3  0  0  0  0  0  0
  161.4640  207.7080  154.4540 C   0  0  0  0  0  3  0  0  0  0  0  0
  163.2550  204.7030  146.0100 C   0  0  0  0  0  1  0  0  0  0  0  0
  161.5360  208.8860  153.7080 C   0  0  0  0  0  3  0  0  0  0  0  0
  161.1090  206.4390  152.4230 C   0  0  0  0  0  0  0  0  0  0  0  0
  161.1930  207.6240  151.6530 C   0  0  0  0  0  0  0  0  0  0  0  0
  161.2500  206.4870  153.8120 C   0  0  0  0  0  3  0  0  0  0  0  0
  161.0670  203.5210  148.7320 C   0  0  0  0  0  0  0  0  0  0  0  0
  161.8800  202.1800  146.9070 C   0  0  0  0  0  1  0  0  0  0  0  0
  162.1250  204.7620  146.9790 C   0  0  0  0  0  0  0  0  0  0  0  0
  161.6500  205.9790  147.3000 C   0  0  0  0  0  3  0  0  0  0  0  0
  160.7490  205.1250  150.4750 C   0  0  0  0  0  0  0  0  0  0  0  0
  160.4580  206.2370  148.1840 C   0  0  0  0  0  2  0  0  0  0  0  0
  160.7860  206.2890  149.6580 C   0  0  0  0  0  0  0  0  0  0  0  0
  161.0840  208.6590  149.3930 O   0  0  0  0  0  0  0  0  0  0  0  0
  162.2780  209.3060  148.9660 C   0  0  0  0  0  2  0  0  0  0  0  0
  162.3310  210.7230  149.5190 C   0  0  0  0  0  2  0  0  0  0  0  0
  162.7390  213.7510  147.2800 C   0  0  0  0  0  3  0  0  0  0  0  0
  160.9330  211.6490  147.6420 C   0  0  0  0  0  3  0  0  0  0  0  0
  161.5890  213.6730  146.4880 C   0  0  0  0  0  3  0  0  0  0  0  0
  160.6830  212.6240  146.6710 C   0  0  0  0  0  0  0  0  0  0  0  0
  162.0760  211.7350  148.4480 C   0  0  0  0  0  0  0  0  0  0  0  0
  162.9810  212.7850  148.2600 C   0  0  0  0  0  3  0  0  0  0  0  0
  159.4430  212.5580  145.8450 C   0  0  0  0  0  2  0  0  0  0  0  0
  159.8530  212.7730  143.3500 C   0  0  0  0  0  0  0  0  0  0  0  0
  159.7730  214.0300  143.4100 O   0  0  0  0  0  0  0  0  0  0  0  0
  159.7320  211.9840  144.5370 N   0  0  0  0  0  2  0  0  0  0  0  0
  160.0800  212.1130  142.0630 C   0  0  0  0  0  0  0  0  0  0  0  0
  161.1330  211.4530  141.8620 O   0  0  0  0  0  0  0  0  0  0  0  0
  159.1520  212.2060  141.0790 F   0  0  0  0  0  0  0  0  0  0  0  0
  1 10  1  0  0  0  0
  2 16  1  0  0  0  0
  3 12  2  0  0  0  0
  4  9  1  0  0  0  0
  5  8  1  0  0  0  0
  7 14  1  0  0  0  0
  8  6  2  0  0  0  0
  9 11  2  0  0  0  0
 10  5  2  0  0  0  0
 10  9  1  0  0  0  0
 11  6  1  0  0  0  0
 12  2  2  0  0  0  0
 13  3  1  0  0  0  0
 14 15  2  0  0  0  0
 14  3  1  0  0  0  0
 15 17  1  0  0  0  0
 16  4  2  0  0  0  0
 17 18  1  0  0  0  0
 18  1  2  0  0  0  0
 18 16  1  0  0  0  0
 19  1  1  0  0  0  0
 20 19  1  0  0  0  0
 20 21  1  0  0  0  0
 22 27  1  0  0  0  0
 23 26  1  0  0  0  0
 24 25  1  0  0  0  0
 24 22  2  0  0  0  0
 25 23  2  0  0  0  0
 26 21  1  0  0  0  0
 27 26  2  0  0  0  0
 28 25  1  0  0  0  0
 29 30  2  0  0  0  0
 29 31  1  0  0  0  0
 31 28  1  0  0  0  0
 32 29  1  0  0  0  0
 33 32  2  0  0  0  0
 34 32  1  0  0  0  0
M  END
>  <MODEL>
7

>  <REMARK>
 VINA RESULT:      -8.7      4.902      8.077
  Name = 
  7 active torsions:
  status: ('A' for Active; 'I' for Inactive)
    1  A    between atoms: C_1  and  O_9
    2  A    between atoms: C_7  and  C_11
    3  A    between atoms: C_8  and  O_9
    4  A    between atoms: C_8  and  C_18
    5  A    between atoms: C_18  and  C_30
    6  A    between atoms: C_26  and  C_28
    7  A    between atoms: C_26  and  N_29
                            x       y       z     vdW  Elec       q    Type
                         _______ _______ _______ _____ _____    ______ ____

>  <TORSDO>
F 7

$$$$
=
 OpenBabel11062409343D

 34 37  0  0  0  0  0  0  0  0999 V2000
  161.0330  207.4510  150.3100 C   0  0  0  0  0  0  0  0  0  0  0  0
  160.5750  203.6850  149.8790 C   0  0  0  0  0  3  0  0  0  0  0  0
  161.5490  203.4770  147.4900 C   0  0  0  0  0  0  0  0  0  0  0  0
  160.8550  205.1110  151.8130 N   0  0  0  0  0  0  0  0  0  0  0  0
  161.4010  208.6850  152.4210 C   0  0  0  0  0  3  0  0  0  0  0  0
  161.4350  207.4900  154.5230 C   0  0  0  0  0  3  0  0  0  0  0  0
  163.2520  204.7030  146.0100 C   0  0  0  0  0  1  0  0  0  0  0  0
  161.5290  208.6870  153.8120 C   0  0  0  0  0  3  0  0  0  0  0  0
  161.0780  206.2850  152.4530 C   0  0  0  0  0  0  0  0  0  0  0  0
  161.1850  207.4890  151.7180 C   0  0  0  0  0  0  0  0  0  0  0  0
  161.2090  206.2910  153.8440 C   0  0  0  0  0  3  0  0  0  0  0  0
  161.0260  203.4740  148.6800 C   0  0  0  0  0  0  0  0  0  0  0  0
  161.8350  202.1750  146.8230 C   0  0  0  0  0  1  0  0  0  0  0  0
  162.1160  204.7500  146.9710 C   0  0  0  0  0  0  0  0  0  0  0  0
  161.6550  205.9630  147.3240 C   0  0  0  0  0  3  0  0  0  0  0  0
  160.7160  205.0320  150.4660 C   0  0  0  0  0  0  0  0  0  0  0  0
  160.4590  206.2130  148.2060 C   0  0  0  0  0  2  0  0  0  0  0  0
  160.7750  206.2180  149.6830 C   0  0  0  0  0  0  0  0  0  0  0  0
  161.1090  208.5900  149.4880 O   0  0  0  0  0  0  0  0  0  0  0  0
  162.3100  209.2700  149.1410 C   0  0  0  0  0  2  0  0  0  0  0  0
  162.2680  210.7020  149.6560 C   0  0  0  0  0  2  0  0  0  0  0  0
  163.1880  213.0770  146.8520 C   0  0  0  0  0  3  0  0  0  0  0  0
  160.8830  212.1510  148.1340 C   0  0  0  0  0  3  0  0  0  0  0  0
  161.9330  213.5580  146.4670 C   0  0  0  0  0  3  0  0  0  0  0  0
  160.7790  213.0970  147.1090 C   0  0  0  0  0  0  0  0  0  0  0  0
  162.1420  211.6800  148.5330 C   0  0  0  0  0  0  0  0  0  0  0  0
  163.2920  212.1420  147.8860 C   0  0  0  0  0  3  0  0  0  0  0  0
  159.4440  213.6330  146.7170 C   0  0  0  0  0  2  0  0  0  0  0  0
  157.4470  213.1760  148.2140 C   0  0  0  0  0  0  0  0  0  0  0  0
  157.0820  212.2090  147.4920 O   0  0  0  0  0  0  0  0  0  0  0  0
  158.6370  213.9030  147.9000 N   0  0  0  0  0  2  0  0  0  0  0  0
  156.6560  213.5540  149.3880 C   0  0  0  0  0  0  0  0  0  0  0  0
  155.5240  214.0870  149.2490 O   0  0  0  0  0  0  0  0  0  0  0  0
  157.1400  213.3280  150.6330 F   0  0  0  0  0  0  0  0  0  0  0  0
  1 10  1  0  0  0  0
  2 16  1  0  0  0  0
  3 12  2  0  0  0  0
  4  9  1  0  0  0  0
  5  8  1  0  0  0  0
  7 14  1  0  0  0  0
  8  6  2  0  0  0  0
  9 11  2  0  0  0  0
 10  5  2  0  0  0  0
 10  9  1  0  0  0  0
 11  6  1  0  0  0  0
 12  2  2  0  0  0  0
 13  3  1  0  0  0  0
 14 15  2  0  0  0  0
 14  3  1  0  0  0  0
 15 17  1  0  0  0  0
 16  4  2  0  0  0  0
 17 18  1  0  0  0  0
 18  1  2  0  0  0  0
 18 16  1  0  0  0  0
 19  1  1  0  0  0  0
 20 19  1  0  0  0  0
 20 21  1  0  0  0  0
 22 27  1  0  0  0  0
 23 26  1  0  0  0  0
 24 22  2  0  0  0  0
 24 25  1  0  0  0  0
 25 23  2  0  0  0  0
 26 21  1  0  0  0  0
 27 26  2  0  0  0  0
 28 25  1  0  0  0  0
 28 31  1  0  0  0  0
 29 32  1  0  0  0  0
 30 29  2  0  0  0  0
 31 29  1  0  0  0  0
 32 34  1  0  0  0  0
 33 32  2  0  0  0  0
M  END
>  <MODEL>
8

>  <REMARK>
 VINA RESULT:      -8.7      4.710      8.440
  Name = 
  7 active torsions:
  status: ('A' for Active; 'I' for Inactive)
    1  A    between atoms: C_1  and  O_9
    2  A    between atoms: C_7  and  C_11
    3  A    between atoms: C_8  and  O_9
    4  A    between atoms: C_8  and  C_18
    5  A    between atoms: C_18  and  C_30
    6  A    between atoms: C_26  and  C_28
    7  A    between atoms: C_26  and  N_29
                            x       y       z     vdW  Elec       q    Type
                         _______ _______ _______ _____ _____    ______ ____

>  <TORSDO>
F 7

$$$$
=
 OpenBabel11062409343D

 34 37  0  0  0  0  0  0  0  0999 V2000
  161.5790  207.6820  151.3230 C   0  0  0  0  0  0  0  0  0  0  0  0
  161.0480  209.1290  154.8170 C   0  0  0  0  0  3  0  0  0  0  0  0
  160.2380  211.4830  154.1090 C   0  0  0  0  0  0  0  0  0  0  0  0
  161.0120  206.8780  153.9310 N   0  0  0  0  0  0  0  0  0  0  0  0
  161.3930  205.3130  150.6380 C   0  0  0  0  0  3  0  0  0  0  0  0
  160.8830  203.6200  152.2870 C   0  0  0  0  0  3  0  0  0  0  0  0
  159.0400  212.5700  152.1150 C   0  0  0  0  0  1  0  0  0  0  0  0
  161.1660  203.9750  150.9670 C   0  0  0  0  0  3  0  0  0  0  0  0
  161.0620  205.9410  152.9540 C   0  0  0  0  0  0  0  0  0  0  0  0
  161.3360  206.3170  151.6170 C   0  0  0  0  0  0  0  0  0  0  0  0
  160.8320  204.6010  153.2780 C   0  0  0  0  0  3  0  0  0  0  0  0
  160.6490  210.3400  154.5710 C   0  0  0  0  0  0  0  0  0  0  0  0
  159.6660  212.4810  155.0580 C   0  0  0  0  0  1  0  0  0  0  0  0
  160.0710  211.6330  152.6400 C   0  0  0  0  0  0  0  0  0  0  0  0
  160.8110  210.9610  151.7390 C   0  0  0  0  0  3  0  0  0  0  0  0
  161.2270  208.1950  153.6880 C   0  0  0  0  0  0  0  0  0  0  0  0
  161.9590  210.0450  152.0720 C   0  0  0  0  0  2  0  0  0  0  0  0
  161.5450  208.6230  152.3690 C   0  0  0  0  0  0  0  0  0  0  0  0
  161.8710  208.1600  150.0330 O   0  0  0  0  0  0  0  0  0  0  0  0
  161.2710  207.6900  148.8320 C   0  0  0  0  0  2  0  0  0  0  0  0
  162.3470  207.3170  147.8210 C   0  0  0  0  0  2  0  0  0  0  0  0
  160.7680  205.8360  144.7120 C   0  0  0  0  0  3  0  0  0  0  0  0
  161.9170  204.9450  147.1000 C   0  0  0  0  0  3  0  0  0  0  0  0
  160.8310  204.4670  144.9900 C   0  0  0  0  0  3  0  0  0  0  0  0
  161.4030  204.0200  146.1850 C   0  0  0  0  0  0  0  0  0  0  0  0
  161.8410  206.3180  146.8310 C   0  0  0  0  0  0  0  0  0  0  0  0
  161.2700  206.7600  145.6330 C   0  0  0  0  0  3  0  0  0  0  0  0
  161.4420  202.5610  146.4920 C   0  0  0  0  0  2  0  0  0  0  0  0
  160.9030  201.0290  148.4420 C   0  0  0  0  0  0  0  0  0  0  0  0
  161.5820  200.0930  147.9390 O   0  0  0  0  0  0  0  0  0  0  0  0
  160.8240  202.2970  147.7850 N   0  0  0  0  0  2  0  0  0  0  0  0
  160.1980  200.8260  149.7090 C   0  0  0  0  0  0  0  0  0  0  0  0
  160.8380  200.5350  150.7550 O   0  0  0  0  0  0  0  0  0  0  0  0
  158.8500  200.9520  149.7640 F   0  0  0  0  0  0  0  0  0  0  0  0
  1 10  2  0  0  0  0
  1 18  1  0  0  0  0
  3 12  2  0  0  0  0
  3 13  1  0  0  0  0
  5  8  2  0  0  0  0
  5 10  1  0  0  0  0
  6 11  2  0  0  0  0
  7 14  1  0  0  0  0
  8  6  1  0  0  0  0
  9 11  1  0  0  0  0
  9  4  2  0  0  0  0
 10  9  1  0  0  0  0
 12  2  2  0  0  0  0
 14  3  1  0  0  0  0
 15 17  1  0  0  0  0
 15 14  2  0  0  0  0
 16  4  1  0  0  0  0
 16  2  1  0  0  0  0
 17 18  1  0  0  0  0
 18 16  2  0  0  0  0
 19  1  1  0  0  0  0
 20 19  1  0  0  0  0
 21 20  1  0  0  0  0
 22 24  2  0  0  0  0
 22 27  1  0  0  0  0
 24 25  1  0  0  0  0
 25 28  1  0  0  0  0
 25 23  2  0  0  0  0
 26 23  1  0  0  0  0
 26 21  1  0  0  0  0
 27 26  2  0  0  0  0
 28 31  1  0  0  0  0
 29 32  1  0  0  0  0
 30 29  2  0  0  0  0
 31 29  1  0  0  0  0
 32 34  1  0  0  0  0
 32 33  2  0  0  0  0
M  END
>  <MODEL>
9

>  <REMARK>
 VINA RESULT:      -8.6      1.650      2.056
  Name = 
  7 active torsions:
  status: ('A' for Active; 'I' for Inactive)
    1  A    between atoms: C_1  and  O_9
    2  A    between atoms: C_7  and  C_11
    3  A    between atoms: C_8  and  O_9
    4  A    between atoms: C_8  and  C_18
    5  A    between atoms: C_18  and  C_30
    6  A    between atoms: C_26  and  C_28
    7  A    between atoms: C_26  and  N_29
                            x       y       z     vdW  Elec       q    Type
                         _______ _______ _______ _____ _____    ______ ____

>  <TORSDO>
F 7

$$$$
