=
 OpenBabel11062409073D

 37 42  0  0  1  0  0  0  0  0999 V2000
  161.0930  205.4160  147.2660 C   0  0  1  0  0  0  0  0  0  0  0  0
  160.3380  201.5610  148.3800 C   0  0  0  0  0  0  0  0  0  0  0  0
  160.7480  204.0170  151.0730 C   0  0  0  0  0  0  0  0  0  0  0  0
  162.2490  205.8060  146.3340 C   0  0  1  0  0  3  0  0  0  0  0  0
  161.6610  201.4260  150.5960 C   0  0  0  0  0  3  0  0  0  0  0  0
  160.5800  205.4040  150.9580 C   0  0  0  0  0  0  0  0  0  0  0  0
  163.7710  206.7940  147.9480 C   0  0  0  0  0  0  0  0  0  0  0  0
  160.0750  203.1870  150.2010 C   0  0  0  0  0  3  0  0  0  0  0  0
  161.2090  206.2420  151.9170 C   0  0  0  0  0  0  0  0  0  0  0  0
  163.2090  201.6490  152.4010 F   0  0  0  0  0  0  0  0  0  0  0  0
  163.4780  205.7760  147.0450 O   0  0  0  0  0  0  0  0  0  0  0  0
  160.7460  203.9850  147.3660 C   0  0  0  0  0  0  0  0  0  0  0  0
  158.9090  201.0840  148.2010 C   0  0  0  0  0  1  0  0  0  0  0  0
  162.4250  204.3160  152.7330 N   0  0  0  0  0  0  0  0  0  0  0  0
  162.1850  202.1630  151.6750 C   0  0  0  0  0  0  0  0  0  0  0  0
  160.5460  202.8180  147.6210 C   0  0  0  0  0  0  0  0  0  0  0  0
  162.8620  207.9730  148.0420 C   0  0  0  0  0  2  0  0  0  0  0  0
  159.8880  205.9330  149.7030 C   0  0  0  0  0  2  0  0  0  0  0  0
  161.7720  203.4930  151.8730 C   0  0  0  0  0  0  0  0  0  0  0  0
  160.8500  206.3000  148.5420 C   0  0  1  0  0  0  0  0  0  0  0  0
  160.5890  201.9410  149.8390 C   0  0  0  0  0  0  0  0  0  0  0  0
  161.2920  200.4930  147.8690 C   0  0  0  0  0  1  0  0  0  0  0  0
  161.5530  207.6590  148.7710 C   0  0  0  0  0  2  0  0  0  0  0  0
  164.8000  206.7280  148.6700 O   0  0  0  0  0  0  0  0  0  0  0  0
  159.9600  206.4040  147.2950 C   0  0  0  0  0  2  0  0  0  0  0  0
  162.1390  205.6460  152.7940 C   0  0  0  0  0  3  0  0  0  0  0  0
  160.8430  208.4000  150.9700 O   0  0  0  0  0  0  0  0  0  0  0  0
  160.9140  207.7050  152.0230 C   0  0  0  0  0  0  0  0  0  0  0  0
  160.4290  207.6260  154.5640 C   0  0  0  0  0  3  0  0  0  0  0  0
  160.6600  208.3900  153.3170 C   0  0  0  0  0  0  0  0  0  0  0  0
  160.5780  209.7260  153.3360 C   0  0  0  0  0  3  0  0  0  0  0  0
  160.2310  211.7110  154.5660 O   0  0  0  0  0  0  0  0  0  0  0  0
  160.0550  209.7170  155.8720 C   0  0  0  0  0  2  0  0  0  0  0  0
  160.2900  210.4540  154.5810 C   0  0  0  0  0  0  0  0  0  0  0  0
  160.1540  208.2240  155.7260 C   0  0  0  0  0  3  0  0  0  0  0  0
  161.2210  205.1850  144.2600 F   0  0  0  0  0  0  0  0  0  0  0  0
  162.3340  204.9760  145.0560 C   0  0  0  0  0  2  0  0  0  0  0  0
  1 25  1  6  0  0  0
  1 12  1  0  0  0  0
  1 20  1  0  0  0  0
  2 21  1  0  0  0  0
  3 19  1  0  0  0  0
  4 37  1  6  0  0  0
  4 11  1  0  0  0  0
  4  1  1  0  0  0  0
  5 15  1  0  0  0  0
  6  3  1  0  0  0  0
  6  9  2  0  0  0  0
  7 17  1  0  0  0  0
  7 24  2  0  0  0  0
  8  3  2  0  0  0  0
  9 28  1  0  0  0  0
  9 26  1  0  0  0  0
 11  7  1  0  0  0  0
 12 16  3  0  0  0  0
 13  2  1  0  0  0  0
 14 26  2  0  0  0  0
 15 19  2  0  0  0  0
 15 10  1  0  0  0  0
 16  2  1  0  0  0  0
 17 23  1  0  0  0  0
 18  6  1  0  0  0  0
 19 14  1  0  0  0  0
 20 25  1  6  0  0  0
 20 23  1  0  0  0  0
 20 18  1  0  0  0  0
 21  8  1  0  0  0  0
 21  5  2  0  0  0  0
 22  2  1  0  0  0  0
 27 28  2  0  0  0  0
 28 30  1  0  0  0  0
 29 35  2  0  0  0  0
 30 31  2  0  0  0  0
 30 29  1  0  0  0  0
 31 34  1  0  0  0  0
 32 34  2  0  0  0  0
 34 33  1  0  0  0  0
 35 33  1  0  0  0  0
 36 37  1  0  0  0  0
M  END
>  <MODEL>
1

>  <REMARK>
 VINA RESULT:       0.4      0.000      0.000
  Name = 
  3 active torsions:
  status: ('A' for Active; 'I' for Inactive)
    1  A    between atoms: C_5  and  C_23
    2  A    between atoms: C_6  and  C_31
    3  A    between atoms: C_14  and  C_31
                            x       y       z     vdW  Elec       q    Type
                         _______ _______ _______ _____ _____    ______ ____

>  <TORSDO>
F 3

$$$$
=
 OpenBabel11062409073D

 37 42  0  0  1  0  0  0  0  0999 V2000
  159.8910  210.5710  155.3360 C   0  0  1  0  0  0  0  0  0  0  0  0
  158.6420  212.9670  152.2750 C   0  0  0  0  0  0  0  0  0  0  0  0
  160.4500  209.9110  151.3580 C   0  0  0  0  0  0  0  0  0  0  0  0
  160.7500  211.0820  156.5010 C   0  0  1  0  0  3  0  0  0  0  0  0
  160.5270  212.5790  150.5500 C   0  0  0  0  0  3  0  0  0  0  0  0
  160.5860  208.7630  152.1510 C   0  0  0  0  0  0  0  0  0  0  0  0
  162.8920  210.1100  155.8980 C   0  0  0  0  0  0  0  0  0  0  0  0
  159.3600  210.7330  151.5520 C   0  0  0  0  0  3  0  0  0  0  0  0
  161.6660  207.8810  151.8800 C   0  0  0  0  0  0  0  0  0  0  0  0
  162.5740  212.1610  149.3930 F   0  0  0  0  0  0  0  0  0  0  0  0
  162.0970  211.2390  156.0800 O   0  0  0  0  0  0  0  0  0  0  0  0
  159.2670  211.5750  154.4520 C   0  0  0  0  0  0  0  0  0  0  0  0
  157.1590  212.9190  151.9540 C   0  0  0  0  0  1  0  0  0  0  0  0
  162.5870  209.5410  150.3820 N   0  0  0  0  0  0  0  0  0  0  0  0
  161.5250  211.6880  150.1100 C   0  0  0  0  0  0  0  0  0  0  0  0
  158.8880  212.3460  153.6000 C   0  0  0  0  0  0  0  0  0  0  0  0
  162.3640  208.7720  156.2920 C   0  0  0  0  0  2  0  0  0  0  0  0
  159.6770  208.6320  153.3720 C   0  0  0  0  0  2  0  0  0  0  0  0
  161.5220  210.3590  150.5730 C   0  0  0  0  0  0  0  0  0  0  0  0
  160.2800  209.1930  154.6870 C   0  0  1  0  0  0  0  0  0  0  0  0
  159.4240  212.1020  151.2870 C   0  0  0  0  0  0  0  0  0  0  0  0
  159.1040  214.4150  152.2960 C   0  0  0  0  0  1  0  0  0  0  0  0
  161.3190  208.2330  155.3130 C   0  0  0  0  0  2  0  0  0  0  0  0
  164.0500  210.2190  155.4180 O   0  0  0  0  0  0  0  0  0  0  0  0
  159.0920  209.3370  155.6490 C   0  0  0  0  0  2  0  0  0  0  0  0
  162.6580  208.3190  150.9790 C   0  0  0  0  0  3  0  0  0  0  0  0
  162.0260  206.4330  153.7420 O   0  0  0  0  0  0  0  0  0  0  0  0
  161.7730  206.5260  152.5080 C   0  0  0  0  0  0  0  0  0  0  0  0
  160.7450  205.2290  150.5180 C   0  0  0  0  0  3  0  0  0  0  0  0
  161.5600  205.2630  151.7530 C   0  0  0  0  0  0  0  0  0  0  0  0
  162.0680  204.1250  152.2420 C   0  0  0  0  0  3  0  0  0  0  0  0
  162.3560  201.7900  152.0380 O   0  0  0  0  0  0  0  0  0  0  0  0
  161.0390  202.7610  150.2960 C   0  0  0  0  0  2  0  0  0  0  0  0
  161.8550  202.8410  151.5570 C   0  0  0  0  0  0  0  0  0  0  0  0
  160.5060  204.0960  149.8520 C   0  0  0  0  0  3  0  0  0  0  0  0
  160.9920  213.4500  156.7800 F   0  0  0  0  0  0  0  0  0  0  0  0
  160.2270  212.3580  157.1540 C   0  0  0  0  0  2  0  0  0  0  0  0
  1 12  1  6  0  0  0
  1 25  1  0  0  0  0
  1  4  1  0  0  0  0
  2 22  1  0  0  0  0
  2 16  1  0  0  0  0
  3  8  1  0  0  0  0
  3  6  1  0  0  0  0
  4 37  1  6  0  0  0
  5 21  1  0  0  0  0
  6 18  1  0  0  0  0
  7 11  1  0  0  0  0
  7 17  1  0  0  0  0
  9  6  2  0  0  0  0
  9 28  1  0  0  0  0
 10 15  1  0  0  0  0
 11  4  1  0  0  0  0
 13  2  1  0  0  0  0
 14 19  1  0  0  0  0
 14 26  2  0  0  0  0
 15  5  2  0  0  0  0
 15 19  1  0  0  0  0
 16 12  3  0  0  0  0
 19  3  2  0  0  0  0
 20 18  1  6  0  0  0
 20 23  1  0  0  0  0
 20  1  1  0  0  0  0
 20 25  1  0  0  0  0
 21  8  2  0  0  0  0
 21  2  1  0  0  0  0
 23 17  1  0  0  0  0
 24  7  2  0  0  0  0
 26  9  1  0  0  0  0
 28 27  2  0  0  0  0
 29 30  1  0  0  0  0
 30 31  2  0  0  0  0
 30 28  1  0  0  0  0
 33 34  1  0  0  0  0
 34 32  2  0  0  0  0
 34 31  1  0  0  0  0
 35 33  1  0  0  0  0
 35 29  2  0  0  0  0
 36 37  1  0  0  0  0
M  END
>  <MODEL>
2

>  <REMARK>
 VINA RESULT:       1.4      3.761      8.959
  Name = 
  3 active torsions:
  status: ('A' for Active; 'I' for Inactive)
    1  A    between atoms: C_5  and  C_23
    2  A    between atoms: C_6  and  C_31
    3  A    between atoms: C_14  and  C_31
                            x       y       z     vdW  Elec       q    Type
                         _______ _______ _______ _____ _____    ______ ____

>  <TORSDO>
F 3

$$$$
=
 OpenBabel11062409073D

 37 42  0  0  1  0  0  0  0  0999 V2000
  162.2800  210.0550  150.8380 C   0  0  1  0  0  0  0  0  0  0  0  0
  160.4750  213.1290  148.8470 C   0  0  0  0  0  0  0  0  0  0  0  0
  159.6360  212.7300  152.3950 C   0  0  0  0  0  0  0  0  0  0  0  0
  162.2220  208.5990  150.3560 C   0  0  1  0  0  3  0  0  0  0  0  0
  158.1940  213.2230  150.0600 C   0  0  0  0  0  3  0  0  0  0  0  0
  160.4120  212.0690  153.3570 C   0  0  0  0  0  0  0  0  0  0  0  0
  160.6490  207.6890  151.9670 C   0  0  0  0  0  0  0  0  0  0  0  0
  160.2580  213.2690  151.2890 C   0  0  0  0  0  3  0  0  0  0  0  0
  159.7700  211.5950  154.5330 C   0  0  0  0  0  0  0  0  0  0  0  0
  156.1610  212.7820  151.2320 F   0  0  0  0  0  0  0  0  0  0  0  0
  160.9520  208.0380  150.6530 O   0  0  0  0  0  0  0  0  0  0  0  0
  161.8420  211.1060  149.8980 C   0  0  0  0  0  0  0  0  0  0  0  0
  161.3450  214.3380  148.5580 C   0  0  0  0  0  1  0  0  0  0  0  0
  157.6340  212.0910  153.5100 N   0  0  0  0  0  0  0  0  0  0  0  0
  157.5080  212.9320  151.2550 C   0  0  0  0  0  0  0  0  0  0  0  0
  161.3270  211.9790  149.2370 C   0  0  0  0  0  0  0  0  0  0  0  0
  161.7130  207.7680  153.0090 C   0  0  0  0  0  2  0  0  0  0  0  0
  161.8590  211.7360  152.9960 C   0  0  0  0  0  2  0  0  0  0  0  0
  158.2390  212.6170  152.4150 C   0  0  0  0  0  0  0  0  0  0  0  0
  162.0590  210.3310  152.3690 C   0  0  1  0  0  0  0  0  0  0  0  0
  159.5940  213.3930  150.0680 C   0  0  0  0  0  0  0  0  0  0  0  0
  159.6780  212.7740  147.6020 C   0  0  0  0  0  1  0  0  0  0  0  0
  162.0270  209.2050  153.4300 C   0  0  0  0  0  2  0  0  0  0  0  0
  159.4920  207.2980  152.2700 O   0  0  0  0  0  0  0  0  0  0  0  0
  163.4520  210.3680  151.7250 C   0  0  0  0  0  2  0  0  0  0  0  0
  158.3600  211.6230  154.5630 C   0  0  0  0  0  3  0  0  0  0  0  0
  161.2000  211.8950  156.4180 O   0  0  0  0  0  0  0  0  0  0  0  0
  160.5330  211.0850  155.7150 C   0  0  0  0  0  0  0  0  0  0  0  0
  161.6340  209.0730  156.9150 C   0  0  0  0  0  3  0  0  0  0  0  0
  160.5210  209.6590  156.1340 C   0  0  0  0  0  0  0  0  0  0  0  0
  159.5080  208.8780  155.7380 C   0  0  0  0  0  3  0  0  0  0  0  0
  158.4910  206.7470  155.7120 O   0  0  0  0  0  0  0  0  0  0  0  0
  160.5700  206.8160  156.8880 C   0  0  0  0  0  2  0  0  0  0  0  0
  159.4640  207.4510  156.0910 C   0  0  0  0  0  0  0  0  0  0  0  0
  161.6610  207.7830  157.2610 C   0  0  0  0  0  3  0  0  0  0  0  0
  161.4290  208.3040  148.1140 F   0  0  0  0  0  0  0  0  0  0  0  0
  162.5750  208.4090  148.8840 C   0  0  0  0  0  2  0  0  0  0  0  0
  1 12  1  6  0  0  0
  1 25  1  0  0  0  0
  1 20  1  0  0  0  0
  2 16  1  0  0  0  0
  2 21  1  0  0  0  0
  3 19  1  0  0  0  0
  3  6  1  0  0  0  0
  4 37  1  6  0  0  0
  4 11  1  0  0  0  0
  4  1  1  0  0  0  0
  5 21  2  0  0  0  0
  5 15  1  0  0  0  0
  6  9  2  0  0  0  0
  7 24  2  0  0  0  0
  7 17  1  0  0  0  0
  8  3  2  0  0  0  0
  9 26  1  0  0  0  0
  9 28  1  0  0  0  0
 10 15  1  0  0  0  0
 11  7  1  0  0  0  0
 13  2  1  0  0  0  0
 14 26  2  0  0  0  0
 15 19  2  0  0  0  0
 16 12  3  0  0  0  0
 17 23  1  0  0  0  0
 18  6  1  0  0  0  0
 19 14  1  0  0  0  0
 20 25  1  1  0  0  0
 20 18  1  0  0  0  0
 20 23  1  0  0  0  0
 21  8  1  0  0  0  0
 22  2  1  0  0  0  0
 28 30  1  0  0  0  0
 28 27  2  0  0  0  0
 29 35  2  0  0  0  0
 30 29  1  0  0  0  0
 31 34  1  0  0  0  0
 31 30  2  0  0  0  0
 32 34  2  0  0  0  0
 33 35  1  0  0  0  0
 34 33  1  0  0  0  0
 36 37  1  0  0  0  0
M  END
>  <MODEL>
3

>  <REMARK>
 VINA RESULT:       2.6      4.493      7.790
  Name = 
  3 active torsions:
  status: ('A' for Active; 'I' for Inactive)
    1  A    between atoms: C_5  and  C_23
    2  A    between atoms: C_6  and  C_31
    3  A    between atoms: C_14  and  C_31
                            x       y       z     vdW  Elec       q    Type
                         _______ _______ _______ _____ _____    ______ ____

>  <TORSDO>
F 3

$$$$
