=
 OpenBabel11052422543D

 28 32  0  0  1  0  0  0  0  0999 V2000
  159.4010  210.8030  154.4520 C   0  0  0  0  0  0  0  0  0  0  0  0
  161.1350  205.8470  153.3330 C   0  0  0  0  0  3  0  0  0  0  0  0
  162.8590  210.4950  151.4850 C   0  0  0  0  0  1  0  0  0  0  0  0
  161.2020  206.0580  150.9160 C   0  0  0  0  0  0  0  0  0  0  0  0
  161.2240  208.1690  152.3360 C   0  0  2  0  0  3  0  0  0  0  0  0
  161.1410  203.8650  151.9460 C   0  0  0  0  0  0  0  0  0  0  0  0
  161.1460  206.6620  152.1900 C   0  0  0  0  0  0  0  0  0  0  0  0
  161.7760  208.2760  149.9770 C   0  0  0  0  0  2  0  0  0  0  0  0
  161.1810  204.6640  150.8010 C   0  0  0  0  0  3  0  0  0  0  0  0
  160.5630  210.9350  152.3090 C   0  0  0  0  0  0  0  0  0  0  0  0
  160.2010  208.6610  153.3660 C   0  0  0  0  0  2  0  0  0  0  0  0
  161.2340  206.8880  149.6710 C   0  0  0  0  0  2  0  0  0  0  0  0
  159.6800  212.9460  153.3280 C   0  0  0  0  0  3  0  0  0  0  0  0
  161.3650  210.2950  151.2100 C   0  0  2  0  0  3  0  0  0  0  0  0
  160.3680  212.3190  152.2900 C   0  0  0  0  0  3  0  0  0  0  0  0
  161.1220  202.4820  151.8240 O   0  0  0  0  0  1  0  0  0  0  0  0
  161.1250  204.4550  153.2100 C   0  0  0  0  0  3  0  0  0  0  0  0
  160.9960  208.8750  151.0600 N   0  0  2  0  0  0  0  0  0  0  0  0
  159.1960  212.1930  154.3970 C   0  0  0  0  0  3  0  0  0  0  0  0
  160.0780  210.1660  153.3890 C   0  0  0  0  0  0  0  0  0  0  0  0
  158.8390  209.9820  155.5970 C   0  0  1  0  0  3  0  0  0  0  0  0
  159.7020  209.9420  156.8770 C   0  0  2  0  0  3  0  0  0  0  0  0
  158.4670  210.8240  156.8020 C   0  0  0  0  0  2  0  0  0  0  0  0
  162.1630  210.1590  156.2940 C   0  0  0  0  0  0  0  0  0  0  0  0
  160.8250  212.1820  156.8800 C   0  0  0  0  0  1  0  0  0  0  0  0
  160.9370  210.7330  156.7850 N   0  0  0  0  0  0  0  0  0  0  0  0
  163.4270  210.9510  156.2800 C   0  0  0  0  0  1  0  0  0  0  0  0
  162.1900  208.9750  155.8650 O   0  0  0  0  0  0  0  0  0  0  0  0
  4  7  1  0  0  0  0
  5 11  1  1  0  0  0
  6 17  2  0  0  0  0
  7  5  1  0  0  0  0
  7  2  2  0  0  0  0
  9  4  2  0  0  0  0
  9  6  1  0  0  0  0
 10 20  1  0  0  0  0
 11 20  1  0  0  0  0
 12  8  1  0  0  0  0
 12  4  1  0  0  0  0
 13 19  2  0  0  0  0
 14  3  1  1  0  0  0
 14 10  1  0  0  0  0
 15 10  2  0  0  0  0
 15 13  1  0  0  0  0
 16  6  1  0  0  0  0
 17  2  1  0  0  0  0
 18  8  1  6  0  0  0
 18 14  1  0  0  0  0
 18  5  1  0  0  0  0
 19  1  1  0  0  0  0
 20  1  2  0  0  0  0
 21  1  1  6  0  0  0
 21 23  1  0  0  0  0
 21 22  1  0  0  0  0
 22 26  1  6  0  0  0
 23 22  1  0  0  0  0
 24 26  1  0  0  0  0
 26 25  1  0  0  0  0
 27 24  1  0  0  0  0
 28 24  2  0  0  0  0
M  END
>  <MODEL>
1

>  <REMARK>
 VINA RESULT:      -8.5      0.000      0.000
  Name = 
  2 active torsions:
  status: ('A' for Active; 'I' for Inactive)
    1  A    between atoms: C_1  and  C_2
    2  A    between atoms: C_3  and  N_11
                            x       y       z     vdW  Elec       q    Type
                         _______ _______ _______ _____ _____    ______ ____

>  <TORSDO>
F 2

$$$$
=
 OpenBabel11052422543D

 28 32  0  0  1  0  0  0  0  0999 V2000
  160.5780  205.5210  149.0600 C   0  0  0  0  0  0  0  0  0  0  0  0
  160.8790  210.1130  151.8250 C   0  0  0  0  0  3  0  0  0  0  0  0
  163.1050  205.4270  152.8620 C   0  0  0  0  0  1  0  0  0  0  0  0
  160.4320  209.2020  154.0300 C   0  0  0  0  0  0  0  0  0  0  0  0
  161.2420  207.6380  152.1930 C   0  0  2  0  0  3  0  0  0  0  0  0
  160.1310  211.5690  153.6070 C   0  0  0  0  0  0  0  0  0  0  0  0
  160.8050  209.0050  152.6830 C   0  0  0  0  0  0  0  0  0  0  0  0
  161.2460  206.9120  154.5070 C   0  0  0  0  0  2  0  0  0  0  0  0
  160.0810  210.4790  154.4780 C   0  0  0  0  0  3  0  0  0  0  0  0
  161.2140  204.9250  151.3400 C   0  0  0  0  0  0  0  0  0  0  0  0
  160.6170  207.3330  150.8270 C   0  0  0  0  0  2  0  0  0  0  0  0
  160.3580  208.0520  154.9840 C   0  0  0  0  0  2  0  0  0  0  0  0
  161.0520  203.2050  149.6450 C   0  0  0  0  0  3  0  0  0  0  0  0
  161.5820  205.3170  152.7450 C   0  0  2  0  0  3  0  0  0  0  0  0
  161.3280  203.5850  150.9570 C   0  0  0  0  0  3  0  0  0  0  0  0
  159.7820  212.8340  154.0590 O   0  0  0  0  0  1  0  0  0  0  0  0
  160.5360  211.3880  152.2840 C   0  0  0  0  0  3  0  0  0  0  0  0
  160.8860  206.5580  153.1330 N   0  0  2  0  0  0  0  0  0  0  0  0
  160.6740  204.1640  148.7050 C   0  0  0  0  0  3  0  0  0  0  0  0
  160.8350  205.9030  150.3950 C   0  0  0  0  0  0  0  0  0  0  0  0
  160.1290  206.5560  148.0460 C   0  0  1  0  0  3  0  0  0  0  0  0
  161.1400  206.8740  146.9240 C   0  0  2  0  0  3  0  0  0  0  0  0
  159.9410  205.9800  146.6560 C   0  0  0  0  0  2  0  0  0  0  0  0
  162.7530  205.1530  145.9860 C   0  0  0  0  0  0  0  0  0  0  0  0
  163.3940  206.5340  147.9640 C   0  0  0  0  0  1  0  0  0  0  0  0
  162.3840  206.0980  147.0090 N   0  0  0  0  0  0  0  0  0  0  0  0
  163.9790  204.3150  146.1240 C   0  0  0  0  0  1  0  0  0  0  0  0
  162.0460  205.0200  144.9520 O   0  0  0  0  0  0  0  0  0  0  0  0
  1 20  1  0  0  0  0
  2 17  2  0  0  0  0
  2  7  1  0  0  0  0
  4  9  1  0  0  0  0
  4 12  1  0  0  0  0
  5 11  1  6  0  0  0
  5  7  1  0  0  0  0
  5 18  1  0  0  0  0
  6 16  1  0  0  0  0
  6  9  2  0  0  0  0
  7  4  2  0  0  0  0
  8 12  1  0  0  0  0
 10 14  1  0  0  0  0
 13 15  2  0  0  0  0
 14  3  1  6  0  0  0
 14 18  1  0  0  0  0
 15 10  1  0  0  0  0
 17  6  1  0  0  0  0
 18  8  1  1  0  0  0
 19  1  2  0  0  0  0
 19 13  1  0  0  0  0
 20 11  1  0  0  0  0
 20 10  2  0  0  0  0
 21  1  1  1  0  0  0
 22 26  1  1  0  0  0
 22 21  1  0  0  0  0
 23 22  1  0  0  0  0
 23 21  1  0  0  0  0
 24 27  1  0  0  0  0
 24 26  1  0  0  0  0
 26 25  1  0  0  0  0
 28 24  2  0  0  0  0
M  END
>  <MODEL>
2

>  <REMARK>
 VINA RESULT:      -8.3      2.812      8.063
  Name = 
  2 active torsions:
  status: ('A' for Active; 'I' for Inactive)
    1  A    between atoms: C_1  and  C_2
    2  A    between atoms: C_3  and  N_11
                            x       y       z     vdW  Elec       q    Type
                         _______ _______ _______ _____ _____    ______ ____

>  <TORSDO>
F 2

$$$$
=
 OpenBabel11052422543D

 28 32  0  0  1  0  0  0  0  0999 V2000
  161.4850  207.6950  151.8630 C   0  0  0  0  0  0  0  0  0  0  0  0
  160.5690  206.4890  146.7120 C   0  0  0  0  0  3  0  0  0  0  0  0
  159.5120  203.6560  151.0540 C   0  0  0  0  0  1  0  0  0  0  0  0
  161.4600  204.2320  146.7370 C   0  0  0  0  0  0  0  0  0  0  0  0
  160.7780  205.3100  148.9390 C   0  0  2  0  0  3  0  0  0  0  0  0
  161.2060  205.4180  144.6390 C   0  0  0  0  0  0  0  0  0  0  0  0
  160.9760  205.3580  147.4370 C   0  0  0  0  0  0  0  0  0  0  0  0
  161.2070  202.9250  148.8250 C   0  0  0  0  0  2  0  0  0  0  0  0
  161.5880  204.2750  145.3460 C   0  0  0  0  0  3  0  0  0  0  0  0
  161.2680  205.2660  151.7400 C   0  0  0  0  0  0  0  0  0  0  0  0
  161.2820  206.6040  149.5880 C   0  0  0  0  0  2  0  0  0  0  0  0
  161.8880  202.9980  147.4670 C   0  0  0  0  0  2  0  0  0  0  0  0
  161.5790  206.3420  153.8860 C   0  0  0  0  0  3  0  0  0  0  0  0
  161.0000  204.0110  150.9570 C   0  0  2  0  0  3  0  0  0  0  0  0
  161.3910  205.1860  153.1310 C   0  0  0  0  0  3  0  0  0  0  0  0
  161.3350  205.4530  143.2570 O   0  0  0  0  0  1  0  0  0  0  0  0
  160.6910  206.5210  145.3200 C   0  0  0  0  0  3  0  0  0  0  0  0
  161.4630  204.1620  149.5650 N   0  0  2  0  0  0  0  0  0  0  0  0
  161.6320  207.5850  153.2570 C   0  0  0  0  0  3  0  0  0  0  0  0
  161.3170  206.5210  151.0960 C   0  0  0  0  0  0  0  0  0  0  0  0
  161.5810  209.0450  151.1780 C   0  0  1  0  0  3  0  0  0  0  0  0
  161.1490  210.2580  152.0290 C   0  0  2  0  0  3  0  0  0  0  0  0
  162.6210  209.9530  151.8050 C   0  0  0  0  0  2  0  0  0  0  0  0
  161.5840  210.1320  154.5270 C   0  0  0  0  0  0  0  0  0  0  0  0
  159.3120  209.6390  153.6170 C   0  0  0  0  0  1  0  0  0  0  0  0
  160.7270  209.9070  153.3920 N   0  0  0  0  0  0  0  0  0  0  0  0
  161.1730  209.6980  155.8940 C   0  0  0  0  0  1  0  0  0  0  0  0
  162.6980  210.7030  154.3850 O   0  0  0  0  0  0  0  0  0  0  0  0
  1 19  1  0  0  0  0
  2  7  1  0  0  0  0
  4  7  2  0  0  0  0
  4 12  1  0  0  0  0
  5 18  1  0  0  0  0
  5 11  1  1  0  0  0
  6 17  1  0  0  0  0
  6  9  2  0  0  0  0
  7  5  1  0  0  0  0
  9  4  1  0  0  0  0
 10 15  2  0  0  0  0
 11 20  1  0  0  0  0
 12  8  1  0  0  0  0
 14  3  1  6  0  0  0
 14 10  1  0  0  0  0
 15 13  1  0  0  0  0
 16  6  1  0  0  0  0
 17  2  2  0  0  0  0
 18  8  1  6  0  0  0
 18 14  1  0  0  0  0
 19 13  2  0  0  0  0
 20 10  1  0  0  0  0
 20  1  2  0  0  0  0
 21 23  1  0  0  0  0
 21  1  1  1  0  0  0
 21 22  1  0  0  0  0
 22 26  1  1  0  0  0
 23 22  1  0  0  0  0
 24 27  1  0  0  0  0
 26 25  1  0  0  0  0
 26 24  1  0  0  0  0
 28 24  2  0  0  0  0
M  END
>  <MODEL>
3

>  <REMARK>
 VINA RESULT:      -7.9      3.081      5.618
  Name = 
  2 active torsions:
  status: ('A' for Active; 'I' for Inactive)
    1  A    between atoms: C_1  and  C_2
    2  A    between atoms: C_3  and  N_11
                            x       y       z     vdW  Elec       q    Type
                         _______ _______ _______ _____ _____    ______ ____

>  <TORSDO>
F 2

$$$$
=
 OpenBabel11052422543D

 28 32  0  0  1  0  0  0  0  0999 V2000
  160.5910  210.9440  153.3460 C   0  0  0  0  0  0  0  0  0  0  0  0
  160.1470  206.9370  149.8000 C   0  0  0  0  0  3  0  0  0  0  0  0
  160.0570  206.7570  155.0870 C   0  0  0  0  0  1  0  0  0  0  0  0
  161.7290  205.4090  150.8280 C   0  0  0  0  0  0  0  0  0  0  0  0
  160.7210  207.2700  152.2400 C   0  0  2  0  0  3  0  0  0  0  0  0
  161.1120  205.1390  148.5000 C   0  0  0  0  0  0  0  0  0  0  0  0
  160.9000  206.5470  150.9200 C   0  0  0  0  0  0  0  0  0  0  0  0
  161.9080  205.4380  153.2970 C   0  0  0  0  0  2  0  0  0  0  0  0
  161.8440  204.7230  149.6150 C   0  0  0  0  0  3  0  0  0  0  0  0
  161.1840  208.8930  154.5300 C   0  0  0  0  0  0  0  0  0  0  0  0
  160.7700  208.7880  152.0320 C   0  0  0  0  0  2  0  0  0  0  0  0
  162.5350  204.9470  152.0010 C   0  0  0  0  0  2  0  0  0  0  0  0
  161.1140  210.9970  155.7240 C   0  0  0  0  0  3  0  0  0  0  0  0
  161.3460  207.3980  154.5640 C   0  0  2  0  0  3  0  0  0  0  0  0
  161.3190  209.6180  155.7170 C   0  0  0  0  0  3  0  0  0  0  0  0
  161.2290  204.4520  147.2990 O   0  0  0  0  0  1  0  0  0  0  0  0
  160.2590  206.2390  148.5940 C   0  0  0  0  0  3  0  0  0  0  0  0
  161.7410  206.8910  153.2370 N   0  0  2  0  0  0  0  0  0  0  0  0
  160.7590  211.6550  154.5470 C   0  0  0  0  0  3  0  0  0  0  0  0
  160.8210  209.5510  153.3340 C   0  0  0  0  0  0  0  0  0  0  0  0
  160.2430  211.6680  152.0590 C   0  0  1  0  0  3  0  0  0  0  0  0
  158.8440  212.3200  152.0170 C   0  0  2  0  0  3  0  0  0  0  0  0
  160.0870  213.1650  152.2460 C   0  0  0  0  0  2  0  0  0  0  0  0
  157.6050  213.2800  154.0130 C   0  0  0  0  0  0  0  0  0  0  0  0
  157.5050  210.8340  153.5250 C   0  0  0  0  0  1  0  0  0  0  0  0
  158.0720  212.1480  153.2550 N   0  0  0  0  0  0  0  0  0  0  0  0
  156.8910  213.0910  155.3090 C   0  0  0  0  0  1  0  0  0  0  0  0
  157.7890  214.4530  153.5920 O   0  0  0  0  0  0  0  0  0  0  0  0
  1 19  1  0  0  0  0
  2  7  1  0  0  0  0
  4  7  2  0  0  0  0
  4 12  1  0  0  0  0
  5 11  1  6  0  0  0
  5 18  1  0  0  0  0
  6 17  1  0  0  0  0
  6  9  2  0  0  0  0
  7  5  1  0  0  0  0
  9  4  1  0  0  0  0
 10 14  1  0  0  0  0
 10 15  2  0  0  0  0
 11 20  1  0  0  0  0
 12  8  1  0  0  0  0
 14  3  1  6  0  0  0
 15 13  1  0  0  0  0
 16  6  1  0  0  0  0
 17  2  2  0  0  0  0
 18  8  1  1  0  0  0
 18 14  1  0  0  0  0
 19 13  2  0  0  0  0
 20  1  2  0  0  0  0
 20 10  1  0  0  0  0
 21 23  1  0  0  0  0
 21  1  1  1  0  0  0
 22 21  1  0  0  0  0
 22 23  1  0  0  0  0
 22 26  1  1  0  0  0
 24 27  1  0  0  0  0
 26 25  1  0  0  0  0
 26 24  1  0  0  0  0
 28 24  2  0  0  0  0
M  END
>  <MODEL>
4

>  <REMARK>
 VINA RESULT:      -7.0      2.489      4.174
  Name = 
  2 active torsions:
  status: ('A' for Active; 'I' for Inactive)
    1  A    between atoms: C_1  and  C_2
    2  A    between atoms: C_3  and  N_11
                            x       y       z     vdW  Elec       q    Type
                         _______ _______ _______ _____ _____    ______ ____

>  <TORSDO>
F 2

$$$$
=
 OpenBabel11052422543D

 28 32  0  0  1  0  0  0  0  0999 V2000
  161.0880  208.9640  154.1750 C   0  0  0  0  0  0  0  0  0  0  0  0
  161.7410  204.1390  151.9130 C   0  0  0  0  0  3  0  0  0  0  0  0
  162.8500  208.9300  149.9620 C   0  0  0  0  0  1  0  0  0  0  0  0
  160.7550  204.6490  149.7550 C   0  0  0  0  0  0  0  0  0  0  0  0
  161.5720  206.5640  151.2180 C   0  0  2  0  0  3  0  0  0  0  0  0
  160.9740  202.3470  150.4800 C   0  0  0  0  0  0  0  0  0  0  0  0
  161.3150  205.0900  150.9730 C   0  0  0  0  0  0  0  0  0  0  0  0
  161.0360  206.9500  148.8840 C   0  0  0  0  0  2  0  0  0  0  0  0
  160.5720  203.2820  149.5240 C   0  0  0  0  0  3  0  0  0  0  0  0
  161.1950  209.3300  151.7630 C   0  0  0  0  0  0  0  0  0  0  0  0
  161.1510  206.9520  152.6400 C   0  0  0  0  0  2  0  0  0  0  0  0
  160.3040  205.6270  148.7160 C   0  0  0  0  0  2  0  0  0  0  0  0
  161.0180  211.2220  153.2630 C   0  0  0  0  0  3  0  0  0  0  0  0
  161.3760  208.8090  150.3640 C   0  0  2  0  0  3  0  0  0  0  0  0
  161.1250  210.7110  151.9700 C   0  0  0  0  0  3  0  0  0  0  0  0
  160.7910  200.9910  150.2430 O   0  0  0  0  0  1  0  0  0  0  0  0
  161.5640  202.7740  151.6700 C   0  0  0  0  0  3  0  0  0  0  0  0
  160.8640  207.4310  150.2550 N   0  0  2  0  0  0  0  0  0  0  0  0
  160.9940  210.3550  154.3560 C   0  0  0  0  0  3  0  0  0  0  0  0
  161.1740  208.4460  152.8640 C   0  0  0  0  0  0  0  0  0  0  0  0
  161.0220  208.0220  155.3630 C   0  0  1  0  0  3  0  0  0  0  0  0
  160.5140  208.6450  156.6810 C   0  0  2  0  0  3  0  0  0  0  0  0
  159.6040  207.7680  155.8370 C   0  0  0  0  0  2  0  0  0  0  0  0
  158.8260  210.4750  156.1870 C   0  0  0  0  0  0  0  0  0  0  0  0
  161.0530  211.0450  157.1600 C   0  0  0  0  0  1  0  0  0  0  0  0
  160.1530  210.0650  156.5660 N   0  0  0  0  0  0  0  0  0  0  0  0
  158.4960  211.9170  155.9980 C   0  0  0  0  0  1  0  0  0  0  0  0
  157.9170  209.6200  156.0100 O   0  0  0  0  0  0  0  0  0  0  0  0
  1 19  1  0  0  0  0
  4  7  1  0  0  0  0
  5 11  1  1  0  0  0
  6 17  2  0  0  0  0
  7  5  1  0  0  0  0
  7  2  2  0  0  0  0
  9  4  2  0  0  0  0
  9  6  1  0  0  0  0
 10 15  2  0  0  0  0
 10 20  1  0  0  0  0
 11 20  1  0  0  0  0
 12  8  1  0  0  0  0
 12  4  1  0  0  0  0
 13 19  2  0  0  0  0
 14  3  1  1  0  0  0
 14 10  1  0  0  0  0
 15 13  1  0  0  0  0
 16  6  1  0  0  0  0
 17  2  1  0  0  0  0
 18  8  1  6  0  0  0
 18 14  1  0  0  0  0
 18  5  1  0  0  0  0
 20  1  2  0  0  0  0
 21  1  1  6  0  0  0
 21 23  1  0  0  0  0
 21 22  1  0  0  0  0
 22 26  1  6  0  0  0
 23 22  1  0  0  0  0
 24 26  1  0  0  0  0
 26 25  1  0  0  0  0
 27 24  1  0  0  0  0
 28 24  2  0  0  0  0
M  END
>  <MODEL>
5

>  <REMARK>
 VINA RESULT:      -6.8      1.577      2.436
  Name = 
  2 active torsions:
  status: ('A' for Active; 'I' for Inactive)
    1  A    between atoms: C_1  and  C_2
    2  A    between atoms: C_3  and  N_11
                            x       y       z     vdW  Elec       q    Type
                         _______ _______ _______ _____ _____    ______ ____

>  <TORSDO>
F 2

$$$$
=
 OpenBabel11052422543D

 28 32  0  0  1  0  0  0  0  0999 V2000
  161.1920  205.6810  147.7820 C   0  0  0  0  0  0  0  0  0  0  0  0
  161.9600  210.8390  149.0600 C   0  0  0  0  0  3  0  0  0  0  0  0
  162.7200  206.5100  152.0050 C   0  0  0  0  0  1  0  0  0  0  0  0
  160.8330  210.8180  151.2100 C   0  0  0  0  0  0  0  0  0  0  0  0
  161.6320  208.6160  150.2190 C   0  0  2  0  0  3  0  0  0  0  0  0
  161.2060  212.9140  150.0500 C   0  0  0  0  0  0  0  0  0  0  0  0
  161.4360  210.1170  150.1440 C   0  0  0  0  0  0  0  0  0  0  0  0
  160.9520  208.7350  152.5440 C   0  0  0  0  0  2  0  0  0  0  0  0
  160.7060  212.2100  151.1490 C   0  0  0  0  0  3  0  0  0  0  0  0
  161.1480  205.8130  150.2200 C   0  0  0  0  0  0  0  0  0  0  0  0
  161.2700  207.9610  148.8810 C   0  0  0  0  0  2  0  0  0  0  0  0
  160.2780  210.0910  152.3940 C   0  0  0  0  0  2  0  0  0  0  0  0
  160.9590  203.6620  149.1250 C   0  0  0  0  0  3  0  0  0  0  0  0
  161.2790  206.6010  151.4940 C   0  0  2  0  0  3  0  0  0  0  0  0
  161.0210  204.4220  150.2920 C   0  0  0  0  0  3  0  0  0  0  0  0
  161.0770  214.2950  149.9970 O   0  0  0  0  0  1  0  0  0  0  0  0
  161.8380  212.2300  149.0110 C   0  0  0  0  0  3  0  0  0  0  0  0
  160.8310  207.9910  151.2890 N   0  0  2  0  0  0  0  0  0  0  0  0
  161.0380  204.2870  147.8810 C   0  0  0  0  0  3  0  0  0  0  0  0
  161.2310  206.4530  148.9640 C   0  0  0  0  0  0  0  0  0  0  0  0
  161.2370  206.3620  146.4270 C   0  0  1  0  0  3  0  0  0  0  0  0
  161.5170  205.4360  145.2240 C   0  0  2  0  0  3  0  0  0  0  0  0
  160.1080  205.9300  145.5110 C   0  0  0  0  0  2  0  0  0  0  0  0
  160.6950  203.0340  145.2200 C   0  0  0  0  0  0  0  0  0  0  0  0
  162.9910  203.5780  146.0340 C   0  0  0  0  0  1  0  0  0  0  0  0
  161.6760  204.0220  145.5890 N   0  0  0  0  0  0  0  0  0  0  0  0
  160.8310  201.6170  145.6640 C   0  0  0  0  0  1  0  0  0  0  0  0
  159.7030  203.3510  144.5110 O   0  0  0  0  0  0  0  0  0  0  0  0
  1 19  2  0  0  0  0
  1 20  1  0  0  0  0
  2  7  1  0  0  0  0
  4 12  1  0  0  0  0
  5 11  1  6  0  0  0
  5 18  1  0  0  0  0
  6  9  2  0  0  0  0
  7  5  1  0  0  0  0
  7  4  2  0  0  0  0
  9  4  1  0  0  0  0
 10 15  1  0  0  0  0
 10 14  1  0  0  0  0
 11 20  1  0  0  0  0
 12  8  1  0  0  0  0
 13 15  2  0  0  0  0
 14  3  1  6  0  0  0
 16  6  1  0  0  0  0
 17  2  2  0  0  0  0
 17  6  1  0  0  0  0
 18 14  1  0  0  0  0
 18  8  1  1  0  0  0
 19 13  1  0  0  0  0
 20 10  2  0  0  0  0
 21  1  1  1  0  0  0
 22 23  1  0  0  0  0
 22 26  1  1  0  0  0
 22 21  1  0  0  0  0
 23 21  1  0  0  0  0
 24 26  1  0  0  0  0
 24 27  1  0  0  0  0
 26 25  1  0  0  0  0
 28 24  2  0  0  0  0
M  END
>  <MODEL>
6

>  <REMARK>
 VINA RESULT:      -6.8      3.649      9.031
  Name = 
  2 active torsions:
  status: ('A' for Active; 'I' for Inactive)
    1  A    between atoms: C_1  and  C_2
    2  A    between atoms: C_3  and  N_11
                            x       y       z     vdW  Elec       q    Type
                         _______ _______ _______ _____ _____    ______ ____

>  <TORSDO>
F 2

$$$$
=
 OpenBabel11052422543D

 28 32  0  0  1  0  0  0  0  0999 V2000
  160.9200  205.4870  148.6460 C   0  0  0  0  0  0  0  0  0  0  0  0
  161.2350  209.9730  151.5800 C   0  0  0  0  0  3  0  0  0  0  0  0
  162.8600  205.0770  152.7600 C   0  0  0  0  0  1  0  0  0  0  0  0
  160.3980  209.0610  153.6680 C   0  0  0  0  0  0  0  0  0  0  0  0
  161.3170  207.4670  151.9120 C   0  0  2  0  0  3  0  0  0  0  0  0
  160.3750  211.4550  153.2870 C   0  0  0  0  0  0  0  0  0  0  0  0
  160.9400  208.8580  152.3810 C   0  0  0  0  0  0  0  0  0  0  0  0
  160.9250  206.6960  154.1770 C   0  0  0  0  0  2  0  0  0  0  0  0
  160.1030  210.3560  154.1060 C   0  0  0  0  0  3  0  0  0  0  0  0
  161.1680  204.7870  150.9720 C   0  0  0  0  0  0  0  0  0  0  0  0
  160.8690  207.2510  150.4620 C   0  0  0  0  0  2  0  0  0  0  0  0
  160.0840  207.9040  154.5630 C   0  0  0  0  0  2  0  0  0  0  0  0
  161.0950  203.1250  149.2130 C   0  0  0  0  0  3  0  0  0  0  0  0
  161.3650  205.1130  152.4270 C   0  0  2  0  0  3  0  0  0  0  0  0
  161.2140  203.4500  150.5640 C   0  0  0  0  0  3  0  0  0  0  0  0
  160.0810  212.7380  153.7290 O   0  0  0  0  0  1  0  0  0  0  0  0
  160.9470  211.2640  152.0290 C   0  0  0  0  0  3  0  0  0  0  0  0
  160.7350  206.4060  152.7560 N   0  0  2  0  0  0  0  0  0  0  0  0
  160.9430  204.1340  148.2630 C   0  0  0  0  0  3  0  0  0  0  0  0
  161.0170  205.8150  150.0160 C   0  0  0  0  0  0  0  0  0  0  0  0
  160.7150  206.5810  147.6150 C   0  0  1  0  0  3  0  0  0  0  0  0
  161.1830  206.2430  146.1830 C   0  0  2  0  0  3  0  0  0  0  0  0
  159.7080  206.2040  146.5460 C   0  0  0  0  0  2  0  0  0  0  0  0
  161.0390  203.8580  145.3270 C   0  0  0  0  0  0  0  0  0  0  0  0
  163.1520  204.7030  146.3510 C   0  0  0  0  0  1  0  0  0  0  0  0
  161.7400  204.8910  146.0440 N   0  0  0  0  0  0  0  0  0  0  0  0
  161.5800  202.4690  145.2610 C   0  0  0  0  0  1  0  0  0  0  0  0
  159.9530  204.1100  144.7390 O   0  0  0  0  0  0  0  0  0  0  0  0
  1 20  1  0  0  0  0
  2 17  2  0  0  0  0
  2  7  1  0  0  0  0
  4  9  1  0  0  0  0
  4 12  1  0  0  0  0
  5 11  1  6  0  0  0
  5  7  1  0  0  0  0
  5 18  1  0  0  0  0
  6 16  1  0  0  0  0
  6  9  2  0  0  0  0
  7  4  2  0  0  0  0
  8 12  1  0  0  0  0
 10 14  1  0  0  0  0
 13 15  2  0  0  0  0
 14 18  1  0  0  0  0
 14  3  1  6  0  0  0
 15 10  1  0  0  0  0
 17  6  1  0  0  0  0
 18  8  1  1  0  0  0
 19  1  2  0  0  0  0
 19 13  1  0  0  0  0
 20 11  1  0  0  0  0
 20 10  2  0  0  0  0
 21  1  1  1  0  0  0
 22 26  1  1  0  0  0
 22 23  1  0  0  0  0
 22 21  1  0  0  0  0
 23 21  1  0  0  0  0
 24 26  1  0  0  0  0
 26 25  1  0  0  0  0
 27 24  1  0  0  0  0
 28 24  2  0  0  0  0
M  END
>  <MODEL>
7

>  <REMARK>
 VINA RESULT:      -6.7      3.113      8.536
  Name = 
  2 active torsions:
  status: ('A' for Active; 'I' for Inactive)
    1  A    between atoms: C_1  and  C_2
    2  A    between atoms: C_3  and  N_11
                            x       y       z     vdW  Elec       q    Type
                         _______ _______ _______ _____ _____    ______ ____

>  <TORSDO>
F 2

$$$$
=
 OpenBabel11052422543D

 28 32  0  0  1  0  0  0  0  0999 V2000
  161.1360  205.2840  150.2570 C   0  0  0  0  0  0  0  0  0  0  0  0
  161.6640  200.8470  147.2800 C   0  0  0  0  0  3  0  0  0  0  0  0
  162.5480  205.8930  145.9570 C   0  0  0  0  0  1  0  0  0  0  0  0
  160.4990  201.6350  145.3020 C   0  0  0  0  0  0  0  0  0  0  0  0
  161.4070  203.3410  146.9560 C   0  0  2  0  0  3  0  0  0  0  0  0
  160.8060  199.2590  145.6700 C   0  0  0  0  0  0  0  0  0  0  0  0
  161.1510  201.9110  146.5230 C   0  0  0  0  0  0  0  0  0  0  0  0
  160.6790  204.0420  144.7520 C   0  0  0  0  0  2  0  0  0  0  0  0
  160.3150  200.3110  144.8920 C   0  0  0  0  0  3  0  0  0  0  0  0
  161.0410  205.9920  147.9220 C   0  0  0  0  0  0  0  0  0  0  0  0
  161.0990  203.5140  148.4480 C   0  0  0  0  0  2  0  0  0  0  0  0
  159.9520  202.7400  144.4540 C   0  0  0  0  0  2  0  0  0  0  0  0
  160.9620  207.6460  149.6870 C   0  0  0  0  0  3  0  0  0  0  0  0
  161.1140  205.6800  146.4530 C   0  0  2  0  0  3  0  0  0  0  0  0
  160.9710  207.3270  148.3300 C   0  0  0  0  0  3  0  0  0  0  0  0
  160.6210  197.9470  145.2550 O   0  0  0  0  0  1  0  0  0  0  0  0
  161.4860  199.5270  146.8580 C   0  0  0  0  0  3  0  0  0  0  0  0
  160.6130  204.3190  146.1870 N   0  0  2  0  0  0  0  0  0  0  0  0
  161.0380  206.6330  150.6420 C   0  0  0  0  0  3  0  0  0  0  0  0
  161.1210  204.9600  148.8820 C   0  0  0  0  0  0  0  0  0  0  0  0
  161.1790  204.1820  151.2980 C   0  0  1  0  0  3  0  0  0  0  0  0
  161.5630  204.6270  152.7260 C   0  0  2  0  0  3  0  0  0  0  0  0
  160.1140  204.3370  152.3670 C   0  0  0  0  0  2  0  0  0  0  0  0
  161.0760  206.8790  153.7900 C   0  0  0  0  0  0  0  0  0  0  0  0
  163.0260  206.6060  152.2570 C   0  0  0  0  0  1  0  0  0  0  0  0
  161.8090  206.0700  152.8510 N   0  0  0  0  0  0  0  0  0  0  0  0
  161.2800  208.3560  153.8510 C   0  0  0  0  0  1  0  0  0  0  0  0
  160.2470  206.3530  154.5790 O   0  0  0  0  0  0  0  0  0  0  0  0
  1 19  1  0  0  0  0
  4  7  1  0  0  0  0
  5 11  1  1  0  0  0
  6 17  2  0  0  0  0
  7  5  1  0  0  0  0
  7  2  2  0  0  0  0
  9  4  2  0  0  0  0
  9  6  1  0  0  0  0
 10 15  2  0  0  0  0
 10 20  1  0  0  0  0
 11 20  1  0  0  0  0
 12  8  1  0  0  0  0
 12  4  1  0  0  0  0
 13 19  2  0  0  0  0
 14  3  1  1  0  0  0
 14 10  1  0  0  0  0
 15 13  1  0  0  0  0
 16  6  1  0  0  0  0
 17  2  1  0  0  0  0
 18  8  1  6  0  0  0
 18 14  1  0  0  0  0
 18  5  1  0  0  0  0
 20  1  2  0  0  0  0
 21  1  1  6  0  0  0
 21 23  1  0  0  0  0
 21 22  1  0  0  0  0
 22 26  1  6  0  0  0
 23 22  1  0  0  0  0
 24 27  1  0  0  0  0
 24 28  2  0  0  0  0
 25 26  1  0  0  0  0
 26 24  1  0  0  0  0
M  END
>  <MODEL>
8

>  <REMARK>
 VINA RESULT:      -6.3      4.343      6.915
  Name = 
  2 active torsions:
  status: ('A' for Active; 'I' for Inactive)
    1  A    between atoms: C_1  and  C_2
    2  A    between atoms: C_3  and  N_11
                            x       y       z     vdW  Elec       q    Type
                         _______ _______ _______ _____ _____    ______ ____

>  <TORSDO>
F 2

$$$$
