=
 OpenBabel11052422593D

 28 31  0  0  1  0  0  0  0  0999 V2000
  161.2680  205.8830  149.1640 C   0  0  0  0  0  3  0  0  0  0  0  0
  160.9730  208.2850  154.7620 C   0  0  0  0  0  2  0  0  0  0  0  0
  161.2230  204.6020  151.2200 C   0  0  0  0  0  0  0  0  0  0  0  0
  161.8100  207.0410  151.3530 C   0  0  1  0  0  3  0  0  0  0  0  0
  160.7430  203.5200  149.1080 C   0  0  0  0  0  0  0  0  0  0  0  0
  161.4020  205.8270  150.5600 C   0  0  0  0  0  0  0  0  0  0  0  0
  160.8730  205.7500  153.3900 C   0  0  0  0  0  2  0  0  0  0  0  0
  160.8980  203.4510  150.4960 C   0  0  0  0  0  3  0  0  0  0  0  0
  161.2650  209.5460  152.6910 C   0  0  1  0  0  3  0  0  0  0  0  0
  161.4080  208.2180  150.6920 O   0  0  0  0  0  0  0  0  0  0  0  0
  161.4490  204.5200  152.6920 C   0  0  0  0  0  2  0  0  0  0  0  0
  161.1830  208.2540  153.4490 C   0  0  0  0  0  0  0  0  0  0  0  0
  160.4210  202.4080  148.4070 F   0  0  0  0  0  0  0  0  0  0  0  0
  160.9330  204.7350  148.4420 C   0  0  0  0  0  3  0  0  0  0  0  0
  161.2620  207.0070  152.7290 N   0  0  0  0  0  0  0  0  0  0  0  0
  162.0250  209.2750  151.3820 C   0  0  1  0  0  3  0  0  0  0  0  0
  162.1610  210.5110  150.4900 C   0  0  1  0  0  3  0  0  0  0  0  0
  163.3940  211.1290  150.7080 O   0  0  0  0  0  1  0  0  0  0  0  0
  162.0250  210.1540  149.0410 C   0  0  0  0  0  0  0  0  0  0  0  0
  161.6650  211.1400  148.0700 N   0  0  0  0  0  2  0  0  0  0  0  0
  162.2220  208.9660  148.6690 O   0  0  0  0  0  0  0  0  0  0  0  0
  161.3360  213.5020  147.2290 C   0  0  2  0  0  3  0  0  0  0  0  0
  160.4670  212.8420  149.5620 C   0  0  0  0  0  1  0  0  0  0  0  0
  161.3890  212.5360  148.3980 C   0  0  1  0  0  0  0  0  0  0  0  0
  161.6800  212.8670  146.0340 O   0  0  0  0  0  1  0  0  0  0  0  0
  162.5370  213.4880  148.1730 C   0  0  0  0  0  2  0  0  0  0  0  0
  159.5340  211.1620  152.8210 O   0  0  0  0  0  0  0  0  0  0  0  0
  159.8730  210.0550  152.4360 C   0  0  0  0  0  3  0  0  0  0  0  0
  1  6  1  0  0  0  0
  3 11  1  0  0  0  0
  4  6  1  6  0  0  0
  4 15  1  0  0  0  0
  5  8  2  0  0  0  0
  6  3  2  0  0  0  0
  8  3  1  0  0  0  0
  9 28  1  6  0  0  0
  9 12  1  0  0  0  0
 10  4  1  0  0  0  0
 10 16  1  0  0  0  0
 11  7  1  0  0  0  0
 12  2  2  0  0  0  0
 13  5  1  0  0  0  0
 14  5  1  0  0  0  0
 14  1  2  0  0  0  0
 15  7  1  0  0  0  0
 15 12  1  0  0  0  0
 16 17  1  6  0  0  0
 16  9  1  0  0  0  0
 17 18  1  6  0  0  0
 19 17  1  0  0  0  0
 20 24  1  0  0  0  0
 20 19  1  0  0  0  0
 21 19  2  0  0  0  0
 22 25  1  6  0  0  0
 22 26  1  0  0  0  0
 22 24  1  0  0  0  0
 24 23  1  1  0  0  0
 26 24  1  0  0  0  0
 28 27  2  0  0  0  0
M  END
>  <MODEL>
1

>  <REMARK>
 VINA RESULT:      -7.0      0.000      0.000
  Name = 
  4 active torsions:
  status: ('A' for Active; 'I' for Inactive)
    1  A    between atoms: C_1  and  C_2
    2  A    between atoms: C_1  and  C_27
    3  A    between atoms: N_3  and  C_11
    4  A    between atoms: C_16  and  C_21
                            x       y       z     vdW  Elec       q    Type
                         _______ _______ _______ _____ _____    ______ ____

>  <TORSDO>
F 4

$$$$
=
 OpenBabel11052422593D

 28 31  0  0  1  0  0  0  0  0999 V2000
  160.9270  208.4940  151.5620 C   0  0  0  0  0  3  0  0  0  0  0  0
  159.0930  213.3230  154.8040 C   0  0  0  0  0  2  0  0  0  0  0  0
  160.8990  208.6080  153.9810 C   0  0  0  0  0  0  0  0  0  0  0  0
  160.7740  210.7580  152.6900 C   0  0  1  0  0  3  0  0  0  0  0  0
  161.0770  206.4630  152.8720 C   0  0  0  0  0  0  0  0  0  0  0  0
  160.8430  209.2540  152.7380 C   0  0  0  0  0  0  0  0  0  0  0  0
  159.9060  210.5740  155.1200 C   0  0  0  0  0  2  0  0  0  0  0  0
  161.0200  207.2160  154.0480 C   0  0  0  0  0  3  0  0  0  0  0  0
  159.3620  213.2630  152.3760 C   0  0  1  0  0  3  0  0  0  0  0  0
  160.1800  211.1850  151.4860 O   0  0  0  0  0  0  0  0  0  0  0  0
  160.8980  209.4180  155.2330 C   0  0  0  0  0  2  0  0  0  0  0  0
  159.5130  212.6480  153.7370 C   0  0  0  0  0  0  0  0  0  0  0  0
  161.1870  205.1150  152.9360 F   0  0  0  0  0  0  0  0  0  0  0  0
  161.0360  207.1020  151.6290 C   0  0  0  0  0  3  0  0  0  0  0  0
  160.0420  211.3110  153.8530 N   0  0  0  0  0  0  0  0  0  0  0  0
  160.3680  212.5760  151.4370 C   0  0  1  0  0  3  0  0  0  0  0  0
  160.3050  213.0920  149.9980 C   0  0  1  0  0  3  0  0  0  0  0  0
  160.6420  214.4470  149.9570 O   0  0  0  0  0  1  0  0  0  0  0  0
  161.2250  212.3170  149.1030 C   0  0  0  0  0  0  0  0  0  0  0  0
  161.0440  212.3180  147.6850 N   0  0  0  0  0  2  0  0  0  0  0  0
  162.1670  211.6480  149.6040 O   0  0  0  0  0  0  0  0  0  0  0  0
  160.1720  213.3030  145.5250 C   0  0  2  0  0  3  0  0  0  0  0  0
  158.5410  212.8070  147.4560 C   0  0  0  0  0  1  0  0  0  0  0  0
  159.9710  213.0380  147.0060 C   0  0  1  0  0  0  0  0  0  0  0  0
  161.4380  212.8890  145.1060 O   0  0  0  0  0  1  0  0  0  0  0  0
  160.3220  214.4310  146.5450 C   0  0  0  0  0  2  0  0  0  0  0  0
  157.1680  214.0220  151.8920 O   0  0  0  0  0  0  0  0  0  0  0  0
  157.9440  213.0810  151.9100 C   0  0  0  0  0  3  0  0  0  0  0  0
  1 14  2  0  0  0  0
  1  6  1  0  0  0  0
  3  8  1  0  0  0  0
  3 11  1  0  0  0  0
  4 10  1  6  0  0  0
  4  6  1  0  0  0  0
  4 15  1  0  0  0  0
  5 13  1  0  0  0  0
  5  8  2  0  0  0  0
  6  3  2  0  0  0  0
  7 11  1  0  0  0  0
  9 28  1  6  0  0  0
  9 12  1  0  0  0  0
 12 15  1  0  0  0  0
 12  2  2  0  0  0  0
 14  5  1  0  0  0  0
 15  7  1  0  0  0  0
 16 17  1  6  0  0  0
 16 10  1  0  0  0  0
 16  9  1  0  0  0  0
 17 18  1  1  0  0  0
 19 21  2  0  0  0  0
 19 17  1  0  0  0  0
 20 19  1  0  0  0  0
 22 25  1  1  0  0  0
 22 26  1  0  0  0  0
 22 24  1  0  0  0  0
 24 23  1  1  0  0  0
 24 20  1  0  0  0  0
 26 24  1  0  0  0  0
 27 28  2  0  0  0  0
M  END
>  <MODEL>
2

>  <REMARK>
 VINA RESULT:      -6.5      2.495      3.941
  Name = 
  4 active torsions:
  status: ('A' for Active; 'I' for Inactive)
    1  A    between atoms: C_1  and  C_2
    2  A    between atoms: C_1  and  C_27
    3  A    between atoms: N_3  and  C_11
    4  A    between atoms: C_16  and  C_21
                            x       y       z     vdW  Elec       q    Type
                         _______ _______ _______ _____ _____    ______ ____

>  <TORSDO>
F 4

$$$$
=
 OpenBabel11052422593D

 28 31  0  0  1  0  0  0  0  0999 V2000
  160.8220  204.9590  151.9500 C   0  0  0  0  0  3  0  0  0  0  0  0
  162.1650  209.8880  148.6180 C   0  0  0  0  0  2  0  0  0  0  0  0
  161.0860  204.9730  149.5410 C   0  0  0  0  0  0  0  0  0  0  0  0
  160.7180  207.1660  150.7080 C   0  0  1  0  0  3  0  0  0  0  0  0
  161.1490  202.8790  150.7540 C   0  0  0  0  0  0  0  0  0  0  0  0
  160.9030  205.6720  150.7440 C   0  0  0  0  0  0  0  0  0  0  0  0
  161.8560  207.0300  148.3900 C   0  0  0  0  0  2  0  0  0  0  0  0
  161.2050  203.5800  149.5470 C   0  0  0  0  0  3  0  0  0  0  0  0
  161.6550  209.8860  151.0070 C   0  0  1  0  0  3  0  0  0  0  0  0
  161.1010  207.7390  151.9360 O   0  0  0  0  0  0  0  0  0  0  0  0
  161.0860  205.7180  148.2500 C   0  0  0  0  0  2  0  0  0  0  0  0
  161.7520  209.1970  149.6780 C   0  0  0  0  0  0  0  0  0  0  0  0
  161.2710  201.5310  150.7610 F   0  0  0  0  0  0  0  0  0  0  0  0
  160.9520  203.5680  151.9550 C   0  0  0  0  0  3  0  0  0  0  0  0
  161.4670  207.7860  149.5910 N   0  0  0  0  0  0  0  0  0  0  0  0
  160.6820  209.0790  151.8840 C   0  0  1  0  0  3  0  0  0  0  0  0
  160.5060  209.6590  153.2880 C   0  0  1  0  0  3  0  0  0  0  0  0
  159.2120  210.1590  153.4440 O   0  0  0  0  0  1  0  0  0  0  0  0
  160.7760  208.6250  154.3410 C   0  0  0  0  0  0  0  0  0  0  0  0
  161.3580  208.9880  155.5950 N   0  0  0  0  0  2  0  0  0  0  0  0
  160.4960  207.4180  154.1170 O   0  0  0  0  0  0  0  0  0  0  0  0
  160.8510  211.0670  156.9410 C   0  0  2  0  0  3  0  0  0  0  0  0
  163.2190  210.7000  155.9970 C   0  0  0  0  0  1  0  0  0  0  0  0
  161.7440  210.3520  155.9450 C   0  0  1  0  0  0  0  0  0  0  0  0
  159.7310  210.2960  157.2600 O   0  0  0  0  0  1  0  0  0  0  0  0
  160.8090  211.4290  155.4570 C   0  0  0  0  0  2  0  0  0  0  0  0
  163.2330  210.6790  152.5890 O   0  0  0  0  0  0  0  0  0  0  0  0
  163.0250  209.9690  151.6190 C   0  0  0  0  0  3  0  0  0  0  0  0
  1 14  1  0  0  0  0
  2 12  2  0  0  0  0
  3  8  2  0  0  0  0
  3  6  1  0  0  0  0
  4  6  1  1  0  0  0
  4 10  1  0  0  0  0
  5 13  1  0  0  0  0
  5 14  2  0  0  0  0
  6  1  2  0  0  0  0
  7 15  1  0  0  0  0
  8  5  1  0  0  0  0
  9 28  1  1  0  0  0
  9 16  1  0  0  0  0
 11  7  1  0  0  0  0
 11  3  1  0  0  0  0
 12  9  1  0  0  0  0
 15 12  1  0  0  0  0
 15  4  1  0  0  0  0
 16 10  1  0  0  0  0
 16 17  1  1  0  0  0
 17 18  1  6  0  0  0
 17 19  1  0  0  0  0
 19 20  1  0  0  0  0
 20 24  1  0  0  0  0
 21 19  2  0  0  0  0
 22 25  1  6  0  0  0
 24 23  1  1  0  0  0
 24 22  1  0  0  0  0
 26 24  1  0  0  0  0
 26 22  1  0  0  0  0
 28 27  2  0  0  0  0
M  END
>  <MODEL>
3

>  <REMARK>
 VINA RESULT:      -6.0      2.432      5.228
  Name = 
  4 active torsions:
  status: ('A' for Active; 'I' for Inactive)
    1  A    between atoms: C_1  and  C_2
    2  A    between atoms: C_1  and  C_27
    3  A    between atoms: N_3  and  C_11
    4  A    between atoms: C_16  and  C_21
                            x       y       z     vdW  Elec       q    Type
                         _______ _______ _______ _____ _____    ______ ____

>  <TORSDO>
F 4

$$$$
=
 OpenBabel11052422593D

 28 31  0  0  1  0  0  0  0  0999 V2000
  160.8700  204.2140  151.6170 C   0  0  0  0  0  3  0  0  0  0  0  0
  161.9540  209.4230  148.6360 C   0  0  0  0  0  2  0  0  0  0  0  0
  161.0430  204.4220  149.2100 C   0  0  0  0  0  0  0  0  0  0  0  0
  160.6590  206.5060  150.5560 C   0  0  1  0  0  3  0  0  0  0  0  0
  161.2070  202.2430  150.2520 C   0  0  0  0  0  0  0  0  0  0  0  0
  160.8860  205.0200  150.4690 C   0  0  0  0  0  0  0  0  0  0  0  0
  161.7130  206.5830  148.1960 C   0  0  0  0  0  2  0  0  0  0  0  0
  161.2000  203.0360  149.1020 C   0  0  0  0  0  3  0  0  0  0  0  0
  161.5330  209.2220  151.0340 C   0  0  1  0  0  3  0  0  0  0  0  0
  161.0730  206.9940  151.8110 O   0  0  0  0  0  0  0  0  0  0  0  0
  160.9740  205.2640  147.9810 C   0  0  0  0  0  2  0  0  0  0  0  0
  161.6000  208.6410  149.6520 C   0  0  0  0  0  0  0  0  0  0  0  0
  161.3660  200.9020  150.1490 F   0  0  0  0  0  0  0  0  0  0  0  0
  161.0370  202.8310  151.5100 C   0  0  0  0  0  3  0  0  0  0  0  0
  161.3500  207.2320  149.4650 N   0  0  0  0  0  0  0  0  0  0  0  0
  160.6160  208.3210  151.8780 C   0  0  1  0  0  3  0  0  0  0  0  0
  160.4770  208.7850  153.3290 C   0  0  1  0  0  3  0  0  0  0  0  0
  161.6870  208.6210  154.0060 O   0  0  0  0  0  1  0  0  0  0  0  0
  160.0500  210.2200  153.4020 C   0  0  0  0  0  0  0  0  0  0  0  0
  159.9590  210.8980  154.6570 N   0  0  0  0  0  2  0  0  0  0  0  0
  159.7570  210.8390  152.3440 O   0  0  0  0  0  0  0  0  0  0  0  0
  160.4700  211.2040  157.1150 C   0  0  2  0  0  3  0  0  0  0  0  0
  159.6000  208.9340  156.2610 C   0  0  0  0  0  1  0  0  0  0  0  0
  160.2500  210.2670  155.9410 C   0  0  1  0  0  0  0  0  0  0  0  0
  160.4600  212.5380  156.7050 O   0  0  0  0  0  1  0  0  0  0  0  0
  161.6490  210.4830  156.4620 C   0  0  0  0  0  2  0  0  0  0  0  0
  163.3730  210.3560  152.0100 O   0  0  0  0  0  0  0  0  0  0  0  0
  162.9230  209.2980  151.6020 C   0  0  0  0  0  3  0  0  0  0  0  0
  2 12  2  0  0  0  0
  3  6  1  0  0  0  0
  4  6  1  1  0  0  0
  4 10  1  0  0  0  0
  5 14  2  0  0  0  0
  6  1  2  0  0  0  0
  7 15  1  0  0  0  0
  8  3  2  0  0  0  0
  8  5  1  0  0  0  0
  9 28  1  1  0  0  0
  9 16  1  0  0  0  0
 10 16  1  0  0  0  0
 11  7  1  0  0  0  0
 11  3  1  0  0  0  0
 12  9  1  0  0  0  0
 13  5  1  0  0  0  0
 14  1  1  0  0  0  0
 15 12  1  0  0  0  0
 15  4  1  0  0  0  0
 16 17  1  1  0  0  0
 17 19  1  0  0  0  0
 17 18  1  1  0  0  0
 19 20  1  0  0  0  0
 20 24  1  0  0  0  0
 21 19  2  0  0  0  0
 22 25  1  6  0  0  0
 24 23  1  1  0  0  0
 24 26  1  0  0  0  0
 24 22  1  0  0  0  0
 26 22  1  0  0  0  0
 28 27  2  0  0  0  0
M  END
>  <MODEL>
4

>  <REMARK>
 VINA RESULT:      -5.9      2.564      5.145
  Name = 
  4 active torsions:
  status: ('A' for Active; 'I' for Inactive)
    1  A    between atoms: C_1  and  C_2
    2  A    between atoms: C_1  and  C_27
    3  A    between atoms: N_3  and  C_11
    4  A    between atoms: C_16  and  C_21
                            x       y       z     vdW  Elec       q    Type
                         _______ _______ _______ _____ _____    ______ ____

>  <TORSDO>
F 4

$$$$
=
 OpenBabel11052422593D

 28 31  0  0  1  0  0  0  0  0999 V2000
  160.5140  207.3630  154.6880 C   0  0  0  0  0  3  0  0  0  0  0  0
  162.0040  209.0950  149.0340 C   0  0  0  0  0  2  0  0  0  0  0  0
  161.0190  209.6380  154.0240 C   0  0  0  0  0  0  0  0  0  0  0  0
  161.7330  207.7700  152.5040 C   0  0  1  0  0  3  0  0  0  0  0  0
  159.8840  209.2120  156.1200 C   0  0  0  0  0  0  0  0  0  0  0  0
  161.0520  208.2610  153.7540 C   0  0  0  0  0  0  0  0  0  0  0  0
  161.3830  210.1800  151.6330 C   0  0  0  0  0  2  0  0  0  0  0  0
  160.4400  210.1110  155.2060 C   0  0  0  0  0  3  0  0  0  0  0  0
  161.7290  206.7860  149.7840 C   0  0  1  0  0  3  0  0  0  0  0  0
  161.2100  206.5210  152.1170 O   0  0  0  0  0  0  0  0  0  0  0  0
  161.6670  210.5890  153.0760 C   0  0  0  0  0  2  0  0  0  0  0  0
  161.8140  208.2600  150.0520 C   0  0  0  0  0  0  0  0  0  0  0  0
  159.3170  209.6700  157.2610 F   0  0  0  0  0  0  0  0  0  0  0  0
  159.9250  207.8380  155.8640 C   0  0  0  0  0  3  0  0  0  0  0  0
  161.6170  208.7460  151.3960 N   0  0  0  0  0  0  0  0  0  0  0  0
  162.0530  206.0510  151.0960 C   0  0  1  0  0  3  0  0  0  0  0  0
  161.9770  204.5280  150.9730 C   0  0  1  0  0  3  0  0  0  0  0  0
  162.7850  203.9270  151.9400 O   0  0  0  0  0  1  0  0  0  0  0  0
  160.5670  204.0410  151.1210 C   0  0  0  0  0  0  0  0  0  0  0  0
  160.0230  203.0770  150.2160 N   0  0  0  0  0  2  0  0  0  0  0  0
  159.8450  204.4910  152.0500 O   0  0  0  0  0  0  0  0  0  0  0  0
  160.0990  201.3630  148.3590 C   0  0  2  0  0  3  0  0  0  0  0  0
  161.6240  203.4360  148.2500 C   0  0  0  0  0  1  0  0  0  0  0  0
  160.7650  202.5130  149.0920 C   0  0  1  0  0  0  0  0  0  0  0  0
  158.9130  200.9810  148.9900 O   0  0  0  0  0  1  0  0  0  0  0  0
  161.2770  201.1100  149.3000 C   0  0  0  0  0  2  0  0  0  0  0  0
  160.1500  206.2510  148.0980 O   0  0  0  0  0  0  0  0  0  0  0  0
  160.3490  206.4580  149.2830 C   0  0  0  0  0  3  0  0  0  0  0  0
  1 14  1  0  0  0  0
  2 12  2  0  0  0  0
  3  8  2  0  0  0  0
  4 10  1  6  0  0  0
  4  6  1  0  0  0  0
  5 13  1  0  0  0  0
  6  3  1  0  0  0  0
  6  1  2  0  0  0  0
  7 11  1  0  0  0  0
  8  5  1  0  0  0  0
  9 28  1  1  0  0  0
  9 12  1  0  0  0  0
  9 16  1  0  0  0  0
 11  3  1  0  0  0  0
 12 15  1  0  0  0  0
 14  5  2  0  0  0  0
 15  7  1  0  0  0  0
 15  4  1  0  0  0  0
 16 17  1  6  0  0  0
 16 10  1  0  0  0  0
 17 19  1  0  0  0  0
 17 18  1  1  0  0  0
 19 21  2  0  0  0  0
 20 19  1  0  0  0  0
 22 25  1  1  0  0  0
 22 24  1  0  0  0  0
 22 26  1  0  0  0  0
 24 23  1  6  0  0  0
 24 26  1  0  0  0  0
 24 20  1  0  0  0  0
 27 28  2  0  0  0  0
M  END
>  <MODEL>
5

>  <REMARK>
 VINA RESULT:      -5.9      3.624      7.427
  Name = 
  4 active torsions:
  status: ('A' for Active; 'I' for Inactive)
    1  A    between atoms: C_1  and  C_2
    2  A    between atoms: C_1  and  C_27
    3  A    between atoms: N_3  and  C_11
    4  A    between atoms: C_16  and  C_21
                            x       y       z     vdW  Elec       q    Type
                         _______ _______ _______ _____ _____    ______ ____

>  <TORSDO>
F 4

$$$$
=
 OpenBabel11052422593D

 28 31  0  0  1  0  0  0  0  0999 V2000
  160.9580  204.9180  152.3220 C   0  0  0  0  0  3  0  0  0  0  0  0
  161.9550  210.4630  149.9900 C   0  0  0  0  0  2  0  0  0  0  0  0
  161.0040  205.4370  149.9560 C   0  0  0  0  0  0  0  0  0  0  0  0
  160.7240  207.3300  151.5830 C   0  0  1  0  0  3  0  0  0  0  0  0
  161.1920  203.1390  150.6960 C   0  0  0  0  0  0  0  0  0  0  0  0
  160.9240  205.8660  151.2900 C   0  0  0  0  0  0  0  0  0  0  0  0
  161.6490  207.7070  149.1970 C   0  0  0  0  0  2  0  0  0  0  0  0
  161.1340  204.0760  149.6600 C   0  0  0  0  0  3  0  0  0  0  0  0
  161.6620  209.9530  152.3610 C   0  0  1  0  0  3  0  0  0  0  0  0
  161.2120  207.6460  152.8650 O   0  0  0  0  0  0  0  0  0  0  0  0
  160.8800  206.4330  148.8540 C   0  0  0  0  0  2  0  0  0  0  0  0
  161.6450  209.5570  150.9130 C   0  0  0  0  0  0  0  0  0  0  0  0
  161.3250  201.8230  150.4100 F   0  0  0  0  0  0  0  0  0  0  0  0
  161.0990  203.5590  152.0260 C   0  0  0  0  0  3  0  0  0  0  0  0
  161.3640  208.1880  150.5590 N   0  0  0  0  0  0  0  0  0  0  0  0
  160.7790  208.9560  153.1300 C   0  0  1  0  0  3  0  0  0  0  0  0
  160.7250  209.2270  154.6350 C   0  0  1  0  0  3  0  0  0  0  0  0
  161.5530  208.3330  155.3150 O   0  0  0  0  0  1  0  0  0  0  0  0
  161.1380  210.6340  154.9480 C   0  0  0  0  0  0  0  0  0  0  0  0
  160.2140  211.7180  154.8210 N   0  0  0  0  0  2  0  0  0  0  0  0
  162.3180  210.8710  155.3210 O   0  0  0  0  0  0  0  0  0  0  0  0
  157.7690  212.2210  155.2250 C   0  0  2  0  0  3  0  0  0  0  0  0
  158.5560  211.4940  152.8820 C   0  0  0  0  0  1  0  0  0  0  0  0
  158.8340  211.5570  154.3720 C   0  0  1  0  0  0  0  0  0  0  0  0
  158.3240  212.7860  156.3750 O   0  0  0  0  0  1  0  0  0  0  0  0
  157.9640  210.7050  155.2620 C   0  0  0  0  0  2  0  0  0  0  0  0
  163.9110  210.7030  152.3840 O   0  0  0  0  0  0  0  0  0  0  0  0
  163.0820  209.9440  152.8560 C   0  0  0  0  0  3  0  0  0  0  0  0
  2 12  2  0  0  0  0
  3  6  1  0  0  0  0
  4  6  1  6  0  0  0
  4 10  1  0  0  0  0
  5 14  2  0  0  0  0
  6  1  2  0  0  0  0
  7 15  1  0  0  0  0
  8  3  2  0  0  0  0
  8  5  1  0  0  0  0
  9 28  1  1  0  0  0
  9 16  1  0  0  0  0
 10 16  1  0  0  0  0
 11  7  1  0  0  0  0
 11  3  1  0  0  0  0
 12  9  1  0  0  0  0
 13  5  1  0  0  0  0
 14  1  1  0  0  0  0
 15 12  1  0  0  0  0
 15  4  1  0  0  0  0
 16 17  1  1  0  0  0
 17 19  1  0  0  0  0
 17 18  1  1  0  0  0
 19 21  2  0  0  0  0
 20 19  1  0  0  0  0
 22 26  1  0  0  0  0
 22 25  1  1  0  0  0
 24 23  1  6  0  0  0
 24 20  1  0  0  0  0
 24 22  1  0  0  0  0
 24 26  1  0  0  0  0
 27 28  2  0  0  0  0
M  END
>  <MODEL>
6

>  <REMARK>
 VINA RESULT:      -5.5      2.530      4.939
  Name = 
  4 active torsions:
  status: ('A' for Active; 'I' for Inactive)
    1  A    between atoms: C_1  and  C_2
    2  A    between atoms: C_1  and  C_27
    3  A    between atoms: N_3  and  C_11
    4  A    between atoms: C_16  and  C_21
                            x       y       z     vdW  Elec       q    Type
                         _______ _______ _______ _____ _____    ______ ____

>  <TORSDO>
F 4

$$$$
=
 OpenBabel11052422593D

 28 31  0  0  1  0  0  0  0  0999 V2000
  160.9820  203.2450  150.6240 C   0  0  0  0  0  3  0  0  0  0  0  0
  161.5830  208.9220  148.4780 C   0  0  0  0  0  2  0  0  0  0  0  0
  160.9660  203.8470  148.2770 C   0  0  0  0  0  0  0  0  0  0  0  0
  160.5800  205.6600  149.9710 C   0  0  1  0  0  3  0  0  0  0  0  0
  161.3150  201.5430  148.9340 C   0  0  0  0  0  0  0  0  0  0  0  0
  160.8730  204.2240  149.6250 C   0  0  0  0  0  0  0  0  0  0  0  0
  161.4510  206.1800  147.5920 C   0  0  0  0  0  2  0  0  0  0  0  0
  161.1830  202.5090  147.9330 C   0  0  0  0  0  3  0  0  0  0  0  0
  161.3510  208.3120  150.8320 C   0  0  1  0  0  3  0  0  0  0  0  0
  161.0610  205.9640  151.2600 O   0  0  0  0  0  0  0  0  0  0  0  0
  160.7650  204.8700  147.2110 C   0  0  0  0  0  2  0  0  0  0  0  0
  161.3440  207.9660  149.3720 C   0  0  0  0  0  0  0  0  0  0  0  0
  161.5320  200.2490  148.6010 F   0  0  0  0  0  0  0  0  0  0  0  0
  161.2100  201.9090  150.2790 C   0  0  0  0  0  3  0  0  0  0  0  0
  161.1510  206.5930  148.9720 N   0  0  0  0  0  0  0  0  0  0  0  0
  160.5450  207.2330  151.5740 C   0  0  1  0  0  3  0  0  0  0  0  0
  160.4910  207.4480  153.0870 C   0  0  1  0  0  3  0  0  0  0  0  0
  161.6980  207.0610  153.6730 O   0  0  0  0  0  1  0  0  0  0  0  0
  160.2050  208.8810  153.4230 C   0  0  0  0  0  0  0  0  0  0  0  0
  160.0980  209.3120  154.7820 N   0  0  0  0  0  2  0  0  0  0  0  0
  160.0480  209.7200  152.4960 O   0  0  0  0  0  0  0  0  0  0  0  0
  160.5750  209.0740  157.2540 C   0  0  2  0  0  3  0  0  0  0  0  0
  159.3620  207.1810  155.9960 C   0  0  0  0  0  1  0  0  0  0  0  0
  160.2370  208.4170  155.9280 C   0  0  1  0  0  0  0  0  0  0  0  0
  160.8030  210.4430  157.0960 O   0  0  0  0  0  1  0  0  0  0  0  0
  161.6350  208.2920  156.4790 C   0  0  0  0  0  2  0  0  0  0  0  0
  163.2450  209.4300  151.7200 O   0  0  0  0  0  0  0  0  0  0  0  0
  162.7740  208.3800  151.3130 C   0  0  0  0  0  3  0  0  0  0  0  0
  2 12  2  0  0  0  0
  3  6  1  0  0  0  0
  4  6  1  6  0  0  0
  4 10  1  0  0  0  0
  5 14  2  0  0  0  0
  6  1  2  0  0  0  0
  7 15  1  0  0  0  0
  8  3  2  0  0  0  0
  8  5  1  0  0  0  0
  9 28  1  1  0  0  0
  9 16  1  0  0  0  0
 10 16  1  0  0  0  0
 11  7  1  0  0  0  0
 11  3  1  0  0  0  0
 12  9  1  0  0  0  0
 13  5  1  0  0  0  0
 14  1  1  0  0  0  0
 15 12  1  0  0  0  0
 15  4  1  0  0  0  0
 16 17  1  1  0  0  0
 17 19  1  0  0  0  0
 17 18  1  1  0  0  0
 19 20  1  0  0  0  0
 20 24  1  0  0  0  0
 21 19  2  0  0  0  0
 22 25  1  6  0  0  0
 24 23  1  1  0  0  0
 24 26  1  0  0  0  0
 24 22  1  0  0  0  0
 26 22  1  0  0  0  0
 28 27  2  0  0  0  0
M  END
>  <MODEL>
7

>  <REMARK>
 VINA RESULT:      -5.5      2.782      5.601
  Name = 
  4 active torsions:
  status: ('A' for Active; 'I' for Inactive)
    1  A    between atoms: C_1  and  C_2
    2  A    between atoms: C_1  and  C_27
    3  A    between atoms: N_3  and  C_11
    4  A    between atoms: C_16  and  C_21
                            x       y       z     vdW  Elec       q    Type
                         _______ _______ _______ _____ _____    ______ ____

>  <TORSDO>
F 4

$$$$
=
 OpenBabel11052422593D

 28 31  0  0  1  0  0  0  0  0999 V2000
  160.3360  211.8520  151.4680 C   0  0  0  0  0  3  0  0  0  0  0  0
  157.9590  211.8600  157.0840 C   0  0  0  0  0  2  0  0  0  0  0  0
  158.3950  213.1320  152.1480 C   0  0  0  0  0  0  0  0  0  0  0  0
  159.1290  211.2240  153.6060 C   0  0  1  0  0  3  0  0  0  0  0  0
  159.5510  213.6850  150.0940 C   0  0  0  0  0  0  0  0  0  0  0  0
  159.3110  212.0980  152.3930 C   0  0  0  0  0  0  0  0  0  0  0  0
  157.7140  213.1810  154.5310 C   0  0  0  0  0  2  0  0  0  0  0  0
  158.5130  213.9210  150.9990 C   0  0  0  0  0  3  0  0  0  0  0  0
  159.7580  210.4010  156.3070 C   0  0  1  0  0  3  0  0  0  0  0  0
  160.3600  210.6580  153.9930 O   0  0  0  0  0  0  0  0  0  0  0  0
  157.2530  213.3420  153.0840 C   0  0  0  0  0  2  0  0  0  0  0  0
  158.6890  211.4250  156.0600 C   0  0  0  0  0  0  0  0  0  0  0  0
  159.6700  214.4530  148.9860 F   0  0  0  0  0  0  0  0  0  0  0  0
  160.4600  212.6480  150.3250 C   0  0  0  0  0  3  0  0  0  0  0  0
  158.5230  211.9680  154.7340 N   0  0  0  0  0  0  0  0  0  0  0  0
  160.0510  209.6980  154.9710 C   0  0  1  0  0  3  0  0  0  0  0  0
  161.1490  208.6380  155.0710 C   0  0  1  0  0  3  0  0  0  0  0  0
  161.9640  208.8900  156.1760 O   0  0  0  0  0  1  0  0  0  0  0  0
  160.5670  207.2600  155.1780 C   0  0  0  0  0  0  0  0  0  0  0  0
  160.5930  206.3620  154.0660 N   0  0  0  0  0  2  0  0  0  0  0  0
  160.0380  206.8880  156.2590 O   0  0  0  0  0  0  0  0  0  0  0  0
  161.3660  205.5480  151.8000 C   0  0  2  0  0  3  0  0  0  0  0  0
  160.7950  208.0370  152.1400 C   0  0  0  0  0  1  0  0  0  0  0  0
  161.1560  206.7020  152.7630 C   0  0  1  0  0  0  0  0  0  0  0  0
  161.0710  204.3250  152.4060 O   0  0  0  0  0  1  0  0  0  0  0  0
  162.5540  206.1920  152.5140 C   0  0  0  0  0  2  0  0  0  0  0  0
  161.1390  212.2870  156.7070 O   0  0  0  0  0  0  0  0  0  0  0  0
  160.9760  211.0880  156.8590 C   0  0  0  0  0  3  0  0  0  0  0  0
  1  6  1  0  0  0  0
  3  6  2  0  0  0  0
  3 11  1  0  0  0  0
  4  6  1  6  0  0  0
  4 10  1  0  0  0  0
  4 15  1  0  0  0  0
  5 14  1  0  0  0  0
  5  8  2  0  0  0  0
  7 15  1  0  0  0  0
  8  3  1  0  0  0  0
  9 28  1  6  0  0  0
 10 16  1  0  0  0  0
 11  7  1  0  0  0  0
 12  9  1  0  0  0  0
 12  2  2  0  0  0  0
 13  5  1  0  0  0  0
 14  1  2  0  0  0  0
 15 12  1  0  0  0  0
 16 17  1  1  0  0  0
 16  9  1  0  0  0  0
 17 19  1  0  0  0  0
 17 18  1  1  0  0  0
 19 21  2  0  0  0  0
 20 19  1  0  0  0  0
 22 25  1  1  0  0  0
 22 26  1  0  0  0  0
 22 24  1  0  0  0  0
 24 23  1  6  0  0  0
 24 20  1  0  0  0  0
 26 24  1  0  0  0  0
 27 28  2  0  0  0  0
M  END
>  <MODEL>
8

>  <REMARK>
 VINA RESULT:      -5.2      4.004      7.475
  Name = 
  4 active torsions:
  status: ('A' for Active; 'I' for Inactive)
    1  A    between atoms: C_1  and  C_2
    2  A    between atoms: C_1  and  C_27
    3  A    between atoms: N_3  and  C_11
    4  A    between atoms: C_16  and  C_21
                            x       y       z     vdW  Elec       q    Type
                         _______ _______ _______ _____ _____    ______ ____

>  <TORSDO>
F 4

$$$$
=
 OpenBabel11052422593D

 28 31  0  0  1  0  0  0  0  0999 V2000
  162.3490  211.6500  148.6680 C   0  0  0  0  0  3  0  0  0  0  0  0
  159.3330  212.2370  153.9360 C   0  0  0  0  0  2  0  0  0  0  0  0
  160.9570  213.5410  149.2630 C   0  0  0  0  0  0  0  0  0  0  0  0
  160.6870  211.4110  150.5660 C   0  0  1  0  0  3  0  0  0  0  0  0
  162.5320  213.7250  147.4340 C   0  0  0  0  0  0  0  0  0  0  0  0
  161.3660  212.2190  149.4910 C   0  0  0  0  0  0  0  0  0  0  0  0
  159.9940  213.7030  151.5410 C   0  0  0  0  0  2  0  0  0  0  0  0
  161.5360  214.2910  148.2340 C   0  0  0  0  0  3  0  0  0  0  0  0
  160.5430  210.2430  153.2080 C   0  0  1  0  0  3  0  0  0  0  0  0
  161.5390  210.3880  151.0240 O   0  0  0  0  0  0  0  0  0  0  0  0
  159.8520  214.1210  150.0790 C   0  0  0  0  0  2  0  0  0  0  0  0
  159.9900  211.6160  152.9590 C   0  0  0  0  0  0  0  0  0  0  0  0
  163.0980  214.4530  146.4420 F   0  0  0  0  0  0  0  0  0  0  0  0
  162.9350  212.4030  147.6470 C   0  0  0  0  0  3  0  0  0  0  0  0
  160.2440  212.2610  151.6950 N   0  0  0  0  0  0  0  0  0  0  0  0
  160.7470  209.5650  151.8430 C   0  0  1  0  0  3  0  0  0  0  0  0
  161.3350  208.1570  151.9450 C   0  0  1  0  0  3  0  0  0  0  0  0
  160.6420  207.4140  152.9030 O   0  0  0  0  0  1  0  0  0  0  0  0
  161.2830  207.4480  150.6250 C   0  0  0  0  0  0  0  0  0  0  0  0
  161.5470  206.0460  150.5310 N   0  0  0  0  0  2  0  0  0  0  0  0
  161.0130  208.0960  149.5790 O   0  0  0  0  0  0  0  0  0  0  0  0
  161.7000  203.7150  151.4980 C   0  0  2  0  0  3  0  0  0  0  0  0
  163.0500  205.6330  152.5630 C   0  0  0  0  0  1  0  0  0  0  0  0
  161.8950  205.2100  151.6760 C   0  0  1  0  0  0  0  0  0  0  0  0
  161.1010  203.4260  150.2700 O   0  0  0  0  0  1  0  0  0  0  0  0
  160.7310  204.5310  152.3540 C   0  0  0  0  0  2  0  0  0  0  0  0
  161.8780  210.1050  155.1630 O   0  0  0  0  0  0  0  0  0  0  0  0
  161.8320  210.3640  153.9720 C   0  0  0  0  0  3  0  0  0  0  0  0
  1  6  1  0  0  0  0
  3  6  2  0  0  0  0
  3 11  1  0  0  0  0
  4  6  1  6  0  0  0
  4 10  1  0  0  0  0
  4 15  1  0  0  0  0
  5 14  1  0  0  0  0
  5  8  2  0  0  0  0
  7 15  1  0  0  0  0
  8  3  1  0  0  0  0
  9 28  1  6  0  0  0
 10 16  1  0  0  0  0
 11  7  1  0  0  0  0
 12  9  1  0  0  0  0
 12  2  2  0  0  0  0
 13  5  1  0  0  0  0
 14  1  2  0  0  0  0
 15 12  1  0  0  0  0
 16 17  1  1  0  0  0
 16  9  1  0  0  0  0
 17 18  1  1  0  0  0
 19 17  1  0  0  0  0
 20 19  1  0  0  0  0
 20 24  1  0  0  0  0
 21 19  2  0  0  0  0
 22 25  1  6  0  0  0
 22 24  1  0  0  0  0
 22 26  1  0  0  0  0
 24 26  1  0  0  0  0
 24 23  1  1  0  0  0
 28 27  2  0  0  0  0
M  END
>  <MODEL>
9

>  <REMARK>
 VINA RESULT:      -4.7      3.154      7.137
  Name = 
  4 active torsions:
  status: ('A' for Active; 'I' for Inactive)
    1  A    between atoms: C_1  and  C_2
    2  A    between atoms: C_1  and  C_27
    3  A    between atoms: N_3  and  C_11
    4  A    between atoms: C_16  and  C_21
                            x       y       z     vdW  Elec       q    Type
                         _______ _______ _______ _____ _____    ______ ____

>  <TORSDO>
F 4

$$$$
