=
 OpenBabel11062410173D

 43 46  0  0  1  0  0  0  0  0999 V2000
  160.8240  205.1850  150.6100 C   0  0  0  0  0  0  0  0  0  0  0  0
  161.9900  207.6140  149.6530 C   0  0  2  0  0  3  0  0  0  0  0  0
  160.7380  202.8810  148.9620 C   0  0  2  0  0  3  0  0  0  0  0  0
  161.5290  204.0350  148.6640 O   0  0  0  0  0  0  0  0  0  0  0  0
  161.9340  206.4110  148.8850 O   0  0  0  0  0  0  0  0  0  0  0  0
  161.4240  205.2150  149.4070 C   0  0  0  0  0  0  0  0  0  0  0  0
  160.3530  203.9330  151.1280 N   0  0  0  0  0  0  0  0  0  0  0  0
  160.7300  206.4270  151.4620 C   0  0  2  0  0  3  0  0  0  0  0  0
  160.7980  207.6950  150.6070 C   0  0  0  0  0  2  0  0  0  0  0  0
  160.3370  202.8500  150.4100 C   0  0  0  0  0  3  0  0  0  0  0  0
  162.0260  208.8310  148.7410 C   0  0  2  0  0  3  0  0  0  0  0  0
  163.1350  208.7780  147.9110 F   0  0  0  0  0  0  0  0  0  0  0  0
  162.0520  210.1030  149.5720 C   0  0  0  0  0  2  0  0  0  0  0  0
  162.3690  211.2960  148.6950 C   0  0  0  0  0  2  0  0  0  0  0  0
  161.3230  212.3720  148.9060 C   0  0  0  0  0  2  0  0  0  0  0  0
  161.1050  213.1510  147.6200 C   0  0  0  0  0  2  0  0  0  0  0  0
  159.6910  213.7200  147.5590 C   0  0  0  0  0  2  0  0  0  0  0  0
  159.0430  213.3510  146.3070 N   0  0  0  0  0  0  0  0  0  0  0  0
  156.9260  213.4310  147.2780 O   0  0  0  0  0  1  0  0  0  0  0  0
  157.8520  212.5930  146.6520 C   0  0  0  0  0  2  0  0  0  0  0  0
  159.9340  212.4290  145.6180 C   0  0  0  0  0  2  0  0  0  0  0  0
  160.2060  211.8470  143.1110 C   0  0  2  0  0  3  0  0  0  0  0  0
  160.1400  212.8730  144.1790 C   0  0  2  0  0  0  0  0  0  0  0  0
  161.3680  212.4500  143.6470 O   0  0  0  0  0  0  0  0  0  0  0  0
  159.8510  214.1950  143.8300 O   0  0  0  0  0  1  0  0  0  0  0  0
  159.9420  212.4180  141.7240 C   0  0  0  0  0  2  0  0  0  0  0  0
  160.3530  211.4270  140.6480 C   0  0  0  0  0  2  0  0  0  0  0  0
  162.6510  210.8480  140.3100 O   0  0  0  0  0  1  0  0  0  0  0  0
  161.6840  211.8130  140.0210 C   0  0  0  0  0  2  0  0  0  0  0  0
  161.8310  206.4570  152.5230 C   0  0  0  0  0  2  0  0  0  0  0  0
  161.3150  209.3550  154.9040 C   0  0  0  0  0  2  0  0  0  0  0  0
  160.0790  208.8300  155.6210 C   0  0  1  0  0  3  0  0  0  0  0  0
  160.5950  206.5380  154.7870 C   0  0  0  0  0  2  0  0  0  0  0  0
  161.6700  208.5080  153.7810 N   0  0  0  0  0  0  0  0  0  0  0  0
  161.4190  207.2400  153.7290 C   0  0  0  0  0  0  0  0  0  0  0  0
  160.3630  207.3950  156.0290 C   0  0  0  0  0  2  0  0  0  0  0  0
  159.8320  209.6000  156.7570 O   0  0  0  0  0  0  0  0  0  0  0  0
  161.0150  210.8450  156.7050 S   0  0  0  0  0  1  0  0  0  0  0  0
  161.4890  201.6090  148.6040 C   0  0  0  0  0  2  0  0  0  0  0  0
  160.8960  200.9470  147.3660 C   0  0  2  0  0  3  0  0  0  0  0  0
  161.6220  199.7990  147.0510 O   0  0  0  0  0  1  0  0  0  0  0  0
  160.8540  201.8920  146.1680 C   0  0  0  0  0  2  0  0  0  0  0  0
  159.9720  201.3580  145.0480 C   0  0  0  0  0  1  0  0  0  0  0  0
  1  7  1  0  0  0  0
  1  8  1  0  0  0  0
  2 11  1  6  0  0  0
  2  9  1  0  0  0  0
  3 39  1  1  0  0  0
  3 10  1  0  0  0  0
  4  3  1  0  0  0  0
  4  6  1  0  0  0  0
  5  6  1  0  0  0  0
  5  2  1  0  0  0  0
  6  1  2  0  0  0  0
  8 30  1  1  0  0  0
  9  8  1  0  0  0  0
 10  7  2  0  0  0  0
 11 12  1  1  0  0  0
 11 13  1  0  0  0  0
 14 15  1  0  0  0  0
 14 13  1  0  0  0  0
 16 15  1  0  0  0  0
 17 16  1  0  0  0  0
 18 20  1  0  0  0  0
 18 17  1  0  0  0  0
 20 19  1  0  0  0  0
 21 18  1  0  0  0  0
 22 26  1  6  0  0  0
 22 24  1  0  0  0  0
 22 23  1  0  0  0  0
 23 25  1  6  0  0  0
 23 21  1  0  0  0  0
 24 23  1  0  0  0  0
 27 26  1  0  0  0  0
 29 28  1  0  0  0  0
 29 27  1  0  0  0  0
 30 35  1  0  0  0  0
 31 32  1  0  0  0  0
 32 36  1  0  0  0  0
 32 37  1  1  0  0  0
 33 36  1  0  0  0  0
 34 31  1  0  0  0  0
 35 34  2  0  0  0  0
 35 33  1  0  0  0  0
 38 37  1  0  0  0  0
 40 41  1  6  0  0  0
 40 39  1  0  0  0  0
 42 40  1  0  0  0  0
 43 42  1  0  0  0  0
M  END
>  <MODEL>
1

>  <REMARK>
 VINA RESULT:      -6.5      0.000      0.000
  Name = 
  19 active torsions:
  status: ('A' for Active; 'I' for Inactive)
    1  A    between atoms: C_1  and  C_34
    2  A    between atoms: C_1  and  C_35
    3  A    between atoms: C_2  and  C_6
    4  A    between atoms: C_2  and  C_13
    5  A    between atoms: C_3  and  C_12
    6  A    between atoms: C_3  and  C_15
    7  A    between atoms: N_4  and  C_15
    8  A    between atoms: N_4  and  C_22
    9  A    between atoms: N_4  and  C_42
   10  A    between atoms: C_5  and  C_18
   11  A    between atoms: C_5  and  C_23
   12  A    between atoms: C_6  and  C_17
   13  A    between atoms: C_11  and  C_36
   14  A    between atoms: C_12  and  C_17
   15  A    between atoms: C_14  and  C_22
   16  A    between atoms: C_16  and  C_23
   17  A    between atoms: C_19  and  O_25
   18  A    between atoms: C_29  and  C_31
   19  A    between atoms: C_29  and  C_36
                            x       y       z     vdW  Elec       q    Type
                         _______ _______ _______ _____ _____    ______ ____

>  <TORSDO>
F 19

$$$$
=
 OpenBabel11062410173D

 43 46  0  0  1  0  0  0  0  0999 V2000
  161.5100  207.3530  151.8500 C   0  0  0  0  0  0  0  0  0  0  0  0
  161.4610  209.7370  150.2700 C   0  0  2  0  0  3  0  0  0  0  0  0
  161.0640  207.4680  154.6460 C   0  0  2  0  0  3  0  0  0  0  0  0
  160.7960  208.5570  153.7590 O   0  0  0  0  0  0  0  0  0  0  0  0
  161.2230  209.7200  151.6790 O   0  0  0  0  0  0  0  0  0  0  0  0
  161.1790  208.5280  152.4140 C   0  0  0  0  0  0  0  0  0  0  0  0
  161.4100  206.1490  152.6230 N   0  0  0  0  0  0  0  0  0  0  0  0
  161.8850  207.2720  150.3900 C   0  0  2  0  0  3  0  0  0  0  0  0
  162.4190  208.6120  149.8780 C   0  0  0  0  0  2  0  0  0  0  0  0
  161.1690  206.1670  153.9000 C   0  0  0  0  0  3  0  0  0  0  0  0
  162.0170  211.0850  149.8380 C   0  0  2  0  0  3  0  0  0  0  0  0
  161.2590  212.1130  150.3770 F   0  0  0  0  0  0  0  0  0  0  0  0
  162.0280  211.1790  148.3210 C   0  0  0  0  0  2  0  0  0  0  0  0
  162.5690  212.5240  147.8840 C   0  0  0  0  0  2  0  0  0  0  0  0
  161.4170  213.4360  147.5110 C   0  0  0  0  0  2  0  0  0  0  0  0
  161.5870  213.9390  146.0870 C   0  0  0  0  0  2  0  0  0  0  0  0
  161.3570  212.8160  145.0800 C   0  0  0  0  0  2  0  0  0  0  0  0
  160.5610  213.2900  143.9550 N   0  0  0  0  0  0  0  0  0  0  0  0
  158.3970  213.9940  143.4520 O   0  0  0  0  0  1  0  0  0  0  0  0
  159.2900  213.7430  144.4950 C   0  0  0  0  0  2  0  0  0  0  0  0
  160.2680  212.1350  143.1210 C   0  0  0  0  0  2  0  0  0  0  0  0
  161.3890  211.0660  141.0470 C   0  0  2  0  0  3  0  0  0  0  0  0
  160.9360  212.2830  141.7640 C   0  0  2  0  0  0  0  0  0  0  0  0
  162.2830  211.8870  141.7730 O   0  0  0  0  0  0  0  0  0  0  0  0
  160.7470  213.4630  141.0400 O   0  0  0  0  0  1  0  0  0  0  0  0
  161.5950  211.2990  139.5560 C   0  0  0  0  0  2  0  0  0  0  0  0
  161.9500  210.0000  138.8540 C   0  0  0  0  0  2  0  0  0  0  0  0
  161.1320  207.8190  138.3050 O   0  0  0  0  0  1  0  0  0  0  0  0
  160.9210  208.9180  139.1400 C   0  0  0  0  0  2  0  0  0  0  0  0
  160.6980  206.8250  149.5350 C   0  0  0  0  0  2  0  0  0  0  0  0
  161.3180  203.5200  147.7970 C   0  0  0  0  0  2  0  0  0  0  0  0
  161.2110  204.0070  146.3580 C   0  0  1  0  0  3  0  0  0  0  0  0
  161.5550  206.3460  147.1480 C   0  0  0  0  0  2  0  0  0  0  0  0
  160.9530  204.5650  148.7330 N   0  0  0  0  0  0  0  0  0  0  0  0
  161.1060  205.8280  148.4970 C   0  0  0  0  0  0  0  0  0  0  0  0
  162.0810  205.2460  146.2310 C   0  0  0  0  0  2  0  0  0  0  0  0
  161.6750  203.0180  145.4920 O   0  0  0  0  0  0  0  0  0  0  0  0
  160.6130  201.6900  145.7380 S   0  0  0  0  0  1  0  0  0  0  0  0
  159.9870  207.3680  155.7140 C   0  0  0  0  0  2  0  0  0  0  0  0
  160.3550  208.1850  156.9470 C   0  0  2  0  0  3  0  0  0  0  0  0
  159.8240  209.4700  156.8380 O   0  0  0  0  0  1  0  0  0  0  0  0
  161.8650  208.2530  157.1670 C   0  0  0  0  0  2  0  0  0  0  0  0
  162.3710  209.6880  157.2260 C   0  0  0  0  0  1  0  0  0  0  0  0
  1  6  2  0  0  0  0
  1  7  1  0  0  0  0
  2 11  1  1  0  0  0
  2  5  1  0  0  0  0
  3 39  1  1  0  0  0
  4  3  1  0  0  0  0
  5  6  1  0  0  0  0
  6  4  1  0  0  0  0
  7 10  2  0  0  0  0
  8 30  1  6  0  0  0
  8  1  1  0  0  0  0
  9  2  1  0  0  0  0
  9  8  1  0  0  0  0
 10  3  1  0  0  0  0
 11 12  1  1  0  0  0
 13 11  1  0  0  0  0
 14 13  1  0  0  0  0
 15 14  1  0  0  0  0
 16 15  1  0  0  0  0
 17 16  1  0  0  0  0
 18 20  1  0  0  0  0
 18 17  1  0  0  0  0
 19 20  1  0  0  0  0
 21 18  1  0  0  0  0
 22 26  1  6  0  0  0
 22 23  1  0  0  0  0
 22 24  1  0  0  0  0
 23 25  1  6  0  0  0
 23 24  1  0  0  0  0
 23 21  1  0  0  0  0
 27 29  1  0  0  0  0
 27 26  1  0  0  0  0
 28 29  1  0  0  0  0
 31 34  1  0  0  0  0
 32 37  1  6  0  0  0
 32 31  1  0  0  0  0
 33 35  1  0  0  0  0
 35 34  2  0  0  0  0
 35 30  1  0  0  0  0
 36 32  1  0  0  0  0
 36 33  1  0  0  0  0
 37 38  1  0  0  0  0
 39 40  1  0  0  0  0
 40 41  1  6  0  0  0
 40 42  1  0  0  0  0
 42 43  1  0  0  0  0
M  END
>  <MODEL>
2

>  <REMARK>
 VINA RESULT:      -6.3      3.032      6.774
  Name = 
  19 active torsions:
  status: ('A' for Active; 'I' for Inactive)
    1  A    between atoms: C_1  and  C_34
    2  A    between atoms: C_1  and  C_35
    3  A    between atoms: C_2  and  C_6
    4  A    between atoms: C_2  and  C_13
    5  A    between atoms: C_3  and  C_12
    6  A    between atoms: C_3  and  C_15
    7  A    between atoms: N_4  and  C_15
    8  A    between atoms: N_4  and  C_22
    9  A    between atoms: N_4  and  C_42
   10  A    between atoms: C_5  and  C_18
   11  A    between atoms: C_5  and  C_23
   12  A    between atoms: C_6  and  C_17
   13  A    between atoms: C_11  and  C_36
   14  A    between atoms: C_12  and  C_17
   15  A    between atoms: C_14  and  C_22
   16  A    between atoms: C_16  and  C_23
   17  A    between atoms: C_19  and  O_25
   18  A    between atoms: C_29  and  C_31
   19  A    between atoms: C_29  and  C_36
                            x       y       z     vdW  Elec       q    Type
                         _______ _______ _______ _____ _____    ______ ____

>  <TORSDO>
F 19

$$$$
=
 OpenBabel11062410173D

 43 46  0  0  1  0  0  0  0  0999 V2000
  161.4160  207.2890  152.3250 C   0  0  0  0  0  0  0  0  0  0  0  0
  161.6020  209.3840  150.3880 C   0  0  2  0  0  3  0  0  0  0  0  0
  161.0330  207.8920  155.0680 C   0  0  2  0  0  3  0  0  0  0  0  0
  160.8700  208.8510  154.0190 O   0  0  0  0  0  0  0  0  0  0  0  0
  161.3870  209.6160  151.7810 O   0  0  0  0  0  0  0  0  0  0  0  0
  161.2250  208.5670  152.6960 C   0  0  0  0  0  0  0  0  0  0  0  0
  161.1980  206.2410  153.2800 N   0  0  0  0  0  0  0  0  0  0  0  0
  161.7550  206.9370  150.8970 C   0  0  2  0  0  3  0  0  0  0  0  0
  162.4240  208.1120  150.1790 C   0  0  0  0  0  2  0  0  0  0  0  0
  160.9820  206.4860  154.5380 C   0  0  0  0  0  3  0  0  0  0  0  0
  162.2950  210.5770  149.7470 C   0  0  2  0  0  3  0  0  0  0  0  0
  161.9030  211.7530  150.3700 F   0  0  0  0  0  0  0  0  0  0  0  0
  161.9670  210.6330  148.2650 C   0  0  0  0  0  2  0  0  0  0  0  0
  161.7050  212.0620  147.8390 C   0  0  0  0  0  2  0  0  0  0  0  0
  160.3670  212.1430  147.1330 C   0  0  0  0  0  2  0  0  0  0  0  0
  160.2580  213.4490  146.3630 C   0  0  0  0  0  2  0  0  0  0  0  0
  161.5990  213.8330  145.7470 C   0  0  0  0  0  2  0  0  0  0  0  0
  161.6710  213.3960  144.3590 N   0  0  0  0  0  0  0  0  0  0  0  0
  163.9760  213.6510  144.1290 O   0  0  0  0  0  1  0  0  0  0  0  0
  162.7380  214.1560  143.7290 C   0  0  0  0  0  2  0  0  0  0  0  0
  160.4330  213.8090  143.7150 C   0  0  0  0  0  2  0  0  0  0  0  0
  159.8250  213.1840  141.2780 C   0  0  2  0  0  3  0  0  0  0  0  0
  160.0010  212.7720  142.6920 C   0  0  2  0  0  0  0  0  0  0  0  0
  158.7280  213.0280  142.1580 O   0  0  0  0  0  0  0  0  0  0  0  0
  160.1780  211.4160  142.9850 O   0  0  0  0  0  1  0  0  0  0  0  0
  159.8590  212.0080  140.3100 C   0  0  0  0  0  2  0  0  0  0  0  0
  158.5860  211.9580  139.4830 C   0  0  0  0  0  2  0  0  0  0  0  0
  157.3330  209.9460  139.1530 O   0  0  0  0  0  1  0  0  0  0  0  0
  158.4680  210.6410  138.7310 C   0  0  0  0  0  2  0  0  0  0  0  0
  160.5120  206.4960  150.1230 C   0  0  0  0  0  2  0  0  0  0  0  0
  161.2160  206.0170  146.4350 C   0  0  0  0  0  2  0  0  0  0  0  0
  162.1720  204.8370  146.5470 C   0  0  1  0  0  3  0  0  0  0  0  0
  161.3320  204.4040  148.8540 C   0  0  0  0  0  2  0  0  0  0  0  0
  160.8870  206.5520  147.7420 N   0  0  0  0  0  0  0  0  0  0  0  0
  160.8690  205.8440  148.8250 C   0  0  0  0  0  0  0  0  0  0  0  0
  161.5250  203.8110  147.4600 C   0  0  0  0  0  2  0  0  0  0  0  0
  162.3780  204.2790  145.2860 O   0  0  0  0  0  0  0  0  0  0  0  0
  161.2520  205.0790  144.2650 S   0  0  0  0  0  1  0  0  0  0  0  0
  159.9700  208.0820  156.1370 C   0  0  0  0  0  2  0  0  0  0  0  0
  160.3320  209.2240  157.0790 C   0  0  2  0  0  3  0  0  0  0  0  0
  159.5260  210.3300  156.8120 O   0  0  0  0  0  1  0  0  0  0  0  0
  161.8070  209.6090  156.9830 C   0  0  0  0  0  2  0  0  0  0  0  0
  162.0320  211.0880  157.2610 C   0  0  0  0  0  1  0  0  0  0  0  0
  1  6  2  0  0  0  0
  1  7  1  0  0  0  0
  2 11  1  1  0  0  0
  2  5  1  0  0  0  0
  3 39  1  1  0  0  0
  4  3  1  0  0  0  0
  5  6  1  0  0  0  0
  6  4  1  0  0  0  0
  7 10  2  0  0  0  0
  8 30  1  6  0  0  0
  8  1  1  0  0  0  0
  9  2  1  0  0  0  0
  9  8  1  0  0  0  0
 10  3  1  0  0  0  0
 11 12  1  1  0  0  0
 13 11  1  0  0  0  0
 14 13  1  0  0  0  0
 15 14  1  0  0  0  0
 16 15  1  0  0  0  0
 17 16  1  0  0  0  0
 18 17  1  0  0  0  0
 20 19  1  0  0  0  0
 20 18  1  0  0  0  0
 21 18  1  0  0  0  0
 22 26  1  6  0  0  0
 22 24  1  0  0  0  0
 22 23  1  0  0  0  0
 23 25  1  1  0  0  0
 23 21  1  0  0  0  0
 24 23  1  0  0  0  0
 27 26  1  0  0  0  0
 29 28  1  0  0  0  0
 29 27  1  0  0  0  0
 31 32  1  0  0  0  0
 31 34  1  0  0  0  0
 32 37  1  6  0  0  0
 32 36  1  0  0  0  0
 34 35  2  0  0  0  0
 35 33  1  0  0  0  0
 35 30  1  0  0  0  0
 36 33  1  0  0  0  0
 38 37  1  0  0  0  0
 39 40  1  0  0  0  0
 40 41  1  6  0  0  0
 42 40  1  0  0  0  0
 42 43  1  0  0  0  0
M  END
>  <MODEL>
3

>  <REMARK>
 VINA RESULT:      -6.1      3.118      6.957
  Name = 
  19 active torsions:
  status: ('A' for Active; 'I' for Inactive)
    1  A    between atoms: C_1  and  C_34
    2  A    between atoms: C_1  and  C_35
    3  A    between atoms: C_2  and  C_6
    4  A    between atoms: C_2  and  C_13
    5  A    between atoms: C_3  and  C_12
    6  A    between atoms: C_3  and  C_15
    7  A    between atoms: N_4  and  C_15
    8  A    between atoms: N_4  and  C_22
    9  A    between atoms: N_4  and  C_42
   10  A    between atoms: C_5  and  C_18
   11  A    between atoms: C_5  and  C_23
   12  A    between atoms: C_6  and  C_17
   13  A    between atoms: C_11  and  C_36
   14  A    between atoms: C_12  and  C_17
   15  A    between atoms: C_14  and  C_22
   16  A    between atoms: C_16  and  C_23
   17  A    between atoms: C_19  and  O_25
   18  A    between atoms: C_29  and  C_31
   19  A    between atoms: C_29  and  C_36
                            x       y       z     vdW  Elec       q    Type
                         _______ _______ _______ _____ _____    ______ ____

>  <TORSDO>
F 19

$$$$
=
 OpenBabel11062410173D

 43 46  0  0  1  0  0  0  0  0999 V2000
  160.1630  210.1690  152.7280 C   0  0  0  0  0  0  0  0  0  0  0  0
  161.9560  207.9540  152.4940 C   0  0  2  0  0  3  0  0  0  0  0  0
  158.8760  210.7280  155.1900 C   0  0  2  0  0  3  0  0  0  0  0  0
  159.9720  209.8180  155.0620 O   0  0  0  0  0  0  0  0  0  0  0  0
  161.2920  208.3050  153.7090 O   0  0  0  0  0  0  0  0  0  0  0  0
  160.4770  209.4400  153.8130 C   0  0  0  0  0  0  0  0  0  0  0  0
  159.3630  211.3490  152.8820 N   0  0  0  0  0  0  0  0  0  0  0  0
  160.7250  209.8220  151.3700 C   0  0  2  0  0  3  0  0  0  0  0  0
  161.1020  208.3410  151.2870 C   0  0  0  0  0  2  0  0  0  0  0  0
  158.7900  211.6530  154.0080 C   0  0  0  0  0  3  0  0  0  0  0  0
  162.2730  206.4660  152.4680 C   0  0  2  0  0  3  0  0  0  0  0  0
  163.1800  206.1850  151.4570 F   0  0  0  0  0  0  0  0  0  0  0  0
  160.9970  205.6670  152.2670 C   0  0  0  0  0  2  0  0  0  0  0  0
  161.0550  204.3790  153.0610 C   0  0  0  0  0  2  0  0  0  0  0  0
  160.4020  203.2650  152.2680 C   0  0  0  0  0  2  0  0  0  0  0  0
  161.3890  202.6820  151.2710 C   0  0  0  0  0  2  0  0  0  0  0  0
  160.6620  201.9670  150.1370 C   0  0  0  0  0  2  0  0  0  0  0  0
  160.5790  202.8220  148.9600 N   0  0  0  0  0  0  0  0  0  0  0  0
  161.2850  200.7200  148.2420 O   0  0  0  0  0  1  0  0  0  0  0  0
  160.9570  202.0080  147.8160 C   0  0  0  0  0  2  0  0  0  0  0  0
  161.6080  203.8420  149.0980 C   0  0  0  0  0  2  0  0  0  0  0  0
  161.5630  205.3780  147.0150 C   0  0  2  0  0  3  0  0  0  0  0  0
  161.1660  205.1290  148.4220 C   0  0  2  0  0  0  0  0  0  0  0  0
  162.2390  205.9770  148.1050 O   0  0  0  0  0  0  0  0  0  0  0  0
  160.0850  205.8380  148.9540 O   0  0  0  0  0  1  0  0  0  0  0  0
  160.6950  206.4250  146.3300 C   0  0  0  0  0  2  0  0  0  0  0  0
  159.9240  205.8110  145.1750 C   0  0  0  0  0  2  0  0  0  0  0  0
  161.7120  205.5280  143.6090 O   0  0  0  0  0  1  0  0  0  0  0  0
  160.7880  204.8340  144.3920 C   0  0  0  0  0  2  0  0  0  0  0  0
  161.9400  210.6860  151.0330 C   0  0  0  0  0  2  0  0  0  0  0  0
  161.9810  212.1330  147.5360 C   0  0  0  0  0  2  0  0  0  0  0  0
  160.6470  212.8660  147.5870 C   0  0  1  0  0  3  0  0  0  0  0  0
  160.6980  212.7350  150.0760 C   0  0  0  0  0  2  0  0  0  0  0  0
  162.1780  211.3170  148.7180 N   0  0  0  0  0  0  0  0  0  0  0  0
  161.6720  211.5950  149.8760 C   0  0  0  0  0  0  0  0  0  0  0  0
  160.6200  213.6730  148.8740 C   0  0  0  0  0  2  0  0  0  0  0  0
  160.5400  213.7240  146.4930 O   0  0  0  0  0  0  0  0  0  0  0  0
  158.9490  213.4740  145.8970 S   0  0  0  0  0  1  0  0  0  0  0  0
  158.9950  211.5330  156.4730 C   0  0  0  0  0  2  0  0  0  0  0  0
  157.6320  212.0310  156.9410 C   0  0  2  0  0  3  0  0  0  0  0  0
  156.6230  211.2730  156.3480 O   0  0  0  0  0  1  0  0  0  0  0  0
  157.4250  213.5140  156.6430 C   0  0  0  0  0  2  0  0  0  0  0  0
  158.6940  214.3250  156.8600 C   0  0  0  0  0  1  0  0  0  0  0  0
  1  7  1  0  0  0  0
  1  6  2  0  0  0  0
  2 11  1  1  0  0  0
  2  5  1  0  0  0  0
  3 39  1  1  0  0  0
  4  3  1  0  0  0  0
  5  6  1  0  0  0  0
  6  4  1  0  0  0  0
  7 10  2  0  0  0  0
  8 30  1  1  0  0  0
  8  1  1  0  0  0  0
  9  8  1  0  0  0  0
  9  2  1  0  0  0  0
 10  3  1  0  0  0  0
 11 12  1  6  0  0  0
 13 11  1  0  0  0  0
 13 14  1  0  0  0  0
 15 14  1  0  0  0  0
 16 15  1  0  0  0  0
 17 16  1  0  0  0  0
 18 21  1  0  0  0  0
 18 17  1  0  0  0  0
 20 19  1  0  0  0  0
 20 18  1  0  0  0  0
 22 26  1  6  0  0  0
 22 24  1  0  0  0  0
 22 23  1  0  0  0  0
 23 25  1  1  0  0  0
 23 21  1  0  0  0  0
 24 23  1  0  0  0  0
 27 26  1  0  0  0  0
 28 29  1  0  0  0  0
 29 27  1  0  0  0  0
 31 32  1  0  0  0  0
 31 34  1  0  0  0  0
 32 37  1  6  0  0  0
 32 36  1  0  0  0  0
 34 35  2  0  0  0  0
 35 33  1  0  0  0  0
 35 30  1  0  0  0  0
 36 33  1  0  0  0  0
 38 37  1  0  0  0  0
 39 40  1  0  0  0  0
 40 41  1  6  0  0  0
 42 43  1  0  0  0  0
 42 40  1  0  0  0  0
M  END
>  <MODEL>
4

>  <REMARK>
 VINA RESULT:      -5.9      3.497      9.414
  Name = 
  19 active torsions:
  status: ('A' for Active; 'I' for Inactive)
    1  A    between atoms: C_1  and  C_34
    2  A    between atoms: C_1  and  C_35
    3  A    between atoms: C_2  and  C_6
    4  A    between atoms: C_2  and  C_13
    5  A    between atoms: C_3  and  C_12
    6  A    between atoms: C_3  and  C_15
    7  A    between atoms: N_4  and  C_15
    8  A    between atoms: N_4  and  C_22
    9  A    between atoms: N_4  and  C_42
   10  A    between atoms: C_5  and  C_18
   11  A    between atoms: C_5  and  C_23
   12  A    between atoms: C_6  and  C_17
   13  A    between atoms: C_11  and  C_36
   14  A    between atoms: C_12  and  C_17
   15  A    between atoms: C_14  and  C_22
   16  A    between atoms: C_16  and  C_23
   17  A    between atoms: C_19  and  O_25
   18  A    between atoms: C_29  and  C_31
   19  A    between atoms: C_29  and  C_36
                            x       y       z     vdW  Elec       q    Type
                         _______ _______ _______ _____ _____    ______ ____

>  <TORSDO>
F 19

$$$$
=
 OpenBabel11062410173D

 43 46  0  0  1  0  0  0  0  0999 V2000
  160.6990  212.4860  150.9670 C   0  0  0  0  0  0  0  0  0  0  0  0
  161.2500  209.7150  151.4100 C   0  0  2  0  0  3  0  0  0  0  0  0
  161.5170  213.7520  148.5670 C   0  0  2  0  0  3  0  0  0  0  0  0
  161.5150  212.3340  148.7500 O   0  0  0  0  0  0  0  0  0  0  0  0
  161.6130  210.4100  150.2150 O   0  0  0  0  0  0  0  0  0  0  0  0
  161.2640  211.7480  149.9950 C   0  0  0  0  0  0  0  0  0  0  0  0
  160.3160  213.8400  150.6890 N   0  0  0  0  0  0  0  0  0  0  0  0
  160.3700  211.8790  152.3100 C   0  0  2  0  0  3  0  0  0  0  0  0
  161.2570  210.6680  152.6050 C   0  0  0  0  0  2  0  0  0  0  0  0
  160.6440  214.4370  149.5810 C   0  0  0  0  0  3  0  0  0  0  0  0
  162.1900  208.5440  151.6560 C   0  0  2  0  0  3  0  0  0  0  0  0
  162.6640  208.0470  150.4510 F   0  0  0  0  0  0  0  0  0  0  0  0
  161.4680  207.4520  152.4270 C   0  0  0  0  0  2  0  0  0  0  0  0
  162.2550  206.1600  152.3670 C   0  0  0  0  0  2  0  0  0  0  0  0
  161.3930  205.0180  152.8650 C   0  0  0  0  0  2  0  0  0  0  0  0
  160.3150  204.6920  151.8460 C   0  0  0  0  0  2  0  0  0  0  0  0
  160.6340  203.3940  151.1090 C   0  0  0  0  0  2  0  0  0  0  0  0
  160.5500  203.5890  149.6680 N   0  0  0  0  0  0  0  0  0  0  0  0
  160.7960  201.3010  150.0360 O   0  0  0  0  0  1  0  0  0  0  0  0
  160.7610  202.2900  149.0510 C   0  0  0  0  0  2  0  0  0  0  0  0
  161.6810  204.4190  149.2810 C   0  0  0  0  0  2  0  0  0  0  0  0
  161.6260  205.6160  146.9860 C   0  0  2  0  0  3  0  0  0  0  0  0
  161.2130  205.5730  148.4100 C   0  0  2  0  0  0  0  0  0  0  0  0
  162.2660  206.3950  147.9800 O   0  0  0  0  0  0  0  0  0  0  0  0
  160.1030  206.3200  148.8150 O   0  0  0  0  0  1  0  0  0  0  0  0
  160.7390  206.5190  146.1390 C   0  0  0  0  0  2  0  0  0  0  0  0
  159.8830  205.6950  145.1930 C   0  0  0  0  0  2  0  0  0  0  0  0
  161.5920  205.5320  143.5250 O   0  0  0  0  0  1  0  0  0  0  0  0
  160.7380  204.7780  144.3320 C   0  0  0  0  0  2  0  0  0  0  0  0
  158.8970  211.4760  152.3920 C   0  0  0  0  0  2  0  0  0  0  0  0
  157.0170  213.9650  154.5370 C   0  0  0  0  0  2  0  0  0  0  0  0
  156.3770  212.9780  155.5050 C   0  0  1  0  0  3  0  0  0  0  0  0
  158.0440  211.2570  154.8170 C   0  0  0  0  0  2  0  0  0  0  0  0
  157.6950  213.2750  153.4560 N   0  0  0  0  0  0  0  0  0  0  0  0
  158.2170  212.0970  153.5710 C   0  0  0  0  0  0  0  0  0  0  0  0
  157.4700  212.0440  155.9930 C   0  0  0  0  0  2  0  0  0  0  0  0
  155.8320  213.6680  156.5870 O   0  0  0  0  0  0  0  0  0  0  0  0
  154.4420  214.4510  155.9500 S   0  0  0  0  0  1  0  0  0  0  0  0
  161.0620  214.1130  147.1630 C   0  0  0  0  0  2  0  0  0  0  0  0
  161.3280  212.9740  146.1860 C   0  0  2  0  0  3  0  0  0  0  0  0
  162.0500  213.4480  145.0910 O   0  0  0  0  0  1  0  0  0  0  0  0
  160.0410  212.2990  145.7200 C   0  0  0  0  0  2  0  0  0  0  0  0
  158.8080  212.8950  146.3840 C   0  0  0  0  0  1  0  0  0  0  0  0
  1  8  1  0  0  0  0
  2 11  1  1  0  0  0
  2  9  1  0  0  0  0
  3 39  1  6  0  0  0
  3  4  1  0  0  0  0
  3 10  1  0  0  0  0
  4  6  1  0  0  0  0
  5  2  1  0  0  0  0
  6  5  1  0  0  0  0
  6  1  2  0  0  0  0
  7  1  1  0  0  0  0
  8 30  1  6  0  0  0
  8  9  1  0  0  0  0
 10  7  2  0  0  0  0
 11 12  1  6  0  0  0
 11 13  1  0  0  0  0
 14 13  1  0  0  0  0
 14 15  1  0  0  0  0
 16 15  1  0  0  0  0
 17 16  1  0  0  0  0
 18 17  1  0  0  0  0
 20 18  1  0  0  0  0
 20 19  1  0  0  0  0
 21 18  1  0  0  0  0
 22 26  1  6  0  0  0
 22 24  1  0  0  0  0
 22 23  1  0  0  0  0
 23 25  1  1  0  0  0
 23 21  1  0  0  0  0
 24 23  1  0  0  0  0
 27 26  1  0  0  0  0
 28 29  1  0  0  0  0
 29 27  1  0  0  0  0
 30 35  1  0  0  0  0
 31 32  1  0  0  0  0
 32 36  1  0  0  0  0
 32 37  1  1  0  0  0
 33 36  1  0  0  0  0
 34 35  2  0  0  0  0
 34 31  1  0  0  0  0
 35 33  1  0  0  0  0
 38 37  1  0  0  0  0
 40 41  1  6  0  0  0
 40 39  1  0  0  0  0
 42 40  1  0  0  0  0
 42 43  1  0  0  0  0
M  END
>  <MODEL>
5

>  <REMARK>
 VINA RESULT:      -5.8      3.337      8.314
  Name = 
  19 active torsions:
  status: ('A' for Active; 'I' for Inactive)
    1  A    between atoms: C_1  and  C_34
    2  A    between atoms: C_1  and  C_35
    3  A    between atoms: C_2  and  C_6
    4  A    between atoms: C_2  and  C_13
    5  A    between atoms: C_3  and  C_12
    6  A    between atoms: C_3  and  C_15
    7  A    between atoms: N_4  and  C_15
    8  A    between atoms: N_4  and  C_22
    9  A    between atoms: N_4  and  C_42
   10  A    between atoms: C_5  and  C_18
   11  A    between atoms: C_5  and  C_23
   12  A    between atoms: C_6  and  C_17
   13  A    between atoms: C_11  and  C_36
   14  A    between atoms: C_12  and  C_17
   15  A    between atoms: C_14  and  C_22
   16  A    between atoms: C_16  and  C_23
   17  A    between atoms: C_19  and  O_25
   18  A    between atoms: C_29  and  C_31
   19  A    between atoms: C_29  and  C_36
                            x       y       z     vdW  Elec       q    Type
                         _______ _______ _______ _____ _____    ______ ____

>  <TORSDO>
F 19

$$$$
=
 OpenBabel11062410173D

 43 46  0  0  1  0  0  0  0  0999 V2000
  161.3840  211.8780  150.0220 C   0  0  0  0  0  0  0  0  0  0  0  0
  161.7580  209.0660  150.3800 C   0  0  2  0  0  3  0  0  0  0  0  0
  161.6520  213.0520  147.4570 C   0  0  2  0  0  3  0  0  0  0  0  0
  161.5590  211.6420  147.6730 O   0  0  0  0  0  0  0  0  0  0  0  0
  161.8560  209.7190  149.1130 O   0  0  0  0  0  0  0  0  0  0  0  0
  161.5940  211.0860  148.9560 C   0  0  0  0  0  0  0  0  0  0  0  0
  161.0760  213.2640  149.8180 N   0  0  0  0  0  0  0  0  0  0  0  0
  161.3670  211.3100  151.4210 C   0  0  2  0  0  3  0  0  0  0  0  0
  162.1780  210.0140  151.5030 C   0  0  0  0  0  2  0  0  0  0  0  0
  161.1520  213.8230  148.6470 C   0  0  0  0  0  3  0  0  0  0  0  0
  162.6100  207.8050  150.4010 C   0  0  2  0  0  3  0  0  0  0  0  0
  162.5080  207.1370  149.1900 F   0  0  0  0  0  0  0  0  0  0  0  0
  162.1720  206.9010  151.5400 C   0  0  0  0  0  2  0  0  0  0  0  0
  161.5300  205.6430  150.9930 C   0  0  0  0  0  2  0  0  0  0  0  0
  161.8520  204.4740  151.9030 C   0  0  0  0  0  2  0  0  0  0  0  0
  160.7190  203.4620  151.8760 C   0  0  0  0  0  2  0  0  0  0  0  0
  161.1290  202.2040  151.1160 C   0  0  0  0  0  2  0  0  0  0  0  0
  160.4700  202.1520  149.8170 N   0  0  0  0  0  0  0  0  0  0  0  0
  158.4440  201.2800  149.0640 O   0  0  0  0  0  1  0  0  0  0  0  0
  159.5710  201.0100  149.8430 C   0  0  0  0  0  2  0  0  0  0  0  0
  161.4930  201.8500  148.8280 C   0  0  0  0  0  2  0  0  0  0  0  0
  162.1270  204.0540  147.6270 C   0  0  2  0  0  3  0  0  0  0  0  0
  161.3630  202.7820  147.6350 C   0  0  2  0  0  0  0  0  0  0  0  0
  160.7520  204.0040  147.9600 O   0  0  0  0  0  0  0  0  0  0  0  0
  160.8890  202.2710  146.4240 O   0  0  0  0  0  1  0  0  0  0  0  0
  162.2800  204.6440  146.2310 C   0  0  0  0  0  2  0  0  0  0  0  0
  161.6220  206.0100  146.1500 C   0  0  0  0  0  2  0  0  0  0  0  0
  160.4500  204.8600  144.4090 O   0  0  0  0  0  1  0  0  0  0  0  0
  160.4070  205.9840  145.2350 C   0  0  0  0  0  2  0  0  0  0  0  0
  159.9380  211.0590  151.9020 C   0  0  0  0  0  2  0  0  0  0  0  0
  159.9460  211.4110  155.6710 C   0  0  0  0  0  2  0  0  0  0  0  0
  159.9000  212.9320  155.7480 C   0  0  1  0  0  3  0  0  0  0  0  0
  159.1140  213.0050  153.3830 C   0  0  0  0  0  2  0  0  0  0  0  0
  160.1230  210.9600  154.3040 N   0  0  0  0  0  0  0  0  0  0  0  0
  159.7070  211.6170  153.2700 C   0  0  0  0  0  0  0  0  0  0  0  0
  158.7920  213.4010  154.8220 C   0  0  0  0  0  2  0  0  0  0  0  0
  159.6190  213.3280  157.0550 O   0  0  0  0  0  0  0  0  0  0  0  0
  157.9090  213.4860  157.1040 S   0  0  0  0  0  1  0  0  0  0  0  0
  160.8760  213.4560  146.2140 C   0  0  0  0  0  2  0  0  0  0  0  0
  159.7030  212.5170  145.9650 C   0  0  2  0  0  3  0  0  0  0  0  0
  159.8600  211.8790  144.7350 O   0  0  0  0  0  1  0  0  0  0  0  0
  158.3600  213.2410  146.0180 C   0  0  0  0  0  2  0  0  0  0  0  0
  157.2960  212.4250  146.7380 C   0  0  0  0  0  1  0  0  0  0  0  0
  1  8  1  0  0  0  0
  2 11  1  6  0  0  0
  2  9  1  0  0  0  0
  3 39  1  6  0  0  0
  3  4  1  0  0  0  0
  3 10  1  0  0  0  0
  4  6  1  0  0  0  0
  5  2  1  0  0  0  0
  6  5  1  0  0  0  0
  6  1  2  0  0  0  0
  7  1  1  0  0  0  0
  8  9  1  0  0  0  0
  8 30  1  6  0  0  0
 10  7  2  0  0  0  0
 11 12  1  6  0  0  0
 11 13  1  0  0  0  0
 14 13  1  0  0  0  0
 14 15  1  0  0  0  0
 16 15  1  0  0  0  0
 17 16  1  0  0  0  0
 18 20  1  0  0  0  0
 18 17  1  0  0  0  0
 19 20  1  0  0  0  0
 21 18  1  0  0  0  0
 22 26  1  6  0  0  0
 22 23  1  0  0  0  0
 22 24  1  0  0  0  0
 23 25  1  6  0  0  0
 23 24  1  0  0  0  0
 23 21  1  0  0  0  0
 27 26  1  0  0  0  0
 28 29  1  0  0  0  0
 29 27  1  0  0  0  0
 30 35  1  0  0  0  0
 31 32  1  0  0  0  0
 32 37  1  1  0  0  0
 33 36  1  0  0  0  0
 34 31  1  0  0  0  0
 35 33  1  0  0  0  0
 35 34  2  0  0  0  0
 36 32  1  0  0  0  0
 37 38  1  0  0  0  0
 40 41  1  6  0  0  0
 40 42  1  0  0  0  0
 40 39  1  0  0  0  0
 42 43  1  0  0  0  0
M  END
>  <MODEL>
6

>  <REMARK>
 VINA RESULT:      -5.8      2.760      8.453
  Name = 
  19 active torsions:
  status: ('A' for Active; 'I' for Inactive)
    1  A    between atoms: C_1  and  C_34
    2  A    between atoms: C_1  and  C_35
    3  A    between atoms: C_2  and  C_6
    4  A    between atoms: C_2  and  C_13
    5  A    between atoms: C_3  and  C_12
    6  A    between atoms: C_3  and  C_15
    7  A    between atoms: N_4  and  C_15
    8  A    between atoms: N_4  and  C_22
    9  A    between atoms: N_4  and  C_42
   10  A    between atoms: C_5  and  C_18
   11  A    between atoms: C_5  and  C_23
   12  A    between atoms: C_6  and  C_17
   13  A    between atoms: C_11  and  C_36
   14  A    between atoms: C_12  and  C_17
   15  A    between atoms: C_14  and  C_22
   16  A    between atoms: C_16  and  C_23
   17  A    between atoms: C_19  and  O_25
   18  A    between atoms: C_29  and  C_31
   19  A    between atoms: C_29  and  C_36
                            x       y       z     vdW  Elec       q    Type
                         _______ _______ _______ _____ _____    ______ ____

>  <TORSDO>
F 19

$$$$
=
 OpenBabel11062410173D

 43 46  0  0  1  0  0  0  0  0999 V2000
  161.2970  208.9090  152.5120 C   0  0  0  0  0  0  0  0  0  0  0  0
  161.4590  210.5640  150.1860 C   0  0  2  0  0  3  0  0  0  0  0  0
  160.5560  210.0110  155.0160 C   0  0  2  0  0  3  0  0  0  0  0  0
  160.4030  210.7030  153.7740 O   0  0  0  0  0  0  0  0  0  0  0  0
  161.0710  211.0490  151.4730 O   0  0  0  0  0  0  0  0  0  0  0  0
  160.9280  210.2000  152.5780 C   0  0  0  0  0  0  0  0  0  0  0  0
  161.0950  208.0620  153.6520 N   0  0  0  0  0  0  0  0  0  0  0  0
  161.8250  208.3170  151.2280 C   0  0  2  0  0  3  0  0  0  0  0  0
  162.4340  209.3950  150.3280 C   0  0  0  0  0  2  0  0  0  0  0  0
  160.7180  208.5310  154.8040 C   0  0  0  0  0  3  0  0  0  0  0  0
  162.0810  211.6790  149.3590 C   0  0  2  0  0  3  0  0  0  0  0  0
  161.5770  212.9100  149.7530 F   0  0  0  0  0  0  0  0  0  0  0  0
  161.8050  211.4470  147.8830 C   0  0  0  0  0  2  0  0  0  0  0  0
  161.1420  212.6650  147.2750 C   0  0  0  0  0  2  0  0  0  0  0  0
  159.8440  212.2550  146.6080 C   0  0  0  0  0  2  0  0  0  0  0  0
  159.4300  213.2970  145.5840 C   0  0  0  0  0  2  0  0  0  0  0  0
  160.6060  214.1940  145.2100 C   0  0  0  0  0  2  0  0  0  0  0  0
  161.4590  213.5380  144.2260 N   0  0  0  0  0  0  0  0  0  0  0  0
  163.7790  213.3260  144.2530 O   0  0  0  0  0  1  0  0  0  0  0  0
  162.7290  214.2450  144.2260 C   0  0  0  0  0  2  0  0  0  0  0  0
  160.8590  213.7640  142.9200 C   0  0  0  0  0  2  0  0  0  0  0  0
  161.3050  212.2970  140.8340 C   0  0  2  0  0  3  0  0  0  0  0  0
  160.6980  212.4470  142.1800 C   0  0  2  0  0  0  0  0  0  0  0  0
  159.9280  212.5670  141.0130 O   0  0  0  0  0  0  0  0  0  0  0  0
  160.3680  211.2980  142.9040 O   0  0  0  0  0  1  0  0  0  0  0  0
  161.4800  210.8420  140.4220 C   0  0  0  0  0  2  0  0  0  0  0  0
  160.9550  210.6160  139.0140 C   0  0  0  0  0  2  0  0  0  0  0  0
  159.4080  209.2100  137.8490 O   0  0  0  0  0  1  0  0  0  0  0  0
  160.3710  209.2200  138.8600 C   0  0  0  0  0  2  0  0  0  0  0  0
  160.7300  207.5660  150.4700 C   0  0  0  0  0  2  0  0  0  0  0  0
  161.5650  204.0430  151.5720 C   0  0  0  0  0  2  0  0  0  0  0  0
  160.8270  203.2900  150.4730 C   0  0  1  0  0  3  0  0  0  0  0  0
  160.7790  205.3750  149.1080 C   0  0  0  0  0  2  0  0  0  0  0  0
  161.2860  205.4650  151.5120 N   0  0  0  0  0  0  0  0  0  0  0  0
  160.9970  206.0950  150.4210 C   0  0  0  0  0  0  0  0  0  0  0  0
  161.2240  203.9150  149.1470 C   0  0  0  0  0  2  0  0  0  0  0  0
  161.2030  201.9470  150.4890 O   0  0  0  0  0  0  0  0  0  0  0  0
  160.8940  201.3890  148.8940 S   0  0  0  0  0  1  0  0  0  0  0  0
  159.3700  210.2770  155.9280 C   0  0  0  0  0  2  0  0  0  0  0  0
  158.8020  211.6730  155.7010 C   0  0  2  0  0  3  0  0  0  0  0  0
  159.5520  212.6100  156.4110 O   0  0  0  0  0  1  0  0  0  0  0  0
  157.3290  211.7690  156.0920 C   0  0  0  0  0  2  0  0  0  0  0  0
  156.4620  210.8020  155.2990 C   0  0  0  0  0  1  0  0  0  0  0  0
  1  6  2  0  0  0  0
  1  7  1  0  0  0  0
  2 11  1  6  0  0  0
  2  9  1  0  0  0  0
  2  5  1  0  0  0  0
  3 39  1  1  0  0  0
  4  3  1  0  0  0  0
  5  6  1  0  0  0  0
  6  4  1  0  0  0  0
  7 10  2  0  0  0  0
  8 30  1  6  0  0  0
  8  1  1  0  0  0  0
  9  8  1  0  0  0  0
 10  3  1  0  0  0  0
 11 12  1  1  0  0  0
 13 11  1  0  0  0  0
 14 13  1  0  0  0  0
 15 14  1  0  0  0  0
 16 15  1  0  0  0  0
 17 16  1  0  0  0  0
 18 17  1  0  0  0  0
 20 18  1  0  0  0  0
 20 19  1  0  0  0  0
 21 18  1  0  0  0  0
 22 26  1  1  0  0  0
 22 24  1  0  0  0  0
 22 23  1  0  0  0  0
 23 25  1  1  0  0  0
 23 21  1  0  0  0  0
 24 23  1  0  0  0  0
 27 26  1  0  0  0  0
 28 29  1  0  0  0  0
 29 27  1  0  0  0  0
 32 37  1  6  0  0  0
 32 31  1  0  0  0  0
 33 36  1  0  0  0  0
 33 35  1  0  0  0  0
 34 31  1  0  0  0  0
 35 30  1  0  0  0  0
 35 34  2  0  0  0  0
 36 32  1  0  0  0  0
 38 37  1  0  0  0  0
 40 39  1  0  0  0  0
 40 42  1  0  0  0  0
 40 41  1  1  0  0  0
 43 42  1  0  0  0  0
M  END
>  <MODEL>
7

>  <REMARK>
 VINA RESULT:      -5.4      3.069      6.896
  Name = 
  19 active torsions:
  status: ('A' for Active; 'I' for Inactive)
    1  A    between atoms: C_1  and  C_34
    2  A    between atoms: C_1  and  C_35
    3  A    between atoms: C_2  and  C_6
    4  A    between atoms: C_2  and  C_13
    5  A    between atoms: C_3  and  C_12
    6  A    between atoms: C_3  and  C_15
    7  A    between atoms: N_4  and  C_15
    8  A    between atoms: N_4  and  C_22
    9  A    between atoms: N_4  and  C_42
   10  A    between atoms: C_5  and  C_18
   11  A    between atoms: C_5  and  C_23
   12  A    between atoms: C_6  and  C_17
   13  A    between atoms: C_11  and  C_36
   14  A    between atoms: C_12  and  C_17
   15  A    between atoms: C_14  and  C_22
   16  A    between atoms: C_16  and  C_23
   17  A    between atoms: C_19  and  O_25
   18  A    between atoms: C_29  and  C_31
   19  A    between atoms: C_29  and  C_36
                            x       y       z     vdW  Elec       q    Type
                         _______ _______ _______ _____ _____    ______ ____

>  <TORSDO>
F 19

$$$$
=
 OpenBabel11062410173D

 43 46  0  0  1  0  0  0  0  0999 V2000
  161.7960  209.2140  150.1090 C   0  0  0  0  0  0  0  0  0  0  0  0
  160.6040  209.5840  152.6820 C   0  0  2  0  0  3  0  0  0  0  0  0
  161.6110  206.7180  148.7800 C   0  0  2  0  0  3  0  0  0  0  0  0
  160.8280  207.0610  149.9270 O   0  0  0  0  0  0  0  0  0  0  0  0
  160.5300  208.3600  151.9470 O   0  0  0  0  0  0  0  0  0  0  0  0
  161.0590  208.2320  150.6570 C   0  0  0  0  0  0  0  0  0  0  0  0
  162.2840  209.0620  148.7690 N   0  0  0  0  0  0  0  0  0  0  0  0
  162.0310  210.5110  150.8450 C   0  0  2  0  0  3  0  0  0  0  0  0
  161.9030  210.3220  152.3580 C   0  0  0  0  0  2  0  0  0  0  0  0
  162.1800  207.9410  148.1180 C   0  0  0  0  0  3  0  0  0  0  0  0
  160.5000  209.3180  154.1760 C   0  0  2  0  0  3  0  0  0  0  0  0
  160.7810  210.4730  154.8910 F   0  0  0  0  0  0  0  0  0  0  0  0
  161.4580  208.2080  154.5740 C   0  0  0  0  0  2  0  0  0  0  0  0
  160.7640  206.8640  154.4940 C   0  0  0  0  0  2  0  0  0  0  0  0
  161.6590  205.8740  153.7750 C   0  0  0  0  0  2  0  0  0  0  0  0
  160.8180  204.8850  152.9860 C   0  0  0  0  0  2  0  0  0  0  0  0
  161.5620  204.4060  151.7430 C   0  0  0  0  0  2  0  0  0  0  0  0
  160.7600  203.4380  151.0060 N   0  0  0  0  0  0  0  0  0  0  0  0
  162.4550  202.0980  151.8790 O   0  0  0  0  0  1  0  0  0  0  0  0
  161.1070  202.1220  151.5160 C   0  0  0  0  0  2  0  0  0  0  0  0
  161.2060  203.4760  149.6220 C   0  0  0  0  0  2  0  0  0  0  0  0
  161.6240  201.5730  147.9170 C   0  0  2  0  0  3  0  0  0  0  0  0
  160.7140  202.2470  148.8760 C   0  0  2  0  0  0  0  0  0  0  0  0
  160.6020  202.4550  147.4930 O   0  0  0  0  0  0  0  0  0  0  0  0
  159.6220  201.5380  149.3840 O   0  0  0  0  0  1  0  0  0  0  0  0
  161.2060  200.1410  147.6110 C   0  0  0  0  0  2  0  0  0  0  0  0
  161.5700  199.7700  146.1840 C   0  0  0  0  0  2  0  0  0  0  0  0
  160.0810  200.9310  144.7120 O   0  0  0  0  0  1  0  0  0  0  0  0
  160.3340  199.6900  145.3010 C   0  0  0  0  0  2  0  0  0  0  0  0
  161.0650  211.5990  150.3740 C   0  0  0  0  0  2  0  0  0  0  0  0
  163.3270  212.6290  147.5190 C   0  0  0  0  0  2  0  0  0  0  0  0
  162.2510  213.0940  146.5450 C   0  0  1  0  0  3  0  0  0  0  0  0
  160.6380  213.2530  148.4400 C   0  0  0  0  0  2  0  0  0  0  0  0
  162.7410  212.0020  148.6880 N   0  0  0  0  0  0  0  0  0  0  0  0
  161.5740  212.3050  149.1570 C   0  0  0  0  0  0  0  0  0  0  0  0
  161.3170  214.0180  147.3060 C   0  0  0  0  0  2  0  0  0  0  0  0
  162.8410  213.7880  145.4900 O   0  0  0  0  0  0  0  0  0  0  0  0
  162.0880  213.1600  144.0800 S   0  0  0  0  0  1  0  0  0  0  0  0
  160.7820  205.9260  147.7820 C   0  0  0  0  0  2  0  0  0  0  0  0
  161.2470  206.1790  146.3530 C   0  0  2  0  0  3  0  0  0  0  0  0
  160.1420  206.3610  145.5220 O   0  0  0  0  0  1  0  0  0  0  0  0
  162.1280  205.0510  145.8230 C   0  0  0  0  0  2  0  0  0  0  0  0
  161.5860  204.4610  144.5290 C   0  0  0  0  0  1  0  0  0  0  0  0
  1  6  2  0  0  0  0
  1  8  1  0  0  0  0
  2 11  1  1  0  0  0
  3 39  1  6  0  0  0
  3  4  1  0  0  0  0
  4  6  1  0  0  0  0
  5  2  1  0  0  0  0
  6  5  1  0  0  0  0
  7  1  1  0  0  0  0
  8 30  1  6  0  0  0
  8  9  1  0  0  0  0
  9  2  1  0  0  0  0
 10  7  2  0  0  0  0
 10  3  1  0  0  0  0
 11 13  1  0  0  0  0
 11 12  1  1  0  0  0
 14 13  1  0  0  0  0
 15 14  1  0  0  0  0
 16 15  1  0  0  0  0
 17 16  1  0  0  0  0
 18 20  1  0  0  0  0
 18 17  1  0  0  0  0
 20 19  1  0  0  0  0
 21 18  1  0  0  0  0
 22 26  1  6  0  0  0
 22 23  1  0  0  0  0
 23 25  1  1  0  0  0
 23 21  1  0  0  0  0
 24 22  1  0  0  0  0
 24 23  1  0  0  0  0
 27 26  1  0  0  0  0
 28 29  1  0  0  0  0
 29 27  1  0  0  0  0
 31 34  1  0  0  0  0
 32 37  1  6  0  0  0
 32 36  1  0  0  0  0
 32 31  1  0  0  0  0
 33 35  1  0  0  0  0
 34 35  2  0  0  0  0
 35 30  1  0  0  0  0
 36 33  1  0  0  0  0
 38 37  1  0  0  0  0
 40 41  1  6  0  0  0
 40 39  1  0  0  0  0
 42 40  1  0  0  0  0
 43 42  1  0  0  0  0
M  END
>  <MODEL>
8

>  <REMARK>
 VINA RESULT:      -5.4      3.745      8.816
  Name = 
  19 active torsions:
  status: ('A' for Active; 'I' for Inactive)
    1  A    between atoms: C_1  and  C_34
    2  A    between atoms: C_1  and  C_35
    3  A    between atoms: C_2  and  C_6
    4  A    between atoms: C_2  and  C_13
    5  A    between atoms: C_3  and  C_12
    6  A    between atoms: C_3  and  C_15
    7  A    between atoms: N_4  and  C_15
    8  A    between atoms: N_4  and  C_22
    9  A    between atoms: N_4  and  C_42
   10  A    between atoms: C_5  and  C_18
   11  A    between atoms: C_5  and  C_23
   12  A    between atoms: C_6  and  C_17
   13  A    between atoms: C_11  and  C_36
   14  A    between atoms: C_12  and  C_17
   15  A    between atoms: C_14  and  C_22
   16  A    between atoms: C_16  and  C_23
   17  A    between atoms: C_19  and  O_25
   18  A    between atoms: C_29  and  C_31
   19  A    between atoms: C_29  and  C_36
                            x       y       z     vdW  Elec       q    Type
                         _______ _______ _______ _____ _____    ______ ____

>  <TORSDO>
F 19

$$$$
=
 OpenBabel11062410173D

 43 46  0  0  1  0  0  0  0  0999 V2000
  159.5200  213.5500  143.1060 C   0  0  0  0  0  0  0  0  0  0  0  0
  161.3350  213.1710  145.2840 C   0  0  2  0  0  3  0  0  0  0  0  0
  160.3160  212.9660  140.4490 C   0  0  2  0  0  3  0  0  0  0  0  0
  161.0570  212.5580  141.6020 O   0  0  0  0  0  0  0  0  0  0  0  0
  161.6620  212.8760  143.9250 O   0  0  0  0  0  0  0  0  0  0  0  0
  160.7280  213.0010  142.8880 C   0  0  0  0  0  0  0  0  0  0  0  0
  158.5760  213.6200  142.0290 N   0  0  0  0  0  0  0  0  0  0  0  0
  159.1100  213.9980  144.4870 C   0  0  2  0  0  3  0  0  0  0  0  0
  160.3300  214.3210  145.3530 C   0  0  0  0  0  2  0  0  0  0  0  0
  158.9000  213.3220  140.8050 C   0  0  0  0  0  3  0  0  0  0  0  0
  162.5890  213.5110  146.0750 C   0  0  2  0  0  3  0  0  0  0  0  0
  163.5690  212.5550  145.8560 F   0  0  0  0  0  0  0  0  0  0  0  0
  162.2600  213.5970  147.5560 C   0  0  0  0  0  2  0  0  0  0  0  0
  162.9270  212.4640  148.3070 C   0  0  0  0  0  2  0  0  0  0  0  0
  161.9690  211.2940  148.4140 C   0  0  0  0  0  2  0  0  0  0  0  0
  162.3310  210.4280  149.6100 C   0  0  0  0  0  2  0  0  0  0  0  0
  161.8590  208.9920  149.4060 C   0  0  0  0  0  2  0  0  0  0  0  0
  161.3210  208.4480  150.6460 N   0  0  0  0  0  0  0  0  0  0  0  0
  160.8250  209.0650  152.8380 O   0  0  0  0  0  1  0  0  0  0  0  0
  161.2780  209.5390  151.6060 C   0  0  0  0  0  2  0  0  0  0  0  0
  162.2940  207.4910  151.1520 C   0  0  0  0  0  2  0  0  0  0  0  0
  161.5590  205.3190  149.9510 C   0  0  2  0  0  3  0  0  0  0  0  0
  161.6850  206.1000  151.2060 C   0  0  2  0  0  0  0  0  0  0  0  0
  160.4640  206.0110  150.5200 O   0  0  0  0  0  0  0  0  0  0  0  0
  161.6430  205.4250  152.4290 O   0  0  0  0  0  1  0  0  0  0  0  0
  161.3880  203.8260  150.1980 C   0  0  0  0  0  2  0  0  0  0  0  0
  160.6430  203.1740  149.0450 C   0  0  0  0  0  2  0  0  0  0  0  0
  161.2780  201.0850  150.0260 O   0  0  0  0  0  1  0  0  0  0  0  0
  160.2290  201.7520  149.3900 C   0  0  0  0  0  2  0  0  0  0  0  0
  158.2460  212.9440  145.1810 C   0  0  0  0  0  2  0  0  0  0  0  0
  156.0020  214.4530  147.8290 C   0  0  0  0  0  2  0  0  0  0  0  0
  156.5340  213.6830  149.0300 C   0  0  1  0  0  3  0  0  0  0  0  0
  158.5870  213.1210  147.7320 C   0  0  0  0  0  2  0  0  0  0  0  0
  156.5750  213.9580  146.5920 N   0  0  0  0  0  0  0  0  0  0  0  0
  157.7480  213.4190  146.5090 C   0  0  0  0  0  0  0  0  0  0  0  0
  158.0490  213.7800  149.0000 C   0  0  0  0  0  2  0  0  0  0  0  0
  156.0500  214.2550  150.2060 O   0  0  0  0  0  0  0  0  0  0  0  0
  157.3270  214.0670  151.3390 S   0  0  0  0  0  1  0  0  0  0  0  0
  160.3260  211.8750  139.3920 C   0  0  0  0  0  2  0  0  0  0  0  0
  161.6690  211.1550  139.3530 C   0  0  2  0  0  3  0  0  0  0  0  0
  162.5800  211.8940  138.5980 O   0  0  0  0  0  1  0  0  0  0  0  0
  161.5510  209.7370  138.8000 C   0  0  0  0  0  2  0  0  0  0  0  0
  160.1000  209.2950  138.6650 C   0  0  0  0  0  1  0  0  0  0  0  0
  1  8  1  0  0  0  0
  2  9  1  0  0  0  0
  2 11  1  1  0  0  0
  3 39  1  6  0  0  0
  3 10  1  0  0  0  0
  3  4  1  0  0  0  0
  4  6  1  0  0  0  0
  5  2  1  0  0  0  0
  6  1  2  0  0  0  0
  6  5  1  0  0  0  0
  7  1  1  0  0  0  0
  8 30  1  1  0  0  0
  8  9  1  0  0  0  0
 10  7  2  0  0  0  0
 11 12  1  1  0  0  0
 11 13  1  0  0  0  0
 13 14  1  0  0  0  0
 14 15  1  0  0  0  0
 15 16  1  0  0  0  0
 17 16  1  0  0  0  0
 17 18  1  0  0  0  0
 18 21  1  0  0  0  0
 18 20  1  0  0  0  0
 20 19  1  0  0  0  0
 21 23  1  0  0  0  0
 22 26  1  1  0  0  0
 22 24  1  0  0  0  0
 22 23  1  0  0  0  0
 23 25  1  1  0  0  0
 24 23  1  0  0  0  0
 27 29  1  0  0  0  0
 27 26  1  0  0  0  0
 29 28  1  0  0  0  0
 30 35  1  0  0  0  0
 31 32  1  0  0  0  0
 32 37  1  1  0  0  0
 33 36  1  0  0  0  0
 34 31  1  0  0  0  0
 35 34  2  0  0  0  0
 35 33  1  0  0  0  0
 36 32  1  0  0  0  0
 37 38  1  0  0  0  0
 40 41  1  6  0  0  0
 40 39  1  0  0  0  0
 42 40  1  0  0  0  0
 43 42  1  0  0  0  0
M  END
>  <MODEL>
9

>  <REMARK>
 VINA RESULT:      -5.4      2.687      9.964
  Name = 
  19 active torsions:
  status: ('A' for Active; 'I' for Inactive)
    1  A    between atoms: C_1  and  C_34
    2  A    between atoms: C_1  and  C_35
    3  A    between atoms: C_2  and  C_6
    4  A    between atoms: C_2  and  C_13
    5  A    between atoms: C_3  and  C_12
    6  A    between atoms: C_3  and  C_15
    7  A    between atoms: N_4  and  C_15
    8  A    between atoms: N_4  and  C_22
    9  A    between atoms: N_4  and  C_42
   10  A    between atoms: C_5  and  C_18
   11  A    between atoms: C_5  and  C_23
   12  A    between atoms: C_6  and  C_17
   13  A    between atoms: C_11  and  C_36
   14  A    between atoms: C_12  and  C_17
   15  A    between atoms: C_14  and  C_22
   16  A    between atoms: C_16  and  C_23
   17  A    between atoms: C_19  and  O_25
   18  A    between atoms: C_29  and  C_31
   19  A    between atoms: C_29  and  C_36
                            x       y       z     vdW  Elec       q    Type
                         _______ _______ _______ _____ _____    ______ ____

>  <TORSDO>
F 19

$$$$
