=
 OpenBabel11062409133D

 37 41  0  0  1  0  0  0  0  0999 V2000
  162.3730  205.5640  147.6360 C   0  0  2  0  0  3  0  0  0  0  0  0
  162.7930  206.6520  151.0350 C   0  0  0  0  0  2  0  0  0  0  0  0
  161.8630  208.4930  149.5020 C   0  0  2  0  0  3  0  0  0  0  0  0
  160.0810  203.9880  149.7180 O   0  0  0  0  0  1  0  0  0  0  0  0
  163.0810  207.9250  150.2350 C   0  0  0  0  0  2  0  0  0  0  0  0
  161.2890  204.7240  147.9260 O   0  0  0  0  0  0  0  0  0  0  0  0
  160.9720  204.9640  149.2710 C   0  0  1  0  0  3  0  0  0  0  0  0
  161.4570  206.6270  151.8010 C   0  0  2  0  0  3  0  0  0  0  0  0
  161.0870  207.4740  148.6520 C   0  0  2  0  0  3  0  0  0  0  0  0
  160.1760  206.7200  150.9430 C   0  0  0  0  0  2  0  0  0  0  0  0
  160.3520  206.3630  149.4550 C   0  0  2  0  0  3  0  0  0  0  0  0
  161.8530  206.9780  147.4170 C   0  0  0  0  0  2  0  0  0  0  0  0
  161.4270  207.5800  152.9550 C   0  0  0  0  0  0  0  0  0  0  0  0
  160.4110  210.2750  154.3090 C   0  0  0  0  0  2  0  0  0  0  0  0
  160.1040  210.1900  155.7950 C   0  0  0  0  0  2  0  0  0  0  0  0
  159.4060  208.8790  156.1350 C   0  0  0  0  0  2  0  0  0  0  0  0
  160.4560  206.7970  155.2490 C   0  0  0  0  0  3  0  0  0  0  0  0
  160.4090  207.7600  156.3910 C   0  0  0  0  0  2  0  0  0  0  0  0
  161.8460  209.8530  154.0470 C   0  0  0  0  0  2  0  0  0  0  0  0
  160.9390  207.1620  154.0950 C   0  0  0  0  0  0  0  0  0  0  0  0
  161.9240  208.9980  152.7840 C   0  0  0  0  0  2  0  0  0  0  0  0
  163.0810  205.0780  146.3860 C   0  0  0  0  0  3  0  0  0  0  0  0
  162.2640  205.4580  145.1670 C   0  0  0  0  0  2  0  0  0  0  0  0
  162.2200  204.0400  145.6940 C   0  0  0  0  0  2  0  0  0  0  0  0
  162.2160  209.7460  148.7090 C   0  0  0  0  0  2  0  0  0  0  0  0
  161.0200  213.2820  149.3610 N   0  0  0  0  0  0  0  0  0  0  0  0
  161.5650  212.2250  148.6940 C   0  0  0  0  0  0  0  0  0  0  0  0
  160.4740  213.1610  150.6000 C   0  0  0  0  0  3  0  0  0  0  0  0
  161.0110  210.8210  150.5930 C   0  0  0  0  0  3  0  0  0  0  0  0
  160.4560  211.9240  151.2380 C   0  0  0  0  0  3  0  0  0  0  0  0
  161.5710  210.9530  149.3180 C   0  0  0  0  0  0  0  0  0  0  0  0
  161.6020  212.9530  144.8970 C   0  0  0  0  0  0  0  0  0  0  0  0
  162.1180  212.4710  147.3430 C   0  0  0  0  0  0  0  0  0  0  0  0
  161.2160  212.6980  146.2510 N   0  0  0  0  0  2  0  0  0  0  0  0
  163.3630  212.4650  147.1410 O   0  0  0  0  0  0  0  0  0  0  0  0
  160.3390  213.2080  143.6600 S   0  0  0  0  0  1  0  0  0  0  0  0
  162.8150  213.0020  144.5630 O   0  0  0  0  0  0  0  0  0  0  0  0
  1 22  1  6  0  0  0
  1  6  1  0  0  0  0
  2  8  1  0  0  0  0
  3 25  1  6  0  0  0
  3  5  1  0  0  0  0
  5  2  1  0  0  0  0
  6  7  1  0  0  0  0
  7 11  1  0  0  0  0
  7  4  1  6  0  0  0
  8 13  1  1  0  0  0
  9 12  1  6  0  0  0
  9 11  1  0  0  0  0
  9  3  1  0  0  0  0
 10  8  1  0  0  0  0
 11 10  1  1  0  0  0
 12  1  1  0  0  0  0
 13 20  2  0  0  0  0
 14 15  1  0  0  0  0
 15 16  1  0  0  0  0
 16 18  1  0  0  0  0
 17 18  1  0  0  0  0
 19 14  1  0  0  0  0
 20 17  2  0  0  0  0
 21 13  1  0  0  0  0
 21 19  1  0  0  0  0
 23 24  1  0  0  0  0
 23 22  1  0  0  0  0
 24 22  1  0  0  0  0
 25 31  1  0  0  0  0
 26 28  1  0  0  0  0
 27 31  1  0  0  0  0
 27 26  2  0  0  0  0
 28 30  2  0  0  0  0
 29 30  1  0  0  0  0
 31 29  2  0  0  0  0
 32 34  1  0  0  0  0
 33 27  1  0  0  0  0
 34 33  1  0  0  0  0
 35 33  2  0  0  0  0
 36 32  1  0  0  0  0
 37 32  2  0  0  0  0
M  END
>  <MODEL>
1

>  <REMARK>
 VINA RESULT:      -6.4      0.000      0.000
  Name = 
  5 active torsions:
  status: ('A' for Active; 'I' for Inactive)
    1  A    between atoms: C_1  and  C_5
    2  A    between atoms: C_2  and  C_27
    3  A    between atoms: C_4  and  C_10
    4  A    between atoms: C_4  and  C_28
    5  A    between atoms: C_13  and  C_20
                            x       y       z     vdW  Elec       q    Type
                         _______ _______ _______ _____ _____    ______ ____

>  <TORSDO>
F 5

$$$$
=
 OpenBabel11062409133D

 37 41  0  0  1  0  0  0  0  0999 V2000
  157.6500  213.0110  155.4950 C   0  0  2  0  0  3  0  0  0  0  0  0
  158.7660  210.3690  153.3300 C   0  0  0  0  0  2  0  0  0  0  0  0
  159.7680  212.6560  152.7180 C   0  0  2  0  0  3  0  0  0  0  0  0
  159.7360  210.8240  157.2080 O   0  0  0  0  0  1  0  0  0  0  0  0
  158.7280  211.5800  152.3930 C   0  0  0  0  0  2  0  0  0  0  0  0
  158.3810  212.5580  156.6020 O   0  0  0  0  0  0  0  0  0  0  0  0
  159.1750  211.5030  156.1270 C   0  0  1  0  0  3  0  0  0  0  0  0
  160.1680  209.8720  153.7290 C   0  0  2  0  0  3  0  0  0  0  0  0
  159.8000  213.1000  154.1890 C   0  0  2  0  0  3  0  0  0  0  0  0
  161.0490  210.8690  154.5150 C   0  0  0  0  0  2  0  0  0  0  0  0
  160.2890  212.0220  155.1970 C   0  0  2  0  0  3  0  0  0  0  0  0
  158.5550  213.8810  154.6330 C   0  0  0  0  0  2  0  0  0  0  0  0
  160.9130  209.2470  152.5900 C   0  0  0  0  0  0  0  0  0  0  0  0
  161.0200  207.3090  150.0680 C   0  0  0  0  0  2  0  0  0  0  0  0
  161.8420  207.8060  148.8910 C   0  0  0  0  0  2  0  0  0  0  0  0
  161.6370  209.2990  148.6710 C   0  0  0  0  0  2  0  0  0  0  0  0
  161.8560  210.7600  150.6810 C   0  0  0  0  0  3  0  0  0  0  0  0
  162.5790  210.1270  149.5370 C   0  0  0  0  0  2  0  0  0  0  0  0
  161.8800  207.2510  151.3190 C   0  0  0  0  0  2  0  0  0  0  0  0
  161.3790  210.0280  151.6490 C   0  0  0  0  0  0  0  0  0  0  0  0
  161.0890  207.7470  152.5280 C   0  0  0  0  0  2  0  0  0  0  0  0
  156.4550  213.8190  155.9630 C   0  0  0  0  0  3  0  0  0  0  0  0
  155.5400  212.9320  156.7830 C   0  0  0  0  0  2  0  0  0  0  0  0
  155.1930  213.2500  155.3450 C   0  0  0  0  0  2  0  0  0  0  0  0
  159.6670  213.8410  151.7660 C   0  0  0  0  0  2  0  0  0  0  0  0
  157.0060  213.7310  149.0700 N   0  0  0  0  0  0  0  0  0  0  0  0
  158.2400  213.6520  149.6460 C   0  0  0  0  0  0  0  0  0  0  0  0
  155.8780  213.9650  149.7910 C   0  0  0  0  0  3  0  0  0  0  0  0
  157.1960  214.0680  151.7950 C   0  0  0  0  0  3  0  0  0  0  0  0
  155.9530  214.1340  151.1710 C   0  0  0  0  0  3  0  0  0  0  0  0
  158.3540  213.8280  151.0460 C   0  0  0  0  0  0  0  0  0  0  0  0
  160.1750  212.7180  146.4310 C   0  0  0  0  0  0  0  0  0  0  0  0
  159.3970  213.3780  148.7630 C   0  0  0  0  0  0  0  0  0  0  0  0
  159.1610  213.0070  147.3980 N   0  0  0  0  0  2  0  0  0  0  0  0
  160.5780  213.4500  149.2020 O   0  0  0  0  0  0  0  0  0  0  0  0
  159.6980  212.2630  144.7710 S   0  0  0  0  0  1  0  0  0  0  0  0
  161.3970  212.7790  146.7290 O   0  0  0  0  0  0  0  0  0  0  0  0
  1 22  1  1  0  0  0
  1  6  1  0  0  0  0
  2  8  1  0  0  0  0
  3 25  1  6  0  0  0
  3  9  1  0  0  0  0
  5  3  1  0  0  0  0
  5  2  1  0  0  0  0
  7  6  1  0  0  0  0
  7  4  1  1  0  0  0
  8 13  1  6  0  0  0
  8 10  1  0  0  0  0
  9 12  1  1  0  0  0
  9 11  1  0  0  0  0
 11 10  1  6  0  0  0
 11  7  1  0  0  0  0
 12  1  1  0  0  0  0
 14 19  1  0  0  0  0
 15 14  1  0  0  0  0
 16 15  1  0  0  0  0
 16 18  1  0  0  0  0
 17 20  2  0  0  0  0
 18 17  1  0  0  0  0
 19 21  1  0  0  0  0
 20 13  2  0  0  0  0
 21 13  1  0  0  0  0
 22 23  1  0  0  0  0
 24 22  1  0  0  0  0
 24 23  1  0  0  0  0
 26 27  2  0  0  0  0
 26 28  1  0  0  0  0
 27 31  1  0  0  0  0
 28 30  2  0  0  0  0
 30 29  1  0  0  0  0
 31 25  1  0  0  0  0
 31 29  2  0  0  0  0
 32 37  2  0  0  0  0
 32 34  1  0  0  0  0
 33 35  2  0  0  0  0
 33 27  1  0  0  0  0
 34 33  1  0  0  0  0
 36 32  1  0  0  0  0
M  END
>  <MODEL>
2

>  <REMARK>
 VINA RESULT:      -5.9      3.659      7.393
  Name = 
  5 active torsions:
  status: ('A' for Active; 'I' for Inactive)
    1  A    between atoms: C_1  and  C_5
    2  A    between atoms: C_2  and  C_27
    3  A    between atoms: C_4  and  C_10
    4  A    between atoms: C_4  and  C_28
    5  A    between atoms: C_13  and  C_20
                            x       y       z     vdW  Elec       q    Type
                         _______ _______ _______ _____ _____    ______ ____

>  <TORSDO>
F 5

$$$$
=
 OpenBabel11062409133D

 37 41  0  0  1  0  0  0  0  0999 V2000
  160.2450  210.0950  155.9690 C   0  0  2  0  0  3  0  0  0  0  0  0
  160.4170  212.4640  153.2740 C   0  0  0  0  0  2  0  0  0  0  0  0
  160.7670  210.0380  152.4990 C   0  0  2  0  0  3  0  0  0  0  0  0
  157.1160  211.4740  155.3500 O   0  0  0  0  0  1  0  0  0  0  0  0
  161.4120  211.3840  152.8390 C   0  0  0  0  0  2  0  0  0  0  0  0
  158.8630  210.2420  156.1530 O   0  0  0  0  0  0  0  0  0  0  0  0
  158.4250  211.0610  155.1010 C   0  0  1  0  0  3  0  0  0  0  0  0
  159.0940  212.5150  152.4860 C   0  0  2  0  0  3  0  0  0  0  0  0
  159.8010  209.4980  153.5660 C   0  0  2  0  0  3  0  0  0  0  0  0
  158.2020  211.2560  152.5670 C   0  0  0  0  0  2  0  0  0  0  0  0
  158.4930  210.3180  153.7530 C   0  0  2  0  0  3  0  0  0  0  0  0
  160.4870  209.0700  154.8700 C   0  0  0  0  0  2  0  0  0  0  0  0
  159.2710  212.9850  151.0750 C   0  0  0  0  0  0  0  0  0  0  0  0
  160.3910  212.5680  148.1270 C   0  0  0  0  0  2  0  0  0  0  0  0
  159.4810  213.0370  147.0040 C   0  0  0  0  0  2  0  0  0  0  0  0
  158.0260  212.6950  147.3000 C   0  0  0  0  0  2  0  0  0  0  0  0
  157.1730  213.3250  149.5580 C   0  0  0  0  0  3  0  0  0  0  0  0
  157.3580  213.7730  148.1450 C   0  0  0  0  0  2  0  0  0  0  0  0
  160.6840  213.7170  149.0760 C   0  0  0  0  0  2  0  0  0  0  0  0
  158.2030  213.1510  150.3370 C   0  0  0  0  0  0  0  0  0  0  0  0
  160.6560  213.2280  150.5220 C   0  0  0  0  0  2  0  0  0  0  0  0
  160.8880  209.6260  157.2610 C   0  0  0  0  0  3  0  0  0  0  0  0
  162.3240  209.2240  156.9880 C   0  0  0  0  0  2  0  0  0  0  0  0
  161.2550  208.1610  157.1340 C   0  0  0  0  0  2  0  0  0  0  0  0
  161.8070  209.0020  152.0940 C   0  0  0  0  0  2  0  0  0  0  0  0
  161.4200  207.1970  148.7840 N   0  0  0  0  0  0  0  0  0  0  0  0
  161.4220  207.3970  150.1330 C   0  0  0  0  0  0  0  0  0  0  0  0
  161.6680  208.1970  147.8980 C   0  0  0  0  0  3  0  0  0  0  0  0
  161.9570  209.7270  149.7250 C   0  0  0  0  0  3  0  0  0  0  0  0
  161.9370  209.4840  148.3540 C   0  0  0  0  0  3  0  0  0  0  0  0
  161.7010  208.6930  150.6320 C   0  0  0  0  0  0  0  0  0  0  0  0
  160.8310  203.7110  151.1440 C   0  0  0  0  0  0  0  0  0  0  0  0
  161.1230  206.2360  151.0030 C   0  0  0  0  0  0  0  0  0  0  0  0
  161.0990  204.9220  150.4300 N   0  0  0  0  0  2  0  0  0  0  0  0
  160.8730  206.3940  152.2300 O   0  0  0  0  0  0  0  0  0  0  0  0
  160.8360  202.1570  150.2650 S   0  0  0  0  0  1  0  0  0  0  0  0
  160.5920  203.7230  152.3800 O   0  0  0  0  0  0  0  0  0  0  0  0
  1  6  1  0  0  0  0
  1 22  1  1  0  0  0
  3 25  1  1  0  0  0
  3  5  1  0  0  0  0
  3  9  1  0  0  0  0
  5  2  1  0  0  0  0
  7  4  1  1  0  0  0
  7  6  1  0  0  0  0
  8 13  1  6  0  0  0
  8 10  1  0  0  0  0
  8  2  1  0  0  0  0
  9 11  1  0  0  0  0
  9 12  1  1  0  0  0
 11 10  1  6  0  0  0
 11  7  1  0  0  0  0
 12  1  1  0  0  0  0
 14 19  1  0  0  0  0
 15 16  1  0  0  0  0
 15 14  1  0  0  0  0
 16 18  1  0  0  0  0
 17 20  2  0  0  0  0
 18 17  1  0  0  0  0
 19 21  1  0  0  0  0
 20 13  2  0  0  0  0
 21 13  1  0  0  0  0
 23 24  1  0  0  0  0
 23 22  1  0  0  0  0
 24 22  1  0  0  0  0
 26 27  1  0  0  0  0
 27 31  2  0  0  0  0
 27 33  1  0  0  0  0
 28 30  1  0  0  0  0
 28 26  2  0  0  0  0
 29 31  1  0  0  0  0
 30 29  2  0  0  0  0
 31 25  1  0  0  0  0
 32 37  2  0  0  0  0
 33 35  2  0  0  0  0
 34 33  1  0  0  0  0
 34 32  1  0  0  0  0
 36 32  1  0  0  0  0
M  END
>  <MODEL>
3

>  <REMARK>
 VINA RESULT:      -5.2      3.994      8.148
  Name = 
  5 active torsions:
  status: ('A' for Active; 'I' for Inactive)
    1  A    between atoms: C_1  and  C_5
    2  A    between atoms: C_2  and  C_27
    3  A    between atoms: C_4  and  C_10
    4  A    between atoms: C_4  and  C_28
    5  A    between atoms: C_13  and  C_20
                            x       y       z     vdW  Elec       q    Type
                         _______ _______ _______ _____ _____    ______ ____

>  <TORSDO>
F 5

$$$$
=
 OpenBabel11062409133D

 37 41  0  0  1  0  0  0  0  0999 V2000
  159.6540  210.7040  156.1520 C   0  0  2  0  0  3  0  0  0  0  0  0
  159.5940  208.2910  153.4910 C   0  0  0  0  0  2  0  0  0  0  0  0
  161.3570  210.1280  153.1360 C   0  0  2  0  0  3  0  0  0  0  0  0
  160.8340  207.6300  157.2600 O   0  0  0  0  0  1  0  0  0  0  0  0
  159.9750  209.5850  152.7650 C   0  0  0  0  0  2  0  0  0  0  0  0
  160.2080  209.8190  157.0870 O   0  0  0  0  0  0  0  0  0  0  0  0
  160.5240  208.6560  156.3680 C   0  0  1  0  0  3  0  0  0  0  0  0
  160.7210  207.2540  153.6490 C   0  0  2  0  0  3  0  0  0  0  0  0
  161.6190  210.2480  154.6470 C   0  0  2  0  0  3  0  0  0  0  0  0
  161.9460  207.6960  154.4790 C   0  0  0  0  0  2  0  0  0  0  0  0
  161.7090  208.8980  155.4130 C   0  0  2  0  0  3  0  0  0  0  0  0
  160.7820  211.3300  155.3420 C   0  0  0  0  0  2  0  0  0  0  0  0
  161.1240  206.6250  152.3510 C   0  0  0  0  0  0  0  0  0  0  0  0
  160.4590  204.8400  149.8020 C   0  0  0  0  0  2  0  0  0  0  0  0
  161.0550  205.3190  148.4890 C   0  0  0  0  0  2  0  0  0  0  0  0
  160.9760  206.8360  148.3740 C   0  0  0  0  0  2  0  0  0  0  0  0
  161.7920  208.1450  150.3350 C   0  0  0  0  0  3  0  0  0  0  0  0
  162.1720  207.5110  149.0360 C   0  0  0  0  0  2  0  0  0  0  0  0
  161.5590  204.6200  150.8260 C   0  0  0  0  0  2  0  0  0  0  0  0
  161.4580  207.4080  151.3580 C   0  0  0  0  0  0  0  0  0  0  0  0
  161.1120  205.1210  152.1980 C   0  0  0  0  0  2  0  0  0  0  0  0
  158.8740  211.7890  156.8700 C   0  0  0  0  0  3  0  0  0  0  0  0
  157.3930  211.4750  156.7950 C   0  0  0  0  0  2  0  0  0  0  0  0
  157.9920  212.5150  155.8730 C   0  0  0  0  0  2  0  0  0  0  0  0
  161.6690  211.4240  152.3990 C   0  0  0  0  0  2  0  0  0  0  0  0
  159.1060  213.1290  150.1870 N   0  0  0  0  0  0  0  0  0  0  0  0
  160.2630  212.5010  150.5460 C   0  0  0  0  0  0  0  0  0  0  0  0
  158.0850  213.3310  151.0600 C   0  0  0  0  0  3  0  0  0  0  0  0
  159.3630  212.2560  152.7850 C   0  0  0  0  0  3  0  0  0  0  0  0
  158.1940  212.8930  152.3770 C   0  0  0  0  0  3  0  0  0  0  0  0
  160.4110  212.0510  151.8810 C   0  0  0  0  0  0  0  0  0  0  0  0
  162.3140  213.2070  147.3450 C   0  0  0  0  0  0  0  0  0  0  0  0
  161.3030  212.3220  149.5070 C   0  0  0  0  0  0  0  0  0  0  0  0
  161.3650  213.2500  148.4150 N   0  0  0  0  0  2  0  0  0  0  0  0
  162.1150  211.3580  149.5620 O   0  0  0  0  0  0  0  0  0  0  0  0
  162.2410  214.4450  146.0600 S   0  0  0  0  0  1  0  0  0  0  0  0
  163.1980  212.3120  147.2930 O   0  0  0  0  0  0  0  0  0  0  0  0
  1 22  1  1  0  0  0
  1  6  1  0  0  0  0
  2  8  1  0  0  0  0
  3 25  1  6  0  0  0
  3  9  1  0  0  0  0
  5  3  1  0  0  0  0
  5  2  1  0  0  0  0
  7  6  1  0  0  0  0
  7  4  1  1  0  0  0
  8 13  1  6  0  0  0
  8 10  1  0  0  0  0
  9 12  1  1  0  0  0
  9 11  1  0  0  0  0
 11 10  1  6  0  0  0
 11  7  1  0  0  0  0
 12  1  1  0  0  0  0
 14 19  1  0  0  0  0
 15 14  1  0  0  0  0
 16 15  1  0  0  0  0
 16 18  1  0  0  0  0
 17 20  2  0  0  0  0
 18 17  1  0  0  0  0
 19 21  1  0  0  0  0
 20 13  2  0  0  0  0
 21 13  1  0  0  0  0
 23 22  1  0  0  0  0
 24 23  1  0  0  0  0
 24 22  1  0  0  0  0
 26 27  2  0  0  0  0
 26 28  1  0  0  0  0
 27 31  1  0  0  0  0
 28 30  2  0  0  0  0
 30 29  1  0  0  0  0
 31 25  1  0  0  0  0
 31 29  2  0  0  0  0
 32 34  1  0  0  0  0
 33 35  2  0  0  0  0
 33 27  1  0  0  0  0
 34 33  1  0  0  0  0
 36 32  1  0  0  0  0
 37 32  2  0  0  0  0
M  END
>  <MODEL>
4

>  <REMARK>
 VINA RESULT:      -4.4      2.641      6.585
  Name = 
  5 active torsions:
  status: ('A' for Active; 'I' for Inactive)
    1  A    between atoms: C_1  and  C_5
    2  A    between atoms: C_2  and  C_27
    3  A    between atoms: C_4  and  C_10
    4  A    between atoms: C_4  and  C_28
    5  A    between atoms: C_13  and  C_20
                            x       y       z     vdW  Elec       q    Type
                         _______ _______ _______ _____ _____    ______ ____

>  <TORSDO>
F 5

$$$$
=
 OpenBabel11062409133D

 37 41  0  0  1  0  0  0  0  0999 V2000
  159.4570  211.3150  156.1790 C   0  0  2  0  0  3  0  0  0  0  0  0
  159.4470  209.4300  153.1200 C   0  0  0  0  0  2  0  0  0  0  0  0
  160.3890  211.8040  152.8300 C   0  0  2  0  0  3  0  0  0  0  0  0
  161.7850  208.7400  156.3200 O   0  0  0  0  0  1  0  0  0  0  0  0
  159.1990  210.8620  152.6350 C   0  0  0  0  0  2  0  0  0  0  0  0
  160.4870  210.5640  156.7630 O   0  0  0  0  0  0  0  0  0  0  0  0
  160.9460  209.7010  155.7580 C   0  0  1  0  0  3  0  0  0  0  0  0
  160.8410  208.8500  152.8140 C   0  0  2  0  0  3  0  0  0  0  0  0
  160.9920  211.7990  154.2440 C   0  0  2  0  0  3  0  0  0  0  0  0
  162.0410  209.5810  153.4560 C   0  0  0  0  0  2  0  0  0  0  0  0
  161.6980  210.4780  154.6600 C   0  0  2  0  0  3  0  0  0  0  0  0
  160.0760  212.4070  155.3160 C   0  0  0  0  0  2  0  0  0  0  0  0
  161.0600  208.5910  151.3550 C   0  0  0  0  0  0  0  0  0  0  0  0
  162.9980  208.1210  148.8760 C   0  0  0  0  0  2  0  0  0  0  0  0
  162.5310  207.0900  147.8620 C   0  0  0  0  0  2  0  0  0  0  0  0
  161.9070  205.8850  148.5550 C   0  0  0  0  0  2  0  0  0  0  0  0
  160.1860  206.3700  150.2950 C   0  0  0  0  0  3  0  0  0  0  0  0
  160.4270  206.1100  148.8430 C   0  0  0  0  0  2  0  0  0  0  0  0
  161.9470  209.2060  149.0390 C   0  0  0  0  0  2  0  0  0  0  0  0
  160.6090  207.4730  150.8480 C   0  0  0  0  0  0  0  0  0  0  0  0
  161.8110  209.5940  150.5090 C   0  0  0  0  0  2  0  0  0  0  0  0
  158.5980  211.9410  157.2610 C   0  0  0  0  0  3  0  0  0  0  0  0
  157.1940  212.1490  156.7290 C   0  0  0  0  0  2  0  0  0  0  0  0
  158.1520  213.3180  156.8120 C   0  0  0  0  0  2  0  0  0  0  0  0
  160.0750  213.2150  152.3490 C   0  0  0  0  0  2  0  0  0  0  0  0
  156.6720  213.7690  150.7730 N   0  0  0  0  0  0  0  0  0  0  0  0
  158.0150  213.5470  150.8590 C   0  0  0  0  0  0  0  0  0  0  0  0
  155.8720  213.8310  151.8690 C   0  0  0  0  0  3  0  0  0  0  0  0
  157.7820  213.4450  153.2710 C   0  0  0  0  0  3  0  0  0  0  0  0
  156.4130  213.6660  153.1410 C   0  0  0  0  0  3  0  0  0  0  0  0
  158.6010  213.3830  152.1380 C   0  0  0  0  0  0  0  0  0  0  0  0
  158.6960  213.5120  147.0530 C   0  0  0  0  0  0  0  0  0  0  0  0
  158.7870  213.4840  149.5960 C   0  0  0  0  0  0  0  0  0  0  0  0
  158.0870  213.5550  148.3470 N   0  0  0  0  0  2  0  0  0  0  0  0
  160.0420  213.3510  149.6100 O   0  0  0  0  0  0  0  0  0  0  0  0
  157.6660  213.6070  145.5970 S   0  0  0  0  0  1  0  0  0  0  0  0
  159.9440  213.4090  146.9220 O   0  0  0  0  0  0  0  0  0  0  0  0
  1  6  1  0  0  0  0
  1 22  1  1  0  0  0
  3 25  1  1  0  0  0
  3  9  1  0  0  0  0
  5  3  1  0  0  0  0
  5  2  1  0  0  0  0
  7  4  1  1  0  0  0
  7  6  1  0  0  0  0
  8 13  1  6  0  0  0
  8  2  1  0  0  0  0
  8 10  1  0  0  0  0
  9 11  1  0  0  0  0
  9 12  1  1  0  0  0
 11 10  1  6  0  0  0
 11  7  1  0  0  0  0
 12  1  1  0  0  0  0
 14 19  1  0  0  0  0
 15 16  1  0  0  0  0
 15 14  1  0  0  0  0
 16 18  1  0  0  0  0
 17 20  2  0  0  0  0
 18 17  1  0  0  0  0
 19 21  1  0  0  0  0
 20 13  2  0  0  0  0
 21 13  1  0  0  0  0
 23 24  1  0  0  0  0
 23 22  1  0  0  0  0
 24 22  1  0  0  0  0
 26 27  2  0  0  0  0
 26 28  1  0  0  0  0
 27 31  1  0  0  0  0
 28 30  2  0  0  0  0
 30 29  1  0  0  0  0
 31 25  1  0  0  0  0
 31 29  2  0  0  0  0
 32 34  1  0  0  0  0
 33 35  2  0  0  0  0
 33 27  1  0  0  0  0
 34 33  1  0  0  0  0
 36 32  1  0  0  0  0
 37 32  2  0  0  0  0
M  END
>  <MODEL>
5

>  <REMARK>
 VINA RESULT:      -4.0      3.270      7.057
  Name = 
  5 active torsions:
  status: ('A' for Active; 'I' for Inactive)
    1  A    between atoms: C_1  and  C_5
    2  A    between atoms: C_2  and  C_27
    3  A    between atoms: C_4  and  C_10
    4  A    between atoms: C_4  and  C_28
    5  A    between atoms: C_13  and  C_20
                            x       y       z     vdW  Elec       q    Type
                         _______ _______ _______ _____ _____    ______ ____

>  <TORSDO>
F 5

$$$$
=
 OpenBabel11062409133D

 37 41  0  0  1  0  0  0  0  0999 V2000
  160.8320  207.2250  153.9540 C   0  0  2  0  0  3  0  0  0  0  0  0
  159.8890  206.4300  150.5800 C   0  0  0  0  0  2  0  0  0  0  0  0
  161.9930  207.9000  150.7110 C   0  0  2  0  0  3  0  0  0  0  0  0
  161.3470  203.8510  153.3010 O   0  0  0  0  0  1  0  0  0  0  0  0
  160.4880  207.8330  150.4420 C   0  0  0  0  0  2  0  0  0  0  0  0
  161.2560  205.9230  154.2560 O   0  0  0  0  0  0  0  0  0  0  0  0
  161.1970  205.2140  153.0470 C   0  0  1  0  0  3  0  0  0  0  0  0
  160.7400  205.2780  150.0160 C   0  0  2  0  0  3  0  0  0  0  0  0
  162.4450  207.2360  152.0220 C   0  0  2  0  0  3  0  0  0  0  0  0
  162.1220  205.0640  150.6730 C   0  0  0  0  0  2  0  0  0  0  0  0
  162.2900  205.6900  152.0700 C   0  0  2  0  0  3  0  0  0  0  0  0
  161.9800  207.9710  153.2870 C   0  0  0  0  0  2  0  0  0  0  0  0
  160.8300  205.2930  148.5210 C   0  0  0  0  0  0  0  0  0  0  0  0
  162.2670  206.2030  145.8320 C   0  0  0  0  0  2  0  0  0  0  0  0
  162.3090  205.1630  144.7240 C   0  0  0  0  0  2  0  0  0  0  0  0
  162.5950  203.7760  145.2860 C   0  0  0  0  0  2  0  0  0  0  0  0
  161.2060  203.0550  147.2290 C   0  0  0  0  0  3  0  0  0  0  0  0
  161.3150  203.0820  145.7390 C   0  0  0  0  0  2  0  0  0  0  0  0
  160.8300  206.4640  146.2490 C   0  0  0  0  0  2  0  0  0  0  0  0
  161.0140  204.1580  147.8970 C   0  0  0  0  0  0  0  0  0  0  0  0
  160.7370  206.6000  147.7670 C   0  0  0  0  0  2  0  0  0  0  0  0
  160.4250  207.9420  155.2280 C   0  0  0  0  0  3  0  0  0  0  0  0
  160.4740  206.9690  156.3890 C   0  0  0  0  0  2  0  0  0  0  0  0
  159.1450  207.3280  155.7600 C   0  0  0  0  0  2  0  0  0  0  0  0
  162.5260  209.3220  150.5790 C   0  0  0  0  0  2  0  0  0  0  0  0
  160.3130  212.3850  150.8640 N   0  0  0  0  0  0  0  0  0  0  0  0
  161.2100  211.5070  150.3300 C   0  0  0  0  0  0  0  0  0  0  0  0
  159.6790  212.1540  152.0440 C   0  0  0  0  0  3  0  0  0  0  0  0
  160.8500  210.0680  152.2500 C   0  0  0  0  0  3  0  0  0  0  0  0
  159.9350  210.9870  152.7580 C   0  0  0  0  0  3  0  0  0  0  0  0
  161.4990  210.3130  151.0350 C   0  0  0  0  0  0  0  0  0  0  0  0
  161.4350  212.5810  146.6220 C   0  0  0  0  0  0  0  0  0  0  0  0
  161.8280  211.8560  149.0310 C   0  0  0  0  0  0  0  0  0  0  0  0
  160.9820  212.2160  147.9300 N   0  0  0  0  0  2  0  0  0  0  0  0
  163.0800  211.8210  148.8790 O   0  0  0  0  0  0  0  0  0  0  0  0
  160.2360  212.9960  145.3660 S   0  0  0  0  0  1  0  0  0  0  0  0
  162.6620  212.6140  146.3430 O   0  0  0  0  0  0  0  0  0  0  0  0
  1  6  1  0  0  0  0
  1 22  1  1  0  0  0
  3 25  1  1  0  0  0
  3  9  1  0  0  0  0
  5  2  1  0  0  0  0
  5  3  1  0  0  0  0
  7  4  1  1  0  0  0
  7  6  1  0  0  0  0
  8 13  1  6  0  0  0
  8  2  1  0  0  0  0
  8 10  1  0  0  0  0
  9 11  1  0  0  0  0
  9 12  1  1  0  0  0
 11 10  1  6  0  0  0
 11  7  1  0  0  0  0
 12  1  1  0  0  0  0
 14 19  1  0  0  0  0
 15 16  1  0  0  0  0
 15 14  1  0  0  0  0
 16 18  1  0  0  0  0
 17 20  2  0  0  0  0
 18 17  1  0  0  0  0
 19 21  1  0  0  0  0
 20 13  2  0  0  0  0
 21 13  1  0  0  0  0
 22 24  1  0  0  0  0
 22 23  1  0  0  0  0
 24 23  1  0  0  0  0
 25 31  1  0  0  0  0
 26 28  1  0  0  0  0
 27 26  2  0  0  0  0
 27 31  1  0  0  0  0
 28 30  2  0  0  0  0
 29 30  1  0  0  0  0
 31 29  2  0  0  0  0
 32 34  1  0  0  0  0
 33 27  1  0  0  0  0
 34 33  1  0  0  0  0
 35 33  2  0  0  0  0
 36 32  1  0  0  0  0
 37 32  2  0  0  0  0
M  END
>  <MODEL>
6

>  <REMARK>
 VINA RESULT:      -3.9      1.719      6.122
  Name = 
  5 active torsions:
  status: ('A' for Active; 'I' for Inactive)
    1  A    between atoms: C_1  and  C_5
    2  A    between atoms: C_2  and  C_27
    3  A    between atoms: C_4  and  C_10
    4  A    between atoms: C_4  and  C_28
    5  A    between atoms: C_13  and  C_20
                            x       y       z     vdW  Elec       q    Type
                         _______ _______ _______ _____ _____    ______ ____

>  <TORSDO>
F 5

$$$$
=
 OpenBabel11062409133D

 37 41  0  0  1  0  0  0  0  0999 V2000
  160.7560  206.8270  153.9830 C   0  0  2  0  0  3  0  0  0  0  0  0
  159.9160  206.4380  150.5110 C   0  0  0  0  0  2  0  0  0  0  0  0
  162.2690  207.4080  150.8690 C   0  0  2  0  0  3  0  0  0  0  0  0
  160.5890  203.4620  153.1330 O   0  0  0  0  0  1  0  0  0  0  0  0
  160.8080  207.6830  150.5060 C   0  0  0  0  0  2  0  0  0  0  0  0
  160.8700  205.4500  154.2200 O   0  0  0  0  0  0  0  0  0  0  0  0
  160.7500  204.8370  152.9640 C   0  0  1  0  0  3  0  0  0  0  0  0
  160.5430  205.1600  149.9230 C   0  0  2  0  0  3  0  0  0  0  0  0
  162.4720  206.5920  152.1570 C   0  0  2  0  0  3  0  0  0  0  0  0
  161.7950  204.6170  150.6460 C   0  0  0  0  0  2  0  0  0  0  0  0
  161.9890  205.1160  152.0900 C   0  0  2  0  0  3  0  0  0  0  0  0
  162.0820  207.3420  153.4390 C   0  0  0  0  0  2  0  0  0  0  0  0
  160.7430  205.2360  148.4400 C   0  0  0  0  0  0  0  0  0  0  0  0
  162.3160  206.3320  145.9010 C   0  0  0  0  0  2  0  0  0  0  0  0
  162.5100  205.3390  144.7670 C   0  0  0  0  0  2  0  0  0  0  0  0
  162.8430  203.9530  145.3050 C   0  0  0  0  0  2  0  0  0  0  0  0
  161.3620  203.0750  147.1100 C   0  0  0  0  0  3  0  0  0  0  0  0
  161.5810  203.1630  145.6350 C   0  0  0  0  0  2  0  0  0  0  0  0
  160.8380  206.4870  146.2130 C   0  0  0  0  0  2  0  0  0  0  0  0
  161.0480  204.1390  147.7970 C   0  0  0  0  0  0  0  0  0  0  0  0
  160.6210  206.5620  147.7230 C   0  0  0  0  0  2  0  0  0  0  0  0
  160.4170  207.5460  155.2750 C   0  0  0  0  0  3  0  0  0  0  0  0
  160.4970  206.5670  156.4290 C   0  0  0  0  0  2  0  0  0  0  0  0
  159.1500  206.9550  155.8590 C   0  0  0  0  0  2  0  0  0  0  0  0
  163.1000  208.6850  150.8670 C   0  0  0  0  0  2  0  0  0  0  0  0
  160.8310  211.6750  150.3440 N   0  0  0  0  0  0  0  0  0  0  0  0
  161.5590  210.7280  151.0030 C   0  0  0  0  0  0  0  0  0  0  0  0
  160.8250  211.7790  148.9890 C   0  0  0  0  0  3  0  0  0  0  0  0
  162.3300  209.9130  148.8530 C   0  0  0  0  0  3  0  0  0  0  0  0
  161.5800  210.9000  148.2180 C   0  0  0  0  0  3  0  0  0  0  0  0
  162.3310  209.8120  150.2480 C   0  0  0  0  0  0  0  0  0  0  0  0
  160.0260  210.9160  154.5480 C   0  0  0  0  0  0  0  0  0  0  0  0
  161.5010  210.7180  152.4830 C   0  0  0  0  0  0  0  0  0  0  0  0
  160.2370  210.9060  153.1330 N   0  0  0  0  0  2  0  0  0  0  0  0
  162.5470  210.5660  153.1710 O   0  0  0  0  0  0  0  0  0  0  0  0
  158.3780  211.1710  155.1870 S   0  0  0  0  0  1  0  0  0  0  0  0
  160.9820  210.7480  155.3510 O   0  0  0  0  0  0  0  0  0  0  0  0
  1  6  1  0  0  0  0
  1 22  1  1  0  0  0
  3 25  1  1  0  0  0
  3  9  1  0  0  0  0
  5  2  1  0  0  0  0
  5  3  1  0  0  0  0
  7  4  1  1  0  0  0
  7  6  1  0  0  0  0
  8 13  1  6  0  0  0
  8  2  1  0  0  0  0
  8 10  1  0  0  0  0
  9 12  1  1  0  0  0
 11 10  1  6  0  0  0
 11  9  1  0  0  0  0
 11  7  1  0  0  0  0
 12  1  1  0  0  0  0
 14 19  1  0  0  0  0
 15 16  1  0  0  0  0
 15 14  1  0  0  0  0
 16 18  1  0  0  0  0
 17 20  2  0  0  0  0
 18 17  1  0  0  0  0
 19 21  1  0  0  0  0
 20 13  2  0  0  0  0
 21 13  1  0  0  0  0
 22 24  1  0  0  0  0
 22 23  1  0  0  0  0
 24 23  1  0  0  0  0
 26 27  1  0  0  0  0
 27 33  1  0  0  0  0
 28 26  2  0  0  0  0
 29 31  1  0  0  0  0
 30 29  2  0  0  0  0
 30 28  1  0  0  0  0
 31 25  1  0  0  0  0
 31 27  2  0  0  0  0
 32 36  1  0  0  0  0
 32 37  2  0  0  0  0
 33 34  1  0  0  0  0
 33 35  2  0  0  0  0
 34 32  1  0  0  0  0
M  END
>  <MODEL>
7

>  <REMARK>
 VINA RESULT:      -3.5      3.233      7.116
  Name = 
  5 active torsions:
  status: ('A' for Active; 'I' for Inactive)
    1  A    between atoms: C_1  and  C_5
    2  A    between atoms: C_2  and  C_27
    3  A    between atoms: C_4  and  C_10
    4  A    between atoms: C_4  and  C_28
    5  A    between atoms: C_13  and  C_20
                            x       y       z     vdW  Elec       q    Type
                         _______ _______ _______ _____ _____    ______ ____

>  <TORSDO>
F 5

$$$$
