=
 OpenBabel11062410553D

 32 36  0  0  1  0  0  0  0  0999 V2000
  160.6740  209.9210  155.4520 C   0  0  0  0  0  0  0  0  0  0  0  0
  161.2560  206.7310  151.5220 C   0  0  1  0  0  3  0  0  0  0  0  0
  161.2730  204.2160  151.1270 C   0  0  0  0  0  0  0  0  0  0  0  0
  161.1230  203.0950  150.1790 C   0  0  0  0  0  0  0  0  0  0  0  0
  160.8670  207.7590  153.7220 C   0  0  0  0  0  0  0  0  0  0  0  0
  161.7230  209.2610  151.8730 C   0  0  0  0  0  3  0  0  0  0  0  0
  160.8400  200.9880  148.3520 C   0  0  0  0  0  3  0  0  0  0  0  0
  161.1120  210.1230  154.1410 C   0  0  0  0  0  3  0  0  0  0  0  0
  161.5080  208.0780  150.9510 C   0  0  0  0  0  0  0  0  0  0  0  0
  161.6120  208.2220  149.6140 C   0  0  0  0  0  0  0  0  0  0  0  0
  161.3060  205.8080  149.2160 C   0  0  0  0  0  0  0  0  0  0  0  0
  160.8940  200.7210  149.7220 C   0  0  0  0  0  3  0  0  0  0  0  0
  160.3540  208.6280  155.8730 C   0  0  0  0  0  3  0  0  0  0  0  0
  161.2020  209.0430  153.2610 C   0  0  0  0  0  0  0  0  0  0  0  0
  161.0360  201.7710  150.6340 C   0  0  0  0  0  3  0  0  0  0  0  0
  160.4540  207.5830  155.0060 N   0  0  0  0  0  0  0  0  0  0  0  0
  161.4390  207.0440  148.7060 C   0  0  0  0  0  0  0  0  0  0  0  0
  161.1730  204.6970  148.3210 N   0  0  0  0  0  2  0  0  0  0  0  0
  160.9430  206.6060  152.8190 C   0  0  0  0  0  3  0  0  0  0  0  0
  161.4120  203.9640  152.3550 O   0  0  0  0  0  0  0  0  0  0  0  0
  160.9290  202.3050  147.8920 C   0  0  0  0  0  3  0  0  0  0  0  0
  161.2830  205.5820  150.6430 N   0  0  0  0  0  0  0  0  0  0  0  0
  161.0700  203.3580  148.8010 C   0  0  0  0  0  0  0  0  0  0  0  0
  162.1820  210.5590  148.6130 N   0  0  0  0  0  0  0  0  0  0  0  0
  161.9300  209.5210  149.0610 C   0  0  0  0  0  0  0  0  0  0  0  0
  162.3010  206.5700  146.5020 O   0  0  0  0  0  1  0  0  0  0  0  0
  161.4160  207.1710  147.3070 O   0  0  0  0  0  0  0  0  0  0  0  0
  160.5890  211.0640  156.4000 C   0  0  0  0  0  2  0  0  0  0  0  0
  159.5880  212.0960  155.8890 C   0  0  0  0  0  2  0  0  0  0  0  0
  158.1650  211.5480  155.8150 C   0  0  0  0  0  3  0  0  0  0  0  0
  157.2760  212.1550  156.8850 C   0  0  0  0  0  1  0  0  0  0  0  0
  157.5570  211.7550  154.4390 C   0  0  0  0  0  1  0  0  0  0  0  0
  1 13  1  0  0  0  0
  1 28  1  0  0  0  0
  2 19  1  6  0  0  0
  3 20  2  0  0  0  0
  4 15  1  0  0  0  0
  4  3  1  0  0  0  0
  5 16  1  0  0  0  0
  6 14  2  0  0  0  0
  7 12  1  0  0  0  0
  8  1  2  0  0  0  0
  9  2  1  0  0  0  0
  9  6  1  0  0  0  0
 10  9  2  0  0  0  0
 11 22  1  0  0  0  0
 12 15  2  0  0  0  0
 14  5  1  0  0  0  0
 14  8  1  0  0  0  0
 16 13  2  0  0  0  0
 17 11  2  0  0  0  0
 17 10  1  0  0  0  0
 18 23  1  0  0  0  0
 18 11  1  0  0  0  0
 19  5  2  0  0  0  0
 21  7  2  0  0  0  0
 21 23  1  0  0  0  0
 22  3  1  0  0  0  0
 22  2  1  0  0  0  0
 23  4  2  0  0  0  0
 24 25  3  0  0  0  0
 25 10  1  0  0  0  0
 26 27  1  0  0  0  0
 27 17  1  0  0  0  0
 29 28  1  0  0  0  0
 30 29  1  0  0  0  0
 30 31  1  0  0  0  0
 32 30  1  0  0  0  0
M  END
>  <MODEL>
1

>  <REMARK>
 VINA RESULT:      -9.8      0.000      0.000
  Name = 
  5 active torsions:
  status: ('A' for Active; 'I' for Inactive)
    1  A    between atoms: C_1  and  C_10
    2  A    between atoms: C_2  and  C_24
    3  A    between atoms: C_10  and  C_24
    4  A    between atoms: C_13  and  C_15
    5  A    between atoms: O_25  and  C_26
                            x       y       z     vdW  Elec       q    Type
                         _______ _______ _______ _____ _____    ______ ____

>  <TORSDO>
F 5

$$$$
=
 OpenBabel11062410553D

 32 36  0  0  0  0  0  0  0  0999 V2000
  161.0020  201.8070  149.8390 C   0  0  0  0  0  0  0  0  0  0  0  0
  161.1890  206.4750  151.8700 C   0  0  0  0  0  0  0  0  0  0  0  0
  160.9450  207.5370  154.1710 C   0  0  0  0  0  0  0  0  0  0  0  0
  161.2160  208.6860  155.0560 C   0  0  0  0  0  0  0  0  0  0  0  0
  161.0390  204.0540  151.4670 C   0  0  0  0  0  0  0  0  0  0  0  0
  160.9910  205.5730  149.4430 C   0  0  0  0  0  3  0  0  0  0  0  0
  161.7390  210.8870  156.7100 C   0  0  0  0  0  3  0  0  0  0  0  0
  161.0080  203.0780  149.2600 C   0  0  0  0  0  2  0  0  0  0  0  0
  161.3080  206.6990  150.4070 C   0  0  0  0  0  0  0  0  0  0  0  0
  161.6280  207.9260  149.9480 C   0  0  0  0  0  0  0  0  0  0  0  0
  161.7040  208.8800  152.2200 C   0  0  0  0  0  0  0  0  0  0  0  0
  161.2420  209.7040  157.2610 C   0  0  0  0  0  3  0  0  0  0  0  0
  161.0010  201.6900  151.2310 C   0  0  0  0  0  3  0  0  0  0  0  0
  161.0380  204.2130  150.0720 C   0  0  0  0  0  0  0  0  0  0  0  0
  160.9800  208.6060  156.4360 C   0  0  0  0  0  3  0  0  0  0  0  0
  161.0210  202.8060  152.0090 N   0  0  0  0  0  0  0  0  0  0  0  0
  161.9010  209.0480  150.9020 C   0  0  0  0  0  0  0  0  0  0  0  0
  161.9440  209.9820  153.1040 N   0  0  0  0  0  2  0  0  0  0  0  0
  161.0790  205.2270  152.3450 C   0  0  0  0  0  3  0  0  0  0  0  0
  160.4120  206.5030  154.6570 O   0  0  0  0  0  0  0  0  0  0  0  0
  161.9740  210.9750  155.3350 C   0  0  0  0  0  3  0  0  0  0  0  0
  161.2680  207.6130  152.7610 N   0  0  0  0  0  0  0  0  0  0  0  0
  161.7140  209.8780  154.5080 C   0  0  0  0  0  0  0  0  0  0  0  0
  161.7060  208.3470  147.3780 N   0  0  0  0  0  0  0  0  0  0  0  0
  161.6720  208.1630  148.5210 C   0  0  0  0  0  0  0  0  0  0  0  0
  161.5570  211.2310  149.9320 O   0  0  0  0  0  1  0  0  0  0  0  0
  162.3590  210.3040  150.4720 O   0  0  0  0  0  0  0  0  0  0  0  0
  160.9570  200.5920  148.9820 C   0  0  0  0  0  2  0  0  0  0  0  0
  161.5850  200.8840  147.6230 C   0  0  0  0  0  2  0  0  0  0  0  0
  160.6650  200.5210  146.4600 C   0  0  0  0  0  3  0  0  0  0  0  0
  160.4480  201.7000  145.5290 C   0  0  0  0  0  1  0  0  0  0  0  0
  161.1880  199.3230  145.6860 C   0  0  0  0  0  1  0  0  0  0  0  0
  1 13  2  0  0  0  0
  2 19  2  0  0  0  0
  2 22  1  0  0  0  0
  3 20  2  0  0  0  0
  3  4  1  0  0  0  0
  4 15  1  0  0  0  0
  5 16  2  0  0  0  0
  5 19  1  0  0  0  0
  6 14  2  0  0  0  0
  6  9  1  0  0  0  0
  7 12  1  0  0  0  0
  8  1  1  0  0  0  0
  8 14  1  0  0  0  0
  9  2  1  0  0  0  0
 10  9  2  0  0  0  0
 10 17  1  0  0  0  0
 11 22  1  0  0  0  0
 11 18  1  0  0  0  0
 13 16  1  0  0  0  0
 14  5  1  0  0  0  0
 15 12  2  0  0  0  0
 17 11  2  0  0  0  0
 18 23  1  0  0  0  0
 21  7  2  0  0  0  0
 22  3  1  0  0  0  0
 23  4  2  0  0  0  0
 23 21  1  0  0  0  0
 24 25  3  0  0  0  0
 25 10  1  0  0  0  0
 26 27  1  0  0  0  0
 27 17  1  0  0  0  0
 28  1  1  0  0  0  0
 29 28  1  0  0  0  0
 30 29  1  0  0  0  0
 31 30  1  0  0  0  0
 32 30  1  0  0  0  0
M  END
>  <MODEL>
2

>  <REMARK>
 VINA RESULT:      -8.8      2.371      8.394
  Name = 
  5 active torsions:
  status: ('A' for Active; 'I' for Inactive)
    1  A    between atoms: C_1  and  C_10
    2  A    between atoms: C_2  and  C_24
    3  A    between atoms: C_10  and  C_24
    4  A    between atoms: C_13  and  C_15
    5  A    between atoms: O_25  and  C_26
                            x       y       z     vdW  Elec       q    Type
                         _______ _______ _______ _____ _____    ______ ____

>  <TORSDO>
F 5

$$$$
=
 OpenBabel11062410553D

 32 36  0  0  1  0  0  0  0  0999 V2000
  161.1640  203.0430  149.4370 C   0  0  0  0  0  0  0  0  0  0  0  0
  161.3010  208.0050  150.5840 C   0  0  1  0  0  3  0  0  0  0  0  0
  161.7070  210.2060  149.3700 C   0  0  0  0  0  0  0  0  0  0  0  0
  161.5350  211.6710  149.3410 C   0  0  0  0  0  0  0  0  0  0  0  0
  161.3140  205.8140  149.4670 C   0  0  0  0  0  0  0  0  0  0  0  0
  161.3370  205.8270  151.9980 C   0  0  0  0  0  3  0  0  0  0  0  0
  161.1990  214.4530  149.3180 C   0  0  0  0  0  3  0  0  0  0  0  0
  161.1910  203.7190  150.6590 C   0  0  0  0  0  3  0  0  0  0  0  0
  161.1220  207.3240  151.8910 C   0  0  0  0  0  0  0  0  0  0  0  0
  160.8390  208.0570  152.9870 C   0  0  0  0  0  0  0  0  0  0  0  0
  160.9190  210.1760  151.7290 C   0  0  0  0  0  0  0  0  0  0  0  0
  161.6650  213.7970  148.1760 C   0  0  0  0  0  3  0  0  0  0  0  0
  161.2270  203.7760  148.2490 C   0  0  0  0  0  3  0  0  0  0  0  0
  161.2550  205.1130  150.6820 C   0  0  0  0  0  0  0  0  0  0  0  0
  161.8330  212.4100  148.1870 C   0  0  0  0  0  3  0  0  0  0  0  0
  161.2980  205.1340  148.2880 N   0  0  0  0  0  0  0  0  0  0  0  0
  160.6670  209.5410  152.8860 C   0  0  0  0  0  0  0  0  0  0  0  0
  160.7760  211.6000  151.6730 N   0  0  0  0  0  2  0  0  0  0  0  0
  161.3740  207.2780  149.4600 C   0  0  0  0  0  3  0  0  0  0  0  0
  162.2130  209.6290  148.3700 O   0  0  0  0  0  0  0  0  0  0  0  0
  160.9020  213.7230  150.4720 C   0  0  0  0  0  3  0  0  0  0  0  0
  161.3200  209.4510  150.5450 N   0  0  0  0  0  0  0  0  0  0  0  0
  161.0690  212.3350  150.4860 C   0  0  0  0  0  0  0  0  0  0  0  0
  160.6510  206.8770  155.3020 N   0  0  0  0  0  0  0  0  0  0  0  0
  160.7370  207.4020  154.2740 C   0  0  0  0  0  0  0  0  0  0  0  0
  161.1020  210.9280  154.8120 O   0  0  0  0  0  1  0  0  0  0  0  0
  160.2500  210.3240  153.9750 O   0  0  0  0  0  0  0  0  0  0  0  0
  161.1090  201.5560  149.4020 C   0  0  0  0  0  2  0  0  0  0  0  0
  160.3170  201.0890  148.1850 C   0  0  0  0  0  2  0  0  0  0  0  0
  161.1860  200.9400  146.9390 C   0  0  0  0  0  3  0  0  0  0  0  0
  161.6060  199.4970  146.7210 C   0  0  0  0  0  1  0  0  0  0  0  0
  160.4910  201.4830  145.7030 C   0  0  0  0  0  1  0  0  0  0  0  0
  1  8  2  0  0  0  0
  2 19  1  6  0  0  0
  2  9  1  0  0  0  0
  3 22  1  0  0  0  0
  4  3  1  0  0  0  0
  4 23  1  0  0  0  0
  5 14  1  0  0  0  0
  7 21  1  0  0  0  0
  8 14  1  0  0  0  0
  9  6  1  0  0  0  0
  9 10  2  0  0  0  0
 10 25  1  0  0  0  0
 11 17  2  0  0  0  0
 12 15  1  0  0  0  0
 12  7  2  0  0  0  0
 13 16  2  0  0  0  0
 13  1  1  0  0  0  0
 14  6  2  0  0  0  0
 15  4  2  0  0  0  0
 16  5  1  0  0  0  0
 17 10  1  0  0  0  0
 17 27  1  0  0  0  0
 18 11  1  0  0  0  0
 19  5  2  0  0  0  0
 20  3  2  0  0  0  0
 21 23  2  0  0  0  0
 22  2  1  0  0  0  0
 22 11  1  0  0  0  0
 23 18  1  0  0  0  0
 25 24  3  0  0  0  0
 27 26  1  0  0  0  0
 28  1  1  0  0  0  0
 29 28  1  0  0  0  0
 30 29  1  0  0  0  0
 31 30  1  0  0  0  0
 32 30  1  0  0  0  0
M  END
>  <MODEL>
3

>  <REMARK>
 VINA RESULT:      -7.5      2.730      8.963
  Name = 
  5 active torsions:
  status: ('A' for Active; 'I' for Inactive)
    1  A    between atoms: C_1  and  C_10
    2  A    between atoms: C_2  and  C_24
    3  A    between atoms: C_10  and  C_24
    4  A    between atoms: C_13  and  C_15
    5  A    between atoms: O_25  and  C_26
                            x       y       z     vdW  Elec       q    Type
                         _______ _______ _______ _____ _____    ______ ____

>  <TORSDO>
F 5

$$$$
