=
 OpenBabel11052422463D

 28 32  0  0  1  0  0  0  0  0999 V2000
  159.2320  212.0400  153.7490 C   0  0  1  0  0  3  0  0  0  0  0  0
  161.8980  208.0100  151.0410 C   0  0  0  0  0  3  0  0  0  0  0  0
  162.6860  210.3130  155.8400 C   0  0  0  0  0  1  0  0  0  0  0  0
  161.1180  206.5010  152.7810 C   0  0  0  0  0  0  0  0  0  0  0  0
  161.5290  208.9570  153.3260 C   0  0  1  0  0  3  0  0  0  0  0  0
  161.4530  205.6910  150.5200 C   0  0  0  0  0  0  0  0  0  0  0  0
  161.5350  207.7910  152.3750 C   0  0  0  0  0  0  0  0  0  0  0  0
  160.4960  207.4190  155.0470 C   0  0  0  0  0  2  0  0  0  0  0  0
  161.0920  205.4590  151.8490 C   0  0  0  0  0  3  0  0  0  0  0  0
  160.3490  210.5700  155.4510 C   0  0  2  0  0  3  0  0  0  0  0  0
  160.3230  209.8430  153.0540 C   0  0  0  0  0  2  0  0  0  0  0  0
  160.8250  206.1800  154.2200 C   0  0  0  0  0  2  0  0  0  0  0  0
  158.0310  211.0640  155.6950 C   0  0  0  0  0  2  0  0  0  0  0  0
  161.4160  209.6030  155.7680 N   0  0  0  0  0  0  0  0  0  0  0  0
  159.0390  210.0110  155.8010 N   0  0  0  0  0  2  0  0  0  0  0  0
  161.4140  204.6520  149.6000 O   0  0  0  0  0  1  0  0  0  0  0  0
  161.8590  206.9640  150.1170 C   0  0  0  0  0  3  0  0  0  0  0  0
  161.5460  208.4980  154.8000 C   0  0  2  0  0  3  0  0  0  0  0  0
  157.8870  211.5120  154.2440 C   0  0  0  0  0  2  0  0  0  0  0  0
  160.3800  211.0460  153.9830 C   0  0  1  0  0  3  0  0  0  0  0  0
  159.1820  212.6500  152.3440 C   0  0  0  0  0  2  0  0  0  0  0  0
  157.8860  213.2450  152.0380 N   0  0  0  0  0  0  0  0  0  0  0  0
  156.2220  214.4530  150.7870 C   0  0  1  0  0  3  0  0  0  0  0  0
  156.9510  213.7170  153.0380 C   0  0  0  0  0  3  0  0  0  0  0  0
  158.1940  213.5390  149.7270 O   0  0  0  0  0  0  0  0  0  0  0  0
  157.5000  213.7130  150.7650 C   0  0  0  0  0  0  0  0  0  0  0  0
  155.1740  213.7100  149.9800 C   0  0  0  0  0  1  0  0  0  0  0  0
  155.8290  214.4280  152.2670 C   0  0  0  0  0  3  0  0  0  0  0  0
  1 21  1  6  0  0  0
  1 20  1  0  0  0  0
  1 19  1  0  0  0  0
  2  7  1  0  0  0  0
  4 12  1  0  0  0  0
  5 11  1  1  0  0  0
  5 18  1  0  0  0  0
  6  9  2  0  0  0  0
  7  4  2  0  0  0  0
  7  5  1  0  0  0  0
  9  4  1  0  0  0  0
 10 14  1  0  0  0  0
 10 15  1  6  0  0  0
 12  8  1  0  0  0  0
 13 15  1  0  0  0  0
 14  3  1  0  0  0  0
 16  6  1  0  0  0  0
 17  6  1  0  0  0  0
 17  2  2  0  0  0  0
 18  8  1  6  0  0  0
 18 14  1  0  0  0  0
 19 13  1  0  0  0  0
 20 11  1  6  0  0  0
 20 10  1  0  0  0  0
 22 21  1  0  0  0  0
 22 24  1  0  0  0  0
 23 27  1  6  0  0  0
 23 28  1  0  0  0  0
 25 26  2  0  0  0  0
 26 23  1  0  0  0  0
 26 22  1  0  0  0  0
 28 24  2  0  0  0  0
M  END
>  <MODEL>
1

>  <REMARK>
 VINA RESULT:      -7.5      0.000      0.000
  Name = 
  2 active torsions:
  status: ('A' for Active; 'I' for Inactive)
    1  A    between atoms: C_1  and  C_2
    2  A    between atoms: C_2  and  N_3
                            x       y       z     vdW  Elec       q    Type
                         _______ _______ _______ _____ _____    ______ ____

>  <TORSDO>
F 2

$$$$
=
 OpenBabel11052422463D

 28 32  0  0  1  0  0  0  0  0999 V2000
  161.3270  209.0680  153.0140 C   0  0  1  0  0  3  0  0  0  0  0  0
  156.5670  211.2460  154.8240 C   0  0  0  0  0  3  0  0  0  0  0  0
  160.4310  208.4030  157.2610 C   0  0  0  0  0  1  0  0  0  0  0  0
  157.9180  212.7460  156.1800 C   0  0  0  0  0  0  0  0  0  0  0  0
  158.7950  210.4230  155.6050 C   0  0  1  0  0  3  0  0  0  0  0  0
  155.7670  213.4720  155.3290 C   0  0  0  0  0  0  0  0  0  0  0  0
  157.7340  211.4880  155.5590 C   0  0  0  0  0  0  0  0  0  0  0  0
  160.2710  212.0870  156.8090 C   0  0  0  0  0  2  0  0  0  0  0  0
  156.9250  213.7240  156.0680 C   0  0  0  0  0  3  0  0  0  0  0  0
  161.5610  209.5040  155.4750 C   0  0  2  0  0  3  0  0  0  0  0  0
  159.5390  210.3720  154.2790 C   0  0  0  0  0  2  0  0  0  0  0  0
  159.0960  213.0240  157.0720 C   0  0  0  0  0  2  0  0  0  0  0  0
  163.2310  210.3330  153.9910 C   0  0  0  0  0  2  0  0  0  0  0  0
  160.9100  209.6930  156.7840 N   0  0  0  0  0  0  0  0  0  0  0  0
  162.4280  210.6470  155.1710 N   0  0  0  0  0  2  0  0  0  0  0  0
  154.7910  214.4530  155.2140 O   0  0  0  0  0  1  0  0  0  0  0  0
  155.5860  212.2340  154.7110 C   0  0  0  0  0  3  0  0  0  0  0  0
  159.7810  210.6420  156.7730 C   0  0  2  0  0  3  0  0  0  0  0  0
  162.3340  210.1900  152.7650 C   0  0  0  0  0  2  0  0  0  0  0  0
  160.5570  209.2440  154.3320 C   0  0  1  0  0  3  0  0  0  0  0  0
  160.4560  208.7330  151.7970 C   0  0  0  0  0  2  0  0  0  0  0  0
  160.8320  207.4700  151.1710 N   0  0  0  0  0  0  0  0  0  0  0  0
  161.7160  205.2380  151.0020 C   0  0  1  0  0  3  0  0  0  0  0  0
  161.2030  207.3310  149.7790 C   0  0  0  0  0  3  0  0  0  0  0  0
  161.0640  206.1890  153.1280 O   0  0  0  0  0  0  0  0  0  0  0  0
  161.1780  206.2990  151.8780 C   0  0  0  0  0  0  0  0  0  0  0  0
  160.7870  204.0390  151.0030 C   0  0  0  0  0  1  0  0  0  0  0  0
  161.6990  205.8870  149.6150 C   0  0  0  0  0  3  0  0  0  0  0  0
  1 21  1  6  0  0  0
  1 20  1  0  0  0  0
  2  7  1  0  0  0  0
  4 12  1  0  0  0  0
  5 11  1  6  0  0  0
  5 18  1  0  0  0  0
  6  9  2  0  0  0  0
  7  5  1  0  0  0  0
  7  4  2  0  0  0  0
  8 12  1  0  0  0  0
  9  4  1  0  0  0  0
 10 15  1  6  0  0  0
 10 14  1  0  0  0  0
 13 15  1  0  0  0  0
 14  3  1  0  0  0  0
 16  6  1  0  0  0  0
 17  2  2  0  0  0  0
 17  6  1  0  0  0  0
 18 14  1  0  0  0  0
 18  8  1  6  0  0  0
 19  1  1  0  0  0  0
 19 13  1  0  0  0  0
 20 11  1  6  0  0  0
 20 10  1  0  0  0  0
 22 21  1  0  0  0  0
 22 26  1  0  0  0  0
 23 27  1  6  0  0  0
 23 26  1  0  0  0  0
 24 22  1  0  0  0  0
 26 25  2  0  0  0  0
 28 24  2  0  0  0  0
 28 23  1  0  0  0  0
M  END
>  <MODEL>
2

>  <REMARK>
 VINA RESULT:      -6.0      2.829      7.246
  Name = 
  2 active torsions:
  status: ('A' for Active; 'I' for Inactive)
    1  A    between atoms: C_1  and  C_2
    2  A    between atoms: C_2  and  N_3
                            x       y       z     vdW  Elec       q    Type
                         _______ _______ _______ _____ _____    ______ ____

>  <TORSDO>
F 2

$$$$
=
 OpenBabel11052422463D

 28 32  0  0  1  0  0  0  0  0999 V2000
  160.9480  212.9340  143.0290 C   0  0  1  0  0  3  0  0  0  0  0  0
  160.2360  209.1400  139.0560 C   0  0  0  0  0  3  0  0  0  0  0  0
  159.3840  214.4510  139.2170 C   0  0  0  0  0  1  0  0  0  0  0  0
  162.0170  210.2650  137.8420 C   0  0  0  0  0  0  0  0  0  0  0  0
  160.5270  211.5970  139.4240 C   0  0  1  0  0  3  0  0  0  0  0  0
  161.6900  207.8750  137.5950 C   0  0  0  0  0  0  0  0  0  0  0  0
  160.9250  210.3180  138.7400 C   0  0  0  0  0  0  0  0  0  0  0  0
  162.5310  212.6870  138.3320 C   0  0  0  0  0  2  0  0  0  0  0  0
  162.3830  209.0440  137.2680 C   0  0  0  0  0  3  0  0  0  0  0  0
  161.1200  214.0950  140.8100 C   0  0  2  0  0  3  0  0  0  0  0  0
  161.0230  211.5930  140.8620 C   0  0  0  0  0  2  0  0  0  0  0  0
  162.7220  211.5100  137.3800 C   0  0  0  0  0  2  0  0  0  0  0  0
  162.8500  214.4140  142.4180 C   0  0  0  0  0  2  0  0  0  0  0  0
  160.7910  214.1110  139.3720 N   0  0  0  0  0  0  0  0  0  0  0  0
  162.5700  214.2010  140.9990 N   0  0  0  0  0  2  0  0  0  0  0  0
  162.0670  206.6650  137.0280 O   0  0  0  0  0  1  0  0  0  0  0  0
  160.6160  207.9240  138.4850 C   0  0  0  0  0  3  0  0  0  0  0  0
  161.0520  212.8390  138.6730 C   0  0  2  0  0  3  0  0  0  0  0  0
  162.4410  213.1860  143.2260 C   0  0  0  0  0  2  0  0  0  0  0  0
  160.5490  212.8650  141.5470 C   0  0  1  0  0  3  0  0  0  0  0  0
  160.3870  211.8050  143.9020 C   0  0  0  0  0  2  0  0  0  0  0  0
  159.7290  212.3030  145.1050 N   0  0  0  0  0  0  0  0  0  0  0  0
  159.4670  212.9040  147.4210 C   0  0  1  0  0  3  0  0  0  0  0  0
  158.3020  212.2380  145.3380 C   0  0  0  0  0  3  0  0  0  0  0  0
  161.6510  212.6450  146.4150 O   0  0  0  0  0  0  0  0  0  0  0  0
  160.3960  212.6260  146.3060 C   0  0  0  0  0  0  0  0  0  0  0  0
  159.5980  214.3490  147.8620 C   0  0  0  0  0  1  0  0  0  0  0  0
  158.0880  212.6930  146.7900 C   0  0  0  0  0  3  0  0  0  0  0  0
  1 19  1  0  0  0  0
  1 21  1  1  0  0  0
  3 14  1  0  0  0  0
  4  7  2  0  0  0  0
  5 11  1  1  0  0  0
  6 17  1  0  0  0  0
  7  2  1  0  0  0  0
  7  5  1  0  0  0  0
  9  6  2  0  0  0  0
  9  4  1  0  0  0  0
 10 15  1  6  0  0  0
 10 20  1  0  0  0  0
 12  4  1  0  0  0  0
 12  8  1  0  0  0  0
 13 19  1  0  0  0  0
 14 10  1  0  0  0  0
 15 13  1  0  0  0  0
 16  6  1  0  0  0  0
 17  2  2  0  0  0  0
 18  8  1  1  0  0  0
 18 14  1  0  0  0  0
 18  5  1  0  0  0  0
 20 11  1  6  0  0  0
 20  1  1  0  0  0  0
 21 22  1  0  0  0  0
 22 24  1  0  0  0  0
 22 26  1  0  0  0  0
 23 27  1  6  0  0  0
 24 28  2  0  0  0  0
 26 25  2  0  0  0  0
 26 23  1  0  0  0  0
 28 23  1  0  0  0  0
M  END
>  <MODEL>
3

>  <REMARK>
 VINA RESULT:      -5.6     10.303     12.774
  Name = 
  2 active torsions:
  status: ('A' for Active; 'I' for Inactive)
    1  A    between atoms: C_1  and  C_2
    2  A    between atoms: C_2  and  N_3
                            x       y       z     vdW  Elec       q    Type
                         _______ _______ _______ _____ _____    ______ ____

>  <TORSDO>
F 2

$$$$
=
 OpenBabel11052422463D

 28 32  0  0  1  0  0  0  0  0999 V2000
  161.5870  209.1480  153.0860 C   0  0  1  0  0  3  0  0  0  0  0  0
  156.6650  211.1720  154.6190 C   0  0  0  0  0  3  0  0  0  0  0  0
  160.4470  208.4010  157.2600 C   0  0  0  0  0  1  0  0  0  0  0  0
  157.8860  212.6890  156.0750 C   0  0  0  0  0  0  0  0  0  0  0  0
  158.8620  210.3990  155.5290 C   0  0  1  0  0  3  0  0  0  0  0  0
  155.7730  213.3690  155.0990 C   0  0  0  0  0  0  0  0  0  0  0  0
  157.7760  211.4350  155.4290 C   0  0  0  0  0  0  0  0  0  0  0  0
  160.2130  212.0850  156.8430 C   0  0  0  0  0  2  0  0  0  0  0  0
  156.8760  213.6410  155.9130 C   0  0  0  0  0  3  0  0  0  0  0  0
  161.6550  209.5570  155.5620 C   0  0  2  0  0  3  0  0  0  0  0  0
  159.6880  210.3860  154.2520 C   0  0  0  0  0  2  0  0  0  0  0  0
  158.9980  212.9860  157.0430 C   0  0  0  0  0  2  0  0  0  0  0  0
  163.3910  210.4510  154.1960 C   0  0  0  0  0  2  0  0  0  0  0  0
  160.9180  209.7100  156.8300 N   0  0  0  0  0  0  0  0  0  0  0  0
  162.5070  210.7270  155.3260 N   0  0  0  0  0  2  0  0  0  0  0  0
  154.7800  214.3250  154.9350 O   0  0  0  0  0  1  0  0  0  0  0  0
  155.6660  212.1350  154.4560 C   0  0  0  0  0  3  0  0  0  0  0  0
  159.7660  210.6290  156.7590 C   0  0  2  0  0  3  0  0  0  0  0  0
  162.5760  210.3000  152.9150 C   0  0  0  0  0  2  0  0  0  0  0  0
  160.7320  209.2850  154.3550 C   0  0  1  0  0  3  0  0  0  0  0  0
  160.8040  208.8060  151.8130 C   0  0  0  0  0  2  0  0  0  0  0  0
  160.9240  207.4000  151.4430 N   0  0  0  0  0  0  0  0  0  0  0  0
  160.7580  205.4300  150.0710 C   0  0  1  0  0  3  0  0  0  0  0  0
  160.8700  206.3040  152.3870 C   0  0  0  0  0  3  0  0  0  0  0  0
  160.7120  207.6520  149.1160 O   0  0  0  0  0  0  0  0  0  0  0  0
  160.8020  206.9050  150.1280 C   0  0  0  0  0  0  0  0  0  0  0  0
  161.9730  204.9000  149.3340 C   0  0  0  0  0  1  0  0  0  0  0  0
  160.8430  205.0200  151.5430 C   0  0  0  0  0  3  0  0  0  0  0  0
  1 21  1  6  0  0  0
  1 20  1  0  0  0  0
  2  7  1  0  0  0  0
  4 12  1  0  0  0  0
  5 11  1  6  0  0  0
  5 18  1  0  0  0  0
  6  9  2  0  0  0  0
  7  5  1  0  0  0  0
  7  4  2  0  0  0  0
  8 12  1  0  0  0  0
  9  4  1  0  0  0  0
 10 15  1  6  0  0  0
 10 14  1  0  0  0  0
 13 15  1  0  0  0  0
 14  3  1  0  0  0  0
 16  6  1  0  0  0  0
 17  2  2  0  0  0  0
 17  6  1  0  0  0  0
 18 14  1  0  0  0  0
 18  8  1  6  0  0  0
 19  1  1  0  0  0  0
 19 13  1  0  0  0  0
 20 11  1  6  0  0  0
 20 10  1  0  0  0  0
 22 21  1  0  0  0  0
 22 24  1  0  0  0  0
 23 27  1  6  0  0  0
 23 26  1  0  0  0  0
 23 28  1  0  0  0  0
 25 26  2  0  0  0  0
 26 22  1  0  0  0  0
 28 24  2  0  0  0  0
M  END
>  <MODEL>
4

>  <REMARK>
 VINA RESULT:      -5.4      2.715      7.057
  Name = 
  2 active torsions:
  status: ('A' for Active; 'I' for Inactive)
    1  A    between atoms: C_1  and  C_2
    2  A    between atoms: C_2  and  N_3
                            x       y       z     vdW  Elec       q    Type
                         _______ _______ _______ _____ _____    ______ ____

>  <TORSDO>
F 2

$$$$
=
 OpenBabel11052422463D

 28 32  0  0  1  0  0  0  0  0999 V2000
  160.4150  211.3230  156.5140 C   0  0  1  0  0  3  0  0  0  0  0  0
  160.6940  211.2380  150.9830 C   0  0  0  0  0  3  0  0  0  0  0  0
  156.5550  211.2290  154.4220 C   0  0  0  0  0  1  0  0  0  0  0  0
  159.6960  213.4540  151.0270 C   0  0  0  0  0  0  0  0  0  0  0  0
  159.1650  211.7910  152.8840 C   0  0  1  0  0  3  0  0  0  0  0  0
  161.2340  212.8420  149.2550 C   0  0  0  0  0  0  0  0  0  0  0  0
  159.8430  212.1670  151.5940 C   0  0  0  0  0  0  0  0  0  0  0  0
  158.3340  214.1760  153.0260 C   0  0  0  0  0  2  0  0  0  0  0  0
  160.3850  213.7760  149.8540 C   0  0  0  0  0  3  0  0  0  0  0  0
  158.2980  212.3310  155.6160 C   0  0  2  0  0  3  0  0  0  0  0  0
  160.1680  211.8280  154.0270 C   0  0  0  0  0  2  0  0  0  0  0  0
  158.7140  214.4530  151.5740 C   0  0  0  0  0  2  0  0  0  0  0  0
  159.5420  213.5300  157.2570 C   0  0  0  0  0  2  0  0  0  0  0  0
  157.3390  212.4530  154.5030 N   0  0  0  0  0  0  0  0  0  0  0  0
  158.7820  213.6570  156.0160 N   0  0  0  0  0  2  0  0  0  0  0  0
  161.9220  213.1740  148.0960 O   0  0  0  0  0  1  0  0  0  0  0  0
  161.3850  211.5730  149.8170 C   0  0  0  0  0  3  0  0  0  0  0  0
  157.9600  212.7050  153.1880 C   0  0  2  0  0  3  0  0  0  0  0  0
  160.8080  212.7110  157.0190 C   0  0  0  0  0  2  0  0  0  0  0  0
  159.4710  211.3790  155.3030 C   0  0  1  0  0  3  0  0  0  0  0  0
  161.5960  210.3570  156.3700 C   0  0  0  0  0  2  0  0  0  0  0  0
  161.1810  209.0290  155.9310 N   0  0  0  0  0  0  0  0  0  0  0  0
  160.5540  207.2740  154.4070 C   0  0  1  0  0  3  0  0  0  0  0  0
  160.3870  208.1190  156.7310 C   0  0  0  0  0  3  0  0  0  0  0  0
  161.7630  209.2330  153.6630 O   0  0  0  0  0  0  0  0  0  0  0  0
  161.2270  208.5760  154.5960 C   0  0  0  0  0  0  0  0  0  0  0  0
  161.5620  206.2210  153.9880 C   0  0  0  0  0  1  0  0  0  0  0  0
  160.0340  206.9430  155.8090 C   0  0  0  0  0  3  0  0  0  0  0  0
  1 21  1  6  0  0  0
  1 19  1  0  0  0  0
  2  7  1  0  0  0  0
  3 14  1  0  0  0  0
  4 12  1  0  0  0  0
  4  7  2  0  0  0  0
  5 18  1  0  0  0  0
  5 11  1  1  0  0  0
  6 17  1  0  0  0  0
  6  9  2  0  0  0  0
  7  5  1  0  0  0  0
  9  4  1  0  0  0  0
 10 15  1  6  0  0  0
 12  8  1  0  0  0  0
 14 10  1  0  0  0  0
 15 13  1  0  0  0  0
 16  6  1  0  0  0  0
 17  2  2  0  0  0  0
 18  8  1  1  0  0  0
 18 14  1  0  0  0  0
 19 13  1  0  0  0  0
 20 11  1  6  0  0  0
 20 10  1  0  0  0  0
 20  1  1  0  0  0  0
 22 21  1  0  0  0  0
 22 24  1  0  0  0  0
 23 27  1  1  0  0  0
 23 26  1  0  0  0  0
 23 28  1  0  0  0  0
 25 26  2  0  0  0  0
 26 22  1  0  0  0  0
 28 24  2  0  0  0  0
M  END
>  <MODEL>
5

>  <REMARK>
 VINA RESULT:      -5.3      2.465      6.374
  Name = 
  2 active torsions:
  status: ('A' for Active; 'I' for Inactive)
    1  A    between atoms: C_1  and  C_2
    2  A    between atoms: C_2  and  N_3
                            x       y       z     vdW  Elec       q    Type
                         _______ _______ _______ _____ _____    ______ ____

>  <TORSDO>
F 2

$$$$
=
 OpenBabel11052422463D

 28 32  0  0  1  0  0  0  0  0999 V2000
  159.6670  212.0360  151.9060 C   0  0  1  0  0  3  0  0  0  0  0  0
  161.4830  206.9840  150.5450 C   0  0  0  0  0  3  0  0  0  0  0  0
  163.3490  210.7400  153.9160 C   0  0  0  0  0  1  0  0  0  0  0  0
  160.9680  206.3250  152.8280 C   0  0  0  0  0  0  0  0  0  0  0  0
  161.6340  208.7330  152.3260 C   0  0  1  0  0  3  0  0  0  0  0  0
  160.7970  204.7140  151.0230 C   0  0  0  0  0  0  0  0  0  0  0  0
  161.3780  207.3130  151.9020 C   0  0  0  0  0  0  0  0  0  0  0  0
  160.8660  208.0740  154.6440 C   0  0  0  0  0  2  0  0  0  0  0  0
  160.6920  205.0290  152.3800 C   0  0  0  0  0  3  0  0  0  0  0  0
  161.0030  211.1480  153.8370 C   0  0  2  0  0  3  0  0  0  0  0  0
  160.4570  209.6130  151.9340 C   0  0  0  0  0  2  0  0  0  0  0  0
  160.9450  206.5880  154.3080 C   0  0  0  0  0  2  0  0  0  0  0  0
  158.8140  212.0000  154.2420 C   0  0  0  0  0  2  0  0  0  0  0  0
  162.0480  210.2280  154.3230 N   0  0  0  0  0  0  0  0  0  0  0  0
  159.7550  210.9330  154.5770 N   0  0  0  0  0  2  0  0  0  0  0  0
  160.5100  203.4280  150.5860 O   0  0  0  0  0  1  0  0  0  0  0  0
  161.1950  205.6890  150.1070 C   0  0  0  0  0  3  0  0  0  0  0  0
  161.9120  208.8410  153.8400 C   0  0  2  0  0  3  0  0  0  0  0  0
  158.4150  211.9080  152.7710 C   0  0  0  0  0  2  0  0  0  0  0  0
  160.7720  211.0510  152.3140 C   0  0  1  0  0  3  0  0  0  0  0  0
  159.3790  212.0980  150.4010 C   0  0  0  0  0  2  0  0  0  0  0  0
  160.4280  212.7900  149.6600 N   0  0  0  0  0  0  0  0  0  0  0  0
  162.5180  213.0930  148.5050 C   0  0  1  0  0  3  0  0  0  0  0  0
  160.6980  214.2080  149.7640 C   0  0  0  0  0  3  0  0  0  0  0  0
  161.5670  210.8970  148.8570 O   0  0  0  0  0  0  0  0  0  0  0  0
  161.4930  212.1480  148.9930 C   0  0  0  0  0  0  0  0  0  0  0  0
  162.5720  213.0690  146.9900 C   0  0  0  0  0  1  0  0  0  0  0  0
  161.9890  214.4530  148.9690 C   0  0  0  0  0  3  0  0  0  0  0  0
  1 21  1  6  0  0  0
  1 20  1  0  0  0  0
  1 19  1  0  0  0  0
  2  7  1  0  0  0  0
  3 14  1  0  0  0  0
  4 12  1  0  0  0  0
  5 11  1  1  0  0  0
  5 18  1  0  0  0  0
  6  9  2  0  0  0  0
  7  5  1  0  0  0  0
  7  4  2  0  0  0  0
  9  4  1  0  0  0  0
 10 14  1  0  0  0  0
 10 15  1  1  0  0  0
 12  8  1  0  0  0  0
 13 15  1  0  0  0  0
 16  6  1  0  0  0  0
 17  2  2  0  0  0  0
 17  6  1  0  0  0  0
 18 14  1  0  0  0  0
 18  8  1  1  0  0  0
 19 13  1  0  0  0  0
 20 11  1  1  0  0  0
 20 10  1  0  0  0  0
 22 24  1  0  0  0  0
 22 21  1  0  0  0  0
 23 27  1  6  0  0  0
 23 28  1  0  0  0  0
 23 26  1  0  0  0  0
 25 26  2  0  0  0  0
 26 22  1  0  0  0  0
 28 24  2  0  0  0  0
M  END
>  <MODEL>
6

>  <REMARK>
 VINA RESULT:      -5.2      2.520      3.173
  Name = 
  2 active torsions:
  status: ('A' for Active; 'I' for Inactive)
    1  A    between atoms: C_1  and  C_2
    2  A    between atoms: C_2  and  N_3
                            x       y       z     vdW  Elec       q    Type
                         _______ _______ _______ _____ _____    ______ ____

>  <TORSDO>
F 2

$$$$
=
 OpenBabel11052422463D

 28 32  0  0  1  0  0  0  0  0999 V2000
  160.1470  210.3410  137.7500 C   0  0  1  0  0  3  0  0  0  0  0  0
  162.4590  213.8750  141.3340 C   0  0  0  0  0  3  0  0  0  0  0  0
  158.6080  214.4510  137.6190 C   0  0  0  0  0  1  0  0  0  0  0  0
  160.2970  213.9640  142.4420 C   0  0  0  0  0  0  0  0  0  0  0  0
  160.4160  213.5210  139.9350 C   0  0  1  0  0  3  0  0  0  0  0  0
  162.3380  214.2410  143.7210 C   0  0  0  0  0  0  0  0  0  0  0  0
  161.0620  213.8160  141.2610 C   0  0  0  0  0  0  0  0  0  0  0  0
  158.2050  213.3850  141.1550 C   0  0  0  0  0  2  0  0  0  0  0  0
  160.9430  214.1870  143.6610 C   0  0  0  0  0  3  0  0  0  0  0  0
  158.4780  212.1530  138.2350 C   0  0  2  0  0  3  0  0  0  0  0  0
  160.5820  212.0480  139.5920 C   0  0  0  0  0  2  0  0  0  0  0  0
  158.7940  214.0210  142.4100 C   0  0  0  0  0  2  0  0  0  0  0  0
  157.8060  209.8770  138.4500 C   0  0  0  0  0  2  0  0  0  0  0  0
  158.2200  213.5340  138.6820 N   0  0  0  0  0  0  0  0  0  0  0  0
  157.7150  211.2050  139.0530 N   0  0  0  0  0  2  0  0  0  0  0  0
  162.9710  214.4520  144.9380 O   0  0  0  0  0  1  0  0  0  0  0  0
  163.0950  214.0890  142.5580 C   0  0  0  0  0  3  0  0  0  0  0  0
  158.9250  213.9180  139.9190 C   0  0  2  0  0  3  0  0  0  0  0  0
  159.2450  209.3690  138.5080 C   0  0  0  0  0  2  0  0  0  0  0  0
  159.9800  211.7940  138.2190 C   0  0  1  0  0  3  0  0  0  0  0  0
  161.5990  209.8670  137.6180 C   0  0  0  0  0  2  0  0  0  0  0  0
  161.8420  208.6080  138.3150 N   0  0  0  0  0  0  0  0  0  0  0  0
  162.6890  207.1180  140.0040 C   0  0  1  0  0  3  0  0  0  0  0  0
  161.9010  207.3160  137.6630 C   0  0  0  0  0  3  0  0  0  0  0  0
  162.5070  209.4990  140.3850 O   0  0  0  0  0  0  0  0  0  0  0  0
  162.3450  208.5040  139.6290 C   0  0  0  0  0  0  0  0  0  0  0  0
  161.7940  206.6450  141.1340 C   0  0  0  0  0  1  0  0  0  0  0  0
  162.3640  206.3210  138.7380 C   0  0  0  0  0  3  0  0  0  0  0  0
  1 21  1  1  0  0  0
  1 20  1  0  0  0  0
  1 19  1  0  0  0  0
  2 17  1  0  0  0  0
  3 14  1  0  0  0  0
  4  9  2  0  0  0  0
  5 11  1  1  0  0  0
  5  7  1  0  0  0  0
  6 16  1  0  0  0  0
  7  2  2  0  0  0  0
  7  4  1  0  0  0  0
  8 12  1  0  0  0  0
  9  6  1  0  0  0  0
 10 14  1  0  0  0  0
 10 15  1  1  0  0  0
 12  4  1  0  0  0  0
 13 19  1  0  0  0  0
 13 15  1  0  0  0  0
 14 18  1  0  0  0  0
 17  6  2  0  0  0  0
 18  5  1  0  0  0  0
 18  8  1  1  0  0  0
 20 10  1  0  0  0  0
 20 11  1  1  0  0  0
 21 22  1  0  0  0  0
 22 26  1  0  0  0  0
 23 27  1  1  0  0  0
 24 22  1  0  0  0  0
 24 28  2  0  0  0  0
 26 23  1  0  0  0  0
 26 25  2  0  0  0  0
 28 23  1  0  0  0  0
M  END
>  <MODEL>
7

>  <REMARK>
 VINA RESULT:      -5.2     11.335     14.749
  Name = 
  2 active torsions:
  status: ('A' for Active; 'I' for Inactive)
    1  A    between atoms: C_1  and  C_2
    2  A    between atoms: C_2  and  N_3
                            x       y       z     vdW  Elec       q    Type
                         _______ _______ _______ _____ _____    ______ ____

>  <TORSDO>
F 2

$$$$
=
 OpenBabel11052422463D

 28 32  0  0  1  0  0  0  0  0999 V2000
  159.0630  212.8690  154.2580 C   0  0  1  0  0  3  0  0  0  0  0  0
  162.2310  210.3840  150.4540 C   0  0  0  0  0  3  0  0  0  0  0  0
  162.3190  210.3800  155.8350 C   0  0  0  0  0  1  0  0  0  0  0  0
  161.3210  208.2780  151.2600 C   0  0  0  0  0  0  0  0  0  0  0  0
  161.5420  210.2530  152.8550 C   0  0  1  0  0  3  0  0  0  0  0  0
  161.9650  208.5210  148.9350 C   0  0  0  0  0  0  0  0  0  0  0  0
  161.7200  209.6120  151.5050 C   0  0  0  0  0  0  0  0  0  0  0  0
  160.3850  208.1310  153.5990 C   0  0  0  0  0  2  0  0  0  0  0  0
  161.4580  207.7400  149.9770 C   0  0  0  0  0  3  0  0  0  0  0  0
  160.0370  210.7990  155.2940 C   0  0  2  0  0  3  0  0  0  0  0  0
  160.3360  211.1790  152.8360 C   0  0  0  0  0  2  0  0  0  0  0  0
  160.8720  207.3680  152.3700 C   0  0  0  0  0  2  0  0  0  0  0  0
  157.6840  211.1580  155.4220 C   0  0  0  0  0  2  0  0  0  0  0  0
  161.1040  209.7820  155.3000 N   0  0  0  0  0  0  0  0  0  0  0  0
  158.7230  210.1550  155.1960 N   0  0  0  0  0  2  0  0  0  0  0  0
  162.0880  207.9820  147.6610 O   0  0  0  0  0  1  0  0  0  0  0  0
  162.3540  209.8400  149.1740 C   0  0  0  0  0  3  0  0  0  0  0  0
  161.4030  209.2030  153.9770 C   0  0  2  0  0  3  0  0  0  0  0  0
  157.6950  212.1910  154.2990 C   0  0  0  0  0  2  0  0  0  0  0  0
  160.2220  211.8620  154.1900 C   0  0  1  0  0  3  0  0  0  0  0  0
  159.1540  214.0280  153.2580 C   0  0  0  0  0  2  0  0  0  0  0  0
  158.4840  213.7310  151.9970 N   0  0  0  0  0  0  0  0  0  0  0  0
  156.6640  213.3030  150.4810 C   0  0  1  0  0  3  0  0  0  0  0  0
  159.0800  212.9710  150.9180 C   0  0  0  0  0  3  0  0  0  0  0  0
  156.3150  214.3960  152.6110 O   0  0  0  0  0  0  0  0  0  0  0  0
  157.0980  213.8690  151.7750 C   0  0  0  0  0  0  0  0  0  0  0  0
  156.1360  214.4030  149.5810 C   0  0  0  0  0  1  0  0  0  0  0  0
  157.9620  212.7460  149.8900 C   0  0  0  0  0  3  0  0  0  0  0  0
  1 21  1  6  0  0  0
  1 19  1  0  0  0  0
  2  7  1  0  0  0  0
  4  7  2  0  0  0  0
  4 12  1  0  0  0  0
  5 11  1  6  0  0  0
  5 18  1  0  0  0  0
  6 17  1  0  0  0  0
  6  9  2  0  0  0  0
  7  5  1  0  0  0  0
  9  4  1  0  0  0  0
 10 15  1  6  0  0  0
 10 14  1  0  0  0  0
 12  8  1  0  0  0  0
 14  3  1  0  0  0  0
 15 13  1  0  0  0  0
 16  6  1  0  0  0  0
 17  2  2  0  0  0  0
 18  8  1  6  0  0  0
 18 14  1  0  0  0  0
 19 13  1  0  0  0  0
 20 11  1  6  0  0  0
 20  1  1  0  0  0  0
 20 10  1  0  0  0  0
 22 21  1  0  0  0  0
 23 27  1  6  0  0  0
 23 26  1  0  0  0  0
 24 22  1  0  0  0  0
 26 22  1  0  0  0  0
 26 25  2  0  0  0  0
 28 23  1  0  0  0  0
 28 24  2  0  0  0  0
M  END
>  <MODEL>
8

>  <REMARK>
 VINA RESULT:      -5.1      1.578      2.061
  Name = 
  2 active torsions:
  status: ('A' for Active; 'I' for Inactive)
    1  A    between atoms: C_1  and  C_2
    2  A    between atoms: C_2  and  N_3
                            x       y       z     vdW  Elec       q    Type
                         _______ _______ _______ _____ _____    ______ ____

>  <TORSDO>
F 2

$$$$
