=
 OpenBabel11052422153D

 25 27  0  0  1  0  0  0  0  0999 V2000
  161.2790  209.3520  152.7680 C   0  0  0  0  0  0  0  0  0  0  0  0
  161.6740  211.0310  151.0490 O   0  0  0  0  0  1  0  0  0  0  0  0
  161.7330  208.6880  150.4690 C   0  0  0  0  0  0  0  0  0  0  0  0
  162.0870  209.0830  148.7970 Cl  0  0  0  0  0  0  0  0  0  0  0  0
  161.1730  208.0030  153.1210 C   0  0  0  0  0  3  0  0  0  0  0  0
  161.6240  207.3460  150.8390 C   0  0  0  0  0  3  0  0  0  0  0  0
  161.3430  206.9970  152.1670 C   0  0  0  0  0  0  0  0  0  0  0  0
  161.5630  209.6970  151.4280 C   0  0  0  0  0  0  0  0  0  0  0  0
  161.0860  210.3720  153.8570 C   0  0  1  0  0  3  0  0  0  0  0  0
  162.8960  210.6240  155.4670 N   0  0  0  0  0  1  0  0  0  0  0  0
  159.6660  210.6040  154.1790 C   0  0  0  0  0  0  0  0  0  0  0  0
  157.1940  211.3580  155.3890 C   0  0  0  0  0  2  0  0  0  0  0  0
  159.3840  210.2450  155.5880 C   0  0  2  0  0  3  0  0  0  0  0  0
  158.4710  211.2830  156.2270 C   0  0  0  0  0  2  0  0  0  0  0  0
  157.4840  211.7840  153.9370 C   0  0  0  0  0  2  0  0  0  0  0  0
  161.6630  209.9110  155.1920 C   0  0  1  0  0  3  0  0  0  0  0  0
  160.6820  210.1890  156.2490 N   0  0  0  0  0  2  0  0  0  0  0  0
  158.8200  211.3070  153.4120 C   0  0  0  0  0  3  0  0  0  0  0  0
  161.2210  205.5940  152.5890 C   0  0  0  0  0  3  0  0  0  0  0  0
  161.1410  204.5900  151.7240 C   0  0  0  0  0  3  0  0  0  0  0  0
  161.0230  203.2500  152.1970 N   0  0  0  0  0  2  0  0  0  0  0  0
  161.1100  202.1690  151.3100 N   0  0  0  0  0  2  0  0  0  0  0  0
  160.7890  202.6670  149.9820 C   0  0  0  0  0  2  0  0  0  0  0  0
  160.1870  201.5570  149.1400 C   0  0  0  0  0  2  0  0  0  0  0  0
  161.2750  200.8300  148.3740 C   0  0  0  0  0  1  0  0  0  0  0  0
  1  5  1  0  0  0  0
  2  8  1  0  0  0  0
  3  6  2  0  0  0  0
  3  8  1  0  0  0  0
  4  3  1  0  0  0  0
  6  7  1  0  0  0  0
  7 19  1  0  0  0  0
  7  5  2  0  0  0  0
  8  1  2  0  0  0  0
  9  1  1  6  0  0  0
  9 11  1  0  0  0  0
  9 16  1  0  0  0  0
 11 13  1  0  0  0  0
 12 14  1  0  0  0  0
 13 14  1  1  0  0  0
 13 17  1  0  0  0  0
 15 12  1  0  0  0  0
 16 10  1  1  0  0  0
 16 17  1  0  0  0  0
 18 15  1  0  0  0  0
 18 11  2  0  0  0  0
 20 21  1  0  0  0  0
 20 19  2  0  0  0  0
 22 21  1  0  0  0  0
 23 22  1  0  0  0  0
 24 23  1  0  0  0  0
 25 24  1  0  0  0  0
M  END
>  <MODEL>
1

>  <REMARK>
 VINA RESULT:      -7.2      0.000      0.000
  Name = 
  6 active torsions:
  status: ('A' for Active; 'I' for Inactive)
    1  A    between atoms: C_1  and  C_3
    2  A    between atoms: C_2  and  C_12
    3  A    between atoms: C_6  and  C_23
    4  A    between atoms: C_12  and  N_25
    5  A    between atoms: C_15  and  N_21
    6  A    between atoms: N_21  and  N_25
                            x       y       z     vdW  Elec       q    Type
                         _______ _______ _______ _____ _____    ______ ____

>  <TORSDO>
F 6

$$$$
=
 OpenBabel11052422153D

 25 27  0  0  1  0  0  0  0  0999 V2000
  160.9700  205.8280  150.0880 C   0  0  0  0  0  0  0  0  0  0  0  0
  160.6380  204.2620  151.9240 O   0  0  0  0  0  1  0  0  0  0  0  0
  161.3380  206.5250  152.3920 C   0  0  0  0  0  0  0  0  0  0  0  0
  161.3620  206.1900  154.1140 Cl  0  0  0  0  0  0  0  0  0  0  0  0
  161.3180  207.1120  149.6590 C   0  0  0  0  0  3  0  0  0  0  0  0
  161.6830  207.8030  151.9460 C   0  0  0  0  0  3  0  0  0  0  0  0
  161.6750  208.1030  150.5770 C   0  0  0  0  0  0  0  0  0  0  0  0
  160.9800  205.5320  151.4700 C   0  0  0  0  0  0  0  0  0  0  0  0
  160.6030  204.8190  149.0340 C   0  0  1  0  0  3  0  0  0  0  0  0
  160.4460  202.4930  149.7380 N   0  0  0  0  0  1  0  0  0  0  0  0
  161.0000  205.2390  147.6770 C   0  0  0  0  0  0  0  0  0  0  0  0
  161.6560  205.3580  144.9030 C   0  0  0  0  0  2  0  0  0  0  0  0
  161.9690  204.2810  147.0970 C   0  0  2  0  0  3  0  0  0  0  0  0
  161.6400  204.0150  145.6340 C   0  0  0  0  0  2  0  0  0  0  0  0
  160.6100  206.3350  145.4730 C   0  0  0  0  0  2  0  0  0  0  0  0
  161.3470  203.5000  149.2100 C   0  0  1  0  0  3  0  0  0  0  0  0
  161.8580  203.0710  147.9020 N   0  0  0  0  0  2  0  0  0  0  0  0
  160.3670  206.1760  146.9580 C   0  0  0  0  0  3  0  0  0  0  0  0
  162.0330  209.4370  150.0760 C   0  0  0  0  0  3  0  0  0  0  0  0
  162.0070  209.7500  148.7860 C   0  0  0  0  0  3  0  0  0  0  0  0
  162.3670  211.0620  148.3640 N   0  0  0  0  0  2  0  0  0  0  0  0
  161.7150  212.1860  148.8890 N   0  0  0  0  0  2  0  0  0  0  0  0
  162.0380  213.3180  148.0340 C   0  0  0  0  0  2  0  0  0  0  0  0
  161.4440  213.1140  146.6520 C   0  0  0  0  0  2  0  0  0  0  0  0
  162.4850  213.3970  145.5860 C   0  0  0  0  0  1  0  0  0  0  0  0
  1  8  1  0  0  0  0
  3  4  1  0  0  0  0
  5  1  2  0  0  0  0
  5  7  1  0  0  0  0
  6  3  1  0  0  0  0
  7  6  2  0  0  0  0
  8  2  1  0  0  0  0
  8  3  2  0  0  0  0
  9 16  1  0  0  0  0
  9  1  1  1  0  0  0
 11  9  1  0  0  0  0
 12 15  1  0  0  0  0
 12 14  1  0  0  0  0
 13 14  1  6  0  0  0
 13 11  1  0  0  0  0
 13 17  1  0  0  0  0
 15 18  1  0  0  0  0
 16 10  1  6  0  0  0
 17 16  1  0  0  0  0
 18 11  2  0  0  0  0
 19  7  1  0  0  0  0
 20 19  2  0  0  0  0
 21 20  1  0  0  0  0
 21 22  1  0  0  0  0
 23 22  1  0  0  0  0
 24 23  1  0  0  0  0
 25 24  1  0  0  0  0
M  END
>  <MODEL>
2

>  <REMARK>
 VINA RESULT:      -7.1      4.231      8.685
  Name = 
  6 active torsions:
  status: ('A' for Active; 'I' for Inactive)
    1  A    between atoms: C_1  and  C_3
    2  A    between atoms: C_2  and  C_12
    3  A    between atoms: C_6  and  C_23
    4  A    between atoms: C_12  and  N_25
    5  A    between atoms: C_15  and  N_21
    6  A    between atoms: N_21  and  N_25
                            x       y       z     vdW  Elec       q    Type
                         _______ _______ _______ _____ _____    ______ ____

>  <TORSDO>
F 6

$$$$
=
 OpenBabel11052422153D

 25 27  0  0  1  0  0  0  0  0999 V2000
  161.2970  206.8970  151.6700 C   0  0  0  0  0  0  0  0  0  0  0  0
  161.6570  205.3840  153.5450 O   0  0  0  0  0  1  0  0  0  0  0  0
  161.0980  204.4880  151.3730 C   0  0  0  0  0  0  0  0  0  0  0  0
  161.1570  202.8520  152.0040 Cl  0  0  0  0  0  0  0  0  0  0  0  0
  160.9890  207.0740  150.3170 C   0  0  0  0  0  3  0  0  0  0  0  0
  160.7910  204.6830  150.0250 C   0  0  0  0  0  3  0  0  0  0  0  0
  160.7350  205.9780  149.4900 C   0  0  0  0  0  0  0  0  0  0  0  0
  161.3520  205.5890  152.2020 C   0  0  0  0  0  0  0  0  0  0  0  0
  161.5530  208.1310  152.4910 C   0  0  1  0  0  3  0  0  0  0  0  0
  161.3750  207.9040  154.9100 N   0  0  0  0  0  1  0  0  0  0  0  0
  161.2520  209.3770  151.7620 C   0  0  0  0  0  0  0  0  0  0  0  0
  160.6920  212.0710  151.0090 C   0  0  0  0  0  2  0  0  0  0  0  0
  160.1780  210.1350  152.4440 C   0  0  2  0  0  3  0  0  0  0  0  0
  160.5060  211.6220  152.4590 C   0  0  0  0  0  2  0  0  0  0  0  0
  161.8450  211.3190  150.3170 C   0  0  0  0  0  2  0  0  0  0  0  0
  160.6320  208.2210  153.7040 C   0  0  1  0  0  3  0  0  0  0  0  0
  160.1030  209.5870  153.7930 N   0  0  0  0  0  2  0  0  0  0  0  0
  162.0250  209.8960  150.7970 C   0  0  0  0  0  3  0  0  0  0  0  0
  160.4150  206.2170  148.0760 C   0  0  0  0  0  3  0  0  0  0  0  0
  161.2200  205.8500  147.0860 C   0  0  0  0  0  3  0  0  0  0  0  0
  160.8530  206.1120  145.7340 N   0  0  0  0  0  2  0  0  0  0  0  0
  161.0810  205.1580  144.7340 N   0  0  0  0  0  2  0  0  0  0  0  0
  161.7000  204.0020  145.3660 C   0  0  0  0  0  2  0  0  0  0  0  0
  160.7830  202.7980  145.2640 C   0  0  0  0  0  2  0  0  0  0  0  0
  160.8800  201.9560  146.5210 C   0  0  0  0  0  1  0  0  0  0  0  0
  1  8  1  0  0  0  0
  3  4  1  0  0  0  0
  3  8  2  0  0  0  0
  5  1  2  0  0  0  0
  6  3  1  0  0  0  0
  7  6  2  0  0  0  0
  7  5  1  0  0  0  0
  8  2  1  0  0  0  0
  9  1  1  6  0  0  0
  9 16  1  0  0  0  0
 11 13  1  0  0  0  0
 11  9  1  0  0  0  0
 12 14  1  0  0  0  0
 13 14  1  1  0  0  0
 13 17  1  0  0  0  0
 15 18  1  0  0  0  0
 15 12  1  0  0  0  0
 16 17  1  0  0  0  0
 16 10  1  1  0  0  0
 18 11  2  0  0  0  0
 19  7  1  0  0  0  0
 20 19  2  0  0  0  0
 21 20  1  0  0  0  0
 22 23  1  0  0  0  0
 22 21  1  0  0  0  0
 24 23  1  0  0  0  0
 24 25  1  0  0  0  0
M  END
>  <MODEL>
3

>  <REMARK>
 VINA RESULT:      -6.6      3.425      4.481
  Name = 
  6 active torsions:
  status: ('A' for Active; 'I' for Inactive)
    1  A    between atoms: C_1  and  C_3
    2  A    between atoms: C_2  and  C_12
    3  A    between atoms: C_6  and  C_23
    4  A    between atoms: C_12  and  N_25
    5  A    between atoms: C_15  and  N_21
    6  A    between atoms: N_21  and  N_25
                            x       y       z     vdW  Elec       q    Type
                         _______ _______ _______ _____ _____    ______ ____

>  <TORSDO>
F 6

$$$$
=
 OpenBabel11052422153D

 25 27  0  0  1  0  0  0  0  0999 V2000
  161.2540  207.8520  152.2600 C   0  0  0  0  0  0  0  0  0  0  0  0
  161.9350  206.1800  153.8970 O   0  0  0  0  0  1  0  0  0  0  0  0
  160.8060  208.1850  154.6310 C   0  0  0  0  0  0  0  0  0  0  0  0
  160.8920  207.6530  156.3010 Cl  0  0  0  0  0  0  0  0  0  0  0  0
  160.6460  209.0810  151.9880 C   0  0  0  0  0  3  0  0  0  0  0  0
  160.2030  209.4100  154.3410 C   0  0  0  0  0  3  0  0  0  0  0  0
  160.1200  209.8640  153.0170 C   0  0  0  0  0  0  0  0  0  0  0  0
  161.3350  207.4000  153.5970 C   0  0  0  0  0  0  0  0  0  0  0  0
  161.8000  207.0730  151.0940 C   0  0  1  0  0  3  0  0  0  0  0  0
  162.4870  208.3500  149.1370 N   0  0  0  0  0  1  0  0  0  0  0  0
  161.2760  205.6960  151.0310 C   0  0  0  0  0  0  0  0  0  0  0  0
  160.5200  203.0620  150.2380 C   0  0  0  0  0  2  0  0  0  0  0  0
  160.5230  205.4810  149.7730 C   0  0  2  0  0  3  0  0  0  0  0  0
  160.8540  204.1180  149.1830 C   0  0  0  0  0  2  0  0  0  0  0  0
  161.3440  203.2550  151.5250 C   0  0  0  0  0  2  0  0  0  0  0  0
  161.3690  207.6600  149.7540 C   0  0  1  0  0  3  0  0  0  0  0  0
  160.9230  206.5650  148.8830 N   0  0  0  0  0  2  0  0  0  0  0  0
  161.6640  204.6990  151.8390 C   0  0  0  0  0  3  0  0  0  0  0  0
  159.4900  211.1480  152.6790 C   0  0  0  0  0  3  0  0  0  0  0  0
  160.1310  212.1120  152.0290 C   0  0  0  0  0  3  0  0  0  0  0  0
  159.4640  213.3370  151.7320 N   0  0  0  0  0  2  0  0  0  0  0  0
  160.0030  214.2360  150.8020 N   0  0  0  0  0  2  0  0  0  0  0  0
  159.8770  213.6300  149.4850 C   0  0  0  0  0  2  0  0  0  0  0  0
  161.2330  213.5660  148.8080 C   0  0  0  0  0  2  0  0  0  0  0  0
  161.2960  212.3770  147.8680 C   0  0  0  0  0  1  0  0  0  0  0  0
  1  8  1  0  0  0  0
  3  4  1  0  0  0  0
  5  1  2  0  0  0  0
  5  7  1  0  0  0  0
  6  3  1  0  0  0  0
  7  6  2  0  0  0  0
  8  2  1  0  0  0  0
  8  3  2  0  0  0  0
  9  1  1  1  0  0  0
 11  9  1  0  0  0  0
 11 18  2  0  0  0  0
 12 15  1  0  0  0  0
 13 14  1  6  0  0  0
 13 11  1  0  0  0  0
 14 12  1  0  0  0  0
 15 18  1  0  0  0  0
 16 10  1  6  0  0  0
 16  9  1  0  0  0  0
 17 16  1  0  0  0  0
 17 13  1  0  0  0  0
 19  7  1  0  0  0  0
 20 19  2  0  0  0  0
 21 20  1  0  0  0  0
 22 21  1  0  0  0  0
 23 22  1  0  0  0  0
 24 23  1  0  0  0  0
 25 24  1  0  0  0  0
M  END
>  <MODEL>
4

>  <REMARK>
 VINA RESULT:      -6.5      3.560      7.796
  Name = 
  6 active torsions:
  status: ('A' for Active; 'I' for Inactive)
    1  A    between atoms: C_1  and  C_3
    2  A    between atoms: C_2  and  C_12
    3  A    between atoms: C_6  and  C_23
    4  A    between atoms: C_12  and  N_25
    5  A    between atoms: C_15  and  N_21
    6  A    between atoms: N_21  and  N_25
                            x       y       z     vdW  Elec       q    Type
                         _______ _______ _______ _____ _____    ______ ____

>  <TORSDO>
F 6

$$$$
=
 OpenBabel11052422153D

 25 27  0  0  1  0  0  0  0  0999 V2000
  161.2860  208.9340  153.0490 C   0  0  0  0  0  0  0  0  0  0  0  0
  160.8940  207.5430  155.0100 O   0  0  0  0  0  1  0  0  0  0  0  0
  161.2290  206.5070  152.8550 C   0  0  0  0  0  0  0  0  0  0  0  0
  161.0450  204.9120  153.5640 Cl  0  0  0  0  0  0  0  0  0  0  0  0
  161.5270  209.0230  151.6740 C   0  0  0  0  0  3  0  0  0  0  0  0
  161.4700  206.6150  151.4840 C   0  0  0  0  0  3  0  0  0  0  0  0
  161.6210  207.8740  150.8870 C   0  0  0  0  0  0  0  0  0  0  0  0
  161.1350  207.6620  153.6450 C   0  0  0  0  0  0  0  0  0  0  0  0
  161.1960  210.2210  153.8230 C   0  0  1  0  0  3  0  0  0  0  0  0
  163.0070  210.7030  155.3790 N   0  0  0  0  0  1  0  0  0  0  0  0
  159.8060  210.6760  154.0180 C   0  0  0  0  0  0  0  0  0  0  0  0
  157.4210  211.9740  154.8920 C   0  0  0  0  0  2  0  0  0  0  0  0
  159.4730  210.7340  155.4600 C   0  0  2  0  0  3  0  0  0  0  0  0
  158.6740  211.9930  155.7690 C   0  0  0  0  0  2  0  0  0  0  0  0
  157.7700  211.9670  153.3920 C   0  0  0  0  0  2  0  0  0  0  0  0
  161.7050  210.0730  155.2530 C   0  0  1  0  0  3  0  0  0  0  0  0
  160.7520  210.7220  156.1610 N   0  0  0  0  0  2  0  0  0  0  0  0
  159.0500  211.2330  153.0620 C   0  0  0  0  0  3  0  0  0  0  0  0
  161.8760  208.0210  149.4470 C   0  0  0  0  0  3  0  0  0  0  0  0
  161.6890  207.0320  148.5810 C   0  0  0  0  0  3  0  0  0  0  0  0
  161.9560  207.2390  147.1960 N   0  0  0  0  0  2  0  0  0  0  0  0
  161.7720  206.2030  146.2700 N   0  0  0  0  0  2  0  0  0  0  0  0
  162.4940  205.0410  146.7650 C   0  0  0  0  0  2  0  0  0  0  0  0
  161.5810  203.8290  146.7860 C   0  0  0  0  0  2  0  0  0  0  0  0
  161.3250  203.3880  148.2140 C   0  0  0  0  0  1  0  0  0  0  0  0
  1  8  1  0  0  0  0
  3  4  1  0  0  0  0
  3  8  2  0  0  0  0
  5  1  2  0  0  0  0
  6  3  1  0  0  0  0
  7  6  2  0  0  0  0
  7  5  1  0  0  0  0
  8  2  1  0  0  0  0
  9  1  1  1  0  0  0
  9 11  1  0  0  0  0
  9 16  1  0  0  0  0
 11 13  1  0  0  0  0
 12 14  1  0  0  0  0
 13 14  1  6  0  0  0
 13 17  1  0  0  0  0
 15 12  1  0  0  0  0
 16 10  1  6  0  0  0
 16 17  1  0  0  0  0
 18 15  1  0  0  0  0
 18 11  2  0  0  0  0
 19  7  1  0  0  0  0
 20 19  2  0  0  0  0
 21 20  1  0  0  0  0
 22 23  1  0  0  0  0
 22 21  1  0  0  0  0
 23 24  1  0  0  0  0
 24 25  1  0  0  0  0
M  END
>  <MODEL>
5

>  <REMARK>
 VINA RESULT:      -6.3      2.830      3.185
  Name = 
  6 active torsions:
  status: ('A' for Active; 'I' for Inactive)
    1  A    between atoms: C_1  and  C_3
    2  A    between atoms: C_2  and  C_12
    3  A    between atoms: C_6  and  C_23
    4  A    between atoms: C_12  and  N_25
    5  A    between atoms: C_15  and  N_21
    6  A    between atoms: N_21  and  N_25
                            x       y       z     vdW  Elec       q    Type
                         _______ _______ _______ _____ _____    ______ ____

>  <TORSDO>
F 6

$$$$
=
 OpenBabel11052422153D

 25 27  0  0  1  0  0  0  0  0999 V2000
  161.0100  206.1680  149.9860 C   0  0  0  0  0  0  0  0  0  0  0  0
  161.5280  207.7230  148.1840 O   0  0  0  0  0  1  0  0  0  0  0  0
  161.7910  208.4210  150.4810 C   0  0  0  0  0  0  0  0  0  0  0  0
  162.3310  210.0090  149.9650 Cl  0  0  0  0  0  0  0  0  0  0  0  0
  160.9340  205.9090  151.3580 C   0  0  0  0  0  3  0  0  0  0  0  0
  161.7080  208.1460  151.8480 C   0  0  0  0  0  3  0  0  0  0  0  0
  161.2800  206.8880  152.2930 C   0  0  0  0  0  0  0  0  0  0  0  0
  161.4430  207.4380  149.5440 C   0  0  0  0  0  0  0  0  0  0  0  0
  160.6160  205.0600  149.0480 C   0  0  1  0  0  3  0  0  0  0  0  0
  160.4560  202.8190  149.9880 N   0  0  0  0  0  1  0  0  0  0  0  0
  160.9890  205.3360  147.6480 C   0  0  0  0  0  0  0  0  0  0  0  0
  161.5920  205.1660  144.8640 C   0  0  0  0  0  2  0  0  0  0  0  0
  161.9400  204.3150  147.1510 C   0  0  2  0  0  3  0  0  0  0  0  0
  161.5810  203.9050  145.7290 C   0  0  0  0  0  2  0  0  0  0  0  0
  160.5640  206.2050  145.3520 C   0  0  0  0  0  2  0  0  0  0  0  0
  161.3540  203.7590  149.3440 C   0  0  1  0  0  3  0  0  0  0  0  0
  161.8370  203.1940  148.0770 N   0  0  0  0  0  2  0  0  0  0  0  0
  160.3490  206.2010  146.8490 C   0  0  0  0  0  3  0  0  0  0  0  0
  161.1830  206.5660  153.7230 C   0  0  0  0  0  3  0  0  0  0  0  0
  160.5100  207.3200  154.5850 C   0  0  0  0  0  3  0  0  0  0  0  0
  160.4550  206.9540  155.9610 N   0  0  0  0  0  2  0  0  0  0  0  0
  160.7870  207.8780  156.9600 N   0  0  0  0  0  2  0  0  0  0  0  0
  160.5540  209.2090  156.4200 C   0  0  0  0  0  2  0  0  0  0  0  0
  161.8660  209.9630  156.3060 C   0  0  0  0  0  2  0  0  0  0  0  0
  161.9560  210.6590  154.9620 C   0  0  0  0  0  1  0  0  0  0  0  0
  1  5  1  0  0  0  0
  2  8  1  0  0  0  0
  3  6  2  0  0  0  0
  4  3  1  0  0  0  0
  5  7  2  0  0  0  0
  6  7  1  0  0  0  0
  7 19  1  0  0  0  0
  8  1  2  0  0  0  0
  8  3  1  0  0  0  0
  9 16  1  0  0  0  0
  9  1  1  1  0  0  0
 11  9  1  0  0  0  0
 12 15  1  0  0  0  0
 12 14  1  0  0  0  0
 13 14  1  6  0  0  0
 13 11  1  0  0  0  0
 13 17  1  0  0  0  0
 15 18  1  0  0  0  0
 16 10  1  6  0  0  0
 17 16  1  0  0  0  0
 18 11  2  0  0  0  0
 19 20  2  0  0  0  0
 20 21  1  0  0  0  0
 21 22  1  0  0  0  0
 23 22  1  0  0  0  0
 24 23  1  0  0  0  0
 25 24  1  0  0  0  0
M  END
>  <MODEL>
6

>  <REMARK>
 VINA RESULT:      -6.2      2.849      7.923
  Name = 
  6 active torsions:
  status: ('A' for Active; 'I' for Inactive)
    1  A    between atoms: C_1  and  C_3
    2  A    between atoms: C_2  and  C_12
    3  A    between atoms: C_6  and  C_23
    4  A    between atoms: C_12  and  N_25
    5  A    between atoms: C_15  and  N_21
    6  A    between atoms: N_21  and  N_25
                            x       y       z     vdW  Elec       q    Type
                         _______ _______ _______ _____ _____    ______ ____

>  <TORSDO>
F 6

$$$$
=
 OpenBabel11052422153D

 25 27  0  0  1  0  0  0  0  0999 V2000
  161.3500  207.5280  152.0480 C   0  0  0  0  0  0  0  0  0  0  0  0
  161.7750  205.8010  153.7130 O   0  0  0  0  0  1  0  0  0  0  0  0
  160.7860  207.8980  154.3880 C   0  0  0  0  0  0  0  0  0  0  0  0
  160.7190  207.3600  156.0570 Cl  0  0  0  0  0  0  0  0  0  0  0  0
  160.8720  208.8070  151.7460 C   0  0  0  0  0  3  0  0  0  0  0  0
  160.3130  209.1730  154.0680 C   0  0  0  0  0  3  0  0  0  0  0  0
  160.3540  209.6330  152.7450 C   0  0  0  0  0  0  0  0  0  0  0  0
  161.3060  207.0690  153.3840 C   0  0  0  0  0  0  0  0  0  0  0  0
  161.8950  206.7040  150.9130 C   0  0  1  0  0  3  0  0  0  0  0  0
  162.6990  207.9120  148.9570 N   0  0  0  0  0  1  0  0  0  0  0  0
  161.3120  205.3500  150.8570 C   0  0  0  0  0  0  0  0  0  0  0  0
  160.4630  202.7380  150.0870 C   0  0  0  0  0  2  0  0  0  0  0  0
  160.5890  205.1460  149.5810 C   0  0  2  0  0  3  0  0  0  0  0  0
  160.8770  203.7580  149.0250 C   0  0  0  0  0  2  0  0  0  0  0  0
  161.2550  202.9180  151.3960 C   0  0  0  0  0  2  0  0  0  0  0  0
  161.5330  207.2840  149.5500 C   0  0  1  0  0  3  0  0  0  0  0  0
  161.0650  206.1940  148.6850 N   0  0  0  0  0  2  0  0  0  0  0  0
  161.6300  204.3530  151.6940 C   0  0  0  0  0  3  0  0  0  0  0  0
  159.8640  210.9680  152.3760 C   0  0  0  0  0  3  0  0  0  0  0  0
  158.7360  211.4770  152.8570 C   0  0  0  0  0  3  0  0  0  0  0  0
  158.3150  212.7800  152.4590 N   0  0  0  0  0  2  0  0  0  0  0  0
  157.3860  213.4960  153.2250 N   0  0  0  0  0  2  0  0  0  0  0  0
  157.4510  212.9810  154.5840 C   0  0  0  0  0  2  0  0  0  0  0  0
  156.0600  212.6190  155.0720 C   0  0  0  0  0  2  0  0  0  0  0  0
  155.3660  213.8450  155.6330 C   0  0  0  0  0  1  0  0  0  0  0  0
  1  8  1  0  0  0  0
  3  4  1  0  0  0  0
  5  1  2  0  0  0  0
  5  7  1  0  0  0  0
  6  3  1  0  0  0  0
  7  6  2  0  0  0  0
  8  2  1  0  0  0  0
  8  3  2  0  0  0  0
  9  1  1  1  0  0  0
 11  9  1  0  0  0  0
 11 18  2  0  0  0  0
 12 15  1  0  0  0  0
 13 14  1  6  0  0  0
 13 11  1  0  0  0  0
 14 12  1  0  0  0  0
 15 18  1  0  0  0  0
 16 10  1  6  0  0  0
 16  9  1  0  0  0  0
 17 16  1  0  0  0  0
 17 13  1  0  0  0  0
 19  7  1  0  0  0  0
 19 20  2  0  0  0  0
 21 20  1  0  0  0  0
 21 22  1  0  0  0  0
 22 23  1  0  0  0  0
 23 24  1  0  0  0  0
 24 25  1  0  0  0  0
M  END
>  <MODEL>
7

>  <REMARK>
 VINA RESULT:      -6.2      3.122      8.306
  Name = 
  6 active torsions:
  status: ('A' for Active; 'I' for Inactive)
    1  A    between atoms: C_1  and  C_3
    2  A    between atoms: C_2  and  C_12
    3  A    between atoms: C_6  and  C_23
    4  A    between atoms: C_12  and  N_25
    5  A    between atoms: C_15  and  N_21
    6  A    between atoms: N_21  and  N_25
                            x       y       z     vdW  Elec       q    Type
                         _______ _______ _______ _____ _____    ______ ____

>  <TORSDO>
F 6

$$$$
=
 OpenBabel11052422153D

 25 27  0  0  1  0  0  0  0  0999 V2000
  161.7680  208.4060  150.3860 C   0  0  0  0  0  0  0  0  0  0  0  0
  162.4120  209.3950  148.2540 O   0  0  0  0  0  1  0  0  0  0  0  0
  161.6840  210.8190  150.0640 C   0  0  0  0  0  0  0  0  0  0  0  0
  161.9060  212.2450  149.0660 Cl  0  0  0  0  0  0  0  0  0  0  0  0
  161.3100  208.5800  151.6950 C   0  0  0  0  0  3  0  0  0  0  0  0
  161.2260  210.9740  151.3740 C   0  0  0  0  0  3  0  0  0  0  0  0
  161.0370  209.8550  152.1960 C   0  0  0  0  0  0  0  0  0  0  0  0
  161.9570  209.5390  149.5620 C   0  0  0  0  0  0  0  0  0  0  0  0
  162.0340  206.9990  149.9230 C   0  0  1  0  0  3  0  0  0  0  0  0
  162.3310  206.6610  147.5300 N   0  0  0  0  0  1  0  0  0  0  0  0
  161.4690  205.9830  150.8300 C   0  0  0  0  0  0  0  0  0  0  0  0
  160.4880  203.5840  152.0220 C   0  0  0  0  0  2  0  0  0  0  0  0
  160.4630  205.1560  150.1250 C   0  0  2  0  0  3  0  0  0  0  0  0
  160.6230  203.6900  150.5020 C   0  0  0  0  0  2  0  0  0  0  0  0
  161.5690  204.4020  152.7530 C   0  0  0  0  0  2  0  0  0  0  0  0
  161.3480  206.6860  148.5970 C   0  0  1  0  0  3  0  0  0  0  0  0
  160.6980  205.3750  148.7030 N   0  0  0  0  0  2  0  0  0  0  0  0
  161.9890  205.6570  152.0220 C   0  0  0  0  0  3  0  0  0  0  0  0
  160.5570  209.9840  153.5790 C   0  0  0  0  0  3  0  0  0  0  0  0
  161.3080  210.4790  154.5560 C   0  0  0  0  0  3  0  0  0  0  0  0
  160.7840  210.5770  155.8780 N   0  0  0  0  0  2  0  0  0  0  0  0
  159.7160  209.7660  156.2860 N   0  0  0  0  0  2  0  0  0  0  0  0
  160.2810  208.6010  156.9500 C   0  0  0  0  0  2  0  0  0  0  0  0
  159.7050  207.3300  156.3540 C   0  0  0  0  0  2  0  0  0  0  0  0
  160.4600  206.9510  155.0940 C   0  0  0  0  0  1  0  0  0  0  0  0
  1  5  1  0  0  0  0
  2  8  1  0  0  0  0
  3  6  2  0  0  0  0
  4  3  1  0  0  0  0
  5  7  2  0  0  0  0
  6  7  1  0  0  0  0
  7 19  1  0  0  0  0
  8  3  1  0  0  0  0
  8  1  2  0  0  0  0
  9  1  1  1  0  0  0
  9 11  1  0  0  0  0
 11 18  2  0  0  0  0
 12 15  1  0  0  0  0
 13 14  1  6  0  0  0
 13 11  1  0  0  0  0
 14 12  1  0  0  0  0
 16 10  1  6  0  0  0
 16 17  1  0  0  0  0
 16  9  1  0  0  0  0
 17 13  1  0  0  0  0
 18 15  1  0  0  0  0
 19 20  2  0  0  0  0
 20 21  1  0  0  0  0
 21 22  1  0  0  0  0
 22 23  1  0  0  0  0
 24 23  1  0  0  0  0
 25 24  1  0  0  0  0
M  END
>  <MODEL>
8

>  <REMARK>
 VINA RESULT:      -6.1      2.396      6.801
  Name = 
  6 active torsions:
  status: ('A' for Active; 'I' for Inactive)
    1  A    between atoms: C_1  and  C_3
    2  A    between atoms: C_2  and  C_12
    3  A    between atoms: C_6  and  C_23
    4  A    between atoms: C_12  and  N_25
    5  A    between atoms: C_15  and  N_21
    6  A    between atoms: N_21  and  N_25
                            x       y       z     vdW  Elec       q    Type
                         _______ _______ _______ _____ _____    ______ ____

>  <TORSDO>
F 6

$$$$
=
 OpenBabel11052422153D

 25 27  0  0  1  0  0  0  0  0999 V2000
  161.4970  204.9380  149.6870 C   0  0  0  0  0  0  0  0  0  0  0  0
  161.1530  202.9320  148.3490 O   0  0  0  0  0  1  0  0  0  0  0  0
  160.8490  202.8410  150.7430 C   0  0  0  0  0  0  0  0  0  0  0  0
  160.4360  201.1390  150.6530 Cl  0  0  0  0  0  0  0  0  0  0  0  0
  161.5030  205.5520  150.9440 C   0  0  0  0  0  3  0  0  0  0  0  0
  160.8610  203.4700  151.9900 C   0  0  0  0  0  3  0  0  0  0  0  0
  161.1870  204.8290  152.0960 C   0  0  0  0  0  0  0  0  0  0  0  0
  161.1670  203.5680  149.5870 C   0  0  0  0  0  0  0  0  0  0  0  0
  161.8530  205.7880  148.4980 C   0  0  1  0  0  3  0  0  0  0  0  0
  161.9840  208.1930  148.8580 N   0  0  0  0  0  1  0  0  0  0  0  0
  161.4610  205.1720  147.2160 C   0  0  0  0  0  0  0  0  0  0  0  0
  160.8070  204.6450  144.4900 C   0  0  0  0  0  2  0  0  0  0  0  0
  160.4820  206.0250  146.5050 C   0  0  2  0  0  3  0  0  0  0  0  0
  160.8070  206.0800  145.0190 C   0  0  0  0  0  2  0  0  0  0  0  0
  161.8640  203.7740  145.1940 C   0  0  0  0  0  2  0  0  0  0  0  0
  161.0940  207.1100  148.4820 C   0  0  1  0  0  3  0  0  0  0  0  0
  160.5780  207.3400  147.1270 N   0  0  0  0  0  2  0  0  0  0  0  0
  162.1050  204.1480  146.6390 C   0  0  0  0  0  3  0  0  0  0  0  0
  161.2080  205.5190  153.3930 C   0  0  0  0  0  3  0  0  0  0  0  0
  161.2140  206.8420  153.5020 C   0  0  0  0  0  3  0  0  0  0  0  0
  161.2350  207.4520  154.7900 N   0  0  0  0  0  2  0  0  0  0  0  0
  160.5250  208.6350  155.0320 N   0  0  0  0  0  2  0  0  0  0  0  0
  161.4170  209.5440  155.7360 C   0  0  0  0  0  2  0  0  0  0  0  0
  161.9530  210.5930  154.7800 C   0  0  0  0  0  2  0  0  0  0  0  0
  160.8430  211.1010  153.8810 C   0  0  0  0  0  1  0  0  0  0  0  0
  1  5  1  0  0  0  0
  2  8  1  0  0  0  0
  3  6  2  0  0  0  0
  4  3  1  0  0  0  0
  5  7  2  0  0  0  0
  6  7  1  0  0  0  0
  7 19  1  0  0  0  0
  8  1  2  0  0  0  0
  8  3  1  0  0  0  0
  9  1  1  1  0  0  0
 11  9  1  0  0  0  0
 12 14  1  0  0  0  0
 12 15  1  0  0  0  0
 13 14  1  6  0  0  0
 13 17  1  0  0  0  0
 13 11  1  0  0  0  0
 15 18  1  0  0  0  0
 16  9  1  0  0  0  0
 16 10  1  6  0  0  0
 17 16  1  0  0  0  0
 18 11  2  0  0  0  0
 19 20  2  0  0  0  0
 20 21  1  0  0  0  0
 21 22  1  0  0  0  0
 22 23  1  0  0  0  0
 24 23  1  0  0  0  0
 25 24  1  0  0  0  0
M  END
>  <MODEL>
9

>  <REMARK>
 VINA RESULT:      -5.8      3.993      8.327
  Name = 
  6 active torsions:
  status: ('A' for Active; 'I' for Inactive)
    1  A    between atoms: C_1  and  C_3
    2  A    between atoms: C_2  and  C_12
    3  A    between atoms: C_6  and  C_23
    4  A    between atoms: C_12  and  N_25
    5  A    between atoms: C_15  and  N_21
    6  A    between atoms: N_21  and  N_25
                            x       y       z     vdW  Elec       q    Type
                         _______ _______ _______ _____ _____    ______ ____

>  <TORSDO>
F 6

$$$$
