=
 OpenBabel11062409283D

 34 38  0  0  1  0  0  0  0  0999 V2000
  160.9070  210.8120  153.7400 C   0  0  0  0  0  0  0  0  0  0  0  0
  157.5960  212.6340  153.9750 C   0  0  0  0  0  2  0  0  0  0  0  0
  157.2680  214.0820  150.8610 C   0  0  0  0  0  0  0  0  0  0  0  0
  158.7970  211.2070  155.5560 N   0  0  0  0  0  0  0  0  0  0  0  0
  161.8940  209.2060  155.4260 C   0  0  0  0  0  3  0  0  0  0  0  0
  160.4020  208.5410  157.2430 C   0  0  0  0  0  3  0  0  0  0  0  0
  157.6620  213.9200  149.6750 O   0  0  0  0  0  0  0  0  0  0  0  0
  161.5880  208.3340  156.3880 C   0  0  0  0  0  3  0  0  0  0  0  0
  159.7680  210.4280  155.9290 C   0  0  0  0  0  0  0  0  0  0  0  0
  161.1030  210.4770  155.2100 C   0  0  2  0  0  3  0  0  0  0  0  0
  159.5660  209.5090  157.0080 N   0  0  0  0  0  0  0  0  0  0  0  0
  157.6990  214.0100  153.3330 C   0  0  0  0  0  2  0  0  0  0  0  0
  155.9100  214.4390  151.1000 N   0  0  0  0  0  1  0  0  0  0  0  0
  158.1770  213.9040  151.9580 N   0  0  0  0  0  0  0  0  0  0  0  0
  159.5460  213.4650  151.7120 C   0  0  0  0  0  2  0  0  0  0  0  0
  158.9620  212.1700  154.4680 C   0  0  1  0  0  3  0  0  0  0  0  0
  159.6440  211.9610  151.9230 C   0  0  0  0  0  2  0  0  0  0  0  0
  159.8710  211.6160  153.3760 C   0  0  0  0  0  0  0  0  0  0  0  0
  161.9300  210.3590  152.7310 C   0  0  0  0  0  2  0  0  0  0  0  0
  161.4030  209.2430  151.9570 N   0  0  0  0  0  2  0  0  0  0  0  0
  161.9430  209.3680  150.6130 C   0  0  0  0  0  2  0  0  0  0  0  0
  161.9700  206.7870  147.8350 C   0  0  0  0  0  3  0  0  0  0  0  0
  161.4010  206.9210  150.5840 C   0  0  0  0  0  3  0  0  0  0  0  0
  161.1090  203.2460  148.5440 C   0  0  0  0  0  0  0  0  0  0  0  0
  161.4890  204.4100  147.8530 C   0  0  0  0  0  3  0  0  0  0  0  0
  161.5860  205.6310  148.5250 C   0  0  0  0  0  0  0  0  0  0  0  0
  160.9240  204.5420  150.5990 C   0  0  0  0  0  3  0  0  0  0  0  0
  161.3000  205.6980  149.9110 C   0  0  0  0  0  0  0  0  0  0  0  0
  160.8290  203.3220  149.9180 C   0  0  0  0  0  3  0  0  0  0  0  0
  161.7830  208.0760  149.8870 C   0  0  0  0  0  0  0  0  0  0  0  0
  162.0740  208.0060  148.5160 C   0  0  0  0  0  3  0  0  0  0  0  0
  161.0020  201.9550  147.8340 C   0  0  0  0  0  0  0  0  0  0  0  0
  160.7290  201.9300  146.6040 O   0  0  0  0  0  0  0  0  0  0  0  0
  161.2100  200.6600  148.5490 C   0  0  0  0  0  1  0  0  0  0  0  0
  1 10  1  0  0  0  0
  3 13  1  0  0  0  0
  3 14  1  0  0  0  0
  4  9  2  0  0  0  0
  5  8  2  0  0  0  0
  7  3  2  0  0  0  0
  8  6  1  0  0  0  0
  9 11  1  0  0  0  0
 10  5  1  6  0  0  0
 10  9  1  0  0  0  0
 11  6  2  0  0  0  0
 12  2  1  0  0  0  0
 14 12  1  0  0  0  0
 15 17  1  0  0  0  0
 15 14  1  0  0  0  0
 16  2  1  6  0  0  0
 16  4  1  0  0  0  0
 17 18  1  0  0  0  0
 18  1  2  0  0  0  0
 18 16  1  0  0  0  0
 19  1  1  0  0  0  0
 20 19  1  0  0  0  0
 21 20  1  0  0  0  0
 22 31  2  0  0  0  0
 22 26  1  0  0  0  0
 24 29  1  0  0  0  0
 25 26  1  0  0  0  0
 25 24  2  0  0  0  0
 26 28  2  0  0  0  0
 28 23  1  0  0  0  0
 28 27  1  0  0  0  0
 29 27  2  0  0  0  0
 30 23  2  0  0  0  0
 30 21  1  0  0  0  0
 31 30  1  0  0  0  0
 32 24  1  0  0  0  0
 32 34  1  0  0  0  0
 33 32  2  0  0  0  0
M  END
>  <MODEL>
1

>  <REMARK>
 VINA RESULT:      -9.3      0.000      0.000
  Name = 
  5 active torsions:
  status: ('A' for Active; 'I' for Inactive)
    1  A    between atoms: C_1  and  C_9
    2  A    between atoms: C_7  and  C_11
    3  A    between atoms: N_8  and  C_9
    4  A    between atoms: N_8  and  C_18
    5  A    between atoms: C_18  and  C_30
                            x       y       z     vdW  Elec       q    Type
                         _______ _______ _______ _____ _____    ______ ____

>  <TORSDO>
F 5

$$$$
=
 OpenBabel11062409283D

 34 38  0  0  1  0  0  0  0  0999 V2000
  161.0510  210.8630  153.5820 C   0  0  0  0  0  0  0  0  0  0  0  0
  157.7420  212.7050  153.5840 C   0  0  0  0  0  2  0  0  0  0  0  0
  157.4860  213.8720  150.3470 C   0  0  0  0  0  0  0  0  0  0  0  0
  158.9040  211.4210  155.3110 N   0  0  0  0  0  0  0  0  0  0  0  0
  161.9960  209.4110  155.4240 C   0  0  0  0  0  3  0  0  0  0  0  0
  160.4630  208.9120  157.2610 C   0  0  0  0  0  3  0  0  0  0  0  0
  157.9040  213.6050  149.1890 O   0  0  0  0  0  0  0  0  0  0  0  0
  161.6660  208.6280  156.4530 C   0  0  0  0  0  3  0  0  0  0  0  0
  159.8640  210.6770  155.7720 C   0  0  0  0  0  0  0  0  0  0  0  0
  161.2150  210.6590  155.0790 C   0  0  2  0  0  3  0  0  0  0  0  0
  159.6360  209.8570  156.9230 N   0  0  0  0  0  0  0  0  0  0  0  0
  157.8640  214.0190  152.8250 C   0  0  0  0  0  2  0  0  0  0  0  0
  156.1250  214.2510  150.5250 N   0  0  0  0  0  1  0  0  0  0  0  0
  158.3710  213.7900  151.4750 N   0  0  0  0  0  0  0  0  0  0  0  0
  159.7430  213.3280  151.2990 C   0  0  0  0  0  2  0  0  0  0  0  0
  159.0960  212.2840  154.1450 C   0  0  1  0  0  3  0  0  0  0  0  0
  159.8310  211.8490  151.6440 C   0  0  0  0  0  2  0  0  0  0  0  0
  160.0260  211.6340  153.1260 C   0  0  0  0  0  0  0  0  0  0  0  0
  162.0930  210.3200  152.6390 C   0  0  0  0  0  2  0  0  0  0  0  0
  161.5100  209.2830  151.7990 N   0  0  0  0  0  2  0  0  0  0  0  0
  161.1470  208.1830  152.6770 C   0  0  0  0  0  2  0  0  0  0  0  0
  161.1680  204.4700  151.9010 C   0  0  0  0  0  3  0  0  0  0  0  0
  161.1760  206.9150  150.5140 C   0  0  0  0  0  3  0  0  0  0  0  0
  161.1280  203.2810  148.3840 C   0  0  0  0  0  0  0  0  0  0  0  0
  161.1420  203.2760  149.7900 C   0  0  0  0  0  3  0  0  0  0  0  0
  161.1600  204.4790  150.5010 C   0  0  0  0  0  0  0  0  0  0  0  0
  161.1470  205.7170  148.4050 C   0  0  0  0  0  3  0  0  0  0  0  0
  161.1630  205.7110  149.8010 C   0  0  0  0  0  0  0  0  0  0  0  0
  161.1300  204.5070  147.7000 C   0  0  0  0  0  3  0  0  0  0  0  0
  161.1870  206.9010  151.9160 C   0  0  0  0  0  0  0  0  0  0  0  0
  161.1760  205.6800  152.6070 C   0  0  0  0  0  3  0  0  0  0  0  0
  161.1150  202.0100  147.6310 C   0  0  0  0  0  0  0  0  0  0  0  0
  161.1140  202.0200  146.3710 O   0  0  0  0  0  0  0  0  0  0  0  0
  161.0980  200.6930  148.3380 C   0  0  0  0  0  1  0  0  0  0  0  0
  1 10  1  0  0  0  0
  3 13  1  0  0  0  0
  3 14  1  0  0  0  0
  4  9  2  0  0  0  0
  5  8  2  0  0  0  0
  7  3  2  0  0  0  0
  8  6  1  0  0  0  0
  9 11  1  0  0  0  0
 10  5  1  6  0  0  0
 10  9  1  0  0  0  0
 11  6  2  0  0  0  0
 12  2  1  0  0  0  0
 14 12  1  0  0  0  0
 15 14  1  0  0  0  0
 15 17  1  0  0  0  0
 16  2  1  6  0  0  0
 16  4  1  0  0  0  0
 17 18  1  0  0  0  0
 18  1  2  0  0  0  0
 18 16  1  0  0  0  0
 19  1  1  0  0  0  0
 20 19  1  0  0  0  0
 20 21  1  0  0  0  0
 22 31  1  0  0  0  0
 23 30  1  0  0  0  0
 24 25  2  0  0  0  0
 25 26  1  0  0  0  0
 26 22  2  0  0  0  0
 27 28  1  0  0  0  0
 28 26  1  0  0  0  0
 28 23  2  0  0  0  0
 29 24  1  0  0  0  0
 29 27  2  0  0  0  0
 30 31  2  0  0  0  0
 30 21  1  0  0  0  0
 32 34  1  0  0  0  0
 32 24  1  0  0  0  0
 33 32  2  0  0  0  0
M  END
>  <MODEL>
2

>  <REMARK>
 VINA RESULT:      -9.1      0.759      1.578
  Name = 
  5 active torsions:
  status: ('A' for Active; 'I' for Inactive)
    1  A    between atoms: C_1  and  C_9
    2  A    between atoms: C_7  and  C_11
    3  A    between atoms: N_8  and  C_9
    4  A    between atoms: N_8  and  C_18
    5  A    between atoms: C_18  and  C_30
                            x       y       z     vdW  Elec       q    Type
                         _______ _______ _______ _____ _____    ______ ____

>  <TORSDO>
F 5

$$$$
=
 OpenBabel11062409283D

 34 38  0  0  1  0  0  0  0  0999 V2000
  161.3860  211.1290  150.8380 C   0  0  0  0  0  0  0  0  0  0  0  0
  159.0200  213.2940  152.8510 C   0  0  0  0  0  2  0  0  0  0  0  0
  158.6640  211.5420  155.8020 C   0  0  0  0  0  0  0  0  0  0  0  0
  160.0290  213.5840  150.6430 N   0  0  0  0  0  0  0  0  0  0  0  0
  162.4870  211.7040  148.6340 C   0  0  0  0  0  3  0  0  0  0  0  0
  162.2210  214.0180  147.8990 C   0  0  0  0  0  3  0  0  0  0  0  0
  159.2820  210.6980  156.5040 O   0  0  0  0  0  0  0  0  0  0  0  0
  162.9150  212.7150  147.8770 C   0  0  0  0  0  3  0  0  0  0  0  0
  160.8010  213.2480  149.6530 C   0  0  0  0  0  0  0  0  0  0  0  0
  161.2400  211.8060  149.4850 C   0  0  2  0  0  3  0  0  0  0  0  0
  161.2530  214.2490  148.7340 N   0  0  0  0  0  0  0  0  0  0  0  0
  157.9810  212.4320  153.5570 C   0  0  0  0  0  2  0  0  0  0  0  0
  158.0060  212.6310  156.4420 N   0  0  0  0  0  1  0  0  0  0  0  0
  158.6270  211.4090  154.3730 N   0  0  0  0  0  0  0  0  0  0  0  0
  159.3650  210.3360  153.7170 C   0  0  0  0  0  2  0  0  0  0  0  0
  159.5330  212.5930  151.5980 C   0  0  1  0  0  3  0  0  0  0  0  0
  160.7020  210.8660  153.2210 C   0  0  0  0  0  2  0  0  0  0  0  0
  160.5760  211.5130  151.8620 C   0  0  0  0  0  0  0  0  0  0  0  0
  162.3300  209.9640  150.9890 C   0  0  0  0  0  2  0  0  0  0  0  0
  161.8090  208.8080  150.2720 N   0  0  0  0  0  2  0  0  0  0  0  0
  161.5770  207.7670  151.2590 C   0  0  0  0  0  2  0  0  0  0  0  0
  160.8320  204.0960  150.6670 C   0  0  0  0  0  3  0  0  0  0  0  0
  161.6240  206.3520  149.1900 C   0  0  0  0  0  3  0  0  0  0  0  0
  161.0330  202.6610  147.2480 C   0  0  0  0  0  0  0  0  0  0  0  0
  160.8370  202.7690  148.6360 C   0  0  0  0  0  3  0  0  0  0  0  0
  161.0340  203.9910  149.2850 C   0  0  0  0  0  0  0  0  0  0  0  0
  161.6250  205.0230  147.1610 C   0  0  0  0  0  3  0  0  0  0  0  0
  161.4320  205.1280  148.5400 C   0  0  0  0  0  0  0  0  0  0  0  0
  161.4260  203.7950  146.5190 C   0  0  0  0  0  3  0  0  0  0  0  0
  161.4240  206.4520  150.5740 C   0  0  0  0  0  0  0  0  0  0  0  0
  161.0210  205.3260  151.3090 C   0  0  0  0  0  3  0  0  0  0  0  0
  160.8300  201.3690  146.5620 C   0  0  0  0  0  0  0  0  0  0  0  0
  161.2710  200.3040  147.0730 O   0  0  0  0  0  0  0  0  0  0  0  0
  160.1070  201.2910  145.2570 C   0  0  0  0  0  1  0  0  0  0  0  0
  1 19  1  0  0  0  0
  1 18  2  0  0  0  0
  2 12  1  0  0  0  0
  3 13  1  0  0  0  0
  3  7  2  0  0  0  0
  4 16  1  0  0  0  0
  6 11  2  0  0  0  0
  8  6  1  0  0  0  0
  8  5  2  0  0  0  0
  9  4  2  0  0  0  0
 10  5  1  1  0  0  0
 10  9  1  0  0  0  0
 10  1  1  0  0  0  0
 11  9  1  0  0  0  0
 12 14  1  0  0  0  0
 14  3  1  0  0  0  0
 15 14  1  0  0  0  0
 16 18  1  0  0  0  0
 16  2  1  1  0  0  0
 17 15  1  0  0  0  0
 18 17  1  0  0  0  0
 20 19  1  0  0  0  0
 20 21  1  0  0  0  0
 22 31  1  0  0  0  0
 23 30  1  0  0  0  0
 24 25  2  0  0  0  0
 25 26  1  0  0  0  0
 26 22  2  0  0  0  0
 27 28  1  0  0  0  0
 28 23  2  0  0  0  0
 28 26  1  0  0  0  0
 29 27  2  0  0  0  0
 29 24  1  0  0  0  0
 30 21  1  0  0  0  0
 30 31  2  0  0  0  0
 32 33  2  0  0  0  0
 32 24  1  0  0  0  0
 34 32  1  0  0  0  0
M  END
>  <MODEL>
3

>  <REMARK>
 VINA RESULT:      -9.1      2.378      4.734
  Name = 
  5 active torsions:
  status: ('A' for Active; 'I' for Inactive)
    1  A    between atoms: C_1  and  C_9
    2  A    between atoms: C_7  and  C_11
    3  A    between atoms: N_8  and  C_9
    4  A    between atoms: N_8  and  C_18
    5  A    between atoms: C_18  and  C_30
                            x       y       z     vdW  Elec       q    Type
                         _______ _______ _______ _____ _____    ______ ____

>  <TORSDO>
F 5

$$$$
=
 OpenBabel11062409283D

 34 38  0  0  1  0  0  0  0  0999 V2000
  160.5310  211.3020  152.7640 C   0  0  0  0  0  0  0  0  0  0  0  0
  158.5960  213.6210  150.4780 C   0  0  0  0  0  2  0  0  0  0  0  0
  160.1760  213.2300  147.4360 C   0  0  0  0  0  0  0  0  0  0  0  0
  158.3160  213.0340  152.8360 N   0  0  0  0  0  0  0  0  0  0  0  0
  159.9550  210.6680  155.1440 C   0  0  0  0  0  3  0  0  0  0  0  0
  157.7590  211.3990  155.9250 C   0  0  0  0  0  3  0  0  0  0  0  0
  160.8720  212.3860  146.8110 O   0  0  0  0  0  0  0  0  0  0  0  0
  158.9470  210.5260  156.0050 C   0  0  0  0  0  3  0  0  0  0  0  0
  158.6040  212.3870  153.9250 C   0  0  0  0  0  0  0  0  0  0  0  0
  159.9760  211.7640  154.1020 C   0  0  2  0  0  3  0  0  0  0  0  0
  157.6130  212.2460  154.9490 N   0  0  0  0  0  0  0  0  0  0  0  0
  159.5480  214.3900  149.5720 C   0  0  0  0  0  2  0  0  0  0  0  0
  159.1520  213.9360  146.7430 N   0  0  0  0  0  1  0  0  0  0  0  0
  160.4100  213.4730  148.8320 N   0  0  0  0  0  0  0  0  0  0  0  0
  161.4080  212.6940  149.5550 C   0  0  0  0  0  2  0  0  0  0  0  0
  159.3000  213.2130  151.7680 C   0  0  1  0  0  3  0  0  0  0  0  0
  160.7260  211.5500  150.2900 C   0  0  0  0  0  2  0  0  0  0  0  0
  160.1990  211.9880  151.6360 C   0  0  0  0  0  0  0  0  0  0  0  0
  161.5350  210.1790  152.7220 C   0  0  0  0  0  2  0  0  0  0  0  0
  160.9320  208.9980  152.1210 N   0  0  0  0  0  2  0  0  0  0  0  0
  161.1920  207.8860  153.0200 C   0  0  0  0  0  2  0  0  0  0  0  0
  161.0570  204.1810  152.2210 C   0  0  0  0  0  3  0  0  0  0  0  0
  161.2090  206.6310  150.8500 C   0  0  0  0  0  3  0  0  0  0  0  0
  161.0390  203.0150  148.6950 C   0  0  0  0  0  0  0  0  0  0  0  0
  161.0220  203.0010  150.1010 C   0  0  0  0  0  3  0  0  0  0  0  0
  161.0800  204.1980  150.8200 C   0  0  0  0  0  0  0  0  0  0  0  0
  161.1700  205.4470  148.7330 C   0  0  0  0  0  3  0  0  0  0  0  0
  161.1550  205.4330  150.1290 C   0  0  0  0  0  0  0  0  0  0  0  0
  161.1120  204.2440  148.0200 C   0  0  0  0  0  3  0  0  0  0  0  0
  161.1890  206.6080  152.2520 C   0  0  0  0  0  0  0  0  0  0  0  0
  161.1060  205.3850  152.9340 C   0  0  0  0  0  3  0  0  0  0  0  0
  160.9830  201.7500  147.9340 C   0  0  0  0  0  0  0  0  0  0  0  0
  161.1120  200.6460  148.5290 O   0  0  0  0  0  0  0  0  0  0  0  0
  160.7760  201.7460  146.4550 C   0  0  0  0  0  1  0  0  0  0  0  0
  1 10  1  0  0  0  0
  3 14  1  0  0  0  0
  4  9  2  0  0  0  0
  5  8  2  0  0  0  0
  6  8  1  0  0  0  0
  7  3  2  0  0  0  0
  9 10  1  0  0  0  0
  9 11  1  0  0  0  0
 10  5  1  1  0  0  0
 11  6  2  0  0  0  0
 12  2  1  0  0  0  0
 13  3  1  0  0  0  0
 14 15  1  0  0  0  0
 14 12  1  0  0  0  0
 15 17  1  0  0  0  0
 16  2  1  6  0  0  0
 16  4  1  0  0  0  0
 17 18  1  0  0  0  0
 18 16  1  0  0  0  0
 18  1  2  0  0  0  0
 19  1  1  0  0  0  0
 20 19  1  0  0  0  0
 20 21  1  0  0  0  0
 22 31  1  0  0  0  0
 23 30  1  0  0  0  0
 24 25  2  0  0  0  0
 25 26  1  0  0  0  0
 26 22  2  0  0  0  0
 27 28  1  0  0  0  0
 28 26  1  0  0  0  0
 28 23  2  0  0  0  0
 29 24  1  0  0  0  0
 29 27  2  0  0  0  0
 30 31  2  0  0  0  0
 30 21  1  0  0  0  0
 32 33  2  0  0  0  0
 32 24  1  0  0  0  0
 34 32  1  0  0  0  0
M  END
>  <MODEL>
4

>  <REMARK>
 VINA RESULT:      -9.0      2.053      3.095
  Name = 
  5 active torsions:
  status: ('A' for Active; 'I' for Inactive)
    1  A    between atoms: C_1  and  C_9
    2  A    between atoms: C_7  and  C_11
    3  A    between atoms: N_8  and  C_9
    4  A    between atoms: N_8  and  C_18
    5  A    between atoms: C_18  and  C_30
                            x       y       z     vdW  Elec       q    Type
                         _______ _______ _______ _____ _____    ______ ____

>  <TORSDO>
F 5

$$$$
=
 OpenBabel11062409283D

 34 38  0  0  1  0  0  0  0  0999 V2000
  161.2550  210.3250  152.1420 C   0  0  0  0  0  0  0  0  0  0  0  0
  159.7300  213.3950  150.5340 C   0  0  0  0  0  2  0  0  0  0  0  0
  160.7610  213.1600  147.2500 C   0  0  0  0  0  0  0  0  0  0  0  0
  159.6000  212.4990  152.8050 N   0  0  0  0  0  0  0  0  0  0  0  0
  160.8330  209.4510  154.4780 C   0  0  0  0  0  3  0  0  0  0  0  0
  159.0210  210.5440  155.6980 C   0  0  0  0  0  3  0  0  0  0  0  0
  161.1280  212.2930  146.4130 O   0  0  0  0  0  0  0  0  0  0  0  0
  159.9380  209.4100  155.4660 C   0  0  0  0  0  3  0  0  0  0  0  0
  159.8400  211.6260  153.7370 C   0  0  0  0  0  0  0  0  0  0  0  0
  161.0120  210.6710  153.6030 C   0  0  2  0  0  3  0  0  0  0  0  0
  158.9830  211.5550  154.8820 N   0  0  0  0  0  0  0  0  0  0  0  0
  160.7300  214.0550  149.5950 C   0  0  0  0  0  2  0  0  0  0  0  0
  159.8800  214.2000  146.8340 N   0  0  0  0  0  1  0  0  0  0  0  0
  161.2220  213.0990  148.6090 N   0  0  0  0  0  0  0  0  0  0  0  0
  162.0620  211.9910  149.0480 C   0  0  0  0  0  2  0  0  0  0  0  0
  160.4560  212.6160  151.6260 C   0  0  1  0  0  3  0  0  0  0  0  0
  161.2000  210.9360  149.7260 C   0  0  0  0  0  2  0  0  0  0  0  0
  160.9780  211.2520  151.1860 C   0  0  0  0  0  0  0  0  0  0  0  0
  161.9160  209.0180  151.7880 C   0  0  0  0  0  2  0  0  0  0  0  0
  160.9020  208.0150  151.4900 N   0  0  0  0  0  2  0  0  0  0  0  0
  161.4760  206.7220  151.8250 C   0  0  0  0  0  2  0  0  0  0  0  0
  161.4250  205.4260  148.2610 C   0  0  0  0  0  3  0  0  0  0  0  0
  161.1210  204.4310  150.8720 C   0  0  0  0  0  3  0  0  0  0  0  0
  160.9090  201.8130  147.5780 C   0  0  0  0  0  0  0  0  0  0  0  0
  161.1300  203.1870  147.3760 C   0  0  0  0  0  3  0  0  0  0  0  0
  161.1990  204.0590  148.4660 C   0  0  0  0  0  0  0  0  0  0  0  0
  160.8290  202.1920  149.9830 C   0  0  0  0  0  3  0  0  0  0  0  0
  161.0470  203.5570  149.7820 C   0  0  0  0  0  0  0  0  0  0  0  0
  160.7610  201.3250  148.8860 C   0  0  0  0  0  3  0  0  0  0  0  0
  161.3440  205.7990  150.6620 C   0  0  0  0  0  0  0  0  0  0  0  0
  161.5030  206.2930  149.3590 C   0  0  0  0  0  3  0  0  0  0  0  0
  160.8310  200.8910  146.4270 C   0  0  0  0  0  0  0  0  0  0  0  0
  161.3760  199.7560  146.4860 O   0  0  0  0  0  0  0  0  0  0  0  0
  160.1140  201.2770  145.1740 C   0  0  0  0  0  1  0  0  0  0  0  0
  1 10  1  0  0  0  0
  3 14  1  0  0  0  0
  4  9  2  0  0  0  0
  5  8  2  0  0  0  0
  7  3  2  0  0  0  0
  8  6  1  0  0  0  0
  9 11  1  0  0  0  0
 10  9  1  0  0  0  0
 10  5  1  1  0  0  0
 11  6  2  0  0  0  0
 12  2  1  0  0  0  0
 13  3  1  0  0  0  0
 14 15  1  0  0  0  0
 14 12  1  0  0  0  0
 15 17  1  0  0  0  0
 16  2  1  6  0  0  0
 16  4  1  0  0  0  0
 17 18  1  0  0  0  0
 18 16  1  0  0  0  0
 18  1  2  0  0  0  0
 19  1  1  0  0  0  0
 20 19  1  0  0  0  0
 20 21  1  0  0  0  0
 22 26  2  0  0  0  0
 22 31  1  0  0  0  0
 24 29  1  0  0  0  0
 25 24  2  0  0  0  0
 25 26  1  0  0  0  0
 26 28  1  0  0  0  0
 28 27  1  0  0  0  0
 28 23  2  0  0  0  0
 29 27  2  0  0  0  0
 30 23  1  0  0  0  0
 30 21  1  0  0  0  0
 31 30  2  0  0  0  0
 32 33  2  0  0  0  0
 32 24  1  0  0  0  0
 34 32  1  0  0  0  0
M  END
>  <MODEL>
5

>  <REMARK>
 VINA RESULT:      -8.9      2.165      3.017
  Name = 
  5 active torsions:
  status: ('A' for Active; 'I' for Inactive)
    1  A    between atoms: C_1  and  C_9
    2  A    between atoms: C_7  and  C_11
    3  A    between atoms: N_8  and  C_9
    4  A    between atoms: N_8  and  C_18
    5  A    between atoms: C_18  and  C_30
                            x       y       z     vdW  Elec       q    Type
                         _______ _______ _______ _____ _____    ______ ____

>  <TORSDO>
F 5

$$$$
=
 OpenBabel11062409283D

 34 38  0  0  1  0  0  0  0  0999 V2000
  161.2480  207.5610  151.7430 C   0  0  0  0  0  0  0  0  0  0  0  0
  160.3170  208.8370  155.1840 C   0  0  0  0  0  2  0  0  0  0  0  0
  159.7870  212.2060  154.6600 C   0  0  0  0  0  0  0  0  0  0  0  0
  160.8290  206.5960  154.3510 N   0  0  0  0  0  0  0  0  0  0  0  0
  161.5450  205.1510  151.0330 C   0  0  0  0  0  3  0  0  0  0  0  0
  160.8590  203.4790  152.6760 C   0  0  0  0  0  3  0  0  0  0  0  0
  159.4720  213.0010  153.7350 O   0  0  0  0  0  0  0  0  0  0  0  0
  161.1700  203.8990  151.2940 C   0  0  0  0  0  3  0  0  0  0  0  0
  161.1220  205.7250  153.4320 C   0  0  0  0  0  0  0  0  0  0  0  0
  161.7480  206.1770  152.1260 C   0  0  2  0  0  3  0  0  0  0  0  0
  160.8310  204.3400  153.6490 N   0  0  0  0  0  0  0  0  0  0  0  0
  161.0080  210.1650  155.4630 C   0  0  0  0  0  2  0  0  0  0  0  0
  159.2140  212.3810  155.9520 N   0  0  0  0  0  1  0  0  0  0  0  0
  160.7100  211.1330  154.4130 N   0  0  0  0  0  0  0  0  0  0  0  0
  161.2350  210.9130  153.0710 C   0  0  0  0  0  2  0  0  0  0  0  0
  161.1200  208.0190  154.1780 C   0  0  1  0  0  3  0  0  0  0  0  0
  160.4250  209.8270  152.3790 C   0  0  0  0  0  2  0  0  0  0  0  0
  160.9330  208.4470  152.7260 C   0  0  0  0  0  0  0  0  0  0  0  0
  161.2340  207.9710  150.2930 C   0  0  0  0  0  2  0  0  0  0  0  0
  162.4030  207.4320  149.6130 N   0  0  0  0  0  2  0  0  0  0  0  0
  162.2370  207.7140  148.1970 C   0  0  0  0  0  2  0  0  0  0  0  0
  161.5370  205.2720  145.3810 C   0  0  0  0  0  3  0  0  0  0  0  0
  161.6700  205.2720  148.1890 C   0  0  0  0  0  3  0  0  0  0  0  0
  160.8290  201.7020  146.1170 C   0  0  0  0  0  0  0  0  0  0  0  0
  161.0420  202.8970  145.4080 C   0  0  0  0  0  3  0  0  0  0  0  0
  161.3190  204.0840  146.0910 C   0  0  0  0  0  0  0  0  0  0  0  0
  161.1780  202.8960  148.2110 C   0  0  0  0  0  3  0  0  0  0  0  0
  161.3880  204.0840  147.5060 C   0  0  0  0  0  0  0  0  0  0  0  0
  160.9000  201.7120  147.5190 C   0  0  0  0  0  3  0  0  0  0  0  0
  161.8830  206.4590  147.4740 C   0  0  0  0  0  0  0  0  0  0  0  0
  161.8240  206.4560  146.0720 C   0  0  0  0  0  3  0  0  0  0  0  0
  160.5310  200.4480  145.3960 C   0  0  0  0  0  0  0  0  0  0  0  0
  159.6920  200.4410  144.4550 O   0  0  0  0  0  0  0  0  0  0  0  0
  161.2070  199.1660  145.7620 C   0  0  0  0  0  1  0  0  0  0  0  0
  1 10  1  0  0  0  0
  1 18  2  0  0  0  0
  2 12  1  0  0  0  0
  3 13  1  0  0  0  0
  5  8  2  0  0  0  0
  6 11  2  0  0  0  0
  7  3  2  0  0  0  0
  8  6  1  0  0  0  0
  9 11  1  0  0  0  0
  9  4  2  0  0  0  0
 10  5  1  6  0  0  0
 10  9  1  0  0  0  0
 14  3  1  0  0  0  0
 14 12  1  0  0  0  0
 15 14  1  0  0  0  0
 16  4  1  0  0  0  0
 16  2  1  1  0  0  0
 17 18  1  0  0  0  0
 17 15  1  0  0  0  0
 18 16  1  0  0  0  0
 19  1  1  0  0  0  0
 20 19  1  0  0  0  0
 21 20  1  0  0  0  0
 22 31  2  0  0  0  0
 22 26  1  0  0  0  0
 24 29  1  0  0  0  0
 25 26  1  0  0  0  0
 25 24  2  0  0  0  0
 26 28  2  0  0  0  0
 28 23  1  0  0  0  0
 28 27  1  0  0  0  0
 29 27  2  0  0  0  0
 30 23  2  0  0  0  0
 30 21  1  0  0  0  0
 31 30  1  0  0  0  0
 32 34  1  0  0  0  0
 32 24  1  0  0  0  0
 33 32  2  0  0  0  0
M  END
>  <MODEL>
6

>  <REMARK>
 VINA RESULT:      -8.8      2.365      4.259
  Name = 
  5 active torsions:
  status: ('A' for Active; 'I' for Inactive)
    1  A    between atoms: C_1  and  C_9
    2  A    between atoms: C_7  and  C_11
    3  A    between atoms: N_8  and  C_9
    4  A    between atoms: N_8  and  C_18
    5  A    between atoms: C_18  and  C_30
                            x       y       z     vdW  Elec       q    Type
                         _______ _______ _______ _____ _____    ______ ____

>  <TORSDO>
F 5

$$$$
=
 OpenBabel11062409283D

 34 38  0  0  1  0  0  0  0  0999 V2000
  160.7950  208.4000  153.9740 C   0  0  0  0  0  0  0  0  0  0  0  0
  161.3030  211.1900  151.4640 C   0  0  0  0  0  2  0  0  0  0  0  0
  161.7390  209.5030  148.4860 C   0  0  0  0  0  0  0  0  0  0  0  0
  160.8310  211.2090  153.8630 N   0  0  0  0  0  0  0  0  0  0  0  0
  160.1080  208.6270  156.3970 C   0  0  0  0  0  3  0  0  0  0  0  0
  159.4120  210.8650  157.0870 C   0  0  0  0  0  3  0  0  0  0  0  0
  161.4490  208.4010  147.9490 O   0  0  0  0  0  0  0  0  0  0  0  0
  159.4450  209.3990  157.2590 C   0  0  0  0  0  3  0  0  0  0  0  0
  160.5680  210.6600  155.0110 C   0  0  0  0  0  0  0  0  0  0  0  0
  160.9180  209.2040  155.2570 C   0  0  2  0  0  3  0  0  0  0  0  0
  159.9270  211.4290  156.0350 N   0  0  0  0  0  0  0  0  0  0  0  0
  162.4260  210.8370  150.4980 C   0  0  0  0  0  2  0  0  0  0  0  0
  161.6310  210.6990  147.7200 N   0  0  0  0  0  1  0  0  0  0  0  0
  162.1700  209.5530  149.8550 N   0  0  0  0  0  0  0  0  0  0  0  0
  162.2070  208.3350  150.6570 C   0  0  0  0  0  2  0  0  0  0  0  0
  161.4960  210.4660  152.7930 C   0  0  1  0  0  3  0  0  0  0  0  0
  160.9380  208.2360  151.4900 C   0  0  0  0  0  2  0  0  0  0  0  0
  161.0590  209.0050  152.7840 C   0  0  0  0  0  0  0  0  0  0  0  0
  160.5100  206.9220  154.0470 C   0  0  0  0  0  2  0  0  0  0  0  0
  161.6370  206.1730  153.5080 N   0  0  0  0  0  2  0  0  0  0  0  0
  161.2170  204.7840  153.4190 C   0  0  0  0  0  2  0  0  0  0  0  0
  161.0470  205.0040  149.6370 C   0  0  0  0  0  3  0  0  0  0  0  0
  161.0510  203.0290  151.6360 C   0  0  0  0  0  3  0  0  0  0  0  0
  160.8900  201.9200  147.5750 C   0  0  0  0  0  0  0  0  0  0  0  0
  160.9400  203.2780  147.9350 C   0  0  0  0  0  3  0  0  0  0  0  0
  160.9920  203.6510  149.2820 C   0  0  0  0  0  0  0  0  0  0  0  0
  160.9480  201.3050  149.9320 C   0  0  0  0  0  3  0  0  0  0  0  0
  160.9950  202.6550  150.2890 C   0  0  0  0  0  0  0  0  0  0  0  0
  160.8960  200.9410  148.5810 C   0  0  0  0  0  3  0  0  0  0  0  0
  161.1030  204.3860  151.9860 C   0  0  0  0  0  0  0  0  0  0  0  0
  161.1080  205.3700  150.9870 C   0  0  0  0  0  3  0  0  0  0  0  0
  160.8310  201.5250  146.1530 C   0  0  0  0  0  0  0  0  0  0  0  0
  160.8120  202.4050  145.2510 O   0  0  0  0  0  0  0  0  0  0  0  0
  160.7890  200.0870  145.7510 C   0  0  0  0  0  1  0  0  0  0  0  0
  1 19  1  0  0  0  0
  1 10  1  0  0  0  0
  3 14  1  0  0  0  0
  4  9  2  0  0  0  0
  5  8  2  0  0  0  0
  6  8  1  0  0  0  0
  7  3  2  0  0  0  0
  9 10  1  0  0  0  0
  9 11  1  0  0  0  0
 10  5  1  1  0  0  0
 11  6  2  0  0  0  0
 12  2  1  0  0  0  0
 13  3  1  0  0  0  0
 14 12  1  0  0  0  0
 14 15  1  0  0  0  0
 15 17  1  0  0  0  0
 16  2  1  6  0  0  0
 16  4  1  0  0  0  0
 17 18  1  0  0  0  0
 18 16  1  0  0  0  0
 18  1  2  0  0  0  0
 20 19  1  0  0  0  0
 21 20  1  0  0  0  0
 22 31  1  0  0  0  0
 23 30  1  0  0  0  0
 24 25  2  0  0  0  0
 24 29  1  0  0  0  0
 25 26  1  0  0  0  0
 26 22  2  0  0  0  0
 26 28  1  0  0  0  0
 27 28  1  0  0  0  0
 28 23  2  0  0  0  0
 29 27  2  0  0  0  0
 30 21  1  0  0  0  0
 31 30  2  0  0  0  0
 32 24  1  0  0  0  0
 33 32  2  0  0  0  0
 34 32  1  0  0  0  0
M  END
>  <MODEL>
7

>  <REMARK>
 VINA RESULT:      -8.2      2.610      3.937
  Name = 
  5 active torsions:
  status: ('A' for Active; 'I' for Inactive)
    1  A    between atoms: C_1  and  C_9
    2  A    between atoms: C_7  and  C_11
    3  A    between atoms: N_8  and  C_9
    4  A    between atoms: N_8  and  C_18
    5  A    between atoms: C_18  and  C_30
                            x       y       z     vdW  Elec       q    Type
                         _______ _______ _______ _____ _____    ______ ____

>  <TORSDO>
F 5

$$$$
=
 OpenBabel11062409283D

 34 38  0  0  1  0  0  0  0  0999 V2000
  160.8520  210.4400  153.2150 C   0  0  0  0  0  0  0  0  0  0  0  0
  159.4910  213.2230  151.0360 C   0  0  0  0  0  2  0  0  0  0  0  0
  160.7190  212.4470  147.9060 C   0  0  0  0  0  0  0  0  0  0  0  0
  159.2030  212.7090  153.4090 N   0  0  0  0  0  0  0  0  0  0  0  0
  160.2690  209.9620  155.6290 C   0  0  0  0  0  3  0  0  0  0  0  0
  158.4070  211.2570  156.5370 C   0  0  0  0  0  3  0  0  0  0  0  0
  161.1200  211.4510  147.2460 O   0  0  0  0  0  0  0  0  0  0  0  0
  159.3140  210.0920  156.5510 C   0  0  0  0  0  3  0  0  0  0  0  0
  159.3680  211.9970  154.4840 C   0  0  0  0  0  0  0  0  0  0  0  0
  160.5260  211.0220  154.5810 C   0  0  2  0  0  3  0  0  0  0  0  0
  158.4390  212.1210  155.5670 N   0  0  0  0  0  0  0  0  0  0  0  0
  160.5610  213.7120  150.0680 C   0  0  0  0  0  2  0  0  0  0  0  0
  159.8870  213.4130  147.2710 N   0  0  0  0  0  1  0  0  0  0  0  0
  161.0930  212.6030  149.2840 N   0  0  0  0  0  0  0  0  0  0  0  0
  161.8820  211.5730  149.9500 C   0  0  0  0  0  2  0  0  0  0  0  0
  160.1330  212.6250  152.2830 C   0  0  1  0  0  3  0  0  0  0  0  0
  160.9590  210.6510  150.7320 C   0  0  0  0  0  2  0  0  0  0  0  0
  160.6530  211.2030  152.1050 C   0  0  0  0  0  0  0  0  0  0  0  0
  161.5070  209.0870  153.1200 C   0  0  0  0  0  2  0  0  0  0  0  0
  160.4900  208.0450  153.0900 N   0  0  0  0  0  2  0  0  0  0  0  0
  161.1790  206.7760  153.2610 C   0  0  0  0  0  2  0  0  0  0  0  0
  161.2170  203.9620  150.7200 C   0  0  0  0  0  3  0  0  0  0  0  0
  161.2300  206.7720  150.7550 C   0  0  0  0  0  3  0  0  0  0  0  0
  161.2100  204.7080  147.0820 C   0  0  0  0  0  0  0  0  0  0  0  0
  161.2130  203.9940  148.2940 C   0  0  0  0  0  3  0  0  0  0  0  0
  161.2210  204.6750  149.5150 C   0  0  0  0  0  0  0  0  0  0  0  0
  161.2220  206.8010  148.3290 C   0  0  0  0  0  3  0  0  0  0  0  0
  161.2260  206.0920  149.5320 C   0  0  0  0  0  0  0  0  0  0  0  0
  161.2140  206.1120  147.1110 C   0  0  0  0  0  3  0  0  0  0  0  0
  161.2290  206.0530  151.9590 C   0  0  0  0  0  0  0  0  0  0  0  0
  161.2160  204.6500  151.9390 C   0  0  0  0  0  3  0  0  0  0  0  0
  161.2060  203.9900  145.7920 C   0  0  0  0  0  0  0  0  0  0  0  0
  160.9720  202.7520  145.7560 O   0  0  0  0  0  0  0  0  0  0  0  0
  161.4810  204.7040  144.5090 C   0  0  0  0  0  1  0  0  0  0  0  0
  1 10  1  0  0  0  0
  3 14  1  0  0  0  0
  4  9  2  0  0  0  0
  5  8  2  0  0  0  0
  6  8  1  0  0  0  0
  7  3  2  0  0  0  0
  9 10  1  0  0  0  0
  9 11  1  0  0  0  0
 10  5  1  1  0  0  0
 11  6  2  0  0  0  0
 12  2  1  0  0  0  0
 13  3  1  0  0  0  0
 14 15  1  0  0  0  0
 14 12  1  0  0  0  0
 15 17  1  0  0  0  0
 16  2  1  6  0  0  0
 16  4  1  0  0  0  0
 17 18  1  0  0  0  0
 18 16  1  0  0  0  0
 18  1  2  0  0  0  0
 19  1  1  0  0  0  0
 20 19  1  0  0  0  0
 20 21  1  0  0  0  0
 22 31  1  0  0  0  0
 23 30  1  0  0  0  0
 24 29  1  0  0  0  0
 24 25  2  0  0  0  0
 25 26  1  0  0  0  0
 26 28  1  0  0  0  0
 26 22  2  0  0  0  0
 27 28  1  0  0  0  0
 28 23  2  0  0  0  0
 29 27  2  0  0  0  0
 30 21  1  0  0  0  0
 31 30  2  0  0  0  0
 32 24  1  0  0  0  0
 33 32  2  0  0  0  0
 34 32  1  0  0  0  0
M  END
>  <MODEL>
8

>  <REMARK>
 VINA RESULT:      -8.1      2.096      3.186
  Name = 
  5 active torsions:
  status: ('A' for Active; 'I' for Inactive)
    1  A    between atoms: C_1  and  C_9
    2  A    between atoms: C_7  and  C_11
    3  A    between atoms: N_8  and  C_9
    4  A    between atoms: N_8  and  C_18
    5  A    between atoms: C_18  and  C_30
                            x       y       z     vdW  Elec       q    Type
                         _______ _______ _______ _____ _____    ______ ____

>  <TORSDO>
F 5

$$$$
=
 OpenBabel11062409283D

 34 38  0  0  1  0  0  0  0  0999 V2000
  160.7050  209.3910  152.5190 C   0  0  0  0  0  0  0  0  0  0  0  0
  159.0350  211.0450  155.4880 C   0  0  0  0  0  2  0  0  0  0  0  0
  157.7850  213.9740  154.1600 C   0  0  0  0  0  0  0  0  0  0  0  0
  160.1800  208.8990  155.2380 N   0  0  0  0  0  0  0  0  0  0  0  0
  161.6680  207.0540  152.4100 C   0  0  0  0  0  3  0  0  0  0  0  0
  161.1880  205.6280  154.3350 C   0  0  0  0  0  3  0  0  0  0  0  0
  157.4170  214.4520  153.0550 O   0  0  0  0  0  0  0  0  0  0  0  0
  161.5730  205.8270  152.9230 C   0  0  0  0  0  3  0  0  0  0  0  0
  160.7960  207.9690  154.5710 C   0  0  0  0  0  0  0  0  0  0  0  0
  161.4670  208.2960  153.2490 C   0  0  2  0  0  3  0  0  0  0  0  0
  160.8210  206.6300  155.0770 N   0  0  0  0  0  0  0  0  0  0  0  0
  159.3410  212.5360  155.5070 C   0  0  0  0  0  2  0  0  0  0  0  0
  157.0160  214.2480  155.3280 N   0  0  0  0  0  1  0  0  0  0  0  0
  158.9640  213.1570  154.2420 N   0  0  0  0  0  0  0  0  0  0  0  0
  159.7040  212.8170  153.0330 C   0  0  0  0  0  2  0  0  0  0  0  0
  160.1400  210.2820  154.7650 C   0  0  1  0  0  3  0  0  0  0  0  0
  159.2820  211.4380  152.5480 C   0  0  0  0  0  2  0  0  0  0  0  0
  160.0550  210.3420  153.2430 C   0  0  0  0  0  0  0  0  0  0  0  0
  160.7890  209.4800  151.0170 C   0  0  0  0  0  2  0  0  0  0  0  0
  161.9920  208.8060  150.5470 N   0  0  0  0  0  2  0  0  0  0  0  0
  161.9620  208.8540  149.0940 C   0  0  0  0  0  2  0  0  0  0  0  0
  162.2550  205.8840  146.7550 C   0  0  0  0  0  3  0  0  0  0  0  0
  161.3200  206.4440  149.3450 C   0  0  0  0  0  3  0  0  0  0  0  0
  161.1450  202.5120  147.8440 C   0  0  0  0  0  0  0  0  0  0  0  0
  161.6690  203.5490  147.0510 C   0  0  0  0  0  3  0  0  0  0  0  0
  161.7270  204.8550  147.5450 C   0  0  0  0  0  0  0  0  0  0  0  0
  160.7380  204.1070  149.6400 C   0  0  0  0  0  3  0  0  0  0  0  0
  161.2570  205.1370  148.8510 C   0  0  0  0  0  0  0  0  0  0  0  0
  160.6830  202.8020  149.1380 C   0  0  0  0  0  3  0  0  0  0  0  0
  161.8460  207.4720  148.5500 C   0  0  0  0  0  0  0  0  0  0  0  0
  162.3190  207.1890  147.2590 C   0  0  0  0  0  3  0  0  0  0  0  0
  161.0790  201.1320  147.3220 C   0  0  0  0  0  0  0  0  0  0  0  0
  161.5870  200.1820  147.9770 O   0  0  0  0  0  0  0  0  0  0  0  0
  160.4180  200.8300  146.0170 C   0  0  0  0  0  1  0  0  0  0  0  0
  1 18  2  0  0  0  0
  1 10  1  0  0  0  0
  2 12  1  0  0  0  0
  3 14  1  0  0  0  0
  3 13  1  0  0  0  0
  5  8  2  0  0  0  0
  6 11  2  0  0  0  0
  7  3  2  0  0  0  0
  8  6  1  0  0  0  0
  9 11  1  0  0  0  0
  9  4  2  0  0  0  0
 10  5  1  6  0  0  0
 10  9  1  0  0  0  0
 14 12  1  0  0  0  0
 15 14  1  0  0  0  0
 16  4  1  0  0  0  0
 16  2  1  1  0  0  0
 17 15  1  0  0  0  0
 17 18  1  0  0  0  0
 18 16  1  0  0  0  0
 19  1  1  0  0  0  0
 20 19  1  0  0  0  0
 21 20  1  0  0  0  0
 22 31  2  0  0  0  0
 22 26  1  0  0  0  0
 24 29  1  0  0  0  0
 25 26  1  0  0  0  0
 25 24  2  0  0  0  0
 26 28  2  0  0  0  0
 28 23  1  0  0  0  0
 28 27  1  0  0  0  0
 29 27  2  0  0  0  0
 30 21  1  0  0  0  0
 30 23  2  0  0  0  0
 31 30  1  0  0  0  0
 32 24  1  0  0  0  0
 32 33  2  0  0  0  0
 34 32  1  0  0  0  0
M  END
>  <MODEL>
9

>  <REMARK>
 VINA RESULT:      -7.9      1.817      2.462
  Name = 
  5 active torsions:
  status: ('A' for Active; 'I' for Inactive)
    1  A    between atoms: C_1  and  C_9
    2  A    between atoms: C_7  and  C_11
    3  A    between atoms: N_8  and  C_9
    4  A    between atoms: N_8  and  C_18
    5  A    between atoms: C_18  and  C_30
                            x       y       z     vdW  Elec       q    Type
                         _______ _______ _______ _____ _____    ______ ____

>  <TORSDO>
F 5

$$$$
