=
 OpenBabel11062408253D

 32 36  0  0  1  0  0  0  0  0999 V2000
  162.1750  207.9900  150.1350 C   0  0  0  0  0  0  0  0  0  0  0  0
  161.7560  209.2870  152.2490 C   0  0  0  0  0  0  0  0  0  0  0  0
  162.2330  208.1310  148.6290 C   0  0  0  0  0  2  0  0  0  0  0  0
  162.2420  209.2500  150.8900 N   0  0  0  0  0  0  0  0  0  0  0  0
  161.6530  210.5150  152.9170 C   0  0  0  0  0  3  0  0  0  0  0  0
  159.9680  207.0960  156.2210 C   0  0  0  0  0  3  0  0  0  0  0  0
  161.3440  208.1010  152.9040 C   0  0  0  0  0  0  0  0  0  0  0  0
  160.2810  209.4970  156.1880 C   0  0  0  0  0  3  0  0  0  0  0  0
  160.7650  209.4190  154.8780 C   0  0  0  0  0  0  0  0  0  0  0  0
  161.1640  210.5820  154.2210 C   0  0  0  0  0  3  0  0  0  0  0  0
  161.4930  206.7680  152.2160 C   0  0  0  0  0  2  0  0  0  0  0  0
  161.2700  206.8890  150.7090 C   0  0  2  0  0  3  0  0  0  0  0  0
  160.8560  208.1670  154.2260 C   0  0  0  0  0  0  0  0  0  0  0  0
  163.4460  207.6130  149.4030 C   0  0  0  0  0  2  0  0  0  0  0  0
  159.8820  208.3370  156.8570 C   0  0  0  0  0  3  0  0  0  0  0  0
  160.4520  207.0110  154.9130 C   0  0  0  0  0  3  0  0  0  0  0  0
  160.7350  204.4120  147.7580 C   0  0  1  0  0  3  0  0  0  0  0  0
  160.9660  201.1730  149.0420 C   0  0  0  0  0  1  0  0  0  0  0  0
  161.4410  205.0080  146.7270 F   0  0  0  0  0  0  0  0  0  0  0  0
  160.9100  203.0960  150.5860 C   0  0  0  0  0  3  0  0  0  0  0  0
  161.3220  205.5300  149.9830 C   0  0  1  0  0  3  0  0  0  0  0  0
  161.5150  203.3700  148.2970 O   0  0  0  0  0  0  0  0  0  0  0  0
  161.1510  204.3680  150.9440 C   0  0  0  0  0  3  0  0  0  0  0  0
  160.3290  205.4670  148.8110 C   0  0  1  0  0  3  0  0  0  0  0  0
  160.1680  206.7040  148.2060 F   0  0  0  0  0  0  0  0  0  0  0  0
  160.6830  202.6560  149.1670 C   0  0  1  0  0  3  0  0  0  0  0  0
  162.5660  210.4130  150.2570 O   0  0  0  0  0  0  0  0  0  0  0  0
  161.3790  210.8720  149.6650 C   0  0  1  0  0  3  0  0  0  0  0  0
  160.8520  211.9220  150.4190 O   0  0  0  0  0  1  0  0  0  0  0  0
  161.6320  211.3270  148.2320 C   0  0  0  0  0  2  0  0  0  0  0  0
  162.7390  213.4680  147.8160 C   0  0  0  0  0  2  0  0  0  0  0  0
  162.8530  212.1810  148.1280 C   0  0  0  0  0  3  0  0  0  0  0  0
  1 12  1  0  0  0  0
  1  4  1  0  0  0  0
  2  7  2  0  0  0  0
  2  5  1  0  0  0  0
  3 14  1  0  0  0  0
  3  1  1  0  0  0  0
  4  2  1  0  0  0  0
  5 10  2  0  0  0  0
  6 15  1  0  0  0  0
  7 13  1  0  0  0  0
  8 15  2  0  0  0  0
  9  8  1  0  0  0  0
 10  9  1  0  0  0  0
 11  7  1  0  0  0  0
 12 11  1  1  0  0  0
 13  9  2  0  0  0  0
 13 16  1  0  0  0  0
 14  1  1  0  0  0  0
 16  6  2  0  0  0  0
 17 19  1  6  0  0  0
 17 22  1  0  0  0  0
 17 24  1  0  0  0  0
 20 23  2  0  0  0  0
 21 12  1  0  0  0  0
 21 23  1  1  0  0  0
 22 26  1  0  0  0  0
 24 25  1  6  0  0  0
 24 21  1  0  0  0  0
 26 18  1  1  0  0  0
 26 20  1  0  0  0  0
 27  4  1  0  0  0  0
 28 27  1  0  0  0  0
 28 29  1  1  0  0  0
 30 28  1  0  0  0  0
 31 32  2  0  0  0  0
 32 30  1  0  0  0  0
M  END
>  <MODEL>
1

>  <REMARK>
 VINA RESULT:      -8.1      0.000      0.000
  Name = 
  5 active torsions:
  status: ('A' for Active; 'I' for Inactive)
    1  A    between atoms: N_5  and  O_14
    2  A    between atoms: C_13  and  C_18
    3  A    between atoms: C_13  and  C_29
    4  A    between atoms: O_14  and  C_18
    5  A    between atoms: C_16  and  C_27
                            x       y       z     vdW  Elec       q    Type
                         _______ _______ _______ _____ _____    ______ ____

>  <TORSDO>
F 5

$$$$
=
 OpenBabel11062408253D

 32 36  0  0  1  0  0  0  0  0999 V2000
  161.3760  209.6650  153.4630 C   0  0  0  0  0  0  0  0  0  0  0  0
  161.3250  207.1640  153.2070 C   0  0  0  0  0  0  0  0  0  0  0  0
  161.0270  210.7840  154.4230 C   0  0  0  0  0  2  0  0  0  0  0  0
  161.4500  208.3230  154.0580 N   0  0  0  0  0  0  0  0  0  0  0  0
  161.2180  205.8880  153.7780 C   0  0  0  0  0  3  0  0  0  0  0  0
  160.9450  205.1050  148.8030 C   0  0  0  0  0  3  0  0  0  0  0  0
  161.2700  207.3030  151.7980 C   0  0  0  0  0  0  0  0  0  0  0  0
  160.8870  203.7360  150.7990 C   0  0  0  0  0  3  0  0  0  0  0  0
  161.0280  204.8790  151.5920 C   0  0  0  0  0  0  0  0  0  0  0  0
  161.0730  204.7550  152.9790 C   0  0  0  0  0  3  0  0  0  0  0  0
  161.4320  208.6620  151.1660 C   0  0  0  0  0  2  0  0  0  0  0  0
  160.8170  209.7580  152.0350 C   0  0  2  0  0  3  0  0  0  0  0  0
  161.1310  206.1560  150.9880 C   0  0  0  0  0  0  0  0  0  0  0  0
  162.4600  210.6240  153.9110 C   0  0  0  0  0  2  0  0  0  0  0  0
  160.8450  203.8490  149.4080 C   0  0  0  0  0  3  0  0  0  0  0  0
  161.0870  206.2520  149.5880 C   0  0  0  0  0  3  0  0  0  0  0  0
  159.5810  213.3480  151.1880 C   0  0  1  0  0  3  0  0  0  0  0  0
  161.3780  214.4530  148.4050 C   0  0  0  0  0  1  0  0  0  0  0  0
  159.4410  213.9250  152.4380 F   0  0  0  0  0  0  0  0  0  0  0  0
  161.5710  212.1030  149.1260 C   0  0  0  0  0  3  0  0  0  0  0  0
  160.8790  211.1510  151.3780 C   0  0  1  0  0  3  0  0  0  0  0  0
  160.7910  213.7900  150.6180 O   0  0  0  0  0  0  0  0  0  0  0  0
  161.5790  211.1110  150.0320 C   0  0  0  0  0  3  0  0  0  0  0  0
  159.4920  211.8090  151.2940 C   0  0  1  0  0  3  0  0  0  0  0  0
  158.6880  211.4530  152.3670 F   0  0  0  0  0  0  0  0  0  0  0  0
  160.7820  213.3720  149.2830 C   0  0  1  0  0  3  0  0  0  0  0  0
  161.4290  208.1700  155.4120 O   0  0  0  0  0  0  0  0  0  0  0  0
  160.1260  208.5000  155.8170 C   0  0  1  0  0  3  0  0  0  0  0  0
  159.3080  207.3720  155.7390 O   0  0  0  0  0  1  0  0  0  0  0  0
  160.1270  209.0530  157.2380 C   0  0  0  0  0  2  0  0  0  0  0  0
  158.6580  211.0060  157.1490 C   0  0  0  0  0  2  0  0  0  0  0  0
  159.8920  210.5280  157.2610 C   0  0  0  0  0  3  0  0  0  0  0  0
  1 14  1  0  0  0  0
  1  4  1  0  0  0  0
  1  3  1  0  0  0  0
  2  5  1  0  0  0  0
  2  4  1  0  0  0  0
  4 27  1  0  0  0  0
  6 15  2  0  0  0  0
  6 16  1  0  0  0  0
  7  2  2  0  0  0  0
  8  9  2  0  0  0  0
  9 10  1  0  0  0  0
 10  5  2  0  0  0  0
 11  7  1  0  0  0  0
 12 11  1  6  0  0  0
 12  1  1  0  0  0  0
 13  9  1  0  0  0  0
 13  7  1  0  0  0  0
 14  3  1  0  0  0  0
 15  8  1  0  0  0  0
 16 13  2  0  0  0  0
 17 24  1  0  0  0  0
 17 19  1  1  0  0  0
 20 26  1  0  0  0  0
 20 23  2  0  0  0  0
 21 23  1  6  0  0  0
 21 12  1  0  0  0  0
 22 17  1  0  0  0  0
 24 21  1  0  0  0  0
 24 25  1  1  0  0  0
 26 18  1  6  0  0  0
 26 22  1  0  0  0  0
 27 28  1  0  0  0  0
 28 29  1  1  0  0  0
 28 30  1  0  0  0  0
 30 32  1  0  0  0  0
 31 32  2  0  0  0  0
M  END
>  <MODEL>
2

>  <REMARK>
 VINA RESULT:      -7.5      2.946      7.383
  Name = 
  5 active torsions:
  status: ('A' for Active; 'I' for Inactive)
    1  A    between atoms: N_5  and  O_14
    2  A    between atoms: C_13  and  C_18
    3  A    between atoms: C_13  and  C_29
    4  A    between atoms: O_14  and  C_18
    5  A    between atoms: C_16  and  C_27
                            x       y       z     vdW  Elec       q    Type
                         _______ _______ _______ _____ _____    ______ ____

>  <TORSDO>
F 5

$$$$
=
 OpenBabel11062408253D

 32 36  0  0  1  0  0  0  0  0999 V2000
  161.9110  207.9000  150.2290 C   0  0  0  0  0  0  0  0  0  0  0  0
  161.7540  209.2380  152.3530 C   0  0  0  0  0  0  0  0  0  0  0  0
  161.9060  208.0320  148.7210 C   0  0  0  0  0  2  0  0  0  0  0  0
  162.1610  209.1440  150.9710 N   0  0  0  0  0  0  0  0  0  0  0  0
  161.8270  210.4710  153.0170 C   0  0  0  0  0  3  0  0  0  0  0  0
  159.9360  207.2700  156.4260 C   0  0  0  0  0  3  0  0  0  0  0  0
  161.2430  208.1070  153.0360 C   0  0  0  0  0  0  0  0  0  0  0  0
  160.5190  209.6190  156.3610 C   0  0  0  0  0  3  0  0  0  0  0  0
  160.9230  209.4850  155.0290 C   0  0  0  0  0  0  0  0  0  0  0  0
  161.4170  210.5940  154.3440 C   0  0  0  0  0  3  0  0  0  0  0  0
  161.2030  206.7660  152.3500 C   0  0  0  0  0  2  0  0  0  0  0  0
  160.9170  206.9100  150.8570 C   0  0  2  0  0  3  0  0  0  0  0  0
  160.8350  208.2300  154.3810 C   0  0  0  0  0  0  0  0  0  0  0  0
  163.0910  207.3800  149.4350 C   0  0  0  0  0  2  0  0  0  0  0  0
  160.0260  208.5130  157.0580 C   0  0  0  0  0  3  0  0  0  0  0  0
  160.3380  207.1280  155.0960 C   0  0  0  0  0  3  0  0  0  0  0  0
  161.2160  203.0530  150.4510 C   0  0  1  0  0  3  0  0  0  0  0  0
  160.9010  202.3220  147.0510 C   0  0  0  0  0  1  0  0  0  0  0  0
  160.4920  202.5750  151.5300 F   0  0  0  0  0  0  0  0  0  0  0  0
  161.1070  204.6690  147.7790 C   0  0  0  0  0  3  0  0  0  0  0  0
  160.7750  205.5540  150.1380 C   0  0  1  0  0  3  0  0  0  0  0  0
  160.4160  202.9640  149.2950 O   0  0  0  0  0  0  0  0  0  0  0  0
  160.9370  205.6900  148.6350 C   0  0  0  0  0  3  0  0  0  0  0  0
  161.7120  204.4890  150.7310 C   0  0  1  0  0  3  0  0  0  0  0  0
  161.9000  204.6690  152.0930 F   0  0  0  0  0  0  0  0  0  0  0  0
  161.2530  203.2360  148.2070 C   0  0  1  0  0  3  0  0  0  0  0  0
  162.5820  210.2620  150.3150 O   0  0  0  0  0  0  0  0  0  0  0  0
  161.4350  210.8200  149.7300 C   0  0  1  0  0  3  0  0  0  0  0  0
  160.9850  211.8920  150.5030 O   0  0  0  0  0  1  0  0  0  0  0  0
  161.7260  211.2840  148.3060 C   0  0  0  0  0  2  0  0  0  0  0  0
  162.5810  213.5220  147.8150 C   0  0  0  0  0  2  0  0  0  0  0  0
  162.8240  212.2960  148.2660 C   0  0  0  0  0  3  0  0  0  0  0  0
  1 12  1  0  0  0  0
  1  4  1  0  0  0  0
  2  5  2  0  0  0  0
  2  7  1  0  0  0  0
  3 14  1  0  0  0  0
  3  1  1  0  0  0  0
  4  2  1  0  0  0  0
  5 10  1  0  0  0  0
  6 15  1  0  0  0  0
  7 13  2  0  0  0  0
  8 15  2  0  0  0  0
  9  8  1  0  0  0  0
 10  9  2  0  0  0  0
 11  7  1  0  0  0  0
 12 11  1  1  0  0  0
 13  9  1  0  0  0  0
 13 16  1  0  0  0  0
 14  1  1  0  0  0  0
 16  6  2  0  0  0  0
 17 24  1  0  0  0  0
 17 19  1  1  0  0  0
 20 26  1  0  0  0  0
 20 23  2  0  0  0  0
 21 23  1  6  0  0  0
 21 24  1  0  0  0  0
 21 12  1  0  0  0  0
 22 17  1  0  0  0  0
 24 25  1  1  0  0  0
 26 18  1  6  0  0  0
 26 22  1  0  0  0  0
 27  4  1  0  0  0  0
 28 27  1  0  0  0  0
 28 29  1  1  0  0  0
 30 28  1  0  0  0  0
 31 32  2  0  0  0  0
 32 30  1  0  0  0  0
M  END
>  <MODEL>
3

>  <REMARK>
 VINA RESULT:      -6.9      1.405      1.736
  Name = 
  5 active torsions:
  status: ('A' for Active; 'I' for Inactive)
    1  A    between atoms: N_5  and  O_14
    2  A    between atoms: C_13  and  C_18
    3  A    between atoms: C_13  and  C_29
    4  A    between atoms: O_14  and  C_18
    5  A    between atoms: C_16  and  C_27
                            x       y       z     vdW  Elec       q    Type
                         _______ _______ _______ _____ _____    ______ ____

>  <TORSDO>
F 5

$$$$
=
 OpenBabel11062408253D

 32 36  0  0  1  0  0  0  0  0999 V2000
  161.8380  209.5970  150.9140 C   0  0  0  0  0  0  0  0  0  0  0  0
  161.8990  207.8020  149.1530 C   0  0  0  0  0  0  0  0  0  0  0  0
  162.5150  210.8800  151.3470 C   0  0  0  0  0  2  0  0  0  0  0  0
  162.1020  209.1810  149.5280 N   0  0  0  0  0  0  0  0  0  0  0  0
  162.3130  207.3570  147.8890 C   0  0  0  0  0  3  0  0  0  0  0  0
  160.4110  203.2660  150.1460 C   0  0  0  0  0  3  0  0  0  0  0  0
  161.3220  206.8810  150.0610 C   0  0  0  0  0  0  0  0  0  0  0  0
  161.4110  203.7800  148.0020 C   0  0  0  0  0  3  0  0  0  0  0  0
  161.5740  205.1130  148.3930 C   0  0  0  0  0  0  0  0  0  0  0  0
  162.1500  206.0250  147.5100 C   0  0  0  0  0  3  0  0  0  0  0  0
  160.8300  207.3540  151.4050 C   0  0  0  0  0  2  0  0  0  0  0  0
  161.7070  208.4770  151.9580 C   0  0  2  0  0  3  0  0  0  0  0  0
  161.1510  205.5350  149.6760 C   0  0  0  0  0  0  0  0  0  0  0  0
  161.0130  210.8590  151.0560 C   0  0  0  0  0  2  0  0  0  0  0  0
  160.8310  202.8590  148.8770 C   0  0  0  0  0  3  0  0  0  0  0  0
  160.5690  204.5960  150.5440 C   0  0  0  0  0  3  0  0  0  0  0  0
  161.0890  208.0690  155.7760 C   0  0  1  0  0  3  0  0  0  0  0  0
  159.0380  210.7030  156.8010 C   0  0  0  0  0  1  0  0  0  0  0  0
  162.3310  207.6800  156.2470 F   0  0  0  0  0  0  0  0  0  0  0  0
  159.4450  210.3390  154.3960 C   0  0  0  0  0  3  0  0  0  0  0  0
  161.2900  208.9230  153.3730 C   0  0  1  0  0  3  0  0  0  0  0  0
  160.9130  209.4410  156.0440 O   0  0  0  0  0  0  0  0  0  0  0  0
  160.1740  209.9510  153.3370 C   0  0  0  0  0  3  0  0  0  0  0  0
  160.9510  207.7260  154.2760 C   0  0  1  0  0  3  0  0  0  0  0  0
  161.7230  206.6160  153.9700 F   0  0  0  0  0  0  0  0  0  0  0  0
  159.5740  209.7350  155.7660 C   0  0  1  0  0  3  0  0  0  0  0  0
  162.7240  210.0310  148.6630 O   0  0  0  0  0  0  0  0  0  0  0  0
  161.9130  211.1740  148.5970 C   0  0  1  0  0  3  0  0  0  0  0  0
  162.7110  212.3090  148.4420 O   0  0  0  0  0  1  0  0  0  0  0  0
  160.9210  211.0660  147.4440 C   0  0  0  0  0  2  0  0  0  0  0  0
  160.0490  212.5770  145.7300 C   0  0  0  0  0  2  0  0  0  0  0  0
  160.4570  212.4100  146.9830 C   0  0  0  0  0  3  0  0  0  0  0  0
  1 14  1  0  0  0  0
  1  3  1  0  0  0  0
  1 12  1  0  0  0  0
  2  4  1  0  0  0  0
  2  7  1  0  0  0  0
  4  1  1  0  0  0  0
  5  2  2  0  0  0  0
  6 16  2  0  0  0  0
  7 11  1  0  0  0  0
  8  9  1  0  0  0  0
  8 15  2  0  0  0  0
  9 13  1  0  0  0  0
 10  5  1  0  0  0  0
 10  9  2  0  0  0  0
 12 11  1  6  0  0  0
 12 21  1  0  0  0  0
 13  7  2  0  0  0  0
 13 16  1  0  0  0  0
 14  3  1  0  0  0  0
 15  6  1  0  0  0  0
 17 22  1  0  0  0  0
 17 19  1  6  0  0  0
 20 26  1  0  0  0  0
 21 23  1  6  0  0  0
 21 24  1  0  0  0  0
 23 20  2  0  0  0  0
 24 25  1  6  0  0  0
 24 17  1  0  0  0  0
 26 22  1  0  0  0  0
 26 18  1  1  0  0  0
 27  4  1  0  0  0  0
 28 29  1  6  0  0  0
 28 27  1  0  0  0  0
 30 28  1  0  0  0  0
 31 32  2  0  0  0  0
 32 30  1  0  0  0  0
M  END
>  <MODEL>
4

>  <REMARK>
 VINA RESULT:      -6.4      2.515      6.341
  Name = 
  5 active torsions:
  status: ('A' for Active; 'I' for Inactive)
    1  A    between atoms: N_5  and  O_14
    2  A    between atoms: C_13  and  C_18
    3  A    between atoms: C_13  and  C_29
    4  A    between atoms: O_14  and  C_18
    5  A    between atoms: C_16  and  C_27
                            x       y       z     vdW  Elec       q    Type
                         _______ _______ _______ _____ _____    ______ ____

>  <TORSDO>
F 5

$$$$
=
 OpenBabel11062408253D

 32 36  0  0  1  0  0  0  0  0999 V2000
  161.9090  209.1690  149.4950 C   0  0  0  0  0  0  0  0  0  0  0  0
  161.4580  208.9340  151.9580 C   0  0  0  0  0  0  0  0  0  0  0  0
  162.7880  208.6470  148.3780 C   0  0  0  0  0  2  0  0  0  0  0  0
  161.8730  208.3400  150.7090 N   0  0  0  0  0  0  0  0  0  0  0  0
  161.5860  208.2070  153.1500 C   0  0  0  0  0  3  0  0  0  0  0  0
  159.6930  212.6680  154.5500 C   0  0  0  0  0  3  0  0  0  0  0  0
  160.9590  210.2590  152.0000 C   0  0  0  0  0  0  0  0  0  0  0  0
  160.3390  210.6130  155.6550 C   0  0  0  0  0  3  0  0  0  0  0  0
  160.7130  210.0650  154.4240 C   0  0  0  0  0  0  0  0  0  0  0  0
  161.2150  208.7650  154.3730 C   0  0  0  0  0  3  0  0  0  0  0  0
  160.7710  211.0360  150.7230 C   0  0  0  0  0  2  0  0  0  0  0  0
  161.8480  210.6910  149.6960 C   0  0  2  0  0  3  0  0  0  0  0  0
  160.5770  210.8220  153.2360 C   0  0  0  0  0  0  0  0  0  0  0  0
  161.2650  208.5450  148.2750 C   0  0  0  0  0  2  0  0  0  0  0  0
  159.8310  211.9130  155.7170 C   0  0  0  0  0  3  0  0  0  0  0  0
  160.0630  212.1270  153.3160 C   0  0  0  0  0  3  0  0  0  0  0  0
  163.1460  212.9850  146.8340 C   0  0  1  0  0  3  0  0  0  0  0  0
  160.3640  214.4490  145.3130 C   0  0  0  0  0  1  0  0  0  0  0  0
  164.1660  212.2320  146.2780 F   0  0  0  0  0  0  0  0  0  0  0  0
  160.0780  213.1630  147.3970 C   0  0  0  0  0  3  0  0  0  0  0  0
  161.7450  211.5350  148.4100 C   0  0  1  0  0  3  0  0  0  0  0  0
  162.0010  212.8670  146.0210 O   0  0  0  0  0  0  0  0  0  0  0  0
  160.3820  212.1880  148.2700 C   0  0  0  0  0  3  0  0  0  0  0  0
  162.8930  212.5510  148.2960 C   0  0  1  0  0  3  0  0  0  0  0  0
  164.0660  212.0670  148.8560 F   0  0  0  0  0  0  0  0  0  0  0  0
  161.0810  213.8130  146.4860 C   0  0  1  0  0  3  0  0  0  0  0  0
  162.4170  207.0910  150.7040 O   0  0  0  0  0  0  0  0  0  0  0  0
  161.3360  206.2010  150.7950 C   0  0  1  0  0  3  0  0  0  0  0  0
  161.0610  205.6630  149.5360 O   0  0  0  0  0  1  0  0  0  0  0  0
  161.6380  205.0850  151.7900 C   0  0  0  0  0  2  0  0  0  0  0  0
  161.2740  202.7060  151.3530 C   0  0  0  0  0  2  0  0  0  0  0  0
  160.7470  203.9030  151.5860 C   0  0  0  0  0  3  0  0  0  0  0  0
  1 12  1  0  0  0  0
  1  4  1  0  0  0  0
  2  7  2  0  0  0  0
  2  5  1  0  0  0  0
  3  1  1  0  0  0  0
  4  2  1  0  0  0  0
  5 10  2  0  0  0  0
  6 15  1  0  0  0  0
  7 13  1  0  0  0  0
  8 15  2  0  0  0  0
  9  8  1  0  0  0  0
 10  9  1  0  0  0  0
 11  7  1  0  0  0  0
 12 11  1  1  0  0  0
 13 16  1  0  0  0  0
 13  9  2  0  0  0  0
 14  3  1  0  0  0  0
 14  1  1  0  0  0  0
 16  6  2  0  0  0  0
 17 19  1  6  0  0  0
 17 24  1  0  0  0  0
 20 23  2  0  0  0  0
 21 23  1  1  0  0  0
 21 12  1  0  0  0  0
 22 26  1  0  0  0  0
 22 17  1  0  0  0  0
 24 21  1  0  0  0  0
 24 25  1  6  0  0  0
 26 18  1  6  0  0  0
 26 20  1  0  0  0  0
 27  4  1  0  0  0  0
 27 28  1  0  0  0  0
 28 29  1  6  0  0  0
 28 30  1  0  0  0  0
 31 32  2  0  0  0  0
 32 30  1  0  0  0  0
M  END
>  <MODEL>
5

>  <REMARK>
 VINA RESULT:      -5.8      2.574      6.542
  Name = 
  5 active torsions:
  status: ('A' for Active; 'I' for Inactive)
    1  A    between atoms: N_5  and  O_14
    2  A    between atoms: C_13  and  C_18
    3  A    between atoms: C_13  and  C_29
    4  A    between atoms: O_14  and  C_18
    5  A    between atoms: C_16  and  C_27
                            x       y       z     vdW  Elec       q    Type
                         _______ _______ _______ _____ _____    ______ ____

>  <TORSDO>
F 5

$$$$
=
 OpenBabel11062408253D

 32 36  0  0  1  0  0  0  0  0999 V2000
  160.8640  210.0070  153.0560 C   0  0  0  0  0  0  0  0  0  0  0  0
  161.6980  210.3850  150.7130 C   0  0  0  0  0  0  0  0  0  0  0  0
  160.4880  208.9170  154.0370 C   0  0  0  0  0  2  0  0  0  0  0  0
  161.6660  209.5680  151.9030 N   0  0  0  0  0  0  0  0  0  0  0  0
  162.3110  209.8960  149.5510 C   0  0  0  0  0  3  0  0  0  0  0  0
  160.5600  214.4510  148.2760 C   0  0  0  0  0  3  0  0  0  0  0  0
  161.0810  211.6600  150.6920 C   0  0  0  0  0  0  0  0  0  0  0  0
  161.7740  212.6690  147.1760 C   0  0  0  0  0  3  0  0  0  0  0  0
  161.7400  211.9150  148.3530 C   0  0  0  0  0  0  0  0  0  0  0  0
  162.3350  210.6540  148.3810 C   0  0  0  0  0  3  0  0  0  0  0  0
  160.4580  212.2180  151.9460 C   0  0  0  0  0  2  0  0  0  0  0  0
  159.8320  211.1150  152.7980 C   0  0  2  0  0  3  0  0  0  0  0  0
  161.1110  212.4300  149.5110 C   0  0  0  0  0  0  0  0  0  0  0  0
  161.5730  209.9350  154.3920 C   0  0  0  0  0  2  0  0  0  0  0  0
  161.1840  213.9340  147.1380 C   0  0  0  0  0  3  0  0  0  0  0  0
  160.5230  213.7050  149.4560 C   0  0  0  0  0  3  0  0  0  0  0  0
  156.8290  211.6350  155.2150 C   0  0  1  0  0  3  0  0  0  0  0  0
  157.5810  214.3640  157.2610 C   0  0  0  0  0  1  0  0  0  0  0  0
  156.4860  210.3390  155.5590 F   0  0  0  0  0  0  0  0  0  0  0  0
  159.0370  213.8420  155.3400 C   0  0  0  0  0  3  0  0  0  0  0  0
  159.1040  211.6580  154.0430 C   0  0  1  0  0  3  0  0  0  0  0  0
  157.5810  212.1980  156.2650 O   0  0  0  0  0  0  0  0  0  0  0  0
  159.6290  213.0200  154.4570 C   0  0  0  0  0  3  0  0  0  0  0  0
  157.5770  211.6520  153.8630 C   0  0  1  0  0  3  0  0  0  0  0  0
  157.1550  210.5920  153.0750 F   0  0  0  0  0  0  0  0  0  0  0  0
  157.7070  213.5620  155.9810 C   0  0  1  0  0  3  0  0  0  0  0  0
  162.2040  208.3170  151.8770 O   0  0  0  0  0  0  0  0  0  0  0  0
  161.1240  207.4370  151.7030 C   0  0  1  0  0  3  0  0  0  0  0  0
  160.8480  207.2940  150.3420 O   0  0  0  0  0  1  0  0  0  0  0  0
  161.4300  206.0780  152.3240 C   0  0  0  0  0  2  0  0  0  0  0  0
  161.2250  203.7000  151.7910 C   0  0  0  0  0  2  0  0  0  0  0  0
  160.9180  204.9550  151.4820 C   0  0  0  0  0  3  0  0  0  0  0  0
  1  3  1  0  0  0  0
  1 14  1  0  0  0  0
  2  4  1  0  0  0  0
  3 14  1  0  0  0  0
  4  1  1  0  0  0  0
  5  2  2  0  0  0  0
  6 16  2  0  0  0  0
  7  2  1  0  0  0  0
  7 11  1  0  0  0  0
  8  9  1  0  0  0  0
  9 10  2  0  0  0  0
  9 13  1  0  0  0  0
 10  5  1  0  0  0  0
 12 11  1  1  0  0  0
 12  1  1  0  0  0  0
 12 21  1  0  0  0  0
 13  7  2  0  0  0  0
 15  8  2  0  0  0  0
 15  6  1  0  0  0  0
 16 13  1  0  0  0  0
 17 19  1  1  0  0  0
 17 22  1  0  0  0  0
 20 26  1  0  0  0  0
 21 23  1  6  0  0  0
 23 20  2  0  0  0  0
 24 25  1  6  0  0  0
 24 21  1  0  0  0  0
 24 17  1  0  0  0  0
 26 22  1  0  0  0  0
 26 18  1  1  0  0  0
 27  4  1  0  0  0  0
 28 29  1  6  0  0  0
 28 27  1  0  0  0  0
 28 30  1  0  0  0  0
 32 31  2  0  0  0  0
 32 30  1  0  0  0  0
M  END
>  <MODEL>
6

>  <REMARK>
 VINA RESULT:      -5.7      3.326      8.342
  Name = 
  5 active torsions:
  status: ('A' for Active; 'I' for Inactive)
    1  A    between atoms: N_5  and  O_14
    2  A    between atoms: C_13  and  C_18
    3  A    between atoms: C_13  and  C_29
    4  A    between atoms: O_14  and  C_18
    5  A    between atoms: C_16  and  C_27
                            x       y       z     vdW  Elec       q    Type
                         _______ _______ _______ _____ _____    ______ ____

>  <TORSDO>
F 5

$$$$
=
 OpenBabel11062408253D

 32 36  0  0  1  0  0  0  0  0999 V2000
  161.1210  206.9640  149.5210 C   0  0  0  0  0  0  0  0  0  0  0  0
  161.1450  208.7810  151.2600 C   0  0  0  0  0  0  0  0  0  0  0  0
  160.7360  206.6800  148.0850 C   0  0  0  0  0  2  0  0  0  0  0  0
  161.2320  208.3880  149.8740 N   0  0  0  0  0  0  0  0  0  0  0  0
  161.0730  210.1410  151.5950 C   0  0  0  0  0  3  0  0  0  0  0  0
  160.8420  207.7080  156.0070 C   0  0  0  0  0  3  0  0  0  0  0  0
  161.0910  207.8070  152.2880 C   0  0  0  0  0  0  0  0  0  0  0  0
  160.8170  210.0150  155.2740 C   0  0  0  0  0  3  0  0  0  0  0  0
  160.9210  209.5970  153.9430 C   0  0  0  0  0  0  0  0  0  0  0  0
  160.9640  210.5470  152.9240 C   0  0  0  0  0  3  0  0  0  0  0  0
  161.2140  206.3440  151.9490 C   0  0  0  0  0  2  0  0  0  0  0  0
  160.5650  206.0260  150.6030 C   0  0  2  0  0  3  0  0  0  0  0  0
  160.9880  208.2180  153.6340 C   0  0  0  0  0  0  0  0  0  0  0  0
  162.1740  206.4610  148.5570 C   0  0  0  0  0  2  0  0  0  0  0  0
  160.7760  209.0720  156.3030 C   0  0  0  0  0  3  0  0  0  0  0  0
  160.9470  207.2830  154.6810 C   0  0  0  0  0  3  0  0  0  0  0  0
  161.2130  202.2450  151.2510 C   0  0  1  0  0  3  0  0  0  0  0  0
  161.2050  200.6270  148.1570 C   0  0  0  0  0  1  0  0  0  0  0  0
  160.4550  201.9960  152.3830 F   0  0  0  0  0  0  0  0  0  0  0  0
  161.1620  203.0910  148.2450 C   0  0  0  0  0  3  0  0  0  0  0  0
  160.5880  204.5220  150.2650 C   0  0  1  0  0  3  0  0  0  0  0  0
  160.5080  201.7800  150.1240 O   0  0  0  0  0  0  0  0  0  0  0  0
  160.8460  204.2780  148.7890 C   0  0  0  0  0  3  0  0  0  0  0  0
  161.5660  203.7470  151.1630 C   0  0  1  0  0  3  0  0  0  0  0  0
  161.6400  204.2930  152.4350 F   0  0  0  0  0  0  0  0  0  0  0  0
  161.3960  201.8410  149.0440 C   0  0  1  0  0  3  0  0  0  0  0  0
  161.2100  209.3400  148.9000 O   0  0  0  0  0  0  0  0  0  0  0  0
  162.4880  209.9200  148.9010 C   0  0  1  0  0  3  0  0  0  0  0  0
  163.2670  209.3470  147.8940 O   0  0  0  0  0  1  0  0  0  0  0  0
  162.3960  211.4290  148.6990 C   0  0  0  0  0  2  0  0  0  0  0  0
  161.3050  212.7440  146.9490 C   0  0  0  0  0  2  0  0  0  0  0  0
  161.2010  211.8090  147.8870 C   0  0  0  0  0  3  0  0  0  0  0  0
  1  4  1  0  0  0  0
  1 12  1  0  0  0  0
  2  5  2  0  0  0  0
  2  7  1  0  0  0  0
  3 14  1  0  0  0  0
  3  1  1  0  0  0  0
  4  2  1  0  0  0  0
  5 10  1  0  0  0  0
  6 15  1  0  0  0  0
  7 13  2  0  0  0  0
  8 15  2  0  0  0  0
  9  8  1  0  0  0  0
 10  9  2  0  0  0  0
 11  7  1  0  0  0  0
 12 11  1  1  0  0  0
 13  9  1  0  0  0  0
 13 16  1  0  0  0  0
 14  1  1  0  0  0  0
 16  6  2  0  0  0  0
 17 19  1  1  0  0  0
 20 23  2  0  0  0  0
 20 26  1  0  0  0  0
 21 23  1  6  0  0  0
 21 12  1  0  0  0  0
 21 24  1  0  0  0  0
 22 17  1  0  0  0  0
 24 17  1  0  0  0  0
 24 25  1  1  0  0  0
 26 18  1  6  0  0  0
 26 22  1  0  0  0  0
 27 28  1  0  0  0  0
 27  4  1  0  0  0  0
 28 29  1  6  0  0  0
 30 28  1  0  0  0  0
 31 32  2  0  0  0  0
 32 30  1  0  0  0  0
M  END
>  <MODEL>
7

>  <REMARK>
 VINA RESULT:      -5.6      1.916      2.351
  Name = 
  5 active torsions:
  status: ('A' for Active; 'I' for Inactive)
    1  A    between atoms: N_5  and  O_14
    2  A    between atoms: C_13  and  C_18
    3  A    between atoms: C_13  and  C_29
    4  A    between atoms: O_14  and  C_18
    5  A    between atoms: C_16  and  C_27
                            x       y       z     vdW  Elec       q    Type
                         _______ _______ _______ _____ _____    ______ ____

>  <TORSDO>
F 5

$$$$
=
 OpenBabel11062408253D

 32 36  0  0  1  0  0  0  0  0999 V2000
  161.7440  210.7700  149.6490 C   0  0  0  0  0  0  0  0  0  0  0  0
  160.9840  210.9820  152.0370 C   0  0  0  0  0  0  0  0  0  0  0  0
  162.9060  210.3100  148.7930 C   0  0  0  0  0  2  0  0  0  0  0  0
  161.7490  210.2790  151.0350 N   0  0  0  0  0  0  0  0  0  0  0  0
  161.1180  210.6320  153.3880 C   0  0  0  0  0  3  0  0  0  0  0  0
  157.8270  214.4530  153.3620 C   0  0  0  0  0  3  0  0  0  0  0  0
  160.1270  212.0500  151.6760 C   0  0  0  0  0  0  0  0  0  0  0  0
  158.8440  213.0270  155.0330 C   0  0  0  0  0  3  0  0  0  0  0  0
  159.5550  212.3560  154.0330 C   0  0  0  0  0  0  0  0  0  0  0  0
  160.4090  211.3100  154.3780 C   0  0  0  0  0  3  0  0  0  0  0  0
  159.9360  212.4080  150.2250 C   0  0  0  0  0  2  0  0  0  0  0  0
  161.2190  212.1960  149.4240 C   0  0  2  0  0  3  0  0  0  0  0  0
  159.4030  212.7330  152.6770 C   0  0  0  0  0  0  0  0  0  0  0  0
  161.5140  209.7080  148.5950 C   0  0  0  0  0  2  0  0  0  0  0  0
  157.9830  214.0740  154.6970 C   0  0  0  0  0  3  0  0  0  0  0  0
  158.5320  213.7870  152.3570 C   0  0  0  0  0  3  0  0  0  0  0  0
  162.4180  213.7210  146.0520 C   0  0  1  0  0  3  0  0  0  0  0  0
  159.5780  214.4510  144.1550 C   0  0  0  0  0  1  0  0  0  0  0  0
  163.5160  212.9400  145.7370 F   0  0  0  0  0  0  0  0  0  0  0  0
  159.3280  213.7680  146.5110 C   0  0  0  0  0  3  0  0  0  0  0  0
  161.0900  212.6400  147.9530 C   0  0  1  0  0  3  0  0  0  0  0  0
  161.3170  213.2810  145.2920 O   0  0  0  0  0  0  0  0  0  0  0  0
  159.6830  213.1040  147.6240 C   0  0  0  0  0  3  0  0  0  0  0  0
  162.1520  213.6850  147.5730 C   0  0  1  0  0  3  0  0  0  0  0  0
  163.3410  213.4830  148.2580 F   0  0  0  0  0  0  0  0  0  0  0  0
  160.3040  214.2310  145.4660 C   0  0  1  0  0  3  0  0  0  0  0  0
  162.6210  209.3020  151.4140 O   0  0  0  0  0  0  0  0  0  0  0  0
  162.0190  208.0870  151.0520 C   0  0  1  0  0  3  0  0  0  0  0  0
  162.9830  207.2190  150.5360 O   0  0  0  0  0  1  0  0  0  0  0  0
  161.3240  207.4510  152.2510 C   0  0  0  0  0  2  0  0  0  0  0  0
  161.1650  205.0710  152.7920 C   0  0  0  0  0  2  0  0  0  0  0  0
  161.9370  206.1370  152.6140 C   0  0  0  0  0  3  0  0  0  0  0  0
  1  4  1  0  0  0  0
  2  5  1  0  0  0  0
  3  1  1  0  0  0  0
  4 27  1  0  0  0  0
  4  2  1  0  0  0  0
  5 10  2  0  0  0  0
  6 15  1  0  0  0  0
  7  2  2  0  0  0  0
  7 13  1  0  0  0  0
  9 10  1  0  0  0  0
  9  8  1  0  0  0  0
 11  7  1  0  0  0  0
 12  1  1  0  0  0  0
 12 11  1  6  0  0  0
 13  9  2  0  0  0  0
 14  3  1  0  0  0  0
 14  1  1  0  0  0  0
 15  8  2  0  0  0  0
 16 13  1  0  0  0  0
 16  6  2  0  0  0  0
 17 19  1  1  0  0  0
 17 24  1  0  0  0  0
 20 23  2  0  0  0  0
 21 23  1  1  0  0  0
 21 12  1  0  0  0  0
 22 26  1  0  0  0  0
 22 17  1  0  0  0  0
 24 21  1  0  0  0  0
 24 25  1  1  0  0  0
 26 18  1  6  0  0  0
 26 20  1  0  0  0  0
 28 29  1  1  0  0  0
 28 27  1  0  0  0  0
 28 30  1  0  0  0  0
 30 32  1  0  0  0  0
 32 31  2  0  0  0  0
M  END
>  <MODEL>
8

>  <REMARK>
 VINA RESULT:      -5.3      3.300      7.028
  Name = 
  5 active torsions:
  status: ('A' for Active; 'I' for Inactive)
    1  A    between atoms: N_5  and  O_14
    2  A    between atoms: C_13  and  C_18
    3  A    between atoms: C_13  and  C_29
    4  A    between atoms: O_14  and  C_18
    5  A    between atoms: C_16  and  C_27
                            x       y       z     vdW  Elec       q    Type
                         _______ _______ _______ _____ _____    ______ ____

>  <TORSDO>
F 5

$$$$
=
 OpenBabel11062408253D

 32 36  0  0  1  0  0  0  0  0999 V2000
  161.8840  208.8430  149.8870 C   0  0  0  0  0  0  0  0  0  0  0  0
  161.3670  207.6130  152.0190 C   0  0  0  0  0  0  0  0  0  0  0  0
  162.7110  208.7600  148.6210 C   0  0  0  0  0  2  0  0  0  0  0  0
  161.7270  207.5790  150.6220 N   0  0  0  0  0  0  0  0  0  0  0  0
  161.3860  206.4310  152.7720 C   0  0  0  0  0  3  0  0  0  0  0  0
  160.0290  210.0250  156.0400 C   0  0  0  0  0  3  0  0  0  0  0  0
  161.0330  208.8360  152.6510 C   0  0  0  0  0  0  0  0  0  0  0  0
  160.4010  207.6340  156.1180 C   0  0  0  0  0  3  0  0  0  0  0  0
  160.7250  207.6360  154.7580 C   0  0  0  0  0  0  0  0  0  0  0  0
  161.0660  206.4400  154.1290 C   0  0  0  0  0  3  0  0  0  0  0  0
  160.9620  210.1080  151.8460 C   0  0  0  0  0  2  0  0  0  0  0  0
  162.0070  210.1210  150.7300 C   0  0  2  0  0  3  0  0  0  0  0  0
  160.7020  208.8450  154.0230 C   0  0  0  0  0  0  0  0  0  0  0  0
  161.1890  208.8920  148.5430 C   0  0  0  0  0  2  0  0  0  0  0  0
  160.0550  208.8270  156.7580 C   0  0  0  0  0  3  0  0  0  0  0  0
  160.3500  210.0350  154.6810 C   0  0  0  0  0  3  0  0  0  0  0  0
  160.7110  213.6150  149.6140 C   0  0  1  0  0  3  0  0  0  0  0  0
  162.3580  214.4530  146.6500 C   0  0  0  0  0  1  0  0  0  0  0  0
  160.6320  214.3080  150.8090 F   0  0  0  0  0  0  0  0  0  0  0  0
  162.5990  212.1810  147.5790 C   0  0  0  0  0  3  0  0  0  0  0  0
  162.0280  211.4460  149.9430 C   0  0  1  0  0  3  0  0  0  0  0  0
  161.8890  214.0010  148.9440 O   0  0  0  0  0  0  0  0  0  0  0  0
  162.6580  211.2790  148.5720 C   0  0  0  0  0  3  0  0  0  0  0  0
  160.6360  212.0930  149.8690 C   0  0  1  0  0  3  0  0  0  0  0  0
  159.8890  211.8400  151.0100 F   0  0  0  0  0  0  0  0  0  0  0  0
  161.8130  213.4590  147.6560 C   0  0  1  0  0  3  0  0  0  0  0  0
  162.1140  206.4020  150.0540 O   0  0  0  0  0  0  0  0  0  0  0  0
  160.9300  205.7440  149.6880 C   0  0  1  0  0  3  0  0  0  0  0  0
  160.8190  205.7100  148.2970 O   0  0  0  0  0  1  0  0  0  0  0  0
  160.9030  204.3270  150.2520 C   0  0  0  0  0  2  0  0  0  0  0  0
  160.5340  202.0450  149.4540 C   0  0  0  0  0  2  0  0  0  0  0  0
  160.8690  203.2990  149.1690 C   0  0  0  0  0  3  0  0  0  0  0  0
  1  4  1  0  0  0  0
  1 12  1  0  0  0  0
  2  7  2  0  0  0  0
  2  5  1  0  0  0  0
  3  1  1  0  0  0  0
  4  2  1  0  0  0  0
  5 10  2  0  0  0  0
  6 15  1  0  0  0  0
  7 13  1  0  0  0  0
  8 15  2  0  0  0  0
  9  8  1  0  0  0  0
 10  9  1  0  0  0  0
 11  7  1  0  0  0  0
 12 11  1  1  0  0  0
 13 16  1  0  0  0  0
 13  9  2  0  0  0  0
 14  3  1  0  0  0  0
 14  1  1  0  0  0  0
 16  6  2  0  0  0  0
 17 24  1  0  0  0  0
 17 19  1  1  0  0  0
 20 26  1  0  0  0  0
 20 23  2  0  0  0  0
 21 23  1  6  0  0  0
 21 12  1  0  0  0  0
 22 17  1  0  0  0  0
 24 21  1  0  0  0  0
 24 25  1  1  0  0  0
 26 18  1  6  0  0  0
 26 22  1  0  0  0  0
 27  4  1  0  0  0  0
 28 29  1  6  0  0  0
 28 27  1  0  0  0  0
 28 30  1  0  0  0  0
 32 31  2  0  0  0  0
 32 30  1  0  0  0  0
M  END
>  <MODEL>
9

>  <REMARK>
 VINA RESULT:      -5.2      2.230      6.457
  Name = 
  5 active torsions:
  status: ('A' for Active; 'I' for Inactive)
    1  A    between atoms: N_5  and  O_14
    2  A    between atoms: C_13  and  C_18
    3  A    between atoms: C_13  and  C_29
    4  A    between atoms: O_14  and  C_18
    5  A    between atoms: C_16  and  C_27
                            x       y       z     vdW  Elec       q    Type
                         _______ _______ _______ _____ _____    ______ ____

>  <TORSDO>
F 5

$$$$
