=
 OpenBabel11062407433D

 34 39  0  0  1  0  0  0  0  0999 V2000
  161.4670  204.6230  150.8870 C   0  0  0  0  0  0  0  0  0  0  0  0
  160.6810  205.5690  148.8260 C   0  0  0  0  0  0  0  0  0  0  0  0
  160.9610  207.1250  150.8650 C   0  0  1  0  0  3  0  0  0  0  0  0
  161.3610  209.5390  150.9390 C   0  0  2  0  0  3  0  0  0  0  0  0
  161.3430  203.3010  148.9360 C   0  0  0  0  0  3  0  0  0  0  0  0
  160.8470  204.3540  148.2420 N   0  0  0  0  0  0  0  0  0  0  0  0
  162.1200  208.5280  148.5910 S   0  0  0  0  0  0  0  0  0  0  0  0
  161.1070  205.7750  150.1550 C   0  0  0  0  0  0  0  0  0  0  0  0
  162.2190  210.6360  150.3610 C   0  0  0  0  0  2  0  0  0  0  0  0
  161.6200  203.4300  150.2570 N   0  0  0  0  0  0  0  0  0  0  0  0
  161.2290  207.0400  152.3210 N   0  0  1  0  0  0  0  0  0  0  0  0
  161.5540  204.6650  152.3800 C   0  0  0  0  0  2  0  0  0  0  0  0
  159.9600  206.5750  148.1220 N   0  0  0  0  0  1  0  0  0  0  0  0
  161.4040  209.5020  152.4630 C   0  0  0  0  0  2  0  0  0  0  0  0
  160.6870  208.2430  152.9870 C   0  0  2  0  0  3  0  0  0  0  0  0
  162.4070  210.3140  148.8820 C   0  0  2  0  0  3  0  0  0  0  0  0
  161.8900  208.2460  150.3690 C   0  0  2  0  0  3  0  0  0  0  0  0
  160.6890  205.8070  152.8880 C   0  0  0  0  0  2  0  0  0  0  0  0
  161.9140  209.0190  156.4930 C   0  0  0  0  0  0  0  0  0  0  0  0
  161.1780  208.1100  157.2600 C   0  0  0  0  0  3  0  0  0  0  0  0
  160.8460  208.1870  154.4800 C   0  0  0  0  0  0  0  0  0  0  0  0
  160.2770  207.2390  156.6420 C   0  0  0  0  0  3  0  0  0  0  0  0
  161.7490  209.0550  155.1050 C   0  0  0  0  0  3  0  0  0  0  0  0
  160.1120  207.2760  155.2540 C   0  0  0  0  0  3  0  0  0  0  0  0
  162.8310  209.9040  157.1220 N   0  0  0  0  0  1  0  0  0  0  0  0
  161.6640  212.4710  147.8960 C   0  0  0  0  0  3  0  0  0  0  0  0
  161.5060  211.1480  148.0200 C   0  0  0  0  0  3  0  0  0  0  0  0
  160.0080  211.8900  145.2940 O   0  0  0  0  0  0  0  0  0  0  0  0
  160.7620  213.3120  147.0340 C   0  0  1  0  0  3  0  0  0  0  0  0
  159.7100  212.5110  146.3010 C   0  0  0  0  0  0  0  0  0  0  0  0
  157.9690  213.6620  147.6560 C   0  0  0  0  0  2  0  0  0  0  0  0
  159.1530  214.0650  148.5260 C   0  0  0  0  0  2  0  0  0  0  0  0
  160.2440  214.4450  147.7140 O   0  0  0  0  0  0  0  0  0  0  0  0
  158.3190  212.4140  146.8540 C   0  0  0  0  0  2  0  0  0  0  0  0
  1 12  1  0  0  0  0
  2  8  1  0  0  0  0
  3  8  1  6  0  0  0
  3 11  1  0  0  0  0
  4  9  1  6  0  0  0
  4 14  1  0  0  0  0
  5 10  2  0  0  0  0
  6  2  2  0  0  0  0
  6  5  1  0  0  0  0
  7 16  1  0  0  0  0
  8  1  2  0  0  0  0
 10  1  1  0  0  0  0
 11 18  1  1  0  0  0
 11 15  1  0  0  0  0
 12 18  1  0  0  0  0
 13  2  1  0  0  0  0
 14 15  1  0  0  0  0
 15 21  1  1  0  0  0
 16 27  1  6  0  0  0
 16  9  1  0  0  0  0
 17  7  1  6  0  0  0
 17  3  1  0  0  0  0
 17  4  1  0  0  0  0
 19 25  1  0  0  0  0
 19 20  1  0  0  0  0
 21 23  1  0  0  0  0
 21 24  2  0  0  0  0
 22 20  2  0  0  0  0
 23 19  2  0  0  0  0
 24 22  1  0  0  0  0
 26 27  2  0  0  0  0
 28 30  2  0  0  0  0
 29 33  1  0  0  0  0
 29 26  1  1  0  0  0
 30 34  1  0  0  0  0
 30 29  1  0  0  0  0
 31 32  1  0  0  0  0
 33 32  1  0  0  0  0
 34 31  1  0  0  0  0
M  END
>  <MODEL>
1

>  <REMARK>
 VINA RESULT:      -8.4      0.000      0.000
  Name = 
  3 active torsions:
  status: ('A' for Active; 'I' for Inactive)
    1  A    between atoms: C_3  and  C_13
    2  A    between atoms: C_12  and  C_28
    3  A    between atoms: C_17  and  C_29
                            x       y       z     vdW  Elec       q    Type
                         _______ _______ _______ _____ _____    ______ ____

>  <TORSDO>
F 3

$$$$
=
 OpenBabel11062407433D

 34 39  0  0  1  0  0  0  0  0999 V2000
  162.2040  209.5240  149.2840 C   0  0  0  0  0  0  0  0  0  0  0  0
  161.1240  211.2070  150.6110 C   0  0  0  0  0  0  0  0  0  0  0  0
  161.0890  208.7680  151.4540 C   0  0  1  0  0  3  0  0  0  0  0  0
  160.8780  207.9120  153.7370 C   0  0  2  0  0  3  0  0  0  0  0  0
  162.3340  211.7980  148.6670 C   0  0  0  0  0  3  0  0  0  0  0  0
  161.5630  212.1400  149.7280 N   0  0  0  0  0  0  0  0  0  0  0  0
  161.7680  210.4260  153.7500 S   0  0  0  0  0  0  0  0  0  0  0  0
  161.5390  209.8660  150.4820 C   0  0  0  0  0  0  0  0  0  0  0  0
  161.4100  208.0740  155.1380 C   0  0  0  0  0  2  0  0  0  0  0  0
  162.6230  210.4940  148.4330 N   0  0  0  0  0  0  0  0  0  0  0  0
  161.4290  207.4060  150.9790 N   0  0  1  0  0  0  0  0  0  0  0  0
  162.3380  208.0930  148.8680 C   0  0  0  0  0  2  0  0  0  0  0  0
  160.1470  211.5840  151.5760 N   0  0  0  0  0  1  0  0  0  0  0  0
  160.9900  206.4800  153.2280 C   0  0  0  0  0  2  0  0  0  0  0  0
  160.6320  206.4150  151.7310 C   0  0  2  0  0  3  0  0  0  0  0  0
  161.6120  209.5700  155.3620 C   0  0  2  0  0  3  0  0  0  0  0  0
  161.6880  208.8420  152.8680 C   0  0  2  0  0  3  0  0  0  0  0  0
  161.2370  207.2850  149.5360 C   0  0  0  0  0  2  0  0  0  0  0  0
  161.0860  203.4620  149.3920 C   0  0  0  0  0  0  0  0  0  0  0  0
  161.2750  202.4100  150.2940 C   0  0  0  0  0  3  0  0  0  0  0  0
  160.8600  205.0120  151.2440 C   0  0  0  0  0  0  0  0  0  0  0  0
  161.2560  202.6540  151.6700 C   0  0  0  0  0  3  0  0  0  0  0  0
  160.8780  204.7600  149.8670 C   0  0  0  0  0  3  0  0  0  0  0  0
  161.0480  203.9530  152.1450 C   0  0  0  0  0  3  0  0  0  0  0  0
  161.1040  203.2120  147.9930 N   0  0  0  0  0  1  0  0  0  0  0  0
  159.5210  210.8870  155.6220 C   0  0  0  0  0  3  0  0  0  0  0  0
  160.4970  210.1580  156.1750 C   0  0  0  0  0  3  0  0  0  0  0  0
  159.2170  213.5460  157.2610 O   0  0  0  0  0  0  0  0  0  0  0  0
  158.4010  211.4800  156.4340 C   0  0  1  0  0  3  0  0  0  0  0  0
  158.4400  212.9900  156.5020 C   0  0  0  0  0  0  0  0  0  0  0  0
  156.3120  213.0480  155.2140 C   0  0  0  0  0  2  0  0  0  0  0  0
  156.6480  211.5910  154.9190 C   0  0  0  0  0  2  0  0  0  0  0  0
  157.1280  210.9590  156.0870 O   0  0  0  0  0  0  0  0  0  0  0  0
  157.5820  213.8060  155.5810 C   0  0  0  0  0  2  0  0  0  0  0  0
  1  8  1  0  0  0  0
  2 13  1  0  0  0  0
  3  8  1  6  0  0  0
  3 17  1  0  0  0  0
  4 14  1  6  0  0  0
  4  9  1  0  0  0  0
  5  6  2  0  0  0  0
  6  2  1  0  0  0  0
  7 16  1  0  0  0  0
  8  2  2  0  0  0  0
  9 16  1  0  0  0  0
 10  5  1  0  0  0  0
 10  1  2  0  0  0  0
 11 18  1  6  0  0  0
 11  3  1  0  0  0  0
 11 15  1  0  0  0  0
 12  1  1  0  0  0  0
 12 18  1  0  0  0  0
 15 21  1  6  0  0  0
 15 14  1  0  0  0  0
 16 27  1  6  0  0  0
 17  4  1  0  0  0  0
 17  7  1  1  0  0  0
 19 23  2  0  0  0  0
 19 20  1  0  0  0  0
 20 22  2  0  0  0  0
 21 24  2  0  0  0  0
 22 24  1  0  0  0  0
 23 21  1  0  0  0  0
 25 19  1  0  0  0  0
 26 27  2  0  0  0  0
 29 26  1  6  0  0  0
 29 30  1  0  0  0  0
 30 28  2  0  0  0  0
 31 34  1  0  0  0  0
 32 31  1  0  0  0  0
 32 33  1  0  0  0  0
 33 29  1  0  0  0  0
 34 30  1  0  0  0  0
M  END
>  <MODEL>
2

>  <REMARK>
 VINA RESULT:      -7.8      3.808      7.040
  Name = 
  3 active torsions:
  status: ('A' for Active; 'I' for Inactive)
    1  A    between atoms: C_3  and  C_13
    2  A    between atoms: C_12  and  C_28
    3  A    between atoms: C_17  and  C_29
                            x       y       z     vdW  Elec       q    Type
                         _______ _______ _______ _____ _____    ______ ____

>  <TORSDO>
F 3

$$$$
