=
 OpenBabel11062407493D

 34 38  0  0  1  0  0  0  0  0999 V2000
  161.1000  206.1410  149.3270 C   0  0  0  0  0  0  0  0  0  0  0  0
  161.3120  205.3580  151.7320 C   0  0  2  0  0  3  0  0  0  0  0  0
  161.5640  207.8080  151.0490 C   0  0  0  0  0  0  0  0  0  0  0  0
  161.4780  210.0630  154.2070 C   0  0  0  0  0  1  0  0  0  0  0  0
  162.0200  204.2320  151.3090 O   0  0  0  0  0  1  0  0  0  0  0  0
  161.2930  207.1360  153.4830 C   0  0  0  0  0  2  0  0  0  0  0  0
  161.3630  206.4530  150.6780 C   0  0  0  0  0  0  0  0  0  0  0  0
  161.1990  209.6210  152.7700 C   0  0  1  0  0  0  0  0  0  0  0  0
  161.6310  208.8170  150.0620 C   0  0  0  0  0  0  0  0  0  0  0  0
  161.1230  207.1580  148.3640 C   0  0  0  0  0  3  0  0  0  0  0  0
  161.8740  205.7950  153.0810 C   0  0  0  0  0  2  0  0  0  0  0  0
  161.9890  210.5610  151.8670 C   0  0  0  0  0  2  0  0  0  0  0  0
  161.8550  210.1980  150.4470 N   0  0  0  0  0  0  0  0  0  0  0  0
  161.7620  208.2050  152.4950 C   0  0  2  0  0  3  0  0  0  0  0  0
  161.3900  208.4750  148.7260 C   0  0  0  0  0  3  0  0  0  0  0  0
  161.0720  212.9610  148.0130 C   0  0  0  0  0  0  0  0  0  0  0  0
  162.1480  212.7510  147.0960 N   0  0  0  0  0  2  0  0  0  0  0  0
  162.0950  211.2360  149.4760 C   0  0  0  0  0  0  0  0  0  0  0  0
  163.3940  212.1660  147.5780 C   0  0  0  0  0  2  0  0  0  0  0  0
  161.1910  212.4480  149.4160 C   0  0  0  0  0  2  0  0  0  0  0  0
  163.1060  211.1050  148.6010 C   0  0  0  0  0  3  0  0  0  0  0  0
  160.0390  213.5780  147.6470 O   0  0  0  0  0  0  0  0  0  0  0  0
  161.4690  204.1490  147.8970 C   0  0  0  0  0  1  0  0  0  0  0  0
  160.8050  204.8230  148.9590 O   0  0  0  0  0  0  0  0  0  0  0  0
  159.8270  209.7680  152.4280 O   0  0  0  0  0  0  0  0  0  0  0  0
  159.1990  210.7070  153.2620 C   0  0  0  0  0  2  0  0  0  0  0  0
  158.7750  211.9050  152.4330 C   0  0  0  0  0  2  0  0  0  0  0  0
  155.9480  214.4370  152.3850 C   0  0  0  0  0  2  0  0  0  0  0  0
  157.5080  212.5150  153.0010 C   0  0  0  0  0  3  0  0  0  0  0  0
  157.3970  213.9650  152.5400 C   0  0  0  0  0  2  0  0  0  0  0  0
  155.5890  213.9990  154.8710 C   0  0  0  0  0  2  0  0  0  0  0  0
  156.2290  212.6510  155.1810 C   0  0  0  0  0  2  0  0  0  0  0  0
  157.5960  212.4920  154.5220 C   0  0  0  0  0  2  0  0  0  0  0  0
  154.9810  213.9660  153.4760 C   0  0  0  0  0  2  0  0  0  0  0  0
  1  7  1  0  0  0  0
  2  5  1  6  0  0  0
  2 11  1  0  0  0  0
  3 14  1  0  0  0  0
  7  3  2  0  0  0  0
  7  2  1  0  0  0  0
  8  4  1  1  0  0  0
  9 13  1  0  0  0  0
  9  3  1  0  0  0  0
 10 15  1  0  0  0  0
 10  1  2  0  0  0  0
 11  6  1  0  0  0  0
 12  8  1  0  0  0  0
 13 12  1  0  0  0  0
 14  8  1  0  0  0  0
 14  6  1  1  0  0  0
 15  9  2  0  0  0  0
 16 20  1  0  0  0  0
 17 19  1  0  0  0  0
 17 16  1  0  0  0  0
 18 13  1  0  0  0  0
 19 21  1  0  0  0  0
 20 18  1  0  0  0  0
 21 18  2  0  0  0  0
 22 16  2  0  0  0  0
 23 24  1  0  0  0  0
 24  1  1  0  0  0  0
 25  8  1  0  0  0  0
 25 26  1  0  0  0  0
 27 29  1  0  0  0  0
 27 26  1  0  0  0  0
 28 30  1  0  0  0  0
 28 34  1  0  0  0  0
 29 33  1  0  0  0  0
 30 29  1  0  0  0  0
 31 32  1  0  0  0  0
 33 32  1  0  0  0  0
 34 31  1  0  0  0  0
M  END
>  <MODEL>
1

>  <REMARK>
 VINA RESULT:      -6.8      0.000      0.000
  Name = 
  6 active torsions:
  status: ('A' for Active; 'I' for Inactive)
    1  A    between atoms: C_1  and  O_19
    2  A    between atoms: C_3  and  C_13
    3  A    between atoms: C_3  and  C_17
    4  A    between atoms: C_12  and  N_28
    5  A    between atoms: C_17  and  O_29
    6  A    between atoms: C_18  and  O_29
                            x       y       z     vdW  Elec       q    Type
                         _______ _______ _______ _____ _____    ______ ____

>  <TORSDO>
F 6

$$$$
=
 OpenBabel11062407493D

 34 38  0  0  1  0  0  0  0  0999 V2000
  161.1360  206.1680  149.3060 C   0  0  0  0  0  0  0  0  0  0  0  0
  161.3400  205.4130  151.7210 C   0  0  2  0  0  3  0  0  0  0  0  0
  161.5900  207.8550  151.0100 C   0  0  0  0  0  0  0  0  0  0  0  0
  161.4850  210.1470  154.1420 C   0  0  0  0  0  1  0  0  0  0  0  0
  162.0520  204.2840  151.3140 O   0  0  0  0  0  1  0  0  0  0  0  0
  161.3090  207.2110  153.4510 C   0  0  0  0  0  2  0  0  0  0  0  0
  161.3930  206.4960  150.6540 C   0  0  0  0  0  0  0  0  0  0  0  0
  161.2130  209.6880  152.7090 C   0  0  1  0  0  0  0  0  0  0  0  0
  161.6580  208.8530  150.0120 C   0  0  0  0  0  0  0  0  0  0  0  0
  161.1610  207.1730  148.3310 C   0  0  0  0  0  3  0  0  0  0  0  0
  161.8950  205.8670  153.0670 C   0  0  0  0  0  2  0  0  0  0  0  0
  162.0050  210.6190  151.7980 C   0  0  0  0  0  2  0  0  0  0  0  0
  161.8780  210.2390  150.3820 N   0  0  0  0  0  0  0  0  0  0  0  0
  161.7800  208.2700  152.4530 C   0  0  2  0  0  3  0  0  0  0  0  0
  161.4240  208.4940  148.6790 C   0  0  0  0  0  3  0  0  0  0  0  0
  161.0960  212.9010  147.8380 C   0  0  0  0  0  0  0  0  0  0  0  0
  162.2320  212.7270  146.9890 N   0  0  0  0  0  2  0  0  0  0  0  0
  162.1200  211.2660  149.4000 C   0  0  0  0  0  0  0  0  0  0  0  0
  163.4770  212.2200  147.5550 C   0  0  0  0  0  2  0  0  0  0  0  0
  161.1600  212.4270  149.2580 C   0  0  0  0  0  2  0  0  0  0  0  0
  163.1850  211.1680  148.5860 C   0  0  0  0  0  3  0  0  0  0  0  0
  160.0550  213.4550  147.3990 O   0  0  0  0  0  0  0  0  0  0  0  0
  161.5320  204.1520  147.9180 C   0  0  0  0  0  1  0  0  0  0  0  0
  160.8460  204.8440  148.9520 O   0  0  0  0  0  0  0  0  0  0  0  0
  159.8420  209.8270  152.3590 O   0  0  0  0  0  0  0  0  0  0  0  0
  159.1240  210.4590  153.3870 C   0  0  0  0  0  2  0  0  0  0  0  0
  158.5320  211.7520  152.8590 C   0  0  0  0  0  2  0  0  0  0  0  0
  156.9100  211.8900  156.2880 C   0  0  0  0  0  2  0  0  0  0  0  0
  157.7710  212.4690  153.9580 C   0  0  0  0  0  3  0  0  0  0  0  0
  157.0580  211.4420  154.8310 C   0  0  0  0  0  2  0  0  0  0  0  0
  155.5160  213.8690  155.4870 C   0  0  0  0  0  2  0  0  0  0  0  0
  156.2310  214.4530  154.2740 C   0  0  0  0  0  2  0  0  0  0  0  0
  156.7250  213.3730  153.3170 C   0  0  0  0  0  2  0  0  0  0  0  0
  156.5440  213.3640  156.4900 C   0  0  0  0  0  2  0  0  0  0  0  0
  1  7  1  0  0  0  0
  2  5  1  6  0  0  0
  2 11  1  0  0  0  0
  3 14  1  0  0  0  0
  7  3  2  0  0  0  0
  7  2  1  0  0  0  0
  8  4  1  1  0  0  0
  9 13  1  0  0  0  0
  9  3  1  0  0  0  0
 10 15  1  0  0  0  0
 10  1  2  0  0  0  0
 11  6  1  0  0  0  0
 12  8  1  0  0  0  0
 13 12  1  0  0  0  0
 14  8  1  0  0  0  0
 14  6  1  1  0  0  0
 15  9  2  0  0  0  0
 16 20  1  0  0  0  0
 17 19  1  0  0  0  0
 17 16  1  0  0  0  0
 18 13  1  0  0  0  0
 19 21  1  0  0  0  0
 20 18  1  0  0  0  0
 21 18  2  0  0  0  0
 22 16  2  0  0  0  0
 23 24  1  0  0  0  0
 24  1  1  0  0  0  0
 25  8  1  0  0  0  0
 25 26  1  0  0  0  0
 27 26  1  0  0  0  0
 27 29  1  0  0  0  0
 28 34  1  0  0  0  0
 29 30  1  0  0  0  0
 30 28  1  0  0  0  0
 31 34  1  0  0  0  0
 32 31  1  0  0  0  0
 33 29  1  0  0  0  0
 33 32  1  0  0  0  0
M  END
>  <MODEL>
2

>  <REMARK>
 VINA RESULT:      -6.7      0.566      1.276
  Name = 
  6 active torsions:
  status: ('A' for Active; 'I' for Inactive)
    1  A    between atoms: C_1  and  O_19
    2  A    between atoms: C_3  and  C_13
    3  A    between atoms: C_3  and  C_17
    4  A    between atoms: C_12  and  N_28
    5  A    between atoms: C_17  and  O_29
    6  A    between atoms: C_18  and  O_29
                            x       y       z     vdW  Elec       q    Type
                         _______ _______ _______ _____ _____    ______ ____

>  <TORSDO>
F 6

$$$$
=
 OpenBabel11062407493D

 34 38  0  0  1  0  0  0  0  0999 V2000
  159.7870  213.1900  150.4450 C   0  0  0  0  0  0  0  0  0  0  0  0
  161.2010  212.3030  148.5330 C   0  0  2  0  0  3  0  0  0  0  0  0
  161.2290  211.2670  150.8680 C   0  0  0  0  0  0  0  0  0  0  0  0
  163.0260  207.8280  150.7520 C   0  0  0  0  0  1  0  0  0  0  0  0
  161.4840  213.6090  148.1280 O   0  0  0  0  0  1  0  0  0  0  0  0
  162.2610  210.0720  148.8790 C   0  0  0  0  0  2  0  0  0  0  0  0
  160.7590  212.2740  149.9870 C   0  0  0  0  0  0  0  0  0  0  0  0
  161.9850  208.8730  151.1550 C   0  0  1  0  0  0  0  0  0  0  0  0
  160.8290  211.2580  152.2230 C   0  0  0  0  0  0  0  0  0  0  0  0
  159.3640  213.1420  151.7800 C   0  0  0  0  0  3  0  0  0  0  0  0
  162.4320  211.4440  148.2610 C   0  0  0  0  0  2  0  0  0  0  0  0
  162.2320  209.1850  152.6260 C   0  0  0  0  0  2  0  0  0  0  0  0
  161.3280  210.2350  153.1240 N   0  0  0  0  0  0  0  0  0  0  0  0
  162.2030  210.2070  150.4010 C   0  0  2  0  0  3  0  0  0  0  0  0
  159.8820  212.1940  152.6560 C   0  0  0  0  0  3  0  0  0  0  0  0
  159.4370  210.7670  156.3340 C   0  0  0  0  0  0  0  0  0  0  0  0
  160.5310  211.1590  157.1650 N   0  0  0  0  0  2  0  0  0  0  0  0
  161.0850  210.2770  154.5430 C   0  0  0  0  0  0  0  0  0  0  0  0
  161.8700  210.6670  156.8630 C   0  0  0  0  0  2  0  0  0  0  0  0
  159.7060  209.9770  155.0900 C   0  0  0  0  0  2  0  0  0  0  0  0
  162.0810  210.6180  155.3780 C   0  0  0  0  0  3  0  0  0  0  0  0
  158.2590  211.0750  156.6500 O   0  0  0  0  0  0  0  0  0  0  0  0
  157.9310  214.0190  149.0250 C   0  0  0  0  0  1  0  0  0  0  0  0
  159.2430  214.1310  149.5620 O   0  0  0  0  0  0  0  0  0  0  0  0
  160.6600  208.3670  151.0520 O   0  0  0  0  0  0  0  0  0  0  0  0
  160.6670  206.9750  150.8710 C   0  0  0  0  0  2  0  0  0  0  0  0
  160.5790  206.6640  149.3880 C   0  0  0  0  0  2  0  0  0  0  0  0
  160.6510  203.0780  150.6280 C   0  0  0  0  0  2  0  0  0  0  0  0
  160.6030  205.1650  149.1630 C   0  0  0  0  0  3  0  0  0  0  0  0
  161.2130  204.4810  150.3820 C   0  0  0  0  0  2  0  0  0  0  0  0
  161.5550  202.3690  148.3520 C   0  0  0  0  0  2  0  0  0  0  0  0
  161.2100  203.4820  147.3710 C   0  0  0  0  0  2  0  0  0  0  0  0
  161.4770  204.8690  147.9500 C   0  0  0  0  0  2  0  0  0  0  0  0
  160.4360  202.2250  149.3740 C   0  0  0  0  0  2  0  0  0  0  0  0
  1 10  1  0  0  0  0
  2  5  1  1  0  0  0
  2  7  1  0  0  0  0
  3  9  2  0  0  0  0
  7  1  2  0  0  0  0
  7  3  1  0  0  0  0
  8  4  1  6  0  0  0
  8 12  1  0  0  0  0
  9 15  1  0  0  0  0
  9 13  1  0  0  0  0
 10 15  2  0  0  0  0
 11  2  1  0  0  0  0
 11  6  1  0  0  0  0
 12 13  1  0  0  0  0
 13 18  1  0  0  0  0
 14  6  1  6  0  0  0
 14  3  1  0  0  0  0
 14  8  1  0  0  0  0
 16 22  2  0  0  0  0
 16 17  1  0  0  0  0
 18 20  1  0  0  0  0
 18 21  2  0  0  0  0
 19 17  1  0  0  0  0
 20 16  1  0  0  0  0
 21 19  1  0  0  0  0
 23 24  1  0  0  0  0
 24  1  1  0  0  0  0
 25  8  1  0  0  0  0
 26 25  1  0  0  0  0
 27 26  1  0  0  0  0
 29 27  1  0  0  0  0
 29 30  1  0  0  0  0
 30 28  1  0  0  0  0
 31 34  1  0  0  0  0
 32 33  1  0  0  0  0
 32 31  1  0  0  0  0
 33 29  1  0  0  0  0
 34 28  1  0  0  0  0
M  END
>  <MODEL>
3

>  <REMARK>
 VINA RESULT:      -6.5      2.597      8.135
  Name = 
  6 active torsions:
  status: ('A' for Active; 'I' for Inactive)
    1  A    between atoms: C_1  and  O_19
    2  A    between atoms: C_3  and  C_13
    3  A    between atoms: C_3  and  C_17
    4  A    between atoms: C_12  and  N_28
    5  A    between atoms: C_17  and  O_29
    6  A    between atoms: C_18  and  O_29
                            x       y       z     vdW  Elec       q    Type
                         _______ _______ _______ _____ _____    ______ ____

>  <TORSDO>
F 6

$$$$
=
 OpenBabel11062407493D

 34 38  0  0  1  0  0  0  0  0999 V2000
  159.7310  212.9020  151.2380 C   0  0  0  0  0  0  0  0  0  0  0  0
  161.0220  212.6000  149.0740 C   0  0  2  0  0  3  0  0  0  0  0  0
  161.2290  210.9850  151.0430 C   0  0  0  0  0  0  0  0  0  0  0  0
  163.0670  207.7610  149.9050 C   0  0  0  0  0  1  0  0  0  0  0  0
  161.2550  213.9750  149.0140 O   0  0  0  0  0  1  0  0  0  0  0  0
  162.1380  210.3920  148.7480 C   0  0  0  0  0  2  0  0  0  0  0  0
  160.6830  212.1730  150.4930 C   0  0  0  0  0  0  0  0  0  0  0  0
  162.0400  208.6270  150.6360 C   0  0  1  0  0  0  0  0  0  0  0  0
  160.9240  210.6060  152.3700 C   0  0  0  0  0  0  0  0  0  0  0  0
  159.4030  212.4900  152.5360 C   0  0  0  0  0  3  0  0  0  0  0  0
  162.2440  211.8840  148.5070 C   0  0  0  0  0  2  0  0  0  0  0  0
  162.3840  208.5480  152.1190 C   0  0  0  0  0  2  0  0  0  0  0  0
  161.5010  209.3980  152.9330 N   0  0  0  0  0  0  0  0  0  0  0  0
  162.1840  210.1200  150.2520 C   0  0  2  0  0  3  0  0  0  0  0  0
  159.9950  211.3620  153.0950 C   0  0  0  0  0  3  0  0  0  0  0  0
  160.0450  207.7830  156.0060 C   0  0  0  0  0  0  0  0  0  0  0  0
  160.3720  208.7980  156.9570 N   0  0  0  0  0  2  0  0  0  0  0  0
  161.3570  209.0560  154.3250 C   0  0  0  0  0  0  0  0  0  0  0  0
  161.5390  209.6430  156.7290 C   0  0  0  0  0  2  0  0  0  0  0  0
  160.8190  207.6990  154.7250 C   0  0  0  0  0  2  0  0  0  0  0  0
  161.6690  209.9620  155.2680 C   0  0  0  0  0  3  0  0  0  0  0  0
  159.1220  206.9630  156.2460 O   0  0  0  0  0  0  0  0  0  0  0  0
  157.8450  213.9670  150.0300 C   0  0  0  0  0  1  0  0  0  0  0  0
  159.1120  214.0240  150.6730 O   0  0  0  0  0  0  0  0  0  0  0  0
  160.7190  208.1220  150.4860 O   0  0  0  0  0  0  0  0  0  0  0  0
  160.6910  207.0510  149.5790 C   0  0  0  0  0  2  0  0  0  0  0  0
  160.7450  205.7450  150.3490 C   0  0  0  0  0  2  0  0  0  0  0  0
  161.6620  204.3400  146.9450 C   0  0  0  0  0  2  0  0  0  0  0  0
  161.1190  204.6040  149.4220 C   0  0  0  0  0  3  0  0  0  0  0  0
  160.7400  204.9720  147.9910 C   0  0  0  0  0  2  0  0  0  0  0  0
  160.9330  202.0370  147.7610 C   0  0  0  0  0  2  0  0  0  0  0  0
  160.9460  202.0820  149.2840 C   0  0  0  0  0  2  0  0  0  0  0  0
  160.3300  203.3660  149.8320 C   0  0  0  0  0  2  0  0  0  0  0  0
  162.0710  202.8890  147.2160 C   0  0  0  0  0  2  0  0  0  0  0  0
  1 10  1  0  0  0  0
  2  5  1  1  0  0  0
  2  7  1  0  0  0  0
  3  9  2  0  0  0  0
  7  3  1  0  0  0  0
  7  1  2  0  0  0  0
  8  4  1  6  0  0  0
  8 12  1  0  0  0  0
  9 13  1  0  0  0  0
  9 15  1  0  0  0  0
 10 15  2  0  0  0  0
 11  6  1  0  0  0  0
 11  2  1  0  0  0  0
 12 13  1  0  0  0  0
 13 18  1  0  0  0  0
 14  6  1  6  0  0  0
 14  8  1  0  0  0  0
 14  3  1  0  0  0  0
 16 22  2  0  0  0  0
 16 17  1  0  0  0  0
 18 20  1  0  0  0  0
 18 21  2  0  0  0  0
 19 17  1  0  0  0  0
 20 16  1  0  0  0  0
 21 19  1  0  0  0  0
 23 24  1  0  0  0  0
 24  1  1  0  0  0  0
 25  8  1  0  0  0  0
 26 27  1  0  0  0  0
 26 25  1  0  0  0  0
 28 34  1  0  0  0  0
 28 30  1  0  0  0  0
 29 33  1  0  0  0  0
 29 27  1  0  0  0  0
 30 29  1  0  0  0  0
 31 32  1  0  0  0  0
 32 33  1  0  0  0  0
 34 31  1  0  0  0  0
M  END
>  <MODEL>
4

>  <REMARK>
 VINA RESULT:      -6.2      2.509      8.406
  Name = 
  6 active torsions:
  status: ('A' for Active; 'I' for Inactive)
    1  A    between atoms: C_1  and  O_19
    2  A    between atoms: C_3  and  C_13
    3  A    between atoms: C_3  and  C_17
    4  A    between atoms: C_12  and  N_28
    5  A    between atoms: C_17  and  O_29
    6  A    between atoms: C_18  and  O_29
                            x       y       z     vdW  Elec       q    Type
                         _______ _______ _______ _____ _____    ______ ____

>  <TORSDO>
F 6

$$$$
=
 OpenBabel11062407493D

 34 38  0  0  1  0  0  0  0  0999 V2000
  161.0630  207.2210  155.2500 C   0  0  0  0  0  0  0  0  0  0  0  0
  161.3980  209.5440  156.2180 C   0  0  2  0  0  3  0  0  0  0  0  0
  161.2460  209.1030  153.7050 C   0  0  0  0  0  0  0  0  0  0  0  0
  160.7870  212.4610  151.8120 C   0  0  0  0  0  1  0  0  0  0  0  0
  162.2820  209.0270  157.1670 O   0  0  0  0  0  1  0  0  0  0  0  0
  161.0850  211.4560  154.6460 C   0  0  0  0  0  2  0  0  0  0  0  0
  161.2700  208.6010  155.0320 C   0  0  0  0  0  0  0  0  0  0  0  0
  160.5860  210.9840  152.1520 C   0  0  1  0  0  0  0  0  0  0  0  0
  161.1470  208.2190  152.6080 C   0  0  0  0  0  0  0  0  0  0  0  0
  160.9200  206.3610  154.1540 C   0  0  0  0  0  3  0  0  0  0  0  0
  161.8790  210.9380  155.8280 C   0  0  0  0  0  2  0  0  0  0  0  0
  161.2120  210.1880  151.0120 C   0  0  0  0  0  2  0  0  0  0  0  0
  161.1410  208.7380  151.2520 N   0  0  0  0  0  0  0  0  0  0  0  0
  161.3740  210.5840  153.4240 C   0  0  2  0  0  3  0  0  0  0  0  0
  160.9670  206.8520  152.8530 C   0  0  0  0  0  3  0  0  0  0  0  0
  161.1880  205.5320  149.2800 C   0  0  0  0  0  0  0  0  0  0  0  0
  162.0350  205.9510  148.2090 N   0  0  0  0  0  2  0  0  0  0  0  0
  161.2090  207.8750  150.1000 C   0  0  0  0  0  0  0  0  0  0  0  0
  162.0650  207.3590  147.8300 C   0  0  0  0  0  2  0  0  0  0  0  0
  160.4560  206.5620  150.0850 C   0  0  0  0  0  2  0  0  0  0  0  0
  161.9730  208.2260  149.0520 C   0  0  0  0  0  3  0  0  0  0  0  0
  161.0510  204.3080  149.5390 O   0  0  0  0  0  0  0  0  0  0  0  0
  159.7630  206.5790  157.2610 C   0  0  0  0  0  1  0  0  0  0  0  0
  160.9890  206.7240  156.5570 O   0  0  0  0  0  0  0  0  0  0  0  0
  159.2090  210.6340  152.1990 O   0  0  0  0  0  0  0  0  0  0  0  0
  158.4440  211.6790  152.7400 C   0  0  0  0  0  2  0  0  0  0  0  0
  157.5960  211.1400  153.8770 C   0  0  0  0  0  2  0  0  0  0  0  0
  158.4330  212.6680  157.2490 C   0  0  0  0  0  2  0  0  0  0  0  0
  157.4270  212.1950  154.9530 C   0  0  0  0  0  3  0  0  0  0  0  0
  157.8550  211.6160  156.2990 C   0  0  0  0  0  2  0  0  0  0  0  0
  156.1930  213.8840  157.1900 C   0  0  0  0  0  2  0  0  0  0  0  0
  155.7430  213.9160  155.7340 C   0  0  0  0  0  2  0  0  0  0  0  0
  155.9540  212.5780  155.0330 C   0  0  0  0  0  2  0  0  0  0  0  0
  157.7080  214.0180  157.2590 C   0  0  0  0  0  2  0  0  0  0  0  0
  1 24  1  0  0  0  0
  2  5  1  1  0  0  0
  3  7  2  0  0  0  0
  6 11  1  0  0  0  0
  7  1  1  0  0  0  0
  7  2  1  0  0  0  0
  8  4  1  6  0  0  0
  8 25  1  0  0  0  0
  8 14  1  0  0  0  0
  9 15  2  0  0  0  0
  9  3  1  0  0  0  0
 10  1  2  0  0  0  0
 11  2  1  0  0  0  0
 12 13  1  0  0  0  0
 12  8  1  0  0  0  0
 13  9  1  0  0  0  0
 14  3  1  0  0  0  0
 14  6  1  1  0  0  0
 15 10  1  0  0  0  0
 16 22  2  0  0  0  0
 16 20  1  0  0  0  0
 17 16  1  0  0  0  0
 18 13  1  0  0  0  0
 19 17  1  0  0  0  0
 19 21  1  0  0  0  0
 20 18  1  0  0  0  0
 21 18  2  0  0  0  0
 24 23  1  0  0  0  0
 25 26  1  0  0  0  0
 26 27  1  0  0  0  0
 27 29  1  0  0  0  0
 28 34  1  0  0  0  0
 29 33  1  0  0  0  0
 29 30  1  0  0  0  0
 30 28  1  0  0  0  0
 31 34  1  0  0  0  0
 32 31  1  0  0  0  0
 33 32  1  0  0  0  0
M  END
>  <MODEL>
5

>  <REMARK>
 VINA RESULT:      -5.1      2.265      4.961
  Name = 
  6 active torsions:
  status: ('A' for Active; 'I' for Inactive)
    1  A    between atoms: C_1  and  O_19
    2  A    between atoms: C_3  and  C_13
    3  A    between atoms: C_3  and  C_17
    4  A    between atoms: C_12  and  N_28
    5  A    between atoms: C_17  and  O_29
    6  A    between atoms: C_18  and  O_29
                            x       y       z     vdW  Elec       q    Type
                         _______ _______ _______ _____ _____    ______ ____

>  <TORSDO>
F 6

$$$$
=
 OpenBabel11062407493D

 34 38  0  0  1  0  0  0  0  0999 V2000
  160.5390  207.5100  154.5920 C   0  0  0  0  0  0  0  0  0  0  0  0
  161.5000  209.7170  153.7850 C   0  0  2  0  0  3  0  0  0  0  0  0
  161.5890  207.5780  152.3890 C   0  0  0  0  0  0  0  0  0  0  0  0
  162.6050  208.4360  148.7420 C   0  0  0  0  0  1  0  0  0  0  0  0
  161.9970  209.9740  155.0630 O   0  0  0  0  0  1  0  0  0  0  0  0
  162.1060  209.8450  151.3680 C   0  0  0  0  0  2  0  0  0  0  0  0
  161.2380  208.2300  153.5990 C   0  0  0  0  0  0  0  0  0  0  0  0
  161.8600  207.7410  149.8820 C   0  0  1  0  0  0  0  0  0  0  0  0
  161.3610  206.1920  152.2320 C   0  0  0  0  0  0  0  0  0  0  0  0
  160.2780  206.1460  154.4040 C   0  0  0  0  0  3  0  0  0  0  0  0
  162.4840  210.2860  152.7680 C   0  0  0  0  0  2  0  0  0  0  0  0
  162.3400  206.2940  149.8950 C   0  0  0  0  0  2  0  0  0  0  0  0
  161.7400  205.5270  150.9980 N   0  0  0  0  0  0  0  0  0  0  0  0
  162.2590  208.3270  151.2590 C   0  0  2  0  0  3  0  0  0  0  0  0
  160.6870  205.4980  153.2430 C   0  0  0  0  0  3  0  0  0  0  0  0
  160.5510  202.1860  149.7360 C   0  0  0  0  0  0  0  0  0  0  0  0
  160.8310  201.4050  150.8980 N   0  0  0  0  0  2  0  0  0  0  0  0
  161.6820  204.0950  150.8500 C   0  0  0  0  0  0  0  0  0  0  0  0
  161.9140  201.8100  151.7880 C   0  0  0  0  0  2  0  0  0  0  0  0
  161.2760  203.4810  149.5280 C   0  0  0  0  0  2  0  0  0  0  0  0
  161.9560  203.3070  151.9030 C   0  0  0  0  0  3  0  0  0  0  0  0
  159.7090  201.7860  148.8900 O   0  0  0  0  0  0  0  0  0  0  0  0
  160.1010  207.5470  157.0320 C   0  0  0  0  0  1  0  0  0  0  0  0
  160.1010  208.1630  155.7510 O   0  0  0  0  0  0  0  0  0  0  0  0
  160.4560  207.7130  149.6580 O   0  0  0  0  0  0  0  0  0  0  0  0
  160.0980  206.6170  148.8570 C   0  0  0  0  0  2  0  0  0  0  0  0
  160.2490  206.9970  147.3960 C   0  0  0  0  0  2  0  0  0  0  0  0
  163.1000  204.7030  146.3860 C   0  0  0  0  0  2  0  0  0  0  0  0
  160.8250  205.8360  146.6080 C   0  0  0  0  0  3  0  0  0  0  0  0
  162.3310  206.0260  146.4590 C   0  0  0  0  0  2  0  0  0  0  0  0
  161.8070  204.1230  144.2670 C   0  0  0  0  0  2  0  0  0  0  0  0
  160.3480  204.4790  144.5250 C   0  0  0  0  0  2  0  0  0  0  0  0
  160.1950  205.8280  145.2210 C   0  0  0  0  0  2  0  0  0  0  0  0
  162.4400  203.6030  145.5490 C   0  0  0  0  0  2  0  0  0  0  0  0
  1 24  1  0  0  0  0
  2  5  1  1  0  0  0
  3  7  1  0  0  0  0
  6 11  1  0  0  0  0
  7  2  1  0  0  0  0
  7  1  2  0  0  0  0
  8  4  1  6  0  0  0
  8 12  1  0  0  0  0
  8 14  1  0  0  0  0
  9  3  2  0  0  0  0
  9 15  1  0  0  0  0
 10  1  1  0  0  0  0
 11  2  1  0  0  0  0
 12 13  1  0  0  0  0
 13  9  1  0  0  0  0
 14  6  1  6  0  0  0
 14  3  1  0  0  0  0
 15 10  2  0  0  0  0
 16 17  1  0  0  0  0
 17 19  1  0  0  0  0
 18 13  1  0  0  0  0
 18 21  2  0  0  0  0
 19 21  1  0  0  0  0
 20 16  1  0  0  0  0
 20 18  1  0  0  0  0
 22 16  2  0  0  0  0
 24 23  1  0  0  0  0
 25  8  1  0  0  0  0
 26 25  1  0  0  0  0
 27 26  1  0  0  0  0
 28 30  1  0  0  0  0
 29 27  1  0  0  0  0
 30 29  1  0  0  0  0
 31 32  1  0  0  0  0
 31 34  1  0  0  0  0
 32 33  1  0  0  0  0
 33 29  1  0  0  0  0
 34 28  1  0  0  0  0
M  END
>  <MODEL>
6

>  <REMARK>
 VINA RESULT:      -4.3      4.055      8.618
  Name = 
  6 active torsions:
  status: ('A' for Active; 'I' for Inactive)
    1  A    between atoms: C_1  and  O_19
    2  A    between atoms: C_3  and  C_13
    3  A    between atoms: C_3  and  C_17
    4  A    between atoms: C_12  and  N_28
    5  A    between atoms: C_17  and  O_29
    6  A    between atoms: C_18  and  O_29
                            x       y       z     vdW  Elec       q    Type
                         _______ _______ _______ _____ _____    ______ ____

>  <TORSDO>
F 6

$$$$
=
 OpenBabel11062407493D

 34 38  0  0  1  0  0  0  0  0999 V2000
  161.1480  208.3170  153.2780 C   0  0  0  0  0  0  0  0  0  0  0  0
  160.8790  209.2660  155.6170 C   0  0  2  0  0  3  0  0  0  0  0  0
  160.6500  210.6960  153.5120 C   0  0  0  0  0  0  0  0  0  0  0  0
  159.0850  214.1290  154.4240 C   0  0  0  0  0  1  0  0  0  0  0  0
  161.9510  208.4900  156.0610 O   0  0  0  0  0  1  0  0  0  0  0  0
  159.8970  211.5540  155.7800 C   0  0  0  0  0  2  0  0  0  0  0  0
  160.9300  209.4390  154.1070 C   0  0  0  0  0  0  0  0  0  0  0  0
  159.3480  212.8590  153.6150 C   0  0  1  0  0  0  0  0  0  0  0  0
  160.7180  210.8530  152.1090 C   0  0  0  0  0  0  0  0  0  0  0  0
  161.1680  208.4780  151.8870 C   0  0  0  0  0  3  0  0  0  0  0  0
  160.9030  210.5900  156.3750 C   0  0  0  0  0  2  0  0  0  0  0  0
  160.0780  213.2950  152.3500 C   0  0  0  0  0  2  0  0  0  0  0  0
  160.4490  212.1470  151.5070 N   0  0  0  0  0  0  0  0  0  0  0  0
  160.3210  211.9080  154.3540 C   0  0  2  0  0  3  0  0  0  0  0  0
  160.9610  209.7280  151.3120 C   0  0  0  0  0  3  0  0  0  0  0  0
  162.3320  212.5140  148.2680 C   0  0  0  0  0  0  0  0  0  0  0  0
  161.5230  213.5240  147.6630 N   0  0  0  0  0  2  0  0  0  0  0  0
  160.6660  212.4010  150.1060 C   0  0  0  0  0  0  0  0  0  0  0  0
  160.1100  213.6140  148.0140 C   0  0  0  0  0  2  0  0  0  0  0  0
  161.7520  211.6610  149.3550 C   0  0  0  0  0  2  0  0  0  0  0  0
  159.9210  213.3250  149.4750 C   0  0  0  0  0  3  0  0  0  0  0  0
  163.5170  212.3370  147.8860 O   0  0  0  0  0  0  0  0  0  0  0  0
  161.2130  205.8450  153.1070 C   0  0  0  0  0  1  0  0  0  0  0  0
  161.3310  207.0520  153.8480 O   0  0  0  0  0  0  0  0  0  0  0  0
  158.1390  212.2330  153.2040 O   0  0  0  0  0  0  0  0  0  0  0  0
  157.4460  213.0350  152.2830 C   0  0  0  0  0  2  0  0  0  0  0  0
  156.1490  213.5090  152.9120 C   0  0  0  0  0  2  0  0  0  0  0  0
  156.1200  210.9930  155.7530 C   0  0  0  0  0  2  0  0  0  0  0  0
  156.1130  213.1440  154.3830 C   0  0  0  0  0  3  0  0  0  0  0  0
  155.5510  211.7350  154.5400 C   0  0  0  0  0  2  0  0  0  0  0  0
  155.1250  212.7920  157.2610 C   0  0  0  0  0  2  0  0  0  0  0  0
  155.4330  214.1350  156.6110 C   0  0  0  0  0  2  0  0  0  0  0  0
  155.1920  214.1200  155.1050 C   0  0  0  0  0  2  0  0  0  0  0  0
  156.2840  211.8330  157.0230 C   0  0  0  0  0  2  0  0  0  0  0  0
  1 24  1  0  0  0  0
  1  7  1  0  0  0  0
  2  5  1  1  0  0  0
  2 11  1  0  0  0  0
  3  7  2  0  0  0  0
  3 14  1  0  0  0  0
  6 11  1  0  0  0  0
  7  2  1  0  0  0  0
  8 14  1  0  0  0  0
  8  4  1  1  0  0  0
  9  3  1  0  0  0  0
 10  1  2  0  0  0  0
 12  8  1  0  0  0  0
 13  9  1  0  0  0  0
 13 12  1  0  0  0  0
 14  6  1  1  0  0  0
 15 10  1  0  0  0  0
 15  9  2  0  0  0  0
 16 20  1  0  0  0  0
 17 19  1  0  0  0  0
 17 16  1  0  0  0  0
 18 13  1  0  0  0  0
 19 21  1  0  0  0  0
 20 18  1  0  0  0  0
 21 18  2  0  0  0  0
 22 16  2  0  0  0  0
 23 24  1  0  0  0  0
 25  8  1  0  0  0  0
 26 27  1  0  0  0  0
 26 25  1  0  0  0  0
 27 29  1  0  0  0  0
 28 34  1  0  0  0  0
 29 30  1  0  0  0  0
 29 33  1  0  0  0  0
 30 28  1  0  0  0  0
 32 31  1  0  0  0  0
 33 32  1  0  0  0  0
 34 31  1  0  0  0  0
M  END
>  <MODEL>
7

>  <REMARK>
 VINA RESULT:      -4.0      2.296      3.887
  Name = 
  6 active torsions:
  status: ('A' for Active; 'I' for Inactive)
    1  A    between atoms: C_1  and  O_19
    2  A    between atoms: C_3  and  C_13
    3  A    between atoms: C_3  and  C_17
    4  A    between atoms: C_12  and  N_28
    5  A    between atoms: C_17  and  O_29
    6  A    between atoms: C_18  and  O_29
                            x       y       z     vdW  Elec       q    Type
                         _______ _______ _______ _____ _____    ______ ____

>  <TORSDO>
F 6

$$$$
