=
 OpenBabel11062408373D

 55 62  0  0  1  0  0  0  0  0999 V2000
  161.2900  210.7020  152.4940 C   0  0  0  0  0  2  0  0  0  0  0  0
  160.9900  206.2090  149.9890 C   0  0  0  0  0  2  0  0  0  0  0  0
  162.0500  208.4480  148.2370 O   0  0  0  0  0  1  0  0  0  0  0  0
  163.7940  212.0740  147.1120 C   0  0  0  0  0  2  0  0  0  0  0  0
  163.6310  213.5390  146.7540 C   0  0  0  0  0  3  0  0  0  0  0  0
  161.2820  212.1910  147.5700 C   0  0  0  0  0  2  0  0  0  0  0  0
  162.3910  214.1090  148.8470 C   0  0  0  0  0  2  0  0  0  0  0  0
  160.8180  209.8460  149.5290 C   0  0  0  0  0  2  0  0  0  0  0  0
  163.0210  214.4530  147.5280 C   0  0  0  0  0  3  0  0  0  0  0  0
  161.1780  210.4000  154.9020 O   0  0  0  0  0  0  0  0  0  0  0  0
  162.5730  211.3780  147.7510 C   0  0  2  0  0  3  0  0  0  0  0  0
  161.2810  207.6650  154.7310 C   0  0  2  0  0  3  0  0  0  0  0  0
  162.3240  210.6570  151.3710 C   0  0  0  0  0  2  0  0  0  0  0  0
  161.6980  208.4360  153.4760 C   0  0  0  0  0  2  0  0  0  0  0  0
  161.0460  212.3750  150.0220 C   0  0  2  0  0  3  0  0  0  0  0  0
  161.3520  206.3040  151.4350 C   0  0  0  0  0  3  0  0  0  0  0  0
  161.1660  213.1810  148.7230 C   0  0  2  0  0  3  0  0  0  0  0  0
  160.4350  207.5460  149.5210 C   0  0  0  0  0  2  0  0  0  0  0  0
  161.4870  208.5500  149.4670 N   0  0  0  0  0  0  0  0  0  0  0  0
  159.9200  209.7860  155.0230 C   0  0  0  0  0  2  0  0  0  0  0  0
  161.6640  205.2590  152.2110 C   0  0  0  0  0  0  0  0  0  0  0  0
  161.8050  209.9510  153.7130 C   0  0  1  0  0  3  0  0  0  0  0  0
  162.8920  211.0610  149.1080 O   0  0  0  0  0  0  0  0  0  0  0  0
  161.7660  210.9850  149.9760 C   0  0  2  0  0  0  0  0  0  0  0  0
  162.0270  205.4940  153.6510 C   0  0  0  0  0  2  0  0  0  0  0  0
  160.9110  206.2220  154.3940 C   0  0  0  0  0  2  0  0  0  0  0  0
  160.0860  208.3230  155.4250 C   0  0  0  0  0  2  0  0  0  0  0  0
  159.6480  212.8590  152.0430 C   0  0  0  0  0  3  0  0  0  0  0  0
  157.3350  213.5410  151.8570 N   0  0  0  0  0  0  0  0  0  0  0  0
  158.6260  213.1970  149.7830 C   0  0  0  0  0  2  0  0  0  0  0  0
  157.2570  213.1200  150.4520 C   0  0  0  0  0  2  0  0  0  0  0  0
  158.5490  213.3730  152.6070 C   0  0  0  0  0  3  0  0  0  0  0  0
  159.6260  212.3890  150.6140 C   0  0  1  0  0  3  0  0  0  0  0  0
  156.1390  213.9560  152.5800 C   0  0  0  0  0  3  0  0  0  0  0  0
  154.9170  213.9110  151.6840 C   0  0  0  0  0  1  0  0  0  0  0  0
  155.9300  213.0910  153.8010 C   0  0  0  0  0  1  0  0  0  0  0  0
  161.6920  203.8600  151.6490 C   0  0  0  0  0  2  0  0  0  0  0  0
  160.9210  203.6980  150.3300 C   0  0  2  0  0  3  0  0  0  0  0  0
  160.0510  201.3700  150.1890 C   0  0  0  0  0  2  0  0  0  0  0  0
  159.6940  202.8110  150.5150 C   0  0  0  0  0  3  0  0  0  0  0  0
  159.9440  201.8100  151.6300 C   0  0  0  0  0  2  0  0  0  0  0  0
  161.8210  203.1690  149.2170 C   0  0  0  0  0  2  0  0  0  0  0  0
  163.0990  204.6890  145.6660 O   0  0  0  0  0  0  0  0  0  0  0  0
  161.5190  203.8490  147.8920 C   0  0  1  0  0  3  0  0  0  0  0  0
  162.3740  205.6740  146.3590 C   0  0  2  0  0  3  0  0  0  0  0  0
  162.2230  205.2180  147.8240 C   0  0  0  0  0  2  0  0  0  0  0  0
  160.8880  204.5810  145.1060 C   0  0  1  0  0  3  0  0  0  0  0  0
  162.1090  203.7390  145.4100 C   0  0  2  0  0  3  0  0  0  0  0  0
  161.1000  205.8050  145.7610 O   0  0  0  0  0  0  0  0  0  0  0  0
  161.9050  202.9280  146.7110 C   0  0  2  0  0  3  0  0  0  0  0  0
  160.9220  201.8090  146.5280 C   0  0  0  0  0  0  0  0  0  0  0  0
  160.1130  201.8160  145.5610 O   0  0  0  0  0  0  0  0  0  0  0  0
  160.9120  200.7510  147.4250 O   0  0  0  0  0  1  0  0  0  0  0  0
  160.7700  204.8030  143.6070 C   0  0  0  0  0  2  0  0  0  0  0  0
  161.4520  206.0990  143.2190 C   0  0  0  0  0  1  0  0  0  0  0  0
  2 16  1  0  0  0  0
  3 19  1  0  0  0  0
  5  4  1  0  0  0  0
  5  9  2  0  0  0  0
  6 11  1  0  0  0  0
  9  7  1  0  0  0  0
 10 20  1  0  0  0  0
 11  4  1  1  0  0  0
 11 23  1  0  0  0  0
 12 14  1  6  0  0  0
 12 27  1  0  0  0  0
 13  1  1  0  0  0  0
 14 22  1  0  0  0  0
 15 33  1  6  0  0  0
 16 21  2  0  0  0  0
 17  6  1  6  0  0  0
 17  7  1  0  0  0  0
 17 15  1  0  0  0  0
 18  2  1  0  0  0  0
 19 18  1  0  0  0  0
 19  8  1  0  0  0  0
 20 27  1  0  0  0  0
 21 25  1  0  0  0  0
 22  1  1  6  0  0  0
 22 10  1  0  0  0  0
 23 24  1  0  0  0  0
 24  8  1  6  0  0  0
 24 15  1  0  0  0  0
 24 13  1  0  0  0  0
 25 26  1  0  0  0  0
 26 12  1  0  0  0  0
 28 32  2  0  0  0  0
 29 34  1  0  0  0  0
 29 32  1  0  0  0  0
 30 31  1  0  0  0  0
 31 29  1  0  0  0  0
 33 30  1  6  0  0  0
 33 28  1  0  0  0  0
 34 36  1  0  0  0  0
 35 34  1  0  0  0  0
 37 21  1  0  0  0  0
 38 42  1  6  0  0  0
 38 40  1  0  0  0  0
 38 37  1  0  0  0  0
 39 40  1  0  0  0  0
 39 41  1  0  0  0  0
 40 41  1  0  0  0  0
 43 45  1  0  0  0  0
 44 42  1  1  0  0  0
 45 46  1  1  0  0  0
 46 44  1  0  0  0  0
 47 54  1  6  0  0  0
 47 48  1  0  0  0  0
 47 49  1  0  0  0  0
 48 43  1  1  0  0  0
 48 50  1  0  0  0  0
 49 45  1  0  0  0  0
 50 51  1  6  0  0  0
 50 44  1  0  0  0  0
 51 53  1  0  0  0  0
 52 51  2  0  0  0  0
 55 54  1  0  0  0  0
M  END
>  <MODEL>
1

>  <REMARK>
 VINA RESULT:      -1.2      0.000      0.000
  Name = 
  9 active torsions:
  status: ('A' for Active; 'I' for Inactive)
    1  A    between atoms: C_1  and  C_53
    2  A    between atoms: C_6  and  C_46
    3  A    between atoms: C_8  and  C_22
    4  A    between atoms: C_8  and  C_43
    5  A    between atoms: C_10  and  N_32
    6  A    between atoms: C_11  and  C_29
    7  A    between atoms: C_20  and  C_22
    8  A    between atoms: C_22  and  C_46
    9  A    between atoms: C_33  and  C_52
                            x       y       z     vdW  Elec       q    Type
                         _______ _______ _______ _____ _____    ______ ____

>  <TORSDO>
F 9

$$$$
=
 OpenBabel11062408373D

 55 62  0  0  1  0  0  0  0  0999 V2000
  157.9220  213.5340  141.5330 C   0  0  0  0  0  2  0  0  0  0  0  0
  160.3840  211.7400  145.6890 C   0  0  0  0  0  2  0  0  0  0  0  0
  162.2400  212.1470  143.3240 O   0  0  0  0  0  1  0  0  0  0  0  0
  163.7290  213.5720  139.6890 C   0  0  0  0  0  2  0  0  0  0  0  0
  163.8600  213.4130  138.1870 C   0  0  0  0  0  3  0  0  0  0  0  0
  162.2000  211.5320  139.4940 C   0  0  0  0  0  2  0  0  0  0  0  0
  161.3970  213.2670  137.7950 C   0  0  0  0  0  2  0  0  0  0  0  0
  160.4310  211.7400  142.0190 C   0  0  0  0  0  2  0  0  0  0  0  0
  162.8270  213.2920  137.3360 C   0  0  0  0  0  3  0  0  0  0  0  0
  155.7450  214.4490  142.1020 O   0  0  0  0  0  0  0  0  0  0  0  0
  162.6740  212.6890  140.3890 C   0  0  2  0  0  3  0  0  0  0  0  0
  156.1600  214.2020  144.8000 C   0  0  2  0  0  3  0  0  0  0  0  0
  159.3860  213.9670  141.5040 C   0  0  0  0  0  2  0  0  0  0  0  0
  157.4050  214.1050  143.9140 C   0  0  0  0  0  2  0  0  0  0  0  0
  159.8900  212.4040  139.5790 C   0  0  2  0  0  3  0  0  0  0  0  0
  159.2450  212.7020  145.7790 C   0  0  0  0  0  3  0  0  0  0  0  0
  161.0400  212.0260  138.6370 C   0  0  2  0  0  3  0  0  0  0  0  0
  160.4520  211.1700  144.2810 C   0  0  0  0  0  2  0  0  0  0  0  0
  160.8840  212.1860  143.3340 N   0  0  0  0  0  0  0  0  0  0  0  0
  155.1290  213.3160  142.6590 C   0  0  0  0  0  2  0  0  0  0  0  0
  158.7720  213.2170  146.9210 C   0  0  0  0  0  0  0  0  0  0  0  0
  157.1200  214.4520  142.4450 C   0  0  1  0  0  3  0  0  0  0  0  0
  161.6270  213.5330  140.8750 O   0  0  0  0  0  0  0  0  0  0  0  0
  160.3590  212.8940  140.9910 C   0  0  2  0  0  0  0  0  0  0  0  0
  157.6270  214.1900  146.8710 C   0  0  0  0  0  2  0  0  0  0  0  0
  156.4120  213.5840  146.1750 C   0  0  0  0  0  2  0  0  0  0  0  0
  154.9600  213.4960  144.1650 C   0  0  0  0  0  2  0  0  0  0  0  0
  157.4050  212.0970  139.5340 C   0  0  0  0  0  3  0  0  0  0  0  0
  156.3810  210.1460  138.5380 N   0  0  0  0  0  0  0  0  0  0  0  0
  158.8350  210.3700  138.4220 C   0  0  0  0  0  2  0  0  0  0  0  0
  157.6530  209.4110  138.5160 C   0  0  0  0  0  2  0  0  0  0  0  0
  156.3120  211.4780  139.0720 C   0  0  0  0  0  3  0  0  0  0  0  0
  158.7330  211.3910  139.5580 C   0  0  1  0  0  3  0  0  0  0  0  0
  155.1280  209.4800  138.2040 C   0  0  0  0  0  3  0  0  0  0  0  0
  155.2420  207.9790  138.3840 C   0  0  0  0  0  1  0  0  0  0  0  0
  153.9960  210.0280  139.0430 C   0  0  0  0  0  1  0  0  0  0  0  0
  159.3980  212.8620  148.2460 C   0  0  0  0  0  2  0  0  0  0  0  0
  160.3250  213.9480  148.8130 C   0  0  2  0  0  3  0  0  0  0  0  0
  162.0250  212.4360  147.8020 C   0  0  0  0  0  2  0  0  0  0  0  0
  161.7650  213.4520  148.9010 C   0  0  0  0  0  3  0  0  0  0  0  0
  162.5260  213.8530  147.6490 C   0  0  0  0  0  2  0  0  0  0  0  0
  159.8320  214.4520  150.1670 C   0  0  0  0  0  2  0  0  0  0  0  0
  159.9490  212.5570  153.7650 O   0  0  0  0  0  0  0  0  0  0  0  0
  159.4040  213.3010  151.0630 C   0  0  1  0  0  3  0  0  0  0  0  0
  160.3230  211.6560  152.7540 C   0  0  2  0  0  3  0  0  0  0  0  0
  160.6300  212.4670  151.4790 C   0  0  0  0  0  2  0  0  0  0  0  0
  158.1120  211.4590  152.9680 C   0  0  1  0  0  3  0  0  0  0  0  0
  158.6150  212.8080  153.4410 C   0  0  2  0  0  3  0  0  0  0  0  0
  159.2490  210.7700  152.5150 O   0  0  0  0  0  0  0  0  0  0  0  0
  158.6100  213.8300  152.2800 C   0  0  2  0  0  3  0  0  0  0  0  0
  157.2190  214.2470  151.9030 C   0  0  0  0  0  0  0  0  0  0  0  0
  156.9150  214.4530  150.6960 O   0  0  0  0  0  0  0  0  0  0  0  0
  156.2540  214.3940  152.8890 O   0  0  0  0  0  1  0  0  0  0  0  0
  157.4720  210.7100  154.1260 C   0  0  0  0  0  2  0  0  0  0  0  0
  156.3890  211.5590  154.7600 C   0  0  0  0  0  1  0  0  0  0  0  0
  2 16  1  0  0  0  0
  3 19  1  0  0  0  0
  4 11  1  0  0  0  0
  5  4  1  0  0  0  0
  8 19  1  0  0  0  0
  9  7  1  0  0  0  0
  9  5  2  0  0  0  0
 10 22  1  0  0  0  0
 10 20  1  0  0  0  0
 11  6  1  6  0  0  0
 11 23  1  0  0  0  0
 12 14  1  6  0  0  0
 12 26  1  0  0  0  0
 13  1  1  0  0  0  0
 15 33  1  1  0  0  0
 15 24  1  0  0  0  0
 16 21  2  0  0  0  0
 17  7  1  1  0  0  0
 17  6  1  0  0  0  0
 17 15  1  0  0  0  0
 18  2  1  0  0  0  0
 19 18  1  0  0  0  0
 20 27  1  0  0  0  0
 21 37  1  0  0  0  0
 22  1  1  6  0  0  0
 22 14  1  0  0  0  0
 23 24  1  0  0  0  0
 24 13  1  1  0  0  0
 24  8  1  0  0  0  0
 25 21  1  0  0  0  0
 26 25  1  0  0  0  0
 27 12  1  0  0  0  0
 28 33  1  0  0  0  0
 29 32  1  0  0  0  0
 30 31  1  0  0  0  0
 31 29  1  0  0  0  0
 32 28  2  0  0  0  0
 33 30  1  6  0  0  0
 34 35  1  0  0  0  0
 34 29  1  0  0  0  0
 34 36  1  0  0  0  0
 38 37  1  1  0  0  0
 38 40  1  0  0  0  0
 38 42  1  0  0  0  0
 39 40  1  0  0  0  0
 41 39  1  0  0  0  0
 41 40  1  0  0  0  0
 44 42  1  1  0  0  0
 44 46  1  0  0  0  0
 44 50  1  0  0  0  0
 45 46  1  6  0  0  0
 45 43  1  0  0  0  0
 47 48  1  0  0  0  0
 47 54  1  1  0  0  0
 48 43  1  6  0  0  0
 49 45  1  0  0  0  0
 49 47  1  0  0  0  0
 50 51  1  6  0  0  0
 50 48  1  0  0  0  0
 51 53  1  0  0  0  0
 52 51  2  0  0  0  0
 54 55  1  0  0  0  0
M  END
>  <MODEL>
2

>  <REMARK>
 VINA RESULT:      -0.6      6.058     11.391
  Name = 
  9 active torsions:
  status: ('A' for Active; 'I' for Inactive)
    1  A    between atoms: C_1  and  C_53
    2  A    between atoms: C_6  and  C_46
    3  A    between atoms: C_8  and  C_22
    4  A    between atoms: C_8  and  C_43
    5  A    between atoms: C_10  and  N_32
    6  A    between atoms: C_11  and  C_29
    7  A    between atoms: C_20  and  C_22
    8  A    between atoms: C_22  and  C_46
    9  A    between atoms: C_33  and  C_52
                            x       y       z     vdW  Elec       q    Type
                         _______ _______ _______ _____ _____    ______ ____

>  <TORSDO>
F 9

$$$$
=
 OpenBabel11062408373D

 55 62  0  0  1  0  0  0  0  0999 V2000
  157.4180  213.5730  141.7140 C   0  0  0  0  0  2  0  0  0  0  0  0
  160.2990  211.6670  145.5380 C   0  0  0  0  0  2  0  0  0  0  0  0
  161.9040  212.1670  143.0120 O   0  0  0  0  0  1  0  0  0  0  0  0
  163.0090  213.7240  139.2950 C   0  0  0  0  0  2  0  0  0  0  0  0
  162.9870  213.6140  137.7830 C   0  0  0  0  0  3  0  0  0  0  0  0
  161.4790  211.6780  139.1870 C   0  0  0  0  0  2  0  0  0  0  0  0
  160.4980  213.4590  137.6370 C   0  0  0  0  0  2  0  0  0  0  0  0
  159.9740  211.7870  141.8840 C   0  0  0  0  0  2  0  0  0  0  0  0
  161.8740  213.5120  137.0370 C   0  0  0  0  0  3  0  0  0  0  0  0
  155.3050  214.4500  142.5300 O   0  0  0  0  0  0  0  0  0  0  0  0
  162.0340  212.8080  140.0670 C   0  0  2  0  0  3  0  0  0  0  0  0
  155.9930  214.1180  145.1630 C   0  0  2  0  0  3  0  0  0  0  0  0
  158.8700  214.0200  141.5520 C   0  0  0  0  0  2  0  0  0  0  0  0
  157.1420  214.0620  144.1530 C   0  0  0  0  0  2  0  0  0  0  0  0
  159.1850  212.5250  139.5340 C   0  0  2  0  0  3  0  0  0  0  0  0
  159.1700  212.6150  145.7740 C   0  0  0  0  0  3  0  0  0  0  0  0
  160.2350  212.1880  138.4690 C   0  0  2  0  0  3  0  0  0  0  0  0
  160.2270  211.1430  144.1120 C   0  0  0  0  0  2  0  0  0  0  0  0
  160.5560  212.1940  143.1600 N   0  0  0  0  0  0  0  0  0  0  0  0
  154.7560  213.2930  143.1080 C   0  0  0  0  0  2  0  0  0  0  0  0
  158.8120  213.0880  146.9750 C   0  0  0  0  0  0  0  0  0  0  0  0
  156.7080  214.4530  142.7320 C   0  0  1  0  0  3  0  0  0  0  0  0
  161.0380  213.6270  140.6850 O   0  0  0  0  0  0  0  0  0  0  0  0
  159.7920  212.9730  140.9070 C   0  0  2  0  0  0  0  0  0  0  0  0
  157.6630  214.0520  147.0730 C   0  0  0  0  0  2  0  0  0  0  0  0
  156.3870  213.4580  146.4840 C   0  0  0  0  0  2  0  0  0  0  0  0
  154.7390  213.4230  144.6290 C   0  0  0  0  0  2  0  0  0  0  0  0
  156.7420  212.1270  139.1550 C   0  0  0  0  0  3  0  0  0  0  0  0
  155.8830  209.9410  138.5750 N   0  0  0  0  0  0  0  0  0  0  0  0
  158.3220  210.2160  138.8190 C   0  0  0  0  0  2  0  0  0  0  0  0
  157.1310  209.2760  138.9720 C   0  0  0  0  0  2  0  0  0  0  0  0
  155.7380  211.3650  138.7020 C   0  0  0  0  0  3  0  0  0  0  0  0
  158.0370  211.5030  139.5960 C   0  0  1  0  0  3  0  0  0  0  0  0
  154.6990  209.1640  138.2300 C   0  0  0  0  0  3  0  0  0  0  0  0
  153.9060  208.7980  139.4680 C   0  0  0  0  0  1  0  0  0  0  0  0
  153.8320  209.9240  137.2530 C   0  0  0  0  0  1  0  0  0  0  0  0
  159.5710  212.6960  148.2170 C   0  0  0  0  0  2  0  0  0  0  0  0
  160.3280  213.8550  148.8820 C   0  0  2  0  0  3  0  0  0  0  0  0
  162.7300  214.4490  148.6020 C   0  0  0  0  0  2  0  0  0  0  0  0
  161.3650  214.4530  147.9350 C   0  0  0  0  0  3  0  0  0  0  0  0
  162.3950  213.3990  147.5680 C   0  0  0  0  0  2  0  0  0  0  0  0
  160.9700  213.4220  150.1980 C   0  0  0  0  0  2  0  0  0  0  0  0
  162.8410  209.9610  151.2350 O   0  0  0  0  0  0  0  0  0  0  0  0
  160.9500  211.9100  150.3510 C   0  0  1  0  0  3  0  0  0  0  0  0
  162.3630  209.8540  149.9170 C   0  0  2  0  0  3  0  0  0  0  0  0
  161.9990  211.2680  149.4230 C   0  0  0  0  0  2  0  0  0  0  0  0
  160.7240  209.1060  151.2320 C   0  0  1  0  0  3  0  0  0  0  0  0
  161.6520  210.0560  151.9600 C   0  0  2  0  0  3  0  0  0  0  0  0
  161.2140  209.0320  149.9180 O   0  0  0  0  0  0  0  0  0  0  0  0
  161.1520  211.5130  151.8320 C   0  0  2  0  0  3  0  0  0  0  0  0
  159.9190  211.7600  152.6510 C   0  0  0  0  0  0  0  0  0  0  0  0
  158.7770  211.4890  152.1900 O   0  0  0  0  0  0  0  0  0  0  0  0
  160.0380  212.2770  153.9320 O   0  0  0  0  0  1  0  0  0  0  0  0
  160.7700  207.7340  151.8850 C   0  0  0  0  0  2  0  0  0  0  0  0
  161.2590  207.8550  153.3140 C   0  0  0  0  0  1  0  0  0  0  0  0
  2 16  1  0  0  0  0
  3 19  1  0  0  0  0
  4 11  1  0  0  0  0
  5  4  1  0  0  0  0
  8 19  1  0  0  0  0
  9  7  1  0  0  0  0
  9  5  2  0  0  0  0
 10 22  1  0  0  0  0
 10 20  1  0  0  0  0
 11  6  1  6  0  0  0
 11 23  1  0  0  0  0
 12 14  1  6  0  0  0
 12 26  1  0  0  0  0
 13  1  1  0  0  0  0
 15 33  1  1  0  0  0
 15 24  1  0  0  0  0
 16 21  2  0  0  0  0
 17  7  1  1  0  0  0
 17  6  1  0  0  0  0
 17 15  1  0  0  0  0
 18  2  1  0  0  0  0
 19 18  1  0  0  0  0
 20 27  1  0  0  0  0
 21 25  1  0  0  0  0
 21 37  1  0  0  0  0
 22  1  1  6  0  0  0
 22 14  1  0  0  0  0
 23 24  1  0  0  0  0
 24 13  1  1  0  0  0
 24  8  1  0  0  0  0
 26 25  1  0  0  0  0
 27 12  1  0  0  0  0
 28 33  1  0  0  0  0
 29 32  1  0  0  0  0
 29 31  1  0  0  0  0
 30 31  1  0  0  0  0
 32 28  2  0  0  0  0
 33 30  1  6  0  0  0
 34 29  1  0  0  0  0
 34 35  1  0  0  0  0
 36 34  1  0  0  0  0
 38 37  1  6  0  0  0
 38 42  1  0  0  0  0
 40 39  1  0  0  0  0
 40 38  1  0  0  0  0
 41 40  1  0  0  0  0
 41 39  1  0  0  0  0
 44 42  1  1  0  0  0
 44 50  1  0  0  0  0
 45 46  1  1  0  0  0
 45 49  1  0  0  0  0
 45 43  1  0  0  0  0
 46 44  1  0  0  0  0
 47 54  1  1  0  0  0
 47 48  1  0  0  0  0
 48 43  1  6  0  0  0
 49 47  1  0  0  0  0
 50 48  1  0  0  0  0
 50 51  1  1  0  0  0
 51 53  1  0  0  0  0
 52 51  2  0  0  0  0
 54 55  1  0  0  0  0
M  END
>  <MODEL>
3

>  <REMARK>
 VINA RESULT:      -0.2      6.091     10.828
  Name = 
  9 active torsions:
  status: ('A' for Active; 'I' for Inactive)
    1  A    between atoms: C_1  and  C_53
    2  A    between atoms: C_6  and  C_46
    3  A    between atoms: C_8  and  C_22
    4  A    between atoms: C_8  and  C_43
    5  A    between atoms: C_10  and  N_32
    6  A    between atoms: C_11  and  C_29
    7  A    between atoms: C_20  and  C_22
    8  A    between atoms: C_22  and  C_46
    9  A    between atoms: C_33  and  C_52
                            x       y       z     vdW  Elec       q    Type
                         _______ _______ _______ _____ _____    ______ ____

>  <TORSDO>
F 9

$$$$
