=
 OpenBabel11052423013D

 28 32  0  0  1  0  0  0  0  0999 V2000
  160.8760  209.5450  151.9970 C   0  0  1  0  0  3  0  0  0  0  0  0
  162.3550  213.3570  147.2610 C   0  0  1  0  0  3  0  0  0  0  0  0
  159.3330  214.2480  151.9180 O   0  0  0  0  0  1  0  0  0  0  0  0
  160.1070  212.4650  147.1120 C   0  0  2  0  0  3  0  0  0  0  0  0
  161.3690  212.3540  149.3870 C   0  0  2  0  0  3  0  0  0  0  0  0
  161.8950  213.5050  145.8190 C   0  0  1  0  0  3  0  0  0  0  0  0
  161.4340  212.3210  147.8550 C   0  0  2  0  0  3  0  0  0  0  0  0
  158.9970  213.1830  149.2720 C   0  0  0  0  0  2  0  0  0  0  0  0
  160.4970  212.9920  145.7290 C   0  0  2  0  0  3  0  0  0  0  0  0
  160.0170  211.9340  151.9680 C   0  0  2  0  0  3  0  0  0  0  0  0
  161.0500  210.9580  149.9200 C   0  0  0  0  0  2  0  0  0  0  0  0
  159.1150  213.4320  147.7780 C   0  0  0  0  0  2  0  0  0  0  0  0
  159.6580  210.5120  153.9790 C   0  0  0  0  0  2  0  0  0  0  0  0
  160.2980  213.3510  151.4510 C   0  0  1  0  0  3  0  0  0  0  0  0
  159.9850  211.9160  153.4930 C   0  0  0  0  0  2  0  0  0  0  0  0
  160.7890  214.3710  145.7690 O   0  0  0  0  0  0  0  0  0  0  0  0
  163.7230  212.8730  147.2890 N   0  0  0  0  0  1  0  0  0  0  0  0
  160.3660  213.3930  149.9170 C   0  0  1  0  0  3  0  0  0  0  0  0
  160.7420  209.5440  153.5220 C   0  0  0  0  0  2  0  0  0  0  0  0
  161.0920  210.9650  151.4450 C   0  0  2  0  0  3  0  0  0  0  0  0
  161.9740  208.5660  151.5580 C   0  0  0  0  0  2  0  0  0  0  0  0
  161.4300  207.3480  150.9570 N   0  0  0  0  0  0  0  0  0  0  0  0
  161.9260  206.0600  152.8520 O   0  0  0  0  0  0  0  0  0  0  0  0
  161.4490  206.1060  151.6870 C   0  0  0  0  0  0  0  0  0  0  0  0
  160.9520  204.8390  151.0720 C   0  0  0  0  0  2  0  0  0  0  0  0
  160.9550  203.7260  152.1010 C   0  0  0  0  0  1  0  0  0  0  0  0
  161.1400  207.3680  149.5270 C   0  0  0  0  0  2  0  0  0  0  0  0
  162.3920  207.7030  148.7370 C   0  0  0  0  0  1  0  0  0  0  0  0
  1 21  1  1  0  0  0
  1 19  1  0  0  0  0
  2 17  1  6  0  0  0
  2  7  1  0  0  0  0
  4 12  1  1  0  0  0
  4  7  1  0  0  0  0
  5 18  1  0  0  0  0
  5 11  1  6  0  0  0
  6 16  1  1  0  0  0
  6  2  1  0  0  0  0
  7  5  1  0  0  0  0
  8 18  1  0  0  0  0
  9 16  1  0  0  0  0
  9  6  1  0  0  0  0
  9  4  1  0  0  0  0
 10 15  1  0  0  0  0
 11 20  1  0  0  0  0
 12  8  1  0  0  0  0
 14  3  1  0  0  0  0
 14 10  1  0  0  0  0
 15 13  1  0  0  0  0
 18 14  1  0  0  0  0
 19 13  1  0  0  0  0
 20 10  1  0  0  0  0
 20  1  1  0  0  0  0
 22 21  1  0  0  0  0
 22 24  1  0  0  0  0
 24 23  2  0  0  0  0
 25 24  1  0  0  0  0
 25 26  1  0  0  0  0
 27 22  1  0  0  0  0
 28 27  1  0  0  0  0
M  END
>  <MODEL>
1

>  <REMARK>
 VINA RESULT:      -5.2      0.000      0.000
  Name = 
  4 active torsions:
  status: ('A' for Active; 'I' for Inactive)
    1  A    between atoms: C_1  and  C_2
    2  A    between atoms: C_2  and  N_3
    3  A    between atoms: N_3  and  C_7
    4  A    between atoms: C_6  and  C_11
                            x       y       z     vdW  Elec       q    Type
                         _______ _______ _______ _____ _____    ______ ____

>  <TORSDO>
F 4

$$$$
=
 OpenBabel11052423013D

 28 32  0  0  1  0  0  0  0  0999 V2000
  160.7770  209.9110  152.2270 C   0  0  1  0  0  3  0  0  0  0  0  0
  162.2800  213.6510  147.4420 C   0  0  1  0  0  3  0  0  0  0  0  0
  158.8260  214.4410  151.8080 O   0  0  0  0  0  1  0  0  0  0  0  0
  160.1420  212.5470  147.1640 C   0  0  2  0  0  3  0  0  0  0  0  0
  161.2210  212.6460  149.5320 C   0  0  2  0  0  3  0  0  0  0  0  0
  161.9260  213.6980  145.9640 C   0  0  1  0  0  3  0  0  0  0  0  0
  161.4130  212.5580  148.0130 C   0  0  2  0  0  3  0  0  0  0  0  0
  158.8010  213.2430  149.1970 C   0  0  0  0  0  2  0  0  0  0  0  0
  160.5920  213.0520  145.7920 C   0  0  2  0  0  3  0  0  0  0  0  0
  159.7110  212.2050  152.0190 C   0  0  2  0  0  3  0  0  0  0  0  0
  160.9880  211.2490  150.1040 C   0  0  0  0  0  2  0  0  0  0  0  0
  159.0160  213.4420  147.7070 C   0  0  0  0  0  2  0  0  0  0  0  0
  159.3210  210.8370  154.0620 C   0  0  0  0  0  2  0  0  0  0  0  0
  159.9030  213.6200  151.4590 C   0  0  1  0  0  3  0  0  0  0  0  0
  159.5580  212.2450  153.5360 C   0  0  0  0  0  2  0  0  0  0  0  0
  160.7540  214.4530  145.7890 O   0  0  0  0  0  0  0  0  0  0  0  0
  163.6800  213.2990  147.5980 N   0  0  0  0  0  1  0  0  0  0  0  0
  160.0900  213.6070  149.9340 C   0  0  1  0  0  3  0  0  0  0  0  0
  160.5220  209.9580  153.7350 C   0  0  0  0  0  2  0  0  0  0  0  0
  160.9070  211.3210  151.6260 C   0  0  2  0  0  3  0  0  0  0  0  0
  161.9910  209.0210  151.9200 C   0  0  0  0  0  2  0  0  0  0  0  0
  161.6050  207.6980  151.4280 N   0  0  0  0  0  0  0  0  0  0  0  0
  162.1650  208.2380  149.2160 O   0  0  0  0  0  0  0  0  0  0  0  0
  161.7220  207.3820  150.0270 C   0  0  0  0  0  0  0  0  0  0  0  0
  161.2810  206.0580  149.4940 C   0  0  0  0  0  2  0  0  0  0  0  0
  160.5810  206.2420  148.1620 C   0  0  0  0  0  1  0  0  0  0  0  0
  160.8490  206.8340  152.3270 C   0  0  0  0  0  2  0  0  0  0  0  0
  161.7430  206.3130  153.4380 C   0  0  0  0  0  1  0  0  0  0  0  0
  1 21  1  1  0  0  0
  1 19  1  0  0  0  0
  2 17  1  6  0  0  0
  2  7  1  0  0  0  0
  4 12  1  1  0  0  0
  4  7  1  0  0  0  0
  5 18  1  0  0  0  0
  5 11  1  6  0  0  0
  6 16  1  1  0  0  0
  6  2  1  0  0  0  0
  7  5  1  0  0  0  0
  8 18  1  0  0  0  0
  9  6  1  0  0  0  0
  9  4  1  0  0  0  0
 10 15  1  0  0  0  0
 11 20  1  0  0  0  0
 12  8  1  0  0  0  0
 14  3  1  0  0  0  0
 14 10  1  0  0  0  0
 15 13  1  0  0  0  0
 16  9  1  0  0  0  0
 18 14  1  0  0  0  0
 19 13  1  0  0  0  0
 20 10  1  0  0  0  0
 20  1  1  0  0  0  0
 22 21  1  0  0  0  0
 22 27  1  0  0  0  0
 23 24  2  0  0  0  0
 24 22  1  0  0  0  0
 25 24  1  0  0  0  0
 26 25  1  0  0  0  0
 27 28  1  0  0  0  0
M  END
>  <MODEL>
2

>  <REMARK>
 VINA RESULT:      -5.2      1.179      1.741
  Name = 
  4 active torsions:
  status: ('A' for Active; 'I' for Inactive)
    1  A    between atoms: C_1  and  C_2
    2  A    between atoms: C_2  and  N_3
    3  A    between atoms: N_3  and  C_7
    4  A    between atoms: C_6  and  C_11
                            x       y       z     vdW  Elec       q    Type
                         _______ _______ _______ _____ _____    ______ ____

>  <TORSDO>
F 4

$$$$
=
 OpenBabel11052423013D

 28 32  0  0  1  0  0  0  0  0999 V2000
  160.8820  207.8620  152.1050 C   0  0  1  0  0  3  0  0  0  0  0  0
  158.9940  213.7170  153.2490 C   0  0  1  0  0  3  0  0  0  0  0  0
  160.3460  209.5200  156.7380 O   0  0  0  0  0  1  0  0  0  0  0  0
  157.2280  212.0750  153.4780 C   0  0  2  0  0  3  0  0  0  0  0  0
  159.7070  211.2800  153.4780 C   0  0  2  0  0  3  0  0  0  0  0  0
  157.6670  214.4530  153.1600 C   0  0  1  0  0  3  0  0  0  0  0  0
  158.6560  212.2740  152.9710 C   0  0  2  0  0  3  0  0  0  0  0  0
  158.0940  210.4530  155.2200 C   0  0  0  0  0  2  0  0  0  0  0  0
  156.5750  213.4520  153.3380 C   0  0  2  0  0  3  0  0  0  0  0  0
  160.5650  208.6550  154.4960 C   0  0  2  0  0  3  0  0  0  0  0  0
  159.6940  210.0260  152.6050 C   0  0  0  0  0  2  0  0  0  0  0  0
  157.1400  211.6010  154.9370 C   0  0  0  0  0  2  0  0  0  0  0  0
  161.5770  206.4240  154.0530 C   0  0  0  0  0  2  0  0  0  0  0  0
  160.5660  209.8890  155.4080 C   0  0  1  0  0  3  0  0  0  0  0  0
  161.6290  207.6570  154.9420 C   0  0  0  0  0  2  0  0  0  0  0  0
  156.9770  214.3180  154.3770 O   0  0  0  0  0  0  0  0  0  0  0  0
  159.8980  214.2150  152.2270 N   0  0  0  0  0  1  0  0  0  0  0  0
  159.5230  210.9250  154.9620 C   0  0  1  0  0  3  0  0  0  0  0  0
  161.8770  206.8160  152.6120 C   0  0  0  0  0  2  0  0  0  0  0  0
  160.8130  209.0830  153.0390 C   0  0  2  0  0  3  0  0  0  0  0  0
  161.2030  208.2440  150.6530 C   0  0  0  0  0  2  0  0  0  0  0  0
  161.1910  207.0900  149.7540 N   0  0  0  0  0  0  0  0  0  0  0  0
  162.6740  208.1080  148.2510 O   0  0  0  0  0  0  0  0  0  0  0  0
  161.9700  207.1050  148.5410 C   0  0  0  0  0  0  0  0  0  0  0  0
  161.9270  205.9610  147.5810 C   0  0  0  0  0  2  0  0  0  0  0  0
  160.9270  206.2470  146.4790 C   0  0  0  0  0  1  0  0  0  0  0  0
  160.1700  206.0710  149.9720 C   0  0  0  0  0  2  0  0  0  0  0  0
  160.8140  204.7260  150.2510 C   0  0  0  0  0  1  0  0  0  0  0  0
  1 21  1  6  0  0  0
  1 19  1  0  0  0  0
  1 20  1  0  0  0  0
  2 17  1  6  0  0  0
  4 12  1  1  0  0  0
  5 11  1  6  0  0  0
  5 18  1  0  0  0  0
  6  2  1  0  0  0  0
  6  9  1  0  0  0  0
  6 16  1  1  0  0  0
  7  2  1  0  0  0  0
  7  5  1  0  0  0  0
  7  4  1  0  0  0  0
  9  4  1  0  0  0  0
  9 16  1  0  0  0  0
 10 15  1  0  0  0  0
 10 14  1  0  0  0  0
 11 20  1  0  0  0  0
 12  8  1  0  0  0  0
 13 15  1  0  0  0  0
 14  3  1  0  0  0  0
 18  8  1  0  0  0  0
 18 14  1  0  0  0  0
 19 13  1  0  0  0  0
 20 10  1  0  0  0  0
 22 27  1  0  0  0  0
 22 21  1  0  0  0  0
 23 24  2  0  0  0  0
 24 22  1  0  0  0  0
 25 24  1  0  0  0  0
 26 25  1  0  0  0  0
 27 28  1  0  0  0  0
M  END
>  <MODEL>
3

>  <REMARK>
 VINA RESULT:      -5.1      3.897      5.456
  Name = 
  4 active torsions:
  status: ('A' for Active; 'I' for Inactive)
    1  A    between atoms: C_1  and  C_2
    2  A    between atoms: C_2  and  N_3
    3  A    between atoms: N_3  and  C_7
    4  A    between atoms: C_6  and  C_11
                            x       y       z     vdW  Elec       q    Type
                         _______ _______ _______ _____ _____    ______ ____

>  <TORSDO>
F 4

$$$$
=
 OpenBabel11052423013D

 28 32  0  0  1  0  0  0  0  0999 V2000
  161.2890  206.8150  151.7530 C   0  0  1  0  0  3  0  0  0  0  0  0
  160.3620  205.5580  145.6940 C   0  0  1  0  0  3  0  0  0  0  0  0
  161.0280  202.1500  150.1170 O   0  0  0  0  0  1  0  0  0  0  0  0
  162.6760  205.3420  146.3780 C   0  0  2  0  0  3  0  0  0  0  0  0
  160.8130  205.3750  148.1970 C   0  0  2  0  0  3  0  0  0  0  0  0
  161.2200  205.6230  144.4410 C   0  0  1  0  0  3  0  0  0  0  0  0
  161.3100  205.8570  146.8280 C   0  0  2  0  0  3  0  0  0  0  0  0
  162.6260  203.6340  148.2480 C   0  0  0  0  0  2  0  0  0  0  0  0
  162.6450  205.4530  144.8520 C   0  0  2  0  0  3  0  0  0  0  0  0
  161.2180  204.4090  150.9470 C   0  0  2  0  0  3  0  0  0  0  0  0
  161.3850  206.2690  149.2960 C   0  0  0  0  0  2  0  0  0  0  0  0
  162.9660  203.8900  146.7900 C   0  0  0  0  0  2  0  0  0  0  0  0
  161.3110  204.8970  153.3860 C   0  0  0  0  0  2  0  0  0  0  0  0
  160.6660  203.4760  149.8610 C   0  0  1  0  0  3  0  0  0  0  0  0
  160.7120  203.9880  152.3230 C   0  0  0  0  0  2  0  0  0  0  0  0
  161.8980  204.4040  144.2760 O   0  0  0  0  0  0  0  0  0  0  0  0
  159.3310  206.5780  145.6340 N   0  0  0  0  0  1  0  0  0  0  0  0
  161.1360  203.8960  148.4590 C   0  0  1  0  0  3  0  0  0  0  0  0
  160.8660  206.3340  153.1430 C   0  0  0  0  0  2  0  0  0  0  0  0
  160.8060  205.8600  150.6480 C   0  0  2  0  0  3  0  0  0  0  0  0
  160.8310  208.2630  151.5280 C   0  0  0  0  0  2  0  0  0  0  0  0
  161.6280  209.2270  152.2870 N   0  0  0  0  0  0  0  0  0  0  0  0
  160.1110  209.2370  154.0740 O   0  0  0  0  0  0  0  0  0  0  0  0
  161.1840  209.6770  153.5820 C   0  0  0  0  0  0  0  0  0  0  0  0
  161.9520  210.7030  154.3490 C   0  0  0  0  0  2  0  0  0  0  0  0
  162.0520  210.2940  155.8050 C   0  0  0  0  0  1  0  0  0  0  0  0
  162.7060  209.9170  151.5870 C   0  0  0  0  0  2  0  0  0  0  0  0
  162.2810  210.2660  150.1720 C   0  0  0  0  0  1  0  0  0  0  0  0
  1 21  1  6  0  0  0
  1 19  1  0  0  0  0
  2 17  1  6  0  0  0
  2  7  1  0  0  0  0
  4 12  1  6  0  0  0
  4  7  1  0  0  0  0
  5 18  1  0  0  0  0
  5 11  1  1  0  0  0
  6 16  1  6  0  0  0
  6  9  1  0  0  0  0
  6  2  1  0  0  0  0
  7  5  1  0  0  0  0
  8 18  1  0  0  0  0
  9  4  1  0  0  0  0
 10 15  1  0  0  0  0
 11 20  1  0  0  0  0
 12  8  1  0  0  0  0
 14  3  1  0  0  0  0
 14 10  1  0  0  0  0
 15 13  1  0  0  0  0
 16  9  1  0  0  0  0
 18 14  1  0  0  0  0
 19 13  1  0  0  0  0
 20 10  1  0  0  0  0
 20  1  1  0  0  0  0
 21 22  1  0  0  0  0
 22 24  1  0  0  0  0
 24 23  2  0  0  0  0
 24 25  1  0  0  0  0
 25 26  1  0  0  0  0
 27 22  1  0  0  0  0
 28 27  1  0  0  0  0
M  END
>  <MODEL>
4

>  <REMARK>
 VINA RESULT:      -4.9      3.825      7.214
  Name = 
  4 active torsions:
  status: ('A' for Active; 'I' for Inactive)
    1  A    between atoms: C_1  and  C_2
    2  A    between atoms: C_2  and  N_3
    3  A    between atoms: N_3  and  C_7
    4  A    between atoms: C_6  and  C_11
                            x       y       z     vdW  Elec       q    Type
                         _______ _______ _______ _____ _____    ______ ____

>  <TORSDO>
F 4

$$$$
=
 OpenBabel11052423013D

 28 32  0  0  1  0  0  0  0  0999 V2000
  161.2130  206.4280  150.2470 C   0  0  1  0  0  3  0  0  0  0  0  0
  159.3170  210.4670  154.6330 C   0  0  1  0  0  3  0  0  0  0  0  0
  162.5270  211.1980  150.0750 O   0  0  0  0  0  1  0  0  0  0  0  0
  161.5930  209.7010  154.9510 C   0  0  2  0  0  3  0  0  0  0  0  0
  160.4560  209.3760  152.6310 C   0  0  2  0  0  3  0  0  0  0  0  0
  159.6950  210.7340  156.0820 C   0  0  1  0  0  3  0  0  0  0  0  0
  160.3140  209.4410  154.1560 C   0  0  2  0  0  3  0  0  0  0  0  0
  162.7780  210.3280  152.8010 C   0  0  0  0  0  2  0  0  0  0  0  0
  161.1090  210.2980  156.2740 C   0  0  2  0  0  3  0  0  0  0  0  0
  161.9560  208.8530  150.1530 C   0  0  2  0  0  3  0  0  0  0  0  0
  160.8670  207.9650  152.2110 C   0  0  0  0  0  2  0  0  0  0  0  0
  162.5710  210.6700  154.2670 C   0  0  0  0  0  2  0  0  0  0  0  0
  162.4840  207.3210  148.2630 C   0  0  0  0  0  2  0  0  0  0  0  0
  161.5830  210.2860  150.5570 C   0  0  1  0  0  3  0  0  0  0  0  0
  162.0670  208.7360  148.6360 C   0  0  0  0  0  2  0  0  0  0  0  0
  160.7550  211.6550  156.1250 O   0  0  0  0  0  0  0  0  0  0  0  0
  157.9760  209.9130  154.5730 N   0  0  0  0  0  1  0  0  0  0  0  0
  161.4350  210.4260  152.0790 C   0  0  1  0  0  3  0  0  0  0  0  0
  161.4240  206.3320  148.7340 C   0  0  0  0  0  2  0  0  0  0  0  0
  160.9030  207.8690  150.6890 C   0  0  2  0  0  3  0  0  0  0  0  0
  160.1410  205.4260  150.7000 C   0  0  0  0  0  2  0  0  0  0  0  0
  160.6940  204.0970  150.9650 N   0  0  0  0  0  0  0  0  0  0  0  0
  160.4380  203.4260  148.7330 O   0  0  0  0  0  0  0  0  0  0  0  0
  160.8060  203.1310  149.9010 C   0  0  0  0  0  0  0  0  0  0  0  0
  161.3140  201.7510  150.1610 C   0  0  0  0  0  2  0  0  0  0  0  0
  161.2060  200.9130  148.9010 C   0  0  0  0  0  1  0  0  0  0  0  0
  160.8530  203.6950  152.3580 C   0  0  0  0  0  2  0  0  0  0  0  0
  161.2060  204.8930  153.2190 C   0  0  0  0  0  1  0  0  0  0  0  0
  1 20  1  0  0  0  0
  1 21  1  6  0  0  0
  2 17  1  1  0  0  0
  2  6  1  0  0  0  0
  3 14  1  0  0  0  0
  4 12  1  6  0  0  0
  4  9  1  0  0  0  0
  5 11  1  1  0  0  0
  5  7  1  0  0  0  0
  6 16  1  6  0  0  0
  6  9  1  0  0  0  0
  7  2  1  0  0  0  0
  7  4  1  0  0  0  0
  8 12  1  0  0  0  0
 10 14  1  0  0  0  0
 10 20  1  0  0  0  0
 13 15  1  0  0  0  0
 13 19  1  0  0  0  0
 14 18  1  0  0  0  0
 15 10  1  0  0  0  0
 16  9  1  0  0  0  0
 18  5  1  0  0  0  0
 18  8  1  0  0  0  0
 19  1  1  0  0  0  0
 20 11  1  0  0  0  0
 21 22  1  0  0  0  0
 22 27  1  0  0  0  0
 23 24  2  0  0  0  0
 24 25  1  0  0  0  0
 24 22  1  0  0  0  0
 26 25  1  0  0  0  0
 27 28  1  0  0  0  0
M  END
>  <MODEL>
5

>  <REMARK>
 VINA RESULT:      -4.7      3.706      6.337
  Name = 
  4 active torsions:
  status: ('A' for Active; 'I' for Inactive)
    1  A    between atoms: C_1  and  C_2
    2  A    between atoms: C_2  and  N_3
    3  A    between atoms: N_3  and  C_7
    4  A    between atoms: C_6  and  C_11
                            x       y       z     vdW  Elec       q    Type
                         _______ _______ _______ _____ _____    ______ ____

>  <TORSDO>
F 4

$$$$
=
 OpenBabel11052423013D

 28 32  0  0  1  0  0  0  0  0999 V2000
  161.2060  207.3890  152.8790 C   0  0  1  0  0  3  0  0  0  0  0  0
  159.9360  213.3880  151.6350 C   0  0  1  0  0  3  0  0  0  0  0  0
  159.9490  210.5400  156.4840 O   0  0  0  0  0  1  0  0  0  0  0  0
  157.9540  212.0270  151.9350 C   0  0  2  0  0  3  0  0  0  0  0  0
  160.2470  211.1330  152.7830 C   0  0  2  0  0  3  0  0  0  0  0  0
  158.7680  214.1290  151.0030 C   0  0  1  0  0  3  0  0  0  0  0  0
  159.4690  211.9580  151.7510 C   0  0  2  0  0  3  0  0  0  0  0  0
  158.2100  211.0390  154.2530 C   0  0  0  0  0  2  0  0  0  0  0  0
  157.5370  213.3130  151.2170 C   0  0  2  0  0  3  0  0  0  0  0  0
  160.5100  208.9580  154.7490 C   0  0  2  0  0  3  0  0  0  0  0  0
  160.2460  209.6610  152.3720 C   0  0  0  0  0  2  0  0  0  0  0  0
  157.5010  212.0790  153.4030 C   0  0  0  0  0  2  0  0  0  0  0  0
  161.2780  206.6520  155.2870 C   0  0  0  0  0  2  0  0  0  0  0  0
  160.4890  210.4250  155.1990 C   0  0  1  0  0  3  0  0  0  0  0  0
  161.3120  208.1080  155.7290 C   0  0  0  0  0  2  0  0  0  0  0  0
  157.8290  214.4530  151.9950 O   0  0  0  0  0  0  0  0  0  0  0  0
  161.0910  213.4570  150.7590 N   0  0  0  0  0  1  0  0  0  0  0  0
  159.7120  211.3110  154.2130 C   0  0  1  0  0  3  0  0  0  0  0  0
  161.9220  206.5170  153.9130 C   0  0  0  0  0  2  0  0  0  0  0  0
  161.1100  208.8540  153.3360 C   0  0  2  0  0  3  0  0  0  0  0  0
  161.8710  207.2390  151.5030 C   0  0  0  0  0  2  0  0  0  0  0  0
  161.1590  206.3000  150.6360 N   0  0  0  0  0  0  0  0  0  0  0  0
  162.1340  204.4370  151.6730 O   0  0  0  0  0  0  0  0  0  0  0  0
  161.3550  204.8800  150.7870 C   0  0  0  0  0  0  0  0  0  0  0  0
  160.6830  203.9050  149.8770 C   0  0  0  0  0  2  0  0  0  0  0  0
  160.8130  202.5010  150.4330 C   0  0  0  0  0  1  0  0  0  0  0  0
  160.4870  206.8380  149.4590 C   0  0  0  0  0  2  0  0  0  0  0  0
  161.5020  207.3760  148.4680 C   0  0  0  0  0  1  0  0  0  0  0  0
  1 21  1  6  0  0  0
  1 20  1  0  0  0  0
  1 19  1  0  0  0  0
  2 17  1  6  0  0  0
  2  7  1  0  0  0  0
  4 12  1  1  0  0  0
  5 11  1  6  0  0  0
  5 18  1  0  0  0  0
  6  9  1  0  0  0  0
  6  2  1  0  0  0  0
  6 16  1  1  0  0  0
  7  4  1  0  0  0  0
  7  5  1  0  0  0  0
  9  4  1  0  0  0  0
  9 16  1  0  0  0  0
 10 14  1  0  0  0  0
 10 15  1  0  0  0  0
 11 20  1  0  0  0  0
 12  8  1  0  0  0  0
 13 15  1  0  0  0  0
 14  3  1  0  0  0  0
 18  8  1  0  0  0  0
 18 14  1  0  0  0  0
 19 13  1  0  0  0  0
 20 10  1  0  0  0  0
 22 24  1  0  0  0  0
 22 21  1  0  0  0  0
 24 23  2  0  0  0  0
 25 26  1  0  0  0  0
 25 24  1  0  0  0  0
 27 22  1  0  0  0  0
 28 27  1  0  0  0  0
M  END
>  <MODEL>
6

>  <REMARK>
 VINA RESULT:      -4.5      3.008      4.158
  Name = 
  4 active torsions:
  status: ('A' for Active; 'I' for Inactive)
    1  A    between atoms: C_1  and  C_2
    2  A    between atoms: C_2  and  N_3
    3  A    between atoms: N_3  and  C_7
    4  A    between atoms: C_6  and  C_11
                            x       y       z     vdW  Elec       q    Type
                         _______ _______ _______ _____ _____    ______ ____

>  <TORSDO>
F 4

$$$$
=
 OpenBabel11052423013D

 28 32  0  0  1  0  0  0  0  0999 V2000
  161.3850  207.6810  151.4830 C   0  0  1  0  0  3  0  0  0  0  0  0
  162.8910  212.8240  148.2530 C   0  0  1  0  0  3  0  0  0  0  0  0
  160.3920  212.1960  153.2510 O   0  0  0  0  0  1  0  0  0  0  0  0
  160.5510  212.2230  148.0690 C   0  0  2  0  0  3  0  0  0  0  0  0
  161.9770  211.1980  149.9910 C   0  0  2  0  0  3  0  0  0  0  0  0
  162.3320  213.5200  147.0220 C   0  0  1  0  0  3  0  0  0  0  0  0
  161.9110  211.7170  148.5500 C   0  0  2  0  0  3  0  0  0  0  0  0
  159.7150  212.1920  150.4600 C   0  0  0  0  0  2  0  0  0  0  0  0
  160.8820  213.1830  146.9240 C   0  0  2  0  0  3  0  0  0  0  0  0
  160.8070  209.9760  152.4000 C   0  0  2  0  0  3  0  0  0  0  0  0
  161.5460  209.7330  150.0320 C   0  0  0  0  0  2  0  0  0  0  0  0
  159.7360  212.9560  149.1460 C   0  0  0  0  0  2  0  0  0  0  0  0
  160.4560  207.9540  153.8080 C   0  0  0  0  0  2  0  0  0  0  0  0
  161.2050  211.4580  152.3860 C   0  0  1  0  0  3  0  0  0  0  0  0
  160.9010  209.4090  153.8130 C   0  0  0  0  0  2  0  0  0  0  0  0
  161.3330  214.4270  147.4130 O   0  0  0  0  0  0  0  0  0  0  0  0
  164.1920  212.2580  147.9460 N   0  0  0  0  0  1  0  0  0  0  0  0
  161.1490  212.0480  150.9680 C   0  0  1  0  0  3  0  0  0  0  0  0
  161.3800  207.1370  152.9130 C   0  0  0  0  0  2  0  0  0  0  0  0
  161.7160  209.1830  151.4450 C   0  0  2  0  0  3  0  0  0  0  0  0
  162.3220  206.8450  150.5980 C   0  0  0  0  0  2  0  0  0  0  0  0
  161.6060  206.1340  149.5390 N   0  0  0  0  0  0  0  0  0  0  0  0
  162.7030  207.3310  147.8470 O   0  0  0  0  0  0  0  0  0  0  0  0
  161.8580  206.4490  148.1550 C   0  0  0  0  0  0  0  0  0  0  0  0
  161.0980  205.7770  147.0590 C   0  0  0  0  0  2  0  0  0  0  0  0
  161.8860  204.5950  146.5300 C   0  0  0  0  0  1  0  0  0  0  0  0
  160.4540  205.3260  149.9220 C   0  0  0  0  0  2  0  0  0  0  0  0
  160.8980  203.9400  150.3520 C   0  0  0  0  0  1  0  0  0  0  0  0
  1 21  1  6  0  0  0
  1 19  1  0  0  0  0
  2 17  1  6  0  0  0
  2  7  1  0  0  0  0
  4  7  1  0  0  0  0
  4 12  1  1  0  0  0
  5 11  1  6  0  0  0
  5 18  1  0  0  0  0
  6 16  1  1  0  0  0
  6  2  1  0  0  0  0
  7  5  1  0  0  0  0
  8 18  1  0  0  0  0
  9  6  1  0  0  0  0
  9 16  1  0  0  0  0
  9  4  1  0  0  0  0
 10 15  1  0  0  0  0
 11 20  1  0  0  0  0
 12  8  1  0  0  0  0
 13 15  1  0  0  0  0
 14 10  1  0  0  0  0
 14  3  1  0  0  0  0
 18 14  1  0  0  0  0
 19 13  1  0  0  0  0
 20  1  1  0  0  0  0
 20 10  1  0  0  0  0
 22 27  1  0  0  0  0
 22 21  1  0  0  0  0
 23 24  2  0  0  0  0
 24 22  1  0  0  0  0
 25 24  1  0  0  0  0
 26 25  1  0  0  0  0
 27 28  1  0  0  0  0
M  END
>  <MODEL>
7

>  <REMARK>
 VINA RESULT:      -4.5      1.820      2.608
  Name = 
  4 active torsions:
  status: ('A' for Active; 'I' for Inactive)
    1  A    between atoms: C_1  and  C_2
    2  A    between atoms: C_2  and  N_3
    3  A    between atoms: N_3  and  C_7
    4  A    between atoms: C_6  and  C_11
                            x       y       z     vdW  Elec       q    Type
                         _______ _______ _______ _____ _____    ______ ____

>  <TORSDO>
F 4

$$$$
=
 OpenBabel11052423013D

 28 32  0  0  1  0  0  0  0  0999 V2000
  161.7120  210.1120  149.5080 C   0  0  1  0  0  3  0  0  0  0  0  0
  162.3960  209.9360  155.7250 C   0  0  1  0  0  3  0  0  0  0  0  0
  161.9120  205.8060  151.9400 O   0  0  0  0  0  1  0  0  0  0  0  0
  160.1110  209.5860  154.9980 C   0  0  2  0  0  3  0  0  0  0  0  0
  162.0460  209.3180  153.2770 C   0  0  2  0  0  3  0  0  0  0  0  0
  161.4870  210.2110  156.9130 C   0  0  1  0  0  3  0  0  0  0  0  0
  161.4940  210.0260  154.5190 C   0  0  2  0  0  3  0  0  0  0  0  0
  160.2380  207.5800  153.4570 C   0  0  0  0  0  2  0  0  0  0  0  0
  160.0810  209.9610  156.4810 C   0  0  2  0  0  3  0  0  0  0  0  0
  161.7530  207.8840  150.7230 C   0  0  2  0  0  3  0  0  0  0  0  0
  161.5180  210.0020  152.0160 C   0  0  0  0  0  2  0  0  0  0  0  0
  159.8390  208.0820  154.8340 C   0  0  0  0  0  2  0  0  0  0  0  0
  161.7590  207.9400  148.2340 C   0  0  0  0  0  2  0  0  0  0  0  0
  162.2620  207.1590  151.9760 C   0  0  1  0  0  3  0  0  0  0  0  0
  162.3150  207.2340  149.4620 C   0  0  0  0  0  2  0  0  0  0  0  0
  160.8040  209.0340  157.2600 O   0  0  0  0  0  0  0  0  0  0  0  0
  163.4220  210.9590  155.6480 N   0  0  0  0  0  1  0  0  0  0  0  0
  161.7350  207.8120  153.2630 C   0  0  1  0  0  3  0  0  0  0  0  0
  162.1920  209.4010  148.2410 C   0  0  0  0  0  2  0  0  0  0  0  0
  162.1520  209.3690  150.7810 C   0  0  2  0  0  3  0  0  0  0  0  0
  162.1600  211.5810  149.4960 C   0  0  0  0  0  2  0  0  0  0  0  0
  161.5810  212.3340  148.3820 N   0  0  0  0  0  0  0  0  0  0  0  0
  163.6390  212.4760  147.2680 O   0  0  0  0  0  0  0  0  0  0  0  0
  162.4120  212.7580  147.2830 C   0  0  0  0  0  0  0  0  0  0  0  0
  161.8540  213.5760  146.1640 C   0  0  0  0  0  2  0  0  0  0  0  0
  162.6840  213.3740  144.9110 C   0  0  0  0  0  1  0  0  0  0  0  0
  160.2380  212.8750  148.5540 C   0  0  0  0  0  2  0  0  0  0  0  0
  160.1160  213.5730  149.8970 C   0  0  0  0  0  1  0  0  0  0  0  0
  1 21  1  1  0  0  0
  1 20  1  0  0  0  0
  2 17  1  6  0  0  0
  2  6  1  0  0  0  0
  3 14  1  0  0  0  0
  4 12  1  1  0  0  0
  4  9  1  0  0  0  0
  5 11  1  6  0  0  0
  5  7  1  0  0  0  0
  6 16  1  1  0  0  0
  7  4  1  0  0  0  0
  7  2  1  0  0  0  0
  8 12  1  0  0  0  0
  9  6  1  0  0  0  0
  9 16  1  0  0  0  0
 10 20  1  0  0  0  0
 10 14  1  0  0  0  0
 13 19  1  0  0  0  0
 13 15  1  0  0  0  0
 14 18  1  0  0  0  0
 15 10  1  0  0  0  0
 18  5  1  0  0  0  0
 18  8  1  0  0  0  0
 19  1  1  0  0  0  0
 20 11  1  0  0  0  0
 22 27  1  0  0  0  0
 22 21  1  0  0  0  0
 23 24  2  0  0  0  0
 24 22  1  0  0  0  0
 25 24  1  0  0  0  0
 26 25  1  0  0  0  0
 27 28  1  0  0  0  0
M  END
>  <MODEL>
8

>  <REMARK>
 VINA RESULT:      -4.3      2.367      7.741
  Name = 
  4 active torsions:
  status: ('A' for Active; 'I' for Inactive)
    1  A    between atoms: C_1  and  C_2
    2  A    between atoms: C_2  and  N_3
    3  A    between atoms: N_3  and  C_7
    4  A    between atoms: C_6  and  C_11
                            x       y       z     vdW  Elec       q    Type
                         _______ _______ _______ _____ _____    ______ ____

>  <TORSDO>
F 4

$$$$
=
 OpenBabel11052423013D

 28 32  0  0  1  0  0  0  0  0999 V2000
  161.4160  206.6980  149.7820 C   0  0  1  0  0  3  0  0  0  0  0  0
  163.1110  212.4830  148.1080 C   0  0  1  0  0  3  0  0  0  0  0  0
  161.9890  210.2740  153.1560 O   0  0  0  0  0  1  0  0  0  0  0  0
  160.7370  212.2620  148.5340 C   0  0  2  0  0  3  0  0  0  0  0  0
  162.3610  210.4290  149.4170 C   0  0  2  0  0  3  0  0  0  0  0  0
  162.4120  213.6540  147.4360 C   0  0  1  0  0  3  0  0  0  0  0  0
  162.0240  211.4630  148.3370 C   0  0  2  0  0  3  0  0  0  0  0  0
  160.5970  211.4130  150.9160 C   0  0  0  0  0  2  0  0  0  0  0  0
  160.9520  213.5440  147.7260 C   0  0  2  0  0  3  0  0  0  0  0  0
  161.6440  208.5170  151.5370 C   0  0  2  0  0  3  0  0  0  0  0  0
  161.6360  209.1170  149.1180 C   0  0  0  0  0  2  0  0  0  0  0  0
  160.4330  212.6130  149.9990 C   0  0  0  0  0  2  0  0  0  0  0  0
  161.2400  206.1620  152.2370 C   0  0  0  0  0  2  0  0  0  0  0  0
  162.3480  209.8370  151.8770 C   0  0  1  0  0  3  0  0  0  0  0  0
  161.9870  207.4460  152.5680 C   0  0  0  0  0  2  0  0  0  0  0  0
  161.7890  214.4480  148.4140 O   0  0  0  0  0  0  0  0  0  0  0  0
  164.1170  211.9370  147.2140 N   0  0  0  0  0  1  0  0  0  0  0  0
  162.0440  210.9270  150.8370 C   0  0  1  0  0  3  0  0  0  0  0  0
  161.6760  205.6530  150.8690 C   0  0  0  0  0  2  0  0  0  0  0  0
  162.0540  208.0530  150.1290 C   0  0  2  0  0  3  0  0  0  0  0  0
  161.8630  206.1650  148.4130 C   0  0  0  0  0  2  0  0  0  0  0  0
  161.4430  204.7820  148.1860 N   0  0  0  0  0  0  0  0  0  0  0  0
  162.5780  204.6600  146.1370 O   0  0  0  0  0  0  0  0  0  0  0  0
  161.8500  204.0870  146.9900 C   0  0  0  0  0  0  0  0  0  0  0  0
  161.3860  202.6950  146.7100 C   0  0  0  0  0  2  0  0  0  0  0  0
  160.7470  202.6270  145.3370 C   0  0  0  0  0  1  0  0  0  0  0  0
  160.3920  204.2430  149.0410 C   0  0  0  0  0  2  0  0  0  0  0  0
  160.7760  202.8650  149.5480 C   0  0  0  0  0  1  0  0  0  0  0  0
  1 21  1  6  0  0  0
  1 20  1  0  0  0  0
  1 19  1  0  0  0  0
  2 17  1  6  0  0  0
  2  7  1  0  0  0  0
  4 12  1  1  0  0  0
  5 11  1  6  0  0  0
  5 18  1  0  0  0  0
  6  9  1  0  0  0  0
  6  2  1  0  0  0  0
  6 16  1  1  0  0  0
  7  4  1  0  0  0  0
  7  5  1  0  0  0  0
  9 16  1  0  0  0  0
  9  4  1  0  0  0  0
 10 14  1  0  0  0  0
 10 15  1  0  0  0  0
 11 20  1  0  0  0  0
 12  8  1  0  0  0  0
 13 15  1  0  0  0  0
 14  3  1  0  0  0  0
 18  8  1  0  0  0  0
 18 14  1  0  0  0  0
 19 13  1  0  0  0  0
 20 10  1  0  0  0  0
 22 21  1  0  0  0  0
 22 27  1  0  0  0  0
 23 24  2  0  0  0  0
 24 22  1  0  0  0  0
 25 24  1  0  0  0  0
 26 25  1  0  0  0  0
 27 28  1  0  0  0  0
M  END
>  <MODEL>
9

>  <REMARK>
 VINA RESULT:      -4.2      2.686      3.877
  Name = 
  4 active torsions:
  status: ('A' for Active; 'I' for Inactive)
    1  A    between atoms: C_1  and  C_2
    2  A    between atoms: C_2  and  N_3
    3  A    between atoms: N_3  and  C_7
    4  A    between atoms: C_6  and  C_11
                            x       y       z     vdW  Elec       q    Type
                         _______ _______ _______ _____ _____    ______ ____

>  <TORSDO>
F 4

$$$$
